data_PCOD8285431
_publ_section_title
;
Structure prediction by ZEFSAII (Michael W. Deem and Ramdas Pophale) SiO2 
 PCOD8285431
Probable space group: F M M M
;
_chemical_formula_sum "Si O2"
_cell_formula_units_Z 192
_cell_length_a 17.095917
_cell_length_b 33.317961
_cell_length_c 15.993930
_cell_angle_alpha 90.000000
_cell_angle_beta 90.000000
_cell_angle_gamma 90.000000
_cell_volume 9110.160055
_symmetry_space_group_name_H-M "F M M M"
_symmetry_group_IT_number 69
_symmetry_cell_setting 'orthorhombic'
loop_
_space_group_symop_operation_xyz
x,y,z
-x,-y,z
x,-y,-z
-x,y,-z
-x,-y,-z
x,y,-z
-x,y,z
x,-y,z
x,1/2+y,1/2+z
-x,1/2-y,1/2+z
x,1/2-y,1/2-z
-x,1/2+y,1/2-z
-x,1/2-y,1/2-z
x,1/2+y,1/2-z
-x,1/2+y,1/2+z
x,1/2-y,1/2+z
1/2+x,y,1/2+z
1/2-x,-y,1/2+z
1/2+x,-y,1/2-z
1/2-x,y,1/2-z
1/2-x,-y,1/2-z
1/2+x,y,1/2-z
1/2-x,y,1/2+z
1/2+x,-y,1/2+z
1/2+x,1/2+y,z
1/2-x,1/2-y,z
1/2+x,1/2-y,-z
1/2-x,1/2+y,-z
1/2-x,1/2-y,-z
1/2+x,1/2+y,-z
1/2-x,1/2+y,z
1/2+x,1/2-y,z
loop_
_atom_site_type_symbol
_atom_site_label
_atom_site_fract_x
_atom_site_fract_y
_atom_site_fract_z
Si Si1 0.088299 0.249434 0.847315
Si Si2 0.808597 0.454267 0.327216
Si Si3 0.692588 0.821594 0.594073
Si Si4 0.275446 0.453338 0.500000
Si Si5 0.860755 0.335772 0.852809
Si Si6 0.091077 0.607173 0.000000
Si Si7 0.909061 0.879155 0.814670
O O1 0.107247 0.250000 0.750000
O O2 0.150920 0.220983 0.891451
O O3 0.097559 0.294602 0.880790
O O4 0.000000 0.234236 0.865789
O O5 0.839791 0.500000 0.333699
O O6 0.750000 0.450016 0.250000
O O7 0.770683 0.440835 0.415606
O O8 0.879812 0.424781 0.305434
O O9 0.724125 0.823129 0.500000
O O10 0.767631 0.828500 0.653024
O O11 0.631837 0.857831 0.606820
O O12 0.292091 0.500000 0.500000
O O13 0.360602 0.433793 0.500000
O O14 0.885773 0.369076 0.917821
O O15 0.890148 0.350507 0.763252
O O16 0.000000 0.596161 0.000000
O O17 0.000000 0.881098 0.831504
#
# Coordination Sequence:
#
# PCOD8285431 Si02
#       7
#    32  32  32  16  32  16  32
#     4  11  24  43  65  92 129 169 217 275 335 386
#     4  10  22  42  69  98 131 173 218 268 327 397
#     4  12  26  43  66  96 127 174 226 272 322 391
#     4  10  22  43  69  97 132 174 223 268 323 400
#     4  12  25  44  66  94 130 174 222 270 328 394
#     4  12  24  39  65  98 135 171 214 273 331 384
#     4  12  25  42  67  97 133 171 217 271 329 389
#
# _framework density 21.075369999999999
#
# number of rings (size 3 to 8) (size 9 to 14) (size 15 to 20)
#    0.000    0.667    2.500    6.000    2.333    3.167 
#    0.000    0.000    0.000    6.500    0.000    0.000 
#    0.000    0.000    0.000    0.000    0.000    0.000 
#
# Total GULP energy -595396.580387 kJ/mol
# GULP energy per Si atom -12404.095425 kJ/mol
# Density = 2.102740 g / cm^3
# Si number density = 21.075370 Si / 1000 Ang^3
#
#
#
# Elastic Constant Matrix: (Units=GPa)
#
#
# Indices 1 2 3 4 5 6 
#
# 1 112.9267 31.7995 3.3745 0.0000 0.0000 0.0000
# 2 31.7995 98.1789 -1.9308 0.0000 0.0000 0.0000
# 3 3.3745 -1.9308 68.2856 0.0000 0.0000 0.0000
# 4 0.0000 0.0000 0.0000 22.4011 0.0000 0.0000
# 5 0.0000 0.0000 0.0000 0.0000 14.7372 0.0000
# 6 0.0000 0.0000 0.0000 0.0000 0.0000 29.8142
#
#
#
# Elastic Compliance Matrix: (Units=1/GPa)
#
#
# Indices 1 2 3 4 5 6 
#
# 1 0.009766 -0.003175 -0.000572 0.000000 0.000000 0.000000
# 2 -0.003175 0.011223 0.000474 0.000000 0.000000 0.000000
# 3 -0.000572 0.000474 0.014686 0.000000 0.000000 0.000000
# 4 0.000000 0.000000 0.000000 0.044641 0.000000 0.000000
# 5 0.000000 0.000000 0.000000 0.000000 0.067855 0.000000
# 6 0.000000 0.000000 0.000000 0.000000 0.000000 0.033541
#
#
# Mechanical properties :
#
#
# Convention : Reuss Voigt Hill
#
# Bulk Modulus (GPa) = 34.32881 38.43083 36.37982
# Shear Modulus (GPa) = 25.25664 29.80039 27.52851
#
# Velocity S-wave (km/s) = 3.46554 3.76439 3.61805
# Velocity P-wave (km/s) = 5.68659 6.09661 5.89516
#
# Compressibility (1/GPa) = 0.02913005
#
# Stress axis : x y z
#
# Youngs Moduli (GPa) = 102.39264 89.10264 68.09177
#
# Poissons Ratio (x) = 0.28286 0.03897
# Poissons Ratio (y) = 0.32505 -0.03229
# Poissons Ratio (z) = 0.05861 -0.04225
#
# Static dielectric constant tensor:
#      x y z
#    x 3.779120 0.000000 0.000000 
#    y 0.000000 4.059040 0.000000 
#    z 0.000000 0.000000 4.197870 
# 
# 
# High freq. dielectric constant tensor:
#      x y z
#    x 1.823940 0.000000 0.000000 
#    y 0.000000 1.838900 0.000000 
#    z 0.000000 0.000000 1.831960 
# 
# From -- ./inp_files/23743.got.cif
#   From: 2010.03.12/outbox.cif.g09.slc.cpg/sg69_12_cif.got.tgz:23743.got - 2010.04.10 23:52:46.
