data_PCOD8285189
_publ_section_title
;
Structure prediction by ZEFSAII (Michael W. Deem and Ramdas Pophale) SiO2 
 PCOD8285189
Probable space group: F M M M
;
_chemical_formula_sum "Si O2"
_cell_formula_units_Z 96
_cell_length_a 15.065848
_cell_length_b 16.830993
_cell_length_c 17.778640
_cell_angle_alpha 90.000000
_cell_angle_beta 90.000000
_cell_angle_gamma 90.000000
_cell_volume 4508.186320
_symmetry_space_group_name_H-M "F M M M"
_symmetry_group_IT_number 69
_symmetry_cell_setting 'orthorhombic'
loop_
_space_group_symop_operation_xyz
x,y,z
-x,-y,z
x,-y,-z
-x,y,-z
-x,-y,-z
x,y,-z
-x,y,z
x,-y,z
x,1/2+y,1/2+z
-x,1/2-y,1/2+z
x,1/2-y,1/2-z
-x,1/2+y,1/2-z
-x,1/2-y,1/2-z
x,1/2+y,1/2-z
-x,1/2+y,1/2+z
x,1/2-y,1/2+z
1/2+x,y,1/2+z
1/2-x,-y,1/2+z
1/2+x,-y,1/2-z
1/2-x,y,1/2-z
1/2-x,-y,1/2-z
1/2+x,y,1/2-z
1/2-x,y,1/2+z
1/2+x,-y,1/2+z
1/2+x,1/2+y,z
1/2-x,1/2-y,z
1/2+x,1/2-y,-z
1/2-x,1/2+y,-z
1/2-x,1/2-y,-z
1/2+x,1/2+y,-z
1/2-x,1/2+y,z
1/2+x,1/2-y,z
loop_
_atom_site_type_symbol
_atom_site_label
_atom_site_fract_x
_atom_site_fract_y
_atom_site_fract_z
Si Si1 0.281686 0.906936 0.585187
Si Si2 0.904264 0.591172 0.862723
Si Si3 0.898794 0.831369 0.211378
O O1 0.314247 0.894513 0.500000
O O2 0.179971 0.874819 0.591821
O O3 0.341899 0.853437 0.638702
O O4 0.287677 0.000000 0.608232
O O5 0.912872 0.500000 0.883269
O O6 0.887844 0.599985 0.773478
O O7 0.000000 0.632516 0.884140
O O8 0.864667 0.750000 0.250000
O O9 0.000000 0.821910 0.184168
#
# Coordination Sequence:
#
# PCOD8285189 Si02
#       3
#    32  32  32
#     4  10  21  36  57  87 118 147 183 232 290 344
#     4   9  18  34  56  80 109 149 194 235 275 329
#     4  10  21  37  56  79 110 149 192 236 283 337
#
# _framework density 21.294595000000001
#
# number of rings (size 3 to 8) (size 9 to 14) (size 15 to 20)
#    0.000    2.333    0.000    2.000    0.000    8.667 
#    0.000    8.333    0.000    6.000    0.000    0.000 
#    0.000    0.000    0.000    0.000    0.000    0.000 
#
# Total GULP energy -297412.524380 kJ/mol
# GULP energy per Si atom -12392.188516 kJ/mol
# Density = 2.124613 g / cm^3
# Si number density = 21.294595 Si / 1000 Ang^3
#
#
#
# Elastic Constant Matrix: (Units=GPa)
#
#
# Indices 1 2 3 4 5 6 
#
# 1 135.7100 53.9121 72.7326 0.0000 0.0000 0.0000
# 2 53.9121 58.9054 43.3845 0.0000 0.0000 0.0000
# 3 72.7326 43.3845 113.2818 0.0000 0.0000 0.0000
# 4 0.0000 0.0000 0.0000 31.6677 0.0000 0.0000
# 5 0.0000 0.0000 0.0000 0.0000 12.9854 0.0000
# 6 0.0000 0.0000 0.0000 0.0000 0.0000 19.1606
#
#
#
# Elastic Compliance Matrix: (Units=1/GPa)
#
#
# Indices 1 2 3 4 5 6 
#
# 1 0.013707 -0.008445 -0.005566 0.000000 0.000000 0.000000
# 2 -0.008445 0.028850 -0.005627 0.000000 0.000000 0.000000
# 3 -0.005566 -0.005627 0.014556 0.000000 0.000000 0.000000
# 4 0.000000 0.000000 0.000000 0.031578 0.000000 0.000000
# 5 0.000000 0.000000 0.000000 0.000000 0.077010 0.000000
# 6 0.000000 0.000000 0.000000 0.000000 0.000000 0.052191
#
#
# Mechanical properties :
#
#
# Convention : Reuss Voigt Hill
#
# Bulk Modulus (GPa) = 56.06386 71.99505 64.02946
# Shear Modulus (GPa) = 19.00330 21.95392 20.47861
#
# Velocity S-wave (km/s) = 2.99055 3.21434 3.10446
# Velocity P-wave (km/s) = 6.18946 6.90351 6.55621
#
# Compressibility (1/GPa) = 0.01783680
#
# Stress axis : x y z
#
# Youngs Moduli (GPa) = 72.95691 34.66216 68.70003
#
# Poissons Ratio (x) = 0.29274 0.38238
# Poissons Ratio (y) = 0.61615 0.38654
# Poissons Ratio (z) = 0.40608 0.19503
#
# Static dielectric constant tensor:
#      x y z
#    x 4.316370 0.000000 0.000000 
#    y 0.000000 3.691780 0.000000 
#    z 0.000000 0.000000 3.620890 
# 
# 
# High freq. dielectric constant tensor:
#      x y z
#    x 1.850120 0.000000 0.000000 
#    y 0.000000 1.811570 0.000000 
#    z 0.000000 0.000000 1.816080 
# 
# From -- ./inp_files/8912.got.cif
#   From: 2010.03.12/outbox.cif.g09.slc.cpg/sg69_5_cif.got.tgz:8912.got - 2010.04.10 23:52:46.
