data_PCOD8285064
_publ_section_title
;
Structure prediction by ZEFSAII (Michael W. Deem and Ramdas Pophale) SiO2 
 PCOD8285064
Probable space group: F M M M
;
_chemical_formula_sum "Si O2"
_cell_formula_units_Z 192
_cell_length_a 17.941646
_cell_length_b 30.900634
_cell_length_c 17.110632
_cell_angle_alpha 90.000000
_cell_angle_beta 90.000000
_cell_angle_gamma 90.000000
_cell_volume 9486.275311
_symmetry_space_group_name_H-M "F M M M"
_symmetry_group_IT_number 69
_symmetry_cell_setting 'orthorhombic'
loop_
_space_group_symop_operation_xyz
x,y,z
-x,-y,z
x,-y,-z
-x,y,-z
-x,-y,-z
x,y,-z
-x,y,z
x,-y,z
x,1/2+y,1/2+z
-x,1/2-y,1/2+z
x,1/2-y,1/2-z
-x,1/2+y,1/2-z
-x,1/2-y,1/2-z
x,1/2+y,1/2-z
-x,1/2+y,1/2+z
x,1/2-y,1/2+z
1/2+x,y,1/2+z
1/2-x,-y,1/2+z
1/2+x,-y,1/2-z
1/2-x,y,1/2-z
1/2-x,-y,1/2-z
1/2+x,y,1/2-z
1/2-x,y,1/2+z
1/2+x,-y,1/2+z
1/2+x,1/2+y,z
1/2-x,1/2-y,z
1/2+x,1/2-y,-z
1/2-x,1/2+y,-z
1/2-x,1/2-y,-z
1/2+x,1/2+y,-z
1/2-x,1/2+y,z
1/2+x,1/2-y,z
loop_
_atom_site_type_symbol
_atom_site_label
_atom_site_fract_x
_atom_site_fract_y
_atom_site_fract_z
Si Si1 0.158387 0.128651 0.351637
Si Si2 0.129302 0.087125 0.805362
Si Si3 0.767712 0.797525 0.907918
Si Si4 0.581212 0.338595 0.910298
Si Si5 0.256971 0.450647 0.589074
Si Si6 0.500000 0.621469 0.407407
Si Si7 0.000000 0.547632 0.211954
O O1 0.164321 0.119047 0.259604
O O2 0.217068 0.166226 0.368348
O O3 0.176901 0.084104 0.398350
O O4 0.075796 0.145268 0.377854
O O5 0.084452 0.116245 0.865859
O O6 0.191831 0.059716 0.849680
O O7 0.072949 0.054454 0.764344
O O8 0.750000 0.750000 0.874704
O O9 0.853731 0.805809 0.884980
O O10 0.753004 0.799751 0.000000
O O11 0.500000 0.316904 0.894787
O O12 0.591850 0.350895 0.000000
O O13 0.227772 0.446170 0.500000
O O14 0.285099 0.500000 0.604340
O O15 0.500000 0.617483 0.500000
O O16 0.500000 0.575118 0.366624
O O17 0.000000 0.500000 0.179113
#
# Coordination Sequence:
#
# PCOD8285064 Si02
#       7
#    32  32  32  32  32  16  16
#     4  11  23  39  61  88 120 159 204 254 309 367
#     4  11  21  37  59  86 122 161 199 247 309 362
#     4  10  21  40  66  94 124 159 202 250 306 371
#     4  10  20  37  64  91 119 158 201 245 299 364
#     4  11  23  38  59  87 118 157 207 256 304 364
#     4  10  22  39  60  82 112 157 207 258 309 358
#     4  10  22  37  55  85 123 158 202 251 302 370
#
# _framework density 20.239765999999999
#
# number of rings (size 3 to 8) (size 9 to 14) (size 15 to 20)
#    0.000    1.500    2.500    3.000    0.000    4.167 
#    1.500    1.667    0.000    3.000    0.000    0.000 
#    0.000    0.000    0.000    0.000    0.000    0.000 
#
# Total GULP energy -595073.421757 kJ/mol
# GULP energy per Si atom -12397.362953 kJ/mol
# Density = 2.019370 g / cm^3
# Si number density = 20.239766 Si / 1000 Ang^3
#
#
#
# Elastic Constant Matrix: (Units=GPa)
#
#
# Indices 1 2 3 4 5 6 
#
# 1 141.7082 53.4886 38.5892 0.0000 0.0000 0.0000
# 2 53.4886 119.9143 28.8171 0.0000 0.0000 0.0000
# 3 38.5892 28.8171 79.3597 0.0000 0.0000 0.0000
# 4 0.0000 0.0000 0.0000 20.6257 0.0000 0.0000
# 5 0.0000 0.0000 0.0000 0.0000 26.0888 0.0000
# 6 0.0000 0.0000 0.0000 0.0000 0.0000 20.9969
#
#
#
# Elastic Compliance Matrix: (Units=1/GPa)
#
#
# Indices 1 2 3 4 5 6 
#
# 1 0.009199 -0.003318 -0.003268 0.000000 0.000000 0.000000
# 2 -0.003318 0.010333 -0.002139 0.000000 0.000000 0.000000
# 3 -0.003268 -0.002139 0.014967 0.000000 0.000000 0.000000
# 4 0.000000 0.000000 0.000000 0.048483 0.000000 0.000000
# 5 0.000000 0.000000 0.000000 0.000000 0.038331 0.000000
# 6 0.000000 0.000000 0.000000 0.000000 0.000000 0.047626
#
#
# Mechanical properties :
#
#
# Convention : Reuss Voigt Hill
#
# Bulk Modulus (GPa) = 58.65464 64.75243 61.70354
# Shear Modulus (GPa) = 26.03185 28.21476 27.12330
#
# Velocity S-wave (km/s) = 3.59022 3.73772 3.66471
# Velocity P-wave (km/s) = 6.79919 7.11966 6.96127
#
# Compressibility (1/GPa) = 0.01704895
#
# Stress axis : x y z
#
# Youngs Moduli (GPa) = 108.70582 96.77485 66.81472
#
# Poissons Ratio (x) = 0.32109 0.21837
# Poissons Ratio (y) = 0.36068 0.14291
# Poissons Ratio (z) = 0.35529 0.20699
#
# Static dielectric constant tensor:
#      x y z
#    x 4.202340 0.000000 0.000000 
#    y 0.000000 3.489540 0.000000 
#    z 0.000000 0.000000 3.780040 
# 
# 
# High freq. dielectric constant tensor:
#      x y z
#    x 1.805070 0.000000 0.000000 
#    y 0.000000 1.764270 0.000000 
#    z 0.000000 0.000000 1.799140 
# 
# From -- ./inp_files/23675.got.cif
#   From: 2010.03.12/outbox.cif.g09.slc.cpg/sg69_12_cif.got.tgz:23675.got - 2010.04.10 23:52:46.
