data_PCOD8285853
_publ_section_title
;
Structure prediction by ZEFSAII (Michael W. Deem and Ramdas Pophale) SiO2 
 PCOD8285853
Probable space group: F D D D
;
_chemical_formula_sum "Si O2"
_cell_formula_units_Z 208
_cell_length_a 18.278907
_cell_length_b 20.387245
_cell_length_c 28.854334
_cell_angle_alpha 90.000000
_cell_angle_beta 90.000000
_cell_angle_gamma 90.000000
_cell_volume 10752.756715
_symmetry_space_group_name_H-M "F D D D"
_symmetry_group_IT_number 70
_space_group.IT_coordinate_system_code '2'
_symmetry_cell_setting 'orthorhombic'
loop_
_space_group_symop_operation_xyz
x,y,z
1/4-x,1/4-y,z
x,1/4-y,1/4-z
1/4-x,y,1/4-z
-x,-y,-z
3/4+x,3/4+y,-z
-x,3/4+y,3/4+z
3/4+x,-y,3/4+z
x,1/2+y,1/2+z
1/4-x,3/4-y,1/2+z
x,3/4-y,3/4-z
1/4-x,1/2+y,3/4-z
-x,1/2-y,1/2-z
3/4+x,1/4+y,1/2-z
-x,1/4+y,1/4+z
3/4+x,1/2-y,1/4+z
1/2+x,y,1/2+z
3/4-x,1/4-y,1/2+z
1/2+x,1/4-y,3/4-z
3/4-x,y,3/4-z
1/2-x,-y,1/2-z
1/4+x,3/4+y,1/2-z
1/2-x,3/4+y,1/4+z
1/4+x,-y,1/4+z
1/2+x,1/2+y,z
3/4-x,3/4-y,z
1/2+x,3/4-y,1/4-z
3/4-x,1/2+y,1/4-z
1/2-x,1/2-y,-z
1/4+x,1/4+y,-z
1/2-x,1/4+y,3/4+z
1/4+x,1/2-y,3/4+z
loop_
_atom_site_type_symbol
_atom_site_label
_atom_site_fract_x
_atom_site_fract_y
_atom_site_fract_z
Si Si1 0.091828 0.819333 0.537351
Si Si2 0.125000 0.514758 0.625000
Si Si3 0.149326 0.374700 0.800348
Si Si4 0.055521 0.745736 0.991536
Si Si5 0.097671 0.289552 0.675979
Si Si6 0.513760 0.657851 0.672454
Si Si7 0.741320 0.625000 0.125000
Si Si8 0.625000 0.125000 0.247619
O O1 0.132259 0.781375 0.579409
O O2 0.148834 0.829743 0.495261
O O3 0.065245 0.892400 0.553220
O O4 0.027112 0.778837 0.513370
O O5 0.193231 0.561375 0.613173
O O6 0.188242 0.306151 0.791651
O O7 0.205658 0.406385 0.836097
O O8 0.071096 0.358303 0.822310
O O9 0.082763 0.764038 0.043818
O O10 0.112976 0.690259 0.972101
O O11 0.125000 0.305094 0.625000
O O12 0.032824 0.235474 0.674276
O O13 0.542983 0.625000 0.625000
O O14 0.552917 0.623323 0.715474
#
# Coordination Sequence:
#
# PCOD8285853 Si02
#       8
#    32  16  32  32  32  32  16  16
#     4  11  22  41  63  90 122 164 205 262 319 365
#     4  11  24  46  70  86 117 166 210 266 321 374
#     4  11  23  37  61  94 121 157 209 262 305 369
#     4  10  21  35  56  87 127 158 204 252 305 366
#     4  10  22  35  58  91 126 169 207 241 304 388
#     4  11  20  33  55  88 127 165 199 244 297 363
#     4  11  24  44  68  95 114 156 220 263 320 378
#     4  10  19  32  56  82 122 168 194 230 300 371
#
# _framework density 19.343876999999999
#
# number of rings (size 3 to 8) (size 9 to 14) (size 15 to 20)
#    0.000    1.385    4.615    2.077    2.154    2.462 
#    0.000    0.000    0.000    0.000    0.000    0.000 
#    0.000    0.000    0.000    0.000    0.000    0.000 
#
# Total GULP energy -644209.345149 kJ/mol
# GULP energy per Si atom -12388.641253 kJ/mol
# Density = 1.929985 g / cm^3
# Si number density = 19.343877 Si / 1000 Ang^3
#
#
#
# Elastic Constant Matrix: (Units=GPa)
#
#
# Indices 1 2 3 4 5 6 
#
# 1 92.0320 29.5938 33.8071 0.0000 0.0000 0.0000
# 2 29.5938 88.8911 26.2872 0.0000 0.0000 0.0000
# 3 33.8071 26.2872 91.2349 0.0000 0.0000 0.0000
# 4 0.0000 0.0000 0.0000 1426.7576 0.0000 0.0000
# 5 0.0000 0.0000 0.0000 0.0000 29.3486 0.0000
# 6 0.0000 0.0000 0.0000 0.0000 0.0000 26.1041
#
#
#
# Elastic Compliance Matrix: (Units=1/GPa)
#
#
# Indices 1 2 3 4 5 6 
#
# 1 0.013394 -0.003270 -0.004021 0.000000 0.000000 0.000000
# 2 -0.003270 0.013096 -0.002562 0.000000 0.000000 0.000000
# 3 -0.004021 -0.002562 0.013189 0.000000 0.000000 0.000000
# 4 0.000000 0.000000 0.000000 0.000701 0.000000 0.000000
# 5 0.000000 0.000000 0.000000 0.000000 0.034073 0.000000
# 6 0.000000 0.000000 0.000000 0.000000 0.000000 0.038308
#
#
# Mechanical properties :
#
#
# Convention : Reuss Voigt Hill
#
# Bulk Modulus (GPa) = 50.06613 50.17047 50.11830
# Shear Modulus (GPa) = 35.93892 308.60671 172.27281
#
# Velocity S-wave (km/s) = 4.31501 12.64450 9.44730
# Velocity P-wave (km/s) = 7.12489 15.46514 12.04023
#
# Compressibility (1/GPa) = 0.01997358
#
# Stress axis : x y z
#
# Youngs Moduli (GPa) = 74.65771 76.35955 75.82198
#
# Poissons Ratio (x) = 0.24971 0.30489
# Poissons Ratio (y) = 0.24414 0.19422
# Poissons Ratio (z) = 0.30021 0.19560
#
# Static dielectric constant tensor:
#      x y z
#    x 3.310830 0.000000 0.000000 
#    y 0.000000 3.745530 0.000000 
#    z 0.000000 0.000000 3.610850 
# 
# 
# High freq. dielectric constant tensor:
#      x y z
#    x 1.736770 0.000000 0.000000 
#    y 0.000000 1.762150 0.000000 
#    z 0.000000 0.000000 1.751310 
# 
# From -- ./inp_files/59641.got.cif
#   From: 2010.03.12/outbox.cif.g09.slc.cpg/sg70_30_cif.got.tgz:59641.got - 2010.04.16 13:46:32.
