data_PCOD8285858
_publ_section_title
;
Structure prediction by ZEFSAII (Michael W. Deem and Ramdas Pophale) SiO2 
 PCOD8285858
Probable space group: F D D D
;
_chemical_formula_sum "Si O2"
_cell_formula_units_Z 208
_cell_length_a 17.928532
_cell_length_b 29.865184
_cell_length_c 20.263689
_cell_angle_alpha 90.000000
_cell_angle_beta 90.000000
_cell_angle_gamma 90.000000
_cell_volume 10849.967491
_symmetry_space_group_name_H-M "F D D D"
_symmetry_group_IT_number 70
_space_group.IT_coordinate_system_code '2'
_symmetry_cell_setting 'orthorhombic'
loop_
_space_group_symop_operation_xyz
x,y,z
1/4-x,1/4-y,z
x,1/4-y,1/4-z
1/4-x,y,1/4-z
-x,-y,-z
3/4+x,3/4+y,-z
-x,3/4+y,3/4+z
3/4+x,-y,3/4+z
x,1/2+y,1/2+z
1/4-x,3/4-y,1/2+z
x,3/4-y,3/4-z
1/4-x,1/2+y,3/4-z
-x,1/2-y,1/2-z
3/4+x,1/4+y,1/2-z
-x,1/4+y,1/4+z
3/4+x,1/2-y,1/4+z
1/2+x,y,1/2+z
3/4-x,1/4-y,1/2+z
1/2+x,1/4-y,3/4-z
3/4-x,y,3/4-z
1/2-x,-y,1/2-z
1/4+x,3/4+y,1/2-z
1/2-x,3/4+y,1/4+z
1/4+x,-y,1/4+z
1/2+x,1/2+y,z
3/4-x,3/4-y,z
1/2+x,3/4-y,1/4-z
3/4-x,1/2+y,1/4-z
1/2-x,1/2-y,-z
1/4+x,1/4+y,-z
1/2-x,1/4+y,3/4+z
1/4+x,1/2-y,3/4+z
loop_
_atom_site_type_symbol
_atom_site_label
_atom_site_fract_x
_atom_site_fract_y
_atom_site_fract_z
Si Si1 0.303309 0.626566 0.327635
Si Si2 0.506997 0.294771 0.792549
Si Si3 0.837666 0.710980 0.747270
Si Si4 0.446857 0.719520 0.792902
Si Si5 0.968736 0.222846 0.945370
Si Si6 0.712780 0.624549 0.949822
Si Si7 0.625000 0.232631 0.625000
O O1 0.375000 0.617055 0.375000
O O2 0.314145 0.662462 0.271290
O O3 0.283019 0.582722 0.285427
O O4 0.236022 0.640338 0.376410
O O5 0.500000 0.250000 0.750000
O O6 0.596255 0.294259 0.807877
O O7 0.493823 0.339860 0.751555
O O8 0.450774 0.295760 0.856410
O O9 0.768035 0.735833 0.717409
O O10 0.863424 0.737258 0.811877
O O11 0.500000 0.750000 0.750000
O O12 0.361531 0.726865 0.769554
O O13 0.458882 0.731060 0.868634
O O14 0.006417 0.175321 0.964307
O O15 0.625000 0.625000 0.955707
#
# Coordination Sequence:
#
# PCOD8285858 Si02
#       7
#    32  32  32  32  32  32  16
#     4  11  18  39  65  87 117 160 204 253 307 368
#     4  10  19  33  51  79 116 160 202 253 302 357
#     4  11  20  35  60  86 119 159 203 252 308 372
#     4  10  21  41  66  86 116 158 209 260 319 370
#     4  10  22  39  59  89 121 157 202 263 318 372
#     4  11  20  35  59  85 118 161 206 251 306 373
#     4  10  20  32  51  82 124 162 204 250 297 362
#
# _framework density 19.170563999999999
#
# number of rings (size 3 to 8) (size 9 to 14) (size 15 to 20)
#    0.000    1.538    5.385    2.769    0.000    3.692 
#    0.000    4.231    0.000    7.385    0.000    0.000 
#    0.000    0.000    0.000    0.000    0.000    0.000 
#
# Total GULP energy -644291.448933 kJ/mol
# GULP energy per Si atom -12390.220172 kJ/mol
# Density = 1.912693 g / cm^3
# Si number density = 19.170564 Si / 1000 Ang^3
#
#
#
# Elastic Constant Matrix: (Units=GPa)
#
#
# Indices 1 2 3 4 5 6 
#
# 1 146.4264 56.9929 50.1569 0.0000 0.0000 0.0000
# 2 56.9929 107.9305 49.4924 0.0000 0.0000 0.0000
# 3 50.1569 49.4924 47.3860 0.0000 0.0000 0.0000
# 4 0.0000 0.0000 0.0000 39.1359 0.0000 0.0000
# 5 0.0000 0.0000 0.0000 0.0000 41.8165 0.0000
# 6 0.0000 0.0000 0.0000 0.0000 0.0000 26.6984
#
#
#
# Elastic Compliance Matrix: (Units=1/GPa)
#
#
# Indices 1 2 3 4 5 6 
#
# 1 0.010757 -0.000881 -0.010466 0.000000 0.000000 0.000000
# 2 -0.000881 0.017854 -0.017715 0.000000 0.000000 0.000000
# 3 -0.010466 -0.017715 0.050683 0.000000 0.000000 0.000000
# 4 0.000000 0.000000 0.000000 0.025552 0.000000 0.000000
# 5 0.000000 0.000000 0.000000 0.000000 0.023914 0.000000
# 6 0.000000 0.000000 0.000000 0.000000 0.000000 0.037455
#
#
# Mechanical properties :
#
#
# Convention : Reuss Voigt Hill
#
# Bulk Modulus (GPa) = 47.23499 68.33634 57.78567
# Shear Modulus (GPa) = 21.60793 31.20355 26.40574
#
# Velocity S-wave (km/s) = 3.36093 4.03883 3.71537
# Velocity P-wave (km/s) = 6.30508 7.58112 6.97235
#
# Compressibility (1/GPa) = 0.02117075
#
# Stress axis : x y z
#
# Youngs Moduli (GPa) = 92.95941 56.01083 19.73033
#
# Poissons Ratio (x) = 0.04935 0.20650
# Poissons Ratio (y) = 0.08191 0.34952
# Poissons Ratio (z) = 0.97292 0.99221
#
# Static dielectric constant tensor:
#      x y z
#    x 4.102000 0.000000 0.000000 
#    y 0.000000 3.704560 0.000000 
#    z 0.000000 0.000000 3.383040 
# 
# 
# High freq. dielectric constant tensor:
#      x y z
#    x 1.761050 0.000000 0.000000 
#    y 0.000000 1.752660 0.000000 
#    z 0.000000 0.000000 1.712630 
# 
# From -- ./inp_files/43926.got.cif
#   From: 2010.03.12/outbox.cif.g09.slc.cpg/sg70_22_cif.got.tgz:43926.got - 2010.04.16 13:46:32.
