data_PCOD8285364
_publ_section_title
;
Structure prediction by ZEFSAII (Michael W. Deem and Ramdas Pophale) SiO2 
 PCOD8285364
Probable space group: F M M M
;
_chemical_formula_sum "Si O2"
_cell_formula_units_Z 104
_cell_length_a 23.733011
_cell_length_b 23.733025
_cell_length_c 8.840257
_cell_angle_alpha 90.000000
_cell_angle_beta 90.000000
_cell_angle_gamma 90.000000
_cell_volume 4979.329064
_symmetry_space_group_name_H-M "F M M M"
_symmetry_group_IT_number 69
_symmetry_cell_setting 'orthorhombic'
loop_
_space_group_symop_operation_xyz
x,y,z
-x,-y,z
x,-y,-z
-x,y,-z
-x,-y,-z
x,y,-z
-x,y,z
x,-y,z
x,1/2+y,1/2+z
-x,1/2-y,1/2+z
x,1/2-y,1/2-z
-x,1/2+y,1/2-z
-x,1/2-y,1/2-z
x,1/2+y,1/2-z
-x,1/2+y,1/2+z
x,1/2-y,1/2+z
1/2+x,y,1/2+z
1/2-x,-y,1/2+z
1/2+x,-y,1/2-z
1/2-x,y,1/2-z
1/2-x,-y,1/2-z
1/2+x,y,1/2-z
1/2-x,y,1/2+z
1/2+x,-y,1/2+z
1/2+x,1/2+y,z
1/2-x,1/2-y,z
1/2+x,1/2-y,-z
1/2-x,1/2+y,-z
1/2-x,1/2-y,-z
1/2+x,1/2+y,-z
1/2-x,1/2+y,z
1/2+x,1/2-y,z
loop_
_atom_site_type_symbol
_atom_site_label
_atom_site_fract_x
_atom_site_fract_y
_atom_site_fract_z
Si Si1 0.624843 0.000000 0.333043
Si Si2 0.000000 0.000000 0.250001
Si Si3 0.392648 0.310694 0.319144
Si Si4 0.189305 0.892649 0.180858
Si Si5 0.000000 0.875157 0.333043
O O1 0.557096 0.000000 0.346773
O O2 0.649250 0.943408 0.256666
O O3 0.650442 0.000000 0.500000
O O4 0.000000 0.057096 0.346775
O O5 0.387873 0.308271 0.500000
O O6 0.404069 0.250000 0.250000
O O7 0.334914 0.334915 0.250001
O O8 0.443408 0.350749 0.256668
O O9 0.250000 0.904070 0.250000
O O10 0.191728 0.887874 0.000000
O O11 0.000000 0.849557 0.500000
#
# Coordination Sequence:
#
# PCOD8285364 Si02
#       5
#    16   8  32  32  16
#     4  10  22  38  62  94 130 164 205 252 314 374
#     4  12  18  40  64  98 128 160 202 252 314 372
#     4  11  23  42  64  93 126 167 211 260 311 371
#     4  11  23  42  64  93 126 167 211 260 311 371
#     4  10  22  38  62  94 130 164 205 252 314 374
#
# _framework density 20.886348000000002
#
# number of rings (size 3 to 8) (size 9 to 14) (size 15 to 20)
#    0.000    1.231    3.077    3.231    0.000    0.615 
#    0.000    7.692    0.000    0.000    0.000    0.000 
#    0.000    0.000    0.000    0.000    0.000    0.000 
#
# Total GULP energy -322295.620944 kJ/mol
# GULP energy per Si atom -12395.985421 kJ/mol
# Density = 2.083881 g / cm^3
# Si number density = 20.886348 Si / 1000 Ang^3
#
#
#
# Elastic Constant Matrix: (Units=GPa)
#
#
# Indices 1 2 3 4 5 6 
#
# 1 152.8668 65.6353 38.7613 -0.0040 0.0035 0.0026
# 2 65.6353 152.8666 38.7593 -0.0047 0.0059 0.0039
# 3 38.7613 38.7593 98.5666 -0.0144 0.0176 0.0127
# 4 -0.0040 -0.0047 -0.0144 25.8900 0.0074 0.0054
# 5 0.0035 0.0059 0.0176 0.0074 25.8891 -0.0052
# 6 0.0026 0.0039 0.0127 0.0054 -0.0052 37.5825
#
#
#
# Elastic Compliance Matrix: (Units=1/GPa)
#
#
# Indices 1 2 3 4 5 6 
#
# 1 0.008391 -0.003073 -0.002092 0.000000 0.000001 0.000000
# 2 -0.003073 0.008391 -0.002091 0.000000 0.000000 0.000000
# 3 -0.002092 -0.002091 0.011790 0.000006 -0.000007 -0.000004
# 4 0.000000 0.000000 0.000006 0.038625 -0.000011 -0.000006
# 5 0.000001 0.000000 -0.000007 -0.000011 0.038626 0.000005
# 6 0.000000 0.000000 -0.000004 -0.000006 0.000005 0.026608
#
#
# Mechanical properties :
#
#
# Convention : Reuss Voigt Hill
#
# Bulk Modulus (GPa) = 71.11551 76.73464 73.92508
# Shear Modulus (GPa) = 32.97489 35.28193 34.12841
#
# Velocity S-wave (km/s) = 3.97769 4.11449 4.04667
# Velocity P-wave (km/s) = 7.43093 7.70655 7.57000
#
# Compressibility (1/GPa) = 0.01406163
#
# Stress axis : x y z
#
# Youngs Moduli (GPa) = 119.17178 119.17298 84.81512
#
# Poissons Ratio (x) = 0.36617 0.17740
# Poissons Ratio (y) = 0.36616 0.17738
# Poissons Ratio (z) = 0.24926 0.24923
#
# Static dielectric constant tensor:
#      x y z
#    x 3.856670 0.000000 0.000000 
#    y 0.000000 3.856670 0.000000 
#    z 0.000000 0.000000 3.465030 
# 
# 
# High freq. dielectric constant tensor:
#      x y z
#    x 1.829480 0.000000 0.000000 
#    y 0.000000 1.829470 0.000000 
#    z 0.000000 0.000000 1.798310 
# 
# From -- ./inp_files/2964.got.cif
#   From: 2010.03.12/outbox.cif.g09.slc.cpg/sg69_2_cif.got.tgz:2964.got - 2010.04.10 23:52:46.
