data_PCOD8285975
_publ_section_title
;
Structure prediction by ZEFSAII (Michael W. Deem and Ramdas Pophale) SiO2 
 PCOD8285975
Probable space group: F D D D
;
_chemical_formula_sum "Si O2"
_cell_formula_units_Z 96
_cell_length_a 15.751516
_cell_length_b 9.067701
_cell_length_c 28.901677
_cell_angle_alpha 90.000000
_cell_angle_beta 90.000000
_cell_angle_gamma 90.000000
_cell_volume 4128.027606
_symmetry_space_group_name_H-M "F D D D"
_symmetry_group_IT_number 70
_space_group.IT_coordinate_system_code '2'
_symmetry_cell_setting 'orthorhombic'
loop_
_space_group_symop_operation_xyz
x,y,z
1/4-x,1/4-y,z
x,1/4-y,1/4-z
1/4-x,y,1/4-z
-x,-y,-z
3/4+x,3/4+y,-z
-x,3/4+y,3/4+z
3/4+x,-y,3/4+z
x,1/2+y,1/2+z
1/4-x,3/4-y,1/2+z
x,3/4-y,3/4-z
1/4-x,1/2+y,3/4-z
-x,1/2-y,1/2-z
3/4+x,1/4+y,1/2-z
-x,1/4+y,1/4+z
3/4+x,1/2-y,1/4+z
1/2+x,y,1/2+z
3/4-x,1/4-y,1/2+z
1/2+x,1/4-y,3/4-z
3/4-x,y,3/4-z
1/2-x,-y,1/2-z
1/4+x,3/4+y,1/2-z
1/2-x,3/4+y,1/4+z
1/4+x,-y,1/4+z
1/2+x,1/2+y,z
3/4-x,3/4-y,z
1/2+x,3/4-y,1/4-z
3/4-x,1/2+y,1/4-z
1/2-x,1/2-y,-z
1/4+x,1/4+y,-z
1/2-x,1/4+y,3/4+z
1/4+x,1/2-y,3/4+z
loop_
_atom_site_type_symbol
_atom_site_label
_atom_site_fract_x
_atom_site_fract_y
_atom_site_fract_z
Si Si1 0.375000 0.375000 0.796877
Si Si2 0.375000 0.875000 0.741434
Si Si3 0.125000 0.625000 0.856794
Si Si4 0.553617 0.826489 0.969709
Si Si5 0.241782 0.375000 0.875000
O O1 0.397919 0.514046 0.764988
O O2 0.295470 0.415039 0.829414
O O3 0.407361 0.738724 0.709981
O O4 0.452873 0.921742 0.774039
O O5 0.067934 0.519398 0.825347
O O6 0.186350 0.520580 0.887240
#
# Coordination Sequence:
#
# PCOD8285975 Si02
#       5
#    16  16  16  32  16
#     4  10  22  41  62  85 124 165 202 243 304 366
#     4  10  20  33  64  96 116 144 204 256 294 345
#     4  11  24  40  60  85 122 161 202 248 304 361
#     4  10  21  40  63  90 120 160 203 248 298 363
#     4  11  24  40  60  89 122 162 202 253 306 356
#
# _framework density 23.255659999999999
#
# number of rings (size 3 to 8) (size 9 to 14) (size 15 to 20)
#    0.000    1.667    0.000    4.000    0.000   13.333 
#    0.000    0.000    0.000    2.000    0.000    0.000 
#    0.000    0.000    0.000    0.000    0.000    0.000 
#
# Total GULP energy -297616.405125 kJ/mol
# GULP energy per Si atom -12400.683547 kJ/mol
# Density = 2.320273 g / cm^3
# Si number density = 23.255660 Si / 1000 Ang^3
#
#
#
# Elastic Constant Matrix: (Units=GPa)
#
#
# Indices 1 2 3 4 5 6 
#
# 1 159.1726 56.0462 30.9756 0.0000 0.0000 0.0000
# 2 56.0462 112.9570 -4.3758 0.0000 0.0000 0.0000
# 3 30.9756 -4.3758 58.1900 0.0000 0.0000 0.0000
# 4 0.0000 0.0000 0.0000 3.7976 0.0000 0.0000
# 5 0.0000 0.0000 0.0000 0.0000 -13.0801 0.0000
# 6 0.0000 0.0000 0.0000 0.0000 0.0000 43.5732
#
#
#
# Elastic Compliance Matrix: (Units=1/GPa)
#
#
# Indices 1 2 3 4 5 6 
#
# 1 0.008895 -0.004610 -0.005081 0.000000 0.000000 0.000000
# 2 -0.004610 0.011268 0.003301 0.000000 0.000000 0.000000
# 3 -0.005081 0.003301 0.020138 0.000000 0.000000 0.000000
# 4 0.000000 0.000000 0.000000 0.263322 0.000000 0.000000
# 5 0.000000 0.000000 0.000000 0.000000 -0.076452 0.000000
# 6 0.000000 0.000000 0.000000 0.000000 0.000000 0.022950
#
#
# Mechanical properties :
#
#
# Convention : Reuss Voigt Hill
#
# Bulk Modulus (GPa) = 36.33611 55.06796 45.70204
# Shear Modulus (GPa) = 18.37732 23.36973 20.87352
#
# Velocity S-wave (km/s) = 2.81415 3.17346 2.99919
# Velocity P-wave (km/s) = 5.12033 6.09579 5.62923
#
# Compressibility (1/GPa) = 0.02752083
#
# Stress axis : x y z
#
# Youngs Moduli (GPa) = 112.42741 88.74507 49.65663
#
# Poissons Ratio (x) = 0.40913 0.25233
# Poissons Ratio (y) = 0.51830 -0.16394
# Poissons Ratio (z) = 0.57129 -0.29298
#
# Static dielectric constant tensor:
#      x y z
#    x 4.403980 0.000000 0.000000 
#    y 0.000000 4.496580 0.000000 
#    z 0.000000 0.000000 3.823130 
# 
# 
# High freq. dielectric constant tensor:
#      x y z
#    x 1.933270 0.000000 0.000000 
#    y 0.000000 1.934120 0.000000 
#    z 0.000000 0.000000 1.905840 
# 
# From -- ./inp_files/14973.got.cif
#   From: 2010.03.12/outbox.cif.g09.slc.cpg/sg70_8_cif.got.tgz:14973.got - 2010.04.16 13:46:32.
