data_PCOD8285172
_publ_section_title
;
Structure prediction by ZEFSAII (Michael W. Deem and Ramdas Pophale) SiO2 
 PCOD8285172
Probable space group: F M M M
;
_chemical_formula_sum "Si O2"
_cell_formula_units_Z 192
_cell_length_a 19.409004
_cell_length_b 27.616509
_cell_length_c 20.524394
_cell_angle_alpha 90.000000
_cell_angle_beta 90.000000
_cell_angle_gamma 90.000000
_cell_volume 11001.258542
_symmetry_space_group_name_H-M "F M M M"
_symmetry_group_IT_number 69
_symmetry_cell_setting 'orthorhombic'
loop_
_space_group_symop_operation_xyz
x,y,z
-x,-y,z
x,-y,-z
-x,y,-z
-x,-y,-z
x,y,-z
-x,y,z
x,-y,z
x,1/2+y,1/2+z
-x,1/2-y,1/2+z
x,1/2-y,1/2-z
-x,1/2+y,1/2-z
-x,1/2-y,1/2-z
x,1/2+y,1/2-z
-x,1/2+y,1/2+z
x,1/2-y,1/2+z
1/2+x,y,1/2+z
1/2-x,-y,1/2+z
1/2+x,-y,1/2-z
1/2-x,y,1/2-z
1/2-x,-y,1/2-z
1/2+x,y,1/2-z
1/2-x,y,1/2+z
1/2+x,-y,1/2+z
1/2+x,1/2+y,z
1/2-x,1/2-y,z
1/2+x,1/2-y,-z
1/2-x,1/2+y,-z
1/2-x,1/2-y,-z
1/2+x,1/2+y,-z
1/2-x,1/2+y,z
1/2+x,1/2-y,z
loop_
_atom_site_type_symbol
_atom_site_label
_atom_site_fract_x
_atom_site_fract_y
_atom_site_fract_z
Si Si1 0.423847 0.598275 0.738383
Si Si2 0.078400 0.443756 0.621390
Si Si3 0.861113 0.696751 0.755345
Si Si4 0.706973 0.556233 0.311701
Si Si5 0.288137 0.601322 0.926331
Si Si6 0.749989 0.303361 0.642117
O O1 0.500000 0.588543 0.709929
O O2 0.411306 0.566159 0.802333
O O3 0.417991 0.655338 0.755086
O O4 0.367028 0.582501 0.685589
O O5 0.095404 0.500000 0.607913
O O6 0.130286 0.409622 0.580996
O O7 0.000000 0.431489 0.600004
O O8 0.896171 0.750000 0.750000
O O9 0.805147 0.693778 0.699107
O O10 0.824763 0.687455 0.825440
O O11 0.694628 0.500000 0.302659
O O12 0.750000 0.577408 0.250000
O O13 0.746888 0.565988 0.378342
O O14 0.269207 0.657012 0.911822
O O15 0.265685 0.590057 0.000000
O O16 0.750000 0.250000 0.609233
#
# Coordination Sequence:
#
# PCOD8285172 Si02
#       6
#    32  32  32  32  32  32
#     4  11  20  32  55  84 111 139 176 223 272 324
#     4  10  21  36  53  78 114 151 182 216 266 329
#     4   9  16  30  55  81 106 138 175 220 270 318
#     4  11  21  36  57  77 106 146 183 223 264 310
#     4  12  23  35  56  84 111 143 183 226 270 319
#     4   9  17  32  54  79 108 139 174 219 270 320
#
# _framework density 17.452549000000001
#
# number of rings (size 3 to 8) (size 9 to 14) (size 15 to 20)
#    0.000    1.667    5.000    2.000    0.000    3.333 
#    0.000    0.833    0.000    0.500    0.000    1.167 
#    0.000    0.000    0.000    0.000    0.000    0.000 
#
# Total GULP energy -595094.911604 kJ/mol
# GULP energy per Si atom -12397.810658 kJ/mol
# Density = 1.741283 g / cm^3
# Si number density = 17.452549 Si / 1000 Ang^3
#
#
#
# Elastic Constant Matrix: (Units=GPa)
#
#
# Indices 1 2 3 4 5 6 
#
# 1 96.2413 40.7640 35.7884 0.0000 0.0000 0.0000
# 2 40.7640 99.0158 24.0722 0.0000 0.0000 0.0000
# 3 35.7884 24.0722 80.7587 0.0000 0.0000 0.0000
# 4 0.0000 0.0000 0.0000 7.8548 0.0000 0.0000
# 5 0.0000 0.0000 0.0000 0.0000 13.2681 0.0000
# 6 0.0000 0.0000 0.0000 0.0000 0.0000 24.5348
#
#
#
# Elastic Compliance Matrix: (Units=1/GPa)
#
#
# Indices 1 2 3 4 5 6 
#
# 1 0.014181 -0.004647 -0.004899 0.000000 0.000000 0.000000
# 2 -0.004647 0.012411 -0.001640 0.000000 0.000000 0.000000
# 3 -0.004899 -0.001640 0.015042 0.000000 0.000000 0.000000
# 4 0.000000 0.000000 0.000000 0.127311 0.000000 0.000000
# 5 0.000000 0.000000 0.000000 0.000000 0.075369 0.000000
# 6 0.000000 0.000000 0.000000 0.000000 0.000000 0.040758
#
#
# Mechanical properties :
#
#
# Convention : Reuss Voigt Hill
#
# Bulk Modulus (GPa) = 51.91574 53.02944 52.47259
# Shear Modulus (GPa) = 15.93036 20.82427 18.37731
#
# Velocity S-wave (km/s) = 3.02450 3.45801 3.24850
# Velocity P-wave (km/s) = 6.48137 6.81136 6.64842
#
# Compressibility (1/GPa) = 0.01926198
#
# Stress axis : x y z
#
# Youngs Moduli (GPa) = 70.51889 80.57179 66.47851
#
# Poissons Ratio (x) = 0.37442 0.32568
# Poissons Ratio (y) = 0.32770 0.10904
# Poissons Ratio (z) = 0.34547 0.13215
#
# Static dielectric constant tensor:
#      x y z
#    x 3.292080 0.000000 0.000000 
#    y 0.000000 3.686050 0.000000 
#    z 0.000000 0.000000 2.870160 
# 
# 
# High freq. dielectric constant tensor:
#      x y z
#    x 1.663140 0.000000 0.000000 
#    y 0.000000 1.693930 0.000000 
#    z 0.000000 0.000000 1.627860 
# 
# From -- ./inp_files/32165.got.cif
#   From: 2010.03.12/outbox.cif.g09.slc.cpg/sg69_17_cif.got.tgz:32165.got - 2010.04.10 23:52:46.
