data_PCOD8285929
_publ_section_title
;
Structure prediction by ZEFSAII (Michael W. Deem and Ramdas Pophale) SiO2 
 PCOD8285929
Probable space group: F D D D
;
_chemical_formula_sum "Si O2"
_cell_formula_units_Z 216
_cell_length_a 10.965014
_cell_length_b 29.667157
_cell_length_c 30.227959
_cell_angle_alpha 90.000000
_cell_angle_beta 90.000000
_cell_angle_gamma 90.000000
_cell_volume 9833.178999
_symmetry_space_group_name_H-M "F D D D"
_symmetry_group_IT_number 70
_space_group.IT_coordinate_system_code '2'
_symmetry_cell_setting 'orthorhombic'
loop_
_space_group_symop_operation_xyz
x,y,z
1/4-x,1/4-y,z
x,1/4-y,1/4-z
1/4-x,y,1/4-z
-x,-y,-z
3/4+x,3/4+y,-z
-x,3/4+y,3/4+z
3/4+x,-y,3/4+z
x,1/2+y,1/2+z
1/4-x,3/4-y,1/2+z
x,3/4-y,3/4-z
1/4-x,1/2+y,3/4-z
-x,1/2-y,1/2-z
3/4+x,1/4+y,1/2-z
-x,1/4+y,1/4+z
3/4+x,1/2-y,1/4+z
1/2+x,y,1/2+z
3/4-x,1/4-y,1/2+z
1/2+x,1/4-y,3/4-z
3/4-x,y,3/4-z
1/2-x,-y,1/2-z
1/4+x,3/4+y,1/2-z
1/2-x,3/4+y,1/4+z
1/4+x,-y,1/4+z
1/2+x,1/2+y,z
3/4-x,3/4-y,z
1/2+x,3/4-y,1/4-z
3/4-x,1/2+y,1/4-z
1/2-x,1/2-y,-z
1/4+x,1/4+y,-z
1/2-x,1/4+y,3/4+z
1/4+x,1/2-y,3/4+z
loop_
_atom_site_type_symbol
_atom_site_label
_atom_site_fract_x
_atom_site_fract_y
_atom_site_fract_z
Si Si1 0.125000 0.625000 0.625000
Si Si2 0.875000 0.941896 0.375000
Si Si3 0.207761 0.085348 0.535495
Si Si4 0.593595 0.267977 0.014819
Si Si5 0.011777 0.023192 0.892589
Si Si6 0.192561 0.001586 0.822739
Si Si7 0.779528 0.566916 0.192664
Si Si8 0.108403 0.572325 0.470786
O O1 0.211881 0.596753 0.656619
O O2 0.824443 0.910674 0.413177
O O3 0.762745 0.971583 0.357960
O O4 0.125000 0.125000 0.511913
O O5 0.354277 0.092544 0.534929
O O6 0.177218 0.036111 0.516368
O O7 0.711429 0.281308 0.044393
O O8 0.485835 0.296741 0.035856
O O9 0.618080 0.279452 0.963047
O O10 0.097599 0.032583 0.849979
O O11 0.022745 0.063731 0.927954
O O12 0.875000 0.017704 0.875000
O O13 0.062761 0.979144 0.917793
O O14 0.694998 0.553081 0.233733
O O15 0.125000 0.625000 0.475974
#
# Coordination Sequence:
#
# PCOD8285929 Si02
#       8
#     8  16  32  32  32  32  32  32
#     4  12  28  40  66 116 134 178 220 298 364 448
#     4  10  19  38  60  98 131 167 222 276 354 408
#     4  11  24  39  66  98 135 182 223 286 348 430
#     4  10  23  43  71  99 136 185 237 291 358 417
#     4  12  24  44  74 101 139 189 240 290 361 431
#     4  10  21  41  72  98 134 183 230 289 354 424
#     4  12  25  45  71 104 149 175 231 295 370 431
#     4  12  27  48  70 102 141 193 241 301 361 424
#
# _framework density 21.966446999999999
#
# number of rings (size 3 to 8) (size 9 to 14) (size 15 to 20)
#    0.000    0.889    4.444    2.444    4.148    3.556 
#    2.667    0.741    0.000    0.000    0.000    0.000 
#    0.000    0.000    0.000    0.000    0.000    0.000 
#
# Total GULP energy -669305.794862 kJ/mol
# GULP energy per Si atom -12394.551757 kJ/mol
# Density = 2.191645 g / cm^3
# Si number density = 21.966447 Si / 1000 Ang^3
#
#
#
# Elastic Constant Matrix: (Units=GPa)
#
#
# Indices 1 2 3 4 5 6 
#
# 1 136.7390 37.0221 48.8384 0.0000 0.0000 0.0000
# 2 37.0221 74.8999 19.0748 0.0000 0.0000 0.0000
# 3 48.8384 19.0748 119.1019 0.0000 0.0000 0.0000
# 4 0.0000 0.0000 0.0000 26.1354 0.0000 0.0000
# 5 0.0000 0.0000 0.0000 0.0000 35.7003 0.0000
# 6 0.0000 0.0000 0.0000 0.0000 0.0000 28.9858
#
#
#
# Elastic Compliance Matrix: (Units=1/GPa)
#
#
# Indices 1 2 3 4 5 6 
#
# 1 0.009538 -0.003877 -0.003290 0.000000 0.000000 0.000000
# 2 -0.003877 0.015494 -0.000892 0.000000 0.000000 0.000000
# 3 -0.003290 -0.000892 0.009888 0.000000 0.000000 0.000000
# 4 0.000000 0.000000 0.000000 0.038262 0.000000 0.000000
# 5 0.000000 0.000000 0.000000 0.000000 0.028011 0.000000
# 6 0.000000 0.000000 0.000000 0.000000 0.000000 0.034500
#
#
# Mechanical properties :
#
#
# Convention : Reuss Voigt Hill
#
# Bulk Modulus (GPa) = 53.18257 60.06793 56.62525
# Shear Modulus (GPa) = 31.62984 33.21800 32.42392
#
# Velocity S-wave (km/s) = 3.79874 3.89294 3.84613
# Velocity P-wave (km/s) = 6.59575 6.90010 6.74964
#
# Compressibility (1/GPa) = 0.01880315
#
# Stress axis : x y z
#
# Youngs Moduli (GPa) = 104.84450 64.53933 101.13072
#
# Poissons Ratio (x) = 0.25019 0.33274
# Poissons Ratio (y) = 0.40644 0.09020
# Poissons Ratio (z) = 0.34496 0.05756
#
# Static dielectric constant tensor:
#      x y z
#    x 4.244150 0.000000 0.000000 
#    y 0.000000 3.867800 0.000000 
#    z 0.000000 0.000000 4.220540 
# 
# 
# High freq. dielectric constant tensor:
#      x y z
#    x 1.884280 0.000000 0.000000 
#    y 0.000000 1.826470 0.000000 
#    z 0.000000 0.000000 1.875170 
# 
# From -- ./inp_files/65177.got.cif
#   From: 2010.03.12/outbox.cif.g09.slc.cpg/sg70_33_cif.got.tgz:65177.got - 2010.04.16 13:46:32.
