data_PCOD8285233
_publ_section_title
;
Structure prediction by ZEFSAII (Michael W. Deem and Ramdas Pophale) SiO2 
 PCOD8285233
Probable space group: F M M M
;
_chemical_formula_sum "Si O2"
_cell_formula_units_Z 208
_cell_length_a 16.851885
_cell_length_b 21.316035
_cell_length_c 28.670253
_cell_angle_alpha 90.000000
_cell_angle_beta 90.000000
_cell_angle_gamma 90.000000
_cell_volume 10298.795553
_symmetry_space_group_name_H-M "F M M M"
_symmetry_group_IT_number 69
_symmetry_cell_setting 'orthorhombic'
loop_
_space_group_symop_operation_xyz
x,y,z
-x,-y,z
x,-y,-z
-x,y,-z
-x,-y,-z
x,y,-z
-x,y,z
x,-y,z
x,1/2+y,1/2+z
-x,1/2-y,1/2+z
x,1/2-y,1/2-z
-x,1/2+y,1/2-z
-x,1/2-y,1/2-z
x,1/2+y,1/2-z
-x,1/2+y,1/2+z
x,1/2-y,1/2+z
1/2+x,y,1/2+z
1/2-x,-y,1/2+z
1/2+x,-y,1/2-z
1/2-x,y,1/2-z
1/2-x,-y,1/2-z
1/2+x,y,1/2-z
1/2-x,y,1/2+z
1/2+x,-y,1/2+z
1/2+x,1/2+y,z
1/2-x,1/2-y,z
1/2+x,1/2-y,-z
1/2-x,1/2+y,-z
1/2-x,1/2-y,-z
1/2+x,1/2+y,-z
1/2-x,1/2+y,z
1/2+x,1/2-y,z
loop_
_atom_site_type_symbol
_atom_site_label
_atom_site_fract_x
_atom_site_fract_y
_atom_site_fract_z
Si Si1 0.906167 0.930579 0.727435
Si Si2 0.094366 0.765029 0.865097
Si Si3 0.204948 0.071508 0.553340
Si Si4 0.357107 0.652827 0.054314
Si Si5 0.407807 0.380848 0.630163
Si Si6 0.162147 0.310985 0.727532
Si Si7 0.000000 0.568243 0.444836
O O1 0.874221 0.916754 0.675480
O O2 0.876342 0.878048 0.762802
O O3 0.000000 0.927418 0.727139
O O4 0.876442 0.000000 0.742832
O O5 0.127831 0.784746 0.915784
O O6 0.111482 0.691695 0.861618
O O7 0.150736 0.801220 0.827874
O O8 0.000000 0.779823 0.858715
O O9 0.177954 0.078797 0.500000
O O10 0.274023 0.120398 0.565112
O O11 0.130924 0.089717 0.584674
O O12 0.233229 0.000000 0.562883
O O13 0.422322 0.603806 0.071991
O O14 0.366445 0.670966 0.000000
O O15 0.500000 0.392492 0.623152
O O16 0.117251 0.250000 0.750000
O O17 0.250000 0.311678 0.750000
O O18 0.000000 0.500000 0.421094
O O19 0.000000 0.561674 0.500000
#
# Coordination Sequence:
#
# PCOD8285233 Si02
#       7
#    32  32  32  32  32  32  16
#     4  10  21  40  64  87 116 158 207 257 310 372
#     4  11  23  40  65  93 125 163 209 259 316 382
#     4  10  22  39  59  87 125 167 212 263 317 374
#     4  10  21  37  60  91 127 165 205 256 312 376
#     4  10  22  39  62  88 117 163 210 257 318 382
#     4  11  24  40  64  94 124 164 204 255 314 382
#     4   9  16  32  58  84 117 164 207 241 296 371
#
# _framework density 20.196536999999999
#
# number of rings (size 3 to 8) (size 9 to 14) (size 15 to 20)
#    0.000    1.769    2.308    1.385    2.154    5.231 
#    0.000    5.385    0.000    0.000    0.000    0.000 
#    0.000    0.000    0.000    0.000    0.000    0.000 
#
# Total GULP energy -644600.389404 kJ/mol
# GULP energy per Si atom -12396.161335 kJ/mol
# Density = 2.015057 g / cm^3
# Si number density = 20.196537 Si / 1000 Ang^3
#
#
#
# Elastic Constant Matrix: (Units=GPa)
#
#
# Indices 1 2 3 4 5 6 
#
# 1 45.7810 26.6228 31.5099 0.0000 0.0000 0.0000
# 2 26.6228 132.9633 43.8793 0.0000 0.0000 0.0000
# 3 31.5099 43.8793 88.9451 0.0000 0.0000 0.0000
# 4 0.0000 0.0000 0.0000 35.2682 0.0000 0.0000
# 5 0.0000 0.0000 0.0000 0.0000 25.7161 0.0000
# 6 0.0000 0.0000 0.0000 0.0000 0.0000 25.7001
#
#
#
# Elastic Compliance Matrix: (Units=1/GPa)
#
#
# Indices 1 2 3 4 5 6 
#
# 1 0.029837 -0.002969 -0.009105 0.000000 0.000000 0.000000
# 2 -0.002969 0.009279 -0.003526 0.000000 0.000000 0.000000
# 3 -0.009105 -0.003526 0.016208 0.000000 0.000000 0.000000
# 4 0.000000 0.000000 0.000000 0.028354 0.000000 0.000000
# 5 0.000000 0.000000 0.000000 0.000000 0.038886 0.000000
# 6 0.000000 0.000000 0.000000 0.000000 0.000000 0.038910
#
#
# Mechanical properties :
#
#
# Convention : Reuss Voigt Hill
#
# Bulk Modulus (GPa) = 41.45388 52.41258 46.93323
# Shear Modulus (GPa) = 24.91089 28.38205 26.64647
#
# Velocity S-wave (km/s) = 3.51582 3.75279 3.63624
# Velocity P-wave (km/s) = 6.08697 6.69220 6.39674
#
# Compressibility (1/GPa) = 0.02412320
#
# Stress axis : x y z
#
# Youngs Moduli (GPa) = 33.51572 107.77136 61.69857
#
# Poissons Ratio (x) = 0.32000 0.56178
# Poissons Ratio (y) = 0.09952 0.21753
# Poissons Ratio (z) = 0.30517 0.37996
#
# Static dielectric constant tensor:
#      x y z
#    x 3.504840 0.000000 0.000000 
#    y 0.000000 3.999860 0.000000 
#    z 0.000000 0.000000 3.590960 
# 
# 
# High freq. dielectric constant tensor:
#      x y z
#    x 1.779900 0.000000 0.000000 
#    y 0.000000 1.801140 0.000000 
#    z 0.000000 0.000000 1.781430 
# 
# From -- ./inp_files/42038.got.cif
#   From: 2010.03.12/outbox.cif.g09.slc.cpg/sg69_22_cif.got.tgz:42038.got - 2010.04.10 23:52:46.
