data_PCOD8285856
_publ_section_title
;
Structure prediction by ZEFSAII (Michael W. Deem and Ramdas Pophale) SiO2 
 PCOD8285856
Probable space group: F D D D
;
_chemical_formula_sum "Si O2"
_cell_formula_units_Z 184
_cell_length_a 15.744716
_cell_length_b 20.989149
_cell_length_c 26.752023
_cell_angle_alpha 90.000000
_cell_angle_beta 90.000000
_cell_angle_gamma 90.000000
_cell_volume 8840.692622
_symmetry_space_group_name_H-M "F D D D"
_symmetry_group_IT_number 70
_space_group.IT_coordinate_system_code '2'
_symmetry_cell_setting 'orthorhombic'
loop_
_space_group_symop_operation_xyz
x,y,z
1/4-x,1/4-y,z
x,1/4-y,1/4-z
1/4-x,y,1/4-z
-x,-y,-z
3/4+x,3/4+y,-z
-x,3/4+y,3/4+z
3/4+x,-y,3/4+z
x,1/2+y,1/2+z
1/4-x,3/4-y,1/2+z
x,3/4-y,3/4-z
1/4-x,1/2+y,3/4-z
-x,1/2-y,1/2-z
3/4+x,1/4+y,1/2-z
-x,1/4+y,1/4+z
3/4+x,1/2-y,1/4+z
1/2+x,y,1/2+z
3/4-x,1/4-y,1/2+z
1/2+x,1/4-y,3/4-z
3/4-x,y,3/4-z
1/2-x,-y,1/2-z
1/4+x,3/4+y,1/2-z
1/2-x,3/4+y,1/4+z
1/4+x,-y,1/4+z
1/2+x,1/2+y,z
3/4-x,3/4-y,z
1/2+x,3/4-y,1/4-z
3/4-x,1/2+y,1/4-z
1/2-x,1/2-y,-z
1/4+x,1/4+y,-z
1/2-x,1/4+y,3/4+z
1/4+x,1/2-y,3/4+z
loop_
_atom_site_type_symbol
_atom_site_label
_atom_site_fract_x
_atom_site_fract_y
_atom_site_fract_z
Si Si1 0.131275 0.989130 0.327243
Si Si2 0.280882 0.442570 0.003012
Si Si3 0.625000 0.125000 0.994346
Si Si4 0.626676 0.997623 0.941172
Si Si5 0.704575 0.556955 0.212423
Si Si6 0.125000 0.125000 0.125000
Si Si7 0.768853 0.628413 0.570115
O O1 0.158167 0.004413 0.383969
O O2 0.217156 0.994446 0.291613
O O3 0.102261 0.915942 0.321405
O O4 0.053046 0.035446 0.310206
O O5 0.198344 0.473487 0.979179
O O6 0.275922 0.366012 0.000296
O O7 0.362938 0.473149 0.974898
O O8 0.653567 0.183436 0.959653
O O9 0.703300 0.103497 0.028982
O O10 0.546517 0.950315 0.943088
O O11 0.692476 0.584898 0.156996
O O12 0.725539 0.625000 0.625000
#
# Coordination Sequence:
#
# PCOD8285856 Si02
#       7
#    32  32  16  32  32   8  32
#     4  11  20  37  60  89 120 158 204 248 301 364
#     4  10  20  35  56  90 117 159 203 248 300 357
#     4  12  23  42  61  88 124 155 198 257 324 350
#     4  11  23  38  62  89 122 158 202 252 305 362
#     4  10  19  32  58  84 121 156 200 247 296 359
#     4   8  16  28  50  84 108 152 204 248 276 350
#     4  10  22  39  65  88 112 158 211 252 293 367
#
# _framework density 20.812850000000001
#
# number of rings (size 3 to 8) (size 9 to 14) (size 15 to 20)
#    0.000    1.739    3.478    3.391    1.217    1.391 
#    0.000    0.000    0.000    0.000    0.000    0.000 
#    0.000    0.000    0.000    0.000    0.000    0.000 
#
# Total GULP energy -570137.165427 kJ/mol
# GULP energy per Si atom -12394.286205 kJ/mol
# Density = 2.076548 g / cm^3
# Si number density = 20.812850 Si / 1000 Ang^3
#
#
#
# Elastic Constant Matrix: (Units=GPa)
#
#
# Indices 1 2 3 4 5 6 
#
# 1 68.8721 16.5188 26.8149 0.0000 0.0000 0.0000
# 2 16.5188 94.1857 28.9679 0.0000 0.0000 0.0000
# 3 26.8149 28.9679 67.8367 0.0000 0.0000 0.0000
# 4 0.0000 0.0000 0.0000 16.5454 0.0000 0.0000
# 5 0.0000 0.0000 0.0000 0.0000 31.5999 0.0000
# 6 0.0000 0.0000 0.0000 0.0000 0.0000 27.9996
#
#
#
# Elastic Compliance Matrix: (Units=1/GPa)
#
#
# Indices 1 2 3 4 5 6 
#
# 1 0.017254 -0.001069 -0.006364 0.000000 0.000000 0.000000
# 2 -0.001069 0.012289 -0.004825 0.000000 0.000000 0.000000
# 3 -0.006364 -0.004825 0.019317 0.000000 0.000000 0.000000
# 4 0.000000 0.000000 0.000000 0.060440 0.000000 0.000000
# 5 0.000000 0.000000 0.000000 0.000000 0.031646 0.000000
# 6 0.000000 0.000000 0.000000 0.000000 0.000000 0.035715
#
#
# Mechanical properties :
#
#
# Convention : Reuss Voigt Hill
#
# Bulk Modulus (GPa) = 41.07723 41.72196 41.39960
# Shear Modulus (GPa) = 23.89030 25.80184 24.84607
#
# Velocity S-wave (km/s) = 3.39169 3.52477 3.45887
# Velocity P-wave (km/s) = 5.92599 6.05434 5.99051
#
# Compressibility (1/GPa) = 0.02434439
#
# Stress axis : x y z
#
# Youngs Moduli (GPa) = 57.95857 81.37492 51.76725
#
# Poissons Ratio (x) = 0.08697 0.32943
# Poissons Ratio (y) = 0.06195 0.24978
# Poissons Ratio (z) = 0.36883 0.39265
#
# Static dielectric constant tensor:
#      x y z
#    x 3.533210 0.000000 0.000000 
#    y 0.000000 3.730050 0.000000 
#    z 0.000000 0.000000 4.012760 
# 
# 
# High freq. dielectric constant tensor:
#      x y z
#    x 1.804810 0.000000 0.000000 
#    y 0.000000 1.804140 0.000000 
#    z 0.000000 0.000000 1.822750 
# 
# From -- ./inp_files/59571.got.cif
#   From: 2010.03.12/outbox.cif.g09.slc.cpg/sg70_30_cif.got.tgz:59571.got - 2010.04.16 13:46:32.
