data_PCOD8285049
_publ_section_title
;
Structure prediction by ZEFSAII (Michael W. Deem and Ramdas Pophale) SiO2 
 PCOD8285049
Probable space group: F M M M
;
_chemical_formula_sum "Si O2"
_cell_formula_units_Z 96
_cell_length_a 19.361448
_cell_length_b 28.203618
_cell_length_c 8.096706
_cell_angle_alpha 90.000000
_cell_angle_beta 90.000000
_cell_angle_gamma 90.000000
_cell_volume 4421.310624
_symmetry_space_group_name_H-M "F M M M"
_symmetry_group_IT_number 69
_symmetry_cell_setting 'orthorhombic'
loop_
_space_group_symop_operation_xyz
x,y,z
-x,-y,z
x,-y,-z
-x,y,-z
-x,-y,-z
x,y,-z
-x,y,z
x,-y,z
x,1/2+y,1/2+z
-x,1/2-y,1/2+z
x,1/2-y,1/2-z
-x,1/2+y,1/2-z
-x,1/2-y,1/2-z
x,1/2+y,1/2-z
-x,1/2+y,1/2+z
x,1/2-y,1/2+z
1/2+x,y,1/2+z
1/2-x,-y,1/2+z
1/2+x,-y,1/2-z
1/2-x,y,1/2-z
1/2-x,-y,1/2-z
1/2+x,y,1/2-z
1/2-x,y,1/2+z
1/2+x,-y,1/2+z
1/2+x,1/2+y,z
1/2-x,1/2-y,z
1/2+x,1/2-y,-z
1/2-x,1/2+y,-z
1/2-x,1/2-y,-z
1/2+x,1/2+y,-z
1/2-x,1/2+y,z
1/2+x,1/2-y,z
loop_
_atom_site_type_symbol
_atom_site_label
_atom_site_fract_x
_atom_site_fract_y
_atom_site_fract_z
Si Si1 0.883041 0.397514 0.178907
Si Si2 0.768872 0.556140 0.000000
Si Si3 0.580235 0.800924 0.692720
Si Si4 0.108453 0.444974 0.500000
O O1 0.876816 0.341408 0.212779
O O2 0.923736 0.422153 0.332628
O O3 0.921222 0.405215 0.000000
O O4 0.806641 0.421403 0.162359
O O5 0.688801 0.568779 0.000000
O O6 0.780832 0.500000 0.000000
O O7 0.592206 0.807314 0.500000
O O8 0.500000 0.806049 0.741664
O O9 0.608722 0.750000 0.750000
O O10 0.091442 0.500000 0.500000
#
# Coordination Sequence:
#
# PCOD8285049 Si02
#       4
#    32  16  32  16
#     4  10  21  33  55  86 114 142 181 232 275 320
#     4   9  20  36  56  83 112 148 190 227 268 318
#     4  10  20  37  61  85 109 141 182 228 277 331
#     4  11  20  36  58  81 114 150 188 231 268 318
#
# _framework density 21.713018999999999
#
# number of rings (size 3 to 8) (size 9 to 14) (size 15 to 20)
#    1.000    1.000    1.667    3.000    0.000    4.667 
#    0.000    0.000    0.000   12.000    0.000    0.000 
#    0.000    0.000    0.000    0.000    0.000    0.000 
#
# Total GULP energy -297347.781820 kJ/mol
# GULP energy per Si atom -12389.490909 kJ/mol
# Density = 2.166360 g / cm^3
# Si number density = 21.713019 Si / 1000 Ang^3
#
#
#
# Elastic Constant Matrix: (Units=GPa)
#
#
# Indices 1 2 3 4 5 6 
#
# 1 40.2070 27.0066 2.1374 -0.0001 0.0001 0.0001
# 2 27.0066 184.2437 71.0844 -0.0001 0.0001 0.0001
# 3 2.1374 71.0844 185.8570 -0.0005 0.0004 0.0005
# 4 -0.0001 -0.0001 -0.0005 48.5587 0.0002 0.0002
# 5 0.0001 0.0001 0.0004 0.0002 7.6478 -0.0002
# 6 0.0001 0.0001 0.0005 0.0002 -0.0002 11.1528
#
#
#
# Elastic Compliance Matrix: (Units=1/GPa)
#
#
# Indices 1 2 3 4 5 6 
#
# 1 0.027921 -0.004656 0.001460 0.000000 0.000000 0.000000
# 2 -0.004656 0.007144 -0.002679 0.000000 0.000000 0.000000
# 3 0.001460 -0.002679 0.006388 0.000000 0.000000 0.000000
# 4 0.000000 0.000000 0.000000 0.020594 -0.000001 0.000000
# 5 0.000000 0.000000 0.000000 -0.000001 0.130757 0.000003
# 6 0.000000 0.000000 0.000000 0.000000 0.000003 0.089664
#
#
# Mechanical properties :
#
#
# Convention : Reuss Voigt Hill
#
# Bulk Modulus (GPa) = 33.66665 67.86273 50.76469
# Shear Modulus (GPa) = 16.44100 34.14380 25.29240
#
# Velocity S-wave (km/s) = 2.75470 3.96978 3.41669
# Velocity P-wave (km/s) = 5.06525 7.23426 6.24465
#
# Compressibility (1/GPa) = 0.02970298
#
# Stress axis : x y z
#
# Youngs Moduli (GPa) = 35.81536 139.98723 156.53911
#
# Poissons Ratio (x) = 0.65176 -0.22848
# Poissons Ratio (y) = 0.16675 0.41931
# Poissons Ratio (z) = -0.05228 0.37497
#
# Static dielectric constant tensor:
#      x y z
#    x 3.309110 0.000000 0.000000 
#    y 0.000000 3.954260 0.000000 
#    z 0.000000 0.000000 4.398020 
# 
# 
# High freq. dielectric constant tensor:
#      x y z
#    x 1.791270 0.000000 0.000000 
#    y 0.000000 1.861450 0.000000 
#    z 0.000000 0.000000 1.883730 
# 
# From -- ./inp_files/4390.got.cif
#   From: 2010.03.12/outbox.cif.g09.slc.cpg/sg69_3_cif.got.tgz:4390.got - 2010.04.10 23:52:46.
