data_PCOD8285679
_publ_section_title
;
Structure prediction by ZEFSAII (Michael W. Deem and Ramdas Pophale) SiO2 
 PCOD8285679
Probable space group: F M M M
;
_chemical_formula_sum "Si O2"
_cell_formula_units_Z 160
_cell_length_a 9.965473
_cell_length_b 40.917379
_cell_length_c 30.010159
_cell_angle_alpha 90.000000
_cell_angle_beta 90.000000
_cell_angle_gamma 90.000000
_cell_volume 12236.973514
_symmetry_space_group_name_H-M "F M M M"
_symmetry_group_IT_number 69
_symmetry_cell_setting 'orthorhombic'
loop_
_space_group_symop_operation_xyz
x,y,z
-x,-y,z
x,-y,-z
-x,y,-z
-x,-y,-z
x,y,-z
-x,y,z
x,-y,z
x,1/2+y,1/2+z
-x,1/2-y,1/2+z
x,1/2-y,1/2-z
-x,1/2+y,1/2-z
-x,1/2-y,1/2-z
x,1/2+y,1/2-z
-x,1/2+y,1/2+z
x,1/2-y,1/2+z
1/2+x,y,1/2+z
1/2-x,-y,1/2+z
1/2+x,-y,1/2-z
1/2-x,y,1/2-z
1/2-x,-y,1/2-z
1/2+x,y,1/2-z
1/2-x,y,1/2+z
1/2+x,-y,1/2+z
1/2+x,1/2+y,z
1/2-x,1/2-y,z
1/2+x,1/2-y,-z
1/2-x,1/2+y,-z
1/2-x,1/2-y,-z
1/2+x,1/2+y,-z
1/2-x,1/2+y,z
1/2+x,1/2-y,z
loop_
_atom_site_type_symbol
_atom_site_label
_atom_site_fract_x
_atom_site_fract_y
_atom_site_fract_z
Si Si1 0.349874 0.150413 0.052911
Si Si2 0.344084 0.593834 0.947920
Si Si3 0.650398 0.776981 0.053002
Si Si4 0.159206 0.536094 0.614549
Si Si5 0.649334 0.961189 0.286723
O O1 0.500000 0.141219 0.069631
O O2 0.241390 0.124416 0.070606
O O3 0.310112 0.186694 0.070141
O O4 0.348202 0.150556 0.000000
O O5 0.500000 0.601049 0.937867
O O6 0.290715 0.561770 0.922277
O O7 0.319434 0.587565 0.000000
O O8 0.500000 0.768305 0.068586
O O9 0.750000 0.750000 0.074043
O O10 0.659257 0.776243 0.000000
O O11 0.219168 0.500000 0.603635
O O12 0.203688 0.547894 0.663912
O O13 0.000000 0.533602 0.613873
O O14 0.500000 0.946666 0.278764
O O15 0.750000 0.946066 0.250000
O O16 0.642845 0.000000 0.282365
#
# Coordination Sequence:
#
# PCOD8285679 Si02
#       5
#    32  32  32  32  32
#     4   8  14  24  34  43  60  86 110 133 167 204
#     4   9  16  24  35  50  64  83 116 149 169 192
#     4   8  13  20  30  44  60  78 101 130 164 198
#     4   8  14  24  36  50  68  87 107 137 177 209
#     4   8  13  22  36  51  66  83 101 125 162 206
#
# _framework density 13.075129
#
# number of rings (size 3 to 8) (size 9 to 14) (size 15 to 20)
#    0.000    3.800    0.000    2.400    0.000    1.200 
#    0.000    7.000    0.000    1.800    0.000    2.800 
#    0.000    0.000    0.000    0.000    0.000    1.000 
#
# Total GULP energy -495591.321552 kJ/mol
# GULP energy per Si atom -12389.783039 kJ/mol
# Density = 1.304537 g / cm^3
# Si number density = 13.075129 Si / 1000 Ang^3
#
#
#
# Elastic Constant Matrix: (Units=GPa)
#
#
# Indices 1 2 3 4 5 6 
#
# 1 64.2017 54.7562 28.5118 0.0000 0.0000 0.0000
# 2 54.7562 97.6434 35.8744 0.0000 0.0000 0.0000
# 3 28.5118 35.8744 41.2391 0.0000 0.0000 0.0000
# 4 0.0000 0.0000 0.0000 0.7989 0.0000 0.0000
# 5 0.0000 0.0000 0.0000 0.0000 11.6827 0.0000
# 6 0.0000 0.0000 0.0000 0.0000 0.0000 19.8203
#
#
#
# Elastic Compliance Matrix: (Units=1/GPa)
#
#
# Indices 1 2 3 4 5 6 
#
# 1 0.032274 -0.014551 -0.009655 0.000000 0.000000 0.000000
# 2 -0.014551 0.021613 -0.008741 0.000000 0.000000 0.000000
# 3 -0.009655 -0.008741 0.038528 0.000000 0.000000 0.000000
# 4 0.000000 0.000000 0.000000 1.251647 0.000000 0.000000
# 5 0.000000 0.000000 0.000000 0.000000 0.085597 0.000000
# 6 0.000000 0.000000 0.000000 0.000000 0.000000 0.050453
#
#
# Mechanical properties :
#
#
# Convention : Reuss Voigt Hill
#
# Bulk Modulus (GPa) = 37.70711 49.04100 43.37405
# Shear Modulus (GPa) = 3.21575 12.05651 7.63613
#
# Velocity S-wave (km/s) = 1.56996 3.03990 2.41927
# Velocity P-wave (km/s) = 5.67343 7.06469 6.40693
#
# Compressibility (1/GPa) = 0.02652020
#
# Stress axis : x y z
#
# Youngs Moduli (GPa) = 30.98434 46.26899 25.95512
#
# Poissons Ratio (x) = 0.67327 0.25061
# Poissons Ratio (y) = 0.45086 0.22687
# Poissons Ratio (z) = 0.29917 0.40442
#
# Static dielectric constant tensor:
#      x y z
#    x 2.738120 0.000000 0.000000 
#    y 0.000000 2.841320 0.000000 
#    z 0.000000 0.000000 2.407630 
# 
# 
# High freq. dielectric constant tensor:
#      x y z
#    x 1.489260 0.000000 0.000000 
#    y 0.000000 1.482500 0.000000 
#    z 0.000000 0.000000 1.448120 
# 
# From -- ./inp_files/12386.got.cif
#   From: 2010.03.12/outbox.cif.g09.slc.cpg/sg69_7_cif.got.tgz:12386.got - 2010.04.10 23:52:46.
