data_PCOD8285982
_publ_section_title
;
Structure prediction by ZEFSAII (Michael W. Deem and Ramdas Pophale) SiO2 
 PCOD8285982
Probable space group: F D D D
;
_chemical_formula_sum "Si O2"
_cell_formula_units_Z 208
_cell_length_a 23.085133
_cell_length_b 18.174133
_cell_length_c 24.615867
_cell_angle_alpha 90.000000
_cell_angle_beta 90.000000
_cell_angle_gamma 90.000000
_cell_volume 10327.643062
_symmetry_space_group_name_H-M "F D D D"
_symmetry_group_IT_number 70
_space_group.IT_coordinate_system_code '2'
_symmetry_cell_setting 'orthorhombic'
loop_
_space_group_symop_operation_xyz
x,y,z
1/4-x,1/4-y,z
x,1/4-y,1/4-z
1/4-x,y,1/4-z
-x,-y,-z
3/4+x,3/4+y,-z
-x,3/4+y,3/4+z
3/4+x,-y,3/4+z
x,1/2+y,1/2+z
1/4-x,3/4-y,1/2+z
x,3/4-y,3/4-z
1/4-x,1/2+y,3/4-z
-x,1/2-y,1/2-z
3/4+x,1/4+y,1/2-z
-x,1/4+y,1/4+z
3/4+x,1/2-y,1/4+z
1/2+x,y,1/2+z
3/4-x,1/4-y,1/2+z
1/2+x,1/4-y,3/4-z
3/4-x,y,3/4-z
1/2-x,-y,1/2-z
1/4+x,3/4+y,1/2-z
1/2-x,3/4+y,1/4+z
1/4+x,-y,1/4+z
1/2+x,1/2+y,z
3/4-x,3/4-y,z
1/2+x,3/4-y,1/4-z
3/4-x,1/2+y,1/4-z
1/2-x,1/2-y,-z
1/4+x,1/4+y,-z
1/2-x,1/4+y,3/4+z
1/4+x,1/2-y,3/4+z
loop_
_atom_site_type_symbol
_atom_site_label
_atom_site_fract_x
_atom_site_fract_y
_atom_site_fract_z
Si Si1 0.004042 0.050499 0.813837
Si Si2 0.788559 0.490442 0.333091
Si Si3 0.936427 0.474915 0.223800
Si Si4 0.856530 0.191037 0.669255
Si Si5 0.875000 0.875000 0.947912
Si Si6 0.570320 0.072225 0.891493
Si Si7 0.428163 0.562131 0.024598
O O1 0.026469 0.135017 0.817748
O O2 0.053016 0.995409 0.834528
O O3 0.956591 0.035504 0.860610
O O4 0.979163 0.034029 0.753385
O O5 0.841464 0.433577 0.338823
O O6 0.798297 0.548860 0.285220
O O7 0.727805 0.448996 0.320410
O O8 0.926819 0.408166 0.265343
O O9 0.961279 0.444588 0.166584
O O10 0.873645 0.507547 0.209109
O O11 0.859805 0.125000 0.625000
O O12 0.913336 0.243283 0.668543
O O13 0.847235 0.145596 0.725218
O O14 0.625000 0.125000 0.880193
#
# Coordination Sequence:
#
# PCOD8285982 Si02
#       7
#    32  32  32  32  16  32  32
#     4  11  24  33  54  85 120 153 196 252 313 358
#     4  10  21  35  52  84 124 152 192 232 298 373
#     4  11  21  34  54  83 116 156 197 232 302 355
#     4  11  19  36  60  81 103 158 213 248 292 361
#     4  10  22  31  54  80 116 154 178 230 276 375
#     4  10  21  39  56  81 118 153 203 260 290 354
#     4  10  20  34  56  81 109 160 197 236 290 359
#
# _framework density 20.140122000000002
#
# number of rings (size 3 to 8) (size 9 to 14) (size 15 to 20)
#    0.000    1.538    3.846    1.846    6.462    3.077 
#    0.000    0.769    0.000    0.000    0.000    0.000 
#    0.000    0.000    0.000    0.000    0.000    0.000 
#
# Total GULP energy -644283.066767 kJ/mol
# GULP energy per Si atom -12390.058976 kJ/mol
# Density = 2.009428 g / cm^3
# Si number density = 20.140122 Si / 1000 Ang^3
#
#
#
# Elastic Constant Matrix: (Units=GPa)
#
#
# Indices 1 2 3 4 5 6 
#
# 1 62.6819 40.1733 30.3166 0.0000 0.0000 0.0000
# 2 40.1733 125.2499 40.2558 0.0000 0.0000 0.0000
# 3 30.3166 40.2558 66.5836 0.0000 0.0000 0.0000
# 4 0.0000 0.0000 0.0000 30.3706 0.0000 0.0000
# 5 0.0000 0.0000 0.0000 0.0000 17.2885 0.0000
# 6 0.0000 0.0000 0.0000 0.0000 0.0000 36.8034
#
#
#
# Elastic Compliance Matrix: (Units=1/GPa)
#
#
# Indices 1 2 3 4 5 6 
#
# 1 0.022650 -0.004903 -0.007349 0.000000 0.000000 0.000000
# 2 -0.004903 0.010971 -0.004401 0.000000 0.000000 0.000000
# 3 -0.007349 -0.004401 0.021025 0.000000 0.000000 0.000000
# 4 0.000000 0.000000 0.000000 0.032927 0.000000 0.000000
# 5 0.000000 0.000000 0.000000 0.000000 0.057842 0.000000
# 6 0.000000 0.000000 0.000000 0.000000 0.000000 0.027171
#
#
# Mechanical properties :
#
#
# Convention : Reuss Voigt Hill
#
# Bulk Modulus (GPa) = 46.85612 52.88964 49.87288
# Shear Modulus (GPa) = 23.47365 26.47715 24.97540
#
# Velocity S-wave (km/s) = 3.41767 3.62974 3.52530
# Velocity P-wave (km/s) = 6.23615 6.62454 6.43327
#
# Compressibility (1/GPa) = 0.02134193
#
# Stress axis : x y z
#
# Youngs Moduli (GPa) = 44.14968 91.14924 47.56201
#
# Poissons Ratio (x) = 0.44691 0.34952
# Poissons Ratio (y) = 0.21647 0.20930
# Poissons Ratio (z) = 0.32444 0.40110
#
# Static dielectric constant tensor:
#      x y z
#    x 3.511960 0.000000 0.000000 
#    y 0.000000 4.039110 0.000000 
#    z 0.000000 0.000000 3.627060 
# 
# 
# High freq. dielectric constant tensor:
#      x y z
#    x 1.758560 0.000000 0.000000 
#    y 0.000000 1.781560 0.000000 
#    z 0.000000 0.000000 1.769600 
# 
# From -- ./inp_files/60421.got.cif
#   From: 2010.03.12/outbox.cif.g09.slc.cpg/sg70_31_cif.got.tgz:60421.got - 2010.04.16 13:46:32.
