data_PCOD8285569
_publ_section_title
;
Structure prediction by ZEFSAII (Michael W. Deem and Ramdas Pophale) SiO2 
 PCOD8285569
Probable space group: F M M M
;
_chemical_formula_sum "Si O2"
_cell_formula_units_Z 144
_cell_length_a 19.822460
_cell_length_b 14.027684
_cell_length_c 29.096248
_cell_angle_alpha 90.000000
_cell_angle_beta 90.000000
_cell_angle_gamma 90.000000
_cell_volume 8090.595972
_symmetry_space_group_name_H-M "F M M M"
_symmetry_group_IT_number 69
_symmetry_cell_setting 'orthorhombic'
loop_
_space_group_symop_operation_xyz
x,y,z
-x,-y,z
x,-y,-z
-x,y,-z
-x,-y,-z
x,y,-z
-x,y,z
x,-y,z
x,1/2+y,1/2+z
-x,1/2-y,1/2+z
x,1/2-y,1/2-z
-x,1/2+y,1/2-z
-x,1/2-y,1/2-z
x,1/2+y,1/2-z
-x,1/2+y,1/2+z
x,1/2-y,1/2+z
1/2+x,y,1/2+z
1/2-x,-y,1/2+z
1/2+x,-y,1/2-z
1/2-x,y,1/2-z
1/2-x,-y,1/2-z
1/2+x,y,1/2-z
1/2-x,y,1/2+z
1/2+x,-y,1/2+z
1/2+x,1/2+y,z
1/2-x,1/2-y,z
1/2+x,1/2-y,-z
1/2-x,1/2+y,-z
1/2-x,1/2-y,-z
1/2+x,1/2+y,-z
1/2-x,1/2+y,z
1/2+x,1/2-y,z
loop_
_atom_site_type_symbol
_atom_site_label
_atom_site_fract_x
_atom_site_fract_y
_atom_site_fract_z
Si Si1 0.853822 0.885583 0.552327
Si Si2 0.853061 0.000000 0.212648
Si Si3 0.183387 0.804759 0.357317
Si Si4 0.079215 0.300421 0.297756
Si Si5 0.792287 0.000000 0.687280
Si Si6 0.000000 0.898171 0.446384
O O1 0.833546 0.859331 0.500000
O O2 0.809683 0.823609 0.587729
O O3 0.929510 0.846800 0.565068
O O4 0.847448 0.000000 0.559301
O O5 0.901249 0.910487 0.205337
O O6 0.816101 0.000000 0.260890
O O7 0.788780 0.000000 0.178295
O O8 0.250000 0.750000 0.340175
O O9 0.118465 0.745298 0.340895
O O10 0.175536 0.907466 0.335017
O O11 0.100125 0.250000 0.250000
O O12 0.000000 0.289371 0.307446
O O13 0.000000 0.919614 0.500000
O O14 0.000000 0.000000 0.420346
#
# Coordination Sequence:
#
# PCOD8285569 Si02
#       6
#    32  16  32  32  16  16
#     4   9  18  33  54  80 112 147 183 232 288 339
#     4  11  21  40  62  76 117 154 192 237 277 339
#     4  12  23  37  57  84 116 146 196 239 282 348
#     4  11  24  39  57  86 117 150 190 236 285 335
#     4  11  22  36  59  86 107 152 195 235 287 330
#     4   7  12  26  48  74 101 133 171 215 277 338
#
# _framework density 17.798442000000001
#
# number of rings (size 3 to 8) (size 9 to 14) (size 15 to 20)
#    0.000    1.667    5.556    1.667    1.556    0.889 
#    0.000    0.556    0.000    0.000    0.000    0.000 
#    0.000    1.778    0.000    0.000    0.000    0.000 
#
# Total GULP energy -446043.799026 kJ/mol
# GULP energy per Si atom -12390.105529 kJ/mol
# Density = 1.775793 g / cm^3
# Si number density = 17.798442 Si / 1000 Ang^3
#
#
#
# Elastic Constant Matrix: (Units=GPa)
#
#
# Indices 1 2 3 4 5 6 
#
# 1 79.4714 34.6502 25.8137 0.0000 0.0000 0.0000
# 2 34.6502 109.7710 37.4025 0.0000 0.0000 0.0000
# 3 25.8137 37.4025 86.2217 0.0000 0.0000 0.0000
# 4 0.0000 0.0000 0.0000 26.5045 0.0000 0.0000
# 5 0.0000 0.0000 0.0000 0.0000 23.2224 0.0000
# 6 0.0000 0.0000 0.0000 0.0000 0.0000 27.1693
#
#
#
# Elastic Compliance Matrix: (Units=1/GPa)
#
#
# Indices 1 2 3 4 5 6 
#
# 1 0.015183 -0.003806 -0.002894 0.000000 0.000000 0.000000
# 2 -0.003806 0.011644 -0.003912 0.000000 0.000000 0.000000
# 3 -0.002894 -0.003912 0.014161 0.000000 0.000000 0.000000
# 4 0.000000 0.000000 0.000000 0.037729 0.000000 0.000000
# 5 0.000000 0.000000 0.000000 0.000000 0.043062 0.000000
# 6 0.000000 0.000000 0.000000 0.000000 0.000000 0.036806
#
#
# Mechanical properties :
#
#
# Convention : Reuss Voigt Hill
#
# Bulk Modulus (GPa) = 50.59777 52.35522 51.47650
# Shear Modulus (GPa) = 26.82421 27.21908 27.02164
#
# Velocity S-wave (km/s) = 3.88636 3.91486 3.90064
# Velocity P-wave (km/s) = 6.97340 7.06501 7.01936
#
# Compressibility (1/GPa) = 0.01976372
#
# Stress axis : x y z
#
# Youngs Moduli (GPa) = 65.86355 85.87964 70.61454
#
# Poissons Ratio (x) = 0.32689 0.20439
# Poissons Ratio (y) = 0.25070 0.27622
# Poissons Ratio (z) = 0.19063 0.33593
#
# Static dielectric constant tensor:
#      x y z
#    x 3.515650 0.000000 0.000000 
#    y 0.000000 3.129710 0.000000 
#    z 0.000000 0.000000 3.219540 
# 
# 
# High freq. dielectric constant tensor:
#      x y z
#    x 1.688990 0.000000 0.000000 
#    y 0.000000 1.675050 0.000000 
#    z 0.000000 0.000000 1.677480 
# 
# From -- ./inp_files/46189.got.cif
#   From: 2010.03.12/outbox.cif.g09.slc.cpg/sg69_24_cif.got.tgz:46189.got - 2010.04.10 23:52:46.
