data_PCOD8285393
_publ_section_title
;
Structure prediction by ZEFSAII (Michael W. Deem and Ramdas Pophale) SiO2 
 PCOD8285393
Probable space group: F M M M
;
_chemical_formula_sum "Si O2"
_cell_formula_units_Z 112
_cell_length_a 23.737985
_cell_length_b 12.136521
_cell_length_c 14.359531
_cell_angle_alpha 90.000000
_cell_angle_beta 90.000000
_cell_angle_gamma 90.000000
_cell_volume 4136.931390
_symmetry_space_group_name_H-M "F M M M"
_symmetry_group_IT_number 69
_symmetry_cell_setting 'orthorhombic'
loop_
_space_group_symop_operation_xyz
x,y,z
-x,-y,z
x,-y,-z
-x,y,-z
-x,-y,-z
x,y,-z
-x,y,z
x,-y,z
x,1/2+y,1/2+z
-x,1/2-y,1/2+z
x,1/2-y,1/2-z
-x,1/2+y,1/2-z
-x,1/2-y,1/2-z
x,1/2+y,1/2-z
-x,1/2+y,1/2+z
x,1/2-y,1/2+z
1/2+x,y,1/2+z
1/2-x,-y,1/2+z
1/2+x,-y,1/2-z
1/2-x,y,1/2-z
1/2-x,-y,1/2-z
1/2+x,y,1/2-z
1/2-x,y,1/2+z
1/2+x,-y,1/2+z
1/2+x,1/2+y,z
1/2-x,1/2-y,z
1/2+x,1/2-y,-z
1/2-x,1/2+y,-z
1/2-x,1/2-y,-z
1/2+x,1/2+y,-z
1/2-x,1/2+y,z
1/2+x,1/2-y,z
loop_
_atom_site_type_symbol
_atom_site_label
_atom_site_fract_x
_atom_site_fract_y
_atom_site_fract_z
Si Si1 0.673504 0.124986 0.698419
Si Si2 0.434213 0.618968 0.500000
Si Si3 0.561097 0.289277 0.148632
Si Si4 0.213428 0.131289 0.604569
O O1 0.611661 0.123022 0.650960
O O2 0.721397 0.170766 0.626207
O O3 0.675082 0.178823 0.805887
O O4 0.691346 0.000000 0.717002
O O5 0.402888 0.500000 0.500000
O O6 0.500000 0.598315 0.500000
O O7 0.415907 0.685080 0.409014
O O8 0.500000 0.334198 0.108433
O O9 0.547296 0.250000 0.250000
O O10 0.194780 0.171955 0.500000
O O11 0.210354 0.000000 0.604730
#
# Coordination Sequence:
#
# PCOD8285393 Si02
#       4
#    32  16  32  32
#     4   9  18  33  58  94 134 175 219 273 343 409
#     4   9  20  42  69  93 124 177 238 286 334 401
#     4  10  22  40  62  93 135 174 219 283 341 402
#     4   8  15  31  56  88 130 179 228 275 323 393
#
# _framework density 27.073207
#
# number of rings (size 3 to 8) (size 9 to 14) (size 15 to 20)
#    0.000    3.000    0.000    1.714    2.000    1.714 
#    2.571    5.714    0.000    4.286    0.000    4.000 
#    0.000    0.000    0.000    0.000    0.000    0.000 
#
# Total GULP energy -346906.293142 kJ/mol
# GULP energy per Si atom -12389.510469 kJ/mol
# Density = 2.701159 g / cm^3
# Si number density = 27.073207 Si / 1000 Ang^3
#
#
#
# Elastic Constant Matrix: (Units=GPa)
#
#
# Indices 1 2 3 4 5 6 
#
# 1 168.2280 40.2714 54.8312 0.0000 0.0000 0.0000
# 2 40.2714 53.3779 69.9501 0.0000 0.0000 0.0000
# 3 54.8312 69.9501 222.1094 0.0000 0.0000 0.0000
# 4 0.0000 0.0000 0.0000 38.1800 0.0000 0.0000
# 5 0.0000 0.0000 0.0000 0.0000 36.8664 0.0000
# 6 0.0000 0.0000 0.0000 0.0000 0.0000 21.5939
#
#
#
# Elastic Compliance Matrix: (Units=1/GPa)
#
#
# Indices 1 2 3 4 5 6 
#
# 1 0.007256 -0.005325 -0.000114 0.000000 0.000000 0.000000
# 2 -0.005325 0.035807 -0.009962 0.000000 0.000000 0.000000
# 3 -0.000114 -0.009962 0.007668 0.000000 0.000000 0.000000
# 4 0.000000 0.000000 0.000000 0.026192 0.000000 0.000000
# 5 0.000000 0.000000 0.000000 0.000000 0.027125 0.000000
# 6 0.000000 0.000000 0.000000 0.000000 0.000000 0.046309
#
#
# Mechanical properties :
#
#
# Convention : Reuss Voigt Hill
#
# Bulk Modulus (GPa) = 50.17964 85.98006 68.07985
# Shear Modulus (GPa) = 26.62364 37.90555 32.26460
#
# Velocity S-wave (km/s) = 3.13931 3.74587 3.45592
# Velocity P-wave (km/s) = 5.63164 7.10887 6.41293
#
# Compressibility (1/GPa) = 0.01992840
#
# Stress axis : x y z
#
# Youngs Moduli (GPa) = 137.81249 27.92753 130.41120
#
# Poissons Ratio (x) = 0.14870 0.01492
# Poissons Ratio (y) = 0.73379 1.29921
# Poissons Ratio (z) = 0.01577 0.27823
#
# Static dielectric constant tensor:
#      x y z
#    x 5.095470 0.000000 0.000000 
#    y 0.000000 5.175960 0.000000 
#    z 0.000000 0.000000 5.280530 
# 
# 
# High freq. dielectric constant tensor:
#      x y z
#    x 2.103830 0.000000 0.000000 
#    y 0.000000 2.106990 0.000000 
#    z 0.000000 0.000000 2.093170 
# 
# From -- ./inp_files/17228.got.cif
#   From: 2010.03.12/outbox.cif.g09.slc.cpg/sg69_9_cif.got.tgz:17228.got - 2010.04.10 23:52:46.
