data_PCOD8285404
_publ_section_title
;
Structure prediction by ZEFSAII (Michael W. Deem and Ramdas Pophale) SiO2 
 PCOD8285404
Probable space group: F M M M
;
_chemical_formula_sum "Si O2"
_cell_formula_units_Z 160
_cell_length_a 27.210116
_cell_length_b 13.825011
_cell_length_c 18.202949
_cell_angle_alpha 90.000000
_cell_angle_beta 90.000000
_cell_angle_gamma 90.000000
_cell_volume 6847.588140
_symmetry_space_group_name_H-M "F M M M"
_symmetry_group_IT_number 69
_symmetry_cell_setting 'orthorhombic'
loop_
_space_group_symop_operation_xyz
x,y,z
-x,-y,z
x,-y,-z
-x,y,-z
-x,-y,-z
x,y,-z
-x,y,z
x,-y,z
x,1/2+y,1/2+z
-x,1/2-y,1/2+z
x,1/2-y,1/2-z
-x,1/2+y,1/2-z
-x,1/2-y,1/2-z
x,1/2+y,1/2-z
-x,1/2+y,1/2+z
x,1/2-y,1/2+z
1/2+x,y,1/2+z
1/2-x,-y,1/2+z
1/2+x,-y,1/2-z
1/2-x,y,1/2-z
1/2-x,-y,1/2-z
1/2+x,y,1/2-z
1/2-x,y,1/2+z
1/2+x,-y,1/2+z
1/2+x,1/2+y,z
1/2-x,1/2-y,z
1/2+x,1/2-y,-z
1/2-x,1/2+y,-z
1/2-x,1/2-y,-z
1/2+x,1/2+y,-z
1/2-x,1/2+y,z
1/2+x,1/2-y,z
loop_
_atom_site_type_symbol
_atom_site_label
_atom_site_fract_x
_atom_site_fract_y
_atom_site_fract_z
Si Si1 0.056218 0.891809 0.711219
Si Si2 0.150874 0.384929 0.000000
Si Si3 0.186718 0.614307 0.690195
Si Si4 0.089550 0.797386 0.853553
Si Si5 0.555578 0.258387 0.500000
Si Si6 0.293695 0.614243 0.646451
O O1 0.058762 0.860552 0.795973
O O2 0.087870 0.818208 0.662757
O O3 0.000000 0.888408 0.685107
O O4 0.078065 0.000000 0.700950
O O5 0.179333 0.345776 0.073166
O O6 0.147495 0.500000 0.000000
O O7 0.095370 0.344945 0.000000
O O8 0.180519 0.500000 0.681550
O O9 0.145835 0.670157 0.643932
O O10 0.237430 0.651425 0.654271
O O11 0.180189 0.643967 0.776423
O O12 0.063917 0.812977 0.931445
O O13 0.500000 0.301095 0.500000
O O14 0.291471 0.500000 0.641149
#
# Coordination Sequence:
#
# PCOD8285404 Si02
#       6
#    32  16  32  32  16  32
#     4  10  22  42  68  94 126 175 234 292 342 396
#     4  10  22  40  69 100 136 181 226 282 346 412
#     4   9  18  37  68 102 140 183 228 277 330 397
#     4  11  23  41  67  98 132 178 224 279 338 413
#     4  12  28  46  62  91 139 180 220 286 356 416
#     4   8  17  36  64 103 142 178 222 274 334 404
#
# _framework density 23.365891000000001
#
# number of rings (size 3 to 8) (size 9 to 14) (size 15 to 20)
#    0.000    2.200    0.000    4.200    5.600    1.800 
#    0.000    5.000    0.000    3.600    0.000    2.800 
#    0.000    0.000    0.000    0.000    0.000    0.000 
#
# Total GULP energy -495895.546026 kJ/mol
# GULP energy per Si atom -12397.388651 kJ/mol
# Density = 2.331271 g / cm^3
# Si number density = 23.365891 Si / 1000 Ang^3
#
#
#
# Elastic Constant Matrix: (Units=GPa)
#
#
# Indices 1 2 3 4 5 6 
#
# 1 155.2721 44.8564 65.3527 0.0000 0.0000 0.0000
# 2 44.8564 95.4375 32.5655 0.0000 0.0000 0.0000
# 3 65.3527 32.5655 154.6616 0.0000 0.0000 0.0000
# 4 0.0000 0.0000 0.0000 17.0784 0.0000 0.0000
# 5 0.0000 0.0000 0.0000 0.0000 26.7624 0.0000
# 6 0.0000 0.0000 0.0000 0.0000 0.0000 43.2889
#
#
#
# Elastic Compliance Matrix: (Units=1/GPa)
#
#
# Indices 1 2 3 4 5 6 
#
# 1 0.008566 -0.003007 -0.002986 0.000000 0.000000 0.000000
# 2 -0.003007 0.012345 -0.001329 0.000000 0.000000 0.000000
# 3 -0.002986 -0.001329 0.008007 0.000000 0.000000 0.000000
# 4 0.000000 0.000000 0.000000 0.058553 0.000000 0.000000
# 5 0.000000 0.000000 0.000000 0.000000 0.037366 0.000000
# 6 0.000000 0.000000 0.000000 0.000000 0.000000 0.023101
#
#
# Mechanical properties :
#
#
# Convention : Reuss Voigt Hill
#
# Bulk Modulus (GPa) = 70.05799 76.76894 73.41347
# Shear Modulus (GPa) = 29.87926 34.93240 32.40583
#
# Velocity S-wave (km/s) = 3.57985 3.87074 3.72813
# Velocity P-wave (km/s) = 6.86551 7.27346 7.07243
#
# Compressibility (1/GPa) = 0.01427389
#
# Stress axis : x y z
#
# Youngs Moduli (GPa) = 116.74109 81.00596 124.88429
#
# Poissons Ratio (x) = 0.24359 0.37296
# Poissons Ratio (y) = 0.35105 0.16593
# Poissons Ratio (z) = 0.34864 0.10763
#
# Static dielectric constant tensor:
#      x y z
#    x 4.298580 0.000000 0.000000 
#    y 0.000000 4.069600 0.000000 
#    z 0.000000 0.000000 4.622010 
# 
# 
# High freq. dielectric constant tensor:
#      x y z
#    x 1.939250 0.000000 0.000000 
#    y 0.000000 1.915320 0.000000 
#    z 0.000000 0.000000 1.914520 
# 
# From -- ./inp_files/27531.got.cif
#   From: 2010.03.12/outbox.cif.g09.slc.cpg/sg69_14_cif.got.tgz:27531.got - 2010.04.10 23:52:46.
