data_PCOD8285324
_publ_section_title
;
Structure prediction by ZEFSAII (Michael W. Deem and Ramdas Pophale) SiO2 
 PCOD8285324
Probable space group: F M M M
;
_chemical_formula_sum "Si O2"
_cell_formula_units_Z 128
_cell_length_a 22.656741
_cell_length_b 19.123496
_cell_length_c 14.199809
_cell_angle_alpha 90.000000
_cell_angle_beta 90.000000
_cell_angle_gamma 90.000000
_cell_volume 6152.437806
_symmetry_space_group_name_H-M "F M M M"
_symmetry_group_IT_number 69
_symmetry_cell_setting 'orthorhombic'
loop_
_space_group_symop_operation_xyz
x,y,z
-x,-y,z
x,-y,-z
-x,y,-z
-x,-y,-z
x,y,-z
-x,y,z
x,-y,z
x,1/2+y,1/2+z
-x,1/2-y,1/2+z
x,1/2-y,1/2-z
-x,1/2+y,1/2-z
-x,1/2-y,1/2-z
x,1/2+y,1/2-z
-x,1/2+y,1/2+z
x,1/2-y,1/2+z
1/2+x,y,1/2+z
1/2-x,-y,1/2+z
1/2+x,-y,1/2-z
1/2-x,y,1/2-z
1/2-x,-y,1/2-z
1/2+x,y,1/2-z
1/2-x,y,1/2+z
1/2+x,-y,1/2+z
1/2+x,1/2+y,z
1/2-x,1/2-y,z
1/2+x,1/2-y,-z
1/2-x,1/2+y,-z
1/2-x,1/2-y,-z
1/2+x,1/2+y,-z
1/2-x,1/2+y,z
1/2+x,1/2-y,z
loop_
_atom_site_type_symbol
_atom_site_label
_atom_site_fract_x
_atom_site_fract_y
_atom_site_fract_z
Si Si1 0.067653 0.268261 0.000000
Si Si2 0.642078 0.813655 0.180503
Si Si3 0.065921 0.603669 0.500000
Si Si4 0.631158 0.075383 0.685600
Si Si5 0.259083 0.080137 0.890672
O O1 0.101379 0.291627 0.093895
O O2 0.000000 0.296600 0.000000
O O3 0.068676 0.186114 0.000000
O O4 0.661873 0.750000 0.250000
O O5 0.603692 0.866027 0.245895
O O6 0.696350 0.859311 0.141440
O O7 0.097418 0.571709 0.588908
O O8 0.000000 0.575490 0.500000
O O9 0.700118 0.092484 0.669107
O O10 0.624961 0.000000 0.734894
O O11 0.282618 0.000000 0.874783
O O12 0.244361 0.091868 0.000000
#
# Coordination Sequence:
#
# PCOD8285324 Si02
#       5
#    16  32  16  32  32
#     4  11  26  48  67  90 128 171 218 269 326 377
#     4  12  24  42  67  98 125 171 213 265 316 384
#     4  11  23  43  67  92 127 167 218 278 321 369
#     4  11  23  41  65  99 135 169 210 259 326 386
#     4  10  21  40  67  95 135 176 204 254 324 389
#
# _framework density 20.804760999999999
#
# number of rings (size 3 to 8) (size 9 to 14) (size 15 to 20)
#    0.000    1.000    5.000    1.875    0.000    6.500 
#    0.000    2.500    0.000    5.250    0.000    0.000 
#    0.000    0.000    0.000    0.000    0.000    0.000 
#
# Total GULP energy -396558.903556 kJ/mol
# GULP energy per Si atom -12392.465736 kJ/mol
# Density = 2.075741 g / cm^3
# Si number density = 20.804761 Si / 1000 Ang^3
#
#
#
# Elastic Constant Matrix: (Units=GPa)
#
#
# Indices 1 2 3 4 5 6 
#
# 1 93.9541 41.5105 15.3766 0.0000 0.0000 0.0000
# 2 41.5105 135.9655 47.8639 0.0000 0.0000 0.0000
# 3 15.3766 47.8639 97.5232 0.0000 0.0000 0.0000
# 4 0.0000 0.0000 0.0000 37.2993 0.0000 0.0000
# 5 0.0000 0.0000 0.0000 0.0000 95.1797 0.0000
# 6 0.0000 0.0000 0.0000 0.0000 0.0000 60.1859
#
#
#
# Elastic Compliance Matrix: (Units=1/GPa)
#
#
# Indices 1 2 3 4 5 6 
#
# 1 0.012304 -0.003715 -0.000116 0.000000 0.000000 0.000000
# 2 -0.003715 0.010013 -0.004328 0.000000 0.000000 0.000000
# 3 -0.000116 -0.004328 0.012397 0.000000 0.000000 0.000000
# 4 0.000000 0.000000 0.000000 0.026810 0.000000 0.000000
# 5 0.000000 0.000000 0.000000 0.000000 0.010506 0.000000
# 6 0.000000 0.000000 0.000000 0.000000 0.000000 0.016615
#
#
# Mechanical properties :
#
#
# Convention : Reuss Voigt Hill
#
# Bulk Modulus (GPa) = 54.36871 59.66053 57.01462
# Shear Modulus (GPa) = 45.00563 53.37911 49.19237
#
# Velocity S-wave (km/s) = 4.65611 5.07078 4.86786
# Velocity P-wave (km/s) = 7.42262 7.93867 7.68498
#
# Compressibility (1/GPa) = 0.01839293
#
# Stress axis : x y z
#
# Youngs Moduli (GPa) = 81.27368 99.87130 80.66653
#
# Poissons Ratio (x) = 0.37107 0.00940
# Poissons Ratio (y) = 0.30197 0.34916
# Poissons Ratio (z) = 0.00947 0.43229
#
# Static dielectric constant tensor:
#      x y z
#    x 3.660530 0.000000 0.000000 
#    y 0.000000 4.110890 0.000000 
#    z 0.000000 0.000000 4.129020 
# 
# 
# High freq. dielectric constant tensor:
#      x y z
#    x 1.787190 0.000000 0.000000 
#    y 0.000000 1.837720 0.000000 
#    z 0.000000 0.000000 1.838540 
# 
# From -- ./inp_files/16366.got.cif
#   From: 2010.03.12/outbox.cif.g09.slc.cpg/sg69_9_cif.got.tgz:16366.got - 2010.04.10 23:52:46.
