data_PCOD8285086
_publ_section_title
;
Structure prediction by ZEFSAII (Michael W. Deem and Ramdas Pophale) SiO2 
 PCOD8285086
Probable space group: F M M M
;
_chemical_formula_sum "Si O2"
_cell_formula_units_Z 104
_cell_length_a 23.408820
_cell_length_b 23.654030
_cell_length_c 9.192804
_cell_angle_alpha 90.000000
_cell_angle_beta 90.000000
_cell_angle_gamma 90.000000
_cell_volume 5090.174443
_symmetry_space_group_name_H-M "F M M M"
_symmetry_group_IT_number 69
_symmetry_cell_setting 'orthorhombic'
loop_
_space_group_symop_operation_xyz
x,y,z
-x,-y,z
x,-y,-z
-x,y,-z
-x,-y,-z
x,y,-z
-x,y,z
x,-y,z
x,1/2+y,1/2+z
-x,1/2-y,1/2+z
x,1/2-y,1/2-z
-x,1/2+y,1/2-z
-x,1/2-y,1/2-z
x,1/2+y,1/2-z
-x,1/2+y,1/2+z
x,1/2-y,1/2+z
1/2+x,y,1/2+z
1/2-x,-y,1/2+z
1/2+x,-y,1/2-z
1/2-x,y,1/2-z
1/2-x,-y,1/2-z
1/2+x,y,1/2-z
1/2-x,y,1/2+z
1/2+x,-y,1/2+z
1/2+x,1/2+y,z
1/2-x,1/2-y,z
1/2+x,1/2-y,-z
1/2-x,1/2+y,-z
1/2-x,1/2-y,-z
1/2+x,1/2+y,-z
1/2-x,1/2+y,z
1/2+x,1/2-y,z
loop_
_atom_site_type_symbol
_atom_site_label
_atom_site_fract_x
_atom_site_fract_y
_atom_site_fract_z
Si Si1 0.625932 0.000000 0.338107
Si Si2 0.000000 0.000000 0.231874
Si Si3 0.392042 0.308189 0.332469
Si Si4 0.190376 0.905747 0.330753
Si Si5 0.000000 0.875001 0.666534
O O1 0.644594 0.054183 0.246294
O O2 0.653476 0.000000 0.500000
O O3 0.557615 0.000000 0.362498
O O4 0.000000 0.057256 0.325744
O O5 0.403912 0.294356 0.500000
O O6 0.385615 0.250000 0.250000
O O7 0.332756 0.342140 0.315072
O O8 0.443589 0.345898 0.264059
O O9 0.196819 0.922949 0.500000
O O10 0.250000 0.912212 0.250000
O O11 0.000000 0.858724 0.500000
#
# Coordination Sequence:
#
# PCOD8285086 Si02
#       5
#    16   8  32  32  16
#     4  12  25  42  64  96 132 163 204 255 317 376
#     4  12  22  40  66  98 131 158 205 254 317 370
#     4  10  22  40  63  92 124 165 211 256 311 370
#     4  11  24  43  66  92 125 167 213 259 313 372
#     4  10  20  38  64  94 126 163 206 256 313 380
#
# _framework density 20.431519999999999
#
# number of rings (size 3 to 8) (size 9 to 14) (size 15 to 20)
#    0.000    1.231    3.077    2.769    0.000    4.308 
#    0.000    3.077    0.000    0.000    0.000    0.000 
#    0.000    0.000    0.000    0.000    0.000    0.000 
#
# Total GULP energy -322328.439056 kJ/mol
# GULP energy per Si atom -12397.247656 kJ/mol
# Density = 2.038502 g / cm^3
# Si number density = 20.431520 Si / 1000 Ang^3
#
#
#
# Elastic Constant Matrix: (Units=GPa)
#
#
# Indices 1 2 3 4 5 6 
#
# 1 124.7710 43.2191 52.1827 0.0001 -0.0003 0.0000
# 2 43.2191 147.0106 60.9142 -0.0005 0.0001 0.0002
# 3 52.1827 60.9142 122.1011 0.0000 -0.0005 -0.0004
# 4 0.0001 -0.0005 0.0000 29.6159 -0.0002 -0.0002
# 5 -0.0003 0.0001 -0.0005 -0.0002 21.4517 0.0000
# 6 0.0000 0.0002 -0.0004 -0.0002 0.0000 24.4087
#
#
#
# Elastic Compliance Matrix: (Units=1/GPa)
#
#
# Indices 1 2 3 4 5 6 
#
# 1 0.010006 -0.001475 -0.003541 0.000000 0.000000 0.000000
# 2 -0.001475 0.008792 -0.003756 0.000000 0.000000 0.000000
# 3 -0.003541 -0.003756 0.011577 0.000000 0.000000 0.000000
# 4 0.000000 0.000000 0.000000 0.033766 0.000000 0.000000
# 5 0.000000 0.000000 0.000000 0.000000 0.046616 0.000000
# 6 0.000000 0.000000 0.000000 0.000000 0.000000 0.040969
#
#
# Mechanical properties :
#
#
# Convention : Reuss Voigt Hill
#
# Bulk Modulus (GPa) = 77.92660 78.50163 78.21412
# Shear Modulus (GPa) = 28.81068 30.93303 29.87186
#
# Velocity S-wave (km/s) = 3.75922 3.89522 3.82782
# Velocity P-wave (km/s) = 7.55417 7.66391 7.60924
#
# Compressibility (1/GPa) = 0.01283259
#
# Stress axis : x y z
#
# Youngs Moduli (GPa) = 99.93691 113.73916 86.37834
#
# Poissons Ratio (x) = 0.16772 0.30585
# Poissons Ratio (y) = 0.14737 0.32444
# Poissons Ratio (z) = 0.35385 0.42720
#
# Static dielectric constant tensor:
#      x y z
#    x 3.921230 0.000000 0.000000 
#    y 0.000000 3.635590 0.000000 
#    z 0.000000 0.000000 3.522080 
# 
# 
# High freq. dielectric constant tensor:
#      x y z
#    x 1.810440 0.000000 0.000000 
#    y 0.000000 1.803860 0.000000 
#    z 0.000000 0.000000 1.786370 
# 
# From -- ./inp_files/2965.got.cif
#   From: 2010.03.12/outbox.cif.g09.slc.cpg/sg69_2_cif.got.tgz:2965.got - 2010.04.10 23:52:46.
