data_PCOD8285809
_publ_section_title
;
Structure prediction by ZEFSAII (Michael W. Deem and Ramdas Pophale) SiO2 
 PCOD8285809
Probable space group: F D D D
;
_chemical_formula_sum "Si O2"
_cell_formula_units_Z 192
_cell_length_a 22.452794
_cell_length_b 14.846469
_cell_length_c 31.582778
_cell_angle_alpha 90.000000
_cell_angle_beta 90.000000
_cell_angle_gamma 90.000000
_cell_volume 10527.951976
_symmetry_space_group_name_H-M "F D D D"
_symmetry_group_IT_number 70
_space_group.IT_coordinate_system_code '2'
_symmetry_cell_setting 'orthorhombic'
loop_
_space_group_symop_operation_xyz
x,y,z
1/4-x,1/4-y,z
x,1/4-y,1/4-z
1/4-x,y,1/4-z
-x,-y,-z
3/4+x,3/4+y,-z
-x,3/4+y,3/4+z
3/4+x,-y,3/4+z
x,1/2+y,1/2+z
1/4-x,3/4-y,1/2+z
x,3/4-y,3/4-z
1/4-x,1/2+y,3/4-z
-x,1/2-y,1/2-z
3/4+x,1/4+y,1/2-z
-x,1/4+y,1/4+z
3/4+x,1/2-y,1/4+z
1/2+x,y,1/2+z
3/4-x,1/4-y,1/2+z
1/2+x,1/4-y,3/4-z
3/4-x,y,3/4-z
1/2-x,-y,1/2-z
1/4+x,3/4+y,1/2-z
1/2-x,3/4+y,1/4+z
1/4+x,-y,1/4+z
1/2+x,1/2+y,z
3/4-x,3/4-y,z
1/2+x,3/4-y,1/4-z
3/4-x,1/2+y,1/4-z
1/2-x,1/2-y,-z
1/4+x,1/4+y,-z
1/2-x,1/4+y,3/4+z
1/4+x,1/2-y,3/4+z
loop_
_atom_site_type_symbol
_atom_site_label
_atom_site_fract_x
_atom_site_fract_y
_atom_site_fract_z
Si Si1 0.176260 0.875000 0.375000
Si Si2 0.509248 0.137707 0.513727
Si Si3 0.880101 0.570639 0.709306
Si Si4 0.673108 0.941592 0.526823
Si Si5 0.241790 0.558443 0.893946
Si Si6 0.791291 0.219304 0.441849
Si Si7 0.375000 0.375000 0.575255
O O1 0.132792 0.882033 0.333731
O O2 0.219092 0.792937 0.362664
O O3 0.444923 0.181679 0.519573
O O4 0.558475 0.214157 0.505504
O O5 0.527508 0.076605 0.554721
O O6 0.507939 0.076348 0.472054
O O7 0.830411 0.613736 0.740794
O O8 0.865759 0.465241 0.702432
O O9 0.721335 0.921958 0.563365
O O10 0.608560 0.950928 0.546422
O O11 0.283615 0.576468 0.853949
O O12 0.183189 0.620411 0.894950
#
# Coordination Sequence:
#
# PCOD8285809 Si02
#       7
#    16  32  32  32  32  32  16
#     4  10  18  36  57  74 124 147 186 242 290 342
#     4  10  19  36  52  87 122 151 191 230 298 357
#     4  10  21  37  56  85 115 154 199 253 276 357
#     4  11  21  35  60  85 121 152 193 239 302 354
#     4  11  20  37  57  85 112 153 195 240 292 359
#     4  10  21  34  56  87 123 154 185 241 297 363
#     4  10  22  38  60  76 111 160 204 245 292 332
#
# _framework density 18.237165000000001
#
# number of rings (size 3 to 8) (size 9 to 14) (size 15 to 20)
#    0.000    1.667    5.000    1.000    0.000    3.333 
#    0.000    2.500    0.000    0.000    0.000    1.167 
#    0.000    0.000    0.000    0.000    0.000    0.000 
#
# Total GULP energy -594721.303876 kJ/mol
# GULP energy per Si atom -12390.027164 kJ/mol
# Density = 1.819566 g / cm^3
# Si number density = 18.237165 Si / 1000 Ang^3
#
#
#
# Elastic Constant Matrix: (Units=GPa)
#
#
# Indices 1 2 3 4 5 6 
#
# 1 91.1090 42.8248 43.4840 0.0000 0.0000 0.0000
# 2 42.8248 101.8116 47.6895 0.0000 0.0000 0.0000
# 3 43.4840 47.6895 111.0633 0.0000 0.0000 0.0000
# 4 0.0000 0.0000 0.0000 24.8665 0.0000 0.0000
# 5 0.0000 0.0000 0.0000 0.0000 30.0737 0.0000
# 6 0.0000 0.0000 0.0000 0.0000 0.0000 28.6338
#
#
#
# Elastic Compliance Matrix: (Units=1/GPa)
#
#
# Indices 1 2 3 4 5 6 
#
# 1 0.014945 -0.004438 -0.003946 0.000000 0.000000 0.000000
# 2 -0.004438 0.013613 -0.004108 0.000000 0.000000 0.000000
# 3 -0.003946 -0.004108 0.012312 0.000000 0.000000 0.000000
# 4 0.000000 0.000000 0.000000 0.040215 0.000000 0.000000
# 5 0.000000 0.000000 0.000000 0.000000 0.033252 0.000000
# 6 0.000000 0.000000 0.000000 0.000000 0.000000 0.034924
#
#
# Mechanical properties :
#
#
# Convention : Reuss Voigt Hill
#
# Bulk Modulus (GPa) = 62.94202 63.55339 63.24771
# Shear Modulus (GPa) = 27.84903 28.04717 27.94810
#
# Velocity S-wave (km/s) = 3.91199 3.92588 3.91894
# Velocity P-wave (km/s) = 7.41571 7.44808 7.43192
#
# Compressibility (1/GPa) = 0.01588764
#
# Stress axis : x y z
#
# Youngs Moduli (GPa) = 66.91138 73.45973 81.21842
#
# Poissons Ratio (x) = 0.32602 0.32046
# Poissons Ratio (y) = 0.29696 0.33361
# Poissons Ratio (z) = 0.26401 0.30174
#
# Static dielectric constant tensor:
#      x y z
#    x 3.345360 0.000000 0.000000 
#    y 0.000000 3.338570 0.000000 
#    z 0.000000 0.000000 3.927810 
# 
# 
# High freq. dielectric constant tensor:
#      x y z
#    x 1.702640 0.000000 0.000000 
#    y 0.000000 1.690690 0.000000 
#    z 0.000000 0.000000 1.708140 
# 
# From -- ./inp_files/67933.got.cif
#   From: 2010.03.12/outbox.cif.g09.slc.cpg/sg70_34_cif.got.tgz:67933.got - 2010.04.16 13:46:32.
