data_PCOD8285671
_publ_section_title
;
Structure prediction by ZEFSAII (Michael W. Deem and Ramdas Pophale) SiO2 
 PCOD8285671
Probable space group: F M M M
;
_chemical_formula_sum "Si O2"
_cell_formula_units_Z 160
_cell_length_a 15.581669
_cell_length_b 32.001140
_cell_length_c 16.380316
_cell_angle_alpha 90.000000
_cell_angle_beta 90.000000
_cell_angle_gamma 90.000000
_cell_volume 8167.736150
_symmetry_space_group_name_H-M "F M M M"
_symmetry_group_IT_number 69
_symmetry_cell_setting 'orthorhombic'
loop_
_space_group_symop_operation_xyz
x,y,z
-x,-y,z
x,-y,-z
-x,y,-z
-x,-y,-z
x,y,-z
-x,y,z
x,-y,z
x,1/2+y,1/2+z
-x,1/2-y,1/2+z
x,1/2-y,1/2-z
-x,1/2+y,1/2-z
-x,1/2-y,1/2-z
x,1/2+y,1/2-z
-x,1/2+y,1/2+z
x,1/2-y,1/2+z
1/2+x,y,1/2+z
1/2-x,-y,1/2+z
1/2+x,-y,1/2-z
1/2-x,y,1/2-z
1/2-x,-y,1/2-z
1/2+x,y,1/2-z
1/2-x,y,1/2+z
1/2+x,-y,1/2+z
1/2+x,1/2+y,z
1/2-x,1/2-y,z
1/2+x,1/2-y,-z
1/2-x,1/2+y,-z
1/2-x,1/2-y,-z
1/2+x,1/2+y,-z
1/2-x,1/2+y,z
1/2+x,1/2-y,z
loop_
_atom_site_type_symbol
_atom_site_label
_atom_site_fract_x
_atom_site_fract_y
_atom_site_fract_z
Si Si1 0.595909 0.787426 0.859943
Si Si2 0.328180 0.000000 0.593615
Si Si3 0.741890 0.846102 0.909088
Si Si4 0.288156 0.931164 0.835933
Si Si5 0.595467 0.500000 0.731831
Si Si6 0.403560 0.693412 0.170903
O O1 0.500000 0.799872 0.890826
O O2 0.671305 0.809562 0.909532
O O3 0.608781 0.737981 0.872890
O O4 0.606268 0.800393 0.766633
O O5 0.272886 0.041812 0.605138
O O6 0.395484 0.000000 0.669143
O O7 0.366585 0.000000 0.500000
O O8 0.691773 0.887855 0.880909
O O9 0.828013 0.837718 0.856608
O O10 0.776207 0.851950 0.000000
O O11 0.250000 0.918065 0.750000
O O12 0.369582 0.958787 0.812316
O O13 0.500000 0.500000 0.705885
O O14 0.500000 0.675888 0.150968
#
# Coordination Sequence:
#
# PCOD8285671 Si02
#       6
#    32  16  32  32  16  32
#     4   9  19  36  56  77 104 143 190 232 272 327
#     4   9  17  34  58  82 111 139 164 208 268 319
#     4  12  23  33  52  82 113 145 181 228 282 325
#     4   9  19  36  56  76 104 145 184 213 249 312
#     4   9  19  36  60  86 107 137 178 214 258 319
#     4   9  19  37  58  77 102 142 189 233 276 328
#
# _framework density 19.589272000000001
#
# number of rings (size 3 to 8) (size 9 to 14) (size 15 to 20)
#    0.000    2.400    0.000    5.400    0.000    5.000 
#    0.000    8.000    0.000   15.000    0.000    0.000 
#    0.000    0.000    0.000    0.000    0.000    0.000 
#
# Total GULP energy -495593.223566 kJ/mol
# GULP energy per Si atom -12389.830589 kJ/mol
# Density = 1.954469 g / cm^3
# Si number density = 19.589272 Si / 1000 Ang^3
#
#
#
# Elastic Constant Matrix: (Units=GPa)
#
#
# Indices 1 2 3 4 5 6 
#
# 1 116.4553 39.3528 25.0969 0.0000 0.0000 0.0000
# 2 39.3528 87.0354 28.1001 0.0000 0.0000 0.0000
# 3 25.0969 28.1001 68.8601 0.0000 0.0000 0.0000
# 4 0.0000 0.0000 0.0000 -2.1488 0.0000 0.0000
# 5 0.0000 0.0000 0.0000 0.0000 13.5717 0.0000
# 6 0.0000 0.0000 0.0000 0.0000 0.0000 11.5658
#
#
#
# Elastic Compliance Matrix: (Units=1/GPa)
#
#
# Indices 1 2 3 4 5 6 
#
# 1 0.010406 -0.004009 -0.002157 0.000000 0.000000 0.000000
# 2 -0.004009 0.014777 -0.004569 0.000000 0.000000 0.000000
# 3 -0.002157 -0.004569 0.017173 0.000000 0.000000 0.000000
# 4 0.000000 0.000000 0.000000 -0.465382 0.000000 0.000000
# 5 0.000000 0.000000 0.000000 0.000000 0.073683 0.000000
# 6 0.000000 0.000000 0.000000 0.000000 0.000000 0.086461
#
#
# Mechanical properties :
#
#
# Convention : Reuss Voigt Hill
#
# Bulk Modulus (GPa) = 47.87698 50.82783 49.35240
# Shear Modulus (GPa) = -21.32665 16.58448 -2.37108
#
# Velocity S-wave (km/s) = -3.30311 2.91281 -1.10137
# Velocity P-wave (km/s) = 3.15374 6.10866 4.86116
#
# Compressibility (1/GPa) = 0.02088687
#
# Stress axis : x y z
#
# Youngs Moduli (GPa) = 96.09379 67.67090 58.23144
#
# Poissons Ratio (x) = 0.27129 0.12560
# Poissons Ratio (y) = 0.38523 0.26607
# Poissons Ratio (z) = 0.20726 0.30920
#
# Static dielectric constant tensor:
#      x y z
#    x 3.471420 0.000000 0.000000 
#    y 0.000000 3.386570 0.000000 
#    z 0.000000 0.000000 3.487200 
# 
# 
# High freq. dielectric constant tensor:
#      x y z
#    x 1.749520 0.000000 0.000000 
#    y 0.000000 1.758410 0.000000 
#    z 0.000000 0.000000 1.758020 
# 
# From -- ./inp_files/21838.got.cif
#   From: 2010.03.12/outbox.cif.g09.slc.cpg/sg69_11_cif.got.tgz:21838.got - 2010.04.10 23:52:46.
