data_PCOD8285720
_publ_section_title
;
Structure prediction by ZEFSAII (Michael W. Deem and Ramdas Pophale) SiO2 
 PCOD8285720
Probable space group: F D D D
;
_chemical_formula_sum "Si O2"
_cell_formula_units_Z 176
_cell_length_a 30.872202
_cell_length_b 22.095111
_cell_length_c 11.733932
_cell_angle_alpha 90.000000
_cell_angle_beta 90.000000
_cell_angle_gamma 90.000000
_cell_volume 8004.005197
_symmetry_space_group_name_H-M "F D D D"
_symmetry_group_IT_number 70
_space_group.IT_coordinate_system_code '2'
_symmetry_cell_setting 'orthorhombic'
loop_
_space_group_symop_operation_xyz
x,y,z
1/4-x,1/4-y,z
x,1/4-y,1/4-z
1/4-x,y,1/4-z
-x,-y,-z
3/4+x,3/4+y,-z
-x,3/4+y,3/4+z
3/4+x,-y,3/4+z
x,1/2+y,1/2+z
1/4-x,3/4-y,1/2+z
x,3/4-y,3/4-z
1/4-x,1/2+y,3/4-z
-x,1/2-y,1/2-z
3/4+x,1/4+y,1/2-z
-x,1/4+y,1/4+z
3/4+x,1/2-y,1/4+z
1/2+x,y,1/2+z
3/4-x,1/4-y,1/2+z
1/2+x,1/4-y,3/4-z
3/4-x,y,3/4-z
1/2-x,-y,1/2-z
1/4+x,3/4+y,1/2-z
1/2-x,3/4+y,1/4+z
1/4+x,-y,1/4+z
1/2+x,1/2+y,z
3/4-x,3/4-y,z
1/2+x,3/4-y,1/4-z
3/4-x,1/2+y,1/4-z
1/2-x,1/2-y,-z
1/4+x,1/4+y,-z
1/2-x,1/4+y,3/4+z
1/4+x,1/2-y,3/4+z
loop_
_atom_site_type_symbol
_atom_site_label
_atom_site_fract_x
_atom_site_fract_y
_atom_site_fract_z
Si Si1 0.161876 0.544906 0.531823
Si Si2 0.437884 0.405169 0.556352
Si Si3 0.015919 0.625000 0.625000
Si Si4 0.055171 0.418556 0.779631
Si Si5 0.222313 0.908684 0.585195
Si Si6 0.793320 0.957529 0.429123
O O1 0.125000 0.557910 0.625000
O O2 0.155122 0.581569 0.411967
O O3 0.205623 0.565674 0.596747
O O4 0.164430 0.475651 0.493664
O O5 0.485063 0.427040 0.595351
O O6 0.434325 0.333287 0.528103
O O7 0.431630 0.443252 0.439769
O O8 0.984590 0.613791 0.518142
O O9 0.076005 0.375000 0.875000
O O10 0.058644 0.380439 0.663866
O O11 0.007274 0.438206 0.821794
O O12 0.200384 0.971590 0.543317
#
# Coordination Sequence:
#
# PCOD8285720 Si02
#       6
#    32  32  16  32  32  32
#     4  11  23  39  55  80 122 174 209 231 280 378
#     4   9  17  29  55  91 121 154 195 241 310 351
#     4  10  21  36  56  82 118 162 200 236 296 358
#     4  11  19  33  62  93 119 151 192 255 317 362
#     4  10  18  30  52  92 125 144 184 253 326 355
#     4  10  15  30  57  97 126 139 189 269 313 350
#
# _framework density 21.988990999999999
#
# number of rings (size 3 to 8) (size 9 to 14) (size 15 to 20)
#    0.000    1.818    7.273    1.909    0.000    0.727 
#    3.273    0.000    2.000    0.000    4.727   11.455 
#    0.000    0.000    0.000    0.000    0.000    0.000 
#
# Total GULP energy -545144.559256 kJ/mol
# GULP energy per Si atom -12389.649074 kJ/mol
# Density = 2.193894 g / cm^3
# Si number density = 21.988991 Si / 1000 Ang^3
#
#
#
# Elastic Constant Matrix: (Units=GPa)
#
#
# Indices 1 2 3 4 5 6 
#
# 1 27.5619 19.3726 45.2592 0.0000 0.0000 0.0000
# 2 19.3726 148.0998 86.4349 0.0000 0.0000 0.0000
# 3 45.2592 86.4349 178.7135 -0.0001 0.0000 0.0000
# 4 0.0000 0.0000 -0.0001 43.8013 0.0000 0.0000
# 5 0.0000 0.0000 0.0000 0.0000 22.7382 0.0000
# 6 0.0000 0.0000 0.0000 0.0000 0.0000 8.9515
#
#
#
# Elastic Compliance Matrix: (Units=1/GPa)
#
#
# Indices 1 2 3 4 5 6 
#
# 1 0.062342 0.001476 -0.016502 0.000000 0.000000 0.000000
# 2 0.001476 0.009443 -0.004941 0.000000 0.000000 0.000000
# 3 -0.016502 -0.004941 0.012164 0.000000 0.000000 0.000000
# 4 0.000000 0.000000 0.000000 0.022830 0.000000 0.000000
# 5 0.000000 0.000000 0.000000 0.000000 0.043979 0.000000
# 6 0.000000 0.000000 0.000000 0.000000 0.000000 0.111714
#
#
# Mechanical properties :
#
#
# Convention : Reuss Voigt Hill
#
# Bulk Modulus (GPa) = 22.71904 72.94540 47.83222
# Shear Modulus (GPa) = 15.76900 28.65211 22.21055
#
# Velocity S-wave (km/s) = 2.68084 3.61365 3.18162
# Velocity P-wave (km/s) = 4.46508 7.11737 5.94112
#
# Compressibility (1/GPa) = 0.04401594
#
# Stress axis : x y z
#
# Youngs Moduli (GPa) = 16.04044 105.90201 82.20738
#
# Poissons Ratio (x) = -0.15634 1.35660
# Poissons Ratio (y) = -0.02368 0.40617
# Poissons Ratio (z) = 0.26470 0.52324
#
# Static dielectric constant tensor:
#      x y z
#    x 3.315480 0.000000 0.000000 
#    y 0.000000 4.140520 0.000000 
#    z 0.000000 0.000000 4.494030 
# 
# 
# High freq. dielectric constant tensor:
#      x y z
#    x 1.796520 0.000000 0.000000 
#    y 0.000000 1.865500 0.000000 
#    z 0.000000 0.000000 1.881870 
# 
# From -- ./inp_files/22282.got.cif
#   From: 2010.03.12/outbox.cif.g09.slc.cpg/sg70_12_cif.got.tgz:22282.got - 2010.04.16 13:46:32.
