data_PCOD8285051
_publ_section_title
;
Structure prediction by ZEFSAII (Michael W. Deem and Ramdas Pophale) SiO2 
 PCOD8285051
Probable space group: F M M M
;
_chemical_formula_sum "Si O2"
_cell_formula_units_Z 144
_cell_length_a 23.559534
_cell_length_b 15.105839
_cell_length_c 19.891659
_cell_angle_alpha 90.000000
_cell_angle_beta 90.000000
_cell_angle_gamma 90.000000
_cell_volume 7079.173448
_symmetry_space_group_name_H-M "F M M M"
_symmetry_group_IT_number 69
_symmetry_cell_setting 'orthorhombic'
loop_
_space_group_symop_operation_xyz
x,y,z
-x,-y,z
x,-y,-z
-x,y,-z
-x,-y,-z
x,y,-z
-x,y,z
x,-y,z
x,1/2+y,1/2+z
-x,1/2-y,1/2+z
x,1/2-y,1/2-z
-x,1/2+y,1/2-z
-x,1/2-y,1/2-z
x,1/2+y,1/2-z
-x,1/2+y,1/2+z
x,1/2-y,1/2+z
1/2+x,y,1/2+z
1/2-x,-y,1/2+z
1/2+x,-y,1/2-z
1/2-x,y,1/2-z
1/2-x,-y,1/2-z
1/2+x,y,1/2-z
1/2-x,y,1/2+z
1/2+x,-y,1/2+z
1/2+x,1/2+y,z
1/2-x,1/2-y,z
1/2+x,1/2-y,-z
1/2-x,1/2+y,-z
1/2-x,1/2-y,-z
1/2+x,1/2+y,-z
1/2-x,1/2+y,z
1/2+x,1/2-y,z
loop_
_atom_site_type_symbol
_atom_site_label
_atom_site_fract_x
_atom_site_fract_y
_atom_site_fract_z
Si Si1 0.849466 0.500000 0.722496
Si Si2 0.000000 0.596319 0.921002
Si Si3 0.914015 0.759804 0.423970
Si Si4 0.434739 0.662539 0.792748
Si Si5 0.264269 0.500000 0.345900
Si Si6 0.711858 0.824939 0.075802
O O1 0.890133 0.414395 0.725227
O O2 0.805000 0.500000 0.659784
O O3 0.802406 0.500000 0.780004
O O4 0.054798 0.651267 0.898276
O O5 0.000000 0.500000 0.885062
O O6 0.000000 0.581665 0.000000
O O7 0.933631 0.733058 0.500000
O O8 0.929133 0.681219 0.372657
O O9 0.849340 0.783036 0.422706
O O10 0.500000 0.633593 0.777124
O O11 0.418491 0.750000 0.750000
O O12 0.284341 0.415043 0.385503
O O13 0.750000 0.750000 0.111214
O O14 0.732678 0.843007 0.000000
#
# Coordination Sequence:
#
# PCOD8285051 Si02
#       6
#    16  16  32  32  16  32
#     4  11  25  42  62  85 116 159 211 248 297 360
#     4   9  18  32  53  87 121 153 194 237 288 356
#     4  10  20  37  61  88 123 161 198 243 299 363
#     4  11  23  42  63  89 122 158 196 253 308 360
#     4  11  23  40  62  86 117 160 202 250 293 362
#     4  10  21  37  60  91 123 154 193 245 302 358
#
# _framework density 20.341358
#
# number of rings (size 3 to 8) (size 9 to 14) (size 15 to 20)
#    0.000    1.667    1.111    3.333    1.556    0.000 
#    2.000    3.889    0.000    1.333    0.000    0.000 
#    0.000    0.000    0.000    0.000    0.000    0.000 
#
# Total GULP energy -446187.811168 kJ/mol
# GULP energy per Si atom -12394.105866 kJ/mol
# Density = 2.029506 g / cm^3
# Si number density = 20.341358 Si / 1000 Ang^3
#
#
#
# Elastic Constant Matrix: (Units=GPa)
#
#
# Indices 1 2 3 4 5 6 
#
# 1 129.7352 48.0041 22.7941 0.0000 0.0000 0.0000
# 2 48.0041 102.1149 29.0556 0.0000 0.0000 0.0000
# 3 22.7941 29.0556 62.4423 0.0000 0.0000 0.0000
# 4 0.0000 0.0000 0.0000 34.6624 0.0000 0.0000
# 5 0.0000 0.0000 0.0000 0.0000 35.5861 0.0000
# 6 0.0000 0.0000 0.0000 0.0000 0.0000 0.8340
#
#
#
# Elastic Compliance Matrix: (Units=1/GPa)
#
#
# Indices 1 2 3 4 5 6 
#
# 1 0.009467 -0.003996 -0.001596 0.000000 0.000000 0.000000
# 2 -0.003996 0.012974 -0.004578 0.000000 0.000000 0.000000
# 3 -0.001596 -0.004578 0.018728 0.000000 0.000000 0.000000
# 4 0.000000 0.000000 0.000000 0.028850 0.000000 0.000000
# 5 0.000000 0.000000 0.000000 0.000000 0.028101 0.000000
# 6 0.000000 0.000000 0.000000 0.000000 0.000000 1.199043
#
#
# Mechanical properties :
#
#
# Convention : Reuss Voigt Hill
#
# Bulk Modulus (GPa) = 48.01383 54.88889 51.45136
# Shear Modulus (GPa) = 3.77516 27.17908 15.47712
#
# Velocity S-wave (km/s) = 1.36379 3.65930 2.76138
# Velocity P-wave (km/s) = 5.11226 6.70048 5.95952
#
# Compressibility (1/GPa) = 0.02082733
#
# Stress axis : x y z
#
# Youngs Moduli (GPa) = 105.62815 77.07572 53.39616
#
# Poissons Ratio (x) = 0.30802 0.08524
# Poissons Ratio (y) = 0.42212 0.24447
# Poissons Ratio (z) = 0.16862 0.35288
#
# Static dielectric constant tensor:
#      x y z
#    x 3.923510 0.000000 0.000000 
#    y 0.000000 3.635600 0.000000 
#    z 0.000000 0.000000 3.928790 
# 
# 
# High freq. dielectric constant tensor:
#      x y z
#    x 1.814850 0.000000 0.000000 
#    y 0.000000 1.785470 0.000000 
#    z 0.000000 0.000000 1.792030 
# 
# From -- ./inp_files/31708.got.cif
#   From: 2010.03.12/outbox.cif.g09.slc.cpg/sg69_16_cif.got.tgz:31708.got - 2010.04.10 23:52:46.
