data_PCOD8285801
_publ_section_title
;
Structure prediction by ZEFSAII (Michael W. Deem and Ramdas Pophale) SiO2 
 PCOD8285801
Probable space group: F D D D
;
_chemical_formula_sum "Si O2"
_cell_formula_units_Z 240
_cell_length_a 20.839288
_cell_length_b 21.768976
_cell_length_c 28.589448
_cell_angle_alpha 90.000000
_cell_angle_beta 90.000000
_cell_angle_gamma 90.000000
_cell_volume 12969.601951
_symmetry_space_group_name_H-M "F D D D"
_symmetry_group_IT_number 70
_space_group.IT_coordinate_system_code '2'
_symmetry_cell_setting 'orthorhombic'
loop_
_space_group_symop_operation_xyz
x,y,z
1/4-x,1/4-y,z
x,1/4-y,1/4-z
1/4-x,y,1/4-z
-x,-y,-z
3/4+x,3/4+y,-z
-x,3/4+y,3/4+z
3/4+x,-y,3/4+z
x,1/2+y,1/2+z
1/4-x,3/4-y,1/2+z
x,3/4-y,3/4-z
1/4-x,1/2+y,3/4-z
-x,1/2-y,1/2-z
3/4+x,1/4+y,1/2-z
-x,1/4+y,1/4+z
3/4+x,1/2-y,1/4+z
1/2+x,y,1/2+z
3/4-x,1/4-y,1/2+z
1/2+x,1/4-y,3/4-z
3/4-x,y,3/4-z
1/2-x,-y,1/2-z
1/4+x,3/4+y,1/2-z
1/2-x,3/4+y,1/4+z
1/4+x,-y,1/4+z
1/2+x,1/2+y,z
3/4-x,3/4-y,z
1/2+x,3/4-y,1/4-z
3/4-x,1/2+y,1/4-z
1/2-x,1/2-y,-z
1/4+x,1/4+y,-z
1/2-x,1/4+y,3/4+z
1/4+x,1/2-y,3/4+z
loop_
_atom_site_type_symbol
_atom_site_label
_atom_site_fract_x
_atom_site_fract_y
_atom_site_fract_z
Si Si1 0.306843 0.680860 0.217697
Si Si2 0.845043 0.003421 0.420422
Si Si3 0.482660 0.583298 0.890243
Si Si4 0.043790 0.540907 0.837277
Si Si5 0.110873 0.859115 0.560605
Si Si6 0.581628 0.567927 0.758197
Si Si7 0.360614 0.125000 0.625000
Si Si8 0.910411 0.252969 0.104284
O O1 0.320634 0.754930 0.209434
O O2 0.356972 0.656056 0.255959
O O3 0.238081 0.663389 0.239361
O O4 0.316559 0.645288 0.168664
O O5 0.875000 0.972254 0.375000
O O6 0.770304 0.000460 0.407088
O O7 0.868469 0.072131 0.428655
O O8 0.867189 0.965873 0.465617
O O9 0.524418 0.637683 0.915317
O O10 0.419664 0.566610 0.920503
O O11 0.456824 0.599507 0.837857
O O12 0.530966 0.526164 0.886818
O O13 0.092982 0.533333 0.880019
O O14 0.625000 0.625000 0.774129
O O15 0.575884 0.521054 0.801069
O O16 0.407368 0.179844 0.608905
#
# Coordination Sequence:
#
# PCOD8285801 Si02
#       8
#    32  32  32  32  32  32  16  32
#     4  10  21  38  55  82 123 156 197 231 292 355
#     4  10  19  35  53  76 115 160 198 231 281 342
#     4  10  18  34  62  88 108 145 192 247 288 343
#     4   9  19  34  55  78 114 149 181 241 287 332
#     4  10  18  35  59  85 111 147 197 239 292 351
#     4  11  23  33  55  87 118 157 201 246 278 344
#     4  10  24  42  57  79 120 170 184 240 310 358
#     4  11  21  38  59  85 115 148 198 245 297 349
#
# _framework density 18.504809000000002
#
# number of rings (size 3 to 8) (size 9 to 14) (size 15 to 20)
#    0.000    1.867    4.000    2.000    0.000    3.467 
#    0.000    4.667    0.000    6.400    0.000    0.000 
#    0.000    0.000    0.000    0.000    0.000    0.000 
#
# Total GULP energy -743335.388307 kJ/mol
# GULP energy per Si atom -12388.923138 kJ/mol
# Density = 1.846269 g / cm^3
# Si number density = 18.504809 Si / 1000 Ang^3
#
#
#
# Elastic Constant Matrix: (Units=GPa)
#
#
# Indices 1 2 3 4 5 6 
#
# 1 73.4539 46.8921 38.3746 0.0000 0.0000 0.0000
# 2 46.8921 94.2373 38.5144 0.0000 0.0000 0.0000
# 3 38.3746 38.5144 125.6847 0.0000 0.0000 0.0000
# 4 0.0000 0.0000 0.0000 23.5071 0.0000 0.0000
# 5 0.0000 0.0000 0.0000 0.0000 22.0194 0.0000
# 6 0.0000 0.0000 0.0000 0.0000 0.0000 18.4221
#
#
#
# Elastic Compliance Matrix: (Units=1/GPa)
#
#
# Indices 1 2 3 4 5 6 
#
# 1 0.021384 -0.009114 -0.003736 0.000000 0.000000 0.000000
# 2 -0.009114 0.016015 -0.002125 0.000000 0.000000 0.000000
# 3 -0.003736 -0.002125 0.009748 0.000000 0.000000 0.000000
# 4 0.000000 0.000000 0.000000 0.042540 0.000000 0.000000
# 5 0.000000 0.000000 0.000000 0.000000 0.045414 0.000000
# 6 0.000000 0.000000 0.000000 0.000000 0.000000 0.054283
#
#
# Mechanical properties :
#
#
# Convention : Reuss Voigt Hill
#
# Bulk Modulus (GPa) = 58.14789 60.10423 59.12606
# Shear Modulus (GPa) = 22.21565 24.09605 23.15585
#
# Velocity S-wave (km/s) = 3.46863 3.61245 3.54127
# Velocity P-wave (km/s) = 6.89443 7.06757 6.98154
#
# Compressibility (1/GPa) = 0.01719753
#
# Stress axis : x y z
#
# Youngs Moduli (GPa) = 46.76421 62.44222 102.58130
#
# Poissons Ratio (x) = 0.56907 0.38327
# Poissons Ratio (y) = 0.42619 0.21798
# Poissons Ratio (z) = 0.17473 0.13269
#
# Static dielectric constant tensor:
#      x y z
#    x 3.559890 0.000000 0.000000 
#    y 0.000000 3.350410 0.000000 
#    z 0.000000 0.000000 3.613390 
# 
# 
# High freq. dielectric constant tensor:
#      x y z
#    x 1.719630 0.000000 0.000000 
#    y 0.000000 1.698010 0.000000 
#    z 0.000000 0.000000 1.717890 
# 
# From -- ./inp_files/67386.got.cif
#   From: 2010.03.12/outbox.cif.g09.slc.cpg/sg70_34_cif.got.tgz:67386.got - 2010.04.16 13:46:32.
