data_PCOD8285071
_publ_section_title
;
Structure prediction by ZEFSAII (Michael W. Deem and Ramdas Pophale) SiO2 
 PCOD8285071
Probable space group: F M M M
;
_chemical_formula_sum "Si O2"
_cell_formula_units_Z 176
_cell_length_a 18.461291
_cell_length_b 17.421278
_cell_length_c 25.584956
_cell_angle_alpha 90.000000
_cell_angle_beta 90.000000
_cell_angle_gamma 90.000000
_cell_volume 8228.615198
_symmetry_space_group_name_H-M "F M M M"
_symmetry_group_IT_number 69
_symmetry_cell_setting 'orthorhombic'
loop_
_space_group_symop_operation_xyz
x,y,z
-x,-y,z
x,-y,-z
-x,y,-z
-x,-y,-z
x,y,-z
-x,y,z
x,-y,z
x,1/2+y,1/2+z
-x,1/2-y,1/2+z
x,1/2-y,1/2-z
-x,1/2+y,1/2-z
-x,1/2-y,1/2-z
x,1/2+y,1/2-z
-x,1/2+y,1/2+z
x,1/2-y,1/2+z
1/2+x,y,1/2+z
1/2-x,-y,1/2+z
1/2+x,-y,1/2-z
1/2-x,y,1/2-z
1/2-x,-y,1/2-z
1/2+x,y,1/2-z
1/2-x,y,1/2+z
1/2+x,-y,1/2+z
1/2+x,1/2+y,z
1/2-x,1/2-y,z
1/2+x,1/2-y,-z
1/2-x,1/2+y,-z
1/2-x,1/2-y,-z
1/2+x,1/2+y,-z
1/2-x,1/2+y,z
1/2+x,1/2-y,z
loop_
_atom_site_type_symbol
_atom_site_label
_atom_site_fract_x
_atom_site_fract_y
_atom_site_fract_z
Si Si1 0.824807 0.907680 0.115690
Si Si2 0.668652 0.917908 0.734997
Si Si3 0.179247 0.636556 0.059360
Si Si4 0.077790 0.305958 0.202213
Si Si5 0.580115 0.500000 0.562083
Si Si6 0.585209 0.729111 0.906254
O O1 0.835013 0.885519 0.176355
O O2 0.749823 0.870731 0.095539
O O3 0.890012 0.860231 0.087604
O O4 0.829069 0.000000 0.104804
O O5 0.750000 0.930351 0.750000
O O6 0.636371 0.867986 0.781569
O O7 0.628037 0.000000 0.735532
O O8 0.121742 0.575330 0.081904
O O9 0.138443 0.718745 0.058377
O O10 0.202732 0.617187 0.000000
O O11 0.068966 0.250000 0.250000
O O12 0.101974 0.258275 0.152008
O O13 0.000000 0.345864 0.191471
O O14 0.500000 0.500000 0.586930
O O15 0.574880 0.500000 0.500000
O O16 0.500000 0.735953 0.921927
#
# Coordination Sequence:
#
# PCOD8285071 Si02
#       6
#    32  32  32  32  16  32
#     4  11  23  40  63  92 125 166 214 261 314 380
#     4  10  21  36  57  86 120 159 205 256 307 370
#     4  11  23  42  66  92 125 163 206 260 323 385
#     4  10  20  38  60  85 120 162 207 255 309 366
#     4   9  18  36  64  92 118 155 201 251 313 378
#     4  11  24  41  63  94 129 167 215 265 316 380
#
# _framework density 21.388774999999999
#
# number of rings (size 3 to 8) (size 9 to 14) (size 15 to 20)
#    0.000    1.545    2.727    2.182    0.000    3.636 
#    1.636    1.818    0.000    0.000    0.000    2.545 
#    0.000    0.000    0.000    0.000    0.000    0.000 
#
# Total GULP energy -545207.928114 kJ/mol
# GULP energy per Si atom -12391.089275 kJ/mol
# Density = 2.134009 g / cm^3
# Si number density = 21.388775 Si / 1000 Ang^3
#
#
#
# Elastic Constant Matrix: (Units=GPa)
#
#
# Indices 1 2 3 4 5 6 
#
# 1 111.6193 57.6803 16.6046 0.0000 0.0000 0.0000
# 2 57.6803 118.2582 12.6956 0.0000 0.0000 0.0000
# 3 16.6046 12.6956 47.0180 0.0000 0.0000 0.0000
# 4 0.0000 0.0000 0.0000 -29.6110 0.0000 0.0000
# 5 0.0000 0.0000 0.0000 0.0000 25.2003 0.0000
# 6 0.0000 0.0000 0.0000 0.0000 0.0000 48.0812
#
#
#
# Elastic Compliance Matrix: (Units=1/GPa)
#
#
# Indices 1 2 3 4 5 6 
#
# 1 0.012329 -0.005711 -0.002812 0.000000 0.000000 0.000000
# 2 -0.005711 0.011354 -0.001049 0.000000 0.000000 0.000000
# 3 -0.002812 -0.001049 0.022545 0.000000 0.000000 0.000000
# 4 0.000000 0.000000 0.000000 -0.033771 0.000000 0.000000
# 5 0.000000 0.000000 0.000000 0.000000 0.039682 0.000000
# 6 0.000000 0.000000 0.000000 0.000000 0.000000 0.020798
#
#
# Mechanical properties :
#
#
# Convention : Reuss Voigt Hill
#
# Bulk Modulus (GPa) = 36.92261 50.09516 43.50889
# Shear Modulus (GPa) = 49.45159 21.39509 35.42334
#
# Velocity S-wave (km/s) = 4.81358 3.16618 4.07402
# Velocity P-wave (km/s) = 6.94220 6.06946 6.52045
#
# Compressibility (1/GPa) = 0.02708368
#
# Stress axis : x y z
#
# Youngs Moduli (GPa) = 81.11110 88.07123 44.35644
#
# Poissons Ratio (x) = 0.50302 0.12472
# Poissons Ratio (y) = 0.46327 0.04652
# Poissons Ratio (z) = 0.22806 0.09237
#
# Static dielectric constant tensor:
#      x y z
#    x 4.083990 0.000000 0.000000 
#    y 0.000000 4.147010 0.000000 
#    z 0.000000 0.000000 4.359020 
# 
# 
# High freq. dielectric constant tensor:
#      x y z
#    x 1.837770 0.000000 0.000000 
#    y 0.000000 1.841190 0.000000 
#    z 0.000000 0.000000 1.831040 
# 
# From -- ./inp_files/27664.got.cif
#   From: 2010.03.12/outbox.cif.g09.slc.cpg/sg69_14_cif.got.tgz:27664.got - 2010.04.10 23:52:46.
