data_PCOD8285940
_publ_section_title
;
Structure prediction by ZEFSAII (Michael W. Deem and Ramdas Pophale) SiO2 
 PCOD8285940
Probable space group: F D D D
;
_chemical_formula_sum "Si O2"
_cell_formula_units_Z 160
_cell_length_a 27.680536
_cell_length_b 15.381937
_cell_length_c 19.236691
_cell_angle_alpha 90.000000
_cell_angle_beta 90.000000
_cell_angle_gamma 90.000000
_cell_volume 8190.603312
_symmetry_space_group_name_H-M "F D D D"
_symmetry_group_IT_number 70
_space_group.IT_coordinate_system_code '2'
_symmetry_cell_setting 'orthorhombic'
loop_
_space_group_symop_operation_xyz
x,y,z
1/4-x,1/4-y,z
x,1/4-y,1/4-z
1/4-x,y,1/4-z
-x,-y,-z
3/4+x,3/4+y,-z
-x,3/4+y,3/4+z
3/4+x,-y,3/4+z
x,1/2+y,1/2+z
1/4-x,3/4-y,1/2+z
x,3/4-y,3/4-z
1/4-x,1/2+y,3/4-z
-x,1/2-y,1/2-z
3/4+x,1/4+y,1/2-z
-x,1/4+y,1/4+z
3/4+x,1/2-y,1/4+z
1/2+x,y,1/2+z
3/4-x,1/4-y,1/2+z
1/2+x,1/4-y,3/4-z
3/4-x,y,3/4-z
1/2-x,-y,1/2-z
1/4+x,3/4+y,1/2-z
1/2-x,3/4+y,1/4+z
1/4+x,-y,1/4+z
1/2+x,1/2+y,z
3/4-x,3/4-y,z
1/2+x,3/4-y,1/4-z
3/4-x,1/2+y,1/4-z
1/2-x,1/2-y,-z
1/4+x,1/4+y,-z
1/2-x,1/4+y,3/4+z
1/4+x,1/2-y,3/4+z
loop_
_atom_site_type_symbol
_atom_site_label
_atom_site_fract_x
_atom_site_fract_y
_atom_site_fract_z
Si Si1 0.026919 0.146254 0.873214
Si Si2 0.902286 0.291048 0.740755
Si Si3 0.427423 0.694934 0.563215
Si Si4 0.577981 0.890869 0.082545
Si Si5 0.582604 0.470530 0.874354
O O1 0.048990 0.182166 0.800665
O O2 0.041827 0.216299 0.931268
O O3 0.969431 0.138284 0.879898
O O4 0.046142 0.048945 0.887429
O O5 0.875000 0.375000 0.766961
O O6 0.914368 0.240545 0.810795
O O7 0.866067 0.232424 0.694302
O O8 0.440341 0.625000 0.625000
O O9 0.437264 0.660509 0.486565
O O10 0.370998 0.720310 0.563128
O O11 0.625000 0.855868 0.125000
O O12 0.556460 0.375000 0.875000
#
# Coordination Sequence:
#
# PCOD8285940 Si02
#       5
#    32  32  32  32  32
#     4  10  21  36  65  91 117 165 211 243 306 383
#     4   9  18  35  60  91 121 157 200 244 313 383
#     4  10  19  39  64  85 123 169 197 248 312 376
#     4  12  24  38  57  94 134 154 201 268 310 351
#     4   9  16  36  68  86 109 163 215 247 295 380
#
# _framework density 19.534580999999999
#
# number of rings (size 3 to 8) (size 9 to 14) (size 15 to 20)
#    0.000    2.000    6.000    2.400    0.000    3.600 
#    0.000    1.000    4.400    0.000    0.000    0.000 
#    0.000    0.000    0.000    0.000    0.000    0.000 
#
# Total GULP energy -495553.563420 kJ/mol
# GULP energy per Si atom -12388.839086 kJ/mol
# Density = 1.949012 g / cm^3
# Si number density = 19.534581 Si / 1000 Ang^3
#
#
#
# Elastic Constant Matrix: (Units=GPa)
#
#
# Indices 1 2 3 4 5 6 
#
# 1 120.7872 62.1999 23.3274 0.0000 0.0000 0.0000
# 2 62.1999 161.9785 37.0254 0.0000 0.0000 0.0000
# 3 23.3274 37.0254 51.7273 0.0000 0.0000 0.0000
# 4 0.0000 0.0000 0.0000 21.5128 0.0000 0.0000
# 5 0.0000 0.0000 0.0000 0.0000 14.9551 0.0000
# 6 0.0000 0.0000 0.0000 0.0000 0.0000 16.3840
#
#
#
# Elastic Compliance Matrix: (Units=1/GPa)
#
#
# Indices 1 2 3 4 5 6 
#
# 1 0.010528 -0.003536 -0.002217 0.000000 0.000000 0.000000
# 2 -0.003536 0.008569 -0.004539 0.000000 0.000000 0.000000
# 3 -0.002217 -0.004539 0.023581 0.000000 0.000000 0.000000
# 4 0.000000 0.000000 0.000000 0.046484 0.000000 0.000000
# 5 0.000000 0.000000 0.000000 0.000000 0.066867 0.000000
# 6 0.000000 0.000000 0.000000 0.000000 0.000000 0.061035
#
#
# Mechanical properties :
#
#
# Convention : Reuss Voigt Hill
#
# Bulk Modulus (GPa) = 45.26052 64.39981 54.83016
# Shear Modulus (GPa) = 20.40719 24.69975 22.55347
#
# Velocity S-wave (km/s) = 3.23564 3.55971 3.40154
# Velocity P-wave (km/s) = 6.09745 7.06640 6.59973
#
# Compressibility (1/GPa) = 0.02209431
#
# Stress axis : x y z
#
# Youngs Moduli (GPa) = 94.98434 116.69945 42.40763
#
# Poissons Ratio (x) = 0.41266 0.09401
# Poissons Ratio (y) = 0.33587 0.19248
# Poissons Ratio (z) = 0.21056 0.52968
#
# Static dielectric constant tensor:
#      x y z
#    x 3.439990 0.000000 0.000000 
#    y 0.000000 3.878110 0.000000 
#    z 0.000000 0.000000 3.194640 
# 
# 
# High freq. dielectric constant tensor:
#      x y z
#    x 1.745290 0.000000 0.000000 
#    y 0.000000 1.773870 0.000000 
#    z 0.000000 0.000000 1.719050 
# 
# From -- ./inp_files/38430.got.cif
#   From: 2010.03.12/outbox.cif.g09.slc.cpg/sg70_20_cif.got.tgz:38430.got - 2010.04.16 13:46:32.
