data_PCOD8285481
_publ_section_title
;
Structure prediction by ZEFSAII (Michael W. Deem and Ramdas Pophale) SiO2 
 PCOD8285481
Probable space group: F M M M
;
_chemical_formula_sum "Si O2"
_cell_formula_units_Z 192
_cell_length_a 28.620018
_cell_length_b 27.759571
_cell_length_c 11.193683
_cell_angle_alpha 90.000000
_cell_angle_beta 90.000000
_cell_angle_gamma 90.000000
_cell_volume 8893.150796
_symmetry_space_group_name_H-M "F M M M"
_symmetry_group_IT_number 69
_symmetry_cell_setting 'orthorhombic'
loop_
_space_group_symop_operation_xyz
x,y,z
-x,-y,z
x,-y,-z
-x,y,-z
-x,-y,-z
x,y,-z
-x,y,z
x,-y,z
x,1/2+y,1/2+z
-x,1/2-y,1/2+z
x,1/2-y,1/2-z
-x,1/2+y,1/2-z
-x,1/2-y,1/2-z
x,1/2+y,1/2-z
-x,1/2+y,1/2+z
x,1/2-y,1/2+z
1/2+x,y,1/2+z
1/2-x,-y,1/2+z
1/2+x,-y,1/2-z
1/2-x,y,1/2-z
1/2-x,-y,1/2-z
1/2+x,y,1/2-z
1/2-x,y,1/2+z
1/2+x,-y,1/2+z
1/2+x,1/2+y,z
1/2-x,1/2-y,z
1/2+x,1/2-y,-z
1/2-x,1/2+y,-z
1/2-x,1/2-y,-z
1/2+x,1/2+y,-z
1/2-x,1/2+y,z
1/2+x,1/2-y,z
loop_
_atom_site_type_symbol
_atom_site_label
_atom_site_fract_x
_atom_site_fract_y
_atom_site_fract_z
Si Si1 0.915849 0.554703 0.000000
Si Si2 0.150740 0.780600 0.636102
Si Si3 0.948327 0.315637 0.866355
Si Si4 0.051295 0.586785 0.249051
Si Si5 0.357304 0.553371 0.138358
Si Si6 0.799130 0.123035 0.706056
Si Si7 0.688841 0.442855 0.500000
O O1 0.945374 0.565614 0.883265
O O2 0.901536 0.500000 0.000000
O O3 0.864228 0.578413 0.000000
O O4 0.164559 0.761988 0.500000
O O5 0.170867 0.750000 0.750000
O O6 0.094232 0.778205 0.646993
O O7 0.169994 0.834660 0.648713
O O8 0.942055 0.355821 0.764484
O O9 0.000000 0.290911 0.852458
O O10 0.944846 0.339177 0.000000
O O11 0.088283 0.564081 0.338807
O O12 0.000000 0.574762 0.300393
O O13 0.345599 0.500000 0.193346
O O14 0.327481 0.597157 0.189171
O O15 0.347263 0.551849 0.000000
O O16 0.750000 0.145170 0.750000
O O17 0.786387 0.080405 0.614375
O O18 0.696131 0.500000 0.500000
#
# Coordination Sequence:
#
# PCOD8285481 Si02
#       7
#    16  32  32  32  32  32  16
#     4  11  19  30  53  90 129 162 209 270 323 381
#     4  11  24  46  73 103 137 175 223 279 340 407
#     4   9  17  34  63  95 129 166 207 263 330 396
#     4  11  20  34  58  89 127 172 218 265 323 392
#     4  11  25  42  60  89 132 179 226 275 331 403
#     4  12  26  46  70  97 130 173 221 284 344 402
#     4  11  22  41  72 102 133 172 216 274 344 398
#
# _framework density 21.589649000000001
#
# number of rings (size 3 to 8) (size 9 to 14) (size 15 to 20)
#    0.000    1.167    5.000    1.250    1.167    4.667 
#    0.000    1.667    0.000    0.000    0.000    0.000 
#    0.000    0.000    0.000    0.000    0.000    0.000 
#
# Total GULP energy -594792.701589 kJ/mol
# GULP energy per Si atom -12391.514616 kJ/mol
# Density = 2.154051 g / cm^3
# Si number density = 21.589649 Si / 1000 Ang^3
#
#
#
# Elastic Constant Matrix: (Units=GPa)
#
#
# Indices 1 2 3 4 5 6 
#
# 1 90.0829 10.5707 18.2230 -0.0016 0.0004 0.0002
# 2 10.5707 72.3057 40.0510 -0.0004 0.0011 0.0004
# 3 18.2230 40.0510 98.3279 -0.0049 0.0050 0.0001
# 4 -0.0016 -0.0004 -0.0049 33.5487 0.0013 -0.0001
# 5 0.0004 0.0011 0.0050 0.0013 17.2816 0.0004
# 6 0.0002 0.0004 0.0001 -0.0001 0.0004 14.1075
#
#
#
# Elastic Compliance Matrix: (Units=1/GPa)
#
#
# Indices 1 2 3 4 5 6 
#
# 1 0.011557 -0.000650 -0.001877 0.000000 0.000000 0.000000
# 2 -0.000650 0.017896 -0.007169 -0.000001 0.000001 0.000000
# 3 -0.001877 -0.007169 0.013438 0.000002 -0.000003 0.000000
# 4 0.000000 -0.000001 0.000002 0.029807 -0.000002 0.000000
# 5 0.000000 0.000001 -0.000003 -0.000002 0.057865 -0.000002
# 6 0.000000 0.000000 0.000000 0.000000 -0.000002 0.070884
#
#
# Mechanical properties :
#
#
# Convention : Reuss Voigt Hill
#
# Bulk Modulus (GPa) = 42.55479 44.26733 43.41106
# Shear Modulus (GPa) = 21.86526 25.77899 23.82213
#
# Velocity S-wave (km/s) = 3.18585 3.45924 3.32536
# Velocity P-wave (km/s) = 5.76944 6.04182 5.90720
#
# Compressibility (1/GPa) = 0.02349912
#
# Stress axis : x y z
#
# Youngs Moduli (GPa) = 86.52867 55.87773 74.41546
#
# Poissons Ratio (x) = 0.03631 0.13969
# Poissons Ratio (y) = 0.05622 0.53349
# Poissons Ratio (z) = 0.16243 0.40059
#
# Static dielectric constant tensor:
#      x y z
#    x 3.938080 0.000000 0.000000 
#    y 0.000000 3.673830 0.000000 
#    z 0.000000 0.000000 3.772980 
# 
# 
# High freq. dielectric constant tensor:
#      x y z
#    x 1.848760 0.000000 0.000000 
#    y 0.000000 1.826690 0.000000 
#    z 0.000000 0.000000 1.837510 
# 
# From -- ./inp_files/12428.got.cif
#   From: 2010.03.12/outbox.cif.g09.slc.cpg/sg69_7_cif.got.tgz:12428.got - 2010.04.10 23:52:46.
