data_PCOD8285793
_publ_section_title
;
Structure prediction by ZEFSAII (Michael W. Deem and Ramdas Pophale) SiO2 
 PCOD8285793
Probable space group: F D D D
;
_chemical_formula_sum "Si O2"
_cell_formula_units_Z 160
_cell_length_a 12.392116
_cell_length_b 24.704489
_cell_length_c 25.530384
_cell_angle_alpha 90.000000
_cell_angle_beta 90.000000
_cell_angle_gamma 90.000000
_cell_volume 7815.894567
_symmetry_space_group_name_H-M "F D D D"
_symmetry_group_IT_number 70
_space_group.IT_coordinate_system_code '2'
_symmetry_cell_setting 'orthorhombic'
loop_
_space_group_symop_operation_xyz
x,y,z
1/4-x,1/4-y,z
x,1/4-y,1/4-z
1/4-x,y,1/4-z
-x,-y,-z
3/4+x,3/4+y,-z
-x,3/4+y,3/4+z
3/4+x,-y,3/4+z
x,1/2+y,1/2+z
1/4-x,3/4-y,1/2+z
x,3/4-y,3/4-z
1/4-x,1/2+y,3/4-z
-x,1/2-y,1/2-z
3/4+x,1/4+y,1/2-z
-x,1/4+y,1/4+z
3/4+x,1/2-y,1/4+z
1/2+x,y,1/2+z
3/4-x,1/4-y,1/2+z
1/2+x,1/4-y,3/4-z
3/4-x,y,3/4-z
1/2-x,-y,1/2-z
1/4+x,3/4+y,1/2-z
1/2-x,3/4+y,1/4+z
1/4+x,-y,1/4+z
1/2+x,1/2+y,z
3/4-x,3/4-y,z
1/2+x,3/4-y,1/4-z
3/4-x,1/2+y,1/4-z
1/2-x,1/2-y,-z
1/4+x,1/4+y,-z
1/2-x,1/4+y,3/4+z
1/4+x,1/2-y,3/4+z
loop_
_atom_site_type_symbol
_atom_site_label
_atom_site_fract_x
_atom_site_fract_y
_atom_site_fract_z
Si Si1 0.693260 0.278251 0.674933
Si Si2 0.067601 0.397665 0.042250
Si Si3 0.250076 0.519084 0.472485
Si Si4 0.299943 0.295843 0.462972
Si Si5 0.563940 0.522843 0.389346
O O1 0.625000 0.256910 0.625000
O O2 0.651885 0.337473 0.690991
O O3 0.678834 0.237872 0.724660
O O4 0.819778 0.280271 0.664132
O O5 0.177688 0.426997 0.024416
O O6 0.013333 0.427958 0.091976
O O7 0.985556 0.398065 0.991314
O O8 0.321917 0.464525 0.462299
O O9 0.170677 0.524244 0.423025
O O10 0.250000 0.250000 0.500000
O O11 0.243027 0.284422 0.406642
#
# Coordination Sequence:
#
# PCOD8285793 Si02
#       5
#    32  32  32  32  32
#     4  12  23  34  54  87 115 155 206 236 286 358
#     4  10  18  35  59  85 112 148 193 253 294 341
#     4  10  19  35  55  84 114 153 192 239 302 347
#     4   8  14  31  56  78 108 147 180 231 305 340
#     4  10  18  34  57  79 116 149 186 242 303 342
#
# _framework density 20.471105000000001
#
# number of rings (size 3 to 8) (size 9 to 14) (size 15 to 20)
#    0.000    2.400    6.000    4.200    0.000    0.800 
#    0.000    1.000    0.000    4.800    0.000    0.000 
#    0.000    0.000    0.000    0.000    0.000    0.000 
#
# Total GULP energy -495563.375217 kJ/mol
# GULP energy per Si atom -12389.084380 kJ/mol
# Density = 2.042451 g / cm^3
# Si number density = 20.471105 Si / 1000 Ang^3
#
#
#
# Elastic Constant Matrix: (Units=GPa)
#
#
# Indices 1 2 3 4 5 6 
#
# 1 27.6662 13.4072 28.6883 0.0000 0.0000 0.0000
# 2 13.4072 41.4338 42.1376 0.0000 0.0000 0.0000
# 3 28.6883 42.1376 139.6606 0.0000 0.0000 0.0000
# 4 0.0000 0.0000 0.0000 21.4460 0.0000 0.0000
# 5 0.0000 0.0000 0.0000 0.0000 39.2094 0.0000
# 6 0.0000 0.0000 0.0000 0.0000 0.0000 13.1136
#
#
#
# Elastic Compliance Matrix: (Units=1/GPa)
#
#
# Indices 1 2 3 4 5 6 
#
# 1 0.047648 -0.007883 -0.007409 0.000000 0.000000 0.000000
# 2 -0.007883 0.036123 -0.009279 0.000000 0.000000 0.000000
# 3 -0.007409 -0.009279 0.011482 0.000000 0.000000 0.000000
# 4 0.000000 0.000000 0.000000 0.046629 0.000000 0.000000
# 5 0.000000 0.000000 0.000000 0.000000 0.025504 0.000000
# 6 0.000000 0.000000 0.000000 0.000000 0.000000 0.076257
#
#
# Mechanical properties :
#
#
# Convention : Reuss Voigt Hill
#
# Bulk Modulus (GPa) = 21.68747 41.91408 31.80078
# Shear Modulus (GPa) = 16.22553 23.05562 19.64058
#
# Velocity S-wave (km/s) = 2.81838 3.35961 3.10083
# Velocity P-wave (km/s) = 4.60524 5.96393 5.32807
#
# Compressibility (1/GPa) = 0.04610957
#
# Stress axis : x y z
#
# Youngs Moduli (GPa) = 20.98707 27.68330 87.09337
#
# Poissons Ratio (x) = 0.21823 0.64529
# Poissons Ratio (y) = 0.16544 0.80818
# Poissons Ratio (z) = 0.15550 0.25689
#
# Static dielectric constant tensor:
#      x y z
#    x 3.487820 0.000000 0.000000 
#    y 0.000000 3.520330 0.000000 
#    z 0.000000 0.000000 4.422880 
# 
# 
# High freq. dielectric constant tensor:
#      x y z
#    x 1.773800 0.000000 0.000000 
#    y 0.000000 1.749770 0.000000 
#    z 0.000000 0.000000 1.809090 
# 
# From -- ./inp_files/22383.got.cif
#   From: 2010.03.12/outbox.cif.g09.slc.cpg/sg70_12_cif.got.tgz:22383.got - 2010.04.16 13:46:32.
