data_PCOD8285785
_publ_section_title
;
Structure prediction by ZEFSAII (Michael W. Deem and Ramdas Pophale) SiO2 
 PCOD8285785
Probable space group: F D D D
;
_chemical_formula_sum "Si O2"
_cell_formula_units_Z 176
_cell_length_a 27.511273
_cell_length_b 18.007108
_cell_length_c 19.236650
_cell_angle_alpha 90.000000
_cell_angle_beta 90.000000
_cell_angle_gamma 90.000000
_cell_volume 9529.806865
_symmetry_space_group_name_H-M "F D D D"
_symmetry_group_IT_number 70
_space_group.IT_coordinate_system_code '2'
_symmetry_cell_setting 'orthorhombic'
loop_
_space_group_symop_operation_xyz
x,y,z
1/4-x,1/4-y,z
x,1/4-y,1/4-z
1/4-x,y,1/4-z
-x,-y,-z
3/4+x,3/4+y,-z
-x,3/4+y,3/4+z
3/4+x,-y,3/4+z
x,1/2+y,1/2+z
1/4-x,3/4-y,1/2+z
x,3/4-y,3/4-z
1/4-x,1/2+y,3/4-z
-x,1/2-y,1/2-z
3/4+x,1/4+y,1/2-z
-x,1/4+y,1/4+z
3/4+x,1/2-y,1/4+z
1/2+x,y,1/2+z
3/4-x,1/4-y,1/2+z
1/2+x,1/4-y,3/4-z
3/4-x,y,3/4-z
1/2-x,-y,1/2-z
1/4+x,3/4+y,1/2-z
1/2-x,3/4+y,1/4+z
1/4+x,-y,1/4+z
1/2+x,1/2+y,z
3/4-x,3/4-y,z
1/2+x,3/4-y,1/4-z
3/4-x,1/2+y,1/4-z
1/2-x,1/2-y,-z
1/4+x,1/4+y,-z
1/2-x,1/4+y,3/4+z
1/4+x,1/2-y,3/4+z
loop_
_atom_site_type_symbol
_atom_site_label
_atom_site_fract_x
_atom_site_fract_y
_atom_site_fract_z
Si Si1 0.650719 0.519255 0.370205
Si Si2 0.962250 0.773450 0.136579
Si Si3 0.780110 0.449182 0.480563
Si Si4 0.765091 0.375000 0.875000
Si Si5 0.790197 0.125000 0.625000
Si Si6 0.778980 0.909759 0.524545
Si Si7 0.625000 0.625000 0.254599
O O1 0.595063 0.511235 0.390077
O O2 0.675281 0.441570 0.351041
O O3 0.674713 0.556338 0.437293
O O4 0.657547 0.570947 0.302712
O O5 0.983195 0.829131 0.194560
O O6 0.982816 0.692679 0.152213
O O7 0.977722 0.809072 0.062949
O O8 0.743019 0.395711 0.440730
O O9 0.768098 0.536015 0.463595
O O10 0.835788 0.424079 0.460234
O O11 0.794663 0.347772 0.806923
#
# Coordination Sequence:
#
# PCOD8285785 Si02
#       7
#    32  32  32  16  16  32  16
#     4  10  18  34  57  75 105 145 185 213 264 324
#     4  10  18  36  55  79 109 147 180 220 264 330
#     4   9  20  33  54  79 108 138 184 221 269 327
#     4  10  21  30  55  86 107 135 182 227 274 311
#     4  10  21  33  52  88 105 135 184 234 263 311
#     4  10  18  34  53  81 107 141 179 224 268 321
#     4  10  18  37  56  75 104 152 178 218 274 329
#
# _framework density 18.46837
#
# number of rings (size 3 to 8) (size 9 to 14) (size 15 to 20)
#    0.000    2.182    3.636    1.091    0.000    1.091 
#    0.000    1.818    0.000    0.000    4.727    0.000 
#    0.000    0.000    0.000    0.000    0.000    0.000 
#
# Total GULP energy -545253.369100 kJ/mol
# GULP energy per Si atom -12392.122025 kJ/mol
# Density = 1.842634 g / cm^3
# Si number density = 18.468370 Si / 1000 Ang^3
#
#
#
# Elastic Constant Matrix: (Units=GPa)
#
#
# Indices 1 2 3 4 5 6 
#
# 1 96.0622 56.3501 51.5722 0.0000 0.0000 0.0000
# 2 56.3501 138.5466 54.0279 0.0000 0.0000 0.0000
# 3 51.5722 54.0279 78.0298 0.0000 0.0000 0.0000
# 4 0.0000 0.0000 0.0000 26.9242 0.0000 0.0000
# 5 0.0000 0.0000 0.0000 0.0000 27.0275 0.0000
# 6 0.0000 0.0000 0.0000 0.0000 0.0000 26.8376
#
#
#
# Elastic Compliance Matrix: (Units=1/GPa)
#
#
# Indices 1 2 3 4 5 6 
#
# 1 0.017312 -0.003533 -0.008996 0.000000 0.000000 0.000000
# 2 -0.003533 0.010609 -0.005010 0.000000 0.000000 0.000000
# 3 -0.008996 -0.005010 0.022230 0.000000 0.000000 0.000000
# 4 0.000000 0.000000 0.000000 0.037141 0.000000 0.000000
# 5 0.000000 0.000000 0.000000 0.000000 0.036999 0.000000
# 6 0.000000 0.000000 0.000000 0.000000 0.000000 0.037261
#
#
# Mechanical properties :
#
#
# Convention : Reuss Voigt Hill
#
# Bulk Modulus (GPa) = 66.34519 70.72657 68.53588
# Shear Modulus (GPa) = 24.79489 26.20376 25.49932
#
# Velocity S-wave (km/s) = 3.66807 3.77084 3.71981
# Velocity P-wave (km/s) = 7.34448 7.57220 7.45921
#
# Compressibility (1/GPa) = 0.01507268
#
# Stress axis : x y z
#
# Youngs Moduli (GPa) = 57.76385 94.26292 44.98409
#
# Poissons Ratio (x) = 0.33305 0.40465
# Poissons Ratio (y) = 0.20409 0.22538
# Poissons Ratio (z) = 0.51962 0.47228
#
# Static dielectric constant tensor:
#      x y z
#    x 3.336290 0.000000 0.000000 
#    y 0.000000 3.750860 0.000000 
#    z 0.000000 0.000000 3.382260 
# 
# 
# High freq. dielectric constant tensor:
#      x y z
#    x 1.696270 0.000000 0.000000 
#    y 0.000000 1.735080 0.000000 
#    z 0.000000 0.000000 1.707060 
# 
# From -- ./inp_files/35298.got.cif
#   From: 2010.03.12/outbox.cif.g09.slc.cpg/sg70_18_cif.got.tgz:35298.got - 2010.04.16 13:46:32.
