data_PCOD8285094
_publ_section_title
;
Structure prediction by ZEFSAII (Michael W. Deem and Ramdas Pophale) SiO2 
 PCOD8285094
Probable space group: F M M M
;
_chemical_formula_sum "Si O2"
_cell_formula_units_Z 144
_cell_length_a 28.890341
_cell_length_b 24.917820
_cell_length_c 10.396919
_cell_angle_alpha 90.000000
_cell_angle_beta 90.000000
_cell_angle_gamma 90.000000
_cell_volume 7484.578931
_symmetry_space_group_name_H-M "F M M M"
_symmetry_group_IT_number 69
_symmetry_cell_setting 'orthorhombic'
loop_
_space_group_symop_operation_xyz
x,y,z
-x,-y,z
x,-y,-z
-x,y,-z
-x,-y,-z
x,y,-z
-x,y,z
x,-y,z
x,1/2+y,1/2+z
-x,1/2-y,1/2+z
x,1/2-y,1/2-z
-x,1/2+y,1/2-z
-x,1/2-y,1/2-z
x,1/2+y,1/2-z
-x,1/2+y,1/2+z
x,1/2-y,1/2+z
1/2+x,y,1/2+z
1/2-x,-y,1/2+z
1/2+x,-y,1/2-z
1/2-x,y,1/2-z
1/2-x,-y,1/2-z
1/2+x,y,1/2-z
1/2-x,y,1/2+z
1/2+x,-y,1/2+z
1/2+x,1/2+y,z
1/2-x,1/2-y,z
1/2+x,1/2-y,-z
1/2-x,1/2+y,-z
1/2-x,1/2-y,-z
1/2+x,1/2+y,-z
1/2-x,1/2+y,z
1/2+x,1/2-y,z
loop_
_atom_site_type_symbol
_atom_site_label
_atom_site_fract_x
_atom_site_fract_y
_atom_site_fract_z
Si Si1 0.552608 0.876049 0.000000
Si Si2 0.853846 0.435504 0.000000
Si Si3 0.143061 0.296863 0.644387
Si Si4 0.194916 0.895918 0.245445
Si Si5 0.711681 0.000000 0.639941
Si Si6 0.549632 0.813292 0.739908
O O1 0.560731 0.838022 0.878390
O O2 0.500000 0.900154 0.000000
O O3 0.590875 0.923427 0.000000
O O4 0.829201 0.406110 0.881454
O O5 0.846638 0.500000 0.000000
O O6 0.152480 0.274743 0.500000
O O7 0.145973 0.250000 0.750000
O O8 0.180650 0.340898 0.679323
O O9 0.092616 0.325975 0.646497
O O10 0.250000 0.893155 0.250000
O O11 0.180460 0.946688 0.155791
O O12 0.750000 0.000000 0.750000
O O13 0.735893 0.000000 0.500000
O O14 0.500000 0.835773 0.687413
O O15 0.545403 0.750000 0.750000
#
# Coordination Sequence:
#
# PCOD8285094 Si02
#       6
#    16  16  32  32  16  32
#     4  10  20  39  62  91 129 162 203 262 314 374
#     4  12  24  41  66  98 120 165 212 260 322 380
#     4  11  25  41  60  88 123 164 206 254 311 377
#     4  11  25  39  63  88 125 158 209 260 311 369
#     4  10  22  38  62  88 116 151 203 265 319 364
#     4   9  19  33  57  87 118 155 197 247 305 361
#
# _framework density 19.239557999999999
#
# number of rings (size 3 to 8) (size 9 to 14) (size 15 to 20)
#    0.000    1.556    3.333    0.667   15.556    1.111 
#    0.000    1.111    0.000    0.000    0.000    0.000 
#    0.000    7.111    0.000    0.000    0.000    0.000 
#
# Total GULP energy -445990.399345 kJ/mol
# GULP energy per Si atom -12388.622204 kJ/mol
# Density = 1.919577 g / cm^3
# Si number density = 19.239558 Si / 1000 Ang^3
#
#
#
# Elastic Constant Matrix: (Units=GPa)
#
#
# Indices 1 2 3 4 5 6 
#
# 1 118.0240 46.0021 36.5570 -0.0016 -0.0002 0.0004
# 2 46.0021 90.4966 49.3439 -0.0032 -0.0021 0.0010
# 3 36.5570 49.3439 147.6873 -0.0083 -0.0068 0.0026
# 4 -0.0016 -0.0032 -0.0083 24.8793 -0.0054 0.0018
# 5 -0.0002 -0.0021 -0.0068 -0.0054 161.0390 0.0009
# 6 0.0004 0.0010 0.0026 0.0018 0.0009 21.3455
#
#
#
# Elastic Compliance Matrix: (Units=1/GPa)
#
#
# Indices 1 2 3 4 5 6 
#
# 1 0.010689 -0.004880 -0.001015 0.000000 0.000000 0.000000
# 2 -0.004880 0.015740 -0.004051 0.000000 0.000000 0.000000
# 3 -0.001015 -0.004051 0.008376 0.000002 0.000000 -0.000001
# 4 0.000000 0.000000 0.000002 0.040194 0.000001 -0.000003
# 5 0.000000 0.000000 0.000000 0.000001 0.006210 0.000000
# 6 0.000000 0.000000 -0.000001 -0.000003 0.000000 0.046848
#
#
# Mechanical properties :
#
#
# Convention : Reuss Voigt Hill
#
# Bulk Modulus (GPa) = 67.05928 68.89042 67.97485
# Shear Modulus (GPa) = 32.69678 56.40643 44.55161
#
# Velocity S-wave (km/s) = 4.12692 5.42048 4.81731
# Velocity P-wave (km/s) = 7.59205 8.66371 8.14552
#
# Compressibility (1/GPa) = 0.01491218
#
# Stress axis : x y z
#
# Youngs Moduli (GPa) = 93.54978 63.53419 119.39106
#
# Poissons Ratio (x) = 0.31005 0.12124
# Poissons Ratio (y) = 0.45653 0.48363
# Poissons Ratio (z) = 0.09500 0.25736
#
# Static dielectric constant tensor:
#      x y z
#    x 4.076680 0.000000 0.000000 
#    y 0.000000 3.868580 0.000420 
#    z 0.000000 0.000420 4.774870 
# 
# 
# High freq. dielectric constant tensor:
#      x y z
#    x 1.752510 0.000000 0.000000 
#    y 0.000000 1.735150 0.000000 
#    z 0.000000 0.000000 1.749560 
# 
# From -- ./inp_files/5646.got.cif
#   From: 2010.03.12/outbox.cif.g09.slc.cpg/sg69_3_cif.got.tgz:5646.got - 2010.04.10 23:52:46.
