data_PCOD8285665
_publ_section_title
;
Structure prediction by ZEFSAII (Michael W. Deem and Ramdas Pophale) SiO2 
 PCOD8285665
Probable space group: F M M M
;
_chemical_formula_sum "Si O2"
_cell_formula_units_Z 144
_cell_length_a 20.288964
_cell_length_b 19.408169
_cell_length_c 19.408056
_cell_angle_alpha 90.000000
_cell_angle_beta 90.000000
_cell_angle_gamma 90.000000
_cell_volume 7642.342082
_symmetry_space_group_name_H-M "F M M M"
_symmetry_group_IT_number 69
_symmetry_cell_setting 'orthorhombic'
loop_
_space_group_symop_operation_xyz
x,y,z
-x,-y,z
x,-y,-z
-x,y,-z
-x,-y,-z
x,y,-z
-x,y,z
x,-y,z
x,1/2+y,1/2+z
-x,1/2-y,1/2+z
x,1/2-y,1/2-z
-x,1/2+y,1/2-z
-x,1/2-y,1/2-z
x,1/2+y,1/2-z
-x,1/2+y,1/2+z
x,1/2-y,1/2+z
1/2+x,y,1/2+z
1/2-x,-y,1/2+z
1/2+x,-y,1/2-z
1/2-x,y,1/2-z
1/2-x,-y,1/2-z
1/2+x,y,1/2-z
1/2-x,y,1/2+z
1/2+x,-y,1/2+z
1/2+x,1/2+y,z
1/2-x,1/2-y,z
1/2+x,1/2-y,-z
1/2-x,1/2+y,-z
1/2-x,1/2-y,-z
1/2+x,1/2+y,-z
1/2-x,1/2+y,z
1/2+x,1/2-y,z
loop_
_atom_site_type_symbol
_atom_site_label
_atom_site_fract_x
_atom_site_fract_y
_atom_site_fract_z
Si Si1 0.189054 0.000000 0.198903
Si Si2 0.719357 0.855432 0.355433
Si Si3 0.376390 0.143353 0.856647
Si Si4 0.650804 0.250000 0.750000
Si Si5 0.689053 0.301096 0.000000
Si Si6 0.076490 0.199334 0.500000
Si Si7 0.923509 0.500000 0.800663
O O1 0.250000 0.000000 0.250000
O O2 0.192208 0.068913 0.155848
O O3 0.117019 0.000000 0.231066
O O4 0.797764 0.855089 0.355093
O O5 0.695024 0.799441 0.299440
O O6 0.692206 0.844150 0.431087
O O7 0.395711 0.201264 0.798737
O O8 0.404711 0.157689 0.931745
O O9 0.404708 0.068255 0.842308
O O10 0.750000 0.250000 0.000000
O O11 0.617019 0.268931 0.000000
O O12 0.000000 0.217559 0.500000
O O13 0.000000 0.500000 0.782442
#
# Coordination Sequence:
#
# PCOD8285665 Si02
#       7
#    16  32  32  16  16  16  16
#     4  12  22  41  65  95 134 174 220 279 331 387
#     4  12  21  38  68 101 131 166 227 282 332 385
#     4  12  22  41  65  96 131 176 219 272 333 391
#     4  12  21  34  71 106 127 160 223 290 331 384
#     4  12  22  41  65  95 134 174 220 279 331 387
#     4  12  26  43  62  95 140 178 215 266 333 405
#     4  12  26  43  62  95 140 178 215 266 333 405
#
# _framework density 18.842390000000002
#
# number of rings (size 3 to 8) (size 9 to 14) (size 15 to 20)
#    0.000    0.000    8.889    2.667    0.000    0.889 
#    0.000    8.889    0.000    0.000    0.000    1.556 
#    0.000    0.000    0.000    0.000    0.000    0.000 
#
# Total GULP energy -446211.131619 kJ/mol
# GULP energy per Si atom -12394.753656 kJ/mol
# Density = 1.879950 g / cm^3
# Si number density = 18.842390 Si / 1000 Ang^3
#
#
#
# Elastic Constant Matrix: (Units=GPa)
#
#
# Indices 1 2 3 4 5 6 
#
# 1 108.6898 54.0685 54.0621 0.0000 0.0000 0.0000
# 2 54.0685 167.3353 94.4240 0.0000 0.0000 0.0000
# 3 54.0621 94.4240 167.3088 0.0000 0.0000 0.0000
# 4 0.0000 0.0000 0.0000 40.5316 0.0000 0.0000
# 5 0.0000 0.0000 0.0000 0.0000 12.4787 0.0000
# 6 0.0000 0.0000 0.0000 0.0000 0.0000 12.4840
#
#
#
# Elastic Compliance Matrix: (Units=1/GPa)
#
#
# Indices 1 2 3 4 5 6 
#
# 1 0.011580 -0.002392 -0.002392 0.000000 0.000000 0.000000
# 2 -0.002392 0.009263 -0.004455 0.000000 0.000000 0.000000
# 3 -0.002392 -0.004455 0.009264 0.000000 0.000000 0.000000
# 4 0.000000 0.000000 0.000000 0.024672 0.000000 0.000000
# 5 0.000000 0.000000 0.000000 0.000000 0.080137 0.000000
# 6 0.000000 0.000000 0.000000 0.000000 0.000000 0.080103
#
#
# Mechanical properties :
#
#
# Convention : Reuss Voigt Hill
#
# Bulk Modulus (GPa) = 85.98733 94.27147 90.12940
# Shear Modulus (GPa) = 21.06404 29.15080 25.10742
#
# Velocity S-wave (km/s) = 3.34714 3.93757 3.65430
# Velocity P-wave (km/s) = 7.78922 8.41503 8.10817
#
# Compressibility (1/GPa) = 0.01162962
#
# Stress axis : x y z
#
# Youngs Moduli (GPa) = 86.35468 107.96159 107.94606
#
# Poissons Ratio (x) = 0.25825 0.25819
# Poissons Ratio (y) = 0.20656 0.48085
# Poissons Ratio (z) = 0.20655 0.48092
#
# Static dielectric constant tensor:
#      x y z
#    x 3.413300 0.000000 0.000000 
#    y 0.000000 3.784570 0.000000 
#    z 0.000000 0.000000 3.784590 
# 
# 
# High freq. dielectric constant tensor:
#      x y z
#    x 1.714930 0.000000 0.000000 
#    y 0.000000 1.747480 0.000000 
#    z 0.000000 0.000000 1.747480 
# 
# From -- ./inp_files/24535.got.cif
#   From: 2010.03.12/outbox.cif.g09.slc.cpg/sg69_13_cif.got.tgz:24535.got - 2010.04.10 23:52:46.
