data_PCOD8285155
_publ_section_title
;
Structure prediction by ZEFSAII (Michael W. Deem and Ramdas Pophale) SiO2 
 PCOD8285155
Probable space group: F M M M
;
_chemical_formula_sum "Si O2"
_cell_formula_units_Z 208
_cell_length_a 16.487345
_cell_length_b 23.104243
_cell_length_c 26.515352
_cell_angle_alpha 90.000000
_cell_angle_beta 90.000000
_cell_angle_gamma 90.000000
_cell_volume 10100.430071
_symmetry_space_group_name_H-M "F M M M"
_symmetry_group_IT_number 69
_symmetry_cell_setting 'orthorhombic'
loop_
_space_group_symop_operation_xyz
x,y,z
-x,-y,z
x,-y,-z
-x,y,-z
-x,-y,-z
x,y,-z
-x,y,z
x,-y,z
x,1/2+y,1/2+z
-x,1/2-y,1/2+z
x,1/2-y,1/2-z
-x,1/2+y,1/2-z
-x,1/2-y,1/2-z
x,1/2+y,1/2-z
-x,1/2+y,1/2+z
x,1/2-y,1/2+z
1/2+x,y,1/2+z
1/2-x,-y,1/2+z
1/2+x,-y,1/2-z
1/2-x,y,1/2-z
1/2-x,-y,1/2-z
1/2+x,y,1/2-z
1/2-x,y,1/2+z
1/2+x,-y,1/2+z
1/2+x,1/2+y,z
1/2-x,1/2-y,z
1/2+x,1/2-y,-z
1/2-x,1/2+y,-z
1/2-x,1/2-y,-z
1/2+x,1/2+y,-z
1/2-x,1/2+y,z
1/2+x,1/2-y,z
loop_
_atom_site_type_symbol
_atom_site_label
_atom_site_fract_x
_atom_site_fract_y
_atom_site_fract_z
Si Si1 0.589437 0.603559 0.843969
Si Si2 0.651318 0.153396 0.443649
Si Si3 0.406515 0.774468 0.699588
Si Si4 0.095534 0.231580 0.404895
Si Si5 0.749397 0.564767 0.307098
Si Si6 0.678120 0.614628 0.596654
Si Si7 0.091645 0.000000 0.440614
O O1 0.500000 0.576412 0.835355
O O2 0.592595 0.624516 0.902154
O O3 0.604017 0.656887 0.805687
O O4 0.659294 0.558481 0.829608
O O5 0.626235 0.133498 0.500000
O O6 0.642975 0.223455 0.441084
O O7 0.741910 0.131824 0.433622
O O8 0.500000 0.756337 0.701225
O O9 0.362921 0.750000 0.750000
O O10 0.368804 0.743387 0.650924
O O11 0.113663 0.164737 0.415923
O O12 0.000000 0.243444 0.410459
O O13 0.711919 0.500000 0.307183
O O14 0.750000 0.589503 0.250000
O O15 0.697260 0.606964 0.343411
O O16 0.641129 0.555489 0.576985
O O17 0.086523 0.000000 0.500000
O O18 0.000000 0.000000 0.417911
#
# Coordination Sequence:
#
# PCOD8285155 Si02
#       7
#    32  32  32  32  32  32  16
#     4   9  19  35  58  87 116 149 193 244 298 356
#     4  10  21  38  61  87 121 161 199 243 303 367
#     4   8  15  29  49  77 111 144 178 224 286 348
#     4  10  21  35  56  88 122 153 195 249 299 357
#     4  10  22  40  60  82 116 157 200 251 299 355
#     4  11  22  40  61  86 119 162 204 248 298 363
#     4  11  24  42  63  88 119 157 204 255 302 352
#
# _framework density 20.593181999999999
#
# number of rings (size 3 to 8) (size 9 to 14) (size 15 to 20)
#    0.000    2.231    0.769    2.769    2.154    3.385 
#    0.000    0.769    0.000    0.000    0.000    2.154 
#    0.000    0.000    0.000    0.000    0.000    0.000 
#
# Total GULP energy -644508.760780 kJ/mol
# GULP energy per Si atom -12394.399246 kJ/mol
# Density = 2.054631 g / cm^3
# Si number density = 20.593182 Si / 1000 Ang^3
#
#
#
# Elastic Constant Matrix: (Units=GPa)
#
#
# Indices 1 2 3 4 5 6 
#
# 1 94.0582 39.8124 22.0972 0.0000 0.0000 0.0000
# 2 39.8124 90.6759 17.6402 0.0000 0.0000 0.0000
# 3 22.0972 17.6402 126.2793 0.0000 0.0000 0.0000
# 4 0.0000 0.0000 0.0000 14.1462 0.0000 0.0000
# 5 0.0000 0.0000 0.0000 0.0000 17.8010 0.0000
# 6 0.0000 0.0000 0.0000 0.0000 0.0000 31.3454
#
#
#
# Elastic Compliance Matrix: (Units=1/GPa)
#
#
# Indices 1 2 3 4 5 6 
#
# 1 0.013351 -0.005558 -0.001560 0.000000 0.000000 0.000000
# 2 -0.005558 0.013651 -0.000934 0.000000 0.000000 0.000000
# 3 -0.001560 -0.000934 0.008322 0.000000 0.000000 0.000000
# 4 0.000000 0.000000 0.000000 0.070690 0.000000 0.000000
# 5 0.000000 0.000000 0.000000 0.000000 0.056177 0.000000
# 6 0.000000 0.000000 0.000000 0.000000 0.000000 0.031903
#
#
# Mechanical properties :
#
#
# Convention : Reuss Voigt Hill
#
# Bulk Modulus (GPa) = 52.03187 52.23478 52.13333
# Shear Modulus (GPa) = 23.08357 28.08945 25.58651
#
# Velocity S-wave (km/s) = 3.35167 3.69727 3.52870
# Velocity P-wave (km/s) = 6.34820 6.60655 6.47866
#
# Compressibility (1/GPa) = 0.01921899
#
# Stress axis : x y z
#
# Youngs Moduli (GPa) = 74.90127 73.25718 120.15779
#
# Poissons Ratio (x) = 0.40720 0.18742
# Poissons Ratio (y) = 0.41634 0.11225
# Poissons Ratio (z) = 0.11683 0.06844
#
# Static dielectric constant tensor:
#      x y z
#    x 3.596980 0.000000 0.000000 
#    y 0.000000 3.574170 0.000000 
#    z 0.000000 0.000000 3.927090 
# 
# 
# High freq. dielectric constant tensor:
#      x y z
#    x 1.793200 0.000000 0.000000 
#    y 0.000000 1.794010 0.000000 
#    z 0.000000 0.000000 1.807600 
# 
# From -- ./inp_files/42112.got.cif
#   From: 2010.03.12/outbox.cif.g09.slc.cpg/sg69_22_cif.got.tgz:42112.got - 2010.04.10 23:52:46.
