data_PCOD8285826
_publ_section_title
;
Structure prediction by ZEFSAII (Michael W. Deem and Ramdas Pophale) SiO2 
 PCOD8285826
Probable space group: F D D D
;
_chemical_formula_sum "Si O2"
_cell_formula_units_Z 160
_cell_length_a 21.185166
_cell_length_b 22.919037
_cell_length_c 17.269270
_cell_angle_alpha 90.000000
_cell_angle_beta 90.000000
_cell_angle_gamma 90.000000
_cell_volume 8384.983584
_symmetry_space_group_name_H-M "F D D D"
_symmetry_group_IT_number 70
_space_group.IT_coordinate_system_code '2'
_symmetry_cell_setting 'orthorhombic'
loop_
_space_group_symop_operation_xyz
x,y,z
1/4-x,1/4-y,z
x,1/4-y,1/4-z
1/4-x,y,1/4-z
-x,-y,-z
3/4+x,3/4+y,-z
-x,3/4+y,3/4+z
3/4+x,-y,3/4+z
x,1/2+y,1/2+z
1/4-x,3/4-y,1/2+z
x,3/4-y,3/4-z
1/4-x,1/2+y,3/4-z
-x,1/2-y,1/2-z
3/4+x,1/4+y,1/2-z
-x,1/4+y,1/4+z
3/4+x,1/2-y,1/4+z
1/2+x,y,1/2+z
3/4-x,1/4-y,1/2+z
1/2+x,1/4-y,3/4-z
3/4-x,y,3/4-z
1/2-x,-y,1/2-z
1/4+x,3/4+y,1/2-z
1/2-x,3/4+y,1/4+z
1/4+x,-y,1/4+z
1/2+x,1/2+y,z
3/4-x,3/4-y,z
1/2+x,3/4-y,1/4-z
3/4-x,1/2+y,1/4-z
1/2-x,1/2-y,-z
1/4+x,1/4+y,-z
1/2-x,1/4+y,3/4+z
1/4+x,1/2-y,3/4+z
loop_
_atom_site_type_symbol
_atom_site_label
_atom_site_fract_x
_atom_site_fract_y
_atom_site_fract_z
Si Si1 0.606167 0.463136 0.996912
Si Si2 0.102860 0.561806 0.379218
Si Si3 0.625000 0.929203 0.125000
Si Si4 0.461402 0.677024 0.389479
Si Si5 0.392633 0.625000 0.625000
Si Si6 0.680681 0.479577 0.773323
O O1 0.602220 0.525871 0.958301
O O2 0.597861 0.411734 0.933007
O O3 0.550966 0.462576 0.060411
O O4 0.673902 0.454033 0.038109
O O5 0.125000 0.625000 0.404195
O O6 0.150082 0.533125 0.318533
O O7 0.034364 0.568055 0.339690
O O8 0.562240 0.888871 0.128761
O O9 0.634249 0.969150 0.200390
O O10 0.435441 0.579101 0.576109
O O11 0.750000 0.500000 0.750000
#
# Coordination Sequence:
#
# PCOD8285826 Si02
#       6
#    32  32  16  32  16  32
#     4   9  20  38  62  85 117 157 197 243 297 366
#     4  11  24  37  58  91 123 153 199 251 301 352
#     4  10  20  42  63  86 121 162 200 244 316 366
#     4  10  19  39  65  85 119 152 203 245 303 359
#     4  10  18  38  62  91 111 160 208 242 302 368
#     4  11  23  40  63  91 124 164 207 252 306 372
#
# _framework density 19.08173
#
# number of rings (size 3 to 8) (size 9 to 14) (size 15 to 20)
#    0.000    2.000    4.000    1.800    0.000    4.800 
#    0.000    2.000    0.000    0.000    0.000    0.000 
#    0.000    0.000    0.000    0.000    0.000    0.000 
#
# Total GULP energy -495879.253739 kJ/mol
# GULP energy per Si atom -12396.981343 kJ/mol
# Density = 1.903830 g / cm^3
# Si number density = 19.081730 Si / 1000 Ang^3
#
#
#
# Elastic Constant Matrix: (Units=GPa)
#
#
# Indices 1 2 3 4 5 6 
#
# 1 95.8308 23.0622 11.0641 0.0000 0.0000 0.0000
# 2 23.0622 124.7717 41.0540 0.0000 0.0000 0.0000
# 3 11.0641 41.0540 98.8181 0.0000 0.0000 0.0000
# 4 0.0000 0.0000 0.0000 18.6413 0.0000 0.0000
# 5 0.0000 0.0000 0.0000 0.0000 21.8500 0.0000
# 6 0.0000 0.0000 0.0000 0.0000 0.0000 21.9358
#
#
#
# Elastic Compliance Matrix: (Units=1/GPa)
#
#
# Indices 1 2 3 4 5 6 
#
# 1 0.010938 -0.001875 -0.000446 0.000000 0.000000 0.000000
# 2 -0.001875 0.009605 -0.003781 0.000000 0.000000 0.000000
# 3 -0.000446 -0.003781 0.011740 0.000000 0.000000 0.000000
# 4 0.000000 0.000000 0.000000 0.053644 0.000000 0.000000
# 5 0.000000 0.000000 0.000000 0.000000 0.045767 0.000000
# 6 0.000000 0.000000 0.000000 0.000000 0.000000 0.045588
#
#
# Mechanical properties :
#
#
# Convention : Reuss Voigt Hill
#
# Bulk Modulus (GPa) = 49.79937 52.19791 50.99864
# Shear Modulus (GPa) = 25.48713 28.76811 27.12762
#
# Velocity S-wave (km/s) = 3.65866 3.88703 3.77457
# Velocity P-wave (km/s) = 6.63343 6.89635 6.76616
#
# Compressibility (1/GPa) = 0.02008057
#
# Stress axis : x y z
#
# Youngs Moduli (GPa) = 91.42648 104.11102 85.17805
#
# Poissons Ratio (x) = 0.19521 0.03796
# Poissons Ratio (y) = 0.17143 0.32202
# Poissons Ratio (z) = 0.04074 0.39359
#
# Static dielectric constant tensor:
#      x y z
#    x 3.279830 0.000000 0.000000 
#    y 0.000000 3.538020 0.000000 
#    z 0.000000 0.000000 3.722140 
# 
# 
# High freq. dielectric constant tensor:
#      x y z
#    x 1.722410 0.000000 0.000000 
#    y 0.000000 1.743110 0.000000 
#    z 0.000000 0.000000 1.755190 
# 
# From -- ./inp_files/36511.got.cif
#   From: 2010.03.12/outbox.cif.g09.slc.cpg/sg70_19_cif.got.tgz:36511.got - 2010.04.16 13:46:32.
