data_PCOD8285085
_publ_section_title
;
Structure prediction by ZEFSAII (Michael W. Deem and Ramdas Pophale) SiO2 
 PCOD8285085
Probable space group: F M M M
;
_chemical_formula_sum "Si O2"
_cell_formula_units_Z 120
_cell_length_a 10.377773
_cell_length_b 27.042758
_cell_length_c 23.210734
_cell_angle_alpha 90.000000
_cell_angle_beta 90.000000
_cell_angle_gamma 90.000000
_cell_volume 6513.944037
_symmetry_space_group_name_H-M "F M M M"
_symmetry_group_IT_number 69
_symmetry_cell_setting 'orthorhombic'
loop_
_space_group_symop_operation_xyz
x,y,z
-x,-y,z
x,-y,-z
-x,y,-z
-x,-y,-z
x,y,-z
-x,y,z
x,-y,z
x,1/2+y,1/2+z
-x,1/2-y,1/2+z
x,1/2-y,1/2-z
-x,1/2+y,1/2-z
-x,1/2-y,1/2-z
x,1/2+y,1/2-z
-x,1/2+y,1/2+z
x,1/2-y,1/2+z
1/2+x,y,1/2+z
1/2-x,-y,1/2+z
1/2+x,-y,1/2-z
1/2-x,y,1/2-z
1/2-x,-y,1/2-z
1/2+x,y,1/2-z
1/2-x,y,1/2+z
1/2+x,-y,1/2+z
1/2+x,1/2+y,z
1/2-x,1/2-y,z
1/2+x,1/2-y,-z
1/2-x,1/2+y,-z
1/2-x,1/2-y,-z
1/2+x,1/2+y,-z
1/2-x,1/2+y,z
1/2+x,1/2-y,z
loop_
_atom_site_type_symbol
_atom_site_label
_atom_site_fract_x
_atom_site_fract_y
_atom_site_fract_z
Si Si1 0.727591 0.944332 0.500000
Si Si2 0.500000 0.816047 0.624116
Si Si3 0.850231 0.054501 0.620008
Si Si4 0.500000 0.279162 0.312541
Si Si5 0.500000 0.133804 0.500000
Si Si6 0.259858 0.648402 0.683877
O O1 0.820133 0.936242 0.446381
O O2 0.621290 0.901988 0.500000
O O3 0.666368 0.000000 0.500000
O O4 0.500000 0.757195 0.632551
O O5 0.500000 0.831445 0.556840
O O6 0.373227 0.833874 0.656969
O O7 0.781601 0.095311 0.657082
O O8 0.000000 0.059254 0.630156
O O9 0.800805 0.000000 0.638963
O O10 0.500000 0.250000 0.250000
O O11 0.373127 0.311705 0.322953
O O12 0.250000 0.637077 0.750000
#
# Coordination Sequence:
#
# PCOD8285085 Si02
#       6
#    16  16  32  16   8  32
#     4  10  20  38  64  88 120 169 220 259 308 388
#     4  12  26  41  64  98 132 166 213 271 322 374
#     4  10  21  39  63  93 126 165 210 265 324 383
#     4  12  24  44  68  93 120 169 226 267 311 377
#     4  12  23  42  60  92 138 166 207 266 330 382
#     4  12  23  41  67  95 126 167 215 266 320 379
#
# _framework density 18.422018000000001
#
# number of rings (size 3 to 8) (size 9 to 14) (size 15 to 20)
#    0.000    0.800    6.667    1.400    0.000    2.133 
#    0.000    4.667    0.000    0.000    0.000    0.000 
#    0.000    0.000    0.000    0.000    0.000    0.000 
#
# Total GULP energy -371801.567574 kJ/mol
# GULP energy per Si atom -12393.385586 kJ/mol
# Density = 1.838009 g / cm^3
# Si number density = 18.422018 Si / 1000 Ang^3
#
#
#
# Elastic Constant Matrix: (Units=GPa)
#
#
# Indices 1 2 3 4 5 6 
#
# 1 109.7782 49.9358 28.7665 0.0000 0.0000 0.0000
# 2 49.9358 131.8463 49.6299 0.0000 0.0000 0.0000
# 3 28.7665 49.6299 106.0825 0.0000 0.0000 0.0000
# 4 0.0000 0.0000 0.0000 30.7029 0.0000 0.0000
# 5 0.0000 0.0000 0.0000 0.0000 34.8869 0.0000
# 6 0.0000 0.0000 0.0000 0.0000 0.0000 48.3558
#
#
#
# Elastic Compliance Matrix: (Units=1/GPa)
#
#
# Indices 1 2 3 4 5 6 
#
# 1 0.011145 -0.003742 -0.001271 0.000000 0.000000 0.000000
# 2 -0.003742 0.010463 -0.003880 0.000000 0.000000 0.000000
# 3 -0.001271 -0.003880 0.011587 0.000000 0.000000 0.000000
# 4 0.000000 0.000000 0.000000 0.032570 0.000000 0.000000
# 5 0.000000 0.000000 0.000000 0.000000 0.028664 0.000000
# 6 0.000000 0.000000 0.000000 0.000000 0.000000 0.020680
#
#
# Mechanical properties :
#
#
# Convention : Reuss Voigt Hill
#
# Bulk Modulus (GPa) = 64.90773 67.15239 66.03006
# Shear Modulus (GPa) = 36.22375 37.41412 36.81893
#
# Velocity S-wave (km/s) = 4.43914 4.51149 4.47546
# Velocity P-wave (km/s) = 7.84760 7.97931 7.91373
#
# Compressibility (1/GPa) = 0.01540649
#
# Stress axis : x y z
#
# Youngs Moduli (GPa) = 89.72814 95.57918 86.30682
#
# Poissons Ratio (x) = 0.35770 0.10972
# Poissons Ratio (y) = 0.33581 0.33487
# Poissons Ratio (z) = 0.11407 0.37084
#
# Static dielectric constant tensor:
#      x y z
#    x 3.507440 0.000000 0.000000 
#    y 0.000000 3.105200 0.000000 
#    z 0.000000 0.000000 3.518660 
# 
# 
# High freq. dielectric constant tensor:
#      x y z
#    x 1.728030 0.000000 0.000000 
#    y 0.000000 1.731440 0.000000 
#    z 0.000000 0.000000 1.714300 
# 
# From -- ./inp_files/9176.got.cif
#   From: 2010.03.12/outbox.cif.g09.slc.cpg/sg69_5_cif.got.tgz:9176.got - 2010.04.10 23:52:46.
