data_PCOD8285685
_publ_section_title
;
Structure prediction by ZEFSAII (Michael W. Deem and Ramdas Pophale) SiO2 
 PCOD8285685
Probable space group: F M M M
;
_chemical_formula_sum "Si O2"
_cell_formula_units_Z 160
_cell_length_a 34.247225
_cell_length_b 17.852306
_cell_length_c 14.417393
_cell_angle_alpha 90.000000
_cell_angle_beta 90.000000
_cell_angle_gamma 90.000000
_cell_volume 8814.677881
_symmetry_space_group_name_H-M "F M M M"
_symmetry_group_IT_number 69
_symmetry_cell_setting 'orthorhombic'
loop_
_space_group_symop_operation_xyz
x,y,z
-x,-y,z
x,-y,-z
-x,y,-z
-x,-y,-z
x,y,-z
-x,y,z
x,-y,z
x,1/2+y,1/2+z
-x,1/2-y,1/2+z
x,1/2-y,1/2-z
-x,1/2+y,1/2-z
-x,1/2-y,1/2-z
x,1/2+y,1/2-z
-x,1/2+y,1/2+z
x,1/2-y,1/2+z
1/2+x,y,1/2+z
1/2-x,-y,1/2+z
1/2+x,-y,1/2-z
1/2-x,y,1/2-z
1/2-x,-y,1/2-z
1/2+x,y,1/2-z
1/2-x,y,1/2+z
1/2+x,-y,1/2+z
1/2+x,1/2+y,z
1/2-x,1/2-y,z
1/2+x,1/2-y,-z
1/2-x,1/2+y,-z
1/2-x,1/2-y,-z
1/2+x,1/2+y,-z
1/2-x,1/2+y,z
1/2+x,1/2-y,z
loop_
_atom_site_type_symbol
_atom_site_label
_atom_site_fract_x
_atom_site_fract_y
_atom_site_fract_z
Si Si1 0.313765 0.588377 0.604282
Si Si2 0.456691 0.089070 0.895359
Si Si3 0.385503 0.411953 0.279299
Si Si4 0.839752 0.587510 0.605925
Si Si5 0.738310 0.668261 0.110019
O O1 0.318568 0.619582 0.500000
O O2 0.314445 0.500000 0.606057
O O3 0.349307 0.622312 0.663340
O O4 0.272543 0.614359 0.647072
O O5 0.500000 0.120122 0.871380
O O6 0.425926 0.122485 0.819816
O O7 0.457416 0.000000 0.890360
O O8 0.444627 0.113609 0.000000
O O9 0.387190 0.500000 0.296652
O O10 0.377615 0.394275 0.170401
O O11 0.851038 0.606894 0.500000
O O12 0.827984 0.500000 0.615601
O O13 0.803589 0.637215 0.643994
O O14 0.750000 0.750000 0.148604
O O15 0.736638 0.667553 0.000000
#
# Coordination Sequence:
#
# PCOD8285685 Si02
#       5
#    32  32  32  32  32
#     4   9  16  26  41  60  82 107 135 169 208 249
#     4   8  13  22  38  61  88 113 133 159 204 259
#     4   9  16  25  39  59  81 107 139 170 201 246
#     4   9  17  29  43  57  77 109 147 182 213 245
#     4   9  17  29  43  58  80 110 142 177 215 251
#
# _framework density 18.151541999999999
#
# number of rings (size 3 to 8) (size 9 to 14) (size 15 to 20)
#    0.000    3.200    0.000    1.800    0.000    5.600 
#    0.000    5.000    0.000    0.600    0.000    4.200 
#    0.000    3.200    0.000   10.400    0.000   10.400 
#
# Total GULP energy -495569.287111 kJ/mol
# GULP energy per Si atom -12389.232178 kJ/mol
# Density = 1.811023 g / cm^3
# Si number density = 18.151542 Si / 1000 Ang^3
#
#
#
# Elastic Constant Matrix: (Units=GPa)
#
#
# Indices 1 2 3 4 5 6 
#
# 1 147.2585 17.9032 79.6302 0.0000 0.0000 0.0000
# 2 17.9032 22.1495 16.2497 0.0000 0.0000 0.0000
# 3 79.6302 16.2497 99.9045 0.0000 0.0000 0.0000
# 4 0.0000 0.0000 0.0000 3.8367 0.0000 0.0000
# 5 0.0000 0.0000 0.0000 0.0000 30.8234 0.0000
# 6 0.0000 0.0000 0.0000 0.0000 0.0000 5.2597
#
#
#
# Elastic Compliance Matrix: (Units=1/GPa)
#
#
# Indices 1 2 3 4 5 6 
#
# 1 0.012117 -0.003075 -0.009157 0.000000 0.000000 0.000000
# 2 -0.003075 0.052046 -0.006014 0.000000 0.000000 0.000000
# 3 -0.009157 -0.006014 0.018287 0.000000 0.000000 0.000000
# 4 0.000000 0.000000 0.000000 0.260643 0.000000 0.000000
# 5 0.000000 0.000000 0.000000 0.000000 0.032443 0.000000
# 6 0.000000 0.000000 0.000000 0.000000 0.000000 0.190125
#
#
# Mechanical properties :
#
#
# Convention : Reuss Voigt Hill
#
# Bulk Modulus (GPa) = 21.76032 55.20874 38.48453
# Shear Modulus (GPa) = 8.09753 18.35259 13.22506
#
# Velocity S-wave (km/s) = 2.11442 3.18319 2.70217
# Velocity P-wave (km/s) = 4.23971 6.63263 5.56628
#
# Compressibility (1/GPa) = 0.04595522
#
# Stress axis : x y z
#
# Youngs Moduli (GPa) = 82.53148 19.21391 54.68417
#
# Poissons Ratio (x) = 0.05909 0.50077
# Poissons Ratio (y) = 0.25382 0.32887
# Poissons Ratio (z) = 0.75578 0.11555
#
# Static dielectric constant tensor:
#      x y z
#    x 3.638050 0.000000 0.000000 
#    y 0.000000 2.932940 0.000000 
#    z 0.000000 0.000000 3.439270 
# 
# 
# High freq. dielectric constant tensor:
#      x y z
#    x 1.690670 0.000000 0.000000 
#    y 0.000000 1.645160 0.000000 
#    z 0.000000 0.000000 1.703980 
# 
# From -- ./inp_files/27834.got.cif
#   From: 2010.03.12/outbox.cif.g09.slc.cpg/sg69_14_cif.got.tgz:27834.got - 2010.04.10 23:52:46.
