data_PCOD8285002
_publ_section_title
;
Structure prediction by ZEFSAII (Michael W. Deem and Ramdas Pophale) SiO2 
 PCOD8285002
Probable space group: F M M M
;
_chemical_formula_sum "Si O2"
_cell_formula_units_Z 176
_cell_length_a 19.912819
_cell_length_b 23.465287
_cell_length_c 18.436585
_cell_angle_alpha 90.000000
_cell_angle_beta 90.000000
_cell_angle_gamma 90.000000
_cell_volume 8614.678943
_symmetry_space_group_name_H-M "F M M M"
_symmetry_group_IT_number 69
_symmetry_cell_setting 'orthorhombic'
loop_
_space_group_symop_operation_xyz
x,y,z
-x,-y,z
x,-y,-z
-x,y,-z
-x,-y,-z
x,y,-z
-x,y,z
x,-y,z
x,1/2+y,1/2+z
-x,1/2-y,1/2+z
x,1/2-y,1/2-z
-x,1/2+y,1/2-z
-x,1/2-y,1/2-z
x,1/2+y,1/2-z
-x,1/2+y,1/2+z
x,1/2-y,1/2+z
1/2+x,y,1/2+z
1/2-x,-y,1/2+z
1/2+x,-y,1/2-z
1/2-x,y,1/2-z
1/2-x,-y,1/2-z
1/2+x,y,1/2-z
1/2-x,y,1/2+z
1/2+x,-y,1/2+z
1/2+x,1/2+y,z
1/2-x,1/2-y,z
1/2+x,1/2-y,-z
1/2-x,1/2+y,-z
1/2-x,1/2-y,-z
1/2+x,1/2+y,-z
1/2-x,1/2+y,z
1/2+x,1/2-y,z
loop_
_atom_site_type_symbol
_atom_site_label
_atom_site_fract_x
_atom_site_fract_y
_atom_site_fract_z
Si Si1 0.000000 0.178306 0.414612
Si Si2 0.867263 0.614929 0.080990
Si Si3 0.325729 0.935720 0.225617
Si Si4 0.877685 0.618116 0.356746
Si Si5 0.240338 0.188642 0.919532
Si Si6 0.000000 0.191685 0.912903
Si Si7 0.075117 0.500000 0.584814
O O1 0.935609 0.142724 0.388885
O O2 0.000000 0.184395 0.500000
O O3 0.000000 0.243186 0.384768
O O4 0.839574 0.569855 0.139617
O O5 0.814825 0.665337 0.074710
O O6 0.876682 0.586967 0.000000
O O7 0.250000 0.921303 0.250000
O O8 0.375483 0.893657 0.270178
O O9 0.343125 0.000000 0.248003
O O10 0.806545 0.645907 0.376001
O O11 0.935736 0.661032 0.379118
O O12 0.884166 0.556769 0.394835
O O13 0.250000 0.250000 0.880773
O O14 0.208876 0.197007 0.000000
O O15 0.000000 0.185392 0.000000
O O16 0.066482 0.500000 0.500000
O O17 0.000000 0.500000 0.620374
#
# Coordination Sequence:
#
# PCOD8285002 Si02
#       7
#    16  32  32  32  32  16  16
#     4   9  20  41  66  93 127 169 210 266 322 370
#     4  10  21  41  67  92 119 162 220 266 315 384
#     4  11  24  44  63  89 129 167 206 269 336 381
#     4  12  22  38  60  93 130 173 211 255 323 386
#     4  10  20  36  60  91 125 163 211 262 311 371
#     4  11  22  38  64  97 136 173 207 251 318 397
#     4  11  22  38  59  92 137 172 213 256 301 388
#
# _framework density 20.430246
#
# number of rings (size 3 to 8) (size 9 to 14) (size 15 to 20)
#    0.000    1.364    3.636    2.727    0.000    4.000 
#    0.000    6.818    0.000    1.636    0.000    0.000 
#    0.000    0.000    0.000    0.000    0.000    0.000 
#
# Total GULP energy -545387.817403 kJ/mol
# GULP energy per Si atom -12395.177668 kJ/mol
# Density = 2.038375 g / cm^3
# Si number density = 20.430246 Si / 1000 Ang^3
#
#
#
# Elastic Constant Matrix: (Units=GPa)
#
#
# Indices 1 2 3 4 5 6 
#
# 1 117.3613 49.6101 40.8468 0.0000 0.0000 0.0000
# 2 49.6101 100.1555 38.5208 0.0000 0.0000 0.0000
# 3 40.8468 38.5208 112.3751 0.0000 0.0000 0.0000
# 4 0.0000 0.0000 0.0000 15.0244 0.0000 0.0000
# 5 0.0000 0.0000 0.0000 0.0000 21.7802 0.0000
# 6 0.0000 0.0000 0.0000 0.0000 0.0000 -29.9912
#
#
#
# Elastic Compliance Matrix: (Units=1/GPa)
#
#
# Indices 1 2 3 4 5 6 
#
# 1 0.011372 -0.004657 -0.002537 0.000000 0.000000 0.000000
# 2 -0.004657 0.013408 -0.002903 0.000000 0.000000 0.000000
# 3 -0.002537 -0.002903 0.010816 0.000000 0.000000 0.000000
# 4 0.000000 0.000000 0.000000 0.066558 0.000000 0.000000
# 5 0.000000 0.000000 0.000000 0.000000 0.045913 0.000000
# 6 0.000000 0.000000 0.000000 0.000000 0.000000 -0.033343
#
#
# Mechanical properties :
#
#
# Convention : Reuss Voigt Hill
#
# Bulk Modulus (GPa) = 64.93044 65.31639 65.12341
# Shear Modulus (GPa) = 35.70042 14.75696 25.22869
#
# Velocity S-wave (km/s) = 4.18476 2.69050 3.51788
# Velocity P-wave (km/s) = 7.42968 6.45690 6.96031
#
# Compressibility (1/GPa) = 0.01540110
#
# Stress axis : x y z
#
# Youngs Moduli (GPa) = 87.93172 74.58246 92.45363
#
# Poissons Ratio (x) = 0.34735 0.23458
# Poissons Ratio (y) = 0.40952 0.26842
# Poissons Ratio (z) = 0.22311 0.21653
#
# Static dielectric constant tensor:
#      x y z
#    x 3.968160 0.000000 0.000000 
#    y 0.000000 3.653930 0.000000 
#    z 0.000000 0.000000 3.741430 
# 
# 
# High freq. dielectric constant tensor:
#      x y z
#    x 1.804050 0.000000 0.000000 
#    y 0.000000 1.797320 0.000000 
#    z 0.000000 0.000000 1.786590 
# 
# From -- ./inp_files/23327.got.cif
#   From: 2010.03.12/outbox.cif.g09.slc.cpg/sg69_12_cif.got.tgz:23327.got - 2010.04.10 23:52:46.
