data_PCOD8285723
_publ_section_title
;
Structure prediction by ZEFSAII (Michael W. Deem and Ramdas Pophale) SiO2 
 PCOD8285723
Probable space group: F D D D
;
_chemical_formula_sum "Si O2"
_cell_formula_units_Z 128
_cell_length_a 19.603702
_cell_length_b 13.357116
_cell_length_c 23.851646
_cell_angle_alpha 90.000000
_cell_angle_beta 90.000000
_cell_angle_gamma 90.000000
_cell_volume 6245.527785
_symmetry_space_group_name_H-M "F D D D"
_symmetry_group_IT_number 70
_space_group.IT_coordinate_system_code '2'
_symmetry_cell_setting 'orthorhombic'
loop_
_space_group_symop_operation_xyz
x,y,z
1/4-x,1/4-y,z
x,1/4-y,1/4-z
1/4-x,y,1/4-z
-x,-y,-z
3/4+x,3/4+y,-z
-x,3/4+y,3/4+z
3/4+x,-y,3/4+z
x,1/2+y,1/2+z
1/4-x,3/4-y,1/2+z
x,3/4-y,3/4-z
1/4-x,1/2+y,3/4-z
-x,1/2-y,1/2-z
3/4+x,1/4+y,1/2-z
-x,1/4+y,1/4+z
3/4+x,1/2-y,1/4+z
1/2+x,y,1/2+z
3/4-x,1/4-y,1/2+z
1/2+x,1/4-y,3/4-z
3/4-x,y,3/4-z
1/2-x,-y,1/2-z
1/4+x,3/4+y,1/2-z
1/2-x,3/4+y,1/4+z
1/4+x,-y,1/4+z
1/2+x,1/2+y,z
3/4-x,3/4-y,z
1/2+x,3/4-y,1/4-z
3/4-x,1/2+y,1/4-z
1/2-x,1/2-y,-z
1/4+x,1/4+y,-z
1/2-x,1/4+y,3/4+z
1/4+x,1/2-y,3/4+z
loop_
_atom_site_type_symbol
_atom_site_label
_atom_site_fract_x
_atom_site_fract_y
_atom_site_fract_z
Si Si1 0.625000 0.125000 0.720650
Si Si2 0.061956 0.321096 0.444082
Si Si3 0.934253 0.125000 0.625000
Si Si4 0.758845 0.790816 0.702169
Si Si5 0.235410 0.245609 0.088899
O O1 0.574994 0.061823 0.760563
O O2 0.588122 0.206039 0.680658
O O3 0.136609 0.307774 0.416609
O O4 0.054722 0.268998 0.504850
O O5 0.044105 0.440916 0.449875
O O6 0.001210 0.280666 0.403774
O O7 0.982106 0.196665 0.588600
O O8 0.740170 0.885573 0.664513
#
# Coordination Sequence:
#
# PCOD8285723 Si02
#       5
#    16  32  16  32  32
#     4  10  16  29  52  78 108 136 170 241 302 326
#     4   9  19  32  48  80 109 132 181 231 274 335
#     4  10  20  34  52  77 108 149 186 222 270 328
#     4  11  19  31  51  75 107 148 183 220 274 333
#     4   9  18  30  48  77 108 134 172 227 286 339
#
# _framework density 20.494664
#
# number of rings (size 3 to 8) (size 9 to 14) (size 15 to 20)
#    0.000    2.500    0.000    7.500    0.000    8.000 
#    0.000    1.250    0.000    0.000    0.000    0.000 
#    0.000    0.000    0.000    2.250    0.000    0.000 
#
# Total GULP energy -396548.812483 kJ/mol
# GULP energy per Si atom -12392.150390 kJ/mol
# Density = 2.044802 g / cm^3
# Si number density = 20.494664 Si / 1000 Ang^3
#
#
#
# Elastic Constant Matrix: (Units=GPa)
#
#
# Indices 1 2 3 4 5 6 
#
# 1 43.7350 40.3173 33.2968 0.0000 0.0000 0.0000
# 2 40.3173 109.6974 81.9757 0.0000 0.0000 0.0000
# 3 33.2968 81.9757 119.4257 0.0000 0.0000 0.0000
# 4 0.0000 0.0000 0.0000 30.0152 0.0000 0.0000
# 5 0.0000 0.0000 0.0000 0.0000 12.4429 0.0000
# 6 0.0000 0.0000 0.0000 0.0000 0.0000 19.8903
#
#
#
# Elastic Compliance Matrix: (Units=1/GPa)
#
#
# Indices 1 2 3 4 5 6 
#
# 1 0.034789 -0.011370 -0.001895 0.000000 0.000000 0.000000
# 2 -0.011370 0.022433 -0.012228 0.000000 0.000000 0.000000
# 3 -0.001895 -0.012228 0.017295 0.000000 0.000000 0.000000
# 4 0.000000 0.000000 0.000000 0.033316 0.000000 0.000000
# 5 0.000000 0.000000 0.000000 0.000000 0.080367 0.000000
# 6 0.000000 0.000000 0.000000 0.000000 0.000000 0.050276
#
#
# Mechanical properties :
#
#
# Convention : Reuss Voigt Hill
#
# Bulk Modulus (GPa) = 42.49708 64.89306 53.69507
# Shear Modulus (GPa) = 16.81765 20.28758 18.55262
#
# Velocity S-wave (km/s) = 2.86770 3.14967 3.01199
# Velocity P-wave (km/s) = 5.63432 6.70518 6.19294
#
# Compressibility (1/GPa) = 0.02353103
#
# Stress axis : x y z
#
# Youngs Moduli (GPa) = 28.74458 44.57741 57.81909
#
# Poissons Ratio (x) = 0.50685 0.10956
# Poissons Ratio (y) = 0.32683 0.70702
# Poissons Ratio (z) = 0.05447 0.54510
#
# Static dielectric constant tensor:
#      x y z
#    x 3.459390 0.000000 0.000000 
#    y 0.000000 3.332190 0.000000 
#    z 0.000000 0.000000 3.835780 
# 
# 
# High freq. dielectric constant tensor:
#      x y z
#    x 1.769880 0.000000 0.000000 
#    y 0.000000 1.760780 0.000000 
#    z 0.000000 0.000000 1.809020 
# 
# From -- ./inp_files/50113.got.cif
#   From: 2010.03.12/outbox.cif.g09.slc.cpg/sg70_26_cif.got.tgz:50113.got - 2010.04.16 13:46:32.
