data_PCOD8285440
_publ_section_title
;
Structure prediction by ZEFSAII (Michael W. Deem and Ramdas Pophale) SiO2 
 PCOD8285440
Probable space group: F M M M
;
_chemical_formula_sum "Si O2"
_cell_formula_units_Z 72
_cell_length_a 23.155283
_cell_length_b 9.771482
_cell_length_c 13.703100
_cell_angle_alpha 90.000000
_cell_angle_beta 90.000000
_cell_angle_gamma 90.000000
_cell_volume 3100.483016
_symmetry_space_group_name_H-M "F M M M"
_symmetry_group_IT_number 69
_symmetry_cell_setting 'orthorhombic'
loop_
_space_group_symop_operation_xyz
x,y,z
-x,-y,z
x,-y,-z
-x,y,-z
-x,-y,-z
x,y,-z
-x,y,z
x,-y,z
x,1/2+y,1/2+z
-x,1/2-y,1/2+z
x,1/2-y,1/2-z
-x,1/2+y,1/2-z
-x,1/2-y,1/2-z
x,1/2+y,1/2-z
-x,1/2+y,1/2+z
x,1/2-y,1/2+z
1/2+x,y,1/2+z
1/2-x,-y,1/2+z
1/2+x,-y,1/2-z
1/2-x,y,1/2-z
1/2-x,-y,1/2-z
1/2+x,y,1/2-z
1/2-x,y,1/2+z
1/2+x,-y,1/2+z
1/2+x,1/2+y,z
1/2-x,1/2-y,z
1/2+x,1/2-y,-z
1/2-x,1/2+y,-z
1/2-x,1/2-y,-z
1/2+x,1/2+y,-z
1/2-x,1/2+y,z
1/2+x,1/2-y,z
loop_
_atom_site_type_symbol
_atom_site_label
_atom_site_fract_x
_atom_site_fract_y
_atom_site_fract_z
Si Si1 0.655846 0.296171 0.609953
Si Si2 0.889965 0.500000 0.607501
Si Si3 0.250000 0.250000 0.750000
Si Si4 0.434631 0.000000 0.187542
O O1 0.669061 0.344463 0.500000
O O2 0.650547 0.132661 0.617104
O O3 0.708850 0.342029 0.679623
O O4 0.596881 0.365115 0.647047
O O5 0.920494 0.500000 0.500000
O O6 0.936500 0.500000 0.694398
O O7 0.500000 0.000000 0.148580
#
# Coordination Sequence:
#
# PCOD8285440 Si02
#       4
#    32  16   8  16
#     4  11  25  43  70 104 137 179 226 277 342 405
#     4  10  22  44  67 100 138 176 223 275 336 402
#     4  12  22  46  74 100 140 178 222 288 332 408
#     4  12  25  47  70  98 139 183 227 281 338 404
#
# _framework density 23.222187999999999
#
# number of rings (size 3 to 8) (size 9 to 14) (size 15 to 20)
#    0.000    0.889    4.444    1.333    0.000    9.333 
#    0.000    8.889    0.000    0.000    0.000    0.000 
#    0.000    0.000    0.000    0.000    0.000    0.000 
#
# Total GULP energy -223138.439926 kJ/mol
# GULP energy per Si atom -12396.579996 kJ/mol
# Density = 2.316933 g / cm^3
# Si number density = 23.222188 Si / 1000 Ang^3
#
#
#
# Elastic Constant Matrix: (Units=GPa)
#
#
# Indices 1 2 3 4 5 6 
#
# 1 188.1963 43.4693 89.0723 0.0000 0.0000 0.0000
# 2 43.4693 137.0837 31.8220 0.0000 0.0000 0.0000
# 3 89.0723 31.8220 233.0845 0.0000 0.0000 0.0000
# 4 0.0000 0.0000 0.0000 25.9567 0.0000 0.0000
# 5 0.0000 0.0000 0.0000 0.0000 20.8191 0.0000
# 6 0.0000 0.0000 0.0000 0.0000 0.0000 -9.2481
#
#
#
# Elastic Compliance Matrix: (Units=1/GPa)
#
#
# Indices 1 2 3 4 5 6 
#
# 1 0.006813 -0.001607 -0.002384 0.000000 0.000000 0.000000
# 2 -0.001607 0.007913 -0.000466 0.000000 0.000000 0.000000
# 3 -0.002384 -0.000466 0.005265 0.000000 0.000000 0.000000
# 4 0.000000 0.000000 0.000000 0.038526 0.000000 0.000000
# 5 0.000000 0.000000 0.000000 0.000000 0.048033 0.000000
# 6 0.000000 0.000000 0.000000 0.000000 0.000000 -0.108130
#
#
# Mechanical properties :
#
#
# Convention : Reuss Voigt Hill
#
# Bulk Modulus (GPa) = 90.28481 98.56577 94.42529
# Shear Modulus (GPa) = 453.45491 33.77226 243.61358
#
# Velocity S-wave (km/s) = 13.98899 3.81768 10.25345
# Velocity P-wave (km/s) = 17.31720 7.87208 13.45093
#
# Compressibility (1/GPa) = 0.01107606
#
# Stress axis : x y z
#
# Youngs Moduli (GPa) = 146.77303 126.38057 189.93112
#
# Poissons Ratio (x) = 0.20309 0.45284
# Poissons Ratio (y) = 0.23587 0.08854
# Poissons Ratio (z) = 0.34994 0.05891
#
# Static dielectric constant tensor:
#      x y z
#    x 3.712960 0.000000 0.000000 
#    y 0.000000 3.993450 0.000000 
#    z 0.000000 0.000000 4.832210 
# 
# 
# High freq. dielectric constant tensor:
#      x y z
#    x 1.884800 0.000000 0.000000 
#    y 0.000000 1.909880 0.000000 
#    z 0.000000 0.000000 1.953850 
# 
# From -- ./inp_files/18340.got.cif
#   From: 2010.03.12/outbox.cif.g09.slc.cpg/sg69_10_cif.got.tgz:18340.got - 2010.04.10 23:52:46.
