data_PCOD8285664
_publ_section_title
;
Structure prediction by ZEFSAII (Michael W. Deem and Ramdas Pophale) SiO2 
 PCOD8285664
Probable space group: F M M M
;
_chemical_formula_sum "Si O2"
_cell_formula_units_Z 144
_cell_length_a 30.219783
_cell_length_b 14.513097
_cell_length_c 17.430794
_cell_angle_alpha 90.000000
_cell_angle_beta 90.000000
_cell_angle_gamma 90.000000
_cell_volume 7644.843685
_symmetry_space_group_name_H-M "F M M M"
_symmetry_group_IT_number 69
_symmetry_cell_setting 'orthorhombic'
loop_
_space_group_symop_operation_xyz
x,y,z
-x,-y,z
x,-y,-z
-x,y,-z
-x,-y,-z
x,y,-z
-x,y,z
x,-y,z
x,1/2+y,1/2+z
-x,1/2-y,1/2+z
x,1/2-y,1/2-z
-x,1/2+y,1/2-z
-x,1/2-y,1/2-z
x,1/2+y,1/2-z
-x,1/2+y,1/2+z
x,1/2-y,1/2+z
1/2+x,y,1/2+z
1/2-x,-y,1/2+z
1/2+x,-y,1/2-z
1/2-x,y,1/2-z
1/2-x,-y,1/2-z
1/2+x,y,1/2-z
1/2-x,y,1/2+z
1/2+x,-y,1/2+z
1/2+x,1/2+y,z
1/2-x,1/2-y,z
1/2+x,1/2-y,-z
1/2-x,1/2+y,-z
1/2-x,1/2-y,-z
1/2+x,1/2+y,-z
1/2-x,1/2+y,z
1/2+x,1/2-y,z
loop_
_atom_site_type_symbol
_atom_site_label
_atom_site_fract_x
_atom_site_fract_y
_atom_site_fract_z
Si Si1 0.862735 0.000000 0.227242
Si Si2 0.000000 0.600067 0.167908
Si Si3 0.293791 0.147404 0.500000
Si Si4 0.817944 0.000000 0.381580
Si Si5 0.500000 0.788272 0.591187
Si Si6 0.285835 0.000000 0.377677
Si Si7 0.071020 0.844425 0.212370
Si Si8 0.189886 0.652828 0.000000
O O1 0.811947 0.000000 0.201196
O O2 0.887498 0.090311 0.195362
O O3 0.856087 0.000000 0.318246
O O4 0.041947 0.606598 0.223130
O O5 0.000000 0.500000 0.127219
O O6 0.000000 0.677811 0.102275
O O7 0.302907 0.089327 0.576316
O O8 0.241915 0.165008 0.500000
O O9 0.325232 0.239471 0.500000
O O10 0.827003 0.905195 0.427272
O O11 0.766201 0.000000 0.358278
O O12 0.500000 0.812078 0.500000
O O13 0.543481 0.829334 0.633390
O O14 0.088282 0.750000 0.250000
#
# Coordination Sequence:
#
# PCOD8285664 Si02
#       8
#    16  16  16  16  16  16  32  16
#     4  12  21  33  55  76 112 147 182 226 280 308
#     4   9  15  34  65  80 104 142 181 210 264 328
#     4   8  15  33  54  71 101 136 175 224 282 334
#     4   9  19  33  54  79 103 137 194 236 268 323
#     4   9  19  37  59  86 111 142 180 217 257 325
#     4   9  19  33  50  79 106 143 189 228 270 324
#     4   9  20  36  56  80 110 148 178 213 267 330
#     4   8  15  33  58  73  93 136 179 228 282 322
#
# _framework density 18.836224999999999
#
# number of rings (size 3 to 8) (size 9 to 14) (size 15 to 20)
#    0.000    2.889    1.111    3.000    0.000    2.000 
#    4.000    0.556   19.556    6.667    0.000    0.000 
#    0.000    0.000    0.000    0.000    0.000    0.000 
#
# Total GULP energy -445981.627059 kJ/mol
# GULP energy per Si atom -12388.378529 kJ/mol
# Density = 1.879335 g / cm^3
# Si number density = 18.836225 Si / 1000 Ang^3
#
#
#
# Elastic Constant Matrix: (Units=GPa)
#
#
# Indices 1 2 3 4 5 6 
#
# 1 60.3783 32.9718 34.1224 0.0000 0.0000 0.0000
# 2 32.9718 152.7552 40.9081 0.0000 0.0000 0.0000
# 3 34.1224 40.9081 102.7026 0.0000 0.0000 0.0000
# 4 0.0000 0.0000 0.0000 14.9349 0.0000 0.0000
# 5 0.0000 0.0000 0.0000 0.0000 20.0849 0.0000
# 6 0.0000 0.0000 0.0000 0.0000 0.0000 12.5507
#
#
#
# Elastic Compliance Matrix: (Units=1/GPa)
#
#
# Indices 1 2 3 4 5 6 
#
# 1 0.021603 -0.003068 -0.005956 0.000000 0.000000 0.000000
# 2 -0.003068 0.007764 -0.002073 0.000000 0.000000 0.000000
# 3 -0.005956 -0.002073 0.012541 0.000000 0.000000 0.000000
# 4 0.000000 0.000000 0.000000 0.066957 0.000000 0.000000
# 5 0.000000 0.000000 0.000000 0.000000 0.049789 0.000000
# 6 0.000000 0.000000 0.000000 0.000000 0.000000 0.079677
#
#
# Mechanical properties :
#
#
# Convention : Reuss Voigt Hill
#
# Bulk Modulus (GPa) = 50.72269 59.09340 54.90804
# Shear Modulus (GPa) = 18.71980 23.36967 21.04473
#
# Velocity S-wave (km/s) = 3.15591 3.52615 3.34615
# Velocity P-wave (km/s) = 6.34558 6.92954 6.64398
#
# Compressibility (1/GPa) = 0.01971504
#
# Stress axis : x y z
#
# Youngs Moduli (GPa) = 46.28888 128.80206 79.73650
#
# Poissons Ratio (x) = 0.39518 0.47488
# Poissons Ratio (y) = 0.14202 0.16530
# Poissons Ratio (z) = 0.27568 0.26702
#
# Static dielectric constant tensor:
#      x y z
#    x 3.095630 0.000000 0.000000 
#    y 0.000000 4.167660 0.000000 
#    z 0.000000 0.000000 3.155940 
# 
# 
# High freq. dielectric constant tensor:
#      x y z
#    x 1.706320 0.000000 0.000000 
#    y 0.000000 1.744760 0.000000 
#    z 0.000000 0.000000 1.710290 
# 
# From -- ./inp_files/27480.got.cif
#   From: 2010.03.12/outbox.cif.g09.slc.cpg/sg69_14_cif.got.tgz:27480.got - 2010.04.10 23:52:46.
