data_PCOD8285963
_publ_section_title
;
Structure prediction by ZEFSAII (Michael W. Deem and Ramdas Pophale) SiO2 
 PCOD8285963
Probable space group: F D D D
;
_chemical_formula_sum "Si O2"
_cell_formula_units_Z 160
_cell_length_a 26.608498
_cell_length_b 11.858586
_cell_length_c 24.023981
_cell_angle_alpha 90.000000
_cell_angle_beta 90.000000
_cell_angle_gamma 90.000000
_cell_volume 7580.506829
_symmetry_space_group_name_H-M "F D D D"
_symmetry_group_IT_number 70
_space_group.IT_coordinate_system_code '2'
_symmetry_cell_setting 'orthorhombic'
loop_
_space_group_symop_operation_xyz
x,y,z
1/4-x,1/4-y,z
x,1/4-y,1/4-z
1/4-x,y,1/4-z
-x,-y,-z
3/4+x,3/4+y,-z
-x,3/4+y,3/4+z
3/4+x,-y,3/4+z
x,1/2+y,1/2+z
1/4-x,3/4-y,1/2+z
x,3/4-y,3/4-z
1/4-x,1/2+y,3/4-z
-x,1/2-y,1/2-z
3/4+x,1/4+y,1/2-z
-x,1/4+y,1/4+z
3/4+x,1/2-y,1/4+z
1/2+x,y,1/2+z
3/4-x,1/4-y,1/2+z
1/2+x,1/4-y,3/4-z
3/4-x,y,3/4-z
1/2-x,-y,1/2-z
1/4+x,3/4+y,1/2-z
1/2-x,3/4+y,1/4+z
1/4+x,-y,1/4+z
1/2+x,1/2+y,z
3/4-x,3/4-y,z
1/2+x,3/4-y,1/4-z
3/4-x,1/2+y,1/4-z
1/2-x,1/2-y,-z
1/4+x,1/4+y,-z
1/2-x,1/4+y,3/4+z
1/4+x,1/2-y,3/4+z
loop_
_atom_site_type_symbol
_atom_site_label
_atom_site_fract_x
_atom_site_fract_y
_atom_site_fract_z
Si Si1 0.375000 0.875000 0.002141
Si Si2 0.368276 0.599410 0.560423
Si Si3 0.044867 0.716982 0.083100
Si Si4 0.875000 0.621907 0.375000
Si Si5 0.508817 0.881709 0.258351
Si Si6 0.406944 0.268703 0.977792
O O1 0.360933 0.772956 0.043408
O O2 0.422116 0.847672 0.962911
O O3 0.371995 0.625000 0.625000
O O4 0.310237 0.605522 0.541663
O O5 0.405782 0.686259 0.530508
O O6 0.018895 0.625000 0.125000
O O7 0.077278 0.797222 0.122822
O O8 0.007400 0.801071 0.050764
O O9 0.871856 0.543044 0.428245
O O10 0.500000 0.750000 0.250000
O O11 0.462519 0.940610 0.291146
O O12 0.375000 0.375000 0.996656
#
# Coordination Sequence:
#
# PCOD8285963 Si02
#       6
#    16  32  32  16  32  32
#     4  10  19  42  66  94 132 173 222 268 342 396
#     4  11  25  43  68  95 138 185 218 282 343 411
#     4  11  19  39  72  98 133 172 225 288 339 402
#     4  12  20  40  72  98 128 171 229 280 344 398
#     4  11  24  43  64  99 140 176 234 284 345 421
#     4  12  24  43  66  96 134 179 227 281 345 408
#
# _framework density 21.106767999999999
#
# number of rings (size 3 to 8) (size 9 to 14) (size 15 to 20)
#    0.000    0.800    8.000    0.300    1.400    4.000 
#    0.000    9.000    0.000    0.000    0.000    0.000 
#    0.000    0.000    0.000    0.000    0.000    0.000 
#
# Total GULP energy -495821.701494 kJ/mol
# GULP energy per Si atom -12395.542537 kJ/mol
# Density = 2.105873 g / cm^3
# Si number density = 21.106768 Si / 1000 Ang^3
#
#
#
# Elastic Constant Matrix: (Units=GPa)
#
#
# Indices 1 2 3 4 5 6 
#
# 1 57.5134 22.7080 -3.6107 0.0000 0.0000 0.0000
# 2 22.7080 173.0556 66.7679 0.0000 0.0000 0.0000
# 3 -3.6107 66.7679 128.4622 0.0000 0.0000 0.0000
# 4 0.0000 0.0000 0.0000 33.8348 0.0000 0.0000
# 5 0.0000 0.0000 0.0000 0.0000 19.6128 0.0000
# 6 0.0000 0.0000 0.0000 0.0000 0.0000 7.0441
#
#
#
# Elastic Compliance Matrix: (Units=1/GPa)
#
#
# Indices 1 2 3 4 5 6 
#
# 1 0.018853 -0.003350 0.002271 0.000000 0.000000 0.000000
# 2 -0.003350 0.007823 -0.004160 0.000000 0.000000 0.000000
# 3 0.002271 -0.004160 0.010010 0.000000 0.000000 0.000000
# 4 0.000000 0.000000 0.000000 0.029555 0.000000 0.000000
# 5 0.000000 0.000000 0.000000 0.000000 0.050987 0.000000
# 6 0.000000 0.000000 0.000000 0.000000 0.000000 0.141963
#
#
# Mechanical properties :
#
#
# Convention : Reuss Voigt Hill
#
# Bulk Modulus (GPa) = 38.15658 58.97351 48.56505
# Shear Modulus (GPa) = 17.95938 30.30940 24.13439
#
# Velocity S-wave (km/s) = 2.92015 3.79358 3.38515
# Velocity P-wave (km/s) = 5.43018 6.86946 6.19178
#
# Compressibility (1/GPa) = 0.02620780
#
# Stress axis : x y z
#
# Youngs Moduli (GPa) = 53.04335 127.82564 99.89519
#
# Poissons Ratio (x) = 0.42822 -0.22687
# Poissons Ratio (y) = 0.17769 0.41559
# Poissons Ratio (z) = -0.12046 0.53178
#
# Static dielectric constant tensor:
#      x y z
#    x 3.861650 0.000000 0.000000 
#    y 0.000000 4.351460 0.000000 
#    z 0.000000 0.000000 4.833980 
# 
# 
# High freq. dielectric constant tensor:
#      x y z
#    x 1.806700 0.000000 0.000000 
#    y 0.000000 1.856240 0.000000 
#    z 0.000000 0.000000 1.820360 
# 
# From -- ./inp_files/57565.got.cif
#   From: 2010.03.12/outbox.cif.g09.slc.cpg/sg70_29_cif.got.tgz:57565.got - 2010.04.16 13:46:32.
