data_PCOD8285554
_publ_section_title
;
Structure prediction by ZEFSAII (Michael W. Deem and Ramdas Pophale) SiO2 
 PCOD8285554
Probable space group: F M M M
;
_chemical_formula_sum "Si O2"
_cell_formula_units_Z 160
_cell_length_a 9.392923
_cell_length_b 26.267051
_cell_length_c 33.588612
_cell_angle_alpha 90.000000
_cell_angle_beta 90.000000
_cell_angle_gamma 90.000000
_cell_volume 8287.129722
_symmetry_space_group_name_H-M "F M M M"
_symmetry_group_IT_number 69
_symmetry_cell_setting 'orthorhombic'
loop_
_space_group_symop_operation_xyz
x,y,z
-x,-y,z
x,-y,-z
-x,y,-z
-x,-y,-z
x,y,-z
-x,y,z
x,-y,z
x,1/2+y,1/2+z
-x,1/2-y,1/2+z
x,1/2-y,1/2-z
-x,1/2+y,1/2-z
-x,1/2-y,1/2-z
x,1/2+y,1/2-z
-x,1/2+y,1/2+z
x,1/2-y,1/2+z
1/2+x,y,1/2+z
1/2-x,-y,1/2+z
1/2+x,-y,1/2-z
1/2-x,y,1/2-z
1/2-x,-y,1/2-z
1/2+x,y,1/2-z
1/2-x,y,1/2+z
1/2+x,-y,1/2+z
1/2+x,1/2+y,z
1/2-x,1/2-y,z
1/2+x,1/2-y,-z
1/2-x,1/2+y,-z
1/2-x,1/2-y,-z
1/2+x,1/2+y,-z
1/2-x,1/2+y,z
1/2+x,1/2-y,z
loop_
_atom_site_type_symbol
_atom_site_label
_atom_site_fract_x
_atom_site_fract_y
_atom_site_fract_z
Si Si1 0.827128 0.800209 0.618841
Si Si2 0.000000 0.557063 0.196988
Si Si3 0.732566 0.096417 0.343373
Si Si4 0.167771 0.160525 0.955091
Si Si5 0.839058 0.554791 0.572860
Si Si6 0.500000 0.062112 0.714627
O O1 0.750000 0.750000 0.636138
O O2 0.770647 0.845112 0.647067
O O3 0.767831 0.806661 0.573773
O O4 0.000000 0.796346 0.618721
O O5 0.126795 0.567594 0.167669
O O6 0.000000 0.500000 0.211339
O O7 0.000000 0.584046 0.240137
O O8 0.662656 0.068742 0.380750
O O9 0.633887 0.089430 0.305277
O O10 0.224144 0.101817 0.952392
O O11 0.000000 0.164341 0.942421
O O12 0.189313 0.180249 0.000000
O O13 0.760404 0.500000 0.565184
O O14 0.000000 0.547645 0.559236
O O15 0.500000 0.000000 0.709765
#
# Coordination Sequence:
#
# PCOD8285554 Si02
#       6
#    32  16  32  32  32  16
#     4  11  24  41  64  87 109 151 199 247 301 345
#     4  11  22  36  57  91 128 157 189 233 283 343
#     4  11  21  37  57  87 121 155 196 243 286 341
#     4   9  19  35  56  86 121 152 189 239 290 343
#     4   9  16  28  51  80 112 156 199 230 270 330
#     4  11  22  36  61  91 122 163 195 225 281 343
#
# _framework density 19.307046
#
# number of rings (size 3 to 8) (size 9 to 14) (size 15 to 20)
#    0.000    1.800    2.000    3.000    2.800    2.800 
#    0.000    2.000    0.000    3.600    0.000    2.800 
#    0.000    0.000    0.000    0.000    0.000    0.000 
#
# Total GULP energy -495544.936531 kJ/mol
# GULP energy per Si atom -12388.623413 kJ/mol
# Density = 1.926310 g / cm^3
# Si number density = 19.307046 Si / 1000 Ang^3
#
#
#
# Elastic Constant Matrix: (Units=GPa)
#
#
# Indices 1 2 3 4 5 6 
#
# 1 84.1008 37.0696 4.7953 0.0000 0.0000 0.0000
# 2 37.0696 101.0756 16.5649 0.0000 0.0000 0.0000
# 3 4.7953 16.5649 57.7753 0.0000 0.0000 0.0000
# 4 0.0000 0.0000 0.0000 16.7980 0.0000 0.0000
# 5 0.0000 0.0000 0.0000 0.0000 95.0003 0.0000
# 6 0.0000 0.0000 0.0000 0.0000 0.0000 28.7956
#
#
#
# Elastic Compliance Matrix: (Units=1/GPa)
#
#
# Indices 1 2 3 4 5 6 
#
# 1 0.014189 -0.005258 0.000330 0.000000 0.000000 0.000000
# 2 -0.005258 0.012330 -0.003099 0.000000 0.000000 0.000000
# 3 0.000330 -0.003099 0.018170 0.000000 0.000000 0.000000
# 4 0.000000 0.000000 0.000000 0.059531 0.000000 0.000000
# 5 0.000000 0.000000 0.000000 0.000000 0.010526 0.000000
# 6 0.000000 0.000000 0.000000 0.000000 0.000000 0.034728
#
#
# Mechanical properties :
#
#
# Convention : Reuss Voigt Hill
#
# Bulk Modulus (GPa) = 34.92248 39.97905 37.45077
# Shear Modulus (GPa) = 28.55964 40.42021 34.48993
#
# Velocity S-wave (km/s) = 3.85025 4.58049 4.23116
# Velocity P-wave (km/s) = 6.15574 6.98044 6.58102
#
# Compressibility (1/GPa) = 0.02863485
#
# Stress axis : x y z
#
# Youngs Moduli (GPa) = 70.47565 81.10428 55.03726
#
# Poissons Ratio (x) = 0.42645 -0.01815
# Poissons Ratio (y) = 0.37056 0.17054
# Poissons Ratio (z) = -0.02324 0.25132
#
# Static dielectric constant tensor:
#      x y z
#    x -6.194660 0.000000 0.000000 
#    y 0.000000 3.887270 0.000000 
#    z 0.000000 0.000000 3.423860 
# 
# 
# High freq. dielectric constant tensor:
#      x y z
#    x 1.740480 0.000000 0.000000 
#    y 0.000000 1.753140 0.000000 
#    z 0.000000 0.000000 1.743370 
# 
# From -- ./inp_files/44593.got.cif
#   From: 2010.03.12/outbox.cif.g09.slc.cpg/sg69_23_cif.got.tgz:44593.got - 2010.04.10 23:52:46.
