data_PCOD8285555
_publ_section_title
;
Structure prediction by ZEFSAII (Michael W. Deem and Ramdas Pophale) SiO2 
 PCOD8285555
Probable space group: F M M M
;
_chemical_formula_sum "Si O2"
_cell_formula_units_Z 160
_cell_length_a 18.025049
_cell_length_b 22.637550
_cell_length_c 20.008353
_cell_angle_alpha 90.000000
_cell_angle_beta 90.000000
_cell_angle_gamma 90.000000
_cell_volume 8164.267343
_symmetry_space_group_name_H-M "F M M M"
_symmetry_group_IT_number 69
_symmetry_cell_setting 'orthorhombic'
loop_
_space_group_symop_operation_xyz
x,y,z
-x,-y,z
x,-y,-z
-x,y,-z
-x,-y,-z
x,y,-z
-x,y,z
x,-y,z
x,1/2+y,1/2+z
-x,1/2-y,1/2+z
x,1/2-y,1/2-z
-x,1/2+y,1/2-z
-x,1/2-y,1/2-z
x,1/2+y,1/2-z
-x,1/2+y,1/2+z
x,1/2-y,1/2+z
1/2+x,y,1/2+z
1/2-x,-y,1/2+z
1/2+x,-y,1/2-z
1/2-x,y,1/2-z
1/2-x,-y,1/2-z
1/2+x,y,1/2-z
1/2-x,y,1/2+z
1/2+x,-y,1/2+z
1/2+x,1/2+y,z
1/2-x,1/2-y,z
1/2+x,1/2-y,-z
1/2-x,1/2+y,-z
1/2-x,1/2-y,-z
1/2+x,1/2+y,-z
1/2-x,1/2+y,z
1/2+x,1/2-y,z
loop_
_atom_site_type_symbol
_atom_site_label
_atom_site_fract_x
_atom_site_fract_y
_atom_site_fract_z
Si Si1 0.324255 0.172348 0.000000
Si Si2 0.417721 0.681406 0.260672
Si Si3 0.185550 0.620689 0.861172
Si Si4 0.672792 0.500000 0.289320
Si Si5 0.412336 0.000000 0.655668
Si Si6 0.349325 0.195340 0.500000
Si Si7 0.140960 0.874680 0.870538
O O1 0.343928 0.132402 0.064018
O O2 0.369105 0.234701 0.000000
O O3 0.238109 0.187075 0.000000
O O4 0.500000 0.664708 0.286930
O O5 0.410193 0.750000 0.250000
O O6 0.355408 0.666710 0.314088
O O7 0.406252 0.646861 0.191921
O O8 0.164815 0.555235 0.838261
O O9 0.272551 0.632952 0.854436
O O10 0.750000 0.500000 0.250000
O O11 0.607765 0.500000 0.234509
O O12 0.377456 0.056432 0.617762
O O13 0.500000 0.000000 0.647999
O O14 0.383371 0.163662 0.434739
#
# Coordination Sequence:
#
# PCOD8285555 Si02
#       7
#    16  32  32  16  16  16  32
#     4   9  20  37  58  92 119 161 201 253 307 358
#     4  11  23  37  56  86 120 157 205 255 309 368
#     4  11  21  37  63  87 123 157 207 256 303 362
#     4  12  20  37  59  93 123 158 206 254 304 360
#     4  12  24  39  60  89 126 159 198 250 309 371
#     4   9  20  37  59  86 126 155 204 251 302 361
#     4  11  21  38  61  88 117 161 202 253 303 367
#
# _framework density 19.597594999999998
#
# number of rings (size 3 to 8) (size 9 to 14) (size 15 to 20)
#    0.000    1.200    4.000    2.400    0.000    4.000 
#    0.000    6.000    0.000    4.800    0.000    2.100 
#    0.000    0.000    0.000    0.000    0.000    0.000 
#
# Total GULP energy -496099.828339 kJ/mol
# GULP energy per Si atom -12402.495708 kJ/mol
# Density = 1.955299 g / cm^3
# Si number density = 19.597595 Si / 1000 Ang^3
#
#
#
# Elastic Constant Matrix: (Units=GPa)
#
#
# Indices 1 2 3 4 5 6 
#
# 1 102.6121 38.1616 36.1019 0.0000 0.0000 0.0000
# 2 38.1616 129.0062 56.9346 0.0000 0.0000 0.0000
# 3 36.1019 56.9346 126.1796 0.0000 0.0000 0.0000
# 4 0.0000 0.0000 0.0000 36.0393 0.0000 0.0000
# 5 0.0000 0.0000 0.0000 0.0000 -182.2090 0.0000
# 6 0.0000 0.0000 0.0000 0.0000 0.0000 26.5460
#
#
#
# Elastic Compliance Matrix: (Units=1/GPa)
#
#
# Indices 1 2 3 4 5 6 
#
# 1 0.011409 -0.002415 -0.002174 0.000000 0.000000 0.000000
# 2 -0.002415 0.010190 -0.003907 0.000000 0.000000 0.000000
# 3 -0.002174 -0.003907 0.010310 0.000000 0.000000 0.000000
# 4 0.000000 0.000000 0.000000 0.027748 0.000000 0.000000
# 5 0.000000 0.000000 0.000000 0.000000 -0.005488 0.000000
# 6 0.000000 0.000000 0.000000 0.000000 0.000000 0.037670
#
#
# Mechanical properties :
#
#
# Convention : Reuss Voigt Hill
#
# Bulk Modulus (GPa) = 67.04220 68.91046 67.97633
# Shear Modulus (GPa) = 43.93506 -8.81810 17.55848
#
# Velocity S-wave (km/s) = 4.73996 -2.12352 2.99649
# Velocity P-wave (km/s) = 8.01499 5.40616 6.83618
#
# Compressibility (1/GPa) = 0.01491598
#
# Stress axis : x y z
#
# Youngs Moduli (GPa) = 87.65258 98.13242 96.99059
#
# Poissons Ratio (x) = 0.23701 0.21090
# Poissons Ratio (y) = 0.21170 0.37895
# Poissons Ratio (z) = 0.19059 0.38341
#
# Static dielectric constant tensor:
#      x y z
#    x 3.479810 0.000000 0.000000 
#    y 0.000000 3.817330 0.000000 
#    z 0.000000 0.000000 3.837860 
# 
# 
# High freq. dielectric constant tensor:
#      x y z
#    x 1.747340 0.000000 0.000000 
#    y 0.000000 1.780040 0.000000 
#    z 0.000000 0.000000 1.761340 
# 
# From -- ./inp_files/30874.got.cif
#   From: 2010.03.12/outbox.cif.g09.slc.cpg/sg69_16_cif.got.tgz:30874.got - 2010.04.10 23:52:46.
