data_PCOD8285789
_publ_section_title
;
Structure prediction by ZEFSAII (Michael W. Deem and Ramdas Pophale) SiO2 
 PCOD8285789
Probable space group: F D D D
;
_chemical_formula_sum "Si O2"
_cell_formula_units_Z 176
_cell_length_a 27.109918
_cell_length_b 14.445715
_cell_length_c 20.343280
_cell_angle_alpha 90.000000
_cell_angle_beta 90.000000
_cell_angle_gamma 90.000000
_cell_volume 7966.879033
_symmetry_space_group_name_H-M "F D D D"
_symmetry_group_IT_number 70
_space_group.IT_coordinate_system_code '2'
_symmetry_cell_setting 'orthorhombic'
loop_
_space_group_symop_operation_xyz
x,y,z
1/4-x,1/4-y,z
x,1/4-y,1/4-z
1/4-x,y,1/4-z
-x,-y,-z
3/4+x,3/4+y,-z
-x,3/4+y,3/4+z
3/4+x,-y,3/4+z
x,1/2+y,1/2+z
1/4-x,3/4-y,1/2+z
x,3/4-y,3/4-z
1/4-x,1/2+y,3/4-z
-x,1/2-y,1/2-z
3/4+x,1/4+y,1/2-z
-x,1/4+y,1/4+z
3/4+x,1/2-y,1/4+z
1/2+x,y,1/2+z
3/4-x,1/4-y,1/2+z
1/2+x,1/4-y,3/4-z
3/4-x,y,3/4-z
1/2-x,-y,1/2-z
1/4+x,3/4+y,1/2-z
1/2-x,3/4+y,1/4+z
1/4+x,-y,1/4+z
1/2+x,1/2+y,z
3/4-x,3/4-y,z
1/2+x,3/4-y,1/4-z
3/4-x,1/2+y,1/4-z
1/2-x,1/2-y,-z
1/4+x,1/4+y,-z
1/2-x,1/4+y,3/4+z
1/4+x,1/2-y,3/4+z
loop_
_atom_site_type_symbol
_atom_site_label
_atom_site_fract_x
_atom_site_fract_y
_atom_site_fract_z
Si Si1 0.729028 0.420516 0.504012
Si Si2 0.522176 0.931359 0.096419
Si Si3 0.247193 0.875000 0.875000
Si Si4 0.323175 0.334138 0.187435
Si Si5 0.088247 0.451856 0.425987
Si Si6 0.063560 0.451581 0.753872
O O1 0.724686 0.392142 0.579820
O O2 0.691576 0.505557 0.489604
O O3 0.712406 0.332682 0.460447
O O4 0.784169 0.454527 0.482489
O O5 0.467934 0.914123 0.065155
O O6 0.531147 0.042499 0.095030
O O7 0.562235 0.877027 0.052597
O O8 0.213304 0.830832 0.819720
O O9 0.375000 0.375000 0.211040
O O10 0.326696 0.295152 0.113094
O O11 0.108446 0.375000 0.375000
O O12 0.129524 0.472476 0.481086
#
# Coordination Sequence:
#
# PCOD8285789 Si02
#       6
#    32  32  16  32  32  32
#     4   9  21  36  54  86 118 145 191 247 305 357
#     4  10  21  35  54  84 120 153 193 243 310 363
#     4  10  18  34  54  83 110 156 196 240 287 362
#     4  10  20  36  61  87 111 153 207 249 288 366
#     4  10  20  37  60  83 112 153 203 254 292 354
#     4  10  19  35  60  81 115 158 195 245 300 367
#
# _framework density 22.091460000000001
#
# number of rings (size 3 to 8) (size 9 to 14) (size 15 to 20)
#    0.000    2.182    0.909    2.727    2.545    1.455 
#    0.000    0.000    0.000    0.000    0.000    3.818 
#    0.000    0.000    0.000    0.000    0.000    0.000 
#
# Total GULP energy -545531.578402 kJ/mol
# GULP energy per Si atom -12398.444964 kJ/mol
# Density = 2.204118 g / cm^3
# Si number density = 22.091460 Si / 1000 Ang^3
#
#
#
# Elastic Constant Matrix: (Units=GPa)
#
#
# Indices 1 2 3 4 5 6 
#
# 1 86.1375 17.4946 18.2740 0.0000 0.0000 0.0000
# 2 17.4946 35.2667 1.3649 0.0000 0.0000 0.0000
# 3 18.2740 1.3649 65.2303 0.0000 0.0000 0.0000
# 4 0.0000 0.0000 0.0000 31.2750 0.0000 0.0000
# 5 0.0000 0.0000 0.0000 0.0000 35.7069 0.0000
# 6 0.0000 0.0000 0.0000 0.0000 0.0000 16.2647
#
#
#
# Elastic Compliance Matrix: (Units=1/GPa)
#
#
# Indices 1 2 3 4 5 6 
#
# 1 0.013754 -0.006679 -0.003713 0.000000 0.000000 0.000000
# 2 -0.006679 0.031622 0.001209 0.000000 0.000000 0.000000
# 3 -0.003713 0.001209 0.016345 0.000000 0.000000 0.000000
# 4 0.000000 0.000000 0.000000 0.031974 0.000000 0.000000
# 5 0.000000 0.000000 0.000000 0.000000 0.028006 0.000000
# 6 0.000000 0.000000 0.000000 0.000000 0.000000 0.061483
#
#
# Mechanical properties :
#
#
# Convention : Reuss Voigt Hill
#
# Bulk Modulus (GPa) = 23.06538 28.98904 26.02721
# Shear Modulus (GPa) = 23.14804 26.61606 24.88205
#
# Velocity S-wave (km/s) = 3.24053 3.47481 3.35971
# Velocity P-wave (km/s) = 4.94620 5.40831 5.18241
#
# Compressibility (1/GPa) = 0.04335502
#
# Stress axis : x y z
#
# Youngs Moduli (GPa) = 72.70820 31.62378 61.17985
#
# Poissons Ratio (x) = 0.21121 0.22718
# Poissons Ratio (y) = 0.48562 -0.07399
# Poissons Ratio (z) = 0.26998 -0.03825
#
# Static dielectric constant tensor:
#      x y z
#    x 3.813050 0.000000 0.000000 
#    y 0.000000 4.090800 0.000000 
#    z 0.000000 0.000000 4.052140 
# 
# 
# High freq. dielectric constant tensor:
#      x y z
#    x 1.841160 0.000000 0.000000 
#    y 0.000000 1.860650 0.000000 
#    z 0.000000 0.000000 1.868620 
# 
# From -- ./inp_files/54326.got.cif
#   From: 2010.03.12/outbox.cif.g09.slc.cpg/sg70_28_cif.got.tgz:54326.got - 2010.04.16 13:46:32.
