data_PCOD8285500
_publ_section_title
;
Structure prediction by ZEFSAII (Michael W. Deem and Ramdas Pophale) SiO2 
 PCOD8285500
Probable space group: F M M M
;
_chemical_formula_sum "Si O2"
_cell_formula_units_Z 160
_cell_length_a 12.921214
_cell_length_b 26.404985
_cell_length_c 25.958551
_cell_angle_alpha 90.000000
_cell_angle_beta 90.000000
_cell_angle_gamma 90.000000
_cell_volume 8856.654253
_symmetry_space_group_name_H-M "F M M M"
_symmetry_group_IT_number 69
_symmetry_cell_setting 'orthorhombic'
loop_
_space_group_symop_operation_xyz
x,y,z
-x,-y,z
x,-y,-z
-x,y,-z
-x,-y,-z
x,y,-z
-x,y,z
x,-y,z
x,1/2+y,1/2+z
-x,1/2-y,1/2+z
x,1/2-y,1/2-z
-x,1/2+y,1/2-z
-x,1/2-y,1/2-z
x,1/2+y,1/2-z
-x,1/2+y,1/2+z
x,1/2-y,1/2+z
1/2+x,y,1/2+z
1/2-x,-y,1/2+z
1/2+x,-y,1/2-z
1/2-x,y,1/2-z
1/2-x,-y,1/2-z
1/2+x,y,1/2-z
1/2-x,y,1/2+z
1/2+x,-y,1/2+z
1/2+x,1/2+y,z
1/2-x,1/2-y,z
1/2+x,1/2-y,-z
1/2-x,1/2+y,-z
1/2-x,1/2-y,-z
1/2+x,1/2+y,-z
1/2-x,1/2+y,z
1/2+x,1/2-y,z
loop_
_atom_site_type_symbol
_atom_site_label
_atom_site_fract_x
_atom_site_fract_y
_atom_site_fract_z
Si Si1 0.699252 0.391259 0.199872
Si Si2 0.000000 0.222315 0.335156
Si Si3 0.119400 0.839733 0.941003
Si Si4 0.618989 0.555392 0.105955
Si Si5 0.500000 0.325933 0.222443
Si Si6 0.717471 0.302422 0.640888
O O1 0.750000 0.416992 0.250000
O O2 0.683571 0.434942 0.157954
O O3 0.595842 0.361740 0.212171
O O4 0.779132 0.349271 0.179316
O O5 0.000000 0.281905 0.320893
O O6 0.000000 0.193548 0.280552
O O7 0.903844 0.205867 0.371624
O O8 0.139751 0.900143 0.935211
O O9 0.205537 0.809756 0.908045
O O10 0.000000 0.827047 0.924018
O O11 0.136388 0.824568 0.000000
O O12 0.500000 0.554831 0.122058
O O13 0.651378 0.500000 0.083470
O O14 0.750000 0.250000 0.669275
#
# Coordination Sequence:
#
# PCOD8285500 Si02
#       6
#    32  16  32  32  16  32
#     4  11  20  32  49  73 107 144 179 212 255 303
#     4  11  22  32  49  76 110 143 190 217 245 297
#     4   9  20  38  57  77 103 134 171 220 278 327
#     4   9  18  32  53  78 102 131 169 217 272 323
#     4  11  20  32  47  72 108 147 180 217 247 293
#     4  11  22  32  51  76 105 141 179 218 257 303
#
# _framework density 18.065512999999999
#
# number of rings (size 3 to 8) (size 9 to 14) (size 15 to 20)
#    0.000    1.800    5.000    0.000    2.800    1.600 
#    0.000    2.500    0.000    0.000    0.000    6.300 
#    0.000    6.400    0.000    0.000    0.000    0.000 
#
# Total GULP energy -495580.330463 kJ/mol
# GULP energy per Si atom -12389.508262 kJ/mol
# Density = 1.802439 g / cm^3
# Si number density = 18.065513 Si / 1000 Ang^3
#
#
#
# Elastic Constant Matrix: (Units=GPa)
#
#
# Indices 1 2 3 4 5 6 
#
# 1 117.0638 18.5688 29.2472 0.0000 0.0000 0.0000
# 2 18.5688 55.6344 -2.1224 0.0000 0.0000 0.0000
# 3 29.2472 -2.1224 65.5869 0.0000 0.0000 0.0000
# 4 0.0000 0.0000 0.0000 12.4514 0.0000 0.0000
# 5 0.0000 0.0000 0.0000 0.0000 27.8902 0.0000
# 6 0.0000 0.0000 0.0000 0.0000 0.0000 15.6266
#
#
#
# Elastic Compliance Matrix: (Units=1/GPa)
#
#
# Indices 1 2 3 4 5 6 
#
# 1 0.010291 -0.003614 -0.004706 0.000000 0.000000 0.000000
# 2 -0.003614 0.019266 0.002235 0.000000 0.000000 0.000000
# 3 -0.004706 0.002235 0.017418 0.000000 0.000000 0.000000
# 4 0.000000 0.000000 0.000000 0.080312 0.000000 0.000000
# 5 0.000000 0.000000 0.000000 0.000000 0.035855 0.000000
# 6 0.000000 0.000000 0.000000 0.000000 0.000000 0.063993
#
#
# Mechanical properties :
#
#
# Convention : Reuss Voigt Hill
#
# Bulk Modulus (GPa) = 28.73181 36.63026 32.68103
# Shear Modulus (GPa) = 19.92758 24.03308 21.98033
#
# Velocity S-wave (km/s) = 3.32486 3.65132 3.49191
# Velocity P-wave (km/s) = 5.53880 6.17224 5.86408
#
# Compressibility (1/GPa) = 0.03480463
#
# Stress axis : x y z
#
# Youngs Moduli (GPa) = 97.16762 51.90454 57.41208
#
# Poissons Ratio (x) = 0.18761 0.27020
# Poissons Ratio (y) = 0.35121 -0.12833
# Poissons Ratio (z) = 0.45730 -0.11602
#
# Static dielectric constant tensor:
#      x y z
#    x 3.367750 0.000000 0.000000 
#    y 0.000000 3.410530 0.000000 
#    z 0.000000 0.000000 3.186150 
# 
# 
# High freq. dielectric constant tensor:
#      x y z
#    x 1.695880 0.000000 0.000000 
#    y 0.000000 1.691370 0.000000 
#    z 0.000000 0.000000 1.679350 
# 
# From -- ./inp_files/11506.got.cif
#   From: 2010.03.12/outbox.cif.g09.slc.cpg/sg69_6_cif.got.tgz:11506.got - 2010.04.10 23:52:46.
