data_PCOD8285139
_publ_section_title
;
Structure prediction by ZEFSAII (Michael W. Deem and Ramdas Pophale) SiO2 
 PCOD8285139
Probable space group: F M M M
;
_chemical_formula_sum "Si O2"
_cell_formula_units_Z 144
_cell_length_a 20.489896
_cell_length_b 17.324797
_cell_length_c 22.885874
_cell_angle_alpha 90.000000
_cell_angle_beta 90.000000
_cell_angle_gamma 90.000000
_cell_volume 8124.102818
_symmetry_space_group_name_H-M "F M M M"
_symmetry_group_IT_number 69
_symmetry_cell_setting 'orthorhombic'
loop_
_space_group_symop_operation_xyz
x,y,z
-x,-y,z
x,-y,-z
-x,y,-z
-x,-y,-z
x,y,-z
-x,y,z
x,-y,z
x,1/2+y,1/2+z
-x,1/2-y,1/2+z
x,1/2-y,1/2-z
-x,1/2+y,1/2-z
-x,1/2-y,1/2-z
x,1/2+y,1/2-z
-x,1/2+y,1/2+z
x,1/2-y,1/2+z
1/2+x,y,1/2+z
1/2-x,-y,1/2+z
1/2+x,-y,1/2-z
1/2-x,y,1/2-z
1/2-x,-y,1/2-z
1/2+x,y,1/2-z
1/2-x,y,1/2+z
1/2+x,-y,1/2+z
1/2+x,1/2+y,z
1/2-x,1/2-y,z
1/2+x,1/2-y,-z
1/2-x,1/2+y,-z
1/2-x,1/2-y,-z
1/2+x,1/2+y,-z
1/2-x,1/2+y,z
1/2+x,1/2-y,z
loop_
_atom_site_type_symbol
_atom_site_label
_atom_site_fract_x
_atom_site_fract_y
_atom_site_fract_z
Si Si1 0.178431 0.716695 0.933523
Si Si2 0.078300 0.500000 0.766274
Si Si3 0.924805 0.347243 0.431902
Si Si4 0.625059 0.914739 0.130750
Si Si5 0.577134 0.000000 0.365846
Si Si6 0.000000 0.408088 0.935322
O O1 0.250000 0.750000 0.929531
O O2 0.123484 0.778275 0.914275
O O3 0.180694 0.646268 0.886348
O O4 0.164607 0.688006 0.000000
O O5 0.107187 0.575965 0.800170
O O6 0.104292 0.500000 0.700482
O O7 0.000000 0.500000 0.771611
O O8 0.919592 0.366611 0.500000
O O9 0.898826 0.423077 0.398198
O O10 0.000000 0.326507 0.415033
O O11 0.563345 0.877646 0.097479
O O12 0.643440 0.000000 0.105728
O O13 0.500000 0.000000 0.364422
O O14 0.000000 0.500000 0.934813
O O15 0.000000 0.372492 0.000000
#
# Coordination Sequence:
#
# PCOD8285139 Si02
#       6
#    32  16  32  32  16  16
#     4  10  21  35  50  76 111 138 169 215 265 313
#     4   9  16  31  51  81 107 135 173 217 258 307
#     4   9  18  33  55  81 103 132 174 220 266 311
#     4   9  17  31  49  73 107 136 168 206 248 315
#     4   9  17  32  56  78 105 135 175 224 266 302
#     4   9  14  22  42  74  99 128 160 196 243 298
#
# _framework density 17.725034000000001
#
# number of rings (size 3 to 8) (size 9 to 14) (size 15 to 20)
#    0.667    2.111    1.111    1.000    1.556    2.667 
#    2.000    1.111    0.000    8.000    0.000    0.000 
#    0.000    0.000    0.000    0.000    0.000    0.000 
#
# Total GULP energy -446014.496189 kJ/mol
# GULP energy per Si atom -12389.291561 kJ/mol
# Density = 1.768469 g / cm^3
# Si number density = 17.725034 Si / 1000 Ang^3
#
#
#
# Elastic Constant Matrix: (Units=GPa)
#
#
# Indices 1 2 3 4 5 6 
#
# 1 60.9170 42.6490 25.6022 0.0000 0.0000 0.0000
# 2 42.6490 107.4637 50.8000 0.0000 0.0000 0.0000
# 3 25.6022 50.8000 95.8690 0.0000 0.0000 0.0000
# 4 0.0000 0.0000 0.0000 18.3954 0.0000 0.0000
# 5 0.0000 0.0000 0.0000 0.0000 15.9444 0.0000
# 6 0.0000 0.0000 0.0000 0.0000 0.0000 18.9015
#
#
#
# Elastic Compliance Matrix: (Units=1/GPa)
#
#
# Indices 1 2 3 4 5 6 
#
# 1 0.022947 -0.008285 -0.001738 0.000000 0.000000 0.000000
# 2 -0.008285 0.015407 -0.005951 0.000000 0.000000 0.000000
# 3 -0.001738 -0.005951 0.014049 0.000000 0.000000 0.000000
# 4 0.000000 0.000000 0.000000 0.054361 0.000000 0.000000
# 5 0.000000 0.000000 0.000000 0.000000 0.062718 0.000000
# 6 0.000000 0.000000 0.000000 0.000000 0.000000 0.052906
#
#
# Mechanical properties :
#
#
# Convention : Reuss Voigt Hill
#
# Bulk Modulus (GPa) = 48.89155 55.81688 52.35422
# Shear Modulus (GPa) = 19.14578 20.32818 19.73698
#
# Velocity S-wave (km/s) = 3.29014 3.39021 3.34055
# Velocity P-wave (km/s) = 6.48664 6.84715 6.66933
#
# Compressibility (1/GPa) = 0.02045343
#
# Stress axis : x y z
#
# Youngs Moduli (GPa) = 43.57891 64.90552 71.18190
#
# Poissons Ratio (x) = 0.53777 0.12369
# Poissons Ratio (y) = 0.36107 0.42363
# Poissons Ratio (z) = 0.07573 0.38628
#
# Static dielectric constant tensor:
#      x y z
#    x 3.118250 0.000000 0.000000 
#    y 0.000000 3.160370 0.000000 
#    z 0.000000 0.000000 3.282370 
# 
# 
# High freq. dielectric constant tensor:
#      x y z
#    x 1.664850 0.000000 0.000000 
#    y 0.000000 1.675590 0.000000 
#    z 0.000000 0.000000 1.667490 
# 
# From -- ./inp_files/42657.got.cif
#   From: 2010.03.12/outbox.cif.g09.slc.cpg/sg69_22_cif.got.tgz:42657.got - 2010.04.10 23:52:46.
