data_PCOD8285153
_publ_section_title
;
Structure prediction by ZEFSAII (Michael W. Deem and Ramdas Pophale) SiO2 
 PCOD8285153
Probable space group: F M M M
;
_chemical_formula_sum "Si O2"
_cell_formula_units_Z 168
_cell_length_a 24.411817
_cell_length_b 22.494655
_cell_length_c 14.551380
_cell_angle_alpha 90.000000
_cell_angle_beta 90.000000
_cell_angle_gamma 90.000000
_cell_volume 7990.677896
_symmetry_space_group_name_H-M "F M M M"
_symmetry_group_IT_number 69
_symmetry_cell_setting 'orthorhombic'
loop_
_space_group_symop_operation_xyz
x,y,z
-x,-y,z
x,-y,-z
-x,y,-z
-x,-y,-z
x,y,-z
-x,y,z
x,-y,z
x,1/2+y,1/2+z
-x,1/2-y,1/2+z
x,1/2-y,1/2-z
-x,1/2+y,1/2-z
-x,1/2-y,1/2-z
x,1/2+y,1/2-z
-x,1/2+y,1/2+z
x,1/2-y,1/2+z
1/2+x,y,1/2+z
1/2-x,-y,1/2+z
1/2+x,-y,1/2-z
1/2-x,y,1/2-z
1/2-x,-y,1/2-z
1/2+x,y,1/2-z
1/2-x,y,1/2+z
1/2+x,-y,1/2+z
1/2+x,1/2+y,z
1/2-x,1/2-y,z
1/2+x,1/2-y,-z
1/2-x,1/2+y,-z
1/2-x,1/2-y,-z
1/2+x,1/2+y,-z
1/2-x,1/2+y,z
1/2+x,1/2-y,z
loop_
_atom_site_type_symbol
_atom_site_label
_atom_site_fract_x
_atom_site_fract_y
_atom_site_fract_z
Si Si1 0.128527 0.395715 0.104030
Si Si2 0.250000 0.250000 0.750000
Si Si3 0.669063 0.272916 0.603379
Si Si4 0.437061 0.567819 0.227847
Si Si5 0.248749 0.066546 0.391353
Si Si6 0.353504 0.362144 0.893088
O O1 0.122635 0.323750 0.108841
O O2 0.083088 0.425620 0.167333
O O3 0.188954 0.412664 0.141640
O O4 0.119475 0.418842 0.000000
O O5 0.285877 0.290245 0.680208
O O6 0.695140 0.273940 0.500000
O O7 0.644845 0.208293 0.626297
O O8 0.500000 0.587155 0.223599
O O9 0.429272 0.500000 0.195917
O O10 0.404340 0.610221 0.159838
O O11 0.249507 0.068223 0.500000
O O12 0.296601 0.110196 0.354636
O O13 0.260462 0.000000 0.354279
O O14 0.361144 0.376589 0.000000
#
# Coordination Sequence:
#
# PCOD8285153 Si02
#       6
#    32   8  32  32  32  32
#     4  10  21  39  60  85 121 157 193 242 295 350
#     4  12  18  28  52  82 128 168 186 228 284 334
#     4  10  21  35  55  86 120 160 204 239 289 358
#     4  11  25  42  61  87 114 148 199 247 296 362
#     4   9  17  30  53  84 115 151 190 227 278 342
#     4  10  21  39  60  85 121 157 193 242 295 350
#
# _framework density 21.0245
#
# number of rings (size 3 to 8) (size 9 to 14) (size 15 to 20)
#    0.000    1.905    0.000    3.714    0.000    6.857 
#    0.000    5.714    0.000    3.429    0.000    0.000 
#    0.000    0.000    0.000    0.000    0.000    0.000 
#
# Total GULP energy -520688.430986 kJ/mol
# GULP energy per Si atom -12397.343595 kJ/mol
# Density = 2.097665 g / cm^3
# Si number density = 21.024500 Si / 1000 Ang^3
#
#
#
# Elastic Constant Matrix: (Units=GPa)
#
#
# Indices 1 2 3 4 5 6 
#
# 1 119.8712 50.9819 42.9883 0.0000 0.0000 0.0000
# 2 50.9819 116.0646 13.9005 0.0000 0.0000 0.0000
# 3 42.9883 13.9005 101.1654 0.0000 0.0000 0.0000
# 4 0.0000 0.0000 0.0000 21.6004 0.0000 0.0000
# 5 0.0000 0.0000 0.0000 0.0000 26.7417 0.0000
# 6 0.0000 0.0000 0.0000 0.0000 0.0000 18.5981
#
#
#
# Elastic Compliance Matrix: (Units=1/GPa)
#
#
# Indices 1 2 3 4 5 6 
#
# 1 0.011932 -0.004712 -0.004423 0.000000 0.000000 0.000000
# 2 -0.004712 0.010620 0.000543 0.000000 0.000000 0.000000
# 3 -0.004423 0.000543 0.011690 0.000000 0.000000 0.000000
# 4 0.000000 0.000000 0.000000 0.046295 0.000000 0.000000
# 5 0.000000 0.000000 0.000000 0.000000 0.037395 0.000000
# 6 0.000000 0.000000 0.000000 0.000000 0.000000 0.053769
#
#
# Mechanical properties :
#
#
# Convention : Reuss Voigt Hill
#
# Bulk Modulus (GPa) = 58.62051 61.42695 60.02373
# Shear Modulus (GPa) = 25.69747 28.67007 27.18377
#
# Velocity S-wave (km/s) = 3.49988 3.69677 3.59967
# Velocity P-wave (km/s) = 6.65393 6.89215 6.77409
#
# Compressibility (1/GPa) = 0.01705888
#
# Stress axis : x y z
#
# Youngs Moduli (GPa) = 83.80580 94.15770 85.54541
#
# Poissons Ratio (x) = 0.44363 0.37837
# Poissons Ratio (y) = 0.39486 -0.04644
# Poissons Ratio (z) = 0.37068 -0.05111
#
# Static dielectric constant tensor:
#      x y z
#    x 3.493410 0.000000 0.000000 
#    y 0.000000 3.992240 0.000000 
#    z 0.000000 0.000000 3.886410 
# 
# 
# High freq. dielectric constant tensor:
#      x y z
#    x 1.779280 0.000000 0.000000 
#    y 0.000000 1.837600 0.000000 
#    z 0.000000 0.000000 1.834160 
# 
# From -- ./inp_files/17903.got.cif
#   From: 2010.03.12/outbox.cif.g09.slc.cpg/sg69_9_cif.got.tgz:17903.got - 2010.04.10 23:52:46.
