data_PCOD8285616
_publ_section_title
;
Structure prediction by ZEFSAII (Michael W. Deem and Ramdas Pophale) SiO2 
 PCOD8285616
Probable space group: F M M M
;
_chemical_formula_sum "Si O2"
_cell_formula_units_Z 128
_cell_length_a 18.663439
_cell_length_b 20.070770
_cell_length_c 16.725436
_cell_angle_alpha 90.000000
_cell_angle_beta 90.000000
_cell_angle_gamma 90.000000
_cell_volume 6265.174240
_symmetry_space_group_name_H-M "F M M M"
_symmetry_group_IT_number 69
_symmetry_cell_setting 'orthorhombic'
loop_
_space_group_symop_operation_xyz
x,y,z
-x,-y,z
x,-y,-z
-x,y,-z
-x,-y,-z
x,y,-z
-x,y,z
x,-y,z
x,1/2+y,1/2+z
-x,1/2-y,1/2+z
x,1/2-y,1/2-z
-x,1/2+y,1/2-z
-x,1/2-y,1/2-z
x,1/2+y,1/2-z
-x,1/2+y,1/2+z
x,1/2-y,1/2+z
1/2+x,y,1/2+z
1/2-x,-y,1/2+z
1/2+x,-y,1/2-z
1/2-x,y,1/2-z
1/2-x,-y,1/2-z
1/2+x,y,1/2-z
1/2-x,y,1/2+z
1/2+x,-y,1/2+z
1/2+x,1/2+y,z
1/2-x,1/2-y,z
1/2+x,1/2-y,-z
1/2-x,1/2+y,-z
1/2-x,1/2-y,-z
1/2+x,1/2+y,-z
1/2-x,1/2+y,z
1/2+x,1/2-y,z
loop_
_atom_site_type_symbol
_atom_site_label
_atom_site_fract_x
_atom_site_fract_y
_atom_site_fract_z
Si Si1 0.120014 0.000000 0.590464
Si Si2 0.334503 0.244938 0.588703
Si Si3 0.221066 0.500000 0.403626
Si Si4 0.178045 0.623367 0.698245
Si Si5 0.580068 0.867539 0.159991
O O1 0.198225 0.000000 0.632442
O O2 0.074561 0.065956 0.607317
O O3 0.142699 0.000000 0.500000
O O4 0.365612 0.229089 0.500000
O O5 0.250000 0.250000 0.582115
O O6 0.350767 0.188208 0.652391
O O7 0.368464 0.313768 0.618936
O O8 0.212880 0.500000 0.500000
O O9 0.184748 0.434409 0.367284
O O10 0.250000 0.636646 0.750000
O O11 0.112623 0.607098 0.756685
O O12 0.500000 0.838144 0.170534
#
# Coordination Sequence:
#
# PCOD8285616 Si02
#       5
#    16  32  16  32  32
#     4  11  22  40  64  94 133 170 211 267 330 388
#     4  11  23  40  63  92 126 170 218 260 314 384
#     4  11  22  40  69 103 129 165 223 270 317 386
#     4  12  22  40  67  93 128 171 213 269 320 380
#     4  12  26  41  64  97 132 172 217 268 331 395
#
# _framework density 20.430396999999999
#
# number of rings (size 3 to 8) (size 9 to 14) (size 15 to 20)
#    0.000    0.500    5.000    3.750    0.000    8.500 
#    0.000    0.000    0.000    3.000    0.000    0.000 
#    0.000    0.000    0.000    0.000    0.000    0.000 
#
# Total GULP energy -396741.568118 kJ/mol
# GULP energy per Si atom -12398.174004 kJ/mol
# Density = 2.038390 g / cm^3
# Si number density = 20.430397 Si / 1000 Ang^3
#
#
#
# Elastic Constant Matrix: (Units=GPa)
#
#
# Indices 1 2 3 4 5 6 
#
# 1 111.1554 34.8127 39.9556 0.0000 0.0000 0.0000
# 2 34.8127 142.4610 51.2181 0.0000 0.0000 0.0000
# 3 39.9556 51.2181 119.5313 0.0000 0.0000 0.0000
# 4 0.0000 0.0000 0.0000 141.1067 0.0000 0.0000
# 5 0.0000 0.0000 0.0000 0.0000 -0.8091 0.0000
# 6 0.0000 0.0000 0.0000 0.0000 0.0000 14.7759
#
#
#
# Elastic Compliance Matrix: (Units=1/GPa)
#
#
# Indices 1 2 3 4 5 6 
#
# 1 0.010504 -0.001542 -0.002850 0.000000 0.000000 0.000000
# 2 -0.001542 0.008524 -0.003137 0.000000 0.000000 0.000000
# 3 -0.002850 -0.003137 0.010663 0.000000 0.000000 0.000000
# 4 0.000000 0.000000 0.000000 0.007087 0.000000 0.000000
# 5 0.000000 0.000000 0.000000 0.000000 -1.235927 0.000000
# 6 0.000000 0.000000 0.000000 0.000000 0.000000 0.067678
#
#
# Mechanical properties :
#
#
# Convention : Reuss Voigt Hill
#
# Bulk Modulus (GPa) = 68.34278 69.45781 68.90030
# Shear Modulus (GPa) = -4.49829 47.49211 21.49691
#
# Velocity S-wave (km/s) = -1.48544 4.82662 3.24729
# Velocity P-wave (km/s) = 5.53011 8.07049 6.91791
#
# Compressibility (1/GPa) = 0.01463212
#
# Stress axis : x y z
#
# Youngs Moduli (GPa) = 95.20220 117.31399 93.78213
#
# Poissons Ratio (x) = 0.18090 0.26732
# Poissons Ratio (y) = 0.14680 0.29420
# Poissons Ratio (z) = 0.27136 0.36802
#
# Static dielectric constant tensor:
#      x y z
#    x 3.624760 0.000000 0.000000 
#    y 0.000000 3.808690 0.000000 
#    z 0.000000 0.000000 4.011300 
# 
# 
# High freq. dielectric constant tensor:
#      x y z
#    x 1.776390 0.000000 0.000000 
#    y 0.000000 1.806800 0.000000 
#    z 0.000000 0.000000 1.815340 
# 
# From -- ./inp_files/16327.got.cif
#   From: 2010.03.12/outbox.cif.g09.slc.cpg/sg69_9_cif.got.tgz:16327.got - 2010.04.10 23:52:46.
