data_PCOD8285520
_publ_section_title
;
Structure prediction by ZEFSAII (Michael W. Deem and Ramdas Pophale) SiO2 
 PCOD8285520
Probable space group: F M M M
;
_chemical_formula_sum "Si O2"
_cell_formula_units_Z 144
_cell_length_a 16.311901
_cell_length_b 17.929644
_cell_length_c 28.168127
_cell_angle_alpha 90.000000
_cell_angle_beta 90.000000
_cell_angle_gamma 90.000000
_cell_volume 8238.235709
_symmetry_space_group_name_H-M "F M M M"
_symmetry_group_IT_number 69
_symmetry_cell_setting 'orthorhombic'
loop_
_space_group_symop_operation_xyz
x,y,z
-x,-y,z
x,-y,-z
-x,y,-z
-x,-y,-z
x,y,-z
-x,y,z
x,-y,z
x,1/2+y,1/2+z
-x,1/2-y,1/2+z
x,1/2-y,1/2-z
-x,1/2+y,1/2-z
-x,1/2-y,1/2-z
x,1/2+y,1/2-z
-x,1/2+y,1/2+z
x,1/2-y,1/2+z
1/2+x,y,1/2+z
1/2-x,-y,1/2+z
1/2+x,-y,1/2-z
1/2-x,y,1/2-z
1/2-x,-y,1/2-z
1/2+x,y,1/2-z
1/2-x,y,1/2+z
1/2+x,-y,1/2+z
1/2+x,1/2+y,z
1/2-x,1/2-y,z
1/2+x,1/2-y,-z
1/2-x,1/2+y,-z
1/2-x,1/2-y,-z
1/2+x,1/2+y,-z
1/2-x,1/2+y,z
1/2+x,1/2-y,z
loop_
_atom_site_type_symbol
_atom_site_label
_atom_site_fract_x
_atom_site_fract_y
_atom_site_fract_z
Si Si1 0.592464 0.587462 0.187885
Si Si2 0.176981 0.588971 0.946005
Si Si3 0.000000 0.580973 0.055926
Si Si4 0.743856 0.162350 0.360512
Si Si5 0.669094 0.918327 0.218825
O O1 0.500000 0.604347 0.170938
O O2 0.614839 0.500000 0.181277
O O3 0.654282 0.637067 0.157000
O O4 0.598961 0.608426 0.244181
O O5 0.178332 0.500000 0.940642
O O6 0.243840 0.625995 0.912035
O O7 0.086128 0.621221 0.930928
O O8 0.198460 0.611804 0.000000
O O9 0.000000 0.500000 0.080948
O O10 0.000000 0.568349 0.000000
O O11 0.750000 0.250000 0.365125
O O12 0.816790 0.137548 0.324787
O O13 0.750000 0.923352 0.250000
O O14 0.647861 0.000000 0.197573
#
# Coordination Sequence:
#
# PCOD8285520 Si02
#       5
#    32  32  16  32  32
#     4   9  18  35  57  76  99 135 178 219 253 294
#     4   9  17  32  54  75  97 130 173 217 256 299
#     4   7  12  26  48  72  92 113 151 205 259 296
#     4  11  21  32  47  76 108 140 166 203 259 319
#     4   8  15  30  50  68  91 126 171 211 240 280
#
# _framework density 17.479471
#
# number of rings (size 3 to 8) (size 9 to 14) (size 15 to 20)
#    0.000    3.000    0.000    4.667    0.000    4.444 
#    4.000    1.111    0.000    0.667    0.000    3.111 
#    0.000    0.000    0.000    0.000    0.000    0.000 
#
# Total GULP energy -445987.453713 kJ/mol
# GULP energy per Si atom -12388.540381 kJ/mol
# Density = 1.743969 g / cm^3
# Si number density = 17.479471 Si / 1000 Ang^3
#
#
#
# Elastic Constant Matrix: (Units=GPa)
#
#
# Indices 1 2 3 4 5 6 
#
# 1 90.6760 38.1435 45.6249 0.0000 0.0000 0.0000
# 2 38.1435 76.0321 49.6156 0.0000 0.0000 0.0000
# 3 45.6249 49.6156 103.0260 0.0000 0.0000 0.0000
# 4 0.0000 0.0000 0.0000 3.3972 0.0000 0.0000
# 5 0.0000 0.0000 0.0000 0.0000 21.1264 0.0000
# 6 0.0000 0.0000 0.0000 0.0000 0.0000 13.6385
#
#
#
# Elastic Compliance Matrix: (Units=1/GPa)
#
#
# Indices 1 2 3 4 5 6 
#
# 1 0.015278 -0.004739 -0.004484 0.000000 0.000000 0.000000
# 2 -0.004739 0.020650 -0.007846 0.000000 0.000000 0.000000
# 3 -0.004484 -0.007846 0.015470 0.000000 0.000000 0.000000
# 4 0.000000 0.000000 0.000000 0.294360 0.000000 0.000000
# 5 0.000000 0.000000 0.000000 0.000000 0.047334 0.000000
# 6 0.000000 0.000000 0.000000 0.000000 0.000000 0.073322
#
#
# Mechanical properties :
#
#
# Convention : Reuss Voigt Hill
#
# Bulk Modulus (GPa) = 57.93378 59.61134 58.77256
# Shear Modulus (GPa) = 9.87551 16.72245 13.29898
#
# Velocity S-wave (km/s) = 2.37950 3.09640 2.76131
# Velocity P-wave (km/s) = 6.38477 6.85283 6.62293
#
# Compressibility (1/GPa) = 0.01726109
#
# Stress axis : x y z
#
# Youngs Moduli (GPa) = 65.45530 48.42723 64.63974
#
# Poissons Ratio (x) = 0.22948 0.28982
# Poissons Ratio (y) = 0.31016 0.50716
# Poissons Ratio (z) = 0.29348 0.37996
#
# Static dielectric constant tensor:
#      x y z
#    x 3.455950 0.000000 0.000000 
#    y 0.000000 2.927960 0.000000 
#    z 0.000000 0.000000 3.237710 
# 
# 
# High freq. dielectric constant tensor:
#      x y z
#    x 1.665840 0.000000 0.000000 
#    y 0.000000 1.641940 0.000000 
#    z 0.000000 0.000000 1.663930 
# 
# From -- ./inp_files/23036.got.cif
#   From: 2010.03.12/outbox.cif.g09.slc.cpg/sg69_12_cif.got.tgz:23036.got - 2010.04.10 23:52:46.
