data_PCOD8285136
_publ_section_title
;
Structure prediction by ZEFSAII (Michael W. Deem and Ramdas Pophale) SiO2 
 PCOD8285136
Probable space group: F M M M
;
_chemical_formula_sum "Si O2"
_cell_formula_units_Z 144
_cell_length_a 12.794539
_cell_length_b 27.059982
_cell_length_c 22.412712
_cell_angle_alpha 90.000000
_cell_angle_beta 90.000000
_cell_angle_gamma 90.000000
_cell_volume 7759.729037
_symmetry_space_group_name_H-M "F M M M"
_symmetry_group_IT_number 69
_symmetry_cell_setting 'orthorhombic'
loop_
_space_group_symop_operation_xyz
x,y,z
-x,-y,z
x,-y,-z
-x,y,-z
-x,-y,-z
x,y,-z
-x,y,z
x,-y,z
x,1/2+y,1/2+z
-x,1/2-y,1/2+z
x,1/2-y,1/2-z
-x,1/2+y,1/2-z
-x,1/2-y,1/2-z
x,1/2+y,1/2-z
-x,1/2+y,1/2+z
x,1/2-y,1/2+z
1/2+x,y,1/2+z
1/2-x,-y,1/2+z
1/2+x,-y,1/2-z
1/2-x,y,1/2-z
1/2-x,-y,1/2-z
1/2+x,y,1/2-z
1/2-x,y,1/2+z
1/2+x,-y,1/2+z
1/2+x,1/2+y,z
1/2-x,1/2-y,z
1/2+x,1/2-y,-z
1/2-x,1/2+y,-z
1/2-x,1/2-y,-z
1/2+x,1/2+y,-z
1/2-x,1/2+y,z
1/2+x,1/2-y,z
loop_
_atom_site_type_symbol
_atom_site_label
_atom_site_fract_x
_atom_site_fract_y
_atom_site_fract_z
Si Si1 0.750000 0.092544 0.250000
Si Si2 0.623084 0.277104 0.661268
Si Si3 0.120728 0.555211 0.854533
Si Si4 0.624427 0.354571 0.566602
Si Si5 0.378163 0.323055 0.788554
O O1 0.822097 0.058542 0.291003
O O2 0.680898 0.125294 0.296682
O O3 0.500000 0.268195 0.656580
O O4 0.664580 0.306656 0.603464
O O5 0.644334 0.309590 0.719704
O O6 0.670830 0.221012 0.669122
O O7 0.136779 0.500000 0.880646
O O8 0.163825 0.594788 0.902425
O O9 0.000000 0.566499 0.841238
O O10 0.671898 0.351745 0.500000
O O11 0.500000 0.354622 0.564210
O O12 0.500000 0.330008 0.801995
#
# Coordination Sequence:
#
# PCOD8285136 Si02
#       5
#    16  32  32  32  32
#     4  12  19  29  50  70  94 128 166 194 242 286
#     4   8  14  27  43  66  96 123 156 190 226 274
#     4  10  21  35  48  68  98 125 158 204 246 289
#     4   9  16  29  50  71  95 128 159 192 238 287
#     4   9  17  28  45  68  97 127 157 195 230 278
#
# _framework density 18.557348999999999
#
# number of rings (size 3 to 8) (size 9 to 14) (size 15 to 20)
#    0.000    2.667    2.222    2.333    0.000    2.222 
#    0.000    2.222    0.000    2.667    0.000    0.000 
#    0.000    2.667    0.000   10.889    0.000    0.889 
#
# Total GULP energy -446213.216431 kJ/mol
# GULP energy per Si atom -12394.811568 kJ/mol
# Density = 1.851511 g / cm^3
# Si number density = 18.557349 Si / 1000 Ang^3
#
#
#
# Elastic Constant Matrix: (Units=GPa)
#
#
# Indices 1 2 3 4 5 6 
#
# 1 22.6268 20.5428 22.4325 0.0000 0.0000 0.0000
# 2 20.5428 92.1416 53.1342 0.0000 0.0000 0.0000
# 3 22.4325 53.1342 114.2726 0.0000 0.0000 0.0000
# 4 0.0000 0.0000 0.0000 20.5004 0.0000 0.0000
# 5 0.0000 0.0000 0.0000 0.0000 15.4802 0.0000
# 6 0.0000 0.0000 0.0000 0.0000 0.0000 21.0865
#
#
#
# Elastic Compliance Matrix: (Units=1/GPa)
#
#
# Indices 1 2 3 4 5 6 
#
# 1 0.059856 -0.008976 -0.007577 0.000000 0.000000 0.000000
# 2 -0.008976 0.016175 -0.005759 0.000000 0.000000 0.000000
# 3 -0.007577 -0.005759 0.012916 0.000000 0.000000 0.000000
# 4 0.000000 0.000000 0.000000 0.048779 0.000000 0.000000
# 5 0.000000 0.000000 0.000000 0.000000 0.064599 0.000000
# 6 0.000000 0.000000 0.000000 0.000000 0.000000 0.047424
#
#
# Mechanical properties :
#
#
# Convention : Reuss Voigt Hill
#
# Bulk Modulus (GPa) = 22.56090 46.80665 34.68378
# Shear Modulus (GPa) = 16.17356 20.27552 18.22454
#
# Velocity S-wave (km/s) = 2.95540 3.30902 3.13719
# Velocity P-wave (km/s) = 4.88156 6.31482 5.64387
#
# Compressibility (1/GPa) = 0.04432446
#
# Stress axis : x y z
#
# Youngs Moduli (GPa) = 16.70677 61.82408 77.42231
#
# Poissons Ratio (x) = 0.55491 0.58661
# Poissons Ratio (y) = 0.14995 0.44588
# Poissons Ratio (z) = 0.12658 0.35604
#
# Static dielectric constant tensor:
#      x y z
#    x 3.399210 0.000000 0.000000 
#    y 0.000000 3.515800 0.000000 
#    z 0.000000 0.000000 3.342260 
# 
# 
# High freq. dielectric constant tensor:
#      x y z
#    x 1.713920 0.000000 0.000000 
#    y 0.000000 1.721300 0.000000 
#    z 0.000000 0.000000 1.679300 
# 
# From -- ./inp_files/21763.got.cif
#   From: 2010.03.12/outbox.cif.g09.slc.cpg/sg69_11_cif.got.tgz:21763.got - 2010.04.10 23:52:46.
