data_PCOD8285131
_publ_section_title
;
Structure prediction by ZEFSAII (Michael W. Deem and Ramdas Pophale) SiO2 
 PCOD8285131
Probable space group: F M M M
;
_chemical_formula_sum "Si O2"
_cell_formula_units_Z 144
_cell_length_a 18.188231
_cell_length_b 32.247030
_cell_length_c 13.393401
_cell_angle_alpha 90.000000
_cell_angle_beta 90.000000
_cell_angle_gamma 90.000000
_cell_volume 7855.449750
_symmetry_space_group_name_H-M "F M M M"
_symmetry_group_IT_number 69
_symmetry_cell_setting 'orthorhombic'
loop_
_space_group_symop_operation_xyz
x,y,z
-x,-y,z
x,-y,-z
-x,y,-z
-x,-y,-z
x,y,-z
-x,y,z
x,-y,z
x,1/2+y,1/2+z
-x,1/2-y,1/2+z
x,1/2-y,1/2-z
-x,1/2+y,1/2-z
-x,1/2-y,1/2-z
x,1/2+y,1/2-z
-x,1/2+y,1/2+z
x,1/2-y,1/2+z
1/2+x,y,1/2+z
1/2-x,-y,1/2+z
1/2+x,-y,1/2-z
1/2-x,y,1/2-z
1/2-x,-y,1/2-z
1/2+x,y,1/2-z
1/2-x,y,1/2+z
1/2+x,-y,1/2+z
1/2+x,1/2+y,z
1/2-x,1/2-y,z
1/2+x,1/2-y,-z
1/2-x,1/2+y,-z
1/2-x,1/2-y,-z
1/2+x,1/2+y,-z
1/2-x,1/2+y,z
1/2+x,1/2-y,z
loop_
_atom_site_type_symbol
_atom_site_label
_atom_site_fract_x
_atom_site_fract_y
_atom_site_fract_z
Si Si1 0.167984 0.425800 0.275301
Si Si2 0.918872 0.701502 0.259769
Si Si3 0.087477 0.000000 0.882935
Si Si4 0.861029 0.360390 0.116280
Si Si5 0.305067 0.154181 0.387183
O O1 0.250000 0.442863 0.250000
O O2 0.116808 0.461162 0.320124
O O3 0.131352 0.403877 0.177278
O O4 0.171461 0.392422 0.363259
O O5 0.906494 0.750000 0.250000
O O6 0.915717 0.675471 0.155606
O O7 0.853437 0.686980 0.329208
O O8 0.000000 0.693268 0.305764
O O9 0.000000 0.000000 0.879295
O O10 0.113787 0.000000 0.000000
O O11 0.780691 0.341234 0.138559
O O12 0.875496 0.369785 0.000000
O O13 0.321629 0.164022 0.500000
#
# Coordination Sequence:
#
# PCOD8285131 Si02
#       5
#    32  32  16  32  32
#     4   9  18  35  56  78 104 135 171 210 255 308
#     4  10  21  34  48  72 107 142 174 210 255 310
#     4  11  23  36  53  81 113 139 166 207 258 308
#     4   9  19  36  57  78 100 132 175 219 260 303
#     4   9  18  34  56  78  99 128 171 219 262 304
#
# _framework density 18.331222
#
# number of rings (size 3 to 8) (size 9 to 14) (size 15 to 20)
#    0.000    2.556    0.000    3.000    0.000    8.000 
#    0.000    5.000    0.000    0.667    0.000    0.000 
#    0.000    0.000    0.000    0.000    0.000    0.000 
#
# Total GULP energy -446107.176001 kJ/mol
# GULP energy per Si atom -12391.866000 kJ/mol
# Density = 1.828950 g / cm^3
# Si number density = 18.331222 Si / 1000 Ang^3
#
#
#
# Elastic Constant Matrix: (Units=GPa)
#
#
# Indices 1 2 3 4 5 6 
#
# 1 73.6173 49.3776 47.6409 0.0000 0.0000 0.0000
# 2 49.3776 104.1235 61.0259 0.0000 0.0000 0.0000
# 3 47.6409 61.0259 93.4130 0.0000 0.0000 0.0000
# 4 0.0000 0.0000 0.0000 11.2926 0.0000 0.0000
# 5 0.0000 0.0000 0.0000 0.0000 -1.1784 0.0000
# 6 0.0000 0.0000 0.0000 0.0000 0.0000 46.1743
#
#
#
# Elastic Compliance Matrix: (Units=1/GPa)
#
#
# Indices 1 2 3 4 5 6 
#
# 1 0.022658 -0.006437 -0.007351 0.000000 0.000000 0.000000
# 2 -0.006437 0.017391 -0.008079 0.000000 0.000000 0.000000
# 3 -0.007351 -0.008079 0.019732 0.000000 0.000000 0.000000
# 4 0.000000 0.000000 0.000000 0.088553 0.000000 0.000000
# 5 0.000000 0.000000 0.000000 0.000000 -0.848640 0.000000
# 6 0.000000 0.000000 0.000000 0.000000 0.000000 0.021657
#
#
# Mechanical properties :
#
#
# Convention : Reuss Voigt Hill
#
# Bulk Modulus (GPa) = 62.31004 65.24919 63.77961
# Shear Modulus (GPa) = -7.94198 18.79834 5.42818
#
# Velocity S-wave (km/s) = -2.08372 3.20579 1.72267
# Velocity P-wave (km/s) = 5.31750 7.02671 6.23099
#
# Compressibility (1/GPa) = 0.01604878
#
# Stress axis : x y z
#
# Youngs Moduli (GPa) = 44.13449 57.49964 50.67974
#
# Poissons Ratio (x) = 0.37012 0.37252
# Poissons Ratio (y) = 0.28409 0.40943
# Poissons Ratio (z) = 0.32441 0.46453
#
# Static dielectric constant tensor:
#      x y z
#    x 3.529190 0.000000 0.000000 
#    y 0.000000 3.258430 0.000000 
#    z 0.000000 0.000000 3.594630 
# 
# 
# High freq. dielectric constant tensor:
#      x y z
#    x 1.711560 0.000000 0.000000 
#    y 0.000000 1.701700 0.000000 
#    z 0.000000 0.000000 1.713820 
# 
# From -- ./inp_files/15520.got.cif
#   From: 2010.03.12/outbox.cif.g09.slc.cpg/sg69_8_cif.got.tgz:15520.got - 2010.04.10 23:52:46.
