data_PCOD8285453
_publ_section_title
;
Structure prediction by ZEFSAII (Michael W. Deem and Ramdas Pophale) SiO2 
 PCOD8285453
Probable space group: F M M M
;
_chemical_formula_sum "Si O2"
_cell_formula_units_Z 96
_cell_length_a 27.040690
_cell_length_b 10.133113
_cell_length_c 16.198706
_cell_angle_alpha 90.000000
_cell_angle_beta 90.000000
_cell_angle_gamma 90.000000
_cell_volume 4438.548587
_symmetry_space_group_name_H-M "F M M M"
_symmetry_group_IT_number 69
_symmetry_cell_setting 'orthorhombic'
loop_
_space_group_symop_operation_xyz
x,y,z
-x,-y,z
x,-y,-z
-x,y,-z
-x,-y,-z
x,y,-z
-x,y,z
x,-y,z
x,1/2+y,1/2+z
-x,1/2-y,1/2+z
x,1/2-y,1/2-z
-x,1/2+y,1/2-z
-x,1/2-y,1/2-z
x,1/2+y,1/2-z
-x,1/2+y,1/2+z
x,1/2-y,1/2+z
1/2+x,y,1/2+z
1/2-x,-y,1/2+z
1/2+x,-y,1/2-z
1/2-x,y,1/2-z
1/2-x,-y,1/2-z
1/2+x,y,1/2-z
1/2-x,y,1/2+z
1/2+x,-y,1/2+z
1/2+x,1/2+y,z
1/2-x,1/2-y,z
1/2+x,1/2-y,-z
1/2-x,1/2+y,-z
1/2-x,1/2-y,-z
1/2+x,1/2+y,-z
1/2-x,1/2+y,z
1/2+x,1/2-y,z
loop_
_atom_site_type_symbol
_atom_site_label
_atom_site_fract_x
_atom_site_fract_y
_atom_site_fract_z
Si Si1 0.651289 0.217494 0.403667
Si Si2 0.278603 0.000000 0.337233
Si Si3 0.444666 0.350697 0.822190
Si Si4 0.822646 0.500000 0.907591
O O1 0.666611 0.208152 0.500000
O O2 0.594633 0.170521 0.395419
O O3 0.656535 0.365847 0.366562
O O4 0.687408 0.128525 0.348196
O O5 0.250000 0.000000 0.250000
O O6 0.236789 0.000000 0.407207
O O7 0.500000 0.322702 0.856479
O O8 0.441036 0.500000 0.788024
O O9 0.431070 0.250000 0.750000
O O10 0.842539 0.500000 0.000000
#
# Coordination Sequence:
#
# PCOD8285453 Si02
#       4
#    32  16  32  16
#     4  11  24  43  67  95 132 173 218 272 327 392
#     4  12  26  40  63  96 126 171 221 276 325 384
#     4  10  23  42  67  97 130 168 213 269 328 390
#     4  10  24  42  61  90 132 174 213 266 327 383
#
# _framework density 21.628692999999998
#
# number of rings (size 3 to 8) (size 9 to 14) (size 15 to 20)
#    0.000    1.333    1.667    2.500    7.000    4.667 
#    0.000    1.667    0.000    3.000    0.000    0.000 
#    0.000    0.000    0.000    0.000    0.000    0.000 
#
# Total GULP energy -297549.362637 kJ/mol
# GULP energy per Si atom -12397.890110 kJ/mol
# Density = 2.157947 g / cm^3
# Si number density = 21.628693 Si / 1000 Ang^3
#
#
#
# Elastic Constant Matrix: (Units=GPa)
#
#
# Indices 1 2 3 4 5 6 
#
# 1 146.5742 66.8720 40.1001 0.0000 0.0000 0.0000
# 2 66.8720 199.2912 46.5839 0.0000 0.0000 0.0000
# 3 40.1001 46.5839 75.5033 0.0000 0.0000 0.0000
# 4 0.0000 0.0000 0.0000 19.6269 0.0000 0.0000
# 5 0.0000 0.0000 0.0000 0.0000 35.7614 0.0000
# 6 0.0000 0.0000 0.0000 0.0000 0.0000 29.6100
#
#
#
# Elastic Compliance Matrix: (Units=1/GPa)
#
#
# Indices 1 2 3 4 5 6 
#
# 1 0.008706 -0.002151 -0.003297 0.000000 0.000000 0.000000
# 2 -0.002151 0.006395 -0.002803 0.000000 0.000000 0.000000
# 3 -0.003297 -0.002803 0.016725 0.000000 0.000000 0.000000
# 4 0.000000 0.000000 0.000000 0.050951 0.000000 0.000000
# 5 0.000000 0.000000 0.000000 0.000000 0.027963 0.000000
# 6 0.000000 0.000000 0.000000 0.000000 0.000000 0.033772
#
#
# Mechanical properties :
#
#
# Convention : Reuss Voigt Hill
#
# Bulk Modulus (GPa) = 65.25644 80.94226 73.09935
# Shear Modulus (GPa) = 30.09872 34.85384 32.47628
#
# Velocity S-wave (km/s) = 3.73448 4.01866 3.87917
# Velocity P-wave (km/s) = 6.98798 7.68359 7.34403
#
# Compressibility (1/GPa) = 0.01532416
#
# Stress axis : x y z
#
# Youngs Moduli (GPa) = 114.86920 156.38109 59.79126
#
# Poissons Ratio (x) = 0.33630 0.19711
# Poissons Ratio (y) = 0.24703 0.16761
# Poissons Ratio (z) = 0.37869 0.43837
#
# Static dielectric constant tensor:
#      x y z
#    x 4.042290 0.000000 0.000000 
#    y 0.000000 4.365550 0.000000 
#    z 0.000000 0.000000 3.478270 
# 
# 
# High freq. dielectric constant tensor:
#      x y z
#    x 1.858950 0.000000 0.000000 
#    y 0.000000 1.874770 0.000000 
#    z 0.000000 0.000000 1.817900 
# 
# From -- ./inp_files/13297.got.cif
#   From: 2010.03.12/outbox.cif.g09.slc.cpg/sg69_7_cif.got.tgz:13297.got - 2010.04.10 23:52:46.
