data_PCOD8285058
_publ_section_title
;
Structure prediction by ZEFSAII (Michael W. Deem and Ramdas Pophale) SiO2 
 PCOD8285058
Probable space group: F M M M
;
_chemical_formula_sum "Si O2"
_cell_formula_units_Z 160
_cell_length_a 8.713978
_cell_length_b 30.354236
_cell_length_c 30.101988
_cell_angle_alpha 90.000000
_cell_angle_beta 90.000000
_cell_angle_gamma 90.000000
_cell_volume 7962.160794
_symmetry_space_group_name_H-M "F M M M"
_symmetry_group_IT_number 69
_symmetry_cell_setting 'orthorhombic'
loop_
_space_group_symop_operation_xyz
x,y,z
-x,-y,z
x,-y,-z
-x,y,-z
-x,-y,-z
x,y,-z
-x,y,z
x,-y,z
x,1/2+y,1/2+z
-x,1/2-y,1/2+z
x,1/2-y,1/2-z
-x,1/2+y,1/2-z
-x,1/2-y,1/2-z
x,1/2+y,1/2-z
-x,1/2+y,1/2+z
x,1/2-y,1/2+z
1/2+x,y,1/2+z
1/2-x,-y,1/2+z
1/2+x,-y,1/2-z
1/2-x,y,1/2-z
1/2-x,-y,1/2-z
1/2+x,y,1/2-z
1/2-x,y,1/2+z
1/2+x,-y,1/2+z
1/2+x,1/2+y,z
1/2-x,1/2-y,z
1/2+x,1/2-y,-z
1/2-x,1/2+y,-z
1/2-x,1/2-y,-z
1/2+x,1/2+y,-z
1/2-x,1/2+y,z
1/2+x,1/2-y,z
loop_
_atom_site_type_symbol
_atom_site_label
_atom_site_fract_x
_atom_site_fract_y
_atom_site_fract_z
Si Si1 0.323771 0.663341 0.586252
Si Si2 0.320694 0.423774 0.117539
Si Si3 0.827121 0.795261 0.676467
Si Si4 0.682613 0.891511 0.203671
Si Si5 0.317466 0.202572 0.500000
Si Si6 0.317650 0.000000 0.551477
O O1 0.500000 0.647580 0.580563
O O2 0.213764 0.623976 0.599299
O O3 0.315839 0.701974 0.622962
O O4 0.250580 0.678807 0.541660
O O5 0.500000 0.431337 0.125404
O O6 0.238102 0.425984 0.165748
O O7 0.259090 0.458237 0.080434
O O8 0.750000 0.750000 0.693469
O O9 0.756079 0.841046 0.695774
O O10 0.000000 0.791784 0.693145
O O11 0.500000 0.891670 0.203485
O O12 0.750000 0.908809 0.250000
O O13 0.500000 0.202550 0.500000
O O14 0.250000 0.250000 0.500000
O O15 0.500000 0.000000 0.548023
O O16 0.252764 0.000000 0.500000
#
# Coordination Sequence:
#
# PCOD8285058 Si02
#       6
#    32  32  32  32  16  16
#     4  10  21  37  54  77 112 151 193 242 291 344
#     4  10  20  37  62  89 118 154 191 234 292 353
#     4   9  19  33  51  75 108 147 188 237 286 335
#     4  10  21  38  58  83 116 153 196 245 295 349
#     4  12  24  36  52  77 108 149 198 246 293 346
#     4   9  20  38  62  93 126 153 187 236 285 350
#
# _framework density 20.095047999999998
#
# number of rings (size 3 to 8) (size 9 to 14) (size 15 to 20)
#    0.000    2.100    0.000    4.500    1.400    6.800 
#    0.000    4.500    0.000    2.400    0.000    0.000 
#    0.000    0.000    0.000    0.000    0.000    0.000 
#
# Total GULP energy -495663.356163 kJ/mol
# GULP energy per Si atom -12391.583904 kJ/mol
# Density = 2.004931 g / cm^3
# Si number density = 20.095048 Si / 1000 Ang^3
#
#
#
# Elastic Constant Matrix: (Units=GPa)
#
#
# Indices 1 2 3 4 5 6 
#
# 1 55.8039 17.6929 37.9775 0.0000 0.0000 0.0000
# 2 17.6929 72.7282 41.2781 0.0000 0.0000 0.0000
# 3 37.9775 41.2781 166.2653 0.0000 0.0000 0.0000
# 4 0.0000 0.0000 0.0000 13.5634 0.0000 0.0000
# 5 0.0000 0.0000 0.0000 0.0000 30.4332 0.0000
# 6 0.0000 0.0000 0.0000 0.0000 0.0000 21.4819
#
#
#
# Elastic Compliance Matrix: (Units=1/GPa)
#
#
# Indices 1 2 3 4 5 6 
#
# 1 0.021722 -0.002873 -0.004248 0.000000 0.000000 0.000000
# 2 -0.002873 0.016385 -0.003412 0.000000 0.000000 0.000000
# 3 -0.004248 -0.003412 0.007832 0.000000 0.000000 0.000000
# 4 0.000000 0.000000 0.000000 0.073728 0.000000 0.000000
# 5 0.000000 0.000000 0.000000 0.000000 0.032859 0.000000
# 6 0.000000 0.000000 0.000000 0.000000 0.000000 0.046551
#
#
# Mechanical properties :
#
#
# Convention : Reuss Voigt Hill
#
# Bulk Modulus (GPa) = 40.20459 54.29937 47.25198
# Shear Modulus (GPa) = 21.88823 26.28565 24.08694
#
# Velocity S-wave (km/s) = 3.30394 3.62064 3.46591
# Velocity P-wave (km/s) = 5.88263 6.67523 6.29142
#
# Compressibility (1/GPa) = 0.02487278
#
# Stress axis : x y z
#
# Youngs Moduli (GPa) = 46.03613 61.03102 127.68379
#
# Poissons Ratio (x) = 0.17535 0.54244
# Poissons Ratio (y) = 0.13227 0.43560
# Poissons Ratio (z) = 0.19558 0.20821
#
# Static dielectric constant tensor:
#      x y z
#    x 3.579610 0.000000 0.000000 
#    y 0.000000 3.594720 0.000000 
#    z 0.000000 0.000000 3.914950 
# 
# 
# High freq. dielectric constant tensor:
#      x y z
#    x 1.776830 0.000000 0.000000 
#    y 0.000000 1.766930 0.000000 
#    z 0.000000 0.000000 1.798880 
# 
# From -- ./inp_files/5728.got.cif
#   From: 2010.03.12/outbox.cif.g09.slc.cpg/sg69_3_cif.got.tgz:5728.got - 2010.04.10 23:52:46.
