data_PCOD8285061
_publ_section_title
;
Structure prediction by ZEFSAII (Michael W. Deem and Ramdas Pophale) SiO2 
 PCOD8285061
Probable space group: F M M M
;
_chemical_formula_sum "Si O2"
_cell_formula_units_Z 144
_cell_length_a 18.291250
_cell_length_b 22.037653
_cell_length_c 18.981640
_cell_angle_alpha 90.000000
_cell_angle_beta 90.000000
_cell_angle_gamma 90.000000
_cell_volume 7651.427342
_symmetry_space_group_name_H-M "F M M M"
_symmetry_group_IT_number 69
_symmetry_cell_setting 'orthorhombic'
loop_
_space_group_symop_operation_xyz
x,y,z
-x,-y,z
x,-y,-z
-x,y,-z
-x,-y,-z
x,y,-z
-x,y,z
x,-y,z
x,1/2+y,1/2+z
-x,1/2-y,1/2+z
x,1/2-y,1/2-z
-x,1/2+y,1/2-z
-x,1/2-y,1/2-z
x,1/2+y,1/2-z
-x,1/2+y,1/2+z
x,1/2-y,1/2+z
1/2+x,y,1/2+z
1/2-x,-y,1/2+z
1/2+x,-y,1/2-z
1/2-x,y,1/2-z
1/2-x,-y,1/2-z
1/2+x,y,1/2-z
1/2-x,y,1/2+z
1/2+x,-y,1/2+z
1/2+x,1/2+y,z
1/2-x,1/2-y,z
1/2+x,1/2-y,-z
1/2-x,1/2+y,-z
1/2-x,1/2-y,-z
1/2+x,1/2+y,-z
1/2-x,1/2+y,z
1/2+x,1/2-y,z
loop_
_atom_site_type_symbol
_atom_site_label
_atom_site_fract_x
_atom_site_fract_y
_atom_site_fract_z
Si Si1 0.914349 0.500000 0.417059
Si Si2 0.839385 0.602736 0.328532
Si Si3 0.586021 0.841753 0.080021
Si Si4 0.325900 0.428969 0.327968
Si Si5 0.084759 0.771956 0.171527
O O1 0.898972 0.500000 0.500000
O O2 0.878120 0.559358 0.384164
O O3 0.000000 0.500000 0.399944
O O4 0.752484 0.602203 0.337285
O O5 0.859912 0.582646 0.249240
O O6 0.866621 0.669976 0.345259
O O7 0.500000 0.849869 0.086118
O O8 0.620494 0.901403 0.114320
O O9 0.611365 0.780961 0.119550
O O10 0.612676 0.836749 0.000000
O O11 0.317356 0.500000 0.341521
O O12 0.099775 0.750000 0.250000
O O13 0.000000 0.788587 0.159849
#
# Coordination Sequence:
#
# PCOD8285061 Si02
#       5
#    16  32  32  32  32
#     4  11  24  39  58  88 120 157 206 253 298 350
#     4  11  21  40  62  88 123 159 199 251 299 353
#     4  10  23  42  62  91 126 155 196 252 302 356
#     4  11  22  40  63  90 121 160 203 245 300 357
#     4  10  20  37  63  91 118 157 203 244 294 355
#
# _framework density 18.820018000000001
#
# number of rings (size 3 to 8) (size 9 to 14) (size 15 to 20)
#    0.000    1.444    4.444    1.333    0.000    4.444 
#    0.000    4.444    0.000    0.000    0.000    0.000 
#    0.000    0.000    0.000    0.000    0.000    0.000 
#
# Total GULP energy -446598.739442 kJ/mol
# GULP energy per Si atom -12405.520540 kJ/mol
# Density = 1.877718 g / cm^3
# Si number density = 18.820018 Si / 1000 Ang^3
#
#
#
# Elastic Constant Matrix: (Units=GPa)
#
#
# Indices 1 2 3 4 5 6 
#
# 1 48.1287 33.8665 42.2720 0.0000 0.0000 0.0000
# 2 33.8665 104.8792 37.7281 0.0000 0.0000 0.0000
# 3 42.2720 37.7281 129.4332 0.0000 0.0000 0.0000
# 4 0.0000 0.0000 0.0000 30.8885 0.0000 0.0000
# 5 0.0000 0.0000 0.0000 0.0000 26.9124 0.0000
# 6 0.0000 0.0000 0.0000 0.0000 0.0000 48.9413
#
#
#
# Elastic Compliance Matrix: (Units=1/GPa)
#
#
# Indices 1 2 3 4 5 6 
#
# 1 0.034038 -0.007811 -0.008840 0.000000 0.000000 0.000000
# 2 -0.007811 0.012444 -0.001076 0.000000 0.000000 0.000000
# 3 -0.008840 -0.001076 0.010927 0.000000 0.000000 0.000000
# 4 0.000000 0.000000 0.000000 0.032375 0.000000 0.000000
# 5 0.000000 0.000000 0.000000 0.000000 0.037158 0.000000
# 6 0.000000 0.000000 0.000000 0.000000 0.000000 0.020433
#
#
# Mechanical properties :
#
#
# Convention : Reuss Voigt Hill
#
# Bulk Modulus (GPa) = 45.54853 56.68604 51.11729
# Shear Modulus (GPa) = 26.29542 32.58671 29.44107
#
# Velocity S-wave (km/s) = 3.74198 4.16563 3.95948
# Velocity P-wave (km/s) = 6.55168 7.30220 6.93710
#
# Compressibility (1/GPa) = 0.02195460
#
# Stress axis : x y z
#
# Youngs Moduli (GPa) = 29.37862 80.35804 91.51891
#
# Poissons Ratio (x) = 0.62771 0.80901
# Poissons Ratio (y) = 0.22949 0.09849
# Poissons Ratio (z) = 0.25970 0.08648
#
# Static dielectric constant tensor:
#      x y z
#    x 3.409140 0.000000 0.000000 
#    y 0.000000 3.127450 0.000000 
#    z 0.000000 0.000000 3.574880 
# 
# 
# High freq. dielectric constant tensor:
#      x y z
#    x 1.729710 0.000000 0.000000 
#    y 0.000000 1.741290 0.000000 
#    z 0.000000 0.000000 1.733230 
# 
# From -- ./inp_files/22850.got.cif
#   From: 2010.03.12/outbox.cif.g09.slc.cpg/sg69_12_cif.got.tgz:22850.got - 2010.04.10 23:52:46.
