data_PCOD8285129
_publ_section_title
;
Structure prediction by ZEFSAII (Michael W. Deem and Ramdas Pophale) SiO2 
 PCOD8285129
Probable space group: F M M M
;
_chemical_formula_sum "Si O2"
_cell_formula_units_Z 96
_cell_length_a 25.548992
_cell_length_b 26.655075
_cell_length_c 7.681945
_cell_angle_alpha 90.000000
_cell_angle_beta 90.000000
_cell_angle_gamma 90.000000
_cell_volume 5231.483653
_symmetry_space_group_name_H-M "F M M M"
_symmetry_group_IT_number 69
_symmetry_cell_setting 'orthorhombic'
loop_
_space_group_symop_operation_xyz
x,y,z
-x,-y,z
x,-y,-z
-x,y,-z
-x,-y,-z
x,y,-z
-x,y,z
x,-y,z
x,1/2+y,1/2+z
-x,1/2-y,1/2+z
x,1/2-y,1/2-z
-x,1/2+y,1/2-z
-x,1/2-y,1/2-z
x,1/2+y,1/2-z
-x,1/2+y,1/2+z
x,1/2-y,1/2+z
1/2+x,y,1/2+z
1/2-x,-y,1/2+z
1/2+x,-y,1/2-z
1/2-x,y,1/2-z
1/2-x,-y,1/2-z
1/2+x,y,1/2-z
1/2-x,y,1/2+z
1/2+x,-y,1/2+z
1/2+x,1/2+y,z
1/2-x,1/2-y,z
1/2+x,1/2-y,-z
1/2-x,1/2+y,-z
1/2-x,1/2-y,-z
1/2+x,1/2+y,-z
1/2-x,1/2+y,z
1/2+x,1/2-y,z
loop_
_atom_site_type_symbol
_atom_site_label
_atom_site_fract_x
_atom_site_fract_y
_atom_site_fract_z
Si Si1 0.691867 0.307187 0.201040
Si Si2 0.500000 0.307886 0.705252
Si Si3 0.402751 0.871821 0.299097
Si Si4 0.438530 0.441577 0.500000
O O1 0.681198 0.250000 0.250000
O O2 0.750000 0.324809 0.250000
O O3 0.648953 0.344681 0.281629
O O4 0.683653 0.311737 0.000000
O O5 0.500000 0.318235 0.500000
O O6 0.500000 0.250000 0.750000
O O7 0.449204 0.331853 0.792038
O O8 0.395929 0.889930 0.500000
O O9 0.413881 0.919249 0.176280
O O10 0.426013 0.500000 0.500000
O O11 0.500000 0.429866 0.500000
#
# Coordination Sequence:
#
# PCOD8285129 Si02
#       4
#    32  16  32  16
#     4  10  21  33  54  85 118 159 195 228 280 342
#     4  12  22  34  54  84 121 159 188 224 282 345
#     4  11  22  38  58  86 117 151 193 238 290 342
#     4  11  24  42  64  87 112 150 196 244 299 347
#
# _framework density 18.350432999999999
#
# number of rings (size 3 to 8) (size 9 to 14) (size 15 to 20)
#    0.000    1.167    3.333    4.500    4.667    3.333 
#    0.000    1.667    0.000    1.000    0.000    0.000 
#    0.000    0.000    0.000    0.000    0.000    0.000 
#
# Total GULP energy -297583.855715 kJ/mol
# GULP energy per Si atom -12399.327321 kJ/mol
# Density = 1.830867 g / cm^3
# Si number density = 18.350433 Si / 1000 Ang^3
#
#
#
# Elastic Constant Matrix: (Units=GPa)
#
#
# Indices 1 2 3 4 5 6 
#
# 1 144.6147 73.0284 34.9873 -0.0055 0.0474 0.0044
# 2 73.0284 124.7331 46.1507 -0.0005 0.0032 0.0033
# 3 34.9873 46.1507 95.5280 -0.0290 0.0764 0.0097
# 4 -0.0055 -0.0005 -0.0290 30.5027 0.0298 0.0072
# 5 0.0474 0.0032 0.0764 0.0298 -38.3367 -0.0425
# 6 0.0044 0.0033 0.0097 0.0072 -0.0425 25.5097
#
#
#
# Elastic Compliance Matrix: (Units=1/GPa)
#
#
# Indices 1 2 3 4 5 6 
#
# 1 0.009896 -0.005422 -0.001005 0.000001 0.000010 -0.000001
# 2 -0.005422 0.012733 -0.004166 -0.000005 -0.000014 0.000001
# 3 -0.001005 -0.004166 0.012849 0.000012 0.000024 -0.000004
# 4 0.000001 -0.000005 0.000012 0.032784 0.000026 -0.000009
# 5 0.000010 -0.000014 0.000024 0.000026 -0.026085 -0.000043
# 6 -0.000001 0.000001 -0.000004 -0.000009 -0.000043 0.039201
#
#
# Mechanical properties :
#
#
# Convention : Reuss Voigt Hill
#
# Bulk Modulus (GPa) = 69.96752 74.80095 72.38424
# Shear Modulus (GPa) = 46.58648 17.58243 32.08446
#
# Velocity S-wave (km/s) = 5.04403 3.09875 4.18596
# Velocity P-wave (km/s) = 8.49319 7.32489 7.93058
#
# Compressibility (1/GPa) = 0.01429235
#
# Stress axis : x y z
#
# Youngs Moduli (GPa) = 101.04919 78.53676 77.82935
#
# Poissons Ratio (x) = 0.42584 0.07822
# Poissons Ratio (y) = 0.54790 0.32420
# Poissons Ratio (z) = 0.10155 0.32715
#
# Static dielectric constant tensor:
#      x y z
#    x 3.277270 0.000020 0.000030 
#    y 0.000020 3.105590 0.000010 
#    z 0.000030 0.000010 3.546900 
# 
# 
# High freq. dielectric constant tensor:
#      x y z
#    x 1.720990 0.000000 0.000000 
#    y 0.000000 1.685220 0.000000 
#    z 0.000000 0.000000 1.729390 
# 
# From -- ./inp_files/3546.got.cif
#   From: 2010.03.12/outbox.cif.g09.slc.cpg/sg69_2_cif.got.tgz:3546.got - 2010.04.10 23:52:46.
