data_PCOD8285442
_publ_section_title
;
Structure prediction by ZEFSAII (Michael W. Deem and Ramdas Pophale) SiO2 
 PCOD8285442
Probable space group: F M M M
;
_chemical_formula_sum "Si O2"
_cell_formula_units_Z 88
_cell_length_a 12.882785
_cell_length_b 32.578104
_cell_length_c 9.765368
_cell_angle_alpha 90.000000
_cell_angle_beta 90.000000
_cell_angle_gamma 90.000000
_cell_volume 4098.492817
_symmetry_space_group_name_H-M "F M M M"
_symmetry_group_IT_number 69
_symmetry_cell_setting 'orthorhombic'
loop_
_space_group_symop_operation_xyz
x,y,z
-x,-y,z
x,-y,-z
-x,y,-z
-x,-y,-z
x,y,-z
-x,y,z
x,-y,z
x,1/2+y,1/2+z
-x,1/2-y,1/2+z
x,1/2-y,1/2-z
-x,1/2+y,1/2-z
-x,1/2-y,1/2-z
x,1/2+y,1/2-z
-x,1/2+y,1/2+z
x,1/2-y,1/2+z
1/2+x,y,1/2+z
1/2-x,-y,1/2+z
1/2+x,-y,1/2-z
1/2-x,y,1/2-z
1/2-x,-y,1/2-z
1/2+x,y,1/2-z
1/2-x,y,1/2+z
1/2+x,-y,1/2+z
1/2+x,1/2+y,z
1/2-x,1/2-y,z
1/2+x,1/2-y,-z
1/2-x,1/2+y,-z
1/2-x,1/2-y,-z
1/2+x,1/2+y,-z
1/2-x,1/2+y,z
1/2+x,1/2-y,z
loop_
_atom_site_type_symbol
_atom_site_label
_atom_site_fract_x
_atom_site_fract_y
_atom_site_fract_z
Si Si1 0.379782 0.000000 0.651047
Si Si2 0.000000 0.651410 0.500000
Si Si3 0.500000 0.703649 0.717029
Si Si4 0.779932 0.376347 0.500000
Si Si5 0.750000 0.570859 0.750000
Si Si6 0.679451 0.292336 0.500000
O O1 0.348551 0.041257 0.730431
O O2 0.500000 0.000000 0.635416
O O3 0.326660 0.000000 0.500000
O O4 0.000000 0.677899 0.641420
O O5 0.095556 0.619619 0.500000
O O6 0.500000 0.750000 0.750000
O O7 0.393263 0.698678 0.631607
O O8 0.726646 0.398919 0.373987
O O9 0.764748 0.327606 0.500000
O O10 0.750000 0.250000 0.500000
#
# Coordination Sequence:
#
# PCOD8285442 Si02
#       6
#    16   8  16  16  16  16
#     4  10  22  45  74 101 132 175 219 272 344 422
#     4  12  26  40  66  99 132 182 230 284 342 403
#     4  11  23  43  67  95 127 179 240 286 346 401
#     4  12  25  43  66  99 138 179 228 282 338 399
#     4  11  24  42  69 102 136 174 221 278 342 411
#     4  11  25  46  68  97 141 186 231 290 343 400
#
# _framework density 21.471308000000001
#
# number of rings (size 3 to 8) (size 9 to 14) (size 15 to 20)
#    0.000    0.909    1.818    5.455    2.545    3.636 
#    6.545    1.818    0.000    0.000    0.000    0.000 
#    0.000    0.000    0.000    0.000    0.000    0.000 
#
# Total GULP energy -272578.565483 kJ/mol
# GULP energy per Si atom -12389.934795 kJ/mol
# Density = 2.142244 g / cm^3
# Si number density = 21.471308 Si / 1000 Ang^3
#
#
#
# Elastic Constant Matrix: (Units=GPa)
#
#
# Indices 1 2 3 4 5 6 
#
# 1 106.2124 36.3374 47.2841 0.0000 0.0000 0.0000
# 2 36.3374 148.9710 63.1715 0.0000 0.0000 0.0000
# 3 47.2841 63.1715 173.9490 0.0000 0.0000 0.0000
# 4 0.0000 0.0000 0.0000 51.1670 0.0000 0.0000
# 5 0.0000 0.0000 0.0000 0.0000 24.7191 0.0000
# 6 0.0000 0.0000 0.0000 0.0000 0.0000 17.0005
#
#
#
# Elastic Compliance Matrix: (Units=1/GPa)
#
#
# Indices 1 2 3 4 5 6 
#
# 1 0.011056 -0.001681 -0.002395 0.000000 0.000000 0.000000
# 2 -0.001681 0.008190 -0.002517 0.000000 0.000000 0.000000
# 3 -0.002395 -0.002517 0.007314 0.000000 0.000000 0.000000
# 4 0.000000 0.000000 0.000000 0.019544 0.000000 0.000000
# 5 0.000000 0.000000 0.000000 0.000000 0.040455 0.000000
# 6 0.000000 0.000000 0.000000 0.000000 0.000000 0.058822
#
#
# Mechanical properties :
#
#
# Convention : Reuss Voigt Hill
#
# Bulk Modulus (GPa) = 74.77399 80.30206 77.53802
# Shear Modulus (GPa) = 30.66994 37.39995 34.03494
#
# Velocity S-wave (km/s) = 3.78354 4.17808 3.98570
# Velocity P-wave (km/s) = 7.34762 7.79462 7.57442
#
# Compressibility (1/GPa) = 0.01337364
#
# Stress axis : x y z
#
# Youngs Moduli (GPa) = 90.44472 122.09513 136.72408
#
# Poissons Ratio (x) = 0.20529 0.32743
# Poissons Ratio (y) = 0.15207 0.34418
# Poissons Ratio (z) = 0.21660 0.30736
#
# Static dielectric constant tensor:
#      x y z
#    x 3.790340 0.000000 0.000000 
#    y 0.000000 3.947410 0.000000 
#    z 0.000000 0.000000 4.143000 
# 
# 
# High freq. dielectric constant tensor:
#      x y z
#    x 1.841850 0.000000 0.000000 
#    y 0.000000 1.857490 0.000000 
#    z 0.000000 0.000000 1.858320 
# 
# From -- ./inp_files/6400.got.cif
#   From: 2010.03.12/outbox.cif.g09.slc.cpg/sg69_4_cif.got.tgz:6400.got - 2010.04.10 23:52:46.
