data_PCOD8285672
_publ_section_title
;
Structure prediction by ZEFSAII (Michael W. Deem and Ramdas Pophale) SiO2 
 PCOD8285672
Probable space group: F M M M
;
_chemical_formula_sum "Si O2"
_cell_formula_units_Z 72
_cell_length_a 5.290359
_cell_length_b 27.784555
_cell_length_c 21.581923
_cell_angle_alpha 90.000000
_cell_angle_beta 90.000000
_cell_angle_gamma 90.000000
_cell_volume 3172.332702
_symmetry_space_group_name_H-M "F M M M"
_symmetry_group_IT_number 69
_symmetry_cell_setting 'orthorhombic'
loop_
_space_group_symop_operation_xyz
x,y,z
-x,-y,z
x,-y,-z
-x,y,-z
-x,-y,-z
x,y,-z
-x,y,z
x,-y,z
x,1/2+y,1/2+z
-x,1/2-y,1/2+z
x,1/2-y,1/2-z
-x,1/2+y,1/2-z
-x,1/2-y,1/2-z
x,1/2+y,1/2-z
-x,1/2+y,1/2+z
x,1/2-y,1/2+z
1/2+x,y,1/2+z
1/2-x,-y,1/2+z
1/2+x,-y,1/2-z
1/2-x,y,1/2-z
1/2-x,-y,1/2-z
1/2+x,y,1/2-z
1/2-x,y,1/2+z
1/2+x,-y,1/2+z
1/2+x,1/2+y,z
1/2-x,1/2-y,z
1/2+x,1/2-y,-z
1/2-x,1/2+y,-z
1/2-x,1/2-y,-z
1/2+x,1/2+y,-z
1/2-x,1/2+y,z
1/2+x,1/2-y,z
loop_
_atom_site_type_symbol
_atom_site_label
_atom_site_fract_x
_atom_site_fract_y
_atom_site_fract_z
Si Si1 0.000000 0.500000 0.209050
Si Si2 0.500000 0.096488 0.132013
Si Si3 0.500000 0.808065 0.790150
Si Si4 0.500000 0.371955 0.927669
Si Si5 0.500000 0.265040 0.904315
O O1 0.750000 0.500000 0.250000
O O2 0.000000 0.453675 0.166318
O O3 0.500000 0.138710 0.181872
O O4 0.250226 0.098386 0.089319
O O5 0.750000 0.800951 0.750000
O O6 0.500000 0.766943 0.842189
O O7 0.500000 0.321771 0.889190
O O8 0.500000 0.359367 0.000000
O O9 0.750000 0.250000 0.943025
#
# Coordination Sequence:
#
# PCOD8285672 Si02
#       5
#     8  16  16  16  16
#     4  12  26  50  79 112 143 180 216 282 360 414
#     4  12  25  49  69 106 136 176 238 288 338 436
#     4  12  24  40  63  94 138 183 218 274 345 409
#     4  12  26  48  71  98 139 188 233 294 346 390
#     4  12  23  43  61 101 135 181 243 277 333 413
#
# _framework density 22.696231000000001
#
# number of rings (size 3 to 8) (size 9 to 14) (size 15 to 20)
#    0.000    0.000    4.444    6.000    0.000    3.556 
#    0.000    3.333    0.000    0.000    0.000    0.000 
#    0.000    0.000    0.000    0.000    0.000    0.000 
#
# Total GULP energy -223169.252319 kJ/mol
# GULP energy per Si atom -12398.291796 kJ/mol
# Density = 2.264457 g / cm^3
# Si number density = 22.696231 Si / 1000 Ang^3
#
#
#
# Elastic Constant Matrix: (Units=GPa)
#
#
# Indices 1 2 3 4 5 6 
#
# 1 259.4939 57.6852 51.7458 0.0000 0.0000 0.0000
# 2 57.6852 179.1479 80.6097 0.0000 0.0000 0.0000
# 3 51.7458 80.6097 110.5845 0.0000 0.0000 0.0000
# 4 0.0000 0.0000 0.0000 2.1652 0.0000 0.0000
# 5 0.0000 0.0000 0.0000 0.0000 33.8721 0.0000
# 6 0.0000 0.0000 0.0000 0.0000 0.0000 26.4194
#
#
#
# Elastic Compliance Matrix: (Units=1/GPa)
#
#
# Indices 1 2 3 4 5 6 
#
# 1 0.004311 -0.000715 -0.001496 0.000000 0.000000 0.000000
# 2 -0.000715 0.008425 -0.005807 0.000000 0.000000 0.000000
# 3 -0.001496 -0.005807 0.013976 0.000000 0.000000 0.000000
# 4 0.000000 0.000000 0.000000 0.461854 0.000000 0.000000
# 5 0.000000 0.000000 0.000000 0.000000 0.029523 0.000000
# 6 0.000000 0.000000 0.000000 0.000000 0.000000 0.037851
#
#
# Mechanical properties :
#
#
# Convention : Reuss Voigt Hill
#
# Bulk Modulus (GPa) = 93.66751 103.25641 98.46196
# Shear Modulus (GPa) = 8.68758 36.43703 22.56231
#
# Velocity S-wave (km/s) = 1.95859 4.01112 3.15635
# Velocity P-wave (km/s) = 6.81722 8.18815 7.53393
#
# Compressibility (1/GPa) = 0.01067606
#
# Stress axis : x y z
#
# Youngs Moduli (GPa) = 231.96935 118.69388 71.55255
#
# Poissons Ratio (x) = 0.08486 0.10705
# Poissons Ratio (y) = 0.16584 0.41549
# Poissons Ratio (z) = 0.34704 0.68923
#
# Static dielectric constant tensor:
#      x y z
#    x 8.262470 0.000000 0.000000 
#    y 0.000000 4.061810 0.000000 
#    z 0.000000 0.000000 3.906380 
# 
# 
# High freq. dielectric constant tensor:
#      x y z
#    x 1.943450 0.000000 0.000000 
#    y 0.000000 1.887840 0.000000 
#    z 0.000000 0.000000 1.890210 
# 
# From -- ./inp_files/34189.got.cif
#   From: 2010.03.12/outbox.cif.g09.slc.cpg/sg69_18_cif.got.tgz:34189.got - 2010.04.10 23:52:46.
