data_PCOD8285176
_publ_section_title
;
Structure prediction by ZEFSAII (Michael W. Deem and Ramdas Pophale) SiO2 
 PCOD8285176
Probable space group: F M M M
;
_chemical_formula_sum "Si O2"
_cell_formula_units_Z 176
_cell_length_a 24.901917
_cell_length_b 18.607494
_cell_length_c 20.503960
_cell_angle_alpha 90.000000
_cell_angle_beta 90.000000
_cell_angle_gamma 90.000000
_cell_volume 9500.761473
_symmetry_space_group_name_H-M "F M M M"
_symmetry_group_IT_number 69
_symmetry_cell_setting 'orthorhombic'
loop_
_space_group_symop_operation_xyz
x,y,z
-x,-y,z
x,-y,-z
-x,y,-z
-x,-y,-z
x,y,-z
-x,y,z
x,-y,z
x,1/2+y,1/2+z
-x,1/2-y,1/2+z
x,1/2-y,1/2-z
-x,1/2+y,1/2-z
-x,1/2-y,1/2-z
x,1/2+y,1/2-z
-x,1/2+y,1/2+z
x,1/2-y,1/2+z
1/2+x,y,1/2+z
1/2-x,-y,1/2+z
1/2+x,-y,1/2-z
1/2-x,y,1/2-z
1/2-x,-y,1/2-z
1/2+x,y,1/2-z
1/2-x,y,1/2+z
1/2+x,-y,1/2+z
1/2+x,1/2+y,z
1/2-x,1/2-y,z
1/2+x,1/2-y,-z
1/2-x,1/2+y,-z
1/2-x,1/2-y,-z
1/2+x,1/2+y,-z
1/2-x,1/2+y,z
1/2+x,1/2-y,z
loop_
_atom_site_type_symbol
_atom_site_label
_atom_site_fract_x
_atom_site_fract_y
_atom_site_fract_z
Si Si1 0.000000 0.703708 0.925920
Si Si2 0.590400 0.186073 0.391931
Si Si3 0.000000 0.919813 0.676233
Si Si4 0.088182 0.418986 0.282377
Si Si5 0.207260 0.812539 0.923305
Si Si6 0.711751 0.418010 0.194008
Si Si7 0.562531 0.583110 0.000000
O O1 0.947707 0.750079 0.912117
O O2 0.000000 0.632608 0.884182
O O3 0.000000 0.678415 0.000000
O O4 0.570514 0.149739 0.325089
O O5 0.650308 0.218123 0.396954
O O6 0.590482 0.116709 0.437907
O O7 0.054980 0.907148 0.716322
O O8 0.000000 0.000000 0.647815
O O9 0.073830 0.500000 0.309630
O O10 0.152142 0.412345 0.275467
O O11 0.250000 0.750000 0.912891
O O12 0.220793 0.878987 0.875487
O O13 0.205532 0.835955 0.000000
O O14 0.727735 0.500000 0.180095
O O15 0.750000 0.384628 0.250000
O O16 0.574573 0.500000 0.000000
O O17 0.500000 0.602882 0.000000
#
# Coordination Sequence:
#
# PCOD8285176 Si02
#       7
#    16  32  16  32  32  32  16
#     4  12  23  38  57  77 110 148 184 227 276 321
#     4  11  19  36  55  82 116 146 180 218 275 340
#     4  10  23  40  57  78 105 141 187 235 275 321
#     4   9  19  35  56  82 111 140 174 222 277 332
#     4  10  21  36  54  79 113 148 186 228 273 327
#     4   9  19  36  57  79 106 141 182 230 278 328
#     4  11  20  30  51  86 120 152 175 205 261 338
#
# _framework density 18.524830999999999
#
# number of rings (size 3 to 8) (size 9 to 14) (size 15 to 20)
#    0.000    1.909    2.727    1.091    0.000    4.545 
#    0.000    3.636    0.000    0.000    0.000    7.636 
#    0.000    0.000    0.000    0.000    0.000    0.000 
#
# Total GULP energy -545234.496844 kJ/mol
# GULP energy per Si atom -12391.693110 kJ/mol
# Density = 1.848267 g / cm^3
# Si number density = 18.524831 Si / 1000 Ang^3
#
#
#
# Elastic Constant Matrix: (Units=GPa)
#
#
# Indices 1 2 3 4 5 6 
#
# 1 91.5517 54.5157 51.2313 0.0000 0.0000 0.0000
# 2 54.5157 96.4150 77.3213 0.0000 0.0000 0.0000
# 3 51.2313 77.3213 128.9089 0.0000 0.0000 0.0000
# 4 0.0000 0.0000 0.0000 31.2023 0.0000 0.0000
# 5 0.0000 0.0000 0.0000 0.0000 28.6880 0.0000
# 6 0.0000 0.0000 0.0000 0.0000 0.0000 -56.9861
#
#
#
# Elastic Compliance Matrix: (Units=1/GPa)
#
#
# Indices 1 2 3 4 5 6 
#
# 1 0.016699 -0.007938 -0.001875 0.000000 0.000000 0.000000
# 2 -0.007938 0.023759 -0.011096 0.000000 0.000000 0.000000
# 3 -0.001875 -0.011096 0.015158 0.000000 0.000000 0.000000
# 4 0.000000 0.000000 0.000000 0.032049 0.000000 0.000000
# 5 0.000000 0.000000 0.000000 0.000000 0.034858 0.000000
# 6 0.000000 0.000000 0.000000 0.000000 0.000000 -0.017548
#
#
# Mechanical properties :
#
#
# Convention : Reuss Voigt Hill
#
# Bulk Modulus (GPa) = 72.47819 75.89023 74.18421
# Shear Modulus (GPa) = 33.02660 9.50134 21.26397
#
# Velocity S-wave (km/s) = 4.22694 2.26718 3.39169
# Velocity P-wave (km/s) = 7.93930 6.92165 7.44787
#
# Compressibility (1/GPa) = 0.01379725
#
# Stress axis : x y z
#
# Youngs Moduli (GPa) = 59.88365 42.08912 65.97092
#
# Poissons Ratio (x) = 0.33412 0.12370
# Poissons Ratio (y) = 0.47538 0.73202
# Poissons Ratio (z) = 0.11228 0.46703
#
# Static dielectric constant tensor:
#      x y z
#    x 3.404440 0.000000 0.000000 
#    y 0.000000 3.324020 0.000000 
#    z 0.000000 0.000000 3.237370 
# 
# 
# High freq. dielectric constant tensor:
#      x y z
#    x 1.729870 0.000000 0.000000 
#    y 0.000000 1.709740 0.000000 
#    z 0.000000 0.000000 1.709800 
# 
# From -- ./inp_files/26814.got.cif
#   From: 2010.03.12/outbox.cif.g09.slc.cpg/sg69_14_cif.got.tgz:26814.got - 2010.04.10 23:52:46.
