data_PCOD8285327
_publ_section_title
;
Structure prediction by ZEFSAII (Michael W. Deem and Ramdas Pophale) SiO2 
 PCOD8285327
Probable space group: F M M M
;
_chemical_formula_sum "Si O2"
_cell_formula_units_Z 160
_cell_length_a 9.115659
_cell_length_b 28.522937
_cell_length_c 30.714301
_cell_angle_alpha 90.000000
_cell_angle_beta 90.000000
_cell_angle_gamma 90.000000
_cell_volume 7985.883115
_symmetry_space_group_name_H-M "F M M M"
_symmetry_group_IT_number 69
_symmetry_cell_setting 'orthorhombic'
loop_
_space_group_symop_operation_xyz
x,y,z
-x,-y,z
x,-y,-z
-x,y,-z
-x,-y,-z
x,y,-z
-x,y,z
x,-y,z
x,1/2+y,1/2+z
-x,1/2-y,1/2+z
x,1/2-y,1/2-z
-x,1/2+y,1/2-z
-x,1/2-y,1/2-z
x,1/2+y,1/2-z
-x,1/2+y,1/2+z
x,1/2-y,1/2+z
1/2+x,y,1/2+z
1/2-x,-y,1/2+z
1/2+x,-y,1/2-z
1/2-x,y,1/2-z
1/2-x,-y,1/2-z
1/2+x,y,1/2-z
1/2-x,y,1/2+z
1/2+x,-y,1/2+z
1/2+x,1/2+y,z
1/2-x,1/2-y,z
1/2+x,1/2-y,-z
1/2-x,1/2+y,-z
1/2-x,1/2-y,-z
1/2+x,1/2+y,-z
1/2-x,1/2+y,z
1/2+x,1/2-y,z
loop_
_atom_site_type_symbol
_atom_site_label
_atom_site_fract_x
_atom_site_fract_y
_atom_site_fract_z
Si Si1 0.500000 0.944500 0.819123
Si Si2 0.178559 0.204968 0.203029
Si Si3 0.773674 0.609620 0.339983
Si Si4 0.834609 0.629818 0.562170
Si Si5 0.327718 0.050976 0.500000
Si Si6 0.823048 0.801210 0.500000
Si Si7 0.500000 0.444527 0.782991
O O1 0.370937 0.920254 0.845562
O O2 0.500000 0.931042 0.767973
O O3 0.500000 0.000000 0.825733
O O4 0.250000 0.205548 0.250000
O O5 0.250000 0.250000 0.178183
O O6 0.247402 0.159857 0.181104
O O7 0.000000 0.205312 0.203376
O O8 0.841106 0.621815 0.386476
O O9 0.862583 0.577079 0.307022
O O10 0.779719 0.580491 0.542308
O O11 0.730095 0.671284 0.543825
O O12 0.000000 0.641733 0.546545
O O13 0.500000 0.042811 0.500000
O O14 0.248922 0.000000 0.500000
O O15 0.750000 0.750000 0.500000
O O16 0.000000 0.797423 0.500000
O O17 0.500000 0.500000 0.788859
#
# Coordination Sequence:
#
# PCOD8285327 Si02
#       7
#    16  32  32  32  16  16  16
#     4  11  26  42  61  92 135 182 231 284 344 397
#     4  11  23  39  61  90 121 163 213 262 323 387
#     4  12  24  40  65  94 132 176 222 281 333 388
#     4  10  21  41  63  96 134 165 216 265 313 386
#     4   8  16  32  59  87 116 156 196 246 304 361
#     4  11  24  44  74 102 135 174 207 259 330 397
#     4  11  22  42  65  92 127 178 235 286 336 399
#
# _framework density 20.035354000000002
#
# number of rings (size 3 to 8) (size 9 to 14) (size 15 to 20)
#    0.000    1.300    2.000    5.100    4.200    4.000 
#    0.000    2.000    0.000    1.200    0.000    0.000 
#    0.000    0.000    0.000    0.000    0.000    0.000 
#
# Total GULP energy -495560.148253 kJ/mol
# GULP energy per Si atom -12389.003706 kJ/mol
# Density = 1.998975 g / cm^3
# Si number density = 20.035354 Si / 1000 Ang^3
#
#
#
# Elastic Constant Matrix: (Units=GPa)
#
#
# Indices 1 2 3 4 5 6 
#
# 1 115.6682 45.1229 3.4933 0.0000 0.0000 0.0000
# 2 45.1229 175.5802 40.6757 0.0000 0.0000 0.0000
# 3 3.4933 40.6757 72.6350 0.0000 0.0000 0.0000
# 4 0.0000 0.0000 0.0000 -35.7375 0.0000 0.0000
# 5 0.0000 0.0000 0.0000 0.0000 42.6498 0.0000
# 6 0.0000 0.0000 0.0000 0.0000 0.0000 38.0877
#
#
#
# Elastic Compliance Matrix: (Units=1/GPa)
#
#
# Indices 1 2 3 4 5 6 
#
# 1 0.009680 -0.002735 0.001066 0.000000 0.000000 0.000000
# 2 -0.002735 0.007317 -0.003966 0.000000 0.000000 0.000000
# 3 0.001066 -0.003966 0.015937 0.000000 0.000000 0.000000
# 4 0.000000 0.000000 0.000000 -0.027982 0.000000 0.000000
# 5 0.000000 0.000000 0.000000 0.000000 0.023447 0.000000
# 6 0.000000 0.000000 0.000000 0.000000 0.000000 0.026255
#
#
# Mechanical properties :
#
#
# Convention : Reuss Voigt Hill
#
# Bulk Modulus (GPa) = 46.15822 60.27413 53.21617
# Shear Modulus (GPa) = 68.35703 27.30610 47.83156
#
# Velocity S-wave (km/s) = 5.84742 3.69575 4.89136
# Velocity P-wave (km/s) = 8.28722 6.95418 7.64979
#
# Compressibility (1/GPa) = 0.02166461
#
# Stress axis : x y z
#
# Youngs Moduli (GPa) = 103.30557 136.66878 62.74644
#
# Poissons Ratio (x) = 0.37374 -0.06688
# Poissons Ratio (y) = 0.28250 0.24885
# Poissons Ratio (z) = -0.11011 0.54203
#
# Static dielectric constant tensor:
#      x y z
#    x 3.634200 0.000000 0.000000 
#    y 0.000000 5.062270 0.000000 
#    z 0.000000 0.000000 3.194150 
# 
# 
# High freq. dielectric constant tensor:
#      x y z
#    x 1.778300 0.000000 0.000000 
#    y 0.000000 1.803910 0.000000 
#    z 0.000000 0.000000 1.774150 
# 
# From -- ./inp_files/44649.got.cif
#   From: 2010.03.12/outbox.cif.g09.slc.cpg/sg69_23_cif.got.tgz:44649.got - 2010.04.10 23:52:46.
