data_PCOD8285847
_publ_section_title
;
Structure prediction by ZEFSAII (Michael W. Deem and Ramdas Pophale) SiO2 
 PCOD8285847
Probable space group: F D D D
;
_chemical_formula_sum "Si O2"
_cell_formula_units_Z 144
_cell_length_a 10.122964
_cell_length_b 30.305535
_cell_length_c 25.817731
_cell_angle_alpha 90.000000
_cell_angle_beta 90.000000
_cell_angle_gamma 90.000000
_cell_volume 7920.411016
_symmetry_space_group_name_H-M "F D D D"
_symmetry_group_IT_number 70
_space_group.IT_coordinate_system_code '2'
_symmetry_cell_setting 'orthorhombic'
loop_
_space_group_symop_operation_xyz
x,y,z
1/4-x,1/4-y,z
x,1/4-y,1/4-z
1/4-x,y,1/4-z
-x,-y,-z
3/4+x,3/4+y,-z
-x,3/4+y,3/4+z
3/4+x,-y,3/4+z
x,1/2+y,1/2+z
1/4-x,3/4-y,1/2+z
x,3/4-y,3/4-z
1/4-x,1/2+y,3/4-z
-x,1/2-y,1/2-z
3/4+x,1/4+y,1/2-z
-x,1/4+y,1/4+z
3/4+x,1/2-y,1/4+z
1/2+x,y,1/2+z
3/4-x,1/4-y,1/2+z
1/2+x,1/4-y,3/4-z
3/4-x,y,3/4-z
1/2-x,-y,1/2-z
1/4+x,3/4+y,1/2-z
1/2-x,3/4+y,1/4+z
1/4+x,-y,1/4+z
1/2+x,1/2+y,z
3/4-x,3/4-y,z
1/2+x,3/4-y,1/4-z
3/4-x,1/2+y,1/4-z
1/2-x,1/2-y,-z
1/4+x,1/4+y,-z
1/2-x,1/4+y,3/4+z
1/4+x,1/2-y,3/4+z
loop_
_atom_site_type_symbol
_atom_site_label
_atom_site_fract_x
_atom_site_fract_y
_atom_site_fract_z
Si Si1 0.158538 0.893866 0.713209
Si Si2 0.014722 0.516592 0.942020
Si Si3 0.875000 0.875000 0.060643
Si Si4 0.125000 0.697714 0.125000
Si Si5 0.740232 0.684298 0.856674
Si Si6 0.625000 0.625000 0.546028
O O1 0.166451 0.941858 0.686419
O O2 0.218174 0.859986 0.672622
O O3 0.248887 0.892431 0.764304
O O4 0.004225 0.883740 0.725115
O O5 0.986779 0.478843 0.899742
O O6 0.164376 0.532678 0.931575
O O7 0.000000 0.500000 0.000000
O O8 0.850286 0.831129 0.095226
O O9 0.068248 0.665714 0.080105
O O10 0.875000 0.708569 0.875000
#
# Coordination Sequence:
#
# PCOD8285847 Si02
#       6
#    32  32  16  16  32  16
#     4  11  19  36  57  84 117 147 198 238 292 351
#     4  12  20  35  58  89 113 151 198 243 288 356
#     4  10  19  30  57  85 110 147 185 245 284 340
#     4  11  24  34  62  82 116 152 202 242 288 343
#     4  10  19  33  55  86 118 148 187 248 296 342
#     4  11  21  42  55  82 114 160 193 241 294 353
#
# _framework density 18.180875
#
# number of rings (size 3 to 8) (size 9 to 14) (size 15 to 20)
#    0.000    1.111    6.667    1.333    1.556    0.000 
#    0.000    2.222    0.000    9.333    0.000    0.000 
#    0.000    0.000    0.000    0.000    0.000    0.000 
#
# Total GULP energy -446191.791923 kJ/mol
# GULP energy per Si atom -12394.216442 kJ/mol
# Density = 1.813949 g / cm^3
# Si number density = 18.180875 Si / 1000 Ang^3
#
#
#
# Elastic Constant Matrix: (Units=GPa)
#
#
# Indices 1 2 3 4 5 6 
#
# 1 142.3861 51.2176 59.0115 0.0000 0.0000 0.0000
# 2 51.2176 104.6379 41.5434 0.0000 0.0000 0.0000
# 3 59.0115 41.5434 89.4097 0.0000 0.0000 0.0000
# 4 0.0000 0.0000 0.0000 35.4336 0.0000 0.0000
# 5 0.0000 0.0000 0.0000 0.0000 25.7674 0.0000
# 6 0.0000 0.0000 0.0000 0.0000 0.0000 19.3467
#
#
#
# Elastic Compliance Matrix: (Units=1/GPa)
#
#
# Indices 1 2 3 4 5 6 
#
# 1 0.010330 -0.002881 -0.005480 0.000000 0.000000 0.000000
# 2 -0.002881 0.012522 -0.003917 0.000000 0.000000 0.000000
# 3 -0.005480 -0.003917 0.016621 0.000000 0.000000 0.000000
# 4 0.000000 0.000000 0.000000 0.028222 0.000000 0.000000
# 5 0.000000 0.000000 0.000000 0.000000 0.038809 0.000000
# 6 0.000000 0.000000 0.000000 0.000000 0.000000 0.051688
#
#
# Mechanical properties :
#
#
# Convention : Reuss Voigt Hill
#
# Bulk Modulus (GPa) = 67.02982 71.10873 69.06928
# Shear Modulus (GPa) = 26.63544 28.42030 27.52787
#
# Velocity S-wave (km/s) = 3.83172 3.95802 3.89538
# Velocity P-wave (km/s) = 7.51827 7.75143 7.63574
#
# Compressibility (1/GPa) = 0.01491873
#
# Stress axis : x y z
#
# Youngs Moduli (GPa) = 96.80082 79.85976 60.16500
#
# Poissons Ratio (x) = 0.23007 0.32968
# Poissons Ratio (y) = 0.27888 0.23565
# Poissons Ratio (z) = 0.53043 0.31279
#
# Static dielectric constant tensor:
#      x y z
#    x 3.950410 0.000000 0.000000 
#    y 0.000000 3.454110 0.000000 
#    z 0.000000 0.000000 3.398150 
# 
# 
# High freq. dielectric constant tensor:
#      x y z
#    x 1.694420 0.000000 0.000000 
#    y 0.000000 1.701900 0.000000 
#    z 0.000000 0.000000 1.694840 
# 
# From -- ./inp_files/12292.got.cif
#   From: 2010.03.12/outbox.cif.g09.slc.cpg/sg70_7_cif.got.tgz:12292.got - 2010.04.16 13:46:32.
