data_PCOD8285217
_publ_section_title
;
Structure prediction by ZEFSAII (Michael W. Deem and Ramdas Pophale) SiO2 
 PCOD8285217
Probable space group: F M M M
;
_chemical_formula_sum "Si O2"
_cell_formula_units_Z 160
_cell_length_a 29.337972
_cell_length_b 8.189210
_cell_length_c 33.084773
_cell_angle_alpha 90.000000
_cell_angle_beta 90.000000
_cell_angle_gamma 90.000000
_cell_volume 7948.775973
_symmetry_space_group_name_H-M "F M M M"
_symmetry_group_IT_number 69
_symmetry_cell_setting 'orthorhombic'
loop_
_space_group_symop_operation_xyz
x,y,z
-x,-y,z
x,-y,-z
-x,y,-z
-x,-y,-z
x,y,-z
-x,y,z
x,-y,z
x,1/2+y,1/2+z
-x,1/2-y,1/2+z
x,1/2-y,1/2-z
-x,1/2+y,1/2-z
-x,1/2-y,1/2-z
x,1/2+y,1/2-z
-x,1/2+y,1/2+z
x,1/2-y,1/2+z
1/2+x,y,1/2+z
1/2-x,-y,1/2+z
1/2+x,-y,1/2-z
1/2-x,y,1/2-z
1/2-x,-y,1/2-z
1/2+x,y,1/2-z
1/2-x,y,1/2+z
1/2+x,-y,1/2+z
1/2+x,1/2+y,z
1/2-x,1/2-y,z
1/2+x,1/2-y,-z
1/2-x,1/2+y,-z
1/2-x,1/2-y,-z
1/2+x,1/2+y,-z
1/2-x,1/2+y,z
1/2+x,1/2-y,z
loop_
_atom_site_type_symbol
_atom_site_label
_atom_site_fract_x
_atom_site_fract_y
_atom_site_fract_z
Si Si1 0.948310 0.305847 0.705546
Si Si2 0.931953 0.187693 0.000000
Si Si3 0.950091 0.182541 0.583699
Si Si4 0.666896 0.310229 0.500000
Si Si5 0.381020 0.817728 0.361435
Si Si6 0.200871 0.194491 0.085413
O O1 0.947757 0.500000 0.702006
O O2 0.934131 0.250000 0.750000
O O3 0.908744 0.230733 0.675757
O O4 0.000000 0.242288 0.695431
O O5 0.954157 0.282194 0.963170
O O6 0.877452 0.198528 0.000000
O O7 0.946895 0.000000 0.000000
O O8 0.917051 0.318435 0.602081
O O9 0.000000 0.198065 0.603571
O O10 0.930437 0.000000 0.591053
O O11 0.653619 0.500000 0.500000
O O12 0.694702 0.271619 0.540892
O O13 0.335031 0.737092 0.380400
O O14 0.368642 0.000000 0.347989
O O15 0.250000 0.250000 0.101589
O O16 0.196169 0.000000 0.081976
#
# Coordination Sequence:
#
# PCOD8285217 Si02
#       6
#    32  16  32  16  32  32
#     4   9  18  34  57  86 117 148 182 222 270 328
#     4  12  23  36  53  74 104 147 190 228 274 330
#     4  11  23  36  52  77 109 145 186 230 276 326
#     4  12  23  38  59  81 109 144 187 242 292 334
#     4  10  21  37  58  81 110 146 186 228 276 337
#     4  11  23  39  59  83 110 145 189 237 288 340
#
# _framework density 20.128883999999999
#
# number of rings (size 3 to 8) (size 9 to 14) (size 15 to 20)
#    0.000    1.400    2.000    4.200    0.000    5.200 
#    0.000    2.000    0.000    0.600    0.000    4.200 
#    0.000    0.000    0.000    0.000    0.000    0.000 
#
# Total GULP energy -495606.678604 kJ/mol
# GULP energy per Si atom -12390.166965 kJ/mol
# Density = 2.008307 g / cm^3
# Si number density = 20.128884 Si / 1000 Ang^3
#
#
#
# Elastic Constant Matrix: (Units=GPa)
#
#
# Indices 1 2 3 4 5 6 
#
# 1 151.3421 14.0513 70.0479 0.0000 0.0000 0.0023
# 2 14.0513 44.8383 5.6518 -0.0003 0.0002 0.0050
# 3 70.0479 5.6518 130.2006 0.0000 0.0000 -0.0002
# 4 0.0000 -0.0003 0.0000 23.4138 0.0000 -0.0001
# 5 0.0000 0.0002 0.0000 0.0000 22.0611 -0.0002
# 6 0.0023 0.0050 -0.0002 -0.0001 -0.0002 19.9936
#
#
#
# Elastic Compliance Matrix: (Units=1/GPa)
#
#
# Indices 1 2 3 4 5 6 
#
# 1 0.009014 -0.002226 -0.004753 0.000000 0.000000 -0.000001
# 2 -0.002226 0.022975 0.000200 0.000000 0.000000 -0.000005
# 3 -0.004753 0.000200 0.010229 0.000000 0.000000 0.000001
# 4 0.000000 0.000000 0.000000 0.042710 0.000000 0.000000
# 5 0.000000 0.000000 0.000000 0.000000 0.045329 0.000000
# 6 -0.000001 -0.000005 0.000001 0.000000 0.000000 0.050016
#
#
# Mechanical properties :
#
#
# Convention : Reuss Voigt Hill
#
# Bulk Modulus (GPa) = 34.89122 56.20922 45.55022
# Shear Modulus (GPa) = 24.58422 28.86905 26.72663
#
# Velocity S-wave (km/s) = 3.49856 3.79121 3.64782
# Velocity P-wave (km/s) = 5.80443 6.86656 6.35771
#
# Compressibility (1/GPa) = 0.02866050
#
# Stress axis : x y z
#
# Youngs Moduli (GPa) = 110.93768 43.52632 97.76263
#
# Poissons Ratio (x) = 0.09688 0.46466
# Poissons Ratio (y) = 0.24691 -0.01957
# Poissons Ratio (z) = 0.52728 -0.00871
#
# Static dielectric constant tensor:
#      x y z
#    x 3.823340 0.000000 0.000000 
#    y 0.000000 3.464880 0.000000 
#    z 0.000000 0.000000 3.714360 
# 
# 
# High freq. dielectric constant tensor:
#      x y z
#    x 1.784460 0.000000 0.000000 
#    y 0.000000 1.774260 0.000000 
#    z 0.000000 0.000000 1.769820 
# 
# From -- ./inp_files/5749.got.cif
#   From: 2010.03.12/outbox.cif.g09.slc.cpg/sg69_3_cif.got.tgz:5749.got - 2010.04.10 23:52:46.
