data_PCOD8285198
_publ_section_title
;
Structure prediction by ZEFSAII (Michael W. Deem and Ramdas Pophale) SiO2 
 PCOD8285198
Probable space group: F M M M
;
_chemical_formula_sum "Si O2"
_cell_formula_units_Z 160
_cell_length_a 17.209350
_cell_length_b 16.032538
_cell_length_c 27.938778
_cell_angle_alpha 90.000000
_cell_angle_beta 90.000000
_cell_angle_gamma 90.000000
_cell_volume 7708.575884
_symmetry_space_group_name_H-M "F M M M"
_symmetry_group_IT_number 69
_symmetry_cell_setting 'orthorhombic'
loop_
_space_group_symop_operation_xyz
x,y,z
-x,-y,z
x,-y,-z
-x,y,-z
-x,-y,-z
x,y,-z
-x,y,z
x,-y,z
x,1/2+y,1/2+z
-x,1/2-y,1/2+z
x,1/2-y,1/2-z
-x,1/2+y,1/2-z
-x,1/2-y,1/2-z
x,1/2+y,1/2-z
-x,1/2+y,1/2+z
x,1/2-y,1/2+z
1/2+x,y,1/2+z
1/2-x,-y,1/2+z
1/2+x,-y,1/2-z
1/2-x,y,1/2-z
1/2-x,-y,1/2-z
1/2+x,y,1/2-z
1/2-x,y,1/2+z
1/2+x,-y,1/2+z
1/2+x,1/2+y,z
1/2-x,1/2-y,z
1/2+x,1/2-y,-z
1/2-x,1/2+y,-z
1/2-x,1/2-y,-z
1/2+x,1/2+y,-z
1/2-x,1/2+y,z
1/2+x,1/2-y,z
loop_
_atom_site_type_symbol
_atom_site_label
_atom_site_fract_x
_atom_site_fract_y
_atom_site_fract_z
Si Si1 0.171606 0.704213 0.054643
Si Si2 0.910801 0.404121 0.127013
Si Si3 0.910085 0.663971 0.228911
Si Si4 0.589550 0.367527 0.051943
Si Si5 0.906339 0.000000 0.127431
Si Si6 0.836125 0.000000 0.770841
O O1 0.250000 0.750000 0.072376
O O2 0.149156 0.623659 0.085832
O O3 0.102086 0.770010 0.061747
O O4 0.180826 0.674034 0.000000
O O5 0.892504 0.500000 0.141149
O O6 0.896154 0.343563 0.172180
O O7 0.000000 0.396503 0.109422
O O8 0.873173 0.750000 0.250000
O O9 0.875026 0.584283 0.253963
O O10 0.000000 0.662689 0.242076
O O11 0.500000 0.387805 0.047630
O O12 0.621168 0.420770 0.096124
O O13 0.628610 0.390685 0.000000
O O14 0.848213 0.000000 0.172143
O O15 0.000000 0.000000 0.140055
O O16 0.750000 0.000000 0.750000
#
# Coordination Sequence:
#
# PCOD8285198 Si02
#       6
#    32  32  32  32  16  16
#     4  10  22  39  57  86 126 164 201 245 306 376
#     4  10  21  40  66  91 118 158 210 264 312 362
#     4  10  22  43  67  87 119 165 211 262 314 368
#     4   9  18  35  59  88 122 156 198 254 305 356
#     4  10  21  36  62  91 117 156 205 246 298 373
#     4  12  26  41  59  94 132 160 205 262 316 379
#
# _framework density 20.756104000000001
#
# number of rings (size 3 to 8) (size 9 to 14) (size 15 to 20)
#    0.000    2.000    1.000    1.800    2.800    4.800 
#    1.800    1.000    0.000    0.000    0.000    0.000 
#    0.000    0.000    0.000    0.000    0.000    0.000 
#
# Total GULP energy -495764.155146 kJ/mol
# GULP energy per Si atom -12394.103879 kJ/mol
# Density = 2.070886 g / cm^3
# Si number density = 20.756104 Si / 1000 Ang^3
#
#
#
# Elastic Constant Matrix: (Units=GPa)
#
#
# Indices 1 2 3 4 5 6 
#
# 1 51.6399 40.9255 58.6093 0.0000 0.0000 0.0000
# 2 40.9255 137.1000 61.8281 0.0000 0.0000 0.0000
# 3 58.6093 61.8281 125.1046 0.0000 0.0000 0.0000
# 4 0.0000 0.0000 0.0000 52.2602 0.0000 0.0000
# 5 0.0000 0.0000 0.0000 0.0000 14.7503 0.0000
# 6 0.0000 0.0000 0.0000 0.0000 0.0000 34.4371
#
#
#
# Elastic Compliance Matrix: (Units=1/GPa)
#
#
# Indices 1 2 3 4 5 6 
#
# 1 0.043783 -0.004915 -0.018083 0.000000 0.000000 0.000000
# 2 -0.004915 0.009938 -0.002609 0.000000 0.000000 0.000000
# 3 -0.018083 -0.002609 0.017754 0.000000 0.000000 0.000000
# 4 0.000000 0.000000 0.000000 0.019135 0.000000 0.000000
# 5 0.000000 0.000000 0.000000 0.000000 0.067795 0.000000
# 6 0.000000 0.000000 0.000000 0.000000 0.000000 0.029038
#
#
# Mechanical properties :
#
#
# Convention : Reuss Voigt Hill
#
# Bulk Modulus (GPa) = 49.35313 70.73004 60.04158
# Shear Modulus (GPa) = 20.37412 30.45499 25.41455
#
# Velocity S-wave (km/s) = 3.13644 3.83466 3.50299
# Velocity P-wave (km/s) = 6.07829 7.33191 6.73434
#
# Compressibility (1/GPa) = 0.02026214
#
# Stress axis : x y z
#
# Youngs Moduli (GPa) = 22.83992 100.62873 56.32550
#
# Poissons Ratio (x) = 0.49458 1.01851
# Poissons Ratio (y) = 0.11225 0.14694
# Poissons Ratio (z) = 0.41300 0.26251
#
# Static dielectric constant tensor:
#      x y z
#    x 3.901240 0.000000 0.000000 
#    y 0.000000 3.816510 0.000000 
#    z 0.000000 0.000000 4.087530 
# 
# 
# High freq. dielectric constant tensor:
#      x y z
#    x 1.791230 0.000000 0.000000 
#    y 0.000000 1.815930 0.000000 
#    z 0.000000 0.000000 1.817050 
# 
# From -- ./inp_files/19578.got.cif
#   From: 2010.03.12/outbox.cif.g09.slc.cpg/sg69_10_cif.got.tgz:19578.got - 2010.04.10 23:52:46.
