data_PCOD8285280
_publ_section_title
;
Structure prediction by ZEFSAII (Michael W. Deem and Ramdas Pophale) SiO2 
 PCOD8285280
Probable space group: F M M M
;
_chemical_formula_sum "Si O2"
_cell_formula_units_Z 160
_cell_length_a 8.427555
_cell_length_b 32.942400
_cell_length_c 29.075621
_cell_angle_alpha 90.000000
_cell_angle_beta 90.000000
_cell_angle_gamma 90.000000
_cell_volume 8072.086943
_symmetry_space_group_name_H-M "F M M M"
_symmetry_group_IT_number 69
_symmetry_cell_setting 'orthorhombic'
loop_
_space_group_symop_operation_xyz
x,y,z
-x,-y,z
x,-y,-z
-x,y,-z
-x,-y,-z
x,y,-z
-x,y,z
x,-y,z
x,1/2+y,1/2+z
-x,1/2-y,1/2+z
x,1/2-y,1/2-z
-x,1/2+y,1/2-z
-x,1/2-y,1/2-z
x,1/2+y,1/2-z
-x,1/2+y,1/2+z
x,1/2-y,1/2+z
1/2+x,y,1/2+z
1/2-x,-y,1/2+z
1/2+x,-y,1/2-z
1/2-x,y,1/2-z
1/2-x,-y,1/2-z
1/2+x,y,1/2-z
1/2-x,y,1/2+z
1/2+x,-y,1/2+z
1/2+x,1/2+y,z
1/2-x,1/2-y,z
1/2+x,1/2-y,-z
1/2-x,1/2+y,-z
1/2-x,1/2-y,-z
1/2+x,1/2+y,-z
1/2-x,1/2+y,z
1/2+x,1/2-y,z
loop_
_atom_site_type_symbol
_atom_site_label
_atom_site_fract_x
_atom_site_fract_y
_atom_site_fract_z
Si Si1 0.310824 0.085289 0.701204
Si Si2 0.186874 0.000000 0.332681
Si Si3 0.320921 0.139439 0.383078
Si Si4 0.814396 0.206474 0.551538
Si Si5 0.315101 0.500000 0.067609
Si Si6 0.176936 0.917238 0.550122
O O1 0.500000 0.079987 0.699084
O O2 0.250000 0.101883 0.750000
O O3 0.255833 0.120428 0.664916
O O4 0.229866 0.041258 0.694259
O O5 0.292655 0.000000 0.377941
O O6 0.000000 0.000000 0.343679
O O7 0.500000 0.154433 0.376914
O O8 0.223871 0.175849 0.406597
O O9 0.311372 0.102322 0.418446
O O10 0.747012 0.194658 0.500000
O O11 0.750000 0.250000 0.566788
O O12 0.000000 0.209089 0.547699
O O13 0.500000 0.500000 0.055217
O O14 0.225444 0.463246 0.043947
O O15 0.175583 0.896184 0.500000
O O16 0.000000 0.912880 0.572030
#
# Coordination Sequence:
#
# PCOD8285280 Si02
#       6
#    32  16  32  32  16  32
#     4  11  24  41  61  86 116 152 197 248 300 355
#     4  12  23  38  61  83 111 152 197 250 304 352
#     4  11  23  38  59  86 118 152 191 239 291 346
#     4  10  21  38  62  92 125 159 195 234 281 342
#     4  12  23  36  53  76 108 149 194 240 290 344
#     4  11  23  37  54  78 110 151 196 237 284 343
#
# _framework density 19.821393
#
# number of rings (size 3 to 8) (size 9 to 14) (size 15 to 20)
#    0.000    1.000    2.000    5.400    0.000    8.800 
#    0.000    0.000    0.000    0.600    0.000    4.200 
#    0.000    0.000    0.000    0.000    0.000    0.000 
#
# Total GULP energy -495702.463562 kJ/mol
# GULP energy per Si atom -12392.561589 kJ/mol
# Density = 1.977628 g / cm^3
# Si number density = 19.821393 Si / 1000 Ang^3
#
#
#
# Elastic Constant Matrix: (Units=GPa)
#
#
# Indices 1 2 3 4 5 6 
#
# 1 72.0753 22.4233 27.6765 0.0000 0.0000 0.0000
# 2 22.4233 117.4300 55.9228 0.0000 0.0000 0.0000
# 3 27.6765 55.9228 137.8466 0.0000 0.0000 0.0000
# 4 0.0000 0.0000 0.0000 14.0872 0.0000 0.0000
# 5 0.0000 0.0000 0.0000 0.0000 25.7287 0.0000
# 6 0.0000 0.0000 0.0000 0.0000 0.0000 32.6217
#
#
#
# Elastic Compliance Matrix: (Units=1/GPa)
#
#
# Indices 1 2 3 4 5 6 
#
# 1 0.015338 -0.001812 -0.002344 0.000000 0.000000 0.000000
# 2 -0.001812 0.010769 -0.004005 0.000000 0.000000 0.000000
# 3 -0.002344 -0.004005 0.009350 0.000000 0.000000 0.000000
# 4 0.000000 0.000000 0.000000 0.070987 0.000000 0.000000
# 5 0.000000 0.000000 0.000000 0.000000 0.038867 0.000000
# 6 0.000000 0.000000 0.000000 0.000000 0.000000 0.030654
#
#
# Mechanical properties :
#
#
# Convention : Reuss Voigt Hill
#
# Bulk Modulus (GPa) = 52.26328 59.93298 56.09813
# Shear Modulus (GPa) = 25.16774 29.24281 27.20528
#
# Velocity S-wave (km/s) = 3.56719 3.84515 3.70877
# Velocity P-wave (km/s) = 6.58717 7.07218 6.83398
#
# Compressibility (1/GPa) = 0.01913389
#
# Stress axis : x y z
#
# Youngs Moduli (GPa) = 65.19561 92.85858 106.95294
#
# Poissons Ratio (x) = 0.16830 0.25073
# Poissons Ratio (y) = 0.11816 0.42834
# Poissons Ratio (z) = 0.15284 0.37190
#
# Static dielectric constant tensor:
#      x y z
#    x 3.589870 0.000000 0.000000 
#    y 0.000000 3.566570 0.000000 
#    z 0.000000 0.000000 3.736550 
# 
# 
# High freq. dielectric constant tensor:
#      x y z
#    x 1.780260 0.000000 0.000000 
#    y 0.000000 1.758340 0.000000 
#    z 0.000000 0.000000 1.770730 
# 
# From -- ./inp_files/5737.got.cif
#   From: 2010.03.12/outbox.cif.g09.slc.cpg/sg69_3_cif.got.tgz:5737.got - 2010.04.10 23:52:46.
