data_PCOD8285166
_publ_section_title
;
Structure prediction by ZEFSAII (Michael W. Deem and Ramdas Pophale) SiO2 
 PCOD8285166
Probable space group: F M M M
;
_chemical_formula_sum "Si O2"
_cell_formula_units_Z 160
_cell_length_a 15.400622
_cell_length_b 18.401427
_cell_length_c 30.755839
_cell_angle_alpha 90.000000
_cell_angle_beta 90.000000
_cell_angle_gamma 90.000000
_cell_volume 8716.002445
_symmetry_space_group_name_H-M "F M M M"
_symmetry_group_IT_number 69
_symmetry_cell_setting 'orthorhombic'
loop_
_space_group_symop_operation_xyz
x,y,z
-x,-y,z
x,-y,-z
-x,y,-z
-x,-y,-z
x,y,-z
-x,y,z
x,-y,z
x,1/2+y,1/2+z
-x,1/2-y,1/2+z
x,1/2-y,1/2-z
-x,1/2+y,1/2-z
-x,1/2-y,1/2-z
x,1/2+y,1/2-z
-x,1/2+y,1/2+z
x,1/2-y,1/2+z
1/2+x,y,1/2+z
1/2-x,-y,1/2+z
1/2+x,-y,1/2-z
1/2-x,y,1/2-z
1/2-x,-y,1/2-z
1/2+x,y,1/2-z
1/2-x,y,1/2+z
1/2+x,-y,1/2+z
1/2+x,1/2+y,z
1/2-x,1/2-y,z
1/2+x,1/2-y,-z
1/2-x,1/2+y,-z
1/2-x,1/2-y,-z
1/2+x,1/2+y,-z
1/2-x,1/2+y,z
1/2+x,1/2-y,z
loop_
_atom_site_type_symbol
_atom_site_label
_atom_site_fract_x
_atom_site_fract_y
_atom_site_fract_z
Si Si1 0.852483 0.582679 0.164479
Si Si2 0.596017 0.582401 0.567733
Si Si3 0.326357 0.586976 0.870916
Si Si4 0.260212 0.332040 0.048465
Si Si5 0.500000 0.087475 0.774351
Si Si6 0.500000 0.413812 0.176259
O O1 0.839111 0.500000 0.178245
O O2 0.903542 0.590947 0.119590
O O3 0.754961 0.615339 0.158592
O O4 0.912743 0.618791 0.201975
O O5 0.500000 0.602464 0.550830
O O6 0.620169 0.500000 0.555009
O O7 0.664157 0.634700 0.545005
O O8 0.322835 0.500000 0.876834
O O9 0.320902 0.622645 0.918697
O O10 0.414640 0.614289 0.848609
O O11 0.250000 0.250000 0.065540
O O12 0.301890 0.333801 0.000000
O O13 0.500000 0.116836 0.725207
O O14 0.500000 0.000000 0.777222
O O15 0.500000 0.500000 0.177720
#
# Coordination Sequence:
#
# PCOD8285166 Si02
#       6
#    32  32  32  32  16  16
#     4   8  13  23  43  72 103 131 155 191 250 304
#     4   9  16  29  52  80 106 129 158 202 260 318
#     4   9  18  33  51  71 100 135 170 207 247 290
#     4  10  21  36  51  72  99 128 167 209 254 310
#     4   9  14  22  42  74 109 132 156 201 253 299
#     4   9  18  30  45  71 103 134 172 211 237 276
#
# _framework density 18.357040000000001
#
# number of rings (size 3 to 8) (size 9 to 14) (size 15 to 20)
#    0.000    3.000    1.000    1.800    0.000    2.800 
#    1.800    5.500    0.000    1.800    0.000   16.800 
#    0.000    0.000    0.000    0.000    0.000    0.000 
#
# Total GULP energy -495670.527533 kJ/mol
# GULP energy per Si atom -12391.763188 kJ/mol
# Density = 1.831526 g / cm^3
# Si number density = 18.357040 Si / 1000 Ang^3
#
#
#
# Elastic Constant Matrix: (Units=GPa)
#
#
# Indices 1 2 3 4 5 6 
#
# 1 134.0624 27.2472 62.1812 0.0000 0.0000 0.0000
# 2 27.2472 50.0537 24.7291 0.0000 0.0000 0.0000
# 3 62.1812 24.7291 118.8779 0.0000 0.0000 0.0000
# 4 0.0000 0.0000 0.0000 11.0550 0.0000 0.0000
# 5 0.0000 0.0000 0.0000 0.0000 5.3846 0.0000
# 6 0.0000 0.0000 0.0000 0.0000 0.0000 8.5343
#
#
#
# Elastic Compliance Matrix: (Units=1/GPa)
#
#
# Indices 1 2 3 4 5 6 
#
# 1 0.010312 -0.003286 -0.004710 0.000000 0.000000 0.000000
# 2 -0.003286 0.023314 -0.003131 0.000000 0.000000 0.000000
# 3 -0.004710 -0.003131 0.011527 0.000000 0.000000 0.000000
# 4 0.000000 0.000000 0.000000 0.090457 0.000000 0.000000
# 5 0.000000 0.000000 0.000000 0.000000 0.185716 0.000000
# 6 0.000000 0.000000 0.000000 0.000000 0.000000 0.117175
#
#
# Mechanical properties :
#
#
# Convention : Reuss Voigt Hill
#
# Bulk Modulus (GPa) = 43.67116 59.03435 51.35275
# Shear Modulus (GPa) = 10.67490 17.58385 14.12937
#
# Velocity S-wave (km/s) = 2.41408 3.09832 2.77735
# Velocity P-wave (km/s) = 5.62244 6.71031 6.19032
#
# Compressibility (1/GPa) = 0.02289841
#
# Stress axis : x y z
#
# Youngs Moduli (GPa) = 96.97618 42.89219 86.75264
#
# Poissons Ratio (x) = 0.14096 0.40862
# Poissons Ratio (y) = 0.31869 0.27161
# Poissons Ratio (z) = 0.45677 0.13429
#
# Static dielectric constant tensor:
#      x y z
#    x 3.595840 0.000000 0.000000 
#    y 0.000000 2.897860 0.000000 
#    z 0.000000 0.000000 3.369210 
# 
# 
# High freq. dielectric constant tensor:
#      x y z
#    x 1.713610 0.000000 0.000000 
#    y 0.000000 1.654940 0.000000 
#    z 0.000000 0.000000 1.710250 
# 
# From -- ./inp_files/41785.got.cif
#   From: 2010.03.12/outbox.cif.g09.slc.cpg/sg69_21_cif.got.tgz:41785.got - 2010.04.10 23:52:46.
