data_PCOD8285632
_publ_section_title
;
Structure prediction by ZEFSAII (Michael W. Deem and Ramdas Pophale) SiO2 
 PCOD8285632
Probable space group: F M M M
;
_chemical_formula_sum "Si O2"
_cell_formula_units_Z 112
_cell_length_a 16.915790
_cell_length_b 32.551929
_cell_length_c 9.813766
_cell_angle_alpha 90.000000
_cell_angle_beta 90.000000
_cell_angle_gamma 90.000000
_cell_volume 5403.867764
_symmetry_space_group_name_H-M "F M M M"
_symmetry_group_IT_number 69
_symmetry_cell_setting 'orthorhombic'
loop_
_space_group_symop_operation_xyz
x,y,z
-x,-y,z
x,-y,-z
-x,y,-z
-x,-y,-z
x,y,-z
-x,y,z
x,-y,z
x,1/2+y,1/2+z
-x,1/2-y,1/2+z
x,1/2-y,1/2-z
-x,1/2+y,1/2-z
-x,1/2-y,1/2-z
x,1/2+y,1/2-z
-x,1/2+y,1/2+z
x,1/2-y,1/2+z
1/2+x,y,1/2+z
1/2-x,-y,1/2+z
1/2+x,-y,1/2-z
1/2-x,y,1/2-z
1/2-x,-y,1/2-z
1/2+x,y,1/2-z
1/2-x,y,1/2+z
1/2+x,-y,1/2+z
1/2+x,1/2+y,z
1/2-x,1/2-y,z
1/2+x,1/2-y,-z
1/2-x,1/2+y,-z
1/2-x,1/2-y,-z
1/2+x,1/2+y,-z
1/2-x,1/2+y,z
1/2+x,1/2-y,z
loop_
_atom_site_type_symbol
_atom_site_label
_atom_site_fract_x
_atom_site_fract_y
_atom_site_fract_z
Si Si1 0.324691 0.693344 0.000000
Si Si2 0.675148 0.918274 0.157439
Si Si3 0.142690 0.787802 0.500000
Si Si4 0.088274 0.500000 0.838452
Si Si5 0.910170 0.160851 0.257444
O O1 0.230412 0.693559 0.000000
O O2 0.359648 0.738873 0.000000
O O3 0.352405 0.668786 0.131804
O O4 0.750000 0.908334 0.250000
O O5 0.634924 0.959916 0.212359
O O6 0.611899 0.881858 0.170869
O O7 0.701391 0.922368 0.000000
O O8 0.097560 0.802424 0.365623
O O9 0.000000 0.500000 0.775194
O O10 0.081935 0.500000 0.000000
O O11 0.000000 0.158875 0.205162
#
# Coordination Sequence:
#
# PCOD8285632 Si02
#       5
#    16  32  16  16  32
#     4  11  25  43  63  92 123 166 207 263 319 375
#     4  11  23  40  66  94 126 167 213 258 309 374
#     4  11  23  43  67  88 123 164 215 255 313 385
#     4   9  19  38  65  95 128 163 208 260 309 366
#     4  12  25  40  63  93 127 164 209 263 316 371
#
# _framework density 20.725895000000001
#
# number of rings (size 3 to 8) (size 9 to 14) (size 15 to 20)
#    0.000    1.000    1.429    5.571    2.000    6.857 
#    0.000    0.000    0.000    0.857    0.000    0.000 
#    0.000    0.000    0.000    0.000    0.000    0.000 
#
# Total GULP energy -347425.305732 kJ/mol
# GULP energy per Si atom -12408.046633 kJ/mol
# Density = 2.067872 g / cm^3
# Si number density = 20.725895 Si / 1000 Ang^3
#
#
#
# Elastic Constant Matrix: (Units=GPa)
#
#
# Indices 1 2 3 4 5 6 
#
# 1 101.6122 28.6876 15.7730 0.0000 0.0000 0.0000
# 2 28.6876 103.2864 17.8520 0.0000 0.0000 0.0000
# 3 15.7730 17.8520 96.2206 0.0000 -0.0001 0.0000
# 4 0.0000 0.0000 0.0000 28.0364 0.0000 0.0000
# 5 0.0000 0.0000 -0.0001 0.0000 27.1025 0.0000
# 6 0.0000 0.0000 0.0000 0.0000 0.0000 29.5718
#
#
#
# Elastic Compliance Matrix: (Units=1/GPa)
#
#
# Indices 1 2 3 4 5 6 
#
# 1 0.010824 -0.002789 -0.001257 0.000000 0.000000 0.000000
# 2 -0.002789 0.010721 -0.001532 0.000000 0.000000 0.000000
# 3 -0.001257 -0.001532 0.010883 0.000000 0.000000 0.000000
# 4 0.000000 0.000000 0.000000 0.035668 0.000000 0.000000
# 5 0.000000 0.000000 0.000000 0.000000 0.036897 0.000000
# 6 0.000000 0.000000 0.000000 0.000000 0.000000 0.033816
#
#
# Mechanical properties :
#
#
# Convention : Reuss Voigt Hill
#
# Bulk Modulus (GPa) = 47.00917 47.30493 47.15705
# Shear Modulus (GPa) = 31.83588 32.86259 32.34923
#
# Velocity S-wave (km/s) = 3.92349 3.98626 3.95500
# Velocity P-wave (km/s) = 6.57690 6.63782 6.60743
#
# Compressibility (1/GPa) = 0.02127245
#
# Stress axis : x y z
#
# Youngs Moduli (GPa) = 92.38851 93.27258 91.88612
#
# Poissons Ratio (x) = 0.26014 0.11549
# Poissons Ratio (y) = 0.25768 0.14076
# Poissons Ratio (z) = 0.11612 0.14289
#
# Static dielectric constant tensor:
#      x y z
#    x 3.731730 0.000000 0.000000 
#    y 0.000000 3.899740 0.000000 
#    z 0.000000 0.000000 3.850800 
# 
# 
# High freq. dielectric constant tensor:
#      x y z
#    x 1.818010 0.000000 0.000000 
#    y 0.000000 1.826180 0.000000 
#    z 0.000000 0.000000 1.800000 
# 
# From -- ./inp_files/7426.got.cif
#   From: 2010.03.12/outbox.cif.g09.slc.cpg/sg69_4_cif.got.tgz:7426.got - 2010.04.10 23:52:46.
