data_PCOD8285931
_publ_section_title
;
Structure prediction by ZEFSAII (Michael W. Deem and Ramdas Pophale) SiO2 
 PCOD8285931
Probable space group: F D D D
;
_chemical_formula_sum "Si O2"
_cell_formula_units_Z 208
_cell_length_a 29.376588
_cell_length_b 19.108984
_cell_length_c 17.929584
_cell_angle_alpha 90.000000
_cell_angle_beta 90.000000
_cell_angle_gamma 90.000000
_cell_volume 10064.893004
_symmetry_space_group_name_H-M "F D D D"
_symmetry_group_IT_number 70
_space_group.IT_coordinate_system_code '2'
_symmetry_cell_setting 'orthorhombic'
loop_
_space_group_symop_operation_xyz
x,y,z
1/4-x,1/4-y,z
x,1/4-y,1/4-z
1/4-x,y,1/4-z
-x,-y,-z
3/4+x,3/4+y,-z
-x,3/4+y,3/4+z
3/4+x,-y,3/4+z
x,1/2+y,1/2+z
1/4-x,3/4-y,1/2+z
x,3/4-y,3/4-z
1/4-x,1/2+y,3/4-z
-x,1/2-y,1/2-z
3/4+x,1/4+y,1/2-z
-x,1/4+y,1/4+z
3/4+x,1/2-y,1/4+z
1/2+x,y,1/2+z
3/4-x,1/4-y,1/2+z
1/2+x,1/4-y,3/4-z
3/4-x,y,3/4-z
1/2-x,-y,1/2-z
1/4+x,3/4+y,1/2-z
1/2-x,3/4+y,1/4+z
1/4+x,-y,1/4+z
1/2+x,1/2+y,z
3/4-x,3/4-y,z
1/2+x,3/4-y,1/4-z
3/4-x,1/2+y,1/4-z
1/2-x,1/2-y,-z
1/4+x,1/4+y,-z
1/2-x,1/4+y,3/4+z
1/4+x,1/2-y,3/4+z
loop_
_atom_site_type_symbol
_atom_site_label
_atom_site_fract_x
_atom_site_fract_y
_atom_site_fract_z
Si Si1 0.032434 0.546779 0.102944
Si Si2 0.813665 0.234793 0.041396
Si Si3 0.248481 0.464915 0.644646
Si Si4 0.675554 0.102818 0.406744
Si Si5 0.206336 0.411219 0.779943
Si Si6 0.496402 0.974517 0.246636
Si Si7 0.126358 0.375000 0.875000
O O1 0.049347 0.625000 0.125000
O O2 0.026269 0.503767 0.178777
O O3 0.984852 0.550374 0.058850
O O4 0.067142 0.504613 0.047299
O O5 0.823112 0.308999 0.080573
O O6 0.848881 0.177217 0.071447
O O7 0.295359 0.422643 0.649001
O O8 0.207578 0.428175 0.691104
O O9 0.256063 0.541103 0.679810
O O10 0.234048 0.466761 0.557906
O O11 0.625000 0.125000 0.429926
O O12 0.697797 0.055186 0.471065
O O13 0.222198 0.331280 0.789995
O O14 0.157040 0.420509 0.817638
#
# Coordination Sequence:
#
# PCOD8285931 Si02
#       7
#    32  32  32  32  32  32  16
#     4  10  20  40  64  91 124 171 218 261 323 398
#     4  10  22  37  63  93 124 168 217 265 327 383
#     4  10  19  38  64  90 123 164 213 254 321 401
#     4  10  21  36  61  94 121 163 211 261 318 377
#     4  10  21  35  64  89 116 168 211 253 325 386
#     4  10  20  37  64  91 122 165 209 258 324 394
#     4  12  20  40  64  90 133 168 219 286 314 382
#
# _framework density 20.665891999999999
#
# number of rings (size 3 to 8) (size 9 to 14) (size 15 to 20)
#    0.000    1.846    2.308    1.846    0.000    1.231 
#    0.000    0.769    3.385   26.769    0.000    0.000 
#    0.000    0.000    0.000    0.000    0.000    0.000 
#
# Total GULP energy -644453.132914 kJ/mol
# GULP energy per Si atom -12393.329479 kJ/mol
# Density = 2.061886 g / cm^3
# Si number density = 20.665892 Si / 1000 Ang^3
#
#
#
# Elastic Constant Matrix: (Units=GPa)
#
#
# Indices 1 2 3 4 5 6 
#
# 1 92.0838 34.6782 55.0087 0.0000 0.0000 0.0000
# 2 34.6782 96.5497 56.2709 0.0000 0.0000 0.0000
# 3 55.0087 56.2709 160.7703 0.0000 0.0000 0.0000
# 4 0.0000 0.0000 0.0000 38.3943 0.0000 0.0000
# 5 0.0000 0.0000 0.0000 0.0000 27.0805 0.0000
# 6 0.0000 0.0000 0.0000 0.0000 0.0000 27.1045
#
#
#
# Elastic Compliance Matrix: (Units=1/GPa)
#
#
# Indices 1 2 3 4 5 6 
#
# 1 0.014252 -0.002860 -0.003875 0.000000 0.000000 0.000000
# 2 -0.002860 0.013586 -0.003776 0.000000 0.000000 0.000000
# 3 -0.003875 -0.003776 0.008868 0.000000 0.000000 0.000000
# 4 0.000000 0.000000 0.000000 0.026046 0.000000 0.000000
# 5 0.000000 0.000000 0.000000 0.000000 0.036927 0.000000
# 6 0.000000 0.000000 0.000000 0.000000 0.000000 0.036894
#
#
# Mechanical properties :
#
#
# Convention : Reuss Voigt Hill
#
# Bulk Modulus (GPa) = 63.77012 71.25770 67.51391
# Shear Modulus (GPa) = 30.70817 32.07891 31.39354
#
# Velocity S-wave (km/s) = 3.85896 3.94415 3.90179
# Velocity P-wave (km/s) = 7.12602 7.43623 7.28277
#
# Compressibility (1/GPa) = 0.01568133
#
# Stress axis : x y z
#
# Youngs Moduli (GPa) = 70.16640 73.60690 112.76795
#
# Poissons Ratio (x) = 0.21054 0.43700
# Poissons Ratio (y) = 0.20070 0.42586
# Poissons Ratio (z) = 0.27191 0.27797
#
# Static dielectric constant tensor:
#      x y z
#    x 3.393940 0.000000 0.000000 
#    y 0.000000 3.890780 0.000000 
#    z 0.000000 0.000000 4.058420 
# 
# 
# High freq. dielectric constant tensor:
#      x y z
#    x 1.768210 0.000000 0.000000 
#    y 0.000000 1.821380 0.000000 
#    z 0.000000 0.000000 1.821450 
# 
# From -- ./inp_files/39872.got.cif
#   From: 2010.03.12/outbox.cif.g09.slc.cpg/sg70_20_cif.got.tgz:39872.got - 2010.04.16 13:46:32.
