data_PCOD8285021
_publ_section_title
;
Structure prediction by ZEFSAII (Michael W. Deem and Ramdas Pophale) SiO2 
 PCOD8285021
Probable space group: F M M M
;
_chemical_formula_sum "Si O2"
_cell_formula_units_Z 192
_cell_length_a 20.706784
_cell_length_b 25.687257
_cell_length_c 17.452640
_cell_angle_alpha 90.000000
_cell_angle_beta 90.000000
_cell_angle_gamma 90.000000
_cell_volume 9283.067633
_symmetry_space_group_name_H-M "F M M M"
_symmetry_group_IT_number 69
_symmetry_cell_setting 'orthorhombic'
loop_
_space_group_symop_operation_xyz
x,y,z
-x,-y,z
x,-y,-z
-x,y,-z
-x,-y,-z
x,y,-z
-x,y,z
x,-y,z
x,1/2+y,1/2+z
-x,1/2-y,1/2+z
x,1/2-y,1/2-z
-x,1/2+y,1/2-z
-x,1/2-y,1/2-z
x,1/2+y,1/2-z
-x,1/2+y,1/2+z
x,1/2-y,1/2+z
1/2+x,y,1/2+z
1/2-x,-y,1/2+z
1/2+x,-y,1/2-z
1/2-x,y,1/2-z
1/2-x,-y,1/2-z
1/2+x,y,1/2-z
1/2-x,y,1/2+z
1/2+x,-y,1/2+z
1/2+x,1/2+y,z
1/2-x,1/2-y,z
1/2+x,1/2-y,-z
1/2-x,1/2+y,-z
1/2-x,1/2-y,-z
1/2+x,1/2+y,-z
1/2-x,1/2+y,z
1/2+x,1/2-y,z
loop_
_atom_site_type_symbol
_atom_site_label
_atom_site_fract_x
_atom_site_fract_y
_atom_site_fract_z
Si Si1 0.623916 0.440011 0.679236
Si Si2 0.314160 0.224679 0.910437
Si Si3 0.272339 0.388330 0.410427
Si Si4 0.000000 0.561657 0.085629
Si Si5 0.572877 0.702993 0.089699
Si Si6 0.367699 0.102971 0.655871
Si Si7 0.572150 0.000000 0.409862
O O1 0.614954 0.500000 0.704113
O O2 0.688148 0.435703 0.627185
O O3 0.563117 0.419305 0.630710
O O4 0.631373 0.404033 0.753144
O O5 0.250000 0.250000 0.872557
O O6 0.314785 0.163275 0.894039
O O7 0.378801 0.252361 0.878018
O O8 0.312026 0.236094 0.000000
O O9 0.262437 0.399024 0.500000
O O10 0.203457 0.381707 0.371231
O O11 0.000000 0.500000 0.078653
O O12 0.000000 0.586236 0.000000
O O13 0.500000 0.722118 0.105397
O O14 0.583972 0.649145 0.134122
O O15 0.584312 0.692080 0.000000
O O16 0.389085 0.050360 0.615401
O O17 0.500000 0.000000 0.373283
O O18 0.566706 0.000000 0.500000
#
# Coordination Sequence:
#
# PCOD8285021 Si02
#       7
#    32  32  32  16  32  32  16
#     4  11  25  42  62  89 127 167 212 267 326 375
#     4   9  17  36  62  89 119 159 209 262 316 374
#     4  11  23  40  65  92 122 165 218 270 317 380
#     4   9  20  42  68  88 113 162 222 264 307 367
#     4  10  20  36  63  96 128 164 211 260 315 388
#     4  12  23  38  62  91 130 171 213 253 328 386
#     4  11  24  38  57  90 132 173 218 259 301 379
#
# _framework density 20.682818000000001
#
# number of rings (size 3 to 8) (size 9 to 14) (size 15 to 20)
#    0.000    1.500    2.500    3.000    3.500    3.000 
#    1.500    0.833    0.000    1.000    0.000    0.000 
#    0.000    0.000    0.000    0.000    0.000    0.000 
#
# Total GULP energy -595331.290547 kJ/mol
# GULP energy per Si atom -12402.735220 kJ/mol
# Density = 2.063574 g / cm^3
# Si number density = 20.682818 Si / 1000 Ang^3
#
#
#
# Elastic Constant Matrix: (Units=GPa)
#
#
# Indices 1 2 3 4 5 6 
#
# 1 146.2976 47.1165 48.8446 0.0000 0.0000 0.0000
# 2 47.1165 84.9241 26.9592 0.0000 0.0000 0.0000
# 3 48.8446 26.9592 117.0859 0.0000 0.0000 0.0000
# 4 0.0000 0.0000 0.0000 16.0966 0.0000 0.0000
# 5 0.0000 0.0000 0.0000 0.0000 25.2768 0.0000
# 6 0.0000 0.0000 0.0000 0.0000 0.0000 36.0423
#
#
#
# Elastic Compliance Matrix: (Units=1/GPa)
#
#
# Indices 1 2 3 4 5 6 
#
# 1 0.009126 -0.004159 -0.002850 0.000000 0.000000 0.000000
# 2 -0.004159 0.014599 -0.001627 0.000000 0.000000 0.000000
# 3 -0.002850 -0.001627 0.010104 0.000000 0.000000 0.000000
# 4 0.000000 0.000000 0.000000 0.062125 0.000000 0.000000
# 5 0.000000 0.000000 0.000000 0.000000 0.039562 0.000000
# 6 0.000000 0.000000 0.000000 0.000000 0.000000 0.027745
#
#
# Mechanical properties :
#
#
# Convention : Reuss Voigt Hill
#
# Bulk Modulus (GPa) = 60.38870 66.01647 63.20259
# Shear Modulus (GPa) = 26.87446 30.50896 28.69171
#
# Velocity S-wave (km/s) = 3.60858 3.84485 3.72859
# Velocity P-wave (km/s) = 6.82813 7.19016 7.01148
#
# Compressibility (1/GPa) = 0.01655939
#
# Stress axis : x y z
#
# Youngs Moduli (GPa) = 109.57578 68.49876 98.97054
#
# Poissons Ratio (x) = 0.28486 0.28203
# Poissons Ratio (y) = 0.45568 0.16098
# Poissons Ratio (z) = 0.31225 0.11142
#
# Static dielectric constant tensor:
#      x y z
#    x 3.938120 0.000000 0.000000 
#    y 0.000000 3.610560 0.000000 
#    z 0.000000 0.000000 3.624980 
# 
# 
# High freq. dielectric constant tensor:
#      x y z
#    x 1.822900 0.000000 0.000000 
#    y 0.000000 1.800930 0.000000 
#    z 0.000000 0.000000 1.795140 
# 
# From -- ./inp_files/23696.got.cif
#   From: 2010.03.12/outbox.cif.g09.slc.cpg/sg69_12_cif.got.tgz:23696.got - 2010.04.10 23:52:46.
