data_PCOD8285502
_publ_section_title
;
Structure prediction by ZEFSAII (Michael W. Deem and Ramdas Pophale) SiO2 
 PCOD8285502
Probable space group: F M M M
;
_chemical_formula_sum "Si O2"
_cell_formula_units_Z 176
_cell_length_a 16.438120
_cell_length_b 29.579659
_cell_length_c 17.358978
_cell_angle_alpha 90.000000
_cell_angle_beta 90.000000
_cell_angle_gamma 90.000000
_cell_volume 8440.525035
_symmetry_space_group_name_H-M "F M M M"
_symmetry_group_IT_number 69
_symmetry_cell_setting 'orthorhombic'
loop_
_space_group_symop_operation_xyz
x,y,z
-x,-y,z
x,-y,-z
-x,y,-z
-x,-y,-z
x,y,-z
-x,y,z
x,-y,z
x,1/2+y,1/2+z
-x,1/2-y,1/2+z
x,1/2-y,1/2-z
-x,1/2+y,1/2-z
-x,1/2-y,1/2-z
x,1/2+y,1/2-z
-x,1/2+y,1/2+z
x,1/2-y,1/2+z
1/2+x,y,1/2+z
1/2-x,-y,1/2+z
1/2+x,-y,1/2-z
1/2-x,y,1/2-z
1/2-x,-y,1/2-z
1/2+x,y,1/2-z
1/2-x,y,1/2+z
1/2+x,-y,1/2+z
1/2+x,1/2+y,z
1/2-x,1/2-y,z
1/2+x,1/2-y,-z
1/2-x,1/2+y,-z
1/2-x,1/2-y,-z
1/2+x,1/2+y,-z
1/2-x,1/2+y,z
1/2+x,1/2-y,z
loop_
_atom_site_type_symbol
_atom_site_label
_atom_site_fract_x
_atom_site_fract_y
_atom_site_fract_z
Si Si1 0.144135 0.412406 0.336201
Si Si2 0.329595 0.276243 0.409933
Si Si3 0.403778 0.447743 0.671952
Si Si4 0.500000 0.743714 0.913928
Si Si5 0.800771 0.380236 0.911732
Si Si6 0.500000 0.637572 0.912937
Si Si7 0.910133 0.000000 0.910785
O O1 0.133982 0.425445 0.247817
O O2 0.230749 0.390168 0.350410
O O3 0.077646 0.377287 0.364941
O O4 0.141177 0.457090 0.387150
O O5 0.331178 0.264396 0.500000
O O6 0.250000 0.250000 0.374591
O O7 0.415638 0.259407 0.372418
O O8 0.328495 0.329480 0.393704
O O9 0.500000 0.445309 0.675184
O O10 0.375012 0.500000 0.663219
O O11 0.372677 0.416920 0.601094
O O12 0.500000 0.690495 0.918182
O O13 0.500000 0.764737 0.000000
O O14 0.770444 0.384128 0.000000
O O15 0.500000 0.616671 0.000000
O O16 0.000000 0.000000 0.869771
O O17 0.924281 0.000000 0.000000
#
# Coordination Sequence:
#
# PCOD8285502 Si02
#       7
#    32  32  32  16  32  16  16
#     4  12  22  39  61  90 130 164 206 257 319 389
#     4   9  18  36  60  91 129 163 206 264 326 388
#     4  11  25  46  65  86 124 176 221 258 315 384
#     4   9  18  32  58  88 123 168 205 253 323 388
#     4  11  25  40  65  98 126 163 217 271 315 369
#     4  11  20  33  61  99 130 158 202 260 324 385
#     4  11  20  32  55  88 126 164 201 257 314 374
#
# _framework density 20.851782
#
# number of rings (size 3 to 8) (size 9 to 14) (size 15 to 20)
#    0.000    1.364    2.727    3.273    2.545    4.364 
#    0.000    0.909    0.000    8.727    0.000    0.000 
#    0.000    0.000    0.000    0.000    0.000    0.000 
#
# Total GULP energy -545518.534385 kJ/mol
# GULP energy per Si atom -12398.148509 kJ/mol
# Density = 2.080432 g / cm^3
# Si number density = 20.851782 Si / 1000 Ang^3
#
#
#
# Elastic Constant Matrix: (Units=GPa)
#
#
# Indices 1 2 3 4 5 6 
#
# 1 136.2189 61.1663 19.6605 0.0000 0.0000 0.0000
# 2 61.1663 129.5357 30.6541 0.0000 0.0000 0.0000
# 3 19.6605 30.6541 39.6185 0.0000 0.0000 0.0000
# 4 0.0000 0.0000 0.0000 48.0267 0.0000 0.0000
# 5 0.0000 0.0000 0.0000 0.0000 26.7859 0.0000
# 6 0.0000 0.0000 0.0000 0.0000 0.0000 26.8125
#
#
#
# Elastic Compliance Matrix: (Units=1/GPa)
#
#
# Indices 1 2 3 4 5 6 
#
# 1 0.009389 -0.004078 -0.001504 0.000000 0.000000 0.000000
# 2 -0.004078 0.011221 -0.006659 0.000000 0.000000 0.000000
# 3 -0.001504 -0.006659 0.031139 0.000000 0.000000 0.000000
# 4 0.000000 0.000000 0.000000 0.020822 0.000000 0.000000
# 5 0.000000 0.000000 0.000000 0.000000 0.037333 0.000000
# 6 0.000000 0.000000 0.000000 0.000000 0.000000 0.037296
#
#
# Mechanical properties :
#
#
# Convention : Reuss Voigt Hill
#
# Bulk Modulus (GPa) = 36.67258 58.70389 47.68824
# Shear Modulus (GPa) = 27.65933 33.25116 30.45524
#
# Velocity S-wave (km/s) = 3.64603 3.99763 3.82587
# Velocity P-wave (km/s) = 5.94560 7.03720 6.51430
#
# Compressibility (1/GPa) = 0.02726833
#
# Stress axis : x y z
#
# Youngs Moduli (GPa) = 106.50546 89.11856 32.11383
#
# Poissons Ratio (x) = 0.36338 0.04831
# Poissons Ratio (y) = 0.43428 0.21383
# Poissons Ratio (z) = 0.16023 0.59340
#
# Static dielectric constant tensor:
#      x y z
#    x 4.246580 0.000000 0.000000 
#    y 0.000000 3.846570 0.000000 
#    z 0.000000 0.000000 3.545710 
# 
# 
# High freq. dielectric constant tensor:
#      x y z
#    x 1.829450 0.000000 0.000000 
#    y 0.000000 1.828980 0.000000 
#    z 0.000000 0.000000 1.782580 
# 
# From -- ./inp_files/23639.got.cif
#   From: 2010.03.12/outbox.cif.g09.slc.cpg/sg69_12_cif.got.tgz:23639.got - 2010.04.10 23:52:46.
