data_PCOD8285244
_publ_section_title
;
Structure prediction by ZEFSAII (Michael W. Deem and Ramdas Pophale) SiO2 
 PCOD8285244
Probable space group: F M M M
;
_chemical_formula_sum "Si O2"
_cell_formula_units_Z 160
_cell_length_a 30.090589
_cell_length_b 8.586338
_cell_length_c 30.031580
_cell_angle_alpha 90.000000
_cell_angle_beta 90.000000
_cell_angle_gamma 90.000000
_cell_volume 7759.198294
_symmetry_space_group_name_H-M "F M M M"
_symmetry_group_IT_number 69
_symmetry_cell_setting 'orthorhombic'
loop_
_space_group_symop_operation_xyz
x,y,z
-x,-y,z
x,-y,-z
-x,y,-z
-x,-y,-z
x,y,-z
-x,y,z
x,-y,z
x,1/2+y,1/2+z
-x,1/2-y,1/2+z
x,1/2-y,1/2-z
-x,1/2+y,1/2-z
-x,1/2-y,1/2-z
x,1/2+y,1/2-z
-x,1/2+y,1/2+z
x,1/2-y,1/2+z
1/2+x,y,1/2+z
1/2-x,-y,1/2+z
1/2+x,-y,1/2-z
1/2-x,y,1/2-z
1/2-x,-y,1/2-z
1/2+x,y,1/2-z
1/2-x,y,1/2+z
1/2+x,-y,1/2+z
1/2+x,1/2+y,z
1/2-x,1/2-y,z
1/2+x,1/2-y,-z
1/2-x,1/2+y,-z
1/2-x,1/2-y,-z
1/2+x,1/2+y,-z
1/2-x,1/2+y,z
1/2+x,1/2-y,z
loop_
_atom_site_type_symbol
_atom_site_label
_atom_site_fract_x
_atom_site_fract_y
_atom_site_fract_z
Si Si1 0.000000 0.814542 0.798428
Si Si2 0.296717 0.814598 0.106597
Si Si3 0.883817 0.819566 0.073684
Si Si4 0.322787 0.675230 0.703944
Si Si5 0.412599 0.678333 0.662256
Si Si6 0.948248 0.684193 0.000000
O O1 0.000000 0.750000 0.750000
O O2 0.958587 0.741028 0.821947
O O3 0.000000 0.000000 0.800104
O O4 0.250000 0.750000 0.088824
O O5 0.334300 0.754922 0.071823
O O6 0.303841 0.751376 0.157643
O O7 0.298439 0.000000 0.106397
O O8 0.899482 0.795828 0.123653
O O9 0.880629 0.000000 0.060945
O O10 0.920709 0.740495 0.042663
O O11 0.305968 0.500000 0.706399
O O12 0.305345 0.750000 0.750000
O O13 0.376383 0.687650 0.701810
O O14 0.415750 0.500000 0.644768
O O15 0.949681 0.500000 0.000000
O O16 0.000000 0.746589 0.000000
#
# Coordination Sequence:
#
# PCOD8285244 Si02
#       6
#    16  32  32  32  32  16
#     4  12  24  36  52  79 112 153 204 256 304 360
#     4  10  21  39  61  88 122 163 209 254 309 369
#     4  11  23  41  65  94 126 159 199 250 305 366
#     4   9  19  33  52  78 112 154 201 252 302 355
#     4  10  21  38  57  79 113 157 202 250 305 364
#     4  11  25  45  70  97 128 165 201 243 300 362
#
# _framework density 20.620687
#
# number of rings (size 3 to 8) (size 9 to 14) (size 15 to 20)
#    0.000    1.700    0.000    6.000    1.400    7.600 
#    0.000    2.500    0.000    0.000    0.000    0.000 
#    0.000    0.000    0.000    0.000    0.000    0.000 
#
# Total GULP energy -495721.551577 kJ/mol
# GULP energy per Si atom -12393.038789 kJ/mol
# Density = 2.057375 g / cm^3
# Si number density = 20.620687 Si / 1000 Ang^3
#
#
#
# Elastic Constant Matrix: (Units=GPa)
#
#
# Indices 1 2 3 4 5 6 
#
# 1 168.6141 44.4715 35.6775 0.0000 0.0001 -0.0001
# 2 44.4715 91.2401 24.1221 0.0001 0.0001 -0.0013
# 3 35.6775 24.1221 66.5830 0.0000 0.0000 -0.0001
# 4 0.0000 0.0001 0.0000 28.6036 0.0000 0.0000
# 5 0.0001 0.0001 0.0000 0.0000 15.9551 -0.0001
# 6 -0.0001 -0.0013 -0.0001 0.0000 -0.0001 33.3613
#
#
#
# Elastic Compliance Matrix: (Units=1/GPa)
#
#
# Indices 1 2 3 4 5 6 
#
# 1 0.007276 -0.002782 -0.002891 0.000000 0.000000 0.000000
# 2 -0.002782 0.013185 -0.003286 0.000000 0.000000 0.000000
# 3 -0.002891 -0.003286 0.017758 0.000000 0.000000 0.000000
# 4 0.000000 0.000000 0.000000 0.034961 0.000000 0.000000
# 5 0.000000 0.000000 0.000000 0.000000 0.062676 0.000000
# 6 0.000000 0.000000 0.000000 0.000000 0.000000 0.029975
#
#
# Mechanical properties :
#
#
# Convention : Reuss Voigt Hill
#
# Bulk Modulus (GPa) = 49.25762 59.44216 54.34989
# Shear Modulus (GPa) = 26.24449 30.39506 28.31977
#
# Velocity S-wave (km/s) = 3.57140 3.84345 3.70992
# Velocity P-wave (km/s) = 6.39890 6.97031 6.69070
#
# Compressibility (1/GPa) = 0.02030143
#
# Stress axis : x y z
#
# Youngs Moduli (GPa) = 137.43453 75.84430 56.31158
#
# Poissons Ratio (x) = 0.21101 0.16279
# Poissons Ratio (y) = 0.38237 0.18503
# Poissons Ratio (z) = 0.39731 0.24922
#
# Static dielectric constant tensor:
#      x y z
#    x 3.996560 0.000000 0.000000 
#    y 0.000000 3.758770 0.000000 
#    z 0.000000 0.000000 3.647720 
# 
# 
# High freq. dielectric constant tensor:
#      x y z
#    x 1.821370 0.000000 0.000000 
#    y 0.000000 1.809500 0.000000 
#    z 0.000000 0.000000 1.790010 
# 
# From -- ./inp_files/47489.got.cif
#   From: 2010.03.12/outbox.cif.g09.slc.cpg/sg69_24_cif.got.tgz:47489.got - 2010.04.10 23:52:46.
