data_PCOD8285319
_publ_section_title
;
Structure prediction by ZEFSAII (Michael W. Deem and Ramdas Pophale) SiO2 
 PCOD8285319
Probable space group: F M M M
;
_chemical_formula_sum "Si O2"
_cell_formula_units_Z 144
_cell_length_a 25.129448
_cell_length_b 10.141439
_cell_length_c 29.628769
_cell_angle_alpha 90.000000
_cell_angle_beta 90.000000
_cell_angle_gamma 90.000000
_cell_volume 7550.855158
_symmetry_space_group_name_H-M "F M M M"
_symmetry_group_IT_number 69
_symmetry_cell_setting 'orthorhombic'
loop_
_space_group_symop_operation_xyz
x,y,z
-x,-y,z
x,-y,-z
-x,y,-z
-x,-y,-z
x,y,-z
-x,y,z
x,-y,z
x,1/2+y,1/2+z
-x,1/2-y,1/2+z
x,1/2-y,1/2-z
-x,1/2+y,1/2-z
-x,1/2-y,1/2-z
x,1/2+y,1/2-z
-x,1/2+y,1/2+z
x,1/2-y,1/2+z
1/2+x,y,1/2+z
1/2-x,-y,1/2+z
1/2+x,-y,1/2-z
1/2-x,y,1/2-z
1/2-x,-y,1/2-z
1/2+x,y,1/2-z
1/2-x,y,1/2+z
1/2+x,-y,1/2+z
1/2+x,1/2+y,z
1/2-x,1/2-y,z
1/2+x,1/2-y,-z
1/2-x,1/2+y,-z
1/2-x,1/2-y,-z
1/2+x,1/2+y,-z
1/2-x,1/2+y,z
1/2+x,1/2-y,z
loop_
_atom_site_type_symbol
_atom_site_label
_atom_site_fract_x
_atom_site_fract_y
_atom_site_fract_z
Si Si1 0.706606 0.349767 0.191647
Si Si2 0.175927 0.000000 0.052256
Si Si3 0.699217 0.500000 0.446369
Si Si4 0.652327 0.750617 0.604465
Si Si5 0.617268 0.250000 0.250000
Si Si6 0.559808 0.152831 0.164097
O O1 0.728680 0.500000 0.188164
O O2 0.750000 0.250000 0.212981
O O3 0.694294 0.290156 0.142746
O O4 0.654378 0.353229 0.223059
O O5 0.238320 0.000000 0.064126
O O6 0.146071 0.872536 0.071101
O O7 0.166348 0.000000 0.000000
O O8 0.688032 0.500000 0.500000
O O9 0.673324 0.372790 0.423705
O O10 0.595075 0.725573 0.626736
O O11 0.580845 0.171585 0.214904
O O12 0.500000 0.209394 0.160882
O O13 0.561197 0.000000 0.152453
#
# Coordination Sequence:
#
# PCOD8285319 Si02
#       6
#    32  16  16  32  16  32
#     4  11  23  36  55  83 122 164 199 234 283 350
#     4  11  22  38  61  90 125 158 189 232 289 351
#     4  11  22  38  61  92 123 156 193 232 285 353
#     4  11  22  38  60  89 121 156 197 241 288 344
#     4  10  22  36  58  86 118 146 198 248 298 338
#     4  10  21  40  64  85 112 152 200 250 296 344
#
# _framework density 19.070688000000001
#
# number of rings (size 3 to 8) (size 9 to 14) (size 15 to 20)
#    0.000    1.333    2.222    4.000    1.556    4.444 
#    0.000    0.556    0.000    4.000    0.000    0.000 
#    0.000    0.000    0.000    0.000    0.000    0.000 
#
# Total GULP energy -446423.411462 kJ/mol
# GULP energy per Si atom -12400.650318 kJ/mol
# Density = 1.902728 g / cm^3
# Si number density = 19.070688 Si / 1000 Ang^3
#
#
#
# Elastic Constant Matrix: (Units=GPa)
#
#
# Indices 1 2 3 4 5 6 
#
# 1 126.5192 61.5532 65.8930 0.0000 0.0000 0.0000
# 2 61.5532 157.0079 60.2233 0.0000 0.0000 0.0001
# 3 65.8930 60.2233 124.9975 0.0000 0.0000 0.0000
# 4 0.0000 0.0000 0.0000 24.9919 0.0000 0.0000
# 5 0.0000 0.0000 0.0000 0.0000 16.4656 0.0000
# 6 0.0000 0.0001 0.0000 0.0000 0.0000 25.7283
#
#
#
# Elastic Compliance Matrix: (Units=1/GPa)
#
#
# Indices 1 2 3 4 5 6 
#
# 1 0.011787 -0.002745 -0.004891 0.000000 0.000000 0.000000
# 2 -0.002745 0.008452 -0.002625 0.000000 0.000000 0.000000
# 3 -0.004891 -0.002625 0.011843 0.000000 0.000000 0.000000
# 4 0.000000 0.000000 0.000000 0.040013 0.000000 0.000000
# 5 0.000000 0.000000 0.000000 0.000000 0.060733 0.000000
# 6 0.000000 0.000000 0.000000 0.000000 0.000000 0.038868
#
#
# Mechanical properties :
#
#
# Convention : Reuss Voigt Hill
#
# Bulk Modulus (GPa) = 86.50505 87.09596 86.80051
# Shear Modulus (GPa) = 25.50103 28.16085 26.83094
#
# Velocity S-wave (km/s) = 3.66072 3.84690 3.75496
# Velocity P-wave (km/s) = 7.95780 8.09325 8.02581
#
# Compressibility (1/GPa) = 0.01156002
#
# Stress axis : x y z
#
# Youngs Moduli (GPa) = 84.84225 118.31318 84.43607
#
# Poissons Ratio (x) = 0.32475 0.41297
# Poissons Ratio (y) = 0.23287 0.22167
# Poissons Ratio (z) = 0.41496 0.31060
#
# Static dielectric constant tensor:
#      x y z
#    x 3.462800 0.000000 0.000000 
#    y 0.000000 3.537110 0.000000 
#    z 0.000000 0.000000 3.603650 
# 
# 
# High freq. dielectric constant tensor:
#      x y z
#    x 1.724860 0.000000 0.000000 
#    y 0.000000 1.747370 0.000000 
#    z 0.000000 0.000000 1.754510 
# 
# From -- ./inp_files/47449.got.cif
#   From: 2010.03.12/outbox.cif.g09.slc.cpg/sg69_24_cif.got.tgz:47449.got - 2010.04.10 23:52:46.
