data_PCOD8285000
_publ_section_title
;
Structure prediction by ZEFSAII (Michael W. Deem and Ramdas Pophale) SiO2 
 PCOD8285000
Probable space group: F M M M
;
_chemical_formula_sum "Si O2"
_cell_formula_units_Z 128
_cell_length_a 14.377734
_cell_length_b 22.871730
_cell_length_c 19.631040
_cell_angle_alpha 90.000000
_cell_angle_beta 90.000000
_cell_angle_gamma 90.000000
_cell_volume 6455.542848
_symmetry_space_group_name_H-M "F M M M"
_symmetry_group_IT_number 69
_symmetry_cell_setting 'orthorhombic'
loop_
_space_group_symop_operation_xyz
x,y,z
-x,-y,z
x,-y,-z
-x,y,-z
-x,-y,-z
x,y,-z
-x,y,z
x,-y,z
x,1/2+y,1/2+z
-x,1/2-y,1/2+z
x,1/2-y,1/2-z
-x,1/2+y,1/2-z
-x,1/2-y,1/2-z
x,1/2+y,1/2-z
-x,1/2+y,1/2+z
x,1/2-y,1/2+z
1/2+x,y,1/2+z
1/2-x,-y,1/2+z
1/2+x,-y,1/2-z
1/2-x,y,1/2-z
1/2-x,-y,1/2-z
1/2+x,y,1/2-z
1/2-x,y,1/2+z
1/2+x,-y,1/2+z
1/2+x,1/2+y,z
1/2-x,1/2-y,z
1/2+x,1/2-y,-z
1/2-x,1/2+y,-z
1/2-x,1/2-y,-z
1/2+x,1/2+y,-z
1/2-x,1/2+y,z
1/2+x,1/2-y,z
loop_
_atom_site_type_symbol
_atom_site_label
_atom_site_fract_x
_atom_site_fract_y
_atom_site_fract_z
Si Si1 0.500000 0.205551 0.189163
Si Si2 0.000000 0.801250 0.919993
Si Si3 0.676163 0.123802 0.811371
Si Si4 0.854622 0.500000 0.228152
Si Si5 0.898187 0.500000 0.621350
Si Si6 0.677611 0.877383 0.421004
O O1 0.500000 0.250000 0.250000
O O2 0.500000 0.239051 0.117234
O O3 0.407320 0.168217 0.197548
O O4 0.090265 0.838298 0.897685
O O5 0.000000 0.788799 0.000000
O O6 0.750000 0.128330 0.750000
O O7 0.628836 0.059040 0.815389
O O8 0.729998 0.140850 0.880441
O O9 0.750000 0.500000 0.250000
O O10 0.914193 0.500000 0.297333
O O11 0.841681 0.444498 0.595979
O O12 0.000000 0.500000 0.586839
O O13 0.699027 0.868514 0.500000
#
# Coordination Sequence:
#
# PCOD8285000 Si02
#       6
#    16  16  32  16  16  32
#     4  12  28  41  63  91 119 165 221 267 296 362
#     4  10  24  43  60  87 126 160 209 260 314 363
#     4  11  23  42  64  90 127 161 203 254 319 374
#     4  10  20  36  60  90 123 155 186 243 312 372
#     4  12  21  33  66  98 133 162 199 252 320 377
#     4  11  22  38  63  95 126 162 204 258 315 376
#
# _framework density 19.827922999999998
#
# number of rings (size 3 to 8) (size 9 to 14) (size 15 to 20)
#    0.000    1.000    6.250    1.875    1.750    5.000 
#    0.000    2.500    0.000    0.000    0.000    4.375 
#    0.000    0.000    0.000    0.000    0.000    0.000 
#
# Total GULP energy -396804.378932 kJ/mol
# GULP energy per Si atom -12400.136842 kJ/mol
# Density = 1.978279 g / cm^3
# Si number density = 19.827923 Si / 1000 Ang^3
#
#
#
# Elastic Constant Matrix: (Units=GPa)
#
#
# Indices 1 2 3 4 5 6 
#
# 1 131.1978 71.8464 50.2891 0.0000 0.0000 0.0000
# 2 71.8464 144.5087 44.0252 0.0000 0.0000 0.0000
# 3 50.2891 44.0252 94.9682 0.0000 0.0000 0.0000
# 4 0.0000 0.0000 0.0000 23.2402 0.0000 0.0000
# 5 0.0000 0.0000 0.0000 0.0000 24.5227 0.0000
# 6 0.0000 0.0000 0.0000 0.0000 0.0000 32.3094
#
#
#
# Elastic Compliance Matrix: (Units=1/GPa)
#
#
# Indices 1 2 3 4 5 6 
#
# 1 0.011684 -0.004569 -0.004069 0.000000 0.000000 0.000000
# 2 -0.004569 0.009845 -0.002144 0.000000 0.000000 0.000000
# 3 -0.004069 -0.002144 0.013678 0.000000 0.000000 0.000000
# 4 0.000000 0.000000 0.000000 0.043029 0.000000 0.000000
# 5 0.000000 0.000000 0.000000 0.000000 0.040779 0.000000
# 6 0.000000 0.000000 0.000000 0.000000 0.000000 0.030951
#
#
# Mechanical properties :
#
#
# Convention : Reuss Voigt Hill
#
# Bulk Modulus (GPa) = 73.30043 78.11069 75.70556
# Shear Modulus (GPa) = 28.39647 29.64873 29.02260
#
# Velocity S-wave (km/s) = 3.78848 3.87111 3.83001
# Velocity P-wave (km/s) = 7.49568 7.71106 7.60413
#
# Compressibility (1/GPa) = 0.01364248
#
# Stress axis : x y z
#
# Youngs Moduli (GPa) = 85.58723 101.57363 73.10761
#
# Poissons Ratio (x) = 0.46413 0.29746
# Poissons Ratio (y) = 0.39108 0.15676
# Poissons Ratio (z) = 0.34824 0.21780
#
# Static dielectric constant tensor:
#      x y z
#    x 3.699210 0.000000 0.000000 
#    y 0.000000 4.355380 0.000000 
#    z 0.000000 0.000000 3.281860 
# 
# 
# High freq. dielectric constant tensor:
#      x y z
#    x 1.775320 0.000000 0.000000 
#    y 0.000000 1.779980 0.000000 
#    z 0.000000 0.000000 1.765460 
# 
# From -- ./inp_files/16402.got.cif
#   From: 2010.03.12/outbox.cif.g09.slc.cpg/sg69_9_cif.got.tgz:16402.got - 2010.04.10 23:52:46.
