data_PCOD8285531
_publ_section_title
;
Structure prediction by ZEFSAII (Michael W. Deem and Ramdas Pophale) SiO2 
 PCOD8285531
Probable space group: F M M M
;
_chemical_formula_sum "Si O2"
_cell_formula_units_Z 160
_cell_length_a 22.809727
_cell_length_b 15.045661
_cell_length_c 23.362290
_cell_angle_alpha 90.000000
_cell_angle_beta 90.000000
_cell_angle_gamma 90.000000
_cell_volume 8017.644029
_symmetry_space_group_name_H-M "F M M M"
_symmetry_group_IT_number 69
_symmetry_cell_setting 'orthorhombic'
loop_
_space_group_symop_operation_xyz
x,y,z
-x,-y,z
x,-y,-z
-x,y,-z
-x,-y,-z
x,y,-z
-x,y,z
x,-y,z
x,1/2+y,1/2+z
-x,1/2-y,1/2+z
x,1/2-y,1/2-z
-x,1/2+y,1/2-z
-x,1/2-y,1/2-z
x,1/2+y,1/2-z
-x,1/2+y,1/2+z
x,1/2-y,1/2+z
1/2+x,y,1/2+z
1/2-x,-y,1/2+z
1/2+x,-y,1/2-z
1/2-x,y,1/2-z
1/2-x,-y,1/2-z
1/2+x,y,1/2-z
1/2-x,y,1/2+z
1/2+x,-y,1/2+z
1/2+x,1/2+y,z
1/2-x,1/2-y,z
1/2+x,1/2-y,-z
1/2-x,1/2+y,-z
1/2-x,1/2-y,-z
1/2+x,1/2+y,-z
1/2-x,1/2+y,z
1/2+x,1/2-y,z
loop_
_atom_site_type_symbol
_atom_site_label
_atom_site_fract_x
_atom_site_fract_y
_atom_site_fract_z
Si Si1 0.877667 0.600983 0.363851
Si Si2 0.366145 0.900112 0.139393
Si Si3 0.932053 0.753778 0.567094
Si Si4 0.244292 0.394774 0.686099
Si Si5 0.567228 0.147201 0.751139
O O1 0.873188 0.500000 0.386729
O O2 0.902592 0.661248 0.414747
O O3 0.814660 0.640011 0.344344
O O4 0.921613 0.603829 0.310325
O O5 0.400964 0.836237 0.097315
O O6 0.299253 0.866345 0.146715
O O7 0.394295 0.903342 0.202243
O O8 0.367866 0.000000 0.113956
O O9 0.924213 0.765770 0.500000
O O10 0.000000 0.753221 0.585453
O O11 0.241001 0.500000 0.691822
O O12 0.250000 0.353374 0.750000
O O13 0.500000 0.134776 0.768309
O O14 0.585254 0.250000 0.750000
#
# Coordination Sequence:
#
# PCOD8285531 Si02
#       5
#    32  32  32  32  32
#     4  11  22  39  63  91 123 159 201 246 301 364
#     4  11  22  39  63  91 123 159 201 246 301 364
#     4  11  26  46  63  84 118 160 210 261 304 353
#     4   9  18  35  59  92 129 161 192 234 296 369
#     4  11  21  34  55  89 130 160 191 244 304 364
#
# _framework density 19.955987
#
# number of rings (size 3 to 8) (size 9 to 14) (size 15 to 20)
#    0.000    1.400    4.000    1.800    0.000    5.600 
#    0.000    6.000    0.000    3.600    0.000    0.000 
#    0.000    0.000    0.000    0.000    0.000    0.000 
#
# Total GULP energy -496130.035021 kJ/mol
# GULP energy per Si atom -12403.250876 kJ/mol
# Density = 1.991057 g / cm^3
# Si number density = 19.955987 Si / 1000 Ang^3
#
#
#
# Elastic Constant Matrix: (Units=GPa)
#
#
# Indices 1 2 3 4 5 6 
#
# 1 131.4731 48.8637 46.3181 0.0000 0.0000 0.0000
# 2 48.8637 97.6318 30.7257 0.0000 0.0000 0.0000
# 3 46.3181 30.7257 75.7505 0.0000 0.0000 0.0000
# 4 0.0000 0.0000 0.0000 12.4446 0.0000 0.0000
# 5 0.0000 0.0000 0.0000 0.0000 22.1150 0.0000
# 6 0.0000 0.0000 0.0000 0.0000 0.0000 24.1866
#
#
#
# Elastic Compliance Matrix: (Units=1/GPa)
#
#
# Indices 1 2 3 4 5 6 
#
# 1 0.010807 -0.003816 -0.005060 0.000000 0.000000 0.000000
# 2 -0.003816 0.013089 -0.002976 0.000000 0.000000 0.000000
# 3 -0.005060 -0.002976 0.017502 0.000000 0.000000 0.000000
# 4 0.000000 0.000000 0.000000 0.080356 0.000000 0.000000
# 5 0.000000 0.000000 0.000000 0.000000 0.045218 0.000000
# 6 0.000000 0.000000 0.000000 0.000000 0.000000 0.041345
#
#
# Mechanical properties :
#
#
# Convention : Reuss Voigt Hill
#
# Bulk Modulus (GPa) = 56.51551 61.85228 59.18389
# Shear Modulus (GPa) = 21.01541 23.67909 22.34725
#
# Velocity S-wave (km/s) = 3.24865 3.44839 3.35001
# Velocity P-wave (km/s) = 6.51561 6.84959 6.68469
#
# Compressibility (1/GPa) = 0.01769426
#
# Stress axis : x y z
#
# Youngs Moduli (GPa) = 92.53049 76.39952 57.13556
#
# Poissons Ratio (x) = 0.29157 0.28911
# Poissons Ratio (y) = 0.35314 0.17001
# Poissons Ratio (z) = 0.46822 0.22733
#
# Static dielectric constant tensor:
#      x y z
#    x 3.941600 0.000000 0.000000 
#    y 0.000000 3.639710 0.000000 
#    z 0.000000 0.000000 3.325620 
# 
# 
# High freq. dielectric constant tensor:
#      x y z
#    x 1.797610 0.000000 0.000000 
#    y 0.000000 1.782380 0.000000 
#    z 0.000000 0.000000 1.745570 
# 
# From -- ./inp_files/17713.got.cif
#   From: 2010.03.12/outbox.cif.g09.slc.cpg/sg69_9_cif.got.tgz:17713.got - 2010.04.10 23:52:46.
