data_PCOD8285998
_publ_section_title
;
Structure prediction by ZEFSAII (Michael W. Deem and Ramdas Pophale) SiO2 
 PCOD8285998
Probable space group: F D D D
;
_chemical_formula_sum "Si O2"
_cell_formula_units_Z 176
_cell_length_a 12.266675
_cell_length_b 32.126302
_cell_length_c 22.430389
_cell_angle_alpha 90.000000
_cell_angle_beta 90.000000
_cell_angle_gamma 90.000000
_cell_volume 8839.432871
_symmetry_space_group_name_H-M "F D D D"
_symmetry_group_IT_number 70
_space_group.IT_coordinate_system_code '2'
_symmetry_cell_setting 'orthorhombic'
loop_
_space_group_symop_operation_xyz
x,y,z
1/4-x,1/4-y,z
x,1/4-y,1/4-z
1/4-x,y,1/4-z
-x,-y,-z
3/4+x,3/4+y,-z
-x,3/4+y,3/4+z
3/4+x,-y,3/4+z
x,1/2+y,1/2+z
1/4-x,3/4-y,1/2+z
x,3/4-y,3/4-z
1/4-x,1/2+y,3/4-z
-x,1/2-y,1/2-z
3/4+x,1/4+y,1/2-z
-x,1/4+y,1/4+z
3/4+x,1/2-y,1/4+z
1/2+x,y,1/2+z
3/4-x,1/4-y,1/2+z
1/2+x,1/4-y,3/4-z
3/4-x,y,3/4-z
1/2-x,-y,1/2-z
1/4+x,3/4+y,1/2-z
1/2-x,3/4+y,1/4+z
1/4+x,-y,1/4+z
1/2+x,1/2+y,z
3/4-x,3/4-y,z
1/2+x,3/4-y,1/4-z
3/4-x,1/2+y,1/4-z
1/2-x,1/2-y,-z
1/4+x,1/4+y,-z
1/2-x,1/4+y,3/4+z
1/4+x,1/2-y,3/4+z
loop_
_atom_site_type_symbol
_atom_site_label
_atom_site_fract_x
_atom_site_fract_y
_atom_site_fract_z
Si Si1 0.589308 0.316906 0.882868
Si Si2 0.896761 0.140557 0.805744
Si Si3 0.119099 0.479614 0.995420
Si Si4 0.997612 0.861253 0.787322
Si Si5 0.442202 0.450531 0.319848
Si Si6 0.875000 0.875000 0.503416
O O1 0.571744 0.355869 0.926327
O O2 0.497179 0.319395 0.829570
O O3 0.697902 0.320127 0.843133
O O4 0.594479 0.276370 0.925658
O O5 0.875000 0.140141 0.875000
O O6 0.877678 0.186739 0.781083
O O7 0.810420 0.108003 0.775620
O O8 0.018639 0.124240 0.794786
O O9 0.208196 0.510908 0.024157
O O10 0.000000 0.500000 0.000000
O O11 0.875000 0.875000 0.775836
O O12 0.375000 0.469031 0.375000
O O13 0.369188 0.415433 0.288216
#
# Coordination Sequence:
#
# PCOD8285998 Si02
#       6
#    32  32  32  32  32  16
#     4  10  20  35  58  89 119 156 209 247 300 368
#     4  11  24  39  62  93 127 165 210 255 321 376
#     4  11  21  35  55  93 128 167 195 249 321 378
#     4  10  21  41  66  90 119 163 214 261 306 374
#     4  12  21  32  60  90 132 158 195 264 312 362
#     4  12  23  38  60  96 126 157 210 266 318 356
#
# _framework density 19.910779999999999
#
# number of rings (size 3 to 8) (size 9 to 14) (size 15 to 20)
#    0.000    1.091    5.455    3.000    3.818    0.000 
#    0.000    0.000    0.000   14.182    0.000    0.000 
#    0.000    0.000    0.000    0.000    0.000    0.000 
#
# Total GULP energy -545124.498011 kJ/mol
# GULP energy per Si atom -12389.193137 kJ/mol
# Density = 1.986546 g / cm^3
# Si number density = 19.910780 Si / 1000 Ang^3
#
#
#
# Elastic Constant Matrix: (Units=GPa)
#
#
# Indices 1 2 3 4 5 6 
#
# 1 125.0674 17.6026 61.6993 0.0000 0.0000 0.0000
# 2 17.6026 69.9013 48.6700 0.0000 0.0000 0.0000
# 3 61.6993 48.6700 160.0628 0.0000 0.0000 0.0000
# 4 0.0000 0.0000 0.0000 27.7255 0.0000 0.0000
# 5 0.0000 0.0000 0.0000 0.0000 20.4406 0.0000
# 6 0.0000 0.0000 0.0000 0.0000 0.0000 21.0957
#
#
#
# Elastic Compliance Matrix: (Units=1/GPa)
#
#
# Indices 1 2 3 4 5 6 
#
# 1 0.009876 0.000208 -0.003870 0.000000 0.000000 0.000000
# 2 0.000208 0.018152 -0.005600 0.000000 0.000000 0.000000
# 3 -0.003870 -0.005600 0.009442 0.000000 0.000000 0.000000
# 4 0.000000 0.000000 0.000000 0.036068 0.000000 0.000000
# 5 0.000000 0.000000 0.000000 0.000000 0.048922 0.000000
# 6 0.000000 0.000000 0.000000 0.000000 0.000000 0.047403
#
#
# Mechanical properties :
#
#
# Convention : Reuss Voigt Hill
#
# Bulk Modulus (GPa) = 52.78105 67.88613 60.33359
# Shear Modulus (GPa) = 25.68024 28.98967 27.33495
#
# Velocity S-wave (km/s) = 3.59523 3.81987 3.70925
# Velocity P-wave (km/s) = 6.61820 7.32287 6.97943
#
# Compressibility (1/GPa) = 0.01894619
#
# Stress axis : x y z
#
# Youngs Moduli (GPa) = 101.25988 55.08906 105.91073
#
# Poissons Ratio (x) = -0.01144 0.40986
# Poissons Ratio (y) = -0.02102 0.59306
# Poissons Ratio (z) = 0.39186 0.30848
#
# Static dielectric constant tensor:
#      x y z
#    x 3.546560 0.000000 0.000000 
#    y 0.000000 3.700930 0.000000 
#    z 0.000000 0.000000 4.161560 
# 
# 
# High freq. dielectric constant tensor:
#      x y z
#    x 1.767090 0.000000 0.000000 
#    y 0.000000 1.745930 0.000000 
#    z 0.000000 0.000000 1.790800 
# 
# From -- ./inp_files/50414.got.cif
#   From: 2010.03.12/outbox.cif.g09.slc.cpg/sg70_26_cif.got.tgz:50414.got - 2010.04.16 13:46:32.
