data_PCOD8285743
_publ_section_title
;
Structure prediction by ZEFSAII (Michael W. Deem and Ramdas Pophale) SiO2 
 PCOD8285743
Probable space group: F D D D
;
_chemical_formula_sum "Si O2"
_cell_formula_units_Z 128
_cell_length_a 20.793964
_cell_length_b 18.219525
_cell_length_c 19.836653
_cell_angle_alpha 90.000000
_cell_angle_beta 90.000000
_cell_angle_gamma 90.000000
_cell_volume 7515.237924
_symmetry_space_group_name_H-M "F D D D"
_symmetry_group_IT_number 70
_space_group.IT_coordinate_system_code '2'
_symmetry_cell_setting 'orthorhombic'
loop_
_space_group_symop_operation_xyz
x,y,z
1/4-x,1/4-y,z
x,1/4-y,1/4-z
1/4-x,y,1/4-z
-x,-y,-z
3/4+x,3/4+y,-z
-x,3/4+y,3/4+z
3/4+x,-y,3/4+z
x,1/2+y,1/2+z
1/4-x,3/4-y,1/2+z
x,3/4-y,3/4-z
1/4-x,1/2+y,3/4-z
-x,1/2-y,1/2-z
3/4+x,1/4+y,1/2-z
-x,1/4+y,1/4+z
3/4+x,1/2-y,1/4+z
1/2+x,y,1/2+z
3/4-x,1/4-y,1/2+z
1/2+x,1/4-y,3/4-z
3/4-x,y,3/4-z
1/2-x,-y,1/2-z
1/4+x,3/4+y,1/2-z
1/2-x,3/4+y,1/4+z
1/4+x,-y,1/4+z
1/2+x,1/2+y,z
3/4-x,3/4-y,z
1/2+x,3/4-y,1/4-z
3/4-x,1/2+y,1/4-z
1/2-x,1/2-y,-z
1/4+x,1/4+y,-z
1/2-x,1/4+y,3/4+z
1/4+x,1/2-y,3/4+z
loop_
_atom_site_type_symbol
_atom_site_label
_atom_site_fract_x
_atom_site_fract_y
_atom_site_fract_z
Si Si1 0.213002 0.808486 0.545098
Si Si2 0.088110 0.556311 0.381230
Si Si3 0.032714 0.823089 0.938509
Si Si4 0.643053 0.043283 0.527749
O O1 0.250000 0.750000 0.500000
O O2 0.263610 0.829643 0.603548
O O3 0.193026 0.880035 0.502200
O O4 0.148478 0.766820 0.570229
O O5 0.125000 0.625000 0.346758
O O6 0.086956 0.487203 0.330237
O O7 0.127265 0.534009 0.448435
O O8 0.018767 0.875000 0.875000
O O9 0.967787 0.779794 0.958293
O O10 0.625000 0.125000 0.551915
#
# Coordination Sequence:
#
# PCOD8285743 Si02
#       4
#    32  32  32  32
#     4  10  17  30  42  71 103 129 154 197 240 309
#     4  10  19  33  43  66 109 126 160 207 240 290
#     4  12  19  28  52  72  96 143 159 187 266 301
#     4  10  17  29  43  71 105 122 151 202 235 316
#
# _framework density 17.032062
#
# number of rings (size 3 to 8) (size 9 to 14) (size 15 to 20)
#    0.000    1.500   12.500    0.000    0.000    3.500 
#    0.000    0.000    0.000    1.500    0.000    0.000 
#    0.000    0.000    0.000    0.000    0.000    0.000 
#
# Total GULP energy -396504.656166 kJ/mol
# GULP energy per Si atom -12390.770505 kJ/mol
# Density = 1.699330 g / cm^3
# Si number density = 17.032062 Si / 1000 Ang^3
#
#
#
# Elastic Constant Matrix: (Units=GPa)
#
#
# Indices 1 2 3 4 5 6 
#
# 1 80.2316 60.7880 11.4064 0.0000 0.0000 0.0000
# 2 60.7880 120.3217 36.4243 0.0000 0.0000 0.0000
# 3 11.4064 36.4243 31.5112 0.0000 0.0000 0.0000
# 4 0.0000 0.0000 0.0000 19.1499 0.0000 0.0000
# 5 0.0000 0.0000 0.0000 0.0000 19.1723 0.0000
# 6 0.0000 0.0000 0.0000 0.0000 0.0000 43.2675
#
#
#
# Elastic Compliance Matrix: (Units=1/GPa)
#
#
# Indices 1 2 3 4 5 6 
#
# 1 0.021217 -0.012913 0.007246 0.000000 0.000000 0.000000
# 2 -0.012913 0.020643 -0.019188 0.000000 0.000000 0.000000
# 3 0.007246 -0.019188 0.051292 0.000000 0.000000 0.000000
# 4 0.000000 0.000000 0.000000 0.052219 0.000000 0.000000
# 5 0.000000 0.000000 0.000000 0.000000 0.052158 0.000000
# 6 0.000000 0.000000 0.000000 0.000000 0.000000 0.023112
#
#
# Mechanical properties :
#
#
# Convention : Reuss Voigt Hill
#
# Bulk Modulus (GPa) = 23.01890 49.92245 36.47068
# Shear Modulus (GPa) = 17.55417 24.54767 21.05092
#
# Velocity S-wave (km/s) = 3.21386 3.80051 3.51943
# Velocity P-wave (km/s) = 5.22650 6.97374 6.16236
#
# Compressibility (1/GPa) = 0.04344256
#
# Stress axis : x y z
#
# Youngs Moduli (GPa) = 47.13165 48.44176 19.49636
#
# Poissons Ratio (x) = 0.62551 -0.14127
# Poissons Ratio (y) = 0.60859 0.37409
# Poissons Ratio (z) = -0.34151 0.92950
#
# Static dielectric constant tensor:
#      x y z
#    x 3.521040 0.000000 0.000000 
#    y 0.000000 3.434970 0.000000 
#    z 0.000000 0.000000 2.930560 
# 
# 
# High freq. dielectric constant tensor:
#      x y z
#    x 1.640340 0.000000 0.000000 
#    y 0.000000 1.639410 0.000000 
#    z 0.000000 0.000000 1.620020 
# 
# From -- ./inp_files/36123.got.cif
#   From: 2010.03.12/outbox.cif.g09.slc.cpg/sg70_19_cif.got.tgz:36123.got - 2010.04.16 13:46:32.
