data_PCOD8285681
_publ_section_title
;
Structure prediction by ZEFSAII (Michael W. Deem and Ramdas Pophale) SiO2 
 PCOD8285681
Probable space group: F M M M
;
_chemical_formula_sum "Si O2"
_cell_formula_units_Z 128
_cell_length_a 40.416430
_cell_length_b 19.326861
_cell_length_c 9.980320
_cell_angle_alpha 90.000000
_cell_angle_beta 90.000000
_cell_angle_gamma 90.000000
_cell_volume 7795.854752
_symmetry_space_group_name_H-M "F M M M"
_symmetry_group_IT_number 69
_symmetry_cell_setting 'orthorhombic'
loop_
_space_group_symop_operation_xyz
x,y,z
-x,-y,z
x,-y,-z
-x,y,-z
-x,-y,-z
x,y,-z
-x,y,z
x,-y,z
x,1/2+y,1/2+z
-x,1/2-y,1/2+z
x,1/2-y,1/2-z
-x,1/2+y,1/2-z
-x,1/2-y,1/2-z
x,1/2+y,1/2-z
-x,1/2+y,1/2+z
x,1/2-y,1/2+z
1/2+x,y,1/2+z
1/2-x,-y,1/2+z
1/2+x,-y,1/2-z
1/2-x,y,1/2-z
1/2-x,-y,1/2-z
1/2+x,y,1/2-z
1/2-x,y,1/2+z
1/2+x,-y,1/2+z
1/2+x,1/2+y,z
1/2-x,1/2-y,z
1/2+x,1/2-y,-z
1/2-x,1/2+y,-z
1/2-x,1/2-y,-z
1/2+x,1/2+y,-z
1/2-x,1/2+y,z
1/2+x,1/2-y,z
loop_
_atom_site_type_symbol
_atom_site_label
_atom_site_fract_x
_atom_site_fract_y
_atom_site_fract_z
Si Si1 0.149250 0.417800 0.150103
Si Si2 0.462128 0.188587 0.653381
Si Si3 0.222733 0.917658 0.349809
Si Si4 0.592990 0.579751 0.153595
O O1 0.149315 0.500000 0.154971
O O2 0.185972 0.391008 0.189843
O O3 0.122428 0.389012 0.255140
O O4 0.140125 0.392487 0.000000
O O5 0.457614 0.213200 0.500000
O O6 0.500000 0.168132 0.683384
O O7 0.450268 0.250000 0.750000
O O8 0.440469 0.121093 0.684412
O O9 0.231501 0.893353 0.500000
O O10 0.250000 0.885126 0.250000
O O11 0.223428 0.000000 0.341574
O O12 0.585599 0.500000 0.188493
O O13 0.604227 0.588357 0.000000
#
# Coordination Sequence:
#
# PCOD8285681 Si02
#       4
#    32  32  32  32
#     4   8  14  24  36  52  78 110 140 171 209 250
#     4   9  18  32  48  65  86 112 141 174 212 253
#     4   8  13  20  30  46  70 102 138 171 203 241
#     4   9  17  28  43  64  87 111 141 176 213 252
#
# _framework density 16.418982
#
# number of rings (size 3 to 8) (size 9 to 14) (size 15 to 20)
#    0.000    3.500    0.000    1.500    0.000    2.500 
#    0.000    7.500    0.000    0.000    0.000    7.000 
#    0.000    1.000    0.000   11.000    0.000   18.000 
#
# Total GULP energy -396612.427719 kJ/mol
# GULP energy per Si atom -12394.138366 kJ/mol
# Density = 1.638161 g / cm^3
# Si number density = 16.418982 Si / 1000 Ang^3
#
#
#
# Elastic Constant Matrix: (Units=GPa)
#
#
# Indices 1 2 3 4 5 6 
#
# 1 123.8501 40.5757 83.1995 0.0000 0.0000 0.0000
# 2 40.5757 36.8143 37.0428 0.0000 0.0000 0.0000
# 3 83.1995 37.0428 101.8246 0.0000 0.0000 0.0000
# 4 0.0000 0.0000 0.0000 15.7913 0.0000 0.0000
# 5 0.0000 0.0000 0.0000 0.0000 34.5420 0.0000
# 6 0.0000 0.0000 0.0000 0.0000 0.0000 3.4834
#
#
#
# Elastic Compliance Matrix: (Units=1/GPa)
#
#
# Indices 1 2 3 4 5 6 
#
# 1 0.019487 -0.008607 -0.012791 0.000000 0.000000 0.000000
# 2 -0.008607 0.046650 -0.009938 0.000000 0.000000 0.000000
# 3 -0.012791 -0.009938 0.023888 0.000000 0.000000 0.000000
# 4 0.000000 0.000000 0.000000 0.063326 0.000000 0.000000
# 5 0.000000 0.000000 0.000000 0.000000 0.028950 0.000000
# 6 0.000000 0.000000 0.000000 0.000000 0.000000 0.287075
#
#
# Mechanical properties :
#
#
# Convention : Reuss Voigt Hill
#
# Bulk Modulus (GPa) = 36.56106 64.90277 50.73192
# Shear Modulus (GPa) = 9.23932 17.54141 13.39036
#
# Velocity S-wave (km/s) = 2.37475 3.27213 2.85887
# Velocity P-wave (km/s) = 5.46216 7.34103 6.47015
#
# Compressibility (1/GPa) = 0.02735150
#
# Stress axis : x y z
#
# Youngs Moduli (GPa) = 51.31566 21.43643 41.86257
#
# Poissons Ratio (x) = 0.18451 0.53548
# Poissons Ratio (y) = 0.44170 0.41601
# Poissons Ratio (z) = 0.65640 0.21303
#
# Static dielectric constant tensor:
#      x y z
#    x 3.383410 0.000000 0.000000 
#    y 0.000000 2.554600 0.000000 
#    z 0.000000 0.000000 3.328530 
# 
# 
# High freq. dielectric constant tensor:
#      x y z
#    x 1.639910 0.000000 0.000000 
#    y 0.000000 1.567890 0.000000 
#    z 0.000000 0.000000 1.638480 
# 
# From -- ./inp_files/11264.got.cif
#   From: 2010.03.12/outbox.cif.g09.slc.cpg/sg69_6_cif.got.tgz:11264.got - 2010.04.10 23:52:46.
