data_PCOD8285601
_publ_section_title
;
Structure prediction by ZEFSAII (Michael W. Deem and Ramdas Pophale) SiO2 
 PCOD8285601
Probable space group: F M M M
;
_chemical_formula_sum "Si O2"
_cell_formula_units_Z 160
_cell_length_a 17.195922
_cell_length_b 25.056686
_cell_length_c 19.371005
_cell_angle_alpha 90.000000
_cell_angle_beta 90.000000
_cell_angle_gamma 90.000000
_cell_volume 8346.439513
_symmetry_space_group_name_H-M "F M M M"
_symmetry_group_IT_number 69
_symmetry_cell_setting 'orthorhombic'
loop_
_space_group_symop_operation_xyz
x,y,z
-x,-y,z
x,-y,-z
-x,y,-z
-x,-y,-z
x,y,-z
-x,y,z
x,-y,z
x,1/2+y,1/2+z
-x,1/2-y,1/2+z
x,1/2-y,1/2-z
-x,1/2+y,1/2-z
-x,1/2-y,1/2-z
x,1/2+y,1/2-z
-x,1/2+y,1/2+z
x,1/2-y,1/2+z
1/2+x,y,1/2+z
1/2-x,-y,1/2+z
1/2+x,-y,1/2-z
1/2-x,y,1/2-z
1/2-x,-y,1/2-z
1/2+x,y,1/2-z
1/2-x,y,1/2+z
1/2+x,-y,1/2+z
1/2+x,1/2+y,z
1/2-x,1/2-y,z
1/2+x,1/2-y,-z
1/2-x,1/2+y,-z
1/2-x,1/2-y,-z
1/2+x,1/2+y,-z
1/2-x,1/2+y,z
1/2+x,1/2-y,z
loop_
_atom_site_type_symbol
_atom_site_label
_atom_site_fract_x
_atom_site_fract_y
_atom_site_fract_z
Si Si1 0.587138 0.806886 0.158069
Si Si2 0.909410 0.000000 0.385219
Si Si3 0.912395 0.187077 0.179185
Si Si4 0.197181 0.095083 0.817717
Si Si5 0.093299 0.000000 0.771562
Si Si6 0.824583 0.101965 0.577834
O O1 0.500000 0.816107 0.129493
O O2 0.589415 0.819314 0.238572
O O3 0.611558 0.745082 0.150076
O O4 0.644363 0.845353 0.116555
O O5 0.885710 0.053709 0.424776
O O6 0.877482 0.000000 0.307155
O O7 0.000000 0.000000 0.381062
O O8 0.846559 0.147251 0.153031
O O9 0.000000 0.173270 0.153701
O O10 0.250000 0.105417 0.750000
O O11 0.251066 0.077974 0.881416
O O12 0.130103 0.051871 0.806247
O O13 0.000000 0.000000 0.780637
O O14 0.802483 0.118211 0.500000
#
# Coordination Sequence:
#
# PCOD8285601 Si02
#       6
#    32  16  32  32  16  32
#     4   9  18  35  57  84 115 151 195 242 289 345
#     4  11  22  38  60  88 119 158 197 235 296 370
#     4   9  18  35  60  85 110 146 201 251 286 337
#     4  12  21  37  60  87 119 157 195 243 300 350
#     4  11  22  38  65  93 119 149 201 260 295 338
#     4  12  25  38  55  87 127 162 194 241 301 364
#
# _framework density 19.169851000000001
#
# number of rings (size 3 to 8) (size 9 to 14) (size 15 to 20)
#    0.000    1.400    4.000    3.600    0.000    6.000 
#    0.000    2.000    0.000    4.200    0.000    0.000 
#    0.000    0.000    0.000    0.000    0.000    0.000 
#
# Total GULP energy -495871.877744 kJ/mol
# GULP energy per Si atom -12396.796944 kJ/mol
# Density = 1.912622 g / cm^3
# Si number density = 19.169851 Si / 1000 Ang^3
#
#
#
# Elastic Constant Matrix: (Units=GPa)
#
#
# Indices 1 2 3 4 5 6 
#
# 1 72.2293 43.9412 33.3577 0.0000 0.0000 0.0000
# 2 43.9412 111.1302 29.3663 0.0000 0.0000 0.0000
# 3 33.3577 29.3663 89.5837 0.0000 0.0000 0.0000
# 4 0.0000 0.0000 0.0000 7.8229 0.0000 0.0000
# 5 0.0000 0.0000 0.0000 0.0000 16.1972 0.0000
# 6 0.0000 0.0000 0.0000 0.0000 0.0000 29.3603
#
#
#
# Elastic Compliance Matrix: (Units=1/GPa)
#
#
# Indices 1 2 3 4 5 6 
#
# 1 0.020377 -0.006626 -0.005416 0.000000 0.000000 0.000000
# 2 -0.006626 0.012006 -0.001469 0.000000 0.000000 0.000000
# 3 -0.005416 -0.001469 0.013661 0.000000 0.000000 0.000000
# 4 0.000000 0.000000 0.000000 0.127829 0.000000 0.000000
# 5 0.000000 0.000000 0.000000 0.000000 0.061739 0.000000
# 6 0.000000 0.000000 0.000000 0.000000 0.000000 0.034060
#
#
# Mechanical properties :
#
#
# Convention : Reuss Voigt Hill
#
# Bulk Modulus (GPa) = 52.56563 54.03041 53.29802
# Shear Modulus (GPa) = 16.49985 21.76130 19.13057
#
# Velocity S-wave (km/s) = 2.93698 3.37290 3.16246
# Velocity P-wave (km/s) = 6.24353 6.58900 6.41859
#
# Compressibility (1/GPa) = 0.01902384
#
# Stress axis : x y z
#
# Youngs Moduli (GPa) = 49.07539 83.28853 73.20279
#
# Poissons Ratio (x) = 0.55187 0.39643
# Poissons Ratio (y) = 0.32517 0.10750
# Poissons Ratio (z) = 0.26577 0.12231
#
# Static dielectric constant tensor:
#      x y z
#    x 3.724030 0.000000 0.000000 
#    y 0.000000 3.717380 0.000000 
#    z 0.000000 0.000000 3.329610 
# 
# 
# High freq. dielectric constant tensor:
#      x y z
#    x 1.753100 0.000000 0.000000 
#    y 0.000000 1.757750 0.000000 
#    z 0.000000 0.000000 1.704170 
# 
# From -- ./inp_files/23212.got.cif
#   From: 2010.03.12/outbox.cif.g09.slc.cpg/sg69_12_cif.got.tgz:23212.got - 2010.04.10 23:52:46.
