data_PCOD8285029
_publ_section_title
;
Structure prediction by ZEFSAII (Michael W. Deem and Ramdas Pophale) SiO2 
 PCOD8285029
Probable space group: F M M M
;
_chemical_formula_sum "Si O2"
_cell_formula_units_Z 224
_cell_length_a 30.589000
_cell_length_b 22.057903
_cell_length_c 17.412754
_cell_angle_alpha 90.000000
_cell_angle_beta 90.000000
_cell_angle_gamma 90.000000
_cell_volume 11748.893487
_symmetry_space_group_name_H-M "F M M M"
_symmetry_group_IT_number 69
_symmetry_cell_setting 'orthorhombic'
loop_
_space_group_symop_operation_xyz
x,y,z
-x,-y,z
x,-y,-z
-x,y,-z
-x,-y,-z
x,y,-z
-x,y,z
x,-y,z
x,1/2+y,1/2+z
-x,1/2-y,1/2+z
x,1/2-y,1/2-z
-x,1/2+y,1/2-z
-x,1/2-y,1/2-z
x,1/2+y,1/2-z
-x,1/2+y,1/2+z
x,1/2-y,1/2+z
1/2+x,y,1/2+z
1/2-x,-y,1/2+z
1/2+x,-y,1/2-z
1/2-x,y,1/2-z
1/2-x,-y,1/2-z
1/2+x,y,1/2-z
1/2-x,y,1/2+z
1/2+x,-y,1/2+z
1/2+x,1/2+y,z
1/2-x,1/2-y,z
1/2+x,1/2-y,-z
1/2-x,1/2+y,-z
1/2-x,1/2-y,-z
1/2+x,1/2+y,-z
1/2-x,1/2+y,z
1/2+x,1/2-y,z
loop_
_atom_site_type_symbol
_atom_site_label
_atom_site_fract_x
_atom_site_fract_y
_atom_site_fract_z
Si Si1 0.797295 0.221675 0.585485
Si Si2 0.128396 0.815399 0.909044
Si Si3 0.323543 0.931904 0.409711
Si Si4 0.450230 0.252340 0.659558
Si Si5 0.551459 0.376679 0.412909
Si Si6 0.913609 0.500000 0.085487
Si Si7 0.235297 0.607165 0.162306
Si Si8 0.688528 0.500000 0.587023
O O1 0.811210 0.198323 0.500000
O O2 0.750000 0.250000 0.578510
O O3 0.833205 0.269179 0.617705
O O4 0.792221 0.167947 0.646644
O O5 0.139637 0.884133 0.880890
O O6 0.081515 0.798990 0.873740
O O7 0.124853 0.813318 0.000000
O O8 0.326572 0.938484 0.500000
O O9 0.277472 0.901092 0.390821
O O10 0.328836 0.000000 0.372981
O O11 0.500000 0.241051 0.629715
O O12 0.448836 0.250000 0.750000
O O13 0.432236 0.317907 0.633250
O O14 0.569013 0.369945 0.500000
O O15 0.500000 0.380794 0.409870
O O16 0.570274 0.438051 0.373335
O O17 0.862530 0.500000 0.078975
O O18 0.934939 0.500000 0.000000
O O19 0.250000 0.603077 0.250000
O O20 0.201544 0.556060 0.139030
O O21 0.709224 0.500000 0.500000
#
# Coordination Sequence:
#
# PCOD8285029 Si02
#       8
#    32  32  32  32  32  16  32  16
#     4  10  20  37  58  81 112 148 189 233 283 341
#     4  10  21  37  61  88 109 143 195 241 283 336
#     4  10  20  38  60  78 105 149 194 233 282 343
#     4  10  22  39  58  82 117 153 186 229 291 351
#     4   9  17  33  57  82 110 147 186 226 275 338
#     4   9  19  33  52  85 116 141 183 232 279 331
#     4  12  24  36  52  79 114 151 192 236 281 333
#     4  11  23  38  55  76 110 155 194 232 280 328
#
# _framework density 19.065626000000002
#
# number of rings (size 3 to 8) (size 9 to 14) (size 15 to 20)
#    0.000    1.857    2.143    2.143    2.000    3.143 
#    0.000    0.000    0.000    0.429    0.000    2.000 
#    0.000    0.000    0.000    0.000    0.000    0.000 
#
# Total GULP energy -694099.020598 kJ/mol
# GULP energy per Si atom -12394.625368 kJ/mol
# Density = 1.902223 g / cm^3
# Si number density = 19.065626 Si / 1000 Ang^3
#
#
#
# Elastic Constant Matrix: (Units=GPa)
#
#
# Indices 1 2 3 4 5 6 
#
# 1 80.9584 53.5776 10.1461 0.0000 0.0000 0.0000
# 2 53.5776 147.0495 42.4971 0.0000 0.0000 0.0000
# 3 10.1461 42.4971 49.2230 0.0000 0.0000 0.0000
# 4 0.0000 0.0000 0.0000 -82.7997 0.0000 0.0000
# 5 0.0000 0.0000 0.0000 0.0000 19.8011 0.0000
# 6 0.0000 0.0000 0.0000 0.0000 0.0000 39.6099
#
#
#
# Elastic Compliance Matrix: (Units=1/GPa)
#
#
# Indices 1 2 3 4 5 6 
#
# 1 0.016484 -0.006694 0.002382 0.000000 0.000000 0.000000
# 2 -0.006694 0.011780 -0.008790 0.000000 0.000000 0.000000
# 3 0.002382 -0.008790 0.027414 0.000000 0.000000 0.000000
# 4 0.000000 0.000000 0.000000 -0.012077 0.000000 0.000000
# 5 0.000000 0.000000 0.000000 0.000000 0.050502 0.000000
# 6 0.000000 0.000000 0.000000 0.000000 0.000000 0.025246
#
#
# Mechanical properties :
#
#
# Convention : Reuss Voigt Hill
#
# Bulk Modulus (GPa) = 33.93058 54.40805 44.16932
# Shear Modulus (GPa) = 32.17951 6.72291 19.45121
#
# Velocity S-wave (km/s) = 4.11278 1.87985 3.19756
# Velocity P-wave (km/s) = 6.35520 5.77157 6.07040
#
# Compressibility (1/GPa) = 0.02947194
#
# Stress axis : x y z
#
# Youngs Moduli (GPa) = 60.66610 84.89065 36.47767
#
# Poissons Ratio (x) = 0.56827 -0.08688
# Poissons Ratio (y) = 0.40611 0.32065
# Poissons Ratio (z) = -0.14449 0.74622
#
# Static dielectric constant tensor:
#      x y z
#    x 3.472880 0.000000 0.000000 
#    y 0.000000 4.052840 0.000000 
#    z 0.000000 0.000000 3.249770 
# 
# 
# High freq. dielectric constant tensor:
#      x y z
#    x 1.732990 0.000000 0.000000 
#    y 0.000000 1.754340 0.000000 
#    z 0.000000 0.000000 1.714190 
# 
# From -- ./inp_files/27976.got.cif
#   From: 2010.03.12/outbox.cif.g09.slc.cpg/sg69_14_cif.got.tgz:27976.got - 2010.04.10 23:52:46.
