data_PCOD8285352
_publ_section_title
;
Structure prediction by ZEFSAII (Michael W. Deem and Ramdas Pophale) SiO2 
 PCOD8285352
Probable space group: F M M M
;
_chemical_formula_sum "Si O2"
_cell_formula_units_Z 160
_cell_length_a 27.257116
_cell_length_b 9.203139
_cell_length_c 33.669074
_cell_angle_alpha 90.000000
_cell_angle_beta 90.000000
_cell_angle_gamma 90.000000
_cell_volume 8445.921801
_symmetry_space_group_name_H-M "F M M M"
_symmetry_group_IT_number 69
_symmetry_cell_setting 'orthorhombic'
loop_
_space_group_symop_operation_xyz
x,y,z
-x,-y,z
x,-y,-z
-x,y,-z
-x,-y,-z
x,y,-z
-x,y,z
x,-y,z
x,1/2+y,1/2+z
-x,1/2-y,1/2+z
x,1/2-y,1/2-z
-x,1/2+y,1/2-z
-x,1/2-y,1/2-z
x,1/2+y,1/2-z
-x,1/2+y,1/2+z
x,1/2-y,1/2+z
1/2+x,y,1/2+z
1/2-x,-y,1/2+z
1/2+x,-y,1/2-z
1/2-x,y,1/2-z
1/2-x,-y,1/2-z
1/2+x,y,1/2-z
1/2-x,y,1/2+z
1/2+x,-y,1/2+z
1/2+x,1/2+y,z
1/2-x,1/2-y,z
1/2+x,1/2-y,-z
1/2-x,1/2+y,-z
1/2-x,1/2-y,-z
1/2+x,1/2+y,-z
1/2-x,1/2+y,z
1/2+x,1/2-y,z
loop_
_atom_site_type_symbol
_atom_site_label
_atom_site_fract_x
_atom_site_fract_y
_atom_site_fract_z
Si Si1 0.000000 0.828211 0.791680
Si Si2 0.794663 0.160967 0.420933
Si Si3 0.601395 0.829562 0.334203
Si Si4 0.798536 0.834746 0.673218
Si Si5 0.552503 0.672285 0.000000
Si Si6 0.388511 0.330790 0.924910
O O1 0.000000 0.750000 0.750000
O O2 0.949788 0.780034 0.813991
O O3 0.000000 0.000000 0.785787
O O4 0.750000 0.250000 0.438938
O O5 0.792963 0.158952 0.373597
O O6 0.841453 0.241692 0.436886
O O7 0.793241 0.000000 0.438493
O O8 0.649414 0.745498 0.316514
O O9 0.593034 0.793210 0.380642
O O10 0.611556 0.000000 0.327591
O O11 0.750000 0.750000 0.690464
O O12 0.799758 0.000000 0.690512
O O13 0.574683 0.724586 0.041572
O O14 0.550783 0.500000 0.000000
O O15 0.500000 0.745836 0.000000
O O16 0.376185 0.500000 0.928120
#
# Coordination Sequence:
#
# PCOD8285352 Si02
#       6
#    16  32  32  32  16  32
#     4  10  22  38  56  79 107 139 173 212 258 306
#     4   9  16  27  45  69  98 130 167 208 252 299
#     4   9  18  32  52  77 105 138 175 213 255 306
#     4   9  16  27  47  76 107 137 171 212 257 305
#     4   9  18  30  48  73  98 127 166 213 256 293
#     4   9  17  30  49  73 101 131 167 208 249 296
#
# _framework density 18.944054999999999
#
# number of rings (size 3 to 8) (size 9 to 14) (size 15 to 20)
#    0.000    2.900    0.000    1.200    1.400    5.600 
#    0.000    1.000    0.000    1.800    0.000    4.200 
#    0.000    0.000    0.000    0.000    0.000    0.000 
#
# Total GULP energy -495590.463269 kJ/mol
# GULP energy per Si atom -12389.761582 kJ/mol
# Density = 1.890094 g / cm^3
# Si number density = 18.944055 Si / 1000 Ang^3
#
#
#
# Elastic Constant Matrix: (Units=GPa)
#
#
# Indices 1 2 3 4 5 6 
#
# 1 203.0912 80.7348 63.1291 0.0000 0.0000 0.0002
# 2 80.7348 83.3663 34.9811 0.0001 0.0000 0.0011
# 3 63.1291 34.9811 68.8589 0.0000 0.0000 -0.0001
# 4 0.0000 0.0001 0.0000 17.4100 0.0000 -0.0001
# 5 0.0000 0.0000 0.0000 0.0000 6.9286 0.0000
# 6 0.0002 0.0011 -0.0001 -0.0001 0.0000 29.2032
#
#
#
# Elastic Compliance Matrix: (Units=1/GPa)
#
#
# Indices 1 2 3 4 5 6 
#
# 1 0.009165 -0.006799 -0.004948 0.000000 0.000000 0.000000
# 2 -0.006799 0.020289 -0.004074 0.000000 0.000000 -0.000001
# 3 -0.004948 -0.004074 0.021128 0.000000 0.000000 0.000000
# 4 0.000000 0.000000 0.000000 0.057438 0.000000 0.000000
# 5 0.000000 0.000000 0.000000 0.000000 0.144329 0.000000
# 6 0.000000 -0.000001 0.000000 0.000000 0.000000 0.034243
#
#
# Mechanical properties :
#
#
# Convention : Reuss Voigt Hill
#
# Bulk Modulus (GPa) = 52.79751 79.22291 66.01021
# Shear Modulus (GPa) = 15.40603 22.47312 18.93957
#
# Velocity S-wave (km/s) = 2.85483 3.44799 3.16533
# Velocity P-wave (km/s) = 6.22876 7.60011 6.94835
#
# Compressibility (1/GPa) = 0.01894029
#
# Stress axis : x y z
#
# Youngs Moduli (GPa) = 109.11149 49.28701 47.32984
#
# Poissons Ratio (x) = 0.33512 0.23420
# Poissons Ratio (y) = 0.74189 0.19280
# Poissons Ratio (z) = 0.53990 0.20078
#
# Static dielectric constant tensor:
#      x y z
#    x 3.509890 0.000000 0.000000 
#    y 0.000000 3.540040 0.000000 
#    z 0.000000 0.000000 3.121070 
# 
# 
# High freq. dielectric constant tensor:
#      x y z
#    x 1.748900 0.000000 0.000000 
#    y 0.000000 1.726560 0.000000 
#    z 0.000000 0.000000 1.701930 
# 
# From -- ./inp_files/47490.got.cif
#   From: 2010.03.12/outbox.cif.g09.slc.cpg/sg69_24_cif.got.tgz:47490.got - 2010.04.10 23:52:46.
