data_PCOD8285925
_publ_section_title
;
Structure prediction by ZEFSAII (Michael W. Deem and Ramdas Pophale) SiO2 
 PCOD8285925
Probable space group: F D D D
;
_chemical_formula_sum "Si O2"
_cell_formula_units_Z 144
_cell_length_a 14.236066
_cell_length_b 17.795585
_cell_length_c 27.798257
_cell_angle_alpha 90.000000
_cell_angle_beta 90.000000
_cell_angle_gamma 90.000000
_cell_volume 7042.386037
_symmetry_space_group_name_H-M "F D D D"
_symmetry_group_IT_number 70
_space_group.IT_coordinate_system_code '2'
_symmetry_cell_setting 'orthorhombic'
loop_
_space_group_symop_operation_xyz
x,y,z
1/4-x,1/4-y,z
x,1/4-y,1/4-z
1/4-x,y,1/4-z
-x,-y,-z
3/4+x,3/4+y,-z
-x,3/4+y,3/4+z
3/4+x,-y,3/4+z
x,1/2+y,1/2+z
1/4-x,3/4-y,1/2+z
x,3/4-y,3/4-z
1/4-x,1/2+y,3/4-z
-x,1/2-y,1/2-z
3/4+x,1/4+y,1/2-z
-x,1/4+y,1/4+z
3/4+x,1/2-y,1/4+z
1/2+x,y,1/2+z
3/4-x,1/4-y,1/2+z
1/2+x,1/4-y,3/4-z
3/4-x,y,3/4-z
1/2-x,-y,1/2-z
1/4+x,3/4+y,1/2-z
1/2-x,3/4+y,1/4+z
1/4+x,-y,1/4+z
1/2+x,1/2+y,z
3/4-x,3/4-y,z
1/2+x,3/4-y,1/4-z
3/4-x,1/2+y,1/4-z
1/2-x,1/2-y,-z
1/4+x,1/4+y,-z
1/2-x,1/4+y,3/4+z
1/4+x,1/2-y,3/4+z
loop_
_atom_site_type_symbol
_atom_site_label
_atom_site_fract_x
_atom_site_fract_y
_atom_site_fract_z
Si Si1 0.833728 0.953535 0.927266
Si Si2 0.367075 0.076704 0.672201
Si Si3 0.375000 0.375000 0.253453
Si Si4 0.175749 0.852693 0.726721
Si Si5 0.821581 0.501457 0.826621
O O1 0.875000 0.968561 0.875000
O O2 0.875000 0.875000 0.948190
O O3 0.721862 0.954270 0.922689
O O4 0.866036 0.021451 0.962063
O O5 0.347643 0.125000 0.625000
O O6 0.353458 0.129699 0.718706
O O7 0.292091 0.007828 0.670346
O O8 0.287927 0.352034 0.220574
O O9 0.396120 0.302989 0.285017
O O10 0.142662 0.916008 0.688861
O O11 0.875000 0.478525 0.875000
#
# Coordination Sequence:
#
# PCOD8285925 Si02
#       5
#    32  32  16  32  32
#     4  11  23  44  62  84 124 170 212 255 308 359
#     4  11  22  40  64  88 124 167 202 252 320 369
#     4  10  19  38  58  94 126 160 192 254 317 374
#     4  11  22  37  65  92 122 160 210 255 305 368
#     4  11  21  36  62  97 126 155 200 255 313 374
#
# _framework density 20.447616
#
# number of rings (size 3 to 8) (size 9 to 14) (size 15 to 20)
#    0.000    1.111    2.222    9.000    0.000    0.889 
#    0.000    0.000    0.000    0.000    0.000    0.000 
#    0.000    0.000    0.000    0.000    0.000    0.000 
#
# Total GULP energy -446332.862069 kJ/mol
# GULP energy per Si atom -12398.135057 kJ/mol
# Density = 2.040108 g / cm^3
# Si number density = 20.447616 Si / 1000 Ang^3
#
#
#
# Elastic Constant Matrix: (Units=GPa)
#
#
# Indices 1 2 3 4 5 6 
#
# 1 82.6703 35.4394 22.6799 0.0000 0.0000 0.0000
# 2 35.4394 156.5045 53.9683 0.0000 0.0000 0.0000
# 3 22.6799 53.9683 85.7723 0.0000 0.0000 0.0000
# 4 0.0000 0.0000 0.0000 -12.4793 0.0000 0.0000
# 5 0.0000 0.0000 0.0000 0.0000 23.5612 0.0000
# 6 0.0000 0.0000 0.0000 0.0000 0.0000 71.5745
#
#
#
# Elastic Compliance Matrix: (Units=1/GPa)
#
#
# Indices 1 2 3 4 5 6 
#
# 1 0.013696 -0.002366 -0.002133 0.000000 0.000000 0.000000
# 2 -0.002366 0.008569 -0.004766 0.000000 0.000000 0.000000
# 3 -0.002133 -0.004766 0.015221 0.000000 0.000000 0.000000
# 4 0.000000 0.000000 0.000000 -0.080133 0.000000 0.000000
# 5 0.000000 0.000000 0.000000 0.000000 0.042443 0.000000
# 6 0.000000 0.000000 0.000000 0.000000 0.000000 0.013971
#
#
# Mechanical properties :
#
#
# Convention : Reuss Voigt Hill
#
# Bulk Modulus (GPa) = 52.75178 61.01359 56.88268
# Shear Modulus (GPa) = 129.48215 30.72190 80.10203
#
# Velocity S-wave (km/s) = 7.96626 3.88037 6.26572
# Velocity P-wave (km/s) = 10.51045 7.06966 8.95683
#
# Compressibility (1/GPa) = 0.01895671
#
# Stress axis : x y z
#
# Youngs Moduli (GPa) = 73.01645 116.70274 65.69658
#
# Poissons Ratio (x) = 0.27610 0.14012
# Poissons Ratio (y) = 0.17274 0.31311
# Poissons Ratio (z) = 0.15573 0.55620
#
# Static dielectric constant tensor:
#      x y z
#    x 3.933250 0.000000 0.000000 
#    y 0.000000 4.091170 0.000000 
#    z 0.000000 0.000000 3.686660 
# 
# 
# High freq. dielectric constant tensor:
#      x y z
#    x 1.799870 0.000000 0.000000 
#    y 0.000000 1.803610 0.000000 
#    z 0.000000 0.000000 1.797640 
# 
# From -- ./inp_files/26615.got.cif
#   From: 2010.03.12/outbox.cif.g09.slc.cpg/sg70_14_cif.got.tgz:26615.got - 2010.04.16 13:46:32.
