data_PCOD8285893
_publ_section_title
;
Structure prediction by ZEFSAII (Michael W. Deem and Ramdas Pophale) SiO2 
 PCOD8285893
Probable space group: F D D D
;
_chemical_formula_sum "Si O2"
_cell_formula_units_Z 80
_cell_length_a 4.884176
_cell_length_b 38.172557
_cell_length_c 20.499996
_cell_angle_alpha 90.000000
_cell_angle_beta 90.000000
_cell_angle_gamma 90.000000
_cell_volume 3822.049733
_symmetry_space_group_name_H-M "F D D D"
_symmetry_group_IT_number 70
_space_group.IT_coordinate_system_code '2'
_symmetry_cell_setting 'orthorhombic'
loop_
_space_group_symop_operation_xyz
x,y,z
1/4-x,1/4-y,z
x,1/4-y,1/4-z
1/4-x,y,1/4-z
-x,-y,-z
3/4+x,3/4+y,-z
-x,3/4+y,3/4+z
3/4+x,-y,3/4+z
x,1/2+y,1/2+z
1/4-x,3/4-y,1/2+z
x,3/4-y,3/4-z
1/4-x,1/2+y,3/4-z
-x,1/2-y,1/2-z
3/4+x,1/4+y,1/2-z
-x,1/4+y,1/4+z
3/4+x,1/2-y,1/4+z
1/2+x,y,1/2+z
3/4-x,1/4-y,1/2+z
1/2+x,1/4-y,3/4-z
3/4-x,y,3/4-z
1/2-x,-y,1/2-z
1/4+x,3/4+y,1/2-z
1/2-x,3/4+y,1/4+z
1/4+x,-y,1/4+z
1/2+x,1/2+y,z
3/4-x,3/4-y,z
1/2+x,3/4-y,1/4-z
3/4-x,1/2+y,1/4-z
1/2-x,1/2-y,-z
1/4+x,1/4+y,-z
1/2-x,1/4+y,3/4+z
1/4+x,1/2-y,3/4+z
loop_
_atom_site_type_symbol
_atom_site_label
_atom_site_fract_x
_atom_site_fract_y
_atom_site_fract_z
Si Si1 0.625000 0.898058 0.125000
Si Si2 0.493136 0.545276 0.271834
Si Si3 0.982614 0.030671 0.691088
O O1 0.375000 0.875000 0.096982
O O2 0.492620 0.920911 0.182736
O O3 0.182197 0.539697 0.250418
O O4 0.582005 0.510921 0.313320
O O5 0.695273 0.549829 0.208907
O O6 0.125000 0.044464 0.625000
#
# Coordination Sequence:
#
# PCOD8285893 Si02
#       3
#    16  32  32
#     4  12  24  40  60  84 126 166 205 248 291 380
#     4  10  21  35  56  89 117 155 201 239 314 353
#     4  10  19  35  60  86 121 147 191 266 303 356
#
# _framework density 20.931177000000002
#
# number of rings (size 3 to 8) (size 9 to 14) (size 15 to 20)
#    0.000    1.600    2.000    3.600    0.000    0.000 
#    0.000    0.000    0.000   18.000    0.000    0.000 
#    0.000    0.000    0.000    0.000    0.000    0.000 
#
# Total GULP energy -247988.853608 kJ/mol
# GULP energy per Si atom -12399.442680 kJ/mol
# Density = 2.088354 g / cm^3
# Si number density = 20.931177 Si / 1000 Ang^3
#
#
#
# Elastic Constant Matrix: (Units=GPa)
#
#
# Indices 1 2 3 4 5 6 
#
# 1 122.4240 41.9438 24.3990 0.0000 0.0000 0.0000
# 2 41.9438 95.0330 43.6044 0.0000 0.0000 0.0000
# 3 24.3990 43.6044 84.8296 0.0000 0.0000 0.0000
# 4 0.0000 0.0000 0.0000 18.8216 0.0000 0.0000
# 5 0.0000 0.0000 0.0000 0.0000 45.5900 0.0000
# 6 0.0000 0.0000 0.0000 0.0000 0.0000 28.0152
#
#
#
# Elastic Compliance Matrix: (Units=1/GPa)
#
#
# Indices 1 2 3 4 5 6 
#
# 1 0.009662 -0.003912 -0.000768 0.000000 0.000000 0.000000
# 2 -0.003912 0.015354 -0.006767 0.000000 0.000000 0.000000
# 3 -0.000768 -0.006767 0.015488 0.000000 0.000000 0.000000
# 4 0.000000 0.000000 0.000000 0.053130 0.000000 0.000000
# 5 0.000000 0.000000 0.000000 0.000000 0.021935 0.000000
# 6 0.000000 0.000000 0.000000 0.000000 0.000000 0.035695
#
#
# Mechanical properties :
#
#
# Convention : Reuss Voigt Hill
#
# Bulk Modulus (GPa) = 56.78857 58.02011 57.40434
# Shear Modulus (GPa) = 27.77347 31.30800 29.54073
#
# Velocity S-wave (km/s) = 3.64661 3.87170 3.76084
# Velocity P-wave (km/s) = 6.70226 6.91132 6.80760
#
# Compressibility (1/GPa) = 0.01760918
#
# Stress axis : x y z
#
# Youngs Moduli (GPa) = 103.50192 65.12855 64.56683
#
# Poissons Ratio (x) = 0.25477 0.04960
# Poissons Ratio (y) = 0.40488 0.43694
# Poissons Ratio (z) = 0.07951 0.44074
#
# Static dielectric constant tensor:
#      x y z
#    x 4.008560 0.000000 0.000000 
#    y 0.000000 3.531070 0.000000 
#    z 0.000000 0.000000 3.485620 
# 
# 
# High freq. dielectric constant tensor:
#      x y z
#    x 1.844810 0.000000 0.000000 
#    y 0.000000 1.777320 0.000000 
#    z 0.000000 0.000000 1.803520 
# 
# From -- ./inp_files/48290.got.cif
#   From: 2010.03.12/outbox.cif.g09.slc.cpg/sg70_25_cif.got.tgz:48290.got - 2010.04.16 13:46:32.
