data_PCOD8285536
_publ_section_title
;
Structure prediction by ZEFSAII (Michael W. Deem and Ramdas Pophale) SiO2 
 PCOD8285536
Probable space group: F M M M
;
_chemical_formula_sum "Si O2"
_cell_formula_units_Z 128
_cell_length_a 8.247733
_cell_length_b 25.663624
_cell_length_c 36.406584
_cell_angle_alpha 90.000000
_cell_angle_beta 90.000000
_cell_angle_gamma 90.000000
_cell_volume 7706.062169
_symmetry_space_group_name_H-M "F M M M"
_symmetry_group_IT_number 69
_symmetry_cell_setting 'orthorhombic'
loop_
_space_group_symop_operation_xyz
x,y,z
-x,-y,z
x,-y,-z
-x,y,-z
-x,-y,-z
x,y,-z
-x,y,z
x,-y,z
x,1/2+y,1/2+z
-x,1/2-y,1/2+z
x,1/2-y,1/2-z
-x,1/2+y,1/2-z
-x,1/2-y,1/2-z
x,1/2+y,1/2-z
-x,1/2+y,1/2+z
x,1/2-y,1/2+z
1/2+x,y,1/2+z
1/2-x,-y,1/2+z
1/2+x,-y,1/2-z
1/2-x,y,1/2-z
1/2-x,-y,1/2-z
1/2+x,y,1/2-z
1/2-x,y,1/2+z
1/2+x,-y,1/2+z
1/2+x,1/2+y,z
1/2-x,1/2-y,z
1/2+x,1/2-y,-z
1/2-x,1/2+y,-z
1/2-x,1/2-y,-z
1/2+x,1/2+y,-z
1/2-x,1/2+y,z
1/2+x,1/2-y,z
loop_
_atom_site_type_symbol
_atom_site_label
_atom_site_fract_x
_atom_site_fract_y
_atom_site_fract_z
Si Si1 0.815668 0.561088 0.086624
Si Si2 0.313577 0.806147 0.289456
Si Si3 0.000000 0.938275 0.958902
Si Si4 0.310161 0.500000 0.208876
Si Si5 0.314842 0.600183 0.332859
O O1 0.796959 0.500000 0.095215
O O2 0.669188 0.580254 0.060103
O O3 0.790818 0.592953 0.123848
O O4 0.000000 0.571529 0.070812
O O5 0.500000 0.799339 0.284193
O O6 0.250000 0.825356 0.250000
O O7 0.250000 0.750000 0.301913
O O8 0.277504 0.847859 0.320998
O O9 0.000000 0.000000 0.960104
O O10 0.000000 0.914964 0.000000
O O11 0.500000 0.500000 0.208418
O O12 0.250000 0.500000 0.250000
O O13 0.249972 0.550729 0.188409
O O14 0.500000 0.607563 0.322033
#
# Coordination Sequence:
#
# PCOD8285536 Si02
#       5
#    32  32  16  16  32
#     4   9  18  31  49  72 102 138 172 206 255 302
#     4  11  22  37  54  72  96 132 173 219 267 311
#     4   9  18  30  48  72 104 137 172 208 242 304
#     4  12  24  34  48  70  98 133 174 217 257 307
#     4  11  21  35  52  72 100 134 171 217 259 307
#
# _framework density 16.610299999999999
#
# number of rings (size 3 to 8) (size 9 to 14) (size 15 to 20)
#    0.000    1.625    1.250    5.625    3.500    0.500 
#    0.000    2.500    0.000    0.000    0.000    0.000 
#    0.000    1.000    0.500    0.000    0.000    0.000 
#
# Total GULP energy -396700.015876 kJ/mol
# GULP energy per Si atom -12396.875496 kJ/mol
# Density = 1.657249 g / cm^3
# Si number density = 16.610300 Si / 1000 Ang^3
#
#
#
# Elastic Constant Matrix: (Units=GPa)
#
#
# Indices 1 2 3 4 5 6 
#
# 1 120.9310 29.5838 56.3808 0.0000 0.0000 0.0000
# 2 29.5838 78.3736 37.8485 0.0000 0.0000 0.0000
# 3 56.3808 37.8485 91.4771 0.0000 0.0000 0.0000
# 4 0.0000 0.0000 0.0000 24.4825 0.0000 0.0000
# 5 0.0000 0.0000 0.0000 0.0000 30.0387 0.0000
# 6 0.0000 0.0000 0.0000 0.0000 0.0000 22.6914
#
#
#
# Elastic Compliance Matrix: (Units=1/GPa)
#
#
# Indices 1 2 3 4 5 6 
#
# 1 0.011688 -0.001166 -0.006721 0.000000 0.000000 0.000000
# 2 -0.001166 0.016062 -0.005927 0.000000 0.000000 0.000000
# 3 -0.006721 -0.005927 0.017527 0.000000 0.000000 0.000000
# 4 0.000000 0.000000 0.000000 0.040845 0.000000 0.000000
# 5 0.000000 0.000000 0.000000 0.000000 0.033290 0.000000
# 6 0.000000 0.000000 0.000000 0.000000 0.000000 0.044070
#
#
# Mechanical properties :
#
#
# Convention : Reuss Voigt Hill
#
# Bulk Modulus (GPa) = 56.66395 59.82310 58.24353
# Shear Modulus (GPa) = 25.38162 26.57377 25.97770
#
# Velocity S-wave (km/s) = 3.91329 4.00414 3.95897
# Velocity P-wave (km/s) = 7.38960 7.58098 7.48591
#
# Compressibility (1/GPa) = 0.01764790
#
# Stress axis : x y z
#
# Youngs Moduli (GPa) = 85.55718 62.25968 57.05617
#
# Poissons Ratio (x) = 0.07260 0.38350
# Poissons Ratio (y) = 0.09976 0.33816
# Poissons Ratio (z) = 0.57506 0.36901
#
# Static dielectric constant tensor:
#      x y z
#    x 3.539170 0.000000 0.000000 
#    y 0.000000 2.922840 0.000000 
#    z 0.000000 0.000000 3.120030 
# 
# 
# High freq. dielectric constant tensor:
#      x y z
#    x 1.670600 0.000000 0.000000 
#    y 0.000000 1.609130 0.000000 
#    z 0.000000 0.000000 1.623970 
# 
# From -- ./inp_files/5378.got.cif
#   From: 2010.03.12/outbox.cif.g09.slc.cpg/sg69_3_cif.got.tgz:5378.got - 2010.04.10 23:52:46.
