data_PCOD8285394
_publ_section_title
;
Structure prediction by ZEFSAII (Michael W. Deem and Ramdas Pophale) SiO2 
 PCOD8285394
Probable space group: F M M M
;
_chemical_formula_sum "Si O2"
_cell_formula_units_Z 160
_cell_length_a 33.288365
_cell_length_b 9.988510
_cell_length_c 26.370303
_cell_angle_alpha 90.000000
_cell_angle_beta 90.000000
_cell_angle_gamma 90.000000
_cell_volume 8768.156513
_symmetry_space_group_name_H-M "F M M M"
_symmetry_group_IT_number 69
_symmetry_cell_setting 'orthorhombic'
loop_
_space_group_symop_operation_xyz
x,y,z
-x,-y,z
x,-y,-z
-x,y,-z
-x,-y,-z
x,y,-z
-x,y,z
x,-y,z
x,1/2+y,1/2+z
-x,1/2-y,1/2+z
x,1/2-y,1/2-z
-x,1/2+y,1/2-z
-x,1/2-y,1/2-z
x,1/2+y,1/2-z
-x,1/2+y,1/2+z
x,1/2-y,1/2+z
1/2+x,y,1/2+z
1/2-x,-y,1/2+z
1/2+x,-y,1/2-z
1/2-x,y,1/2-z
1/2-x,-y,1/2-z
1/2+x,y,1/2-z
1/2-x,y,1/2+z
1/2+x,-y,1/2+z
1/2+x,1/2+y,z
1/2-x,1/2-y,z
1/2+x,1/2-y,-z
1/2-x,1/2+y,-z
1/2-x,1/2-y,-z
1/2+x,1/2+y,-z
1/2-x,1/2+y,z
1/2+x,1/2-y,z
loop_
_atom_site_type_symbol
_atom_site_label
_atom_site_fract_x
_atom_site_fract_y
_atom_site_fract_z
Si Si1 0.629511 0.157047 0.202407
Si Si2 0.409151 0.757032 0.099826
Si Si3 0.547036 0.000000 0.055877
Si Si4 0.170412 0.654165 0.943308
Si Si5 0.715378 0.151960 0.154795
Si Si6 0.047717 0.000000 0.059914
O O1 0.619538 0.250000 0.250000
O O2 0.603001 0.221144 0.157971
O O3 0.676497 0.169581 0.189641
O O4 0.618613 0.000000 0.211614
O O5 0.440216 0.870910 0.086123
O O6 0.369313 0.758096 0.064969
O O7 0.432747 0.622222 0.089597
O O8 0.500000 0.000000 0.050126
O O9 0.567202 0.000000 0.000000
O O10 0.157534 0.500000 0.933303
O O11 0.204945 0.692686 0.903320
O O12 0.187216 0.676854 0.000000
O O13 0.750000 0.250000 0.175072
O O14 0.731517 0.000000 0.157528
O O15 0.000000 0.000000 0.067517
O O16 0.058289 0.000000 0.000000
#
# Coordination Sequence:
#
# PCOD8285394 Si02
#       6
#    32  32  16  32  32  16
#     4  10  22  40  63  87 109 145 195 243 291 335
#     4  11  20  37  57  83 117 151 191 236 277 335
#     4  11  20  32  59  91 114 145 185 225 273 335
#     4   9  16  30  54  78 106 149 192 230 274 329
#     4   9  19  35  52  79 114 144 182 230 280 335
#     4  11  24  38  55  87 128 159 181 221 285 341
#
# _framework density 18.247848999999999
#
# number of rings (size 3 to 8) (size 9 to 14) (size 15 to 20)
#    0.000    2.000    2.000    3.600    1.400    3.200 
#    5.400    2.000    0.000    3.600    0.000    0.000 
#    0.000    0.000    0.000    0.000    0.000    0.000 
#
# Total GULP energy -495937.965463 kJ/mol
# GULP energy per Si atom -12398.449137 kJ/mol
# Density = 1.820632 g / cm^3
# Si number density = 18.247849 Si / 1000 Ang^3
#
#
#
# Elastic Constant Matrix: (Units=GPa)
#
#
# Indices 1 2 3 4 5 6 
#
# 1 77.1978 58.1830 31.4002 0.0000 0.0000 0.0000
# 2 58.1830 141.2786 51.7289 0.0000 0.0000 0.0000
# 3 31.4002 51.7289 110.8665 0.0000 0.0000 0.0000
# 4 0.0000 0.0000 0.0000 37.8441 0.0000 0.0000
# 5 0.0000 0.0000 0.0000 0.0000 16.0509 0.0000
# 6 0.0000 0.0000 0.0000 0.0000 0.0000 25.6247
#
#
#
# Elastic Compliance Matrix: (Units=1/GPa)
#
#
# Indices 1 2 3 4 5 6 
#
# 1 0.019184 -0.007129 -0.002107 0.000000 0.000000 0.000000
# 2 -0.007129 0.011186 -0.003200 0.000000 0.000000 0.000000
# 3 -0.002107 -0.003200 0.011110 0.000000 0.000000 0.000000
# 4 0.000000 0.000000 0.000000 0.026424 0.000000 0.000000
# 5 0.000000 0.000000 0.000000 0.000000 0.062302 0.000000
# 6 0.000000 0.000000 0.000000 0.000000 0.000000 0.039025
#
#
# Mechanical properties :
#
#
# Convention : Reuss Voigt Hill
#
# Bulk Modulus (GPa) = 60.21491 67.99634 64.10563
# Shear Modulus (GPa) = 25.04531 28.43933 26.74232
#
# Velocity S-wave (km/s) = 3.70876 3.95207 3.83235
# Velocity P-wave (km/s) = 7.17006 7.62684 7.40198
#
# Compressibility (1/GPa) = 0.01660718
#
# Stress axis : x y z
#
# Youngs Moduli (GPa) = 52.12726 89.39863 90.01117
#
# Poissons Ratio (x) = 0.63732 0.18966
# Poissons Ratio (y) = 0.37162 0.28804
# Poissons Ratio (z) = 0.10983 0.28608
#
# Static dielectric constant tensor:
#      x y z
#    x 3.198980 0.000000 0.000000 
#    y 0.000000 3.185080 0.000000 
#    z 0.000000 0.000000 3.413960 
# 
# 
# High freq. dielectric constant tensor:
#      x y z
#    x 1.697060 0.000000 0.000000 
#    y 0.000000 1.705200 0.000000 
#    z 0.000000 0.000000 1.707070 
# 
# From -- ./inp_files/47512.got.cif
#   From: 2010.03.12/outbox.cif.g09.slc.cpg/sg69_24_cif.got.tgz:47512.got - 2010.04.10 23:52:46.
