data_PCOD8285670
_publ_section_title
;
Structure prediction by ZEFSAII (Michael W. Deem and Ramdas Pophale) SiO2 
 PCOD8285670
Probable space group: F M M M
;
_chemical_formula_sum "Si O2"
_cell_formula_units_Z 144
_cell_length_a 28.698221
_cell_length_b 18.169114
_cell_length_c 15.017683
_cell_angle_alpha 90.000000
_cell_angle_beta 90.000000
_cell_angle_gamma 90.000000
_cell_volume 7830.539026
_symmetry_space_group_name_H-M "F M M M"
_symmetry_group_IT_number 69
_symmetry_cell_setting 'orthorhombic'
loop_
_space_group_symop_operation_xyz
x,y,z
-x,-y,z
x,-y,-z
-x,y,-z
-x,-y,-z
x,y,-z
-x,y,z
x,-y,z
x,1/2+y,1/2+z
-x,1/2-y,1/2+z
x,1/2-y,1/2-z
-x,1/2+y,1/2-z
-x,1/2-y,1/2-z
x,1/2+y,1/2-z
-x,1/2+y,1/2+z
x,1/2-y,1/2+z
1/2+x,y,1/2+z
1/2-x,-y,1/2+z
1/2+x,-y,1/2-z
1/2-x,y,1/2-z
1/2-x,-y,1/2-z
1/2+x,y,1/2-z
1/2-x,y,1/2+z
1/2+x,-y,1/2+z
1/2+x,1/2+y,z
1/2-x,1/2-y,z
1/2+x,1/2-y,-z
1/2-x,1/2+y,-z
1/2-x,1/2-y,-z
1/2+x,1/2+y,-z
1/2-x,1/2+y,z
1/2+x,1/2-y,z
loop_
_atom_site_type_symbol
_atom_site_label
_atom_site_fract_x
_atom_site_fract_y
_atom_site_fract_z
Si Si1 0.816259 0.085641 0.099916
Si Si2 0.051330 0.415245 0.761605
Si Si3 0.500000 0.585499 0.904411
Si Si4 0.208504 0.084168 0.603292
Si Si5 0.358038 0.163931 0.764373
O O1 0.762384 0.100402 0.122804
O O2 0.848533 0.127283 0.169365
O O3 0.827508 0.000000 0.107160
O O4 0.827272 0.113865 0.000000
O O5 0.066116 0.500000 0.777067
O O6 0.045850 0.397071 0.655396
O O7 0.091178 0.362099 0.800155
O O8 0.000000 0.401284 0.806890
O O9 0.500000 0.500000 0.924376
O O10 0.500000 0.627995 0.000000
O O11 0.196757 0.097497 0.500000
O O12 0.179476 0.140829 0.662211
O O13 0.196428 0.000000 0.629961
O O14 0.356905 0.250000 0.750000
#
# Coordination Sequence:
#
# PCOD8285670 Si02
#       5
#    32  32  16  32  32
#     4   9  19  36  57  80 104 135 181 232 271 306
#     4   8  17  33  52  73  97 131 176 220 259 302
#     4   7  12  26  49  74  95 119 159 211 262 303
#     4   9  19  37  58  76 100 140 189 232 260 295
#     4  12  23  32  50  81 114 148 171 207 267 334
#
# _framework density 18.389538999999999
#
# number of rings (size 3 to 8) (size 9 to 14) (size 15 to 20)
#    0.667    2.111    0.000    4.000    0.000    5.778 
#    0.000    4.444    0.000    0.667    0.000    3.111 
#    0.000    0.000    0.000    0.000    0.000    0.000 
#
# Total GULP energy -446030.098530 kJ/mol
# GULP energy per Si atom -12389.724959 kJ/mol
# Density = 1.834768 g / cm^3
# Si number density = 18.389539 Si / 1000 Ang^3
#
#
#
# Elastic Constant Matrix: (Units=GPa)
#
#
# Indices 1 2 3 4 5 6 
#
# 1 82.8398 48.5088 23.7041 0.0000 0.0000 0.0000
# 2 48.5088 88.7468 20.5955 0.0000 0.0000 0.0000
# 3 23.7041 20.5955 44.3135 0.0000 0.0000 0.0000
# 4 0.0000 0.0000 0.0000 7.7726 0.0000 0.0000
# 5 0.0000 0.0000 0.0000 0.0000 30.3389 0.0000
# 6 0.0000 0.0000 0.0000 0.0000 0.0000 9.5536
#
#
#
# Elastic Compliance Matrix: (Units=1/GPa)
#
#
# Indices 1 2 3 4 5 6 
#
# 1 0.019082 -0.009036 -0.006008 0.000000 0.000000 0.000000
# 2 -0.009036 0.016909 -0.003025 0.000000 0.000000 0.000000
# 3 -0.006008 -0.003025 0.027186 0.000000 0.000000 0.000000
# 4 0.000000 0.000000 0.000000 0.128658 0.000000 0.000000
# 5 0.000000 0.000000 0.000000 0.000000 0.032961 0.000000
# 6 0.000000 0.000000 0.000000 0.000000 0.000000 0.104672
#
#
# Mechanical properties :
#
#
# Convention : Reuss Voigt Hill
#
# Bulk Modulus (GPa) = 36.98315 44.61300 40.79808
# Shear Modulus (GPa) = 13.34692 17.73913 15.54302
#
# Velocity S-wave (km/s) = 2.69697 3.10922 2.91040
# Velocity P-wave (km/s) = 5.46377 6.09937 5.79030
#
# Compressibility (1/GPa) = 0.02703934
#
# Stress axis : x y z
#
# Youngs Moduli (GPa) = 52.40633 59.13984 36.78350
#
# Poissons Ratio (x) = 0.53438 0.22098
# Poissons Ratio (y) = 0.47353 0.11128
# Poissons Ratio (z) = 0.31483 0.17892
#
# Static dielectric constant tensor:
#      x y z
#    x 3.333270 0.000000 0.000000 
#    y 0.000000 3.067190 0.000000 
#    z 0.000000 0.000000 3.436270 
# 
# 
# High freq. dielectric constant tensor:
#      x y z
#    x 1.713230 0.000000 0.000000 
#    y 0.000000 1.682600 0.000000 
#    z 0.000000 0.000000 1.698780 
# 
# From -- ./inp_files/19457.got.cif
#   From: 2010.03.12/outbox.cif.g09.slc.cpg/sg69_10_cif.got.tgz:19457.got - 2010.04.10 23:52:46.
