data_PCOD8285687
_publ_section_title
;
Structure prediction by ZEFSAII (Michael W. Deem and Ramdas Pophale) SiO2 
 PCOD8285687
Probable space group: F M M M
;
_chemical_formula_sum "Si O2"
_cell_formula_units_Z 192
_cell_length_a 19.869595
_cell_length_b 30.274392
_cell_length_c 20.035206
_cell_angle_alpha 90.000000
_cell_angle_beta 90.000000
_cell_angle_gamma 90.000000
_cell_volume 12051.975972
_symmetry_space_group_name_H-M "F M M M"
_symmetry_group_IT_number 69
_symmetry_cell_setting 'orthorhombic'
loop_
_space_group_symop_operation_xyz
x,y,z
-x,-y,z
x,-y,-z
-x,y,-z
-x,-y,-z
x,y,-z
-x,y,z
x,-y,z
x,1/2+y,1/2+z
-x,1/2-y,1/2+z
x,1/2-y,1/2-z
-x,1/2+y,1/2-z
-x,1/2-y,1/2-z
x,1/2+y,1/2-z
-x,1/2+y,1/2+z
x,1/2-y,1/2+z
1/2+x,y,1/2+z
1/2-x,-y,1/2+z
1/2+x,-y,1/2-z
1/2-x,y,1/2-z
1/2-x,-y,1/2-z
1/2+x,y,1/2-z
1/2-x,y,1/2+z
1/2+x,-y,1/2+z
1/2+x,1/2+y,z
1/2-x,1/2-y,z
1/2+x,1/2-y,-z
1/2-x,1/2+y,-z
1/2-x,1/2-y,-z
1/2+x,1/2+y,-z
1/2-x,1/2+y,z
1/2+x,1/2-y,z
loop_
_atom_site_type_symbol
_atom_site_label
_atom_site_fract_x
_atom_site_fract_y
_atom_site_fract_z
Si Si1 0.080364 0.274280 0.816223
Si Si2 0.817760 0.048816 0.838196
Si Si3 0.079811 0.707444 0.425589
Si Si4 0.831538 0.450395 0.819898
Si Si5 0.923947 0.872314 0.696162
Si Si6 0.576265 0.881715 0.354194
O O1 0.108773 0.250000 0.750000
O O2 0.106984 0.247859 0.880857
O O3 0.107041 0.324535 0.823260
O O4 0.000000 0.275155 0.811637
O O5 0.826974 0.049881 0.759318
O O6 0.740239 0.061662 0.853448
O O7 0.870935 0.080442 0.875093
O O8 0.832630 0.000000 0.865786
O O9 0.110482 0.711118 0.500000
O O10 0.101769 0.661701 0.391982
O O11 0.000000 0.709657 0.428114
O O12 0.854586 0.500000 0.842731
O O13 0.883707 0.411957 0.840426
O O14 0.921147 0.874133 0.775672
O O15 0.000000 0.877026 0.670345
O O16 0.500000 0.894785 0.375720
#
# Coordination Sequence:
#
# PCOD8285687 Si02
#       6
#    32  32  32  32  32  32
#     4   9  14  23  38  57  82 108 136 170 206 245
#     4   8  14  24  37  53  76 107 136 165 206 249
#     4   9  16  25  38  58  84 112 140 170 205 246
#     4   8  14  24  36  54  81 108 132 162 207 254
#     4   9  15  22  37  60  82 107 138 170 205 244
#     4   9  15  23  37  58  80 105 139 174 205 238
#
# _framework density 15.930998000000001
#
# number of rings (size 3 to 8) (size 9 to 14) (size 15 to 20)
#    0.000    3.333    1.667    1.000    0.000    0.667 
#    0.000    3.333    0.000    1.500    0.000    4.667 
#    0.000    2.000    0.000    6.500    0.000    0.167 
#
# Total GULP energy -594748.444065 kJ/mol
# GULP energy per Si atom -12390.592585 kJ/mol
# Density = 1.589474 g / cm^3
# Si number density = 15.930998 Si / 1000 Ang^3
#
#
#
# Elastic Constant Matrix: (Units=GPa)
#
#
# Indices 1 2 3 4 5 6 
#
# 1 61.5751 70.5769 15.9238 0.0000 0.0000 0.0000
# 2 70.5769 164.6388 33.4019 0.0000 0.0000 0.0000
# 3 15.9238 33.4019 34.7695 0.0000 0.0000 0.0000
# 4 0.0000 0.0000 0.0000 10.3104 0.0000 0.0000
# 5 0.0000 0.0000 0.0000 0.0000 5.1721 0.0000
# 6 0.0000 0.0000 0.0000 0.0000 0.0000 9.2365
#
#
#
# Elastic Compliance Matrix: (Units=1/GPa)
#
#
# Indices 1 2 3 4 5 6 
#
# 1 0.032022 -0.013355 -0.001836 0.000000 0.000000 0.000000
# 2 -0.013355 0.013114 -0.006482 0.000000 0.000000 0.000000
# 3 -0.001836 -0.006482 0.035829 0.000000 0.000000 0.000000
# 4 0.000000 0.000000 0.000000 0.096990 0.000000 0.000000
# 5 0.000000 0.000000 0.000000 0.000000 0.193346 0.000000
# 6 0.000000 0.000000 0.000000 0.000000 0.000000 0.108266
#
#
# Mechanical properties :
#
#
# Convention : Reuss Voigt Hill
#
# Bulk Modulus (GPa) = 26.58212 55.64318 41.11265
# Shear Modulus (GPa) = 9.33792 14.34917 11.84355
#
# Velocity S-wave (km/s) = 2.42368 3.00444 2.72955
# Velocity P-wave (km/s) = 4.95523 6.85849 5.98303
#
# Compressibility (1/GPa) = 0.03761928
#
# Stress axis : x y z
#
# Youngs Moduli (GPa) = 31.22839 76.25587 27.91061
#
# Poissons Ratio (x) = 1.01837 0.05125
# Poissons Ratio (y) = 0.41704 0.18091
# Poissons Ratio (z) = 0.05734 0.49427
#
# Static dielectric constant tensor:
#      x y z
#    x 2.918060 0.000000 0.000000 
#    y 0.000000 3.376840 0.000000 
#    z 0.000000 0.000000 2.702300 
# 
# 
# High freq. dielectric constant tensor:
#      x y z
#    x 1.575570 0.000000 0.000000 
#    y 0.000000 1.627000 0.000000 
#    z 0.000000 0.000000 1.558170 
# 
# From -- ./inp_files/32123.got.cif
#   From: 2010.03.12/outbox.cif.g09.slc.cpg/sg69_17_cif.got.tgz:32123.got - 2010.04.10 23:52:46.
