data_PCOD8285908
_publ_section_title
;
Structure prediction by ZEFSAII (Michael W. Deem and Ramdas Pophale) SiO2 
 PCOD8285908
Probable space group: F D D D
;
_chemical_formula_sum "Si O2"
_cell_formula_units_Z 168
_cell_length_a 21.876899
_cell_length_b 11.996378
_cell_length_c 31.503478
_cell_angle_alpha 90.000000
_cell_angle_beta 90.000000
_cell_angle_gamma 90.000000
_cell_volume 8267.884600
_symmetry_space_group_name_H-M "F D D D"
_symmetry_group_IT_number 70
_space_group.IT_coordinate_system_code '2'
_symmetry_cell_setting 'orthorhombic'
loop_
_space_group_symop_operation_xyz
x,y,z
1/4-x,1/4-y,z
x,1/4-y,1/4-z
1/4-x,y,1/4-z
-x,-y,-z
3/4+x,3/4+y,-z
-x,3/4+y,3/4+z
3/4+x,-y,3/4+z
x,1/2+y,1/2+z
1/4-x,3/4-y,1/2+z
x,3/4-y,3/4-z
1/4-x,1/2+y,3/4-z
-x,1/2-y,1/2-z
3/4+x,1/4+y,1/2-z
-x,1/4+y,1/4+z
3/4+x,1/2-y,1/4+z
1/2+x,y,1/2+z
3/4-x,1/4-y,1/2+z
1/2+x,1/4-y,3/4-z
3/4-x,y,3/4-z
1/2-x,-y,1/2-z
1/4+x,3/4+y,1/2-z
1/2-x,3/4+y,1/4+z
1/4+x,-y,1/4+z
1/2+x,1/2+y,z
3/4-x,3/4-y,z
1/2+x,3/4-y,1/4-z
3/4-x,1/2+y,1/4-z
1/2-x,1/2-y,-z
1/4+x,1/4+y,-z
1/2-x,1/4+y,3/4+z
1/4+x,1/2-y,3/4+z
loop_
_atom_site_type_symbol
_atom_site_label
_atom_site_fract_x
_atom_site_fract_y
_atom_site_fract_z
Si Si1 0.942609 0.887331 0.016286
Si Si2 0.723877 0.625000 0.125000
Si Si3 0.758259 0.477771 0.049468
Si Si4 0.305783 0.048766 0.309782
Si Si5 0.125000 0.625000 0.988573
Si Si6 0.335209 0.714794 0.941442
Si Si7 0.625000 0.125000 0.125000
O O1 0.875000 0.875000 0.035453
O O2 0.985383 0.909242 0.057355
O O3 0.971201 0.785241 0.989191
O O4 0.933410 0.993353 0.985834
O O5 0.763832 0.559606 0.090004
O O6 0.682546 0.713842 0.098928
O O7 0.827570 0.446422 0.038988
O O8 0.722119 0.366212 0.061167
O O9 0.351057 0.150847 0.314975
O O10 0.085828 0.536252 0.015518
O O11 0.329066 0.800961 0.902954
#
# Coordination Sequence:
#
# PCOD8285908 Si02
#       7
#    32  16  32  32  16  32   8
#     4  10  19  36  63  92 113 147 198 251 302 348
#     4  10  24  37  61  92 121 158 189 252 316 346
#     4  11  22  40  62  88 120 160 202 251 300 364
#     4  10  20  36  60  89 120 147 193 249 299 361
#     4  11  24  41  60  86 122 166 206 240 296 365
#     4  11  21  39  63  88 120 159 202 253 300 356
#     4  10  24  36  58  90 122 156 204 252 298 358
#
# _framework density 20.319586999999999
#
# number of rings (size 3 to 8) (size 9 to 14) (size 15 to 20)
#    0.000    1.524    3.810    1.714    0.000    0.762 
#    1.714    0.952    0.000    0.000    0.000    0.000 
#    0.000    0.000    0.000    0.000    0.000    0.000 
#
# Total GULP energy -520672.481974 kJ/mol
# GULP energy per Si atom -12396.963857 kJ/mol
# Density = 2.027334 g / cm^3
# Si number density = 20.319587 Si / 1000 Ang^3
#
#
#
# Elastic Constant Matrix: (Units=GPa)
#
#
# Indices 1 2 3 4 5 6 
#
# 1 100.2334 25.1535 18.6077 0.0000 0.0000 0.0000
# 2 25.1535 104.6312 34.5047 0.0000 0.0000 0.0000
# 3 18.6077 34.5047 75.3516 0.0000 0.0000 0.0000
# 4 0.0000 0.0000 0.0000 19.9704 0.0000 0.0000
# 5 0.0000 0.0000 0.0000 0.0000 13.7412 0.0000
# 6 0.0000 0.0000 0.0000 0.0000 0.0000 32.2060
#
#
#
# Elastic Compliance Matrix: (Units=1/GPa)
#
#
# Indices 1 2 3 4 5 6 
#
# 1 0.010808 -0.002024 -0.001742 0.000000 0.000000 0.000000
# 2 -0.002024 0.011636 -0.004829 0.000000 0.000000 0.000000
# 3 -0.001742 -0.004829 0.015912 0.000000 0.000000 0.000000
# 4 0.000000 0.000000 0.000000 0.050074 0.000000 0.000000
# 5 0.000000 0.000000 0.000000 0.000000 0.072774 0.000000
# 6 0.000000 0.000000 0.000000 0.000000 0.000000 0.031050
#
#
# Mechanical properties :
#
#
# Convention : Reuss Voigt Hill
#
# Bulk Modulus (GPa) = 47.24244 48.52754 47.88499
# Shear Modulus (GPa) = 23.09472 26.64690 24.87081
#
# Velocity S-wave (km/s) = 3.37497 3.62524 3.50234
# Velocity P-wave (km/s) = 6.20382 6.43872 6.32236
#
# Compressibility (1/GPa) = 0.02116741
#
# Stress axis : x y z
#
# Youngs Moduli (GPa) = 92.52399 85.93834 62.84370
#
# Poissons Ratio (x) = 0.17391 0.10949
# Poissons Ratio (y) = 0.18724 0.30345
# Poissons Ratio (z) = 0.16120 0.41497
#
# Static dielectric constant tensor:
#      x y z
#    x 3.638130 0.000000 0.000000 
#    y 0.000000 3.995740 0.000000 
#    z 0.000000 0.000000 3.654620 
# 
# 
# High freq. dielectric constant tensor:
#      x y z
#    x 1.773350 0.000000 0.000000 
#    y 0.000000 1.812940 0.000000 
#    z 0.000000 0.000000 1.779700 
# 
# From -- ./inp_files/67832.got.cif
#   From: 2010.03.12/outbox.cif.g09.slc.cpg/sg70_34_cif.got.tgz:67832.got - 2010.04.16 13:46:32.
