data_PCOD8285387
_publ_section_title
;
Structure prediction by ZEFSAII (Michael W. Deem and Ramdas Pophale) SiO2 
 PCOD8285387
Probable space group: F M M M
;
_chemical_formula_sum "Si O2"
_cell_formula_units_Z 112
_cell_length_a 13.936960
_cell_length_b 25.095773
_cell_length_c 12.924871
_cell_angle_alpha 90.000000
_cell_angle_beta 90.000000
_cell_angle_gamma 90.000000
_cell_volume 4520.587170
_symmetry_space_group_name_H-M "F M M M"
_symmetry_group_IT_number 69
_symmetry_cell_setting 'orthorhombic'
loop_
_space_group_symop_operation_xyz
x,y,z
-x,-y,z
x,-y,-z
-x,y,-z
-x,-y,-z
x,y,-z
-x,y,z
x,-y,z
x,1/2+y,1/2+z
-x,1/2-y,1/2+z
x,1/2-y,1/2-z
-x,1/2+y,1/2-z
-x,1/2-y,1/2-z
x,1/2+y,1/2-z
-x,1/2+y,1/2+z
x,1/2-y,1/2+z
1/2+x,y,1/2+z
1/2-x,-y,1/2+z
1/2+x,-y,1/2-z
1/2-x,y,1/2-z
1/2-x,-y,1/2-z
1/2+x,y,1/2-z
1/2-x,y,1/2+z
1/2+x,-y,1/2+z
1/2+x,1/2+y,z
1/2-x,1/2-y,z
1/2+x,1/2-y,-z
1/2-x,1/2+y,-z
1/2-x,1/2-y,-z
1/2+x,1/2+y,-z
1/2-x,1/2+y,z
1/2+x,1/2-y,z
loop_
_atom_site_type_symbol
_atom_site_label
_atom_site_fract_x
_atom_site_fract_y
_atom_site_fract_z
Si Si1 0.886335 0.398619 0.000000
Si Si2 0.884756 0.000000 0.118374
Si Si3 0.109692 0.083444 0.720242
Si Si4 0.889419 0.304313 0.698571
Si Si5 0.770214 0.688642 0.500000
O O1 0.859097 0.432904 0.896894
O O2 0.828712 0.343259 0.000000
O O3 0.000000 0.383947 0.000000
O O4 0.842038 0.949266 0.184623
O O5 0.000000 0.000000 0.110505
O O6 0.843822 0.000000 0.000000
O O7 0.126239 0.147092 0.722259
O O8 0.000000 0.068503 0.735025
O O9 0.848068 0.250000 0.750000
O O10 0.833339 0.324574 0.599347
O O11 0.000000 0.295517 0.668415
O O12 0.750000 0.750000 0.500000
#
# Coordination Sequence:
#
# PCOD8285387 Si02
#       5
#    16  16  32  32  16
#     4  10  22  40  60  87 127 174 222 265 320 381
#     4   9  18  33  61  98 128 162 217 273 325 393
#     4   9  19  36  61  91 126 167 210 266 325 385
#     4  10  22  40  63  94 129 164 209 265 331 398
#     4  12  25  37  61  92 124 171 218 272 317 383
#
# _framework density 24.775542000000002
#
# number of rings (size 3 to 8) (size 9 to 14) (size 15 to 20)
#    0.000    2.143    0.000    2.143    2.000    8.000 
#    0.000    2.857    0.000    6.000    0.000    0.000 
#    0.000    0.000    0.000    0.000    0.000    0.000 
#
# Total GULP energy -346891.462969 kJ/mol
# GULP energy per Si atom -12388.980820 kJ/mol
# Density = 2.471915 g / cm^3
# Si number density = 24.775542 Si / 1000 Ang^3
#
#
#
# Elastic Constant Matrix: (Units=GPa)
#
#
# Indices 1 2 3 4 5 6 
#
# 1 62.0448 0.4671 41.5841 0.0000 0.0000 0.0000
# 2 0.4671 132.9569 70.2669 0.0000 0.0000 0.0000
# 3 41.5841 70.2669 245.4133 0.0000 0.0000 0.0000
# 4 0.0000 0.0000 0.0000 18.3310 0.0000 0.0000
# 5 0.0000 0.0000 0.0000 0.0000 -89.8382 0.0000
# 6 0.0000 0.0000 0.0000 0.0000 0.0000 3.1184
#
#
#
# Elastic Compliance Matrix: (Units=1/GPa)
#
#
# Indices 1 2 3 4 5 6 
#
# 1 0.018574 0.001883 -0.003686 0.000000 0.000000 0.000000
# 2 0.001883 0.009053 -0.002911 0.000000 0.000000 0.000000
# 3 -0.003686 -0.002911 0.005533 0.000000 0.000000 0.000000
# 4 0.000000 0.000000 0.000000 0.054552 0.000000 0.000000
# 5 0.000000 0.000000 0.000000 0.000000 -0.011131 0.000000
# 6 0.000000 0.000000 0.000000 0.000000 0.000000 0.320676
#
#
# Mechanical properties :
#
#
# Convention : Reuss Voigt Hill
#
# Bulk Modulus (GPa) = 42.13925 73.89457 58.01691
# Shear Modulus (GPa) = 12.05991 8.19538 10.12765
#
# Velocity S-wave (km/s) = 2.20867 1.82072 2.02401
# Velocity P-wave (km/s) = 4.85280 5.85751 5.37866
#
# Compressibility (1/GPa) = 0.02373084
#
# Stress axis : x y z
#
# Youngs Moduli (GPa) = 53.83892 110.45881 180.73620
#
# Poissons Ratio (x) = -0.20799 0.66627
# Poissons Ratio (y) = -0.10138 0.52615
# Poissons Ratio (z) = 0.19847 0.32156
#
# Static dielectric constant tensor:
#      x y z
#    x 4.437400 0.000000 0.000000 
#    y 0.000000 4.116920 0.000000 
#    z 0.000000 0.000000 4.417400 
# 
# 
# High freq. dielectric constant tensor:
#      x y z
#    x 1.974980 0.000000 0.000000 
#    y 0.000000 1.971210 0.000000 
#    z 0.000000 0.000000 2.007660 
# 
# From -- ./inp_files/7385.got.cif
#   From: 2010.03.12/outbox.cif.g09.slc.cpg/sg69_4_cif.got.tgz:7385.got - 2010.04.10 23:52:46.
