data_PCOD8285105
_publ_section_title
;
Structure prediction by ZEFSAII (Michael W. Deem and Ramdas Pophale) SiO2 
 PCOD8285105
Probable space group: F M M M
;
_chemical_formula_sum "Si O2"
_cell_formula_units_Z 160
_cell_length_a 16.864690
_cell_length_b 25.029837
_cell_length_c 20.251515
_cell_angle_alpha 90.000000
_cell_angle_beta 90.000000
_cell_angle_gamma 90.000000
_cell_volume 8548.578458
_symmetry_space_group_name_H-M "F M M M"
_symmetry_group_IT_number 69
_symmetry_cell_setting 'orthorhombic'
loop_
_space_group_symop_operation_xyz
x,y,z
-x,-y,z
x,-y,-z
-x,y,-z
-x,-y,-z
x,y,-z
-x,y,z
x,-y,z
x,1/2+y,1/2+z
-x,1/2-y,1/2+z
x,1/2-y,1/2-z
-x,1/2+y,1/2-z
-x,1/2-y,1/2-z
x,1/2+y,1/2-z
-x,1/2+y,1/2+z
x,1/2-y,1/2+z
1/2+x,y,1/2+z
1/2-x,-y,1/2+z
1/2+x,-y,1/2-z
1/2-x,y,1/2-z
1/2-x,-y,1/2-z
1/2+x,y,1/2-z
1/2-x,y,1/2+z
1/2+x,-y,1/2+z
1/2+x,1/2+y,z
1/2-x,1/2-y,z
1/2+x,1/2-y,-z
1/2-x,1/2+y,-z
1/2-x,1/2-y,-z
1/2+x,1/2+y,-z
1/2-x,1/2+y,z
1/2+x,1/2-y,z
loop_
_atom_site_type_symbol
_atom_site_label
_atom_site_fract_x
_atom_site_fract_y
_atom_site_fract_z
Si Si1 0.906904 0.214747 0.188404
Si Si2 0.844350 0.500000 0.740137
Si Si3 0.688784 0.898052 0.924734
Si Si4 0.189829 0.107116 0.189858
Si Si5 0.907263 0.500000 0.114912
Si Si6 0.408535 0.205905 0.924703
O O1 0.876408 0.250000 0.250000
O O2 0.866076 0.157816 0.186250
O O3 0.883113 0.244889 0.121158
O O4 0.000000 0.204800 0.194343
O O5 0.750000 0.500000 0.750000
O O6 0.865094 0.445540 0.700927
O O7 0.893144 0.500000 0.807231
O O8 0.764940 0.902709 0.878543
O O9 0.631088 0.948177 0.917762
O O10 0.640898 0.845548 0.903378
O O11 0.718455 0.894105 0.000000
O O12 0.250000 0.115279 0.250000
O O13 0.000000 0.500000 0.098912
O O14 0.500000 0.191031 0.913362
O O15 0.391780 0.222970 0.000000
#
# Coordination Sequence:
#
# PCOD8285105 Si02
#       6
#    32  16  32  32  16  32
#     4  10  22  37  57  84 112 147 198 248 290 337
#     4  10  20  40  58  79 115 155 186 229 289 346
#     4  11  22  36  57  88 120 155 194 237 291 350
#     4  11  21  39  60  79 116 156 189 237 293 347
#     4  12  23  37  62  90 118 156 197 238 293 360
#     4   9  19  36  54  77 116 153 182 231 291 343
#
# _framework density 18.716562
#
# number of rings (size 3 to 8) (size 9 to 14) (size 15 to 20)
#    0.000    1.600    4.000    2.100    0.000    6.000 
#    0.000    2.000    0.000    0.000    0.000    0.000 
#    0.000    7.200    0.000    0.000    0.000    0.000 
#
# Total GULP energy -496073.547641 kJ/mol
# GULP energy per Si atom -12401.838691 kJ/mol
# Density = 1.867396 g / cm^3
# Si number density = 18.716562 Si / 1000 Ang^3
#
#
#
# Elastic Constant Matrix: (Units=GPa)
#
#
# Indices 1 2 3 4 5 6 
#
# 1 38.3266 36.3326 26.8878 0.0000 0.0000 0.0000
# 2 36.3326 155.0803 49.1578 0.0000 0.0000 0.0000
# 3 26.8878 49.1578 106.7182 0.0000 0.0000 0.0000
# 4 0.0000 0.0000 0.0000 32.6569 0.0000 0.0000
# 5 0.0000 0.0000 0.0000 0.0000 15.1741 0.0000
# 6 0.0000 0.0000 0.0000 0.0000 0.0000 2.8535
#
#
#
# Elastic Compliance Matrix: (Units=1/GPa)
#
#
# Indices 1 2 3 4 5 6 
#
# 1 0.036735 -0.006642 -0.006196 0.000000 0.000000 0.000000
# 2 -0.006642 0.008752 -0.002358 0.000000 0.000000 0.000000
# 3 -0.006196 -0.002358 0.012018 0.000000 0.000000 0.000000
# 4 0.000000 0.000000 0.000000 0.030621 0.000000 0.000000
# 5 0.000000 0.000000 0.000000 0.000000 0.065902 0.000000
# 6 0.000000 0.000000 0.000000 0.000000 0.000000 0.350445
#
#
# Mechanical properties :
#
#
# Convention : Reuss Voigt Hill
#
# Bulk Modulus (GPa) = 36.88340 58.32016 47.60178
# Shear Modulus (GPa) = 9.19283 22.65337 15.92310
#
# Velocity S-wave (km/s) = 2.21862 3.48277 2.91992
# Velocity P-wave (km/s) = 5.12953 6.88478 6.07093
#
# Compressibility (1/GPa) = 0.02711247
#
# Stress axis : x y z
#
# Youngs Moduli (GPa) = 27.22209 114.26141 83.21144
#
# Poissons Ratio (x) = 0.75897 0.51555
# Poissons Ratio (y) = 0.18082 0.19620
# Poissons Ratio (z) = 0.16866 0.26941
#
# Static dielectric constant tensor:
#      x y z
#    x 3.196080 0.000000 0.000000 
#    y 0.000000 3.856420 0.000000 
#    z 0.000000 0.000000 3.650070 
# 
# 
# High freq. dielectric constant tensor:
#      x y z
#    x 1.702270 0.000000 0.000000 
#    y 0.000000 1.744630 0.000000 
#    z 0.000000 0.000000 1.735500 
# 
# From -- ./inp_files/24941.got.cif
#   From: 2010.03.12/outbox.cif.g09.slc.cpg/sg69_13_cif.got.tgz:24941.got - 2010.04.10 23:52:46.
