data_PCOD8285104
_publ_section_title
;
Structure prediction by ZEFSAII (Michael W. Deem and Ramdas Pophale) SiO2 
 PCOD8285104
Probable space group: F M M M
;
_chemical_formula_sum "Si O2"
_cell_formula_units_Z 224
_cell_length_a 29.156390
_cell_length_b 22.601318
_cell_length_c 17.643428
_cell_angle_alpha 90.000000
_cell_angle_beta 90.000000
_cell_angle_gamma 90.000000
_cell_volume 11626.539894
_symmetry_space_group_name_H-M "F M M M"
_symmetry_group_IT_number 69
_symmetry_cell_setting 'orthorhombic'
loop_
_space_group_symop_operation_xyz
x,y,z
-x,-y,z
x,-y,-z
-x,y,-z
-x,-y,-z
x,y,-z
-x,y,z
x,-y,z
x,1/2+y,1/2+z
-x,1/2-y,1/2+z
x,1/2-y,1/2-z
-x,1/2+y,1/2-z
-x,1/2-y,1/2-z
x,1/2+y,1/2-z
-x,1/2+y,1/2+z
x,1/2-y,1/2+z
1/2+x,y,1/2+z
1/2-x,-y,1/2+z
1/2+x,-y,1/2-z
1/2-x,y,1/2-z
1/2-x,-y,1/2-z
1/2+x,y,1/2-z
1/2-x,y,1/2+z
1/2+x,-y,1/2+z
1/2+x,1/2+y,z
1/2-x,1/2-y,z
1/2+x,1/2-y,-z
1/2-x,1/2+y,-z
1/2-x,1/2-y,-z
1/2+x,1/2+y,-z
1/2-x,1/2+y,z
1/2+x,1/2-y,z
loop_
_atom_site_type_symbol
_atom_site_label
_atom_site_fract_x
_atom_site_fract_y
_atom_site_fract_z
Si Si1 0.297097 0.220785 0.085524
Si Si2 0.377699 0.397008 0.819143
Si Si3 0.889852 0.715673 0.586209
Si Si4 0.796658 0.879799 0.703984
Si Si5 0.552757 0.933669 0.196997
Si Si6 0.332533 0.000000 0.589007
Si Si7 0.553585 0.171100 0.912952
Si Si8 0.235088 0.000000 0.663846
O O1 0.250000 0.250000 0.111707
O O2 0.335988 0.270473 0.090504
O O3 0.308575 0.168813 0.142395
O O4 0.293454 0.195504 0.000000
O O5 0.399418 0.340533 0.861233
O O6 0.337601 0.378341 0.762977
O O7 0.418668 0.427626 0.773826
O O8 0.357049 0.441743 0.880171
O O9 0.904706 0.701146 0.500000
O O10 0.919113 0.771486 0.616843
O O11 0.750000 0.867473 0.750000
O O12 0.795008 0.940702 0.654910
O O13 0.500000 0.922510 0.218204
O O14 0.569308 0.886292 0.134464
O O15 0.559759 0.000000 0.164018
O O16 0.278737 0.000000 0.609080
O O17 0.337750 0.000000 0.500000
O O18 0.500000 0.184115 0.903190
O O19 0.566624 0.158046 0.000000
O O20 0.250000 0.000000 0.750000
#
# Coordination Sequence:
#
# PCOD8285104 Si02
#       8
#    32  32  32  32  32  16  32  16
#     4  10  22  37  53  78 116 153 188 233 285 348
#     4  12  22  39  62  87 119 158 196 251 298 356
#     4  10  22  39  57  84 118 151 197 247 292 349
#     4  11  21  36  58  82 115 149 192 240 294 348
#     4  10  22  38  60  90 123 160 198 246 304 356
#     4  12  24  40  65  89 114 159 210 245 295 361
#     4   9  19  38  62  88 119 156 200 248 298 355
#     4  10  20  40  56  84 116 145 186 255 287 334
#
# _framework density 19.266265000000001
#
# number of rings (size 3 to 8) (size 9 to 14) (size 15 to 20)
#    0.000    1.571    3.571    2.143    0.000    5.143 
#    0.000    2.857    0.000    1.714    0.000    0.000 
#    0.000    0.000    0.000    0.000    0.000    0.000 
#
# Total GULP energy -694497.643145 kJ/mol
# GULP energy per Si atom -12401.743628 kJ/mol
# Density = 1.922241 g / cm^3
# Si number density = 19.266265 Si / 1000 Ang^3
#
#
#
# Elastic Constant Matrix: (Units=GPa)
#
#
# Indices 1 2 3 4 5 6 
#
# 1 59.1516 29.8250 30.7487 0.0000 0.0000 0.0000
# 2 29.8250 131.5017 66.0567 0.0000 0.0000 0.0000
# 3 30.7487 66.0567 104.2442 0.0000 0.0000 0.0000
# 4 0.0000 0.0000 0.0000 26.5894 0.0000 0.0000
# 5 0.0000 0.0000 0.0000 0.0000 21.4545 0.0000
# 6 0.0000 0.0000 0.0000 0.0000 0.0000 32.0027
#
#
#
# Elastic Compliance Matrix: (Units=1/GPa)
#
#
# Indices 1 2 3 4 5 6 
#
# 1 0.020455 -0.002359 -0.004538 0.000000 0.000000 0.000000
# 2 -0.002359 0.011427 -0.006545 0.000000 0.000000 0.000000
# 3 -0.004538 -0.006545 0.015079 0.000000 0.000000 0.000000
# 4 0.000000 0.000000 0.000000 0.037609 0.000000 0.000000
# 5 0.000000 0.000000 0.000000 0.000000 0.046610 0.000000
# 6 0.000000 0.000000 0.000000 0.000000 0.000000 0.031247
#
#
# Mechanical properties :
#
#
# Convention : Reuss Voigt Hill
#
# Bulk Modulus (GPa) = 49.81330 60.90647 55.35989
# Shear Modulus (GPa) = 25.50949 27.22712 26.36831
#
# Velocity S-wave (km/s) = 3.64270 3.76334 3.70351
# Velocity P-wave (km/s) = 6.60331 7.11092 6.86181
#
# Compressibility (1/GPa) = 0.02007496
#
# Stress axis : x y z
#
# Youngs Moduli (GPa) = 48.88892 87.50841 66.31689
#
# Poissons Ratio (x) = 0.20647 0.30097
# Poissons Ratio (y) = 0.11535 0.43407
# Poissons Ratio (z) = 0.22187 0.57277
#
# Static dielectric constant tensor:
#      x y z
#    x 3.598430 0.000000 0.000000 
#    y 0.000000 5.777480 0.000000 
#    z 0.000000 0.000000 3.478050 
# 
# 
# High freq. dielectric constant tensor:
#      x y z
#    x 1.750550 0.000000 0.000000 
#    y 0.000000 1.757540 0.000000 
#    z 0.000000 0.000000 1.742960 
# 
# From -- ./inp_files/27996.got.cif
#   From: 2010.03.12/outbox.cif.g09.slc.cpg/sg69_14_cif.got.tgz:27996.got - 2010.04.10 23:52:46.
