data_PCOD8285484
_publ_section_title
;
Structure prediction by ZEFSAII (Michael W. Deem and Ramdas Pophale) SiO2 
 PCOD8285484
Probable space group: F M M M
;
_chemical_formula_sum "Si O2"
_cell_formula_units_Z 176
_cell_length_a 35.683226
_cell_length_b 11.074605
_cell_length_c 25.940032
_cell_angle_alpha 90.000000
_cell_angle_beta 90.000000
_cell_angle_gamma 90.000000
_cell_volume 10250.920448
_symmetry_space_group_name_H-M "F M M M"
_symmetry_group_IT_number 69
_symmetry_cell_setting 'orthorhombic'
loop_
_space_group_symop_operation_xyz
x,y,z
-x,-y,z
x,-y,-z
-x,y,-z
-x,-y,-z
x,y,-z
-x,y,z
x,-y,z
x,1/2+y,1/2+z
-x,1/2-y,1/2+z
x,1/2-y,1/2-z
-x,1/2+y,1/2-z
-x,1/2-y,1/2-z
x,1/2+y,1/2-z
-x,1/2+y,1/2+z
x,1/2-y,1/2+z
1/2+x,y,1/2+z
1/2-x,-y,1/2+z
1/2+x,-y,1/2-z
1/2-x,y,1/2-z
1/2-x,-y,1/2-z
1/2+x,y,1/2-z
1/2-x,y,1/2+z
1/2+x,-y,1/2+z
1/2+x,1/2+y,z
1/2-x,1/2-y,z
1/2+x,1/2-y,-z
1/2-x,1/2+y,-z
1/2-x,1/2-y,-z
1/2+x,1/2+y,-z
1/2-x,1/2+y,z
1/2+x,1/2-y,z
loop_
_atom_site_type_symbol
_atom_site_label
_atom_site_fract_x
_atom_site_fract_y
_atom_site_fract_z
Si Si1 0.958493 0.865731 0.802750
Si Si2 0.956545 0.500000 0.060986
Si Si3 0.389944 0.130208 0.228986
Si Si4 0.726893 0.365105 0.938787
Si Si5 0.584970 0.298084 0.622885
Si Si6 0.858575 0.861792 0.940949
O O1 0.931634 0.858347 0.752930
O O2 0.945593 0.785968 0.850615
O O3 0.000000 0.826605 0.784746
O O4 0.958638 0.000000 0.825151
O O5 0.936306 0.617372 0.083028
O O6 0.000000 0.500000 0.077403
O O7 0.951882 0.500000 0.000000
O O8 0.367278 0.250000 0.250000
O O9 0.393128 0.128270 0.167352
O O10 0.371786 0.000000 0.245714
O O11 0.740607 0.500000 0.919447
O O12 0.750000 0.250000 0.915732
O O13 0.684057 0.346151 0.921812
O O14 0.730166 0.364804 0.000000
O O15 0.615668 0.221034 0.593506
O O16 0.871366 0.000000 0.934619
O O17 0.862293 0.820149 0.000000
#
# Coordination Sequence:
#
# PCOD8285484 Si02
#       6
#    32  16  32  32  32  32
#     4   9  18  31  49  72  92 112 149 201 258 316
#     4  11  24  36  44  58  88 132 176 213 249 293
#     4   9  18  31  46  68  92 117 148 195 251 310
#     4   8  14  27  46  70  98 126 158 196 241 290
#     4  11  19  32  48  65  91 123 163 202 249 292
#     4   9  18  32  50  70  95 130 167 203 243 290
#
# _framework density 17.16919
#
# number of rings (size 3 to 8) (size 9 to 14) (size 15 to 20)
#    0.000    2.636    0.909    2.727    0.000    4.727 
#    1.636    0.000    0.000    0.000    0.000    7.636 
#    0.000    6.545    0.000   46.182    0.000    8.909 
#
# Total GULP energy -545092.828372 kJ/mol
# GULP energy per Si atom -12388.473372 kJ/mol
# Density = 1.713011 g / cm^3
# Si number density = 17.169190 Si / 1000 Ang^3
#
#
#
# Elastic Constant Matrix: (Units=GPa)
#
#
# Indices 1 2 3 4 5 6 
#
# 1 50.9677 43.1684 26.9170 0.0000 0.0000 0.0000
# 2 43.1684 147.9416 41.1465 0.0000 0.0000 0.0000
# 3 26.9170 41.1465 70.7182 0.0000 0.0000 0.0000
# 4 0.0000 0.0000 0.0000 7.0392 0.0000 0.0000
# 5 0.0000 0.0000 0.0000 0.0000 6.9042 0.0000
# 6 0.0000 0.0000 0.0000 0.0000 0.0000 25.7639
#
#
#
# Elastic Compliance Matrix: (Units=1/GPa)
#
#
# Indices 1 2 3 4 5 6 
#
# 1 0.028885 -0.006407 -0.007266 0.000000 0.000000 0.000000
# 2 -0.006407 0.009486 -0.003080 0.000000 0.000000 0.000000
# 3 -0.007266 -0.003080 0.018699 0.000000 0.000000 0.000000
# 4 0.000000 0.000000 0.000000 0.142061 0.000000 0.000000
# 5 0.000000 0.000000 0.000000 0.000000 0.144840 0.000000
# 6 0.000000 0.000000 0.000000 0.000000 0.000000 0.038814
#
#
# Mechanical properties :
#
#
# Convention : Reuss Voigt Hill
#
# Bulk Modulus (GPa) = 42.44275 54.67681 48.55978
# Shear Modulus (GPa) = 11.78839 18.50117 15.14478
#
# Velocity S-wave (km/s) = 2.62315 3.28621 2.97322
# Velocity P-wave (km/s) = 5.82654 6.80543 6.33492
#
# Compressibility (1/GPa) = 0.02356115
#
# Stress axis : x y z
#
# Youngs Moduli (GPa) = 34.62059 105.42073 53.48014
#
# Poissons Ratio (x) = 0.67548 0.38859
# Poissons Ratio (y) = 0.22183 0.16474
# Poissons Ratio (z) = 0.25156 0.32473
#
# Static dielectric constant tensor:
#      x y z
#    x 2.926730 0.000000 0.000000 
#    y 0.000000 4.861250 0.000000 
#    z 0.000000 0.000000 2.983440 
# 
# 
# High freq. dielectric constant tensor:
#      x y z
#    x 1.620640 0.000000 0.000000 
#    y 0.000000 1.692840 0.000000 
#    z 0.000000 0.000000 1.638590 
# 
# From -- ./inp_files/43881.got.cif
#   From: 2010.03.12/outbox.cif.g09.slc.cpg/sg69_22_cif.got.tgz:43881.got - 2010.04.10 23:52:46.
