data_PCOD8285818
_publ_section_title
;
Structure prediction by ZEFSAII (Michael W. Deem and Ramdas Pophale) SiO2 
 PCOD8285818
Probable space group: F D D D
;
_chemical_formula_sum "Si O2"
_cell_formula_units_Z 192
_cell_length_a 19.962841
_cell_length_b 24.930094
_cell_length_c 19.737799
_cell_angle_alpha 90.000000
_cell_angle_beta 90.000000
_cell_angle_gamma 90.000000
_cell_volume 9823.019038
_symmetry_space_group_name_H-M "F D D D"
_symmetry_group_IT_number 70
_space_group.IT_coordinate_system_code '2'
_symmetry_cell_setting 'orthorhombic'
loop_
_space_group_symop_operation_xyz
x,y,z
1/4-x,1/4-y,z
x,1/4-y,1/4-z
1/4-x,y,1/4-z
-x,-y,-z
3/4+x,3/4+y,-z
-x,3/4+y,3/4+z
3/4+x,-y,3/4+z
x,1/2+y,1/2+z
1/4-x,3/4-y,1/2+z
x,3/4-y,3/4-z
1/4-x,1/2+y,3/4-z
-x,1/2-y,1/2-z
3/4+x,1/4+y,1/2-z
-x,1/4+y,1/4+z
3/4+x,1/2-y,1/4+z
1/2+x,y,1/2+z
3/4-x,1/4-y,1/2+z
1/2+x,1/4-y,3/4-z
3/4-x,y,3/4-z
1/2-x,-y,1/2-z
1/4+x,3/4+y,1/2-z
1/2-x,3/4+y,1/4+z
1/4+x,-y,1/4+z
1/2+x,1/2+y,z
3/4-x,3/4-y,z
1/2+x,3/4-y,1/4-z
3/4-x,1/2+y,1/4-z
1/2-x,1/2-y,-z
1/4+x,1/4+y,-z
1/2-x,1/4+y,3/4+z
1/4+x,1/2-y,3/4+z
loop_
_atom_site_type_symbol
_atom_site_label
_atom_site_fract_x
_atom_site_fract_y
_atom_site_fract_z
Si Si1 0.141936 0.371012 0.981950
Si Si2 0.454141 0.028606 0.190917
Si Si3 0.379474 0.513574 0.562360
Si Si4 0.375000 0.073502 0.375000
Si Si5 0.603063 0.064292 0.196837
Si Si6 0.775656 0.265191 0.329717
Si Si7 0.744369 0.625000 0.125000
O O1 0.145401 0.361519 0.062529
O O2 0.102247 0.323302 0.947404
O O3 0.106287 0.427942 0.969350
O O4 0.213607 0.370818 0.944912
O O5 0.435762 0.000530 0.119554
O O6 0.523378 0.060077 0.197124
O O7 0.454056 0.983668 0.250014
O O8 0.389761 0.469557 0.504592
O O9 0.304035 0.509682 0.591724
O O10 0.439475 0.036227 0.362858
O O11 0.625000 0.125000 0.207114
O O12 0.625000 0.040614 0.125000
O O13 0.799892 0.320797 0.365527
#
# Coordination Sequence:
#
# PCOD8285818 Si02
#       7
#    32  32  32  16  32  32  16
#     4  10  19  35  63  86 109 157 204 233 291 350
#     4  10  19  39  61  83 114 156 196 241 291 352
#     4  10  20  39  63  83 114 163 202 238 290 368
#     4  10  22  35  56  92 123 144 196 264 296 338
#     4  10  24  38  54  87 124 145 191 247 301 347
#     4   9  20  37  58  88 117 149 202 244 291 360
#     4  10  18  37  60  82 115 162 198 238 292 364
#
# _framework density 19.545926000000001
#
# number of rings (size 3 to 8) (size 9 to 14) (size 15 to 20)
#    0.000    2.167    3.333    0.000    5.833    1.667 
#    0.000    8.333    0.000    0.000    0.000    0.000 
#    0.000    0.000    0.000    0.000    0.000    0.000 
#
# Total GULP energy -594977.331254 kJ/mol
# GULP energy per Si atom -12395.361068 kJ/mol
# Density = 1.950144 g / cm^3
# Si number density = 19.545926 Si / 1000 Ang^3
#
#
#
# Elastic Constant Matrix: (Units=GPa)
#
#
# Indices 1 2 3 4 5 6 
#
# 1 43.2280 21.7018 30.7057 0.0000 0.0000 0.0000
# 2 21.7018 81.1305 56.3362 0.0000 0.0000 0.0000
# 3 30.7057 56.3362 153.0196 0.0000 0.0000 0.0000
# 4 0.0000 0.0000 0.0000 15.1523 0.0000 0.0000
# 5 0.0000 0.0000 0.0000 0.0000 22.1744 0.0000
# 6 0.0000 0.0000 0.0000 0.0000 0.0000 18.9404
#
#
#
# Elastic Compliance Matrix: (Units=1/GPa)
#
#
# Indices 1 2 3 4 5 6 
#
# 1 0.028348 -0.004880 -0.003892 0.000000 0.000000 0.000000
# 2 -0.004880 0.017399 -0.005426 0.000000 0.000000 0.000000
# 3 -0.003892 -0.005426 0.009314 0.000000 0.000000 0.000000
# 4 0.000000 0.000000 0.000000 0.065997 0.000000 0.000000
# 5 0.000000 0.000000 0.000000 0.000000 0.045097 0.000000
# 6 0.000000 0.000000 0.000000 0.000000 0.000000 0.052797
#
#
# Mechanical properties :
#
#
# Convention : Reuss Voigt Hill
#
# Bulk Modulus (GPa) = 37.50408 54.98505 46.24457
# Shear Modulus (GPa) = 19.51321 22.49571 21.00446
#
# Velocity S-wave (km/s) = 3.16306 3.39620 3.28170
# Velocity P-wave (km/s) = 5.70695 6.60084 6.17010
#
# Compressibility (1/GPa) = 0.02666376
#
# Stress axis : x y z
#
# Youngs Moduli (GPa) = 35.27641 57.47324 107.36710
#
# Poissons Ratio (x) = 0.28050 0.41782
# Poissons Ratio (y) = 0.17217 0.58263
# Poissons Ratio (z) = 0.13728 0.31188
#
# Static dielectric constant tensor:
#      x y z
#    x 3.446930 0.000000 0.000000 
#    y 0.000000 3.607550 0.000000 
#    z 0.000000 0.000000 3.812310 
# 
# 
# High freq. dielectric constant tensor:
#      x y z
#    x 1.745430 0.000000 0.000000 
#    y 0.000000 1.759110 0.000000 
#    z 0.000000 0.000000 1.769890 
# 
# From -- ./inp_files/45117.got.cif
#   From: 2010.03.12/outbox.cif.g09.slc.cpg/sg70_23_cif.got.tgz:45117.got - 2010.04.16 13:46:32.
