data_PCOD8285832
_publ_section_title
;
Structure prediction by ZEFSAII (Michael W. Deem and Ramdas Pophale) SiO2 
 PCOD8285832
Probable space group: F D D D
;
_chemical_formula_sum "Si O2"
_cell_formula_units_Z 176
_cell_length_a 21.811030
_cell_length_b 22.773484
_cell_length_c 16.189400
_cell_angle_alpha 90.000000
_cell_angle_beta 90.000000
_cell_angle_gamma 90.000000
_cell_volume 8041.487753
_symmetry_space_group_name_H-M "F D D D"
_symmetry_group_IT_number 70
_space_group.IT_coordinate_system_code '2'
_symmetry_cell_setting 'orthorhombic'
loop_
_space_group_symop_operation_xyz
x,y,z
1/4-x,1/4-y,z
x,1/4-y,1/4-z
1/4-x,y,1/4-z
-x,-y,-z
3/4+x,3/4+y,-z
-x,3/4+y,3/4+z
3/4+x,-y,3/4+z
x,1/2+y,1/2+z
1/4-x,3/4-y,1/2+z
x,3/4-y,3/4-z
1/4-x,1/2+y,3/4-z
-x,1/2-y,1/2-z
3/4+x,1/4+y,1/2-z
-x,1/4+y,1/4+z
3/4+x,1/2-y,1/4+z
1/2+x,y,1/2+z
3/4-x,1/4-y,1/2+z
1/2+x,1/4-y,3/4-z
3/4-x,y,3/4-z
1/2-x,-y,1/2-z
1/4+x,3/4+y,1/2-z
1/2-x,3/4+y,1/4+z
1/4+x,-y,1/4+z
1/2+x,1/2+y,z
3/4-x,3/4-y,z
1/2+x,3/4-y,1/4-z
3/4-x,1/2+y,1/4-z
1/2-x,1/2-y,-z
1/4+x,1/4+y,-z
1/2-x,1/4+y,3/4+z
1/4+x,1/2-y,3/4+z
loop_
_atom_site_type_symbol
_atom_site_label
_atom_site_fract_x
_atom_site_fract_y
_atom_site_fract_z
Si Si1 0.611398 0.439736 0.387373
Si Si2 0.686980 0.025149 0.780412
Si Si3 0.476170 0.313831 0.413904
Si Si4 0.125000 0.762713 0.625000
Si Si5 0.678608 0.800143 0.571542
Si Si6 0.998424 0.663143 0.910018
O O1 0.640202 0.375000 0.375000
O O2 0.660807 0.483044 0.350560
O O3 0.549270 0.440987 0.335793
O O4 0.596473 0.459213 0.480164
O O5 0.706182 0.084509 0.829913
O O6 0.750000 0.000000 0.750000
O O7 0.640346 0.030414 0.702952
O O8 0.452832 0.375000 0.375000
O O9 0.445432 0.261946 0.362216
O O10 0.462866 0.311191 0.512086
O O11 0.065878 0.802593 0.604537
O O12 0.625000 0.829843 0.625000
O O13 0.735928 0.844423 0.571898
#
# Coordination Sequence:
#
# PCOD8285832 Si02
#       6
#    32  32  32  16  32  32
#     4  11  21  41  67  96 130 176 225 274 335 406
#     4  10  22  37  67  99 132 173 224 279 326 393
#     4  11  23  41  66  97 133 168 218 281 335 403
#     4  10  18  40  66  91 131 174 220 270 326 390
#     4  12  24  40  68  96 127 175 224 272 341 410
#     4  11  21  39  65 100 127 172 226 272 332 399
#
# _framework density 21.886496999999999
#
# number of rings (size 3 to 8) (size 9 to 14) (size 15 to 20)
#    0.000    1.091    6.364    1.636    2.545    0.364 
#    0.000    0.909    0.000    1.091    0.000    0.000 
#    0.000    0.000    0.000    0.000    0.000    0.000 
#
# Total GULP energy -545243.415120 kJ/mol
# GULP energy per Si atom -12391.895798 kJ/mol
# Density = 2.183668 g / cm^3
# Si number density = 21.886497 Si / 1000 Ang^3
#
#
#
# Elastic Constant Matrix: (Units=GPa)
#
#
# Indices 1 2 3 4 5 6 
#
# 1 54.8018 38.3790 44.6475 0.0000 0.0000 0.0000
# 2 38.3790 100.1514 78.1037 0.0000 0.0000 0.0000
# 3 44.6475 78.1037 187.1937 0.0000 0.0000 0.0000
# 4 0.0000 0.0000 0.0000 -107.3602 0.0000 0.0000
# 5 0.0000 0.0000 0.0000 0.0000 40.8087 0.0000
# 6 0.0000 0.0000 0.0000 0.0000 0.0000 58.3623
#
#
#
# Elastic Compliance Matrix: (Units=1/GPa)
#
#
# Indices 1 2 3 4 5 6 
#
# 1 0.026056 -0.007617 -0.003037 0.000000 0.000000 0.000000
# 2 -0.007617 0.017027 -0.005288 0.000000 0.000000 0.000000
# 3 -0.003037 -0.005288 0.008273 0.000000 0.000000 0.000000
# 4 0.000000 0.000000 0.000000 -0.009314 0.000000 0.000000
# 5 0.000000 0.000000 0.000000 0.000000 0.024505 0.000000
# 6 0.000000 0.000000 0.000000 0.000000 0.000000 0.017134
#
#
# Mechanical properties :
#
#
# Convention : Reuss Voigt Hill
#
# Bulk Modulus (GPa) = 51.35180 73.82307 62.58743
# Shear Modulus (GPa) = 40.96572 10.42993 25.69783
#
# Velocity S-wave (km/s) = 4.33105 2.18536 3.43029
# Velocity P-wave (km/s) = 6.96594 6.33805 6.65940
#
# Compressibility (1/GPa) = 0.01947351
#
# Stress axis : x y z
#
# Youngs Moduli (GPa) = 38.37939 58.72902 120.88173
#
# Poissons Ratio (x) = 0.44732 0.36707
# Poissons Ratio (y) = 0.29232 0.63919
# Poissons Ratio (z) = 0.11654 0.31054
#
# Static dielectric constant tensor:
#      x y z
#    x 3.916120 0.000000 0.000000 
#    y 0.000000 3.783690 0.000000 
#    z 0.000000 0.000000 4.510910 
# 
# 
# High freq. dielectric constant tensor:
#      x y z
#    x 1.851280 0.000000 0.000000 
#    y 0.000000 1.835660 0.000000 
#    z 0.000000 0.000000 1.889040 
# 
# From -- ./inp_files/28751.got.cif
#   From: 2010.03.12/outbox.cif.g09.slc.cpg/sg70_15_cif.got.tgz:28751.got - 2010.04.16 13:46:32.
