data_PCOD8285070
_publ_section_title
;
Structure prediction by ZEFSAII (Michael W. Deem and Ramdas Pophale) SiO2 
 PCOD8285070
Probable space group: F M M M
;
_chemical_formula_sum "Si O2"
_cell_formula_units_Z 144
_cell_length_a 31.205081
_cell_length_b 14.213102
_cell_length_c 14.935499
_cell_angle_alpha 90.000000
_cell_angle_beta 90.000000
_cell_angle_gamma 90.000000
_cell_volume 6624.207440
_symmetry_space_group_name_H-M "F M M M"
_symmetry_group_IT_number 69
_symmetry_cell_setting 'orthorhombic'
loop_
_space_group_symop_operation_xyz
x,y,z
-x,-y,z
x,-y,-z
-x,y,-z
-x,-y,-z
x,y,-z
-x,y,z
x,-y,z
x,1/2+y,1/2+z
-x,1/2-y,1/2+z
x,1/2-y,1/2-z
-x,1/2+y,1/2-z
-x,1/2-y,1/2-z
x,1/2+y,1/2-z
-x,1/2+y,1/2+z
x,1/2-y,1/2+z
1/2+x,y,1/2+z
1/2-x,-y,1/2+z
1/2+x,-y,1/2-z
1/2-x,y,1/2-z
1/2-x,-y,1/2-z
1/2+x,y,1/2-z
1/2-x,y,1/2+z
1/2+x,-y,1/2+z
1/2+x,1/2+y,z
1/2-x,1/2-y,z
1/2+x,1/2-y,-z
1/2-x,1/2+y,-z
1/2-x,1/2-y,-z
1/2+x,1/2+y,-z
1/2-x,1/2+y,z
1/2+x,1/2-y,z
loop_
_atom_site_type_symbol
_atom_site_label
_atom_site_fract_x
_atom_site_fract_y
_atom_site_fract_z
Si Si1 0.421907 0.767404 0.400590
Si Si2 0.678682 0.101318 0.000000
Si Si3 0.156130 0.892017 0.866672
Si Si4 0.000000 0.107556 0.893286
Si Si5 0.870044 0.390154 0.169937
Si Si6 0.229173 0.351351 0.500000
O O1 0.435151 0.731259 0.500000
O O2 0.380099 0.831030 0.412975
O O3 0.458814 0.833773 0.358450
O O4 0.412458 0.676307 0.336810
O O5 0.661028 0.149493 0.909413
O O6 0.729422 0.082509 0.000000
O O7 0.656321 0.000000 0.000000
O O8 0.156384 0.871265 0.760449
O O9 0.201961 0.867538 0.910054
O O10 0.145351 0.000000 0.886657
O O11 0.000000 0.000000 0.854587
O O12 0.000000 0.101756 0.000000
O O13 0.883189 0.500000 0.162803
O O14 0.250000 0.250000 0.500000
#
# Coordination Sequence:
#
# PCOD8285070 Si02
#       6
#    32  16  32  16  32  16
#     4  11  20  37  64  91 124 164 210 259 318 374
#     4  10  20  38  60  82 116 162 212 258 308 364
#     4  11  23  40  63  92 126 164 212 264 317 377
#     4   9  20  36  60  97 131 164 208 261 319 377
#     4  10  22  40  63  90 126 172 215 261 312 373
#     4  12  24  38  60  90 123 164 208 262 323 374
#
# _framework density 21.738448999999999
#
# number of rings (size 3 to 8) (size 9 to 14) (size 15 to 20)
#    0.000    1.444    2.222    3.667    0.000    1.778 
#    0.000    7.222    0.000    4.667    0.000    0.000 
#    0.000    0.000    0.000    0.222    0.000    0.000 
#
# Total GULP energy -446126.165487 kJ/mol
# GULP energy per Si atom -12392.393486 kJ/mol
# Density = 2.168897 g / cm^3
# Si number density = 21.738449 Si / 1000 Ang^3
#
#
#
# Elastic Constant Matrix: (Units=GPa)
#
#
# Indices 1 2 3 4 5 6 
#
# 1 118.1183 60.7900 38.0329 0.0000 0.0000 0.0000
# 2 60.7900 142.4590 47.8078 0.0000 0.0000 0.0000
# 3 38.0329 47.8078 131.7942 0.0000 0.0000 0.0000
# 4 0.0000 0.0000 0.0000 26.6838 0.0000 0.0000
# 5 0.0000 0.0000 0.0000 0.0000 15.7597 0.0000
# 6 0.0000 0.0000 0.0000 0.0000 0.0000 38.8241
#
#
#
# Elastic Compliance Matrix: (Units=1/GPa)
#
#
# Indices 1 2 3 4 5 6 
#
# 1 0.011174 -0.004197 -0.001702 0.000000 0.000000 0.000000
# 2 -0.004197 0.009569 -0.002260 0.000000 0.000000 0.000000
# 3 -0.001702 -0.002260 0.008899 0.000000 0.000000 0.000000
# 4 0.000000 0.000000 0.000000 0.037476 0.000000 0.000000
# 5 0.000000 0.000000 0.000000 0.000000 0.063453 0.000000
# 6 0.000000 0.000000 0.000000 0.000000 0.000000 0.025757
#
#
# Mechanical properties :
#
#
# Convention : Reuss Voigt Hill
#
# Bulk Modulus (GPa) = 75.05556 76.18144 75.61850
# Shear Modulus (GPa) = 28.23471 32.63626 30.43548
#
# Velocity S-wave (km/s) = 3.60785 3.87888 3.74582
# Velocity P-wave (km/s) = 7.20812 7.42843 7.31911
#
# Compressibility (1/GPa) = 0.01332346
#
# Stress axis : x y z
#
# Youngs Moduli (GPa) = 89.49214 104.50510 112.37760
#
# Poissons Ratio (x) = 0.43861 0.19129
# Poissons Ratio (y) = 0.37560 0.25396
# Poissons Ratio (z) = 0.15233 0.23617
#
# Static dielectric constant tensor:
#      x y z
#    x 2.726620 0.000000 0.000000 
#    y 0.000000 4.068400 0.000000 
#    z 0.000000 0.000000 4.107590 
# 
# 
# High freq. dielectric constant tensor:
#      x y z
#    x 1.827800 0.000000 0.000000 
#    y 0.000000 1.873930 0.000000 
#    z 0.000000 0.000000 1.851990 
# 
# From -- ./inp_files/27425.got.cif
#   From: 2010.03.12/outbox.cif.g09.slc.cpg/sg69_14_cif.got.tgz:27425.got - 2010.04.10 23:52:46.
