data_PCOD8285539
_publ_section_title
;
Structure prediction by ZEFSAII (Michael W. Deem and Ramdas Pophale) SiO2 
 PCOD8285539
Probable space group: F M M M
;
_chemical_formula_sum "Si O2"
_cell_formula_units_Z 144
_cell_length_a 23.104074
_cell_length_b 19.683810
_cell_length_c 17.119300
_cell_angle_alpha 90.000000
_cell_angle_beta 90.000000
_cell_angle_gamma 90.000000
_cell_volume 7785.450249
_symmetry_space_group_name_H-M "F M M M"
_symmetry_group_IT_number 69
_symmetry_cell_setting 'orthorhombic'
loop_
_space_group_symop_operation_xyz
x,y,z
-x,-y,z
x,-y,-z
-x,y,-z
-x,-y,-z
x,y,-z
-x,y,z
x,-y,z
x,1/2+y,1/2+z
-x,1/2-y,1/2+z
x,1/2-y,1/2-z
-x,1/2+y,1/2-z
-x,1/2-y,1/2-z
x,1/2+y,1/2-z
-x,1/2+y,1/2+z
x,1/2-y,1/2+z
1/2+x,y,1/2+z
1/2-x,-y,1/2+z
1/2+x,-y,1/2-z
1/2-x,y,1/2-z
1/2-x,-y,1/2-z
1/2+x,y,1/2-z
1/2-x,y,1/2+z
1/2+x,-y,1/2+z
1/2+x,1/2+y,z
1/2-x,1/2-y,z
1/2+x,1/2-y,-z
1/2-x,1/2+y,-z
1/2-x,1/2-y,-z
1/2+x,1/2+y,-z
1/2-x,1/2+y,z
1/2+x,1/2-y,z
loop_
_atom_site_type_symbol
_atom_site_label
_atom_site_fract_x
_atom_site_fract_y
_atom_site_fract_z
Si Si1 0.563980 0.080647 0.500000
Si Si2 0.433623 0.176950 0.211628
Si Si3 0.713812 0.151298 0.409244
Si Si4 0.662706 0.701915 0.589836
Si Si5 0.381566 0.920700 0.338983
O O1 0.500000 0.111061 0.500000
O O2 0.593510 0.107371 0.421291
O O3 0.564298 0.000000 0.500000
O O4 0.500000 0.162695 0.186925
O O5 0.427446 0.250000 0.250000
O O6 0.392638 0.175230 0.136444
O O7 0.413150 0.118149 0.269785
O O8 0.706129 0.130385 0.500000
O O9 0.680081 0.221100 0.391135
O O10 0.781566 0.155966 0.389092
O O11 0.686774 0.095928 0.349232
O O12 0.646140 0.693854 0.500000
O O13 0.392151 0.000000 0.324990
#
# Coordination Sequence:
#
# PCOD8285539 Si02
#       5
#    16  32  32  32  32
#     4   9  18  32  52  79 114 158 188 211 276 358
#     4  11  23  38  55  82 118 152 195 242 280 330
#     4   9  17  34  59  86 114 145 187 232 284 345
#     4   9  19  37  60  82 110 151 192 234 283 335
#     4  11  21  35  57  85 119 152 185 233 290 344
#
# _framework density 18.496040000000001
#
# number of rings (size 3 to 8) (size 9 to 14) (size 15 to 20)
#    0.000    2.111    3.333    2.000    0.000    2.667 
#    0.000    2.222    0.000    2.000    0.000    1.556 
#    0.000    0.000    0.000    0.000    0.000    0.000 
#
# Total GULP energy -446270.395206 kJ/mol
# GULP energy per Si atom -12396.399867 kJ/mol
# Density = 1.845394 g / cm^3
# Si number density = 18.496040 Si / 1000 Ang^3
#
#
#
# Elastic Constant Matrix: (Units=GPa)
#
#
# Indices 1 2 3 4 5 6 
#
# 1 151.9554 43.4100 77.4705 0.0000 0.0000 0.0000
# 2 43.4100 72.1781 40.9280 0.0000 0.0000 0.0000
# 3 77.4705 40.9280 99.2006 0.0000 0.0000 0.0000
# 4 0.0000 0.0000 0.0000 29.9531 0.0000 0.0000
# 5 0.0000 0.0000 0.0000 0.0000 33.8536 0.0000
# 6 0.0000 0.0000 0.0000 0.0000 0.0000 19.4433
#
#
#
# Elastic Compliance Matrix: (Units=1/GPa)
#
#
# Indices 1 2 3 4 5 6 
#
# 1 0.011225 -0.002324 -0.007807 0.000000 0.000000 0.000000
# 2 -0.002324 0.018567 -0.005845 0.000000 0.000000 0.000000
# 3 -0.007807 -0.005845 0.018589 0.000000 0.000000 0.000000
# 4 0.000000 0.000000 0.000000 0.033386 0.000000 0.000000
# 5 0.000000 0.000000 0.000000 0.000000 0.029539 0.000000
# 6 0.000000 0.000000 0.000000 0.000000 0.000000 0.051432
#
#
# Mechanical properties :
#
#
# Convention : Reuss Voigt Hill
#
# Bulk Modulus (GPa) = 60.87204 71.88345 66.37775
# Shear Modulus (GPa) = 24.97910 27.41838 26.19874
#
# Velocity S-wave (km/s) = 3.67892 3.85436 3.76766
# Velocity P-wave (km/s) = 7.14340 7.66529 7.40895
#
# Compressibility (1/GPa) = 0.01642790
#
# Stress axis : x y z
#
# Youngs Moduli (GPa) = 89.08508 53.85930 53.79389
#
# Poissons Ratio (x) = 0.12517 0.41999
# Poissons Ratio (y) = 0.20703 0.31444
# Poissons Ratio (z) = 0.69553 0.31483
#
# Static dielectric constant tensor:
#      x y z
#    x 3.622940 0.000000 0.000000 
#    y 0.000000 3.152790 0.000000 
#    z 0.000000 0.000000 3.280020 
# 
# 
# High freq. dielectric constant tensor:
#      x y z
#    x 1.729490 0.000000 0.000000 
#    y 0.000000 1.691270 0.000000 
#    z 0.000000 0.000000 1.706380 
# 
# From -- ./inp_files/22846.got.cif
#   From: 2010.03.12/outbox.cif.g09.slc.cpg/sg69_12_cif.got.tgz:22846.got - 2010.04.10 23:52:46.
