data_PCOD8285031
_publ_section_title
;
Structure prediction by ZEFSAII (Michael W. Deem and Ramdas Pophale) SiO2 
 PCOD8285031
Probable space group: F M M M
;
_chemical_formula_sum "Si O2"
_cell_formula_units_Z 176
_cell_length_a 22.293166
_cell_length_b 25.679313
_cell_length_c 15.792780
_cell_angle_alpha 90.000000
_cell_angle_beta 90.000000
_cell_angle_gamma 90.000000
_cell_volume 9040.943106
_symmetry_space_group_name_H-M "F M M M"
_symmetry_group_IT_number 69
_symmetry_cell_setting 'orthorhombic'
loop_
_space_group_symop_operation_xyz
x,y,z
-x,-y,z
x,-y,-z
-x,y,-z
-x,-y,-z
x,y,-z
-x,y,z
x,-y,z
x,1/2+y,1/2+z
-x,1/2-y,1/2+z
x,1/2-y,1/2-z
-x,1/2+y,1/2-z
-x,1/2-y,1/2-z
x,1/2+y,1/2-z
-x,1/2+y,1/2+z
x,1/2-y,1/2+z
1/2+x,y,1/2+z
1/2-x,-y,1/2+z
1/2+x,-y,1/2-z
1/2-x,y,1/2-z
1/2-x,-y,1/2-z
1/2+x,y,1/2-z
1/2-x,y,1/2+z
1/2+x,-y,1/2+z
1/2+x,1/2+y,z
1/2-x,1/2-y,z
1/2+x,1/2-y,-z
1/2-x,1/2+y,-z
1/2-x,1/2-y,-z
1/2+x,1/2+y,-z
1/2-x,1/2+y,z
1/2+x,1/2-y,z
loop_
_atom_site_type_symbol
_atom_site_label
_atom_site_fract_x
_atom_site_fract_y
_atom_site_fract_z
Si Si1 0.334792 0.782322 0.672047
Si Si2 0.433639 0.438476 0.000000
Si Si3 0.868762 0.867816 0.293792
Si Si4 0.251388 0.638000 0.098515
Si Si5 0.432987 0.705464 0.402601
Si Si6 0.148244 0.438811 0.654338
O O1 0.306129 0.750000 0.750000
O O2 0.368920 0.831588 0.710698
O O3 0.282870 0.805282 0.611139
O O4 0.383301 0.747998 0.621910
O O5 0.399354 0.419736 0.084038
O O6 0.438780 0.500000 0.000000
O O7 0.500000 0.413236 0.000000
O O8 0.809441 0.861653 0.349387
O O9 0.923845 0.849196 0.352259
O O10 0.875011 0.924855 0.250183
O O11 0.289420 0.590003 0.134990
O O12 0.237606 0.629657 0.000000
O O13 0.425345 0.691732 0.500000
O O14 0.500000 0.726597 0.382944
O O15 0.159920 0.500000 0.649126
#
# Coordination Sequence:
#
# PCOD8285031 Si02
#       6
#    32  16  32  32  32  32
#     4   9  19  34  53  77 109 143 185 228 279 333
#     4   9  18  34  56  82 110 141 177 221 279 340
#     4  10  22  35  54  82 113 149 188 230 279 336
#     4  11  21  35  55  81 117 149 189 230 280 336
#     4  10  21  38  58  80 109 145 189 237 286 337
#     4  10  20  37  58  82 114 148 184 231 281 333
#
# _framework density 19.466996000000002
#
# number of rings (size 3 to 8) (size 9 to 14) (size 15 to 20)
#    0.000    2.091    0.909    3.273    0.000   10.545 
#    0.000    7.273    0.000    1.636    0.000    1.273 
#    0.000    0.000    0.000    0.000    0.000    0.000 
#
# Total GULP energy -545283.317820 kJ/mol
# GULP energy per Si atom -12392.802678 kJ/mol
# Density = 1.942269 g / cm^3
# Si number density = 19.466996 Si / 1000 Ang^3
#
#
#
# Elastic Constant Matrix: (Units=GPa)
#
#
# Indices 1 2 3 4 5 6 
#
# 1 81.5802 26.2901 44.7364 0.0000 0.0000 0.0000
# 2 26.2901 76.0602 39.9690 0.0000 0.0000 0.0000
# 3 44.7364 39.9690 126.9040 0.0000 0.0000 0.0000
# 4 0.0000 0.0000 0.0000 29.4130 0.0000 0.0000
# 5 0.0000 0.0000 0.0000 0.0000 18.4444 0.0000
# 6 0.0000 0.0000 0.0000 0.0000 0.0000 20.4278
#
#
#
# Elastic Compliance Matrix: (Units=1/GPa)
#
#
# Indices 1 2 3 4 5 6 
#
# 1 0.015757 -0.003029 -0.004601 0.000000 0.000000 0.000000
# 2 -0.003029 0.016337 -0.004078 0.000000 0.000000 0.000000
# 3 -0.004601 -0.004078 0.010786 0.000000 0.000000 0.000000
# 4 0.000000 0.000000 0.000000 0.033999 0.000000 0.000000
# 5 0.000000 0.000000 0.000000 0.000000 0.054217 0.000000
# 6 0.000000 0.000000 0.000000 0.000000 0.000000 0.048953
#
#
# Mechanical properties :
#
#
# Convention : Reuss Voigt Hill
#
# Bulk Modulus (GPa) = 51.37228 56.28171 53.82699
# Shear Modulus (GPa) = 23.81501 25.22696 24.52098
#
# Velocity S-wave (km/s) = 3.50144 3.60374 3.55296
# Velocity P-wave (km/s) = 6.54167 6.80368 6.67396
#
# Compressibility (1/GPa) = 0.01946575
#
# Stress axis : x y z
#
# Youngs Moduli (GPa) = 63.46458 61.20999 92.71152
#
# Poissons Ratio (x) = 0.18539 0.42654
# Poissons Ratio (y) = 0.19221 0.37806
# Poissons Ratio (z) = 0.29198 0.24960
#
# Static dielectric constant tensor:
#      x y z
#    x 3.570400 0.000000 0.000000 
#    y 0.000000 3.678610 0.000000 
#    z 0.000000 0.000000 3.824600 
# 
# 
# High freq. dielectric constant tensor:
#      x y z
#    x 1.747190 0.000000 0.000000 
#    y 0.000000 1.740960 0.000000 
#    z 0.000000 0.000000 1.770320 
# 
# From -- ./inp_files/18136.got.cif
#   From: 2010.03.12/outbox.cif.g09.slc.cpg/sg69_10_cif.got.tgz:18136.got - 2010.04.10 23:52:46.
