data_PCOD8285203
_publ_section_title
;
Structure prediction by ZEFSAII (Michael W. Deem and Ramdas Pophale) SiO2 
 PCOD8285203
Probable space group: F M M M
;
_chemical_formula_sum "Si O2"
_cell_formula_units_Z 160
_cell_length_a 21.408176
_cell_length_b 26.784721
_cell_length_c 13.906806
_cell_angle_alpha 90.000000
_cell_angle_beta 90.000000
_cell_angle_gamma 90.000000
_cell_volume 7974.329738
_symmetry_space_group_name_H-M "F M M M"
_symmetry_group_IT_number 69
_symmetry_cell_setting 'orthorhombic'
loop_
_space_group_symop_operation_xyz
x,y,z
-x,-y,z
x,-y,-z
-x,y,-z
-x,-y,-z
x,y,-z
-x,y,z
x,-y,z
x,1/2+y,1/2+z
-x,1/2-y,1/2+z
x,1/2-y,1/2-z
-x,1/2+y,1/2-z
-x,1/2-y,1/2-z
x,1/2+y,1/2-z
-x,1/2+y,1/2+z
x,1/2-y,1/2+z
1/2+x,y,1/2+z
1/2-x,-y,1/2+z
1/2+x,-y,1/2-z
1/2-x,y,1/2-z
1/2-x,-y,1/2-z
1/2+x,y,1/2-z
1/2-x,y,1/2+z
1/2+x,-y,1/2+z
1/2+x,1/2+y,z
1/2-x,1/2-y,z
1/2+x,1/2-y,-z
1/2-x,1/2+y,-z
1/2-x,1/2-y,-z
1/2+x,1/2+y,-z
1/2-x,1/2+y,z
1/2+x,1/2-y,z
loop_
_atom_site_type_symbol
_atom_site_label
_atom_site_fract_x
_atom_site_fract_y
_atom_site_fract_z
Si Si1 0.780776 0.101504 0.612250
Si Si2 0.193944 0.284254 0.113357
Si Si3 0.337544 0.941818 0.710132
Si Si4 0.927715 0.621845 0.394028
Si Si5 0.930592 0.233566 0.885867
O O1 0.792808 0.090540 0.500000
O O2 0.792626 0.158827 0.639839
O O3 0.710913 0.087913 0.642782
O O4 0.826937 0.067482 0.676315
O O5 0.250000 0.250000 0.156503
O O6 0.125341 0.268523 0.155064
O O7 0.191943 0.276071 0.000000
O O8 0.403937 0.919827 0.680245
O O9 0.332933 0.000000 0.687637
O O10 0.896543 0.615778 0.500000
O O11 0.914680 0.677215 0.353000
O O12 0.000000 0.612066 0.404190
O O13 0.000000 0.250139 0.847241
O O14 0.933096 0.235126 0.000000
#
# Coordination Sequence:
#
# PCOD8285203 Si02
#       5
#    32  32  32  32  32
#     4  10  21  37  55  77 107 141 178 220 268 321
#     4   9  16  28  50  77 105 139 175 213 262 320
#     4  11  23  37  55  79 106 138 181 232 277 319
#     4   9  18  34  57  84 113 142 172 214 271 329
#     4   8  14  27  49  77 109 143 175 209 257 319
#
# _framework density 20.064381999999998
#
# number of rings (size 3 to 8) (size 9 to 14) (size 15 to 20)
#    0.000    2.600    0.000    4.200    0.000    6.400 
#    0.000    9.000    0.000    4.200    0.000    1.400 
#    0.000    0.000    0.000    0.000    0.000    0.000 
#
# Total GULP energy -495772.811473 kJ/mol
# GULP energy per Si atom -12394.320287 kJ/mol
# Density = 2.001871 g / cm^3
# Si number density = 20.064382 Si / 1000 Ang^3
#
#
#
# Elastic Constant Matrix: (Units=GPa)
#
#
# Indices 1 2 3 4 5 6 
#
# 1 102.2740 76.7099 17.9505 0.0000 0.0000 0.0000
# 2 76.7099 139.2634 33.2095 0.0000 0.0000 0.0000
# 3 17.9505 33.2095 76.5246 0.0000 0.0000 0.0000
# 4 0.0000 0.0000 0.0000 27.9473 0.0000 0.0000
# 5 0.0000 0.0000 0.0000 0.0000 4.1520 0.0000
# 6 0.0000 0.0000 0.0000 0.0000 0.0000 19.7913
#
#
#
# Elastic Compliance Matrix: (Units=1/GPa)
#
#
# Indices 1 2 3 4 5 6 
#
# 1 0.016662 -0.009197 0.000083 0.000000 0.000000 0.000000
# 2 -0.009197 0.013087 -0.003522 0.000000 0.000000 0.000000
# 3 0.000083 -0.003522 0.014577 0.000000 0.000000 0.000000
# 4 0.000000 0.000000 0.000000 0.035782 0.000000 0.000000
# 5 0.000000 0.000000 0.000000 0.000000 0.240845 0.000000
# 6 0.000000 0.000000 0.000000 0.000000 0.000000 0.050527
#
#
# Mechanical properties :
#
#
# Convention : Reuss Voigt Hill
#
# Bulk Modulus (GPa) = 52.48649 63.75576 58.12112
# Shear Modulus (GPa) = 12.40382 23.05760 17.73071
#
# Velocity S-wave (km/s) = 2.48906 3.39363 2.97592
# Velocity P-wave (km/s) = 5.87166 6.87024 6.39049
#
# Compressibility (1/GPa) = 0.01905252
#
# Stress axis : x y z
#
# Youngs Moduli (GPa) = 60.01846 76.41382 68.60339
#
# Poissons Ratio (x) = 0.70281 -0.00570
# Poissons Ratio (y) = 0.55202 0.24161
# Poissons Ratio (z) = -0.00499 0.26911
#
# Static dielectric constant tensor:
#      x y z
#    x 3.831160 0.000000 0.000000 
#    y 0.000000 3.575030 0.000000 
#    z 0.000000 0.000000 3.586160 
# 
# 
# High freq. dielectric constant tensor:
#      x y z
#    x 1.779500 0.000000 0.000000 
#    y 0.000000 1.771890 0.000000 
#    z 0.000000 0.000000 1.777200 
# 
# From -- ./inp_files/17716.got.cif
#   From: 2010.03.12/outbox.cif.g09.slc.cpg/sg69_9_cif.got.tgz:17716.got - 2010.04.10 23:52:46.
