data_PCOD8285068
_publ_section_title
;
Structure prediction by ZEFSAII (Michael W. Deem and Ramdas Pophale) SiO2 
 PCOD8285068
Probable space group: F M M M
;
_chemical_formula_sum "Si O2"
_cell_formula_units_Z 144
_cell_length_a 20.505089
_cell_length_b 28.187099
_cell_length_c 13.927472
_cell_angle_alpha 90.000000
_cell_angle_beta 90.000000
_cell_angle_gamma 90.000000
_cell_volume 8049.785972
_symmetry_space_group_name_H-M "F M M M"
_symmetry_group_IT_number 69
_symmetry_cell_setting 'orthorhombic'
loop_
_space_group_symop_operation_xyz
x,y,z
-x,-y,z
x,-y,-z
-x,y,-z
-x,-y,-z
x,y,-z
-x,y,z
x,-y,z
x,1/2+y,1/2+z
-x,1/2-y,1/2+z
x,1/2-y,1/2-z
-x,1/2+y,1/2-z
-x,1/2-y,1/2-z
x,1/2+y,1/2-z
-x,1/2+y,1/2+z
x,1/2-y,1/2+z
1/2+x,y,1/2+z
1/2-x,-y,1/2+z
1/2+x,-y,1/2-z
1/2-x,y,1/2-z
1/2-x,-y,1/2-z
1/2+x,y,1/2-z
1/2-x,y,1/2+z
1/2+x,-y,1/2+z
1/2+x,1/2+y,z
1/2-x,1/2-y,z
1/2+x,1/2-y,-z
1/2-x,1/2+y,-z
1/2-x,1/2-y,-z
1/2+x,1/2+y,-z
1/2-x,1/2+y,z
1/2+x,1/2-y,z
loop_
_atom_site_type_symbol
_atom_site_label
_atom_site_fract_x
_atom_site_fract_y
_atom_site_fract_z
Si Si1 0.310913 0.852676 0.314942
Si Si2 0.000000 0.944441 0.103321
Si Si3 0.574526 0.697665 0.288604
Si Si4 0.140512 0.553276 0.614988
Si Si5 0.194361 0.289741 0.500000
Si Si6 0.426274 0.724947 0.500000
O O1 0.250000 0.840762 0.250000
O O2 0.378047 0.839563 0.261868
O O3 0.310201 0.908577 0.340716
O O4 0.298340 0.822181 0.408334
O O5 0.931827 0.932460 0.156479
O O6 0.000000 0.000000 0.083634
O O7 0.000000 0.917986 0.000000
O O8 0.500000 0.684655 0.261506
O O9 0.591869 0.750000 0.250000
O O10 0.585173 0.694019 0.403824
O O11 0.139701 0.556229 0.500000
O O12 0.160755 0.500000 0.647581
O O13 0.250000 0.250000 0.500000
O O14 0.121904 0.269047 0.500000
O O15 0.500000 0.745615 0.500000
#
# Coordination Sequence:
#
# PCOD8285068 Si02
#       6
#    32  16  32  32  16  16
#     4  12  25  36  55  85 111 150 193 229 286 342
#     4   7  12  26  52  80 105 133 163 217 285 332
#     4  10  21  37  57  83 113 148 189 231 274 331
#     4   9  18  36  57  82 114 144 183 232 285 340
#     4  12  24  38  55  77 113 155 186 237 278 332
#     4  10  20  38  58  79 111 151 188 232 279 314
#
# _framework density 17.888674999999999
#
# number of rings (size 3 to 8) (size 9 to 14) (size 15 to 20)
#    0.000    1.889    3.333    2.667    1.556    0.444 
#    0.000    0.000    0.000    0.000    0.000    0.000 
#    0.000    2.667    0.000    0.000    0.000    0.000 
#
# Total GULP energy -446153.185041 kJ/mol
# GULP energy per Si atom -12393.144029 kJ/mol
# Density = 1.784796 g / cm^3
# Si number density = 17.888675 Si / 1000 Ang^3
#
#
#
# Elastic Constant Matrix: (Units=GPa)
#
#
# Indices 1 2 3 4 5 6 
#
# 1 92.2746 53.0906 46.4112 0.0000 0.0000 0.0000
# 2 53.0906 108.4969 48.6903 0.0000 0.0000 0.0000
# 3 46.4112 48.6903 107.4855 0.0000 0.0000 0.0000
# 4 0.0000 0.0000 0.0000 20.8643 0.0000 0.0000
# 5 0.0000 0.0000 0.0000 0.0000 33.5727 0.0000
# 6 0.0000 0.0000 0.0000 0.0000 0.0000 28.8481
#
#
#
# Elastic Compliance Matrix: (Units=1/GPa)
#
#
# Indices 1 2 3 4 5 6 
#
# 1 0.016573 -0.006148 -0.004371 0.000000 0.000000 0.000000
# 2 -0.006148 0.013849 -0.003619 0.000000 0.000000 0.000000
# 3 -0.004371 -0.003619 0.012830 0.000000 0.000000 0.000000
# 4 0.000000 0.000000 0.000000 0.047929 0.000000 0.000000
# 5 0.000000 0.000000 0.000000 0.000000 0.029786 0.000000
# 6 0.000000 0.000000 0.000000 0.000000 0.000000 0.034664
#
#
# Mechanical properties :
#
#
# Convention : Reuss Voigt Hill
#
# Bulk Modulus (GPa) = 66.77115 67.18237 66.97676
# Shear Modulus (GPa) = 26.46898 27.32800 26.89849
#
# Velocity S-wave (km/s) = 3.85079 3.91278 3.88191
# Velocity P-wave (km/s) = 7.56164 7.61909 7.59042
#
# Compressibility (1/GPa) = 0.01497653
#
# Stress axis : x y z
#
# Youngs Moduli (GPa) = 60.33906 72.20535 77.94017
#
# Poissons Ratio (x) = 0.44392 0.34068
# Poissons Ratio (y) = 0.37097 0.28207
# Poissons Ratio (z) = 0.26374 0.26131
#
# Static dielectric constant tensor:
#      x y z
#    x 3.522620 0.000000 0.000000 
#    y 0.000000 3.142250 0.000000 
#    z 0.000000 0.000000 3.266950 
# 
# 
# High freq. dielectric constant tensor:
#      x y z
#    x 1.698130 0.000000 0.000000 
#    y 0.000000 1.673120 0.000000 
#    z 0.000000 0.000000 1.680580 
# 
# From -- ./inp_files/15603.got.cif
#   From: 2010.03.12/outbox.cif.g09.slc.cpg/sg69_8_cif.got.tgz:15603.got - 2010.04.10 23:52:46.
