data_PCOD8285651
_publ_section_title
;
Structure prediction by ZEFSAII (Michael W. Deem and Ramdas Pophale) SiO2 
 PCOD8285651
Probable space group: F M M M
;
_chemical_formula_sum "Si O2"
_cell_formula_units_Z 160
_cell_length_a 16.912831
_cell_length_b 21.492356
_cell_length_c 21.492352
_cell_angle_alpha 90.000000
_cell_angle_beta 90.000000
_cell_angle_gamma 90.000000
_cell_volume 7812.396552
_symmetry_space_group_name_H-M "F M M M"
_symmetry_group_IT_number 69
_symmetry_cell_setting 'orthorhombic'
loop_
_space_group_symop_operation_xyz
x,y,z
-x,-y,z
x,-y,-z
-x,y,-z
-x,-y,-z
x,y,-z
-x,y,z
x,-y,z
x,1/2+y,1/2+z
-x,1/2-y,1/2+z
x,1/2-y,1/2-z
-x,1/2+y,1/2-z
-x,1/2-y,1/2-z
x,1/2+y,1/2-z
-x,1/2+y,1/2+z
x,1/2-y,1/2+z
1/2+x,y,1/2+z
1/2-x,-y,1/2+z
1/2+x,-y,1/2-z
1/2-x,y,1/2-z
1/2-x,-y,1/2-z
1/2+x,y,1/2-z
1/2-x,y,1/2+z
1/2+x,-y,1/2+z
1/2+x,1/2+y,z
1/2-x,1/2-y,z
1/2+x,1/2-y,-z
1/2-x,1/2+y,-z
1/2-x,1/2-y,-z
1/2+x,1/2+y,-z
1/2-x,1/2+y,z
1/2+x,1/2-y,z
loop_
_atom_site_type_symbol
_atom_site_label
_atom_site_fract_x
_atom_site_fract_y
_atom_site_fract_z
Si Si1 0.842062 0.119042 0.135279
Si Si2 0.411049 0.573210 0.500000
Si Si3 0.407748 0.239116 0.428522
Si Si4 0.907748 0.571478 0.239116
Si Si5 0.911049 0.000000 0.073210
Si Si6 0.657938 0.635279 0.380958
O O1 0.891610 0.175451 0.107082
O O2 0.862774 0.108369 0.207020
O O3 0.750000 0.132138 0.132138
O O4 0.863092 0.059316 0.095073
O O5 0.416188 0.500000 0.500000
O O6 0.500000 0.601865 0.500000
O O7 0.363092 0.595073 0.559316
O O8 0.377494 0.235252 0.500000
O O9 0.500000 0.253773 0.427176
O O10 0.362774 0.292980 0.391631
O O11 0.877494 0.500000 0.235252
O O12 0.891610 0.607082 0.175451
O O13 0.000000 0.572824 0.253773
O O14 0.000000 0.000000 0.101865
O O15 0.916188 0.000000 0.000000
#
# Coordination Sequence:
#
# PCOD8285651 Si02
#       6
#    32  16  32  32  16  32
#     4  12  26  41  69 101 138 174 229 285 347 399
#     4  11  24  42  65  96 136 181 232 279 337 411
#     4  11  24  45  70  97 137 185 232 278 339 413
#     4  11  24  45  70  97 137 185 232 278 339 413
#     4  11  24  42  65  96 136 181 232 279 337 411
#     4  12  26  41  69 101 138 174 229 285 347 399
#
# _framework density 20.480270999999998
#
# number of rings (size 3 to 8) (size 9 to 14) (size 15 to 20)
#    0.000    0.600    2.000    6.000    5.600    5.600 
#    0.000    4.000    0.000    0.000    0.000    0.000 
#    0.000    0.000    0.000    0.000    0.000    0.000 
#
# Total GULP energy -496286.187875 kJ/mol
# GULP energy per Si atom -12407.154697 kJ/mol
# Density = 2.043366 g / cm^3
# Si number density = 20.480271 Si / 1000 Ang^3
#
#
#
# Elastic Constant Matrix: (Units=GPa)
#
#
# Indices 1 2 3 4 5 6 
#
# 1 102.7161 41.1635 41.1637 0.0000 0.0000 0.0000
# 2 41.1635 164.8660 67.6328 0.0000 0.0000 0.0000
# 3 41.1637 67.6328 164.8658 0.0000 0.0000 0.0000
# 4 0.0000 0.0000 0.0000 39.2518 0.0000 0.0000
# 5 0.0000 0.0000 0.0000 0.0000 12.1931 0.0000
# 6 0.0000 0.0000 0.0000 0.0000 0.0000 12.1948
#
#
#
# Elastic Compliance Matrix: (Units=1/GPa)
#
#
# Indices 1 2 3 4 5 6 
#
# 1 0.011346 -0.002009 -0.002009 0.000000 0.000000 0.000000
# 2 -0.002009 0.007648 -0.002636 0.000000 0.000000 0.000000
# 3 -0.002009 -0.002636 0.007648 0.000000 0.000000 0.000000
# 4 0.000000 0.000000 0.000000 0.025477 0.000000 0.000000
# 5 0.000000 0.000000 0.000000 0.000000 0.082014 0.000000
# 6 0.000000 0.000000 0.000000 0.000000 0.000000 0.082002
#
#
# Mechanical properties :
#
#
# Convention : Reuss Voigt Hill
#
# Bulk Modulus (GPa) = 74.98808 81.37422 78.18115
# Shear Modulus (GPa) = 21.37780 31.56045 26.46912
#
# Velocity S-wave (km/s) = 3.23433 3.92984 3.59893
# Velocity P-wave (km/s) = 7.11633 7.77243 7.45161
#
# Compressibility (1/GPa) = 0.01333545
#
# Stress axis : x y z
#
# Youngs Moduli (GPa) = 88.14022 130.74520 130.74483
#
# Poissons Ratio (x) = 0.26263 0.26263
# Poissons Ratio (y) = 0.17705 0.34466
# Poissons Ratio (z) = 0.17705 0.34466
#
# Static dielectric constant tensor:
#      x y z
#    x 3.882670 0.000000 0.000000 
#    y 0.000000 3.828120 0.000000 
#    z 0.000000 0.000000 3.828120 
# 
# 
# High freq. dielectric constant tensor:
#      x y z
#    x 1.814200 0.000000 0.000000 
#    y 0.000000 1.815600 0.000000 
#    z 0.000000 0.000000 1.815600 
# 
# From -- ./inp_files/30848.got.cif
#   From: 2010.03.12/outbox.cif.g09.slc.cpg/sg69_16_cif.got.tgz:30848.got - 2010.04.10 23:52:46.
