data_PCOD8285389
_publ_section_title
;
Structure prediction by ZEFSAII (Michael W. Deem and Ramdas Pophale) SiO2 
 PCOD8285389
Probable space group: F M M M
;
_chemical_formula_sum "Si O2"
_cell_formula_units_Z 120
_cell_length_a 21.362909
_cell_length_b 19.389869
_cell_length_c 15.608334
_cell_angle_alpha 90.000000
_cell_angle_beta 90.000000
_cell_angle_gamma 90.000000
_cell_volume 6465.346652
_symmetry_space_group_name_H-M "F M M M"
_symmetry_group_IT_number 69
_symmetry_cell_setting 'orthorhombic'
loop_
_space_group_symop_operation_xyz
x,y,z
-x,-y,z
x,-y,-z
-x,y,-z
-x,-y,-z
x,y,-z
-x,y,z
x,-y,z
x,1/2+y,1/2+z
-x,1/2-y,1/2+z
x,1/2-y,1/2-z
-x,1/2+y,1/2-z
-x,1/2-y,1/2-z
x,1/2+y,1/2-z
-x,1/2+y,1/2+z
x,1/2-y,1/2+z
1/2+x,y,1/2+z
1/2-x,-y,1/2+z
1/2+x,-y,1/2-z
1/2-x,y,1/2-z
1/2-x,-y,1/2-z
1/2+x,y,1/2-z
1/2-x,y,1/2+z
1/2+x,-y,1/2+z
1/2+x,1/2+y,z
1/2-x,1/2-y,z
1/2+x,1/2-y,-z
1/2-x,1/2+y,-z
1/2-x,1/2-y,-z
1/2+x,1/2+y,-z
1/2-x,1/2+y,z
1/2+x,1/2-y,z
loop_
_atom_site_type_symbol
_atom_site_label
_atom_site_fract_x
_atom_site_fract_y
_atom_site_fract_z
Si Si1 0.214068 0.000000 0.661358
Si Si2 0.500000 0.418845 0.325697
Si Si3 0.628489 0.886759 0.905062
Si Si4 0.500000 0.080719 0.374957
Si Si5 0.802969 0.500000 0.500000
Si Si6 0.896830 0.624076 0.500000
Si Si7 0.823258 0.234487 0.500000
O O1 0.250000 0.000000 0.750000
O O2 0.170814 0.932330 0.657900
O O3 0.262034 0.000000 0.584376
O O4 0.500000 0.500000 0.347549
O O5 0.559638 0.381168 0.365829
O O6 0.500000 0.405650 0.225042
O O7 0.624858 0.921595 0.000000
O O8 0.658657 0.810290 0.915153
O O9 0.438465 0.115532 0.414965
O O10 0.500000 0.000000 0.398280
O O11 0.842824 0.568423 0.500000
O O12 0.864687 0.697778 0.500000
O O13 0.750000 0.250000 0.500000
#
# Coordination Sequence:
#
# PCOD8285389 Si02
#       7
#    16  16  32  16   8  16  16
#     4  12  24  37  64  98 126 167 226 266 310 383
#     4  11  22  36  65  96 132 152 202 277 323 376
#     4  10  22  41  63  90 126 167 214 257 326 383
#     4  10  22  40  61 101 123 153 215 276 323 371
#     4  12  22  39  66  89 124 162 216 270 320 360
#     4  11  21  40  68  84 121 172 205 262 320 386
#     4  10  23  43  64  85 127 173 215 253 321 399
#
# _framework density 18.560490999999999
#
# number of rings (size 3 to 8) (size 9 to 14) (size 15 to 20)
#    0.800    0.533    4.000    2.400    3.733    2.667 
#    0.000    2.667    0.000    0.000    0.000    0.000 
#    0.000    0.000    0.000    0.000    0.000    0.000 
#
# Total GULP energy -371979.489729 kJ/mol
# GULP energy per Si atom -12399.316324 kJ/mol
# Density = 1.851825 g / cm^3
# Si number density = 18.560491 Si / 1000 Ang^3
#
#
#
# Elastic Constant Matrix: (Units=GPa)
#
#
# Indices 1 2 3 4 5 6 
#
# 1 181.9926 83.2390 69.8183 0.0000 0.0000 0.0000
# 2 83.2390 149.9656 39.9301 0.0000 0.0000 0.0000
# 3 69.8183 39.9301 118.1632 0.0000 0.0000 0.0000
# 4 0.0000 0.0000 0.0000 12.8060 0.0000 0.0000
# 5 0.0000 0.0000 0.0000 0.0000 29.7789 0.0000
# 6 0.0000 0.0000 0.0000 0.0000 0.0000 34.9793
#
#
#
# Elastic Compliance Matrix: (Units=1/GPa)
#
#
# Indices 1 2 3 4 5 6 
#
# 1 0.008721 -0.003811 -0.003865 0.000000 0.000000 0.000000
# 2 -0.003811 0.008993 -0.000787 0.000000 0.000000 0.000000
# 3 -0.003865 -0.000787 0.011012 0.000000 0.000000 0.000000
# 4 0.000000 0.000000 0.000000 0.078088 0.000000 0.000000
# 5 0.000000 0.000000 0.000000 0.000000 0.033581 0.000000
# 6 0.000000 0.000000 0.000000 0.000000 0.000000 0.028588
#
#
# Mechanical properties :
#
#
# Convention : Reuss Voigt Hill
#
# Bulk Modulus (GPa) = 84.74613 92.89958 88.82286
# Shear Modulus (GPa) = 26.33750 32.65510 29.49630
#
# Velocity S-wave (km/s) = 3.77106 4.19906 3.99080
# Velocity P-wave (km/s) = 8.04486 8.58315 8.31836
#
# Compressibility (1/GPa) = 0.01179995
#
# Stress axis : x y z
#
# Youngs Moduli (GPa) = 114.67111 111.19421 90.80708
#
# Poissons Ratio (x) = 0.42380 0.35094
# Poissons Ratio (y) = 0.43705 0.07147
# Poissons Ratio (z) = 0.44317 0.08751
#
# Static dielectric constant tensor:
#      x y z
#    x 3.606800 0.000000 0.000000 
#    y 0.000000 3.315570 0.000000 
#    z 0.000000 0.000000 3.278930 
# 
# 
# High freq. dielectric constant tensor:
#      x y z
#    x 1.741950 0.000000 0.000000 
#    y 0.000000 1.710910 0.000000 
#    z 0.000000 0.000000 1.710480 
# 
# From -- ./inp_files/16303.got.cif
#   From: 2010.03.12/outbox.cif.g09.slc.cpg/sg69_9_cif.got.tgz:16303.got - 2010.04.10 23:52:46.
