data_PCOD8285734
_publ_section_title
;
Structure prediction by ZEFSAII (Michael W. Deem and Ramdas Pophale) SiO2 
 PCOD8285734
Probable space group: F D D D
;
_chemical_formula_sum "Si O2"
_cell_formula_units_Z 120
_cell_length_a 27.985290
_cell_length_b 12.252264
_cell_length_c 15.614802
_cell_angle_alpha 90.000000
_cell_angle_beta 90.000000
_cell_angle_gamma 90.000000
_cell_volume 5354.052671
_symmetry_space_group_name_H-M "F D D D"
_symmetry_group_IT_number 70
_space_group.IT_coordinate_system_code '2'
_symmetry_cell_setting 'orthorhombic'
loop_
_space_group_symop_operation_xyz
x,y,z
1/4-x,1/4-y,z
x,1/4-y,1/4-z
1/4-x,y,1/4-z
-x,-y,-z
3/4+x,3/4+y,-z
-x,3/4+y,3/4+z
3/4+x,-y,3/4+z
x,1/2+y,1/2+z
1/4-x,3/4-y,1/2+z
x,3/4-y,3/4-z
1/4-x,1/2+y,3/4-z
-x,1/2-y,1/2-z
3/4+x,1/4+y,1/2-z
-x,1/4+y,1/4+z
3/4+x,1/2-y,1/4+z
1/2+x,y,1/2+z
3/4-x,1/4-y,1/2+z
1/2+x,1/4-y,3/4-z
3/4-x,y,3/4-z
1/2-x,-y,1/2-z
1/4+x,3/4+y,1/2-z
1/2-x,3/4+y,1/4+z
1/4+x,-y,1/4+z
1/2+x,1/2+y,z
3/4-x,3/4-y,z
1/2+x,3/4-y,1/4-z
3/4-x,1/2+y,1/4-z
1/2-x,1/2-y,-z
1/4+x,1/4+y,-z
1/2-x,1/4+y,3/4+z
1/4+x,1/2-y,3/4+z
loop_
_atom_site_type_symbol
_atom_site_label
_atom_site_fract_x
_atom_site_fract_y
_atom_site_fract_z
Si Si1 0.625000 0.625000 0.907082
Si Si2 0.727194 0.863452 0.475060
Si Si3 0.315926 0.489870 0.516112
Si Si4 0.129224 0.927965 0.026419
Si Si5 0.375000 0.875000 0.875000
O O1 0.667377 0.672547 0.849036
O O2 0.644103 0.530915 0.968943
O O3 0.719257 0.875000 0.375000
O O4 0.750000 0.750000 0.500000
O O5 0.759133 0.966783 0.508745
O O6 0.675830 0.851963 0.520373
O O7 0.332163 0.617947 0.515558
O O8 0.341004 0.450392 0.430104
O O9 0.125000 0.964139 0.125000
#
# Coordination Sequence:
#
# PCOD8285734 Si02
#       5
#    16  32  32  32   8
#     4  11  25  43  63  92 140 182 219 269 349 417
#     4  12  23  40  68 106 133 167 230 293 346 401
#     4  11  21  40  68  99 132 169 226 287 346 395
#     4  12  25  45  66  95 138 186 224 283 341 408
#     4  10  16  36  62 102 126 156 202 288 332 384
#
# _framework density 22.412928000000001
#
# number of rings (size 3 to 8) (size 9 to 14) (size 15 to 20)
#    0.000    0.533    2.667    9.200    0.000    0.000 
#    0.000    8.000    0.000    0.000    0.000    0.000 
#    0.000    0.000    0.000    0.000    0.000    0.000 
#
# Total GULP energy -371896.297141 kJ/mol
# GULP energy per Si atom -12396.543238 kJ/mol
# Density = 2.236192 g / cm^3
# Si number density = 22.412928 Si / 1000 Ang^3
#
#
#
# Elastic Constant Matrix: (Units=GPa)
#
#
# Indices 1 2 3 4 5 6 
#
# 1 100.4252 10.2762 24.6357 0.0000 0.0000 0.0000
# 2 10.2762 88.0253 35.8975 0.0000 0.0000 0.0000
# 3 24.6357 35.8975 158.4610 0.0000 0.0000 0.0000
# 4 0.0000 0.0000 0.0000 30.4883 0.0000 0.0000
# 5 0.0000 0.0000 0.0000 0.0000 21.5627 0.0000
# 6 0.0000 0.0000 0.0000 0.0000 0.0000 731.4319
#
#
#
# Elastic Compliance Matrix: (Units=1/GPa)
#
#
# Indices 1 2 3 4 5 6 
#
# 1 0.010382 -0.000610 -0.001476 0.000000 0.000000 0.000000
# 2 -0.000610 0.012553 -0.002749 0.000000 0.000000 0.000000
# 3 -0.001476 -0.002749 0.007163 0.000000 0.000000 0.000000
# 4 0.000000 0.000000 0.000000 0.032799 0.000000 0.000000
# 5 0.000000 0.000000 0.000000 0.000000 0.046376 0.000000
# 6 0.000000 0.000000 0.000000 0.000000 0.000000 0.001367
#
#
# Mechanical properties :
#
#
# Convention : Reuss Voigt Hill
#
# Bulk Modulus (GPa) = 48.95251 54.28115 51.61683
# Shear Modulus (GPa) = 39.33307 175.10339 107.21823
#
# Velocity S-wave (km/s) = 4.19373 8.84848 6.92398
# Velocity P-wave (km/s) = 6.73338 11.34308 9.32748
#
# Compressibility (1/GPa) = 0.02042796
#
# Stress axis : x y z
#
# Youngs Moduli (GPa) = 96.31925 79.66494 139.60903
#
# Poissons Ratio (x) = 0.04861 0.20604
# Poissons Ratio (y) = 0.05877 0.38376
# Poissons Ratio (z) = 0.14215 0.21898
#
# Static dielectric constant tensor:
#      x y z
#    x 4.231380 0.000000 0.000000 
#    y 0.000000 4.353220 0.000000 
#    z 0.000000 0.000000 3.758260 
# 
# 
# High freq. dielectric constant tensor:
#      x y z
#    x 1.866970 0.000000 0.000000 
#    y 0.000000 1.876590 0.000000 
#    z 0.000000 0.000000 1.901770 
# 
# From -- ./inp_files/25511.got.cif
#   From: 2010.03.12/outbox.cif.g09.slc.cpg/sg70_13_cif.got.tgz:25511.got - 2010.04.16 13:46:32.
