data_PCOD8285609
_publ_section_title
;
Structure prediction by ZEFSAII (Michael W. Deem and Ramdas Pophale) SiO2 
 PCOD8285609
Probable space group: F M M M
;
_chemical_formula_sum "Si O2"
_cell_formula_units_Z 112
_cell_length_a 16.451610
_cell_length_b 18.269792
_cell_length_c 18.555357
_cell_angle_alpha 90.000000
_cell_angle_beta 90.000000
_cell_angle_gamma 90.000000
_cell_volume 5577.137131
_symmetry_space_group_name_H-M "F M M M"
_symmetry_group_IT_number 69
_symmetry_cell_setting 'orthorhombic'
loop_
_space_group_symop_operation_xyz
x,y,z
-x,-y,z
x,-y,-z
-x,y,-z
-x,-y,-z
x,y,-z
-x,y,z
x,-y,z
x,1/2+y,1/2+z
-x,1/2-y,1/2+z
x,1/2-y,1/2-z
-x,1/2+y,1/2-z
-x,1/2-y,1/2-z
x,1/2+y,1/2-z
-x,1/2+y,1/2+z
x,1/2-y,1/2+z
1/2+x,y,1/2+z
1/2-x,-y,1/2+z
1/2+x,-y,1/2-z
1/2-x,y,1/2-z
1/2-x,-y,1/2-z
1/2+x,y,1/2-z
1/2-x,y,1/2+z
1/2+x,-y,1/2+z
1/2+x,1/2+y,z
1/2-x,1/2-y,z
1/2+x,1/2-y,-z
1/2-x,1/2+y,-z
1/2-x,1/2-y,-z
1/2+x,1/2+y,-z
1/2-x,1/2+y,z
1/2+x,1/2-y,z
loop_
_atom_site_type_symbol
_atom_site_label
_atom_site_fract_x
_atom_site_fract_y
_atom_site_fract_z
Si Si1 0.907258 0.787259 0.327165
Si Si2 0.160133 0.163335 0.914660
Si Si3 0.206596 0.416072 0.173793
Si Si4 0.000000 0.581022 0.585472
O O1 0.899685 0.750000 0.250000
O O2 0.846695 0.744715 0.381741
O O3 0.877375 0.871024 0.323320
O O4 0.000000 0.786608 0.355404
O O5 0.236854 0.117627 0.888086
O O6 0.079554 0.122036 0.886507
O O7 0.165101 0.170067 0.000000
O O8 0.186494 0.500000 0.154625
O O9 0.250000 0.408831 0.250000
O O10 0.000000 0.500000 0.619170
O O11 0.000000 0.577138 0.500000
#
# Coordination Sequence:
#
# PCOD8285609 Si02
#       4
#    32  32  32  16
#     4  11  23  41  64  91 125 167 210 255 309 372
#     4  11  22  39  64  94 124 163 211 257 310 367
#     4  11  24  41  62  91 128 167 207 255 312 372
#     4   9  18  34  57  90 131 161 193 252 311 357
#
# _framework density 20.081987999999999
#
# number of rings (size 3 to 8) (size 9 to 14) (size 15 to 20)
#    0.000    1.286    4.286    1.714    0.000    4.571 
#    0.000    0.000    0.000    0.000    0.000    4.000 
#    0.000    0.000    0.000    0.000    0.000    0.000 
#
# Total GULP energy -347312.808026 kJ/mol
# GULP energy per Si atom -12404.028858 kJ/mol
# Density = 2.003628 g / cm^3
# Si number density = 20.081988 Si / 1000 Ang^3
#
#
#
# Elastic Constant Matrix: (Units=GPa)
#
#
# Indices 1 2 3 4 5 6 
#
# 1 80.6116 54.7053 27.5715 0.0000 0.0000 0.0000
# 2 54.7053 167.1600 37.9726 0.0000 0.0000 0.0000
# 3 27.5715 37.9726 90.3292 0.0000 0.0000 0.0000
# 4 0.0000 0.0000 0.0000 24.7575 0.0000 0.0000
# 5 0.0000 0.0000 0.0000 0.0000 25.2830 0.0000
# 6 0.0000 0.0000 0.0000 0.0000 0.0000 26.8423
#
#
#
# Elastic Compliance Matrix: (Units=1/GPa)
#
#
# Indices 1 2 3 4 5 6 
#
# 1 0.016694 -0.004760 -0.003094 0.000000 0.000000 0.000000
# 2 -0.004760 0.007971 -0.001898 0.000000 0.000000 0.000000
# 3 -0.003094 -0.001898 0.012813 0.000000 0.000000 0.000000
# 4 0.000000 0.000000 0.000000 0.040392 0.000000 0.000000
# 5 0.000000 0.000000 0.000000 0.000000 0.039552 0.000000
# 6 0.000000 0.000000 0.000000 0.000000 0.000000 0.037255
#
#
# Mechanical properties :
#
#
# Convention : Reuss Voigt Hill
#
# Bulk Modulus (GPa) = 55.63944 64.28886 59.96415
# Shear Modulus (GPa) = 27.75096 29.89995 28.82546
#
# Velocity S-wave (km/s) = 3.72140 3.86281 3.79276
# Velocity P-wave (km/s) = 6.79937 7.20956 7.00746
#
# Compressibility (1/GPa) = 0.01797286
#
# Stress axis : x y z
#
# Youngs Moduli (GPa) = 59.90136 125.44921 78.04572
#
# Poissons Ratio (x) = 0.59719 0.24151
# Poissons Ratio (y) = 0.28516 0.14813
# Poissons Ratio (z) = 0.18536 0.23810
#
# Static dielectric constant tensor:
#      x y z
#    x 3.696490 0.000000 0.000000 
#    y 0.000000 3.889020 0.000000 
#    z 0.000000 0.000000 3.441260 
# 
# 
# High freq. dielectric constant tensor:
#      x y z
#    x 1.784630 0.000000 0.000000 
#    y 0.000000 1.793490 0.000000 
#    z 0.000000 0.000000 1.771510 
# 
# From -- ./inp_files/22325.got.cif
#   From: 2010.03.12/outbox.cif.g09.slc.cpg/sg69_12_cif.got.tgz:22325.got - 2010.04.10 23:52:46.
