data_PCOD8285216
_publ_section_title
;
Structure prediction by ZEFSAII (Michael W. Deem and Ramdas Pophale) SiO2 
 PCOD8285216
Probable space group: F M M M
;
_chemical_formula_sum "Si O2"
_cell_formula_units_Z 192
_cell_length_a 17.237522
_cell_length_b 32.156397
_cell_length_c 17.617332
_cell_angle_alpha 90.000000
_cell_angle_beta 90.000000
_cell_angle_gamma 90.000000
_cell_volume 9765.227242
_symmetry_space_group_name_H-M "F M M M"
_symmetry_group_IT_number 69
_symmetry_cell_setting 'orthorhombic'
loop_
_space_group_symop_operation_xyz
x,y,z
-x,-y,z
x,-y,-z
-x,y,-z
-x,-y,-z
x,y,-z
-x,y,z
x,-y,z
x,1/2+y,1/2+z
-x,1/2-y,1/2+z
x,1/2-y,1/2-z
-x,1/2+y,1/2-z
-x,1/2-y,1/2-z
x,1/2+y,1/2-z
-x,1/2+y,1/2+z
x,1/2-y,1/2+z
1/2+x,y,1/2+z
1/2-x,-y,1/2+z
1/2+x,-y,1/2-z
1/2-x,y,1/2-z
1/2-x,-y,1/2-z
1/2+x,y,1/2-z
1/2-x,y,1/2+z
1/2+x,-y,1/2+z
1/2+x,1/2+y,z
1/2-x,1/2-y,z
1/2+x,1/2-y,-z
1/2-x,1/2+y,-z
1/2-x,1/2-y,-z
1/2+x,1/2+y,-z
1/2-x,1/2+y,z
1/2+x,1/2-y,z
loop_
_atom_site_type_symbol
_atom_site_label
_atom_site_fract_x
_atom_site_fract_y
_atom_site_fract_z
Si Si1 0.647039 0.904900 0.911221
Si Si2 0.335512 0.179038 0.162899
Si Si3 0.410289 0.243943 0.414248
Si Si4 0.844473 0.666914 0.664910
Si Si5 0.820422 0.918232 0.090492
Si Si6 0.000000 0.453304 0.909202
Si Si7 0.911885 0.000000 0.090051
O O1 0.632532 0.856730 0.892183
O O2 0.730686 0.921249 0.881622
O O3 0.577186 0.931656 0.875258
O O4 0.644611 0.910679 0.000000
O O5 0.366110 0.223706 0.138759
O O6 0.243528 0.181371 0.155330
O O7 0.365978 0.167947 0.246621
O O8 0.377563 0.245993 0.500000
O O9 0.500000 0.255469 0.413055
O O10 0.399025 0.197917 0.381525
O O11 0.859707 0.621036 0.631650
O O12 0.865894 0.959189 0.118264
O O13 0.825402 0.912021 0.000000
O O14 0.000000 0.500000 0.878933
O O15 0.000000 0.451228 0.000000
O O16 0.000000 0.000000 0.122239
O O17 0.913935 0.000000 0.000000
#
# Coordination Sequence:
#
# PCOD8285216 Si02
#       7
#    32  32  32  32  32  16  16
#     4   9  18  32  53  80 109 144 183 226 275 326
#     4  10  21  37  58  80 111 145 185 223 271 327
#     4  11  24  38  55  82 112 143 182 228 275 325
#     4  10  21  38  58  81 110 145 184 225 275 328
#     4   9  18  33  56  81 108 142 183 229 279 330
#     4   9  18  30  50  80 111 140 179 231 280 324
#     4   9  18  32  54  82 107 139 184 234 283 327
#
# _framework density 19.6616
#
# number of rings (size 3 to 8) (size 9 to 14) (size 15 to 20)
#    0.000    2.333    0.000    2.000    2.333    6.000 
#    0.000    1.667    1.833    2.000    0.000    0.000 
#    0.000    0.000    0.000    0.000    0.000    0.000 
#
# Total GULP energy -595255.561899 kJ/mol
# GULP energy per Si atom -12401.157540 kJ/mol
# Density = 1.961685 g / cm^3
# Si number density = 19.661600 Si / 1000 Ang^3
#
#
#
# Elastic Constant Matrix: (Units=GPa)
#
#
# Indices 1 2 3 4 5 6 
#
# 1 82.8509 62.4321 19.9108 0.0000 0.0000 0.0000
# 2 62.4321 150.9434 17.8123 0.0000 0.0000 0.0000
# 3 19.9108 17.8123 31.8809 0.0000 0.0000 0.0000
# 4 0.0000 0.0000 0.0000 9.8739 0.0000 0.0000
# 5 0.0000 0.0000 0.0000 0.0000 16.8816 0.0000
# 6 0.0000 0.0000 0.0000 0.0000 0.0000 31.4751
#
#
#
# Elastic Compliance Matrix: (Units=1/GPa)
#
#
# Indices 1 2 3 4 5 6 
#
# 1 0.019326 -0.007033 -0.008140 0.000000 0.000000 0.000000
# 2 -0.007033 0.009652 -0.001000 0.000000 0.000000 0.000000
# 3 -0.008140 -0.001000 0.037010 0.000000 0.000000 0.000000
# 4 0.000000 0.000000 0.000000 0.101277 0.000000 0.000000
# 5 0.000000 0.000000 0.000000 0.000000 0.059236 0.000000
# 6 0.000000 0.000000 0.000000 0.000000 0.000000 0.031771
#
#
# Mechanical properties :
#
#
# Convention : Reuss Voigt Hill
#
# Bulk Modulus (GPa) = 29.72634 51.77619 40.75127
# Shear Modulus (GPa) = 16.56551 22.68079 19.62315
#
# Velocity S-wave (km/s) = 2.90579 3.40009 3.16261
# Velocity P-wave (km/s) = 5.13906 6.46568 5.84016
#
# Compressibility (1/GPa) = 0.03364020
#
# Stress axis : x y z
#
# Youngs Moduli (GPa) = 51.74463 103.60675 27.01999
#
# Poissons Ratio (x) = 0.72864 0.21995
# Poissons Ratio (y) = 0.36391 0.02703
# Poissons Ratio (z) = 0.42122 0.10365
#
# Static dielectric constant tensor:
#      x y z
#    x 3.743750 0.000000 0.000000 
#    y 0.000000 3.605490 0.000000 
#    z 0.000000 0.000000 3.396750 
# 
# 
# High freq. dielectric constant tensor:
#      x y z
#    x 1.765710 0.000000 0.000000 
#    y 0.000000 1.773030 0.000000 
#    z 0.000000 0.000000 1.744080 
# 
# From -- ./inp_files/23760.got.cif
#   From: 2010.03.12/outbox.cif.g09.slc.cpg/sg69_12_cif.got.tgz:23760.got - 2010.04.10 23:52:46.
