data_PCOD8285761
_publ_section_title
;
Structure prediction by ZEFSAII (Michael W. Deem and Ramdas Pophale) SiO2 
 PCOD8285761
Probable space group: F D D D
;
_chemical_formula_sum "Si O2"
_cell_formula_units_Z 112
_cell_length_a 15.970818
_cell_length_b 9.872582
_cell_length_c 36.275855
_cell_angle_alpha 90.000000
_cell_angle_beta 90.000000
_cell_angle_gamma 90.000000
_cell_volume 5719.730515
_symmetry_space_group_name_H-M "F D D D"
_symmetry_group_IT_number 70
_space_group.IT_coordinate_system_code '2'
_symmetry_cell_setting 'orthorhombic'
loop_
_space_group_symop_operation_xyz
x,y,z
1/4-x,1/4-y,z
x,1/4-y,1/4-z
1/4-x,y,1/4-z
-x,-y,-z
3/4+x,3/4+y,-z
-x,3/4+y,3/4+z
3/4+x,-y,3/4+z
x,1/2+y,1/2+z
1/4-x,3/4-y,1/2+z
x,3/4-y,3/4-z
1/4-x,1/2+y,3/4-z
-x,1/2-y,1/2-z
3/4+x,1/4+y,1/2-z
-x,1/4+y,1/4+z
3/4+x,1/2-y,1/4+z
1/2+x,y,1/2+z
3/4-x,1/4-y,1/2+z
1/2+x,1/4-y,3/4-z
3/4-x,y,3/4-z
1/2-x,-y,1/2-z
1/4+x,3/4+y,1/2-z
1/2-x,3/4+y,1/4+z
1/4+x,-y,1/4+z
1/2+x,1/2+y,z
3/4-x,3/4-y,z
1/2+x,3/4-y,1/4-z
3/4-x,1/2+y,1/4-z
1/2-x,1/2-y,-z
1/4+x,1/4+y,-z
1/2-x,1/4+y,3/4+z
1/4+x,1/2-y,3/4+z
loop_
_atom_site_type_symbol
_atom_site_label
_atom_site_fract_x
_atom_site_fract_y
_atom_site_fract_z
Si Si1 0.349348 0.231536 0.172501
Si Si2 0.761034 0.625000 0.625000
Si Si3 0.964419 0.081676 0.886397
Si Si4 0.953139 0.769611 0.712067
O O1 0.375000 0.375000 0.190185
O O2 0.430101 0.148394 0.159951
O O3 0.286404 0.259883 0.138020
O O4 0.316083 0.137934 0.204735
O O5 0.705468 0.757867 0.630191
O O6 0.875000 0.016952 0.875000
O O7 0.984551 0.064013 0.929421
O O8 0.875000 0.875000 0.714623
O O9 0.000000 0.750000 0.750000
#
# Coordination Sequence:
#
# PCOD8285761 Si02
#       4
#    32  16  32  32
#     4  10  20  40  67  88 122 170 217 261 318 378
#     4  10  17  40  63  90 122 168 202 282 313 364
#     4  11  22  37  67  99 126 160 230 270 316 380
#     4  12  25  43  63  93 137 174 209 269 335 392
#
# _framework density 19.581340999999998
#
# number of rings (size 3 to 8) (size 9 to 14) (size 15 to 20)
#    0.000    1.143    5.714    1.286    4.000    1.143 
#    0.000    4.286    0.000    0.000    0.000    0.000 
#    0.000    0.000    0.000    0.000    0.000    0.000 
#
# Total GULP energy -346874.269163 kJ/mol
# GULP energy per Si atom -12388.366756 kJ/mol
# Density = 1.953677 g / cm^3
# Si number density = 19.581341 Si / 1000 Ang^3
#
#
#
# Elastic Constant Matrix: (Units=GPa)
#
#
# Indices 1 2 3 4 5 6 
#
# 1 108.4247 33.3973 58.0102 0.0000 0.0000 0.0000
# 2 33.3973 123.1724 56.3287 0.0000 0.0000 0.0000
# 3 58.0102 56.3287 148.7887 0.0000 0.0000 0.0000
# 4 0.0000 0.0000 0.0000 20.7926 0.0000 0.0000
# 5 0.0000 0.0000 0.0000 0.0000 33.7059 0.0000
# 6 0.0000 0.0000 0.0000 0.0000 0.0000 5.2299
#
#
#
# Elastic Compliance Matrix: (Units=1/GPa)
#
#
# Indices 1 2 3 4 5 6 
#
# 1 0.011831 -0.001328 -0.004110 0.000000 0.000000 0.000000
# 2 -0.001328 0.009968 -0.003256 0.000000 0.000000 0.000000
# 3 -0.004110 -0.003256 0.009556 0.000000 0.000000 0.000000
# 4 0.000000 0.000000 0.000000 0.048094 0.000000 0.000000
# 5 0.000000 0.000000 0.000000 0.000000 0.029668 0.000000
# 6 0.000000 0.000000 0.000000 0.000000 0.000000 0.191208
#
#
# Mechanical properties :
#
#
# Convention : Reuss Voigt Hill
#
# Bulk Modulus (GPa) = 71.59834 75.09537 73.34686
# Shear Modulus (GPa) = 15.51018 27.45563 21.48290
#
# Velocity S-wave (km/s) = 2.81746 3.74857 3.31586
# Velocity P-wave (km/s) = 6.87227 7.56105 7.22487
#
# Compressibility (1/GPa) = 0.01396680
#
# Stress axis : x y z
#
# Youngs Moduli (GPa) = 84.52342 100.32337 104.64817
#
# Poissons Ratio (x) = 0.13327 0.43008
# Poissons Ratio (y) = 0.11228 0.34070
# Poissons Ratio (z) = 0.34738 0.32662
#
# Static dielectric constant tensor:
#      x y z
#    x 3.808150 0.000000 0.000000 
#    y 0.000000 2.433510 0.000000 
#    z 0.000000 0.000000 3.221770 
# 
# 
# High freq. dielectric constant tensor:
#      x y z
#    x 1.760290 0.000000 0.000000 
#    y 0.000000 1.795670 0.000000 
#    z 0.000000 0.000000 1.733050 
# 
# From -- ./inp_files/33188.got.cif
#   From: 2010.03.12/outbox.cif.g09.slc.cpg/sg70_17_cif.got.tgz:33188.got - 2010.04.16 13:46:32.
