data_PCOD8285911
_publ_section_title
;
Structure prediction by ZEFSAII (Michael W. Deem and Ramdas Pophale) SiO2 
 PCOD8285911
Probable space group: F D D D
;
_chemical_formula_sum "Si O2"
_cell_formula_units_Z 144
_cell_length_a 26.715261
_cell_length_b 20.743364
_cell_length_c 12.495595
_cell_angle_alpha 90.000000
_cell_angle_beta 90.000000
_cell_angle_gamma 90.000000
_cell_volume 6924.613697
_symmetry_space_group_name_H-M "F D D D"
_symmetry_group_IT_number 70
_space_group.IT_coordinate_system_code '2'
_symmetry_cell_setting 'orthorhombic'
loop_
_space_group_symop_operation_xyz
x,y,z
1/4-x,1/4-y,z
x,1/4-y,1/4-z
1/4-x,y,1/4-z
-x,-y,-z
3/4+x,3/4+y,-z
-x,3/4+y,3/4+z
3/4+x,-y,3/4+z
x,1/2+y,1/2+z
1/4-x,3/4-y,1/2+z
x,3/4-y,3/4-z
1/4-x,1/2+y,3/4-z
-x,1/2-y,1/2-z
3/4+x,1/4+y,1/2-z
-x,1/4+y,1/4+z
3/4+x,1/2-y,1/4+z
1/2+x,y,1/2+z
3/4-x,1/4-y,1/2+z
1/2+x,1/4-y,3/4-z
3/4-x,y,3/4-z
1/2-x,-y,1/2-z
1/4+x,3/4+y,1/2-z
1/2-x,3/4+y,1/4+z
1/4+x,-y,1/4+z
1/2+x,1/2+y,z
3/4-x,3/4-y,z
1/2+x,3/4-y,1/4-z
3/4-x,1/2+y,1/4-z
1/2-x,1/2-y,-z
1/4+x,1/4+y,-z
1/2-x,1/4+y,3/4+z
1/4+x,1/2-y,3/4+z
loop_
_atom_site_type_symbol
_atom_site_label
_atom_site_fract_x
_atom_site_fract_y
_atom_site_fract_z
Si Si1 0.913584 0.428073 0.122945
Si Si2 0.845017 0.735506 0.270890
Si Si3 0.354620 0.125000 0.125000
Si Si4 0.164255 0.464784 0.529963
Si Si5 0.013953 0.593483 0.237507
O O1 0.875000 0.375000 0.164099
O O2 0.930177 0.466741 0.228459
O O3 0.887336 0.475732 0.041063
O O4 0.960343 0.395883 0.063417
O O5 0.875000 0.709850 0.375000
O O6 0.823816 0.673177 0.204218
O O7 0.799451 0.783564 0.294686
O O8 0.388923 0.079223 0.193199
O O9 0.125000 0.475765 0.625000
O O10 0.216798 0.430440 0.559039
O O11 0.996984 0.625000 0.125000
#
# Coordination Sequence:
#
# PCOD8285911 Si02
#       5
#    32  32  16  32  32
#     4   9  21  39  63  97 131 168 217 267 337 403
#     4  10  19  36  64  95 132 167 206 281 340 390
#     4  10  22  38  56  90 132 172 214 260 338 400
#     4  11  24  41  60  91 137 178 216 271 330 404
#     4  11  21  39  70 104 128 162 228 288 338 390
#
# _framework density 20.795383000000001
#
# number of rings (size 3 to 8) (size 9 to 14) (size 15 to 20)
#    0.000    1.778    3.333    0.667    0.000    4.889 
#    0.000   12.222    0.000    0.000    0.000    0.000 
#    0.000    0.000    0.000    0.000    0.000    0.000 
#
# Total GULP energy -446067.338508 kJ/mol
# GULP energy per Si atom -12390.759403 kJ/mol
# Density = 2.074805 g / cm^3
# Si number density = 20.795383 Si / 1000 Ang^3
#
#
#
# Elastic Constant Matrix: (Units=GPa)
#
#
# Indices 1 2 3 4 5 6 
#
# 1 102.1597 34.2536 52.0219 0.0000 0.0000 0.0000
# 2 34.2536 122.2897 61.8373 0.0000 0.0000 0.0000
# 3 52.0219 61.8373 102.0737 0.0000 0.0000 0.0000
# 4 0.0000 0.0000 0.0000 61.5170 0.0000 0.0000
# 5 0.0000 0.0000 0.0000 0.0000 3.1069 0.0000
# 6 0.0000 0.0000 0.0000 0.0000 0.0000 15.4685
#
#
#
# Elastic Compliance Matrix: (Units=1/GPa)
#
#
# Indices 1 2 3 4 5 6 
#
# 1 0.013235 -0.000427 -0.006486 0.000000 0.000000 0.000000
# 2 -0.000427 0.011802 -0.006932 0.000000 0.000000 0.000000
# 3 -0.006486 -0.006932 0.017302 0.000000 0.000000 0.000000
# 4 0.000000 0.000000 0.000000 0.016256 0.000000 0.000000
# 5 0.000000 0.000000 0.000000 0.000000 0.321862 0.000000
# 6 0.000000 0.000000 0.000000 0.000000 0.000000 0.064648
#
#
# Mechanical properties :
#
#
# Convention : Reuss Voigt Hill
#
# Bulk Modulus (GPa) = 68.26958 69.19432 68.73195
# Shear Modulus (GPa) = 10.46728 27.91251 19.18990
#
# Velocity S-wave (km/s) = 2.24597 3.66764 3.04105
# Velocity P-wave (km/s) = 6.29494 7.16112 6.74195
#
# Compressibility (1/GPa) = 0.01464781
#
# Stress axis : x y z
#
# Youngs Moduli (GPa) = 75.55831 84.72897 57.79605
#
# Poissons Ratio (x) = 0.03620 0.37488
# Poissons Ratio (y) = 0.03228 0.40066
# Poissons Ratio (z) = 0.49010 0.58736
#
# Static dielectric constant tensor:
#      x y z
#    x 3.826900 0.000000 0.000000 
#    y 0.000000 4.602590 0.000000 
#    z 0.000000 0.000000 3.553060 
# 
# 
# High freq. dielectric constant tensor:
#      x y z
#    x 1.794710 0.000000 0.000000 
#    y 0.000000 1.833730 0.000000 
#    z 0.000000 0.000000 1.799820 
# 
# From -- ./inp_files/20633.got.cif
#   From: 2010.03.12/outbox.cif.g09.slc.cpg/sg70_11_cif.got.tgz:20633.got - 2010.04.16 13:46:32.
