data_PCOD8285042
_publ_section_title
;
Structure prediction by ZEFSAII (Michael W. Deem and Ramdas Pophale) SiO2 
 PCOD8285042
Probable space group: F M M M
;
_chemical_formula_sum "Si O2"
_cell_formula_units_Z 128
_cell_length_a 13.465828
_cell_length_b 21.048943
_cell_length_c 20.505662
_cell_angle_alpha 90.000000
_cell_angle_beta 90.000000
_cell_angle_gamma 90.000000
_cell_volume 5812.154489
_symmetry_space_group_name_H-M "F M M M"
_symmetry_group_IT_number 69
_symmetry_cell_setting 'orthorhombic'
loop_
_space_group_symop_operation_xyz
x,y,z
-x,-y,z
x,-y,-z
-x,y,-z
-x,-y,-z
x,y,-z
-x,y,z
x,-y,z
x,1/2+y,1/2+z
-x,1/2-y,1/2+z
x,1/2-y,1/2-z
-x,1/2+y,1/2-z
-x,1/2-y,1/2-z
x,1/2+y,1/2-z
-x,1/2+y,1/2+z
x,1/2-y,1/2+z
1/2+x,y,1/2+z
1/2-x,-y,1/2+z
1/2+x,-y,1/2-z
1/2-x,y,1/2-z
1/2-x,-y,1/2-z
1/2+x,y,1/2-z
1/2-x,y,1/2+z
1/2+x,-y,1/2+z
1/2+x,1/2+y,z
1/2-x,1/2-y,z
1/2+x,1/2-y,-z
1/2-x,1/2+y,-z
1/2-x,1/2-y,-z
1/2+x,1/2+y,-z
1/2-x,1/2+y,z
1/2+x,1/2-y,z
loop_
_atom_site_type_symbol
_atom_site_label
_atom_site_fract_x
_atom_site_fract_y
_atom_site_fract_z
Si Si1 0.387003 0.500000 0.368593
Si Si2 0.756897 0.104338 0.856445
Si Si3 0.113632 0.000000 0.212975
Si Si4 0.607736 0.206394 0.189636
Si Si5 0.349586 0.287779 0.929506
O O1 0.500000 0.500000 0.395612
O O2 0.326323 0.438392 0.393559
O O3 0.384141 0.500000 0.290485
O O4 0.828773 0.062694 0.810834
O O5 0.695994 0.156040 0.814688
O O6 0.826400 0.139555 0.908719
O O7 0.000000 0.000000 0.187178
O O8 0.500000 0.172720 0.201497
O O9 0.637217 0.250000 0.250000
O O10 0.590588 0.250799 0.126173
O O11 0.250000 0.250000 0.939920
O O12 0.405785 0.289776 0.000000
#
# Coordination Sequence:
#
# PCOD8285042 Si02
#       5
#    16  32  16  32  32
#     4  10  21  35  56  86 118 155 203 254 312 366
#     4  10  20  37  60  81 118 156 201 248 309 359
#     4  10  23  37  56  86 118 157 204 253 305 365
#     4  10  22  35  57  93 125 154 198 250 302 365
#     4   9  20  37  58  84 119 163 203 241 297 366
#
# _framework density 22.022815999999999
#
# number of rings (size 3 to 8) (size 9 to 14) (size 15 to 20)
#    0.000    2.250    0.000    2.250    7.000    5.000 
#    0.000    2.500    0.000    4.500    0.000    0.000 
#    0.000    0.000    0.000    0.000    0.000    0.000 
#
# Total GULP energy -396512.052626 kJ/mol
# GULP energy per Si atom -12391.001645 kJ/mol
# Density = 2.197269 g / cm^3
# Si number density = 22.022816 Si / 1000 Ang^3
#
#
#
# Elastic Constant Matrix: (Units=GPa)
#
#
# Indices 1 2 3 4 5 6 
#
# 1 128.1055 46.3718 13.7100 0.0000 0.0000 0.0000
# 2 46.3718 126.4563 41.3859 0.0000 0.0000 0.0000
# 3 13.7100 41.3859 94.3079 0.0000 0.0000 0.0000
# 4 0.0000 0.0000 0.0000 24.8304 0.0000 0.0000
# 5 0.0000 0.0000 0.0000 0.0000 -145.2604 0.0000
# 6 0.0000 0.0000 0.0000 0.0000 0.0000 22.8629
#
#
#
# Elastic Compliance Matrix: (Units=1/GPa)
#
#
# Indices 1 2 3 4 5 6 
#
# 1 0.009003 -0.003355 0.000163 0.000000 0.000000 0.000000
# 2 -0.003355 0.010484 -0.004113 0.000000 0.000000 0.000000
# 3 0.000163 -0.004113 0.012385 0.000000 0.000000 0.000000
# 4 0.000000 0.000000 0.000000 0.040273 0.000000 0.000000
# 5 0.000000 0.000000 0.000000 0.000000 -0.006884 0.000000
# 6 0.000000 0.000000 0.000000 0.000000 0.000000 0.043739
#
#
# Mechanical properties :
#
#
# Convention : Reuss Voigt Hill
#
# Bulk Modulus (GPa) = 57.92800 61.31169 59.61984
# Shear Modulus (GPa) = 38.65074 -3.01995 17.81540
#
# Velocity S-wave (km/s) = 4.19385 -1.17229 2.84729
# Velocity P-wave (km/s) = 7.05776 5.10570 6.15955
#
# Compressibility (1/GPa) = 0.01726281
#
# Stress axis : x y z
#
# Youngs Moduli (GPa) = 111.07419 95.38102 80.74399
#
# Poissons Ratio (x) = 0.32000 -0.01320
# Poissons Ratio (y) = 0.37264 0.33211
# Poissons Ratio (z) = -0.01816 0.39232
#
# Static dielectric constant tensor:
#      x y z
#    x 4.202890 0.000000 0.000000 
#    y 0.000000 4.286170 0.000000 
#    z 0.000000 0.000000 4.152780 
# 
# 
# High freq. dielectric constant tensor:
#      x y z
#    x 1.879070 0.000000 0.000000 
#    y 0.000000 1.867400 0.000000 
#    z 0.000000 0.000000 1.835120 
# 
# From -- ./inp_files/29667.got.cif
#   From: 2010.03.12/outbox.cif.g09.slc.cpg/sg69_15_cif.got.tgz:29667.got - 2010.04.10 23:52:46.
