data_PCOD8285059
_publ_section_title
;
Structure prediction by ZEFSAII (Michael W. Deem and Ramdas Pophale) SiO2 
 PCOD8285059
Probable space group: F M M M
;
_chemical_formula_sum "Si O2"
_cell_formula_units_Z 160
_cell_length_a 27.027552
_cell_length_b 10.772679
_cell_length_c 29.787176
_cell_angle_alpha 90.000000
_cell_angle_beta 90.000000
_cell_angle_gamma 90.000000
_cell_volume 8672.808602
_symmetry_space_group_name_H-M "F M M M"
_symmetry_group_IT_number 69
_symmetry_cell_setting 'orthorhombic'
loop_
_space_group_symop_operation_xyz
x,y,z
-x,-y,z
x,-y,-z
-x,y,-z
-x,-y,-z
x,y,-z
-x,y,z
x,-y,z
x,1/2+y,1/2+z
-x,1/2-y,1/2+z
x,1/2-y,1/2-z
-x,1/2+y,1/2-z
-x,1/2-y,1/2-z
x,1/2+y,1/2-z
-x,1/2+y,1/2+z
x,1/2-y,1/2+z
1/2+x,y,1/2+z
1/2-x,-y,1/2+z
1/2+x,-y,1/2-z
1/2-x,y,1/2-z
1/2-x,-y,1/2-z
1/2+x,y,1/2-z
1/2-x,y,1/2+z
1/2+x,-y,1/2+z
1/2+x,1/2+y,z
1/2-x,1/2-y,z
1/2+x,1/2-y,-z
1/2-x,1/2+y,-z
1/2-x,1/2-y,-z
1/2+x,1/2+y,-z
1/2-x,1/2+y,z
1/2+x,1/2-y,z
loop_
_atom_site_type_symbol
_atom_site_label
_atom_site_fract_x
_atom_site_fract_y
_atom_site_fract_z
Si Si1 0.944144 0.206898 0.949892
Si Si2 0.715382 0.633921 0.500000
Si Si3 0.694513 0.257716 0.339348
Si Si4 0.649089 0.000000 0.689689
Si Si5 0.302345 0.500000 0.723268
Si Si6 0.359067 0.363181 0.580337
Si Si7 0.942407 0.500000 0.622811
O O1 0.909862 0.325286 0.943316
O O2 0.000000 0.253464 0.945513
O O3 0.931200 0.114234 0.909747
O O4 0.935556 0.148664 0.000000
O O5 0.743835 0.500000 0.500000
O O6 0.750000 0.750000 0.500000
O O7 0.683435 0.641948 0.544124
O O8 0.750000 0.250000 0.358777
O O9 0.692766 0.372590 0.304765
O O10 0.655451 0.275091 0.378960
O O11 0.680474 0.123591 0.320264
O O12 0.649083 0.000000 0.744001
O O13 0.594696 0.000000 0.665924
O O14 0.250000 0.500000 0.750000
O O15 0.365942 0.500000 0.600077
O O16 0.000000 0.500000 0.639552
#
# Coordination Sequence:
#
# PCOD8285059 Si02
#       7
#    32  16  32  16  16  32  16
#     4  10  20  37  62  89 118 155 202 257 306 354
#     4  10  22  42  57  79 120 166 203 239 287 358
#     4  12  23  40  61  90 125 158 203 247 301 364
#     4  12  24  37  66  94 118 160 200 251 316 356
#     4  12  24  42  63  90 125 157 196 257 309 363
#     4  11  22  38  58  84 121 161 198 246 303 358
#     4  10  21  40  62  90 124 156 202 257 307 369
#
# _framework density 18.448464000000001
#
# number of rings (size 3 to 8) (size 9 to 14) (size 15 to 20)
#    0.000    1.000    6.000    1.500    0.000    1.600 
#    3.600    1.000    0.000    3.600    0.000    0.000 
#    0.000    0.000    0.000    0.000    0.000    0.000 
#
# Total GULP energy -495589.322291 kJ/mol
# GULP energy per Si atom -12389.733057 kJ/mol
# Density = 1.840647 g / cm^3
# Si number density = 18.448464 Si / 1000 Ang^3
#
#
#
# Elastic Constant Matrix: (Units=GPa)
#
#
# Indices 1 2 3 4 5 6 
#
# 1 105.9507 50.9540 41.5160 0.0000 0.0000 0.0000
# 2 50.9540 140.4558 36.2955 0.0000 0.0000 0.0000
# 3 41.5160 36.2955 94.7842 0.0000 0.0000 0.0000
# 4 0.0000 0.0000 0.0000 40.3110 0.0000 0.0000
# 5 0.0000 0.0000 0.0000 0.0000 35.4491 0.0000
# 6 0.0000 0.0000 0.0000 0.0000 0.0000 26.3798
#
#
#
# Elastic Compliance Matrix: (Units=1/GPa)
#
#
# Indices 1 2 3 4 5 6 
#
# 1 0.012811 -0.003549 -0.004253 0.000000 0.000000 0.000000
# 2 -0.003549 0.008885 -0.001848 0.000000 0.000000 0.000000
# 3 -0.004253 -0.001848 0.013120 0.000000 0.000000 0.000000
# 4 0.000000 0.000000 0.000000 0.024807 0.000000 0.000000
# 5 0.000000 0.000000 0.000000 0.000000 0.028209 0.000000
# 6 0.000000 0.000000 0.000000 0.000000 0.000000 0.037908
#
#
# Mechanical properties :
#
#
# Convention : Reuss Voigt Hill
#
# Bulk Modulus (GPa) = 64.44008 66.52463 65.48235
# Shear Modulus (GPa) = 33.28637 34.58966 33.93801
#
# Velocity S-wave (km/s) = 4.25230 4.33475 4.29372
# Velocity P-wave (km/s) = 7.68863 7.82249 7.75585
#
# Compressibility (1/GPa) = 0.01551829
#
# Stress axis : x y z
#
# Youngs Moduli (GPa) = 78.05581 112.55473 76.21678
#
# Poissons Ratio (x) = 0.39943 0.32411
# Poissons Ratio (y) = 0.27700 0.14083
# Poissons Ratio (z) = 0.33193 0.20798
#
# Static dielectric constant tensor:
#      x y z
#    x 3.420300 0.000000 0.000000 
#    y 0.000000 3.592550 0.000000 
#    z 0.000000 0.000000 3.637270 
# 
# 
# High freq. dielectric constant tensor:
#      x y z
#    x 1.704480 0.000000 0.000000 
#    y 0.000000 1.729720 0.000000 
#    z 0.000000 0.000000 1.718670 
# 
# From -- ./inp_files/43521.got.cif
#   From: 2010.03.12/outbox.cif.g09.slc.cpg/sg69_22_cif.got.tgz:43521.got - 2010.04.10 23:52:46.
