data_PCOD8285735
_publ_section_title
;
Structure prediction by ZEFSAII (Michael W. Deem and Ramdas Pophale) SiO2 
 PCOD8285735
Probable space group: F D D D
;
_chemical_formula_sum "Si O2"
_cell_formula_units_Z 176
_cell_length_a 17.703259
_cell_length_b 19.837463
_cell_length_c 24.700759
_cell_angle_alpha 90.000000
_cell_angle_beta 90.000000
_cell_angle_gamma 90.000000
_cell_volume 8674.603863
_symmetry_space_group_name_H-M "F D D D"
_symmetry_group_IT_number 70
_space_group.IT_coordinate_system_code '2'
_symmetry_cell_setting 'orthorhombic'
loop_
_space_group_symop_operation_xyz
x,y,z
1/4-x,1/4-y,z
x,1/4-y,1/4-z
1/4-x,y,1/4-z
-x,-y,-z
3/4+x,3/4+y,-z
-x,3/4+y,3/4+z
3/4+x,-y,3/4+z
x,1/2+y,1/2+z
1/4-x,3/4-y,1/2+z
x,3/4-y,3/4-z
1/4-x,1/2+y,3/4-z
-x,1/2-y,1/2-z
3/4+x,1/4+y,1/2-z
-x,1/4+y,1/4+z
3/4+x,1/2-y,1/4+z
1/2+x,y,1/2+z
3/4-x,1/4-y,1/2+z
1/2+x,1/4-y,3/4-z
3/4-x,y,3/4-z
1/2-x,-y,1/2-z
1/4+x,3/4+y,1/2-z
1/2-x,3/4+y,1/4+z
1/4+x,-y,1/4+z
1/2+x,1/2+y,z
3/4-x,3/4-y,z
1/2+x,3/4-y,1/4-z
3/4-x,1/2+y,1/4-z
1/2-x,1/2-y,-z
1/4+x,1/4+y,-z
1/2-x,1/4+y,3/4+z
1/4+x,1/2-y,3/4+z
loop_
_atom_site_type_symbol
_atom_site_label
_atom_site_fract_x
_atom_site_fract_y
_atom_site_fract_z
Si Si1 0.518666 0.688001 0.355716
Si Si2 0.709857 0.102204 0.297347
Si Si3 0.875000 0.875000 0.023551
Si Si4 0.660683 0.477231 0.860705
Si Si5 0.569922 0.393447 0.291391
Si Si6 0.667870 0.991446 0.724625
O O1 0.498083 0.653359 0.412133
O O2 0.551122 0.632416 0.312454
O O3 0.585486 0.741895 0.363348
O O4 0.440315 0.723886 0.337449
O O5 0.625000 0.125000 0.288260
O O6 0.750010 0.108078 0.239493
O O7 0.711557 0.028847 0.325636
O O8 0.881366 0.809319 0.984260
O O9 0.707582 0.447047 0.912361
O O10 0.635447 0.417044 0.820884
O O11 0.625711 0.427324 0.248926
O O12 0.750000 0.000000 0.750000
#
# Coordination Sequence:
#
# PCOD8285735 Si02
#       6
#    32  32  16  32  32  32
#     4  10  18  39  64  82 127 169 201 240 320 378
#     4  10  21  41  62  84 123 167 207 253 316 369
#     4  10  16  36  62  85 128 165 190 248 308 366
#     4  10  20  39  60  91 116 166 205 256 313 374
#     4  11  21  37  66  89 123 158 211 260 308 367
#     4  10  20  36  62  94 121 159 208 244 310 385
#
# _framework density 20.289111999999999
#
# number of rings (size 3 to 8) (size 9 to 14) (size 15 to 20)
#    0.000    1.818    6.364    0.545    0.000    0.727 
#   19.636    1.818    8.000    0.000    0.000    0.000 
#    0.000    0.000    0.000    0.000    0.000    0.000 
#
# Total GULP energy -545106.550239 kJ/mol
# GULP energy per Si atom -12388.785233 kJ/mol
# Density = 2.024293 g / cm^3
# Si number density = 20.289112 Si / 1000 Ang^3
#
#
#
# Elastic Constant Matrix: (Units=GPa)
#
#
# Indices 1 2 3 4 5 6 
#
# 1 55.0337 46.7578 49.3244 0.0000 0.0000 0.0000
# 2 46.7578 122.7560 72.3103 0.0000 0.0000 0.0000
# 3 49.3244 72.3103 106.4892 0.0000 0.0000 0.0000
# 4 0.0000 0.0000 0.0000 30.0553 0.0000 0.0000
# 5 0.0000 0.0000 0.0000 0.0000 24.6660 0.0000
# 6 0.0000 0.0000 0.0000 0.0000 0.0000 16.4365
#
#
#
# Elastic Compliance Matrix: (Units=1/GPa)
#
#
# Indices 1 2 3 4 5 6 
#
# 1 0.033559 -0.006044 -0.011440 0.000000 0.000000 0.000000
# 2 -0.006044 0.014665 -0.007159 0.000000 0.000000 0.000000
# 3 -0.011440 -0.007159 0.019551 0.000000 0.000000 0.000000
# 4 0.000000 0.000000 0.000000 0.033272 0.000000 0.000000
# 5 0.000000 0.000000 0.000000 0.000000 0.040542 0.000000
# 6 0.000000 0.000000 0.000000 0.000000 0.000000 0.060840
#
#
# Mechanical properties :
#
#
# Convention : Reuss Voigt Hill
#
# Bulk Modulus (GPa) = 54.08510 69.00709 61.54609
# Shear Modulus (GPa) = 19.38906 21.95732 20.67319
#
# Velocity S-wave (km/s) = 3.09469 3.29328 3.19553
# Velocity P-wave (km/s) = 6.28368 6.96754 6.63443
#
# Compressibility (1/GPa) = 0.01848938
#
# Stress axis : x y z
#
# Youngs Moduli (GPa) = 29.79840 68.18814 51.14897
#
# Poissons Ratio (x) = 0.41211 0.58515
# Poissons Ratio (y) = 0.18009 0.36617
# Poissons Ratio (z) = 0.34090 0.48816
#
# Static dielectric constant tensor:
#      x y z
#    x 3.626120 0.000000 0.000000 
#    y 0.000000 4.175690 0.000000 
#    z 0.000000 0.000000 4.383590 
# 
# 
# High freq. dielectric constant tensor:
#      x y z
#    x 1.745210 0.000000 0.000000 
#    y 0.000000 1.803970 0.000000 
#    z 0.000000 0.000000 1.804440 
# 
# From -- ./inp_files/59456.got.cif
#   From: 2010.03.12/outbox.cif.g09.slc.cpg/sg70_30_cif.got.tgz:59456.got - 2010.04.16 13:46:32.
