data_PCOD8285025
_publ_section_title
;
Structure prediction by ZEFSAII (Michael W. Deem and Ramdas Pophale) SiO2 
 PCOD8285025
Probable space group: F M M M
;
_chemical_formula_sum "Si O2"
_cell_formula_units_Z 160
_cell_length_a 15.888539
_cell_length_b 18.770640
_cell_length_c 28.393574
_cell_angle_alpha 90.000000
_cell_angle_beta 90.000000
_cell_angle_gamma 90.000000
_cell_volume 8468.044020
_symmetry_space_group_name_H-M "F M M M"
_symmetry_group_IT_number 69
_symmetry_cell_setting 'orthorhombic'
loop_
_space_group_symop_operation_xyz
x,y,z
-x,-y,z
x,-y,-z
-x,y,-z
-x,-y,-z
x,y,-z
-x,y,z
x,-y,z
x,1/2+y,1/2+z
-x,1/2-y,1/2+z
x,1/2-y,1/2-z
-x,1/2+y,1/2-z
-x,1/2-y,1/2-z
x,1/2+y,1/2-z
-x,1/2+y,1/2+z
x,1/2-y,1/2+z
1/2+x,y,1/2+z
1/2-x,-y,1/2+z
1/2+x,-y,1/2-z
1/2-x,y,1/2-z
1/2-x,-y,1/2-z
1/2+x,y,1/2-z
1/2-x,y,1/2+z
1/2+x,-y,1/2+z
1/2+x,1/2+y,z
1/2-x,1/2-y,z
1/2+x,1/2-y,-z
1/2-x,1/2+y,-z
1/2-x,1/2-y,-z
1/2+x,1/2+y,-z
1/2-x,1/2+y,z
1/2+x,1/2-y,z
loop_
_atom_site_type_symbol
_atom_site_label
_atom_site_fract_x
_atom_site_fract_y
_atom_site_fract_z
Si Si1 0.905180 0.827349 0.771766
Si Si2 0.500000 0.310982 0.551910
Si Si3 0.593338 0.325576 0.052928
Si Si4 0.797895 0.175349 0.139823
Si Si5 0.500000 0.581098 0.364502
Si Si6 0.166076 0.416944 0.807247
O O1 0.900911 0.750000 0.750000
O O2 0.876879 0.817997 0.825400
O O3 0.840640 0.879241 0.743890
O O4 0.000000 0.858350 0.770768
O O5 0.500000 0.345789 0.500000
O O6 0.417371 0.260531 0.557693
O O7 0.500000 0.373563 0.588668
O O8 0.500000 0.360313 0.062087
O O9 0.664406 0.350555 0.089696
O O10 0.623527 0.345456 0.000000
O O11 0.750000 0.250000 0.135509
O O12 0.738166 0.113843 0.159458
O O13 0.500000 0.500000 0.381209
O O14 0.420688 0.599865 0.332992
O O15 0.182898 0.500000 0.798939
#
# Coordination Sequence:
#
# PCOD8285025 Si02
#       6
#    32  16  32  32  16  32
#     4  11  23  37  57  84 115 155 200 241 286 349
#     4   8  16  31  55  85 111 144 189 239 287 337
#     4   8  18  36  59  86 118 150 187 242 300 348
#     4  12  22  34  58  90 117 149 198 249 294 342
#     4  10  20  37  56  76 111 162 198 226 289 352
#     4  11  24  40  57  82 120 158 194 241 293 353
#
# _framework density 18.894563999999999
#
# number of rings (size 3 to 8) (size 9 to 14) (size 15 to 20)
#    0.600    1.200    3.000    2.400    0.000    2.200 
#    0.000    1.000    0.000    3.600    0.000    1.400 
#    0.000    0.000    0.000    0.000    0.000    0.000 
#
# Total GULP energy -495854.487991 kJ/mol
# GULP energy per Si atom -12396.362200 kJ/mol
# Density = 1.885156 g / cm^3
# Si number density = 18.894564 Si / 1000 Ang^3
#
#
#
# Elastic Constant Matrix: (Units=GPa)
#
#
# Indices 1 2 3 4 5 6 
#
# 1 95.2799 29.1913 57.3800 0.0000 0.0000 0.0000
# 2 29.1913 51.2643 24.7571 0.0000 0.0000 0.0000
# 3 57.3800 24.7571 133.7507 0.0000 0.0000 0.0000
# 4 0.0000 0.0000 0.0000 23.0139 0.0000 0.0000
# 5 0.0000 0.0000 0.0000 0.0000 54.2719 0.0000
# 6 0.0000 0.0000 0.0000 0.0000 0.0000 21.2478
#
#
#
# Elastic Compliance Matrix: (Units=1/GPa)
#
#
# Indices 1 2 3 4 5 6 
#
# 1 0.015804 -0.006287 -0.005616 0.000000 0.000000 0.000000
# 2 -0.006287 0.023923 -0.001731 0.000000 0.000000 0.000000
# 3 -0.005616 -0.001731 0.010206 0.000000 0.000000 0.000000
# 4 0.000000 0.000000 0.000000 0.043452 0.000000 0.000000
# 5 0.000000 0.000000 0.000000 0.000000 0.018426 0.000000
# 6 0.000000 0.000000 0.000000 0.000000 0.000000 0.047064
#
#
# Mechanical properties :
#
#
# Convention : Reuss Voigt Hill
#
# Bulk Modulus (GPa) = 44.12149 55.88353 50.00251
# Shear Modulus (GPa) = 25.81349 30.97115 28.39232
#
# Velocity S-wave (km/s) = 3.70021 4.05304 3.88064
# Velocity P-wave (km/s) = 6.45426 7.17939 6.82646
#
# Compressibility (1/GPa) = 0.02266469
#
# Stress axis : x y z
#
# Youngs Moduli (GPa) = 63.27605 41.80151 97.97772
#
# Poissons Ratio (x) = 0.26280 0.55027
# Poissons Ratio (y) = 0.39781 0.16959
# Poissons Ratio (z) = 0.35537 0.07236
#
# Static dielectric constant tensor:
#      x y z
#    x 3.521520 0.000000 0.000000 
#    y 0.000000 3.152270 0.000000 
#    z 0.000000 0.000000 3.449610 
# 
# 
# High freq. dielectric constant tensor:
#      x y z
#    x 1.737620 0.000000 0.000000 
#    y 0.000000 1.701000 0.000000 
#    z 0.000000 0.000000 1.741620 
# 
# From -- ./inp_files/36627.got.cif
#   From: 2010.03.12/outbox.cif.g09.slc.cpg/sg69_19_cif.got.tgz:36627.got - 2010.04.10 23:52:46.
