data_PCOD8285551
_publ_section_title
;
Structure prediction by ZEFSAII (Michael W. Deem and Ramdas Pophale) SiO2 
 PCOD8285551
Probable space group: F M M M
;
_chemical_formula_sum "Si O2"
_cell_formula_units_Z 104
_cell_length_a 14.224324
_cell_length_b 27.809055
_cell_length_c 13.036804
_cell_angle_alpha 90.000000
_cell_angle_beta 90.000000
_cell_angle_gamma 90.000000
_cell_volume 5156.903484
_symmetry_space_group_name_H-M "F M M M"
_symmetry_group_IT_number 69
_symmetry_cell_setting 'orthorhombic'
loop_
_space_group_symop_operation_xyz
x,y,z
-x,-y,z
x,-y,-z
-x,y,-z
-x,-y,-z
x,y,-z
-x,y,z
x,-y,z
x,1/2+y,1/2+z
-x,1/2-y,1/2+z
x,1/2-y,1/2-z
-x,1/2+y,1/2-z
-x,1/2-y,1/2-z
x,1/2+y,1/2-z
-x,1/2+y,1/2+z
x,1/2-y,1/2+z
1/2+x,y,1/2+z
1/2-x,-y,1/2+z
1/2+x,-y,1/2-z
1/2-x,y,1/2-z
1/2-x,-y,1/2-z
1/2+x,y,1/2-z
1/2-x,y,1/2+z
1/2+x,-y,1/2+z
1/2+x,1/2+y,z
1/2-x,1/2-y,z
1/2+x,1/2-y,-z
1/2-x,1/2+y,-z
1/2-x,1/2-y,-z
1/2+x,1/2+y,-z
1/2-x,1/2+y,z
1/2+x,1/2-y,z
loop_
_atom_site_type_symbol
_atom_site_label
_atom_site_fract_x
_atom_site_fract_y
_atom_site_fract_z
Si Si1 0.105996 0.500000 0.879836
Si Si2 0.500000 0.442652 0.881287
Si Si3 0.750000 0.750000 0.750000
Si Si4 0.852842 0.405756 0.226269
Si Si5 0.895503 0.311059 0.881477
O O1 0.160084 0.453028 0.842739
O O2 0.000000 0.500000 0.833654
O O3 0.103128 0.500000 0.000000
O O4 0.500000 0.500000 0.867786
O O5 0.408040 0.419125 0.830044
O O6 0.500000 0.427841 0.000000
O O7 0.817134 0.718459 0.821250
O O8 0.750000 0.385529 0.250000
O O9 0.905488 0.364915 0.162207
O O10 0.000000 0.287571 0.870518
O O11 0.864952 0.313106 0.000000
#
# Coordination Sequence:
#
# PCOD8285551 Si02
#       5
#    16  16   8  32  32
#     4  11  21  36  62  91 126 170 212 262 318 379
#     4  11  24  42  62  91 136 181 216 259 318 376
#     4  12  24  48  68  98 132 160 216 272 336 398
#     4  12  22  41  63  94 130 168 217 263 314 382
#     4  11  24  44  71  97 128 168 211 268 328 386
#
# _framework density 20.167141000000001
#
# number of rings (size 3 to 8) (size 9 to 14) (size 15 to 20)
#    0.000    0.615    6.154    2.308    0.000    4.923 
#    0.000    0.000    0.000    0.000    0.000    0.000 
#    0.000    0.000    0.000    0.000    0.000    0.000 
#
# Total GULP energy -322446.197244 kJ/mol
# GULP energy per Si atom -12401.776817 kJ/mol
# Density = 2.012124 g / cm^3
# Si number density = 20.167141 Si / 1000 Ang^3
#
#
#
# Elastic Constant Matrix: (Units=GPa)
#
#
# Indices 1 2 3 4 5 6 
#
# 1 134.1537 34.9857 67.3334 0.0000 0.0000 0.0000
# 2 34.9857 108.2474 62.4009 0.0000 0.0000 0.0000
# 3 67.3334 62.4009 165.9540 0.0000 0.0000 0.0000
# 4 0.0000 0.0000 0.0000 -0.8525 0.0000 0.0000
# 5 0.0000 0.0000 0.0000 0.0000 25.8676 0.0000
# 6 0.0000 0.0000 0.0000 0.0000 0.0000 28.0123
#
#
#
# Elastic Compliance Matrix: (Units=1/GPa)
#
#
# Indices 1 2 3 4 5 6 
#
# 1 0.009458 -0.001078 -0.003432 0.000000 0.000000 0.000000
# 2 -0.001078 0.011918 -0.004044 0.000000 0.000000 0.000000
# 3 -0.003432 -0.004044 0.008939 0.000000 0.000000 0.000000
# 4 0.000000 0.000000 0.000000 -1.173046 0.000000 0.000000
# 5 0.000000 0.000000 0.000000 0.000000 0.038658 0.000000
# 6 0.000000 0.000000 0.000000 0.000000 0.000000 0.035699
#
#
# Mechanical properties :
#
#
# Convention : Reuss Voigt Hill
#
# Bulk Modulus (GPa) = 75.72152 81.97724 78.84938
# Shear Modulus (GPa) = -4.77617 26.84782 11.03583
#
# Velocity S-wave (km/s) = -1.54059 3.65261 2.34181
# Velocity P-wave (km/s) = 5.87060 7.65022 6.81872
#
# Compressibility (1/GPa) = 0.01320629
#
# Stress axis : x y z
#
# Youngs Moduli (GPa) = 105.73188 83.90904 111.87355
#
# Poissons Ratio (x) = 0.09049 0.38394
# Poissons Ratio (y) = 0.11403 0.45238
# Poissons Ratio (z) = 0.36286 0.33930
#
# Static dielectric constant tensor:
#      x y z
#    x 3.810340 0.000000 0.000000 
#    y 0.000000 3.622350 0.000000 
#    z 0.000000 0.000000 3.684430 
# 
# 
# High freq. dielectric constant tensor:
#      x y z
#    x 1.797630 0.000000 0.000000 
#    y 0.000000 1.781970 0.000000 
#    z 0.000000 0.000000 1.797090 
# 
# From -- ./inp_files/14138.got.cif
#   From: 2010.03.12/outbox.cif.g09.slc.cpg/sg69_8_cif.got.tgz:14138.got - 2010.04.10 23:52:46.
