data_PCOD8285607
_publ_section_title
;
Structure prediction by ZEFSAII (Michael W. Deem and Ramdas Pophale) SiO2 
 PCOD8285607
Probable space group: F M M M
;
_chemical_formula_sum "Si O2"
_cell_formula_units_Z 160
_cell_length_a 19.766277
_cell_length_b 22.483012
_cell_length_c 16.553921
_cell_angle_alpha 90.000000
_cell_angle_beta 90.000000
_cell_angle_gamma 90.000000
_cell_volume 7356.652595
_symmetry_space_group_name_H-M "F M M M"
_symmetry_group_IT_number 69
_symmetry_cell_setting 'orthorhombic'
loop_
_space_group_symop_operation_xyz
x,y,z
-x,-y,z
x,-y,-z
-x,y,-z
-x,-y,-z
x,y,-z
-x,y,z
x,-y,z
x,1/2+y,1/2+z
-x,1/2-y,1/2+z
x,1/2-y,1/2-z
-x,1/2+y,1/2-z
-x,1/2-y,1/2-z
x,1/2+y,1/2-z
-x,1/2+y,1/2+z
x,1/2-y,1/2+z
1/2+x,y,1/2+z
1/2-x,-y,1/2+z
1/2+x,-y,1/2-z
1/2-x,y,1/2-z
1/2-x,-y,1/2-z
1/2+x,y,1/2-z
1/2-x,y,1/2+z
1/2+x,-y,1/2+z
1/2+x,1/2+y,z
1/2-x,1/2-y,z
1/2+x,1/2-y,-z
1/2-x,1/2+y,-z
1/2-x,1/2-y,-z
1/2+x,1/2+y,-z
1/2-x,1/2+y,z
1/2+x,1/2-y,z
loop_
_atom_site_type_symbol
_atom_site_label
_atom_site_fract_x
_atom_site_fract_y
_atom_site_fract_z
Si Si1 0.078091 0.000000 0.821655
Si Si2 0.120287 0.119788 0.907745
Si Si3 0.746452 0.313592 0.091673
Si Si4 0.500000 0.164743 0.831107
Si Si5 0.869580 0.892972 0.592235
Si Si6 0.815659 0.000000 0.310156
Si Si7 0.500000 0.697685 0.855821
O O1 0.097439 0.058950 0.868575
O O2 0.115011 0.000000 0.737506
O O3 0.000000 0.000000 0.801465
O O4 0.190828 0.142720 0.867067
O O5 0.065920 0.172153 0.899231
O O6 0.131753 0.103136 0.000000
O O7 0.750000 0.250000 0.136928
O O8 0.822596 0.335758 0.092534
O O9 0.719954 0.304385 0.000000
O O10 0.435935 0.124973 0.857505
O O11 0.500000 0.230969 0.869154
O O12 0.500000 0.174053 0.735626
O O13 0.889214 0.911257 0.500000
O O14 0.821288 0.942755 0.632415
O O15 0.750000 0.000000 0.250000
#
# Coordination Sequence:
#
# PCOD8285607 Si02
#       7
#    16  32  32  16  32  16  16
#     4  12  25  41  63  93 135 174 213 269 336 405
#     4  11  22  38  65  95 129 171 219 276 337 402
#     4   9  19  37  62  94 128 162 207 269 332 387
#     4  11  25  42  63  94 135 181 223 275 336 393
#     4  11  24  43  69  98 131 173 228 280 327 394
#     4  12  27  46  70  95 129 175 219 273 339 405
#     4  11  23  40  61  94 137 179 227 275 332 401
#
# _framework density 21.749023000000001
#
# number of rings (size 3 to 8) (size 9 to 14) (size 15 to 20)
#    0.000    1.200    1.000    4.800    1.400    3.600 
#    0.000    5.000    0.000    4.800    0.000    0.000 
#    0.000    0.000    0.000    0.000    0.000    0.000 
#
# Total GULP energy -495822.556986 kJ/mol
# GULP energy per Si atom -12395.563925 kJ/mol
# Density = 2.169952 g / cm^3
# Si number density = 21.749023 Si / 1000 Ang^3
#
#
#
# Elastic Constant Matrix: (Units=GPa)
#
#
# Indices 1 2 3 4 5 6 
#
# 1 140.9055 35.5862 20.0108 0.0000 0.0000 0.0000
# 2 35.5862 117.2911 20.6239 0.0000 0.0000 0.0000
# 3 20.0108 20.6239 70.0054 0.0000 0.0000 0.0000
# 4 0.0000 0.0000 0.0000 107.8422 0.0000 0.0000
# 5 0.0000 0.0000 0.0000 0.0000 26.9098 0.0000
# 6 0.0000 0.0000 0.0000 0.0000 0.0000 40.4886
#
#
#
# Elastic Compliance Matrix: (Units=1/GPa)
#
#
# Indices 1 2 3 4 5 6 
#
# 1 0.007858 -0.002098 -0.001628 0.000000 0.000000 0.000000
# 2 -0.002098 0.009552 -0.002214 0.000000 0.000000 0.000000
# 3 -0.001628 -0.002214 0.015402 0.000000 0.000000 0.000000
# 4 0.000000 0.000000 0.000000 0.009273 0.000000 0.000000
# 5 0.000000 0.000000 0.000000 0.000000 0.037161 0.000000
# 6 0.000000 0.000000 0.000000 0.000000 0.000000 0.024698
#
#
# Mechanical properties :
#
#
# Convention : Reuss Voigt Hill
#
# Bulk Modulus (GPa) = 47.77505 53.40486 50.58995
# Shear Modulus (GPa) = 40.71596 51.84687 46.28141
#
# Velocity S-wave (km/s) = 4.33145 4.88779 4.61800
# Velocity P-wave (km/s) = 6.85781 7.51414 7.19346
#
# Compressibility (1/GPa) = 0.02093143
#
# Stress axis : x y z
#
# Youngs Moduli (GPa) = 127.25894 104.69420 64.92512
#
# Poissons Ratio (x) = 0.21963 0.10571
# Poissons Ratio (y) = 0.26697 0.14376
# Poissons Ratio (z) = 0.20720 0.23182
#
# Static dielectric constant tensor:
#      x y z
#    x 4.090380 0.000000 0.000000 
#    y 0.000000 4.277030 0.000000 
#    z 0.000000 0.000000 3.870450 
# 
# 
# High freq. dielectric constant tensor:
#      x y z
#    x 1.868460 0.000000 0.000000 
#    y 0.000000 1.871200 0.000000 
#    z 0.000000 0.000000 1.841080 
# 
# From -- ./inp_files/24723.got.cif
#   From: 2010.03.12/outbox.cif.g09.slc.cpg/sg69_13_cif.got.tgz:24723.got - 2010.04.10 23:52:46.
