data_PCOD8285214
_publ_section_title
;
Structure prediction by ZEFSAII (Michael W. Deem and Ramdas Pophale) SiO2 
 PCOD8285214
Probable space group: F M M M
;
_chemical_formula_sum "Si O2"
_cell_formula_units_Z 112
_cell_length_a 29.057905
_cell_length_b 20.901044
_cell_length_c 8.907500
_cell_angle_alpha 90.000000
_cell_angle_beta 90.000000
_cell_angle_gamma 90.000000
_cell_volume 5409.885958
_symmetry_space_group_name_H-M "F M M M"
_symmetry_group_IT_number 69
_symmetry_cell_setting 'orthorhombic'
loop_
_space_group_symop_operation_xyz
x,y,z
-x,-y,z
x,-y,-z
-x,y,-z
-x,-y,-z
x,y,-z
-x,y,z
x,-y,z
x,1/2+y,1/2+z
-x,1/2-y,1/2+z
x,1/2-y,1/2-z
-x,1/2+y,1/2-z
-x,1/2-y,1/2-z
x,1/2+y,1/2-z
-x,1/2+y,1/2+z
x,1/2-y,1/2+z
1/2+x,y,1/2+z
1/2-x,-y,1/2+z
1/2+x,-y,1/2-z
1/2-x,y,1/2-z
1/2-x,-y,1/2-z
1/2+x,y,1/2-z
1/2-x,y,1/2+z
1/2+x,-y,1/2+z
1/2+x,1/2+y,z
1/2-x,1/2-y,z
1/2+x,1/2-y,-z
1/2-x,1/2+y,-z
1/2-x,1/2-y,-z
1/2+x,1/2+y,-z
1/2-x,1/2+y,z
1/2+x,1/2-y,z
loop_
_atom_site_type_symbol
_atom_site_label
_atom_site_fract_x
_atom_site_fract_y
_atom_site_fract_z
Si Si1 0.136319 0.186357 0.677900
Si Si2 0.054227 0.500000 0.167098
Si Si3 0.201643 0.928068 0.323880
Si Si4 0.553028 0.129415 0.323069
O O1 0.134638 0.192892 0.500000
O O2 0.159077 0.250000 0.750000
O O3 0.164729 0.124120 0.731495
O O4 0.084531 0.182303 0.743550
O O5 0.070182 0.561653 0.258478
O O6 0.000000 0.500000 0.149696
O O7 0.077146 0.500000 0.000000
O O8 0.208830 0.922752 0.500000
O O9 0.250000 0.911221 0.250000
O O10 0.185133 0.000000 0.278759
O O11 0.560683 0.129841 0.500000
O O12 0.500000 0.143340 0.281313
#
# Coordination Sequence:
#
# PCOD8285214 Si02
#       4
#    32  16  32  32
#     4  11  24  40  60  87 122 161 203 249 300 362
#     4   9  17  31  53  81 112 149 194 243 297 351
#     4   9  20  40  65  92 119 151 193 243 299 360
#     4  10  21  37  57  84 119 158 204 254 301 353
#
# _framework density 20.702838
#
# number of rings (size 3 to 8) (size 9 to 14) (size 15 to 20)
#    0.000    2.143    0.000    2.143    2.000    6.857 
#    0.000    2.857    0.000    0.000    0.000    0.000 
#    0.000    0.000    0.000    0.000    0.000    0.000 
#
# Total GULP energy -347217.041753 kJ/mol
# GULP energy per Si atom -12400.608634 kJ/mol
# Density = 2.065572 g / cm^3
# Si number density = 20.702838 Si / 1000 Ang^3
#
#
#
# Elastic Constant Matrix: (Units=GPa)
#
#
# Indices 1 2 3 4 5 6 
#
# 1 95.2371 72.6405 45.8227 0.0001 0.0000 0.0000
# 2 72.6405 144.5836 53.1907 -0.0003 0.0001 0.0002
# 3 45.8227 53.1907 86.2199 -0.0002 0.0001 0.0006
# 4 0.0001 -0.0003 -0.0002 38.6239 0.0001 0.0004
# 5 0.0000 0.0001 0.0001 0.0001 31.8161 -0.0002
# 6 0.0000 0.0002 0.0006 0.0004 -0.0002 19.3476
#
#
#
# Elastic Compliance Matrix: (Units=1/GPa)
#
#
# Indices 1 2 3 4 5 6 
#
# 1 0.018773 -0.007453 -0.005379 0.000000 0.000000 0.000000
# 2 -0.007453 0.011906 -0.003384 0.000000 0.000000 0.000000
# 3 -0.005379 -0.003384 0.016545 0.000000 0.000000 0.000000
# 4 0.000000 0.000000 0.000000 0.025891 0.000000 0.000000
# 5 0.000000 0.000000 0.000000 0.000000 0.031431 0.000000
# 6 0.000000 0.000000 0.000000 0.000000 0.000000 0.051686
#
#
# Mechanical properties :
#
#
# Convention : Reuss Voigt Hill
#
# Bulk Modulus (GPa) = 67.60769 74.37205 70.98987
# Shear Modulus (GPa) = 25.82739 28.24997 27.03868
#
# Velocity S-wave (km/s) = 3.53587 3.69798 3.61783
# Velocity P-wave (km/s) = 7.02830 7.36444 7.19833
#
# Compressibility (1/GPa) = 0.01479122
#
# Stress axis : x y z
#
# Youngs Moduli (GPa) = 53.26877 83.99368 60.44182
#
# Poissons Ratio (x) = 0.62598 0.32514
# Poissons Ratio (y) = 0.39699 0.20454
# Poissons Ratio (z) = 0.28655 0.28424
#
# Static dielectric constant tensor:
#      x y z
#    x 3.674200 0.000000 0.000000 
#    y 0.000000 3.998250 0.000000 
#    z 0.000000 0.000000 3.707630 
# 
# 
# High freq. dielectric constant tensor:
#      x y z
#    x 1.799160 0.000000 0.000000 
#    y 0.000000 1.816270 0.000000 
#    z 0.000000 0.000000 1.812170 
# 
# From -- ./inp_files/3746.got.cif
#   From: 2010.03.12/outbox.cif.g09.slc.cpg/sg69_2_cif.got.tgz:3746.got - 2010.04.10 23:52:46.
