data_PCOD8285577
_publ_section_title
;
Structure prediction by ZEFSAII (Michael W. Deem and Ramdas Pophale) SiO2 
 PCOD8285577
Probable space group: F M M M
;
_chemical_formula_sum "Si O2"
_cell_formula_units_Z 112
_cell_length_a 17.913241
_cell_length_b 17.859214
_cell_length_c 16.889931
_cell_angle_alpha 90.000000
_cell_angle_beta 90.000000
_cell_angle_gamma 90.000000
_cell_volume 5403.365997
_symmetry_space_group_name_H-M "F M M M"
_symmetry_group_IT_number 69
_symmetry_cell_setting 'orthorhombic'
loop_
_space_group_symop_operation_xyz
x,y,z
-x,-y,z
x,-y,-z
-x,y,-z
-x,-y,-z
x,y,-z
-x,y,z
x,-y,z
x,1/2+y,1/2+z
-x,1/2-y,1/2+z
x,1/2-y,1/2-z
-x,1/2+y,1/2-z
-x,1/2-y,1/2-z
x,1/2+y,1/2-z
-x,1/2+y,1/2+z
x,1/2-y,1/2+z
1/2+x,y,1/2+z
1/2-x,-y,1/2+z
1/2+x,-y,1/2-z
1/2-x,y,1/2-z
1/2-x,-y,1/2-z
1/2+x,y,1/2-z
1/2-x,y,1/2+z
1/2+x,-y,1/2+z
1/2+x,1/2+y,z
1/2-x,1/2-y,z
1/2+x,1/2-y,-z
1/2-x,1/2+y,-z
1/2-x,1/2-y,-z
1/2+x,1/2+y,-z
1/2-x,1/2+y,z
1/2+x,1/2-y,z
loop_
_atom_site_type_symbol
_atom_site_label
_atom_site_fract_x
_atom_site_fract_y
_atom_site_fract_z
Si Si1 0.335877 0.663599 0.361896
Si Si2 0.167252 0.169498 0.905984
Si Si3 0.587181 0.913393 0.280330
Si Si4 0.418323 0.587133 0.500000
O O1 0.247289 0.654374 0.366711
O O2 0.360459 0.747451 0.384182
O O3 0.364238 0.641178 0.275143
O O4 0.373615 0.607260 0.422116
O O5 0.108699 0.109955 0.870047
O O6 0.171768 0.159410 0.000000
O O7 0.500000 0.899706 0.265202
O O8 0.607853 0.000000 0.265996
O O9 0.429973 0.500000 0.500000
O O10 0.500000 0.626245 0.500000
#
# Coordination Sequence:
#
# PCOD8285577 Si02
#       4
#    32  32  32  16
#     4  11  21  43  66  93 128 162 212 270 317 373
#     4  11  23  43  67  96 128 167 214 260 319 387
#     4  11  26  44  62  92 132 171 215 266 317 376
#     4  11  22  35  60  96 130 163 202 259 320 374
#
# _framework density 20.727820000000001
#
# number of rings (size 3 to 8) (size 9 to 14) (size 15 to 20)
#    0.000    1.000    2.857    4.286    0.000   12.571 
#    0.000    1.429    0.000    0.000    0.000    0.000 
#    0.000    0.000    0.000    0.000    0.000    0.000 
#
# Total GULP energy -347323.755435 kJ/mol
# GULP energy per Si atom -12404.419837 kJ/mol
# Density = 2.068064 g / cm^3
# Si number density = 20.727820 Si / 1000 Ang^3
#
#
#
# Elastic Constant Matrix: (Units=GPa)
#
#
# Indices 1 2 3 4 5 6 
#
# 1 76.0959 54.8952 48.5865 0.0000 0.0000 0.0000
# 2 54.8952 78.8800 46.5197 0.0000 0.0000 0.0000
# 3 48.5865 46.5197 118.1998 0.0000 0.0000 0.0000
# 4 0.0000 0.0000 0.0000 30.8660 0.0000 0.0000
# 5 0.0000 0.0000 0.0000 0.0000 117.1422 0.0000
# 6 0.0000 0.0000 0.0000 0.0000 0.0000 33.6083
#
#
#
# Elastic Compliance Matrix: (Units=1/GPa)
#
#
# Indices 1 2 3 4 5 6 
#
# 1 0.028574 -0.016876 -0.005104 0.000000 0.000000 0.000000
# 2 -0.016876 0.026476 -0.003483 0.000000 0.000000 0.000000
# 3 -0.005104 -0.003483 0.011929 0.000000 0.000000 0.000000
# 4 0.000000 0.000000 0.000000 0.032398 0.000000 0.000000
# 5 0.000000 0.000000 0.000000 0.000000 0.008537 0.000000
# 6 0.000000 0.000000 0.000000 0.000000 0.000000 0.029755
#
#
# Mechanical properties :
#
#
# Convention : Reuss Voigt Hill
#
# Bulk Modulus (GPa) = 62.29079 63.68650 62.98865
# Shear Modulus (GPa) = 25.78046 44.53493 35.15769
#
# Velocity S-wave (km/s) = 3.53053 4.64028 4.12291
# Velocity P-wave (km/s) = 6.83641 7.71372 7.28828
#
# Compressibility (1/GPa) = 0.01605374
#
# Stress axis : x y z
#
# Youngs Moduli (GPa) = 34.99681 37.76985 83.82854
#
# Poissons Ratio (x) = 0.63739 0.42784
# Poissons Ratio (y) = 0.59059 0.29201
# Poissons Ratio (z) = 0.17861 0.13157
#
# Static dielectric constant tensor:
#      x y z
#    x 3.829540 0.000000 0.000000 
#    y 0.000000 3.796790 0.000000 
#    z 0.000000 0.000000 9.467420 
# 
# 
# High freq. dielectric constant tensor:
#      x y z
#    x 1.815930 0.000000 0.000000 
#    y 0.000000 1.813160 0.000000 
#    z 0.000000 0.000000 1.822270 
# 
# From -- ./inp_files/22332.got.cif
#   From: 2010.03.12/outbox.cif.g09.slc.cpg/sg69_12_cif.got.tgz:22332.got - 2010.04.10 23:52:46.
