data_PCOD8285820
_publ_section_title
;
Structure prediction by ZEFSAII (Michael W. Deem and Ramdas Pophale) SiO2 
 PCOD8285820
Probable space group: F D D D
;
_chemical_formula_sum "Si O2"
_cell_formula_units_Z 192
_cell_length_a 27.199672
_cell_length_b 25.255139
_cell_length_c 13.173393
_cell_angle_alpha 90.000000
_cell_angle_beta 90.000000
_cell_angle_gamma 90.000000
_cell_volume 9049.218576
_symmetry_space_group_name_H-M "F D D D"
_symmetry_group_IT_number 70
_space_group.IT_coordinate_system_code '2'
_symmetry_cell_setting 'orthorhombic'
loop_
_space_group_symop_operation_xyz
x,y,z
1/4-x,1/4-y,z
x,1/4-y,1/4-z
1/4-x,y,1/4-z
-x,-y,-z
3/4+x,3/4+y,-z
-x,3/4+y,3/4+z
3/4+x,-y,3/4+z
x,1/2+y,1/2+z
1/4-x,3/4-y,1/2+z
x,3/4-y,3/4-z
1/4-x,1/2+y,3/4-z
-x,1/2-y,1/2-z
3/4+x,1/4+y,1/2-z
-x,1/4+y,1/4+z
3/4+x,1/2-y,1/4+z
1/2+x,y,1/2+z
3/4-x,1/4-y,1/2+z
1/2+x,1/4-y,3/4-z
3/4-x,y,3/4-z
1/2-x,-y,1/2-z
1/4+x,3/4+y,1/2-z
1/2-x,3/4+y,1/4+z
1/4+x,-y,1/4+z
1/2+x,1/2+y,z
3/4-x,3/4-y,z
1/2+x,3/4-y,1/4-z
3/4-x,1/2+y,1/4-z
1/2-x,1/2-y,-z
1/4+x,1/4+y,-z
1/2-x,1/4+y,3/4+z
1/4+x,1/2-y,3/4+z
loop_
_atom_site_type_symbol
_atom_site_label
_atom_site_fract_x
_atom_site_fract_y
_atom_site_fract_z
Si Si1 0.679355 0.456891 0.649166
Si Si2 0.000528 0.026755 0.703211
Si Si3 0.542290 0.625000 0.625000
Si Si4 0.625000 0.125000 0.961256
Si Si5 0.608025 0.921608 0.455523
Si Si6 0.593404 0.236167 0.354765
Si Si7 0.200095 0.407223 0.601085
O O1 0.625000 0.434952 0.625000
O O2 0.700463 0.490631 0.553852
O O3 0.676467 0.495967 0.744586
O O4 0.713949 0.405059 0.660405
O O5 0.006572 0.073874 0.619349
O O6 0.994603 0.054703 0.813898
O O7 0.953704 0.990071 0.678271
O O8 0.576425 0.633919 0.527471
O O9 0.615182 0.073062 0.893226
O O10 0.601047 0.875000 0.375000
O O11 0.656732 0.915188 0.520924
O O12 0.562044 0.922623 0.532927
O O13 0.612434 0.976265 0.393609
#
# Coordination Sequence:
#
# PCOD8285820 Si02
#       7
#    32  32  16  16  32  32  32
#     4  12  20  37  60  89 125 168 205 261 327 386
#     4  11  24  35  59  93 132 160 211 266 324 391
#     4  11  22  38  58  90 134 170 196 268 338 388
#     4  11  24  38  56  91 134 176 205 252 336 405
#     4  10  18  37  64  91 123 168 223 269 311 380
#     4  11  22  37  59  93 129 170 213 256 327 393
#     4  10  21  36  61  97 126 164 214 272 326 374
#
# _framework density 21.217300999999999
#
# number of rings (size 3 to 8) (size 9 to 14) (size 15 to 20)
#    0.000    1.167    5.000    2.500    4.667    0.000 
#    0.000    0.000    0.000   17.000    0.000    0.000 
#    0.000    0.000    0.000    0.000    0.000    0.000 
#
# Total GULP energy -594883.978690 kJ/mol
# GULP energy per Si atom -12393.416223 kJ/mol
# Density = 2.116901 g / cm^3
# Si number density = 21.217301 Si / 1000 Ang^3
#
#
#
# Elastic Constant Matrix: (Units=GPa)
#
#
# Indices 1 2 3 4 5 6 
#
# 1 57.0498 44.1051 36.9854 0.0000 0.0000 0.0000
# 2 44.1051 180.8838 55.8041 0.0000 0.0000 0.0000
# 3 36.9854 55.8041 100.9241 0.0000 0.0000 0.0000
# 4 0.0000 0.0000 0.0000 31.8342 0.0000 0.0000
# 5 0.0000 0.0000 0.0000 0.0000 23.4878 0.0000
# 6 0.0000 0.0000 0.0000 0.0000 0.0000 33.5899
#
#
#
# Elastic Compliance Matrix: (Units=1/GPa)
#
#
# Indices 1 2 3 4 5 6 
#
# 1 0.025147 -0.003965 -0.007023 0.000000 0.000000 0.000000
# 2 -0.003965 0.007291 -0.002578 0.000000 0.000000 0.000000
# 3 -0.007023 -0.002578 0.013908 0.000000 0.000000 0.000000
# 4 0.000000 0.000000 0.000000 0.031413 0.000000 0.000000
# 5 0.000000 0.000000 0.000000 0.000000 0.042575 0.000000
# 6 0.000000 0.000000 0.000000 0.000000 0.000000 0.029771
#
#
# Mechanical properties :
#
#
# Convention : Reuss Voigt Hill
#
# Bulk Modulus (GPa) = 52.04890 68.07186 60.06038
# Shear Modulus (GPa) = 27.22704 31.24660 29.23682
#
# Velocity S-wave (km/s) = 3.58613 3.84173 3.71613
# Velocity P-wave (km/s) = 6.46001 7.19940 6.83970
#
# Compressibility (1/GPa) = 0.01921270
#
# Stress axis : x y z
#
# Youngs Moduli (GPa) = 39.76626 137.16363 71.90216
#
# Poissons Ratio (x) = 0.54384 0.50499
# Poissons Ratio (y) = 0.15767 0.18538
# Poissons Ratio (z) = 0.27929 0.35363
#
# Static dielectric constant tensor:
#      x y z
#    x 3.850390 0.000000 0.000000 
#    y 0.000000 4.028800 0.000000 
#    z 0.000000 0.000000 3.856540 
# 
# 
# High freq. dielectric constant tensor:
#      x y z
#    x 1.815130 0.000000 0.000000 
#    y 0.000000 1.841330 0.000000 
#    z 0.000000 0.000000 1.800110 
# 
# From -- ./inp_files/22483.got.cif
#   From: 2010.03.12/outbox.cif.g09.slc.cpg/sg70_12_cif.got.tgz:22483.got - 2010.04.16 13:46:32.
