data_PCOD8285798
_publ_section_title
;
Structure prediction by ZEFSAII (Michael W. Deem and Ramdas Pophale) SiO2 
 PCOD8285798
Probable space group: F D D D
;
_chemical_formula_sum "Si O2"
_cell_formula_units_Z 160
_cell_length_a 19.313145
_cell_length_b 20.778782
_cell_length_c 20.949865
_cell_angle_alpha 90.000000
_cell_angle_beta 90.000000
_cell_angle_gamma 90.000000
_cell_volume 8407.256866
_symmetry_space_group_name_H-M "F D D D"
_symmetry_group_IT_number 70
_space_group.IT_coordinate_system_code '2'
_symmetry_cell_setting 'orthorhombic'
loop_
_space_group_symop_operation_xyz
x,y,z
1/4-x,1/4-y,z
x,1/4-y,1/4-z
1/4-x,y,1/4-z
-x,-y,-z
3/4+x,3/4+y,-z
-x,3/4+y,3/4+z
3/4+x,-y,3/4+z
x,1/2+y,1/2+z
1/4-x,3/4-y,1/2+z
x,3/4-y,3/4-z
1/4-x,1/2+y,3/4-z
-x,1/2-y,1/2-z
3/4+x,1/4+y,1/2-z
-x,1/4+y,1/4+z
3/4+x,1/2-y,1/4+z
1/2+x,y,1/2+z
3/4-x,1/4-y,1/2+z
1/2+x,1/4-y,3/4-z
3/4-x,y,3/4-z
1/2-x,-y,1/2-z
1/4+x,3/4+y,1/2-z
1/2-x,3/4+y,1/4+z
1/4+x,-y,1/4+z
1/2+x,1/2+y,z
3/4-x,3/4-y,z
1/2+x,3/4-y,1/4-z
3/4-x,1/2+y,1/4-z
1/2-x,1/2-y,-z
1/4+x,1/4+y,-z
1/2-x,1/4+y,3/4+z
1/4+x,1/2-y,3/4+z
loop_
_atom_site_type_symbol
_atom_site_label
_atom_site_fract_x
_atom_site_fract_y
_atom_site_fract_z
Si Si1 0.942392 0.192910 0.145109
Si Si2 0.557127 0.592436 0.495578
Si Si3 0.980810 0.568410 0.350039
Si Si4 0.597466 0.843646 0.221725
Si Si5 0.420058 0.698916 0.702029
O O1 0.977786 0.125000 0.125000
O O2 0.935970 0.198840 0.221510
O O3 0.863554 0.193501 0.117823
O O4 0.987055 0.249393 0.115098
O O5 0.625000 0.625000 0.527651
O O6 0.535574 0.635720 0.434866
O O7 0.495284 0.585904 0.547210
O O8 0.575889 0.522530 0.470731
O O9 0.914123 0.555857 0.305572
O O10 0.958838 0.603339 0.415919
O O11 0.619617 0.914065 0.246782
#
# Coordination Sequence:
#
# PCOD8285798 Si02
#       5
#    32  32  32  32  32
#     4  10  19  36  55  81 115 150 183 237 291 339
#     4  10  18  34  60  85 112 145 198 240 284 355
#     4  10  19  36  58  82 108 155 189 230 284 355
#     4   9  20  36  56  78 115 150 186 230 292 341
#     4   9  19  35  54  82 115 149 184 244 294 337
#
# _framework density 19.031177
#
# number of rings (size 3 to 8) (size 9 to 14) (size 15 to 20)
#    0.000    2.400    2.000    0.600    0.000    0.000 
#    7.200    4.000    0.000   22.200    0.000    0.000 
#    0.000    0.000    0.000    0.000    0.000    0.000 
#
# Total GULP energy -495835.080765 kJ/mol
# GULP energy per Si atom -12395.877019 kJ/mol
# Density = 1.898786 g / cm^3
# Si number density = 19.031177 Si / 1000 Ang^3
#
#
#
# Elastic Constant Matrix: (Units=GPa)
#
#
# Indices 1 2 3 4 5 6 
#
# 1 78.7687 37.4817 24.4304 0.0000 0.0000 0.0000
# 2 37.4817 115.4282 21.8410 0.0000 0.0000 0.0000
# 3 24.4304 21.8410 89.0050 0.0000 0.0000 0.0000
# 4 0.0000 0.0000 0.0000 22.0063 0.0000 0.0000
# 5 0.0000 0.0000 0.0000 0.0000 18.1828 0.0000
# 6 0.0000 0.0000 0.0000 0.0000 0.0000 34.1887
#
#
#
# Elastic Compliance Matrix: (Units=1/GPa)
#
#
# Indices 1 2 3 4 5 6 
#
# 1 0.015859 -0.004537 -0.003240 0.000000 0.000000 0.000000
# 2 -0.004537 0.010383 -0.001303 0.000000 0.000000 0.000000
# 3 -0.003240 -0.001303 0.012444 0.000000 0.000000 0.000000
# 4 0.000000 0.000000 0.000000 0.045442 0.000000 0.000000
# 5 0.000000 0.000000 0.000000 0.000000 0.054997 0.000000
# 6 0.000000 0.000000 0.000000 0.000000 0.000000 0.029249
#
#
# Mechanical properties :
#
#
# Convention : Reuss Voigt Hill
#
# Bulk Modulus (GPa) = 48.71387 50.07869 49.39628
# Shear Modulus (GPa) = 25.85647 28.17214 27.01431
#
# Velocity S-wave (km/s) = 3.68997 3.85166 3.77168
# Velocity P-wave (km/s) = 6.61868 6.79349 6.70666
#
# Compressibility (1/GPa) = 0.02052803
#
# Stress axis : x y z
#
# Youngs Moduli (GPa) = 63.05576 96.31096 80.35847
#
# Poissons Ratio (x) = 0.43693 0.26034
# Poissons Ratio (y) = 0.28606 0.10468
# Poissons Ratio (z) = 0.20429 0.12546
#
# Static dielectric constant tensor:
#      x y z
#    x 3.650890 0.000000 0.000000 
#    y 0.000000 3.471380 0.000000 
#    z 0.000000 0.000000 3.527000 
# 
# 
# High freq. dielectric constant tensor:
#      x y z
#    x 1.737630 0.000000 0.000000 
#    y 0.000000 1.740160 0.000000 
#    z 0.000000 0.000000 1.731960 
# 
# From -- ./inp_files/36309.got.cif
#   From: 2010.03.12/outbox.cif.g09.slc.cpg/sg70_19_cif.got.tgz:36309.got - 2010.04.16 13:46:32.
