data_PCOD8285489
_publ_section_title
;
Structure prediction by ZEFSAII (Michael W. Deem and Ramdas Pophale) SiO2 
 PCOD8285489
Probable space group: F M M M
;
_chemical_formula_sum "Si O2"
_cell_formula_units_Z 120
_cell_length_a 16.806536
_cell_length_b 20.536428
_cell_length_c 17.555256
_cell_angle_alpha 90.000000
_cell_angle_beta 90.000000
_cell_angle_gamma 90.000000
_cell_volume 6059.130188
_symmetry_space_group_name_H-M "F M M M"
_symmetry_group_IT_number 69
_symmetry_cell_setting 'orthorhombic'
loop_
_space_group_symop_operation_xyz
x,y,z
-x,-y,z
x,-y,-z
-x,y,-z
-x,-y,-z
x,y,-z
-x,y,z
x,-y,z
x,1/2+y,1/2+z
-x,1/2-y,1/2+z
x,1/2-y,1/2-z
-x,1/2+y,1/2-z
-x,1/2-y,1/2-z
x,1/2+y,1/2-z
-x,1/2+y,1/2+z
x,1/2-y,1/2+z
1/2+x,y,1/2+z
1/2-x,-y,1/2+z
1/2+x,-y,1/2-z
1/2-x,y,1/2-z
1/2-x,-y,1/2-z
1/2+x,y,1/2-z
1/2-x,y,1/2+z
1/2+x,-y,1/2+z
1/2+x,1/2+y,z
1/2-x,1/2-y,z
1/2+x,1/2-y,-z
1/2-x,1/2+y,-z
1/2-x,1/2-y,-z
1/2+x,1/2+y,-z
1/2-x,1/2+y,z
1/2+x,1/2-y,z
loop_
_atom_site_type_symbol
_atom_site_label
_atom_site_fract_x
_atom_site_fract_y
_atom_site_fract_z
Si Si1 0.000000 0.259412 0.341349
Si Si2 0.630182 0.929523 0.500000
Si Si3 0.767695 0.327722 0.000000
Si Si4 0.000000 0.907607 0.122329
Si Si5 0.250000 0.250000 0.750000
Si Si6 0.634426 0.830935 0.854117
Si Si7 0.500000 0.072408 0.795497
O O1 0.000000 0.250000 0.250000
O O2 0.000000 0.331753 0.366786
O O3 0.923006 0.227411 0.379106
O O4 0.686199 0.867145 0.500000
O O5 0.577647 0.928360 0.576234
O O6 0.675098 0.000000 0.500000
O O7 0.750000 0.250000 0.000000
O O8 0.817133 0.352986 0.072282
O O9 0.000000 0.939541 0.205196
O O10 0.303821 0.199127 0.795047
O O11 0.580647 0.889531 0.819892
O O12 0.500000 0.000000 0.833015
#
# Coordination Sequence:
#
# PCOD8285489 Si02
#       7
#    16  16  16  16   8  32  16
#     4  11  19  39  63  95 124 161 209 271 328 375
#     4  11  26  42  62  93 136 180 219 267 334 394
#     4  12  25  42  64  98 132 169 219 272 334 400
#     4  11  20  42  68  92 126 174 222 271 314 393
#     4  12  20  40  66  96 132 152 212 278 344 368
#     4  11  24  39  65  94 131 166 209 267 332 385
#     4  11  24  43  66  94 125 175 227 260 312 397
#
# _framework density 19.804824
#
# number of rings (size 3 to 8) (size 9 to 14) (size 15 to 20)
#    0.000    0.800    5.333    3.200    3.733    4.267 
#    0.000    1.333    0.000    0.000    0.000    0.000 
#    0.000    0.000    0.000    0.000    0.000    0.000 
#
# Total GULP energy -371823.501578 kJ/mol
# GULP energy per Si atom -12394.116719 kJ/mol
# Density = 1.975975 g / cm^3
# Si number density = 19.804824 Si / 1000 Ang^3
#
#
#
# Elastic Constant Matrix: (Units=GPa)
#
#
# Indices 1 2 3 4 5 6 
#
# 1 137.0220 60.9207 55.3718 0.0000 0.0000 0.0000
# 2 60.9207 170.9050 34.5834 0.0000 0.0000 0.0000
# 3 55.3718 34.5834 124.5934 0.0000 0.0000 0.0000
# 4 0.0000 0.0000 0.0000 17.1947 0.0000 0.0000
# 5 0.0000 0.0000 0.0000 0.0000 29.3923 0.0000
# 6 0.0000 0.0000 0.0000 0.0000 0.0000 152.0323
#
#
#
# Elastic Compliance Matrix: (Units=1/GPa)
#
#
# Indices 1 2 3 4 5 6 
#
# 1 0.010045 -0.002837 -0.003677 0.000000 0.000000 0.000000
# 2 -0.002837 0.007000 -0.000682 0.000000 0.000000 0.000000
# 3 -0.003677 -0.000682 0.009850 0.000000 0.000000 0.000000
# 4 0.000000 0.000000 0.000000 0.058157 0.000000 0.000000
# 5 0.000000 0.000000 0.000000 0.000000 0.034023 0.000000
# 6 0.000000 0.000000 0.000000 0.000000 0.000000 0.006578
#
#
# Mechanical properties :
#
#
# Convention : Reuss Voigt Hill
#
# Bulk Modulus (GPa) = 79.97936 81.58580 80.78258
# Shear Modulus (GPa) = 34.67104 58.50015 46.58560
#
# Velocity S-wave (km/s) = 4.18860 5.44081 4.85525
# Velocity P-wave (km/s) = 7.99149 8.98634 8.50348
#
# Compressibility (1/GPa) = 0.01250323
#
# Stress axis : x y z
#
# Youngs Moduli (GPa) = 99.55042 142.84788 101.52674
#
# Poissons Ratio (x) = 0.40521 0.37330
# Poissons Ratio (y) = 0.28239 0.06929
# Poissons Ratio (z) = 0.36604 0.09749
#
# Static dielectric constant tensor:
#      x y z
#    x 3.797740 0.000000 0.000000 
#    y 0.000000 3.645620 0.000000 
#    z 0.000000 0.000000 3.341830 
# 
# 
# High freq. dielectric constant tensor:
#      x y z
#    x 1.779550 0.000000 0.000000 
#    y 0.000000 1.779870 0.000000 
#    z 0.000000 0.000000 1.772680 
# 
# From -- ./inp_files/22557.got.cif
#   From: 2010.03.12/outbox.cif.g09.slc.cpg/sg69_12_cif.got.tgz:22557.got - 2010.04.10 23:52:46.
