data_PCOD8285943
_publ_section_title
;
Structure prediction by ZEFSAII (Michael W. Deem and Ramdas Pophale) SiO2 
 PCOD8285943
Probable space group: F D D D
;
_chemical_formula_sum "Si O2"
_cell_formula_units_Z 112
_cell_length_a 14.103045
_cell_length_b 13.695785
_cell_length_c 20.987832
_cell_angle_alpha 90.000000
_cell_angle_beta 90.000000
_cell_angle_gamma 90.000000
_cell_volume 4053.847439
_symmetry_space_group_name_H-M "F D D D"
_symmetry_group_IT_number 70
_space_group.IT_coordinate_system_code '2'
_symmetry_cell_setting 'orthorhombic'
loop_
_space_group_symop_operation_xyz
x,y,z
1/4-x,1/4-y,z
x,1/4-y,1/4-z
1/4-x,y,1/4-z
-x,-y,-z
3/4+x,3/4+y,-z
-x,3/4+y,3/4+z
3/4+x,-y,3/4+z
x,1/2+y,1/2+z
1/4-x,3/4-y,1/2+z
x,3/4-y,3/4-z
1/4-x,1/2+y,3/4-z
-x,1/2-y,1/2-z
3/4+x,1/4+y,1/2-z
-x,1/4+y,1/4+z
3/4+x,1/2-y,1/4+z
1/2+x,y,1/2+z
3/4-x,1/4-y,1/2+z
1/2+x,1/4-y,3/4-z
3/4-x,y,3/4-z
1/2-x,-y,1/2-z
1/4+x,3/4+y,1/2-z
1/2-x,3/4+y,1/4+z
1/4+x,-y,1/4+z
1/2+x,1/2+y,z
3/4-x,3/4-y,z
1/2+x,3/4-y,1/4-z
3/4-x,1/2+y,1/4-z
1/2-x,1/2-y,-z
1/4+x,1/4+y,-z
1/2-x,1/4+y,3/4+z
1/4+x,1/2-y,3/4+z
loop_
_atom_site_type_symbol
_atom_site_label
_atom_site_fract_x
_atom_site_fract_y
_atom_site_fract_z
Si Si1 0.065531 0.221140 0.339279
Si Si2 0.810696 0.625000 0.625000
Si Si3 0.057997 0.707234 0.007876
Si Si4 0.382201 0.580333 0.963041
O O1 0.125000 0.125000 0.323797
O O2 0.117988 0.283499 0.395722
O O3 0.074121 0.292210 0.278710
O O4 0.952488 0.197615 0.346145
O O5 0.744474 0.592741 0.567889
O O6 0.125000 0.625000 0.977788
O O7 0.115009 0.801855 0.030849
O O8 0.974067 0.715761 0.954080
#
# Coordination Sequence:
#
# PCOD8285943 Si02
#       4
#    32  16  32  32
#     4  10  19  39  68  95 133 176 220 286 344 398
#     4  10  21  38  64  97 136 176 215 280 357 396
#     4  11  22  40  67  98 137 179 227 278 343 412
#     4  10  20  38  69  97 125 180 228 277 328 405
#
# _framework density 27.628076
#
# number of rings (size 3 to 8) (size 9 to 14) (size 15 to 20)
#    0.000    1.714    5.714    1.286    0.000    0.000 
#    0.000   11.429    0.000    6.857    0.000    2.000 
#    0.000    0.000    0.000    0.000    0.000    0.000 
#
# Total GULP energy -346874.400129 kJ/mol
# GULP energy per Si atom -12388.371433 kJ/mol
# Density = 2.756519 g / cm^3
# Si number density = 27.628076 Si / 1000 Ang^3
#
#
#
# Elastic Constant Matrix: (Units=GPa)
#
#
# Indices 1 2 3 4 5 6 
#
# 1 149.0438 16.3459 -42.1236 0.0000 0.0000 0.0000
# 2 16.3459 150.5662 -13.0669 0.0000 0.0000 0.0000
# 3 -42.1236 -13.0669 41.8628 0.0000 0.0000 0.0000
# 4 0.0000 0.0000 0.0000 15.7491 0.0000 0.0000
# 5 0.0000 0.0000 0.0000 0.0000 3.7007 0.0000
# 6 0.0000 0.0000 0.0000 0.0000 0.0000 65.2064
#
#
#
# Elastic Compliance Matrix: (Units=1/GPa)
#
#
# Indices 1 2 3 4 5 6 
#
# 1 0.009382 -0.000205 0.009376 0.000000 0.000000 0.000000
# 2 -0.000205 0.006831 0.001926 0.000000 0.000000 0.000000
# 3 0.009376 0.001926 0.033924 0.000000 0.000000 0.000000
# 4 0.000000 0.000000 0.000000 0.063496 0.000000 0.000000
# 5 0.000000 0.000000 0.000000 0.000000 0.270217 0.000000
# 6 0.000000 0.000000 0.000000 0.000000 0.000000 0.015336
#
#
# Mechanical properties :
#
#
# Convention : Reuss Voigt Hill
#
# Bulk Modulus (GPa) = 13.82513 29.30929 21.56721
# Shear Modulus (GPa) = 12.46572 42.28573 27.37572
#
# Velocity S-wave (km/s) = 2.12645 3.91645 3.15122
# Velocity P-wave (km/s) = 3.32324 5.57521 4.58949
#
# Compressibility (1/GPa) = 0.07233204
#
# Stress axis : x y z
#
# Youngs Moduli (GPa) = 106.58803 146.39163 29.47801
#
# Poissons Ratio (x) = 0.02998 -0.27640
# Poissons Ratio (y) = 0.02183 -0.05678
# Poissons Ratio (z) = -0.99942 -0.28197
#
# Static dielectric constant tensor:
#      x y z
#    x 6.300770 0.000000 0.000000 
#    y 0.000000 5.529700 0.000000 
#    z 0.000000 0.000000 5.517120 
# 
# 
# High freq. dielectric constant tensor:
#      x y z
#    x 2.142470 0.000000 0.000000 
#    y 0.000000 2.119040 0.000000 
#    z 0.000000 0.000000 2.131590 
# 
# From -- ./inp_files/38237.got.cif
#   From: 2010.03.12/outbox.cif.g09.slc.cpg/sg70_20_cif.got.tgz:38237.got - 2010.04.16 13:46:32.
