data_PCOD8285471
_publ_section_title
;
Structure prediction by ZEFSAII (Michael W. Deem and Ramdas Pophale) SiO2 
 PCOD8285471
Probable space group: F M M M
;
_chemical_formula_sum "Si O2"
_cell_formula_units_Z 192
_cell_length_a 22.425501
_cell_length_b 24.237098
_cell_length_c 20.904431
_cell_angle_alpha 90.000000
_cell_angle_beta 90.000000
_cell_angle_gamma 90.000000
_cell_volume 11362.165845
_symmetry_space_group_name_H-M "F M M M"
_symmetry_group_IT_number 69
_symmetry_cell_setting 'orthorhombic'
loop_
_space_group_symop_operation_xyz
x,y,z
-x,-y,z
x,-y,-z
-x,y,-z
-x,-y,-z
x,y,-z
-x,y,z
x,-y,z
x,1/2+y,1/2+z
-x,1/2-y,1/2+z
x,1/2-y,1/2-z
-x,1/2+y,1/2-z
-x,1/2-y,1/2-z
x,1/2+y,1/2-z
-x,1/2+y,1/2+z
x,1/2-y,1/2+z
1/2+x,y,1/2+z
1/2-x,-y,1/2+z
1/2+x,-y,1/2-z
1/2-x,y,1/2-z
1/2-x,-y,1/2-z
1/2+x,y,1/2-z
1/2-x,y,1/2+z
1/2+x,-y,1/2+z
1/2+x,1/2+y,z
1/2-x,1/2-y,z
1/2+x,1/2-y,-z
1/2-x,1/2+y,-z
1/2-x,1/2-y,-z
1/2+x,1/2+y,-z
1/2-x,1/2+y,z
1/2+x,1/2-y,z
loop_
_atom_site_type_symbol
_atom_site_label
_atom_site_fract_x
_atom_site_fract_y
_atom_site_fract_z
Si Si1 0.432028 0.000000 0.103462
Si Si2 0.433655 0.196936 0.158413
Si Si3 0.067548 0.319419 0.691470
Si Si4 0.720222 0.564449 0.335699
Si Si5 0.655856 0.091398 0.290691
Si Si6 0.633554 0.610255 0.427709
Si Si7 0.430954 0.000000 0.746158
O O1 0.407146 0.056036 0.073543
O O2 0.500000 0.000000 0.085189
O O3 0.419999 0.000000 0.178555
O O4 0.500000 0.186294 0.131735
O O5 0.418379 0.261827 0.156334
O O6 0.430693 0.180220 0.231966
O O7 0.390093 0.160905 0.114866
O O8 0.125339 0.356233 0.674479
O O9 0.000000 0.338947 0.671299
O O10 0.702146 0.500000 0.328573
O O11 0.687301 0.598484 0.278799
O O12 0.791703 0.569316 0.336424
O O13 0.697980 0.590996 0.401667
O O14 0.599009 0.052431 0.285612
O O15 0.640252 0.631644 0.500000
O O16 0.500000 0.000000 0.728247
#
# Coordination Sequence:
#
# PCOD8285471 Si02
#       7
#    16  32  32  32  32  32  16
#     4  11  21  31  45  73 111 144 180 211 243 305
#     4   9  18  33  50  73 105 138 173 218 265 304
#     4   9  17  31  54  76 100 133 174 223 269 313
#     4  11  20  33  49  72 108 148 178 212 261 310
#     4  11  17  31  51  74 102 137 177 217 265 317
#     4  12  22  34  51  73 106 144 183 213 245 308
#     4  11  18  27  49  79 113 138 161 216 278 316
#
# _framework density 16.898187
#
# number of rings (size 3 to 8) (size 9 to 14) (size 15 to 20)
#    0.000    1.500    5.833    2.750    0.000    4.333 
#    0.000    0.833    0.000    2.000    0.000    0.000 
#    0.000    2.667    0.000    0.000    0.000    0.167 
#
# Total GULP energy -594685.741577 kJ/mol
# GULP energy per Si atom -12389.286283 kJ/mol
# Density = 1.685973 g / cm^3
# Si number density = 16.898187 Si / 1000 Ang^3
#
#
#
# Elastic Constant Matrix: (Units=GPa)
#
#
# Indices 1 2 3 4 5 6 
#
# 1 120.3653 44.5224 37.4962 0.0000 0.0000 0.0000
# 2 44.5224 79.8002 32.4718 0.0000 0.0000 0.0000
# 3 37.4962 32.4718 68.3280 0.0000 0.0000 0.0000
# 4 0.0000 0.0000 0.0000 -125.4760 0.0000 0.0000
# 5 0.0000 0.0000 0.0000 0.0000 15.0962 0.0000
# 6 0.0000 0.0000 0.0000 0.0000 0.0000 31.3493
#
#
#
# Elastic Compliance Matrix: (Units=1/GPa)
#
#
# Indices 1 2 3 4 5 6 
#
# 1 0.011273 -0.004676 -0.003964 0.000000 0.000000 0.000000
# 2 -0.004676 0.017476 -0.005739 0.000000 0.000000 0.000000
# 3 -0.003964 -0.005739 0.019538 0.000000 0.000000 0.000000
# 4 0.000000 0.000000 0.000000 -0.007970 0.000000 0.000000
# 5 0.000000 0.000000 0.000000 0.000000 0.066242 0.000000
# 6 0.000000 0.000000 0.000000 0.000000 0.000000 0.031899
#
#
# Mechanical properties :
#
#
# Convention : Reuss Voigt Hill
#
# Bulk Modulus (GPa) = 51.20789 55.27495 53.24142
# Shear Modulus (GPa) = 28.78140 -5.53923 11.62108
#
# Velocity S-wave (km/s) = 4.13149 -1.81249 2.62527
# Velocity P-wave (km/s) = 7.28893 5.32930 6.38475
#
# Compressibility (1/GPa) = 0.01952824
#
# Stress axis : x y z
#
# Youngs Moduli (GPa) = 88.71100 57.22292 51.18324
#
# Poissons Ratio (x) = 0.26760 0.20287
# Poissons Ratio (y) = 0.41485 0.29373
# Poissons Ratio (z) = 0.35162 0.32839
#
# Static dielectric constant tensor:
#      x y z
#    x 3.484820 0.000000 0.000000 
#    y 0.000000 3.230040 0.000000 
#    z 0.000000 0.000000 2.832650 
# 
# 
# High freq. dielectric constant tensor:
#      x y z
#    x 1.661690 0.000000 0.000000 
#    y 0.000000 1.649020 0.000000 
#    z 0.000000 0.000000 1.600420 
# 
# From -- ./inp_files/32949.got.cif
#   From: 2010.03.12/outbox.cif.g09.slc.cpg/sg69_17_cif.got.tgz:32949.got - 2010.04.10 23:52:46.
