data_PCOD8285879
_publ_section_title
;
Structure prediction by ZEFSAII (Michael W. Deem and Ramdas Pophale) SiO2 
 PCOD8285879
Probable space group: F D D D
;
_chemical_formula_sum "Si O2"
_cell_formula_units_Z 176
_cell_length_a 32.367406
_cell_length_b 10.193289
_cell_length_c 28.214224
_cell_angle_alpha 90.000000
_cell_angle_beta 90.000000
_cell_angle_gamma 90.000000
_cell_volume 9308.728053
_symmetry_space_group_name_H-M "F D D D"
_symmetry_group_IT_number 70
_space_group.IT_coordinate_system_code '2'
_symmetry_cell_setting 'orthorhombic'
loop_
_space_group_symop_operation_xyz
x,y,z
1/4-x,1/4-y,z
x,1/4-y,1/4-z
1/4-x,y,1/4-z
-x,-y,-z
3/4+x,3/4+y,-z
-x,3/4+y,3/4+z
3/4+x,-y,3/4+z
x,1/2+y,1/2+z
1/4-x,3/4-y,1/2+z
x,3/4-y,3/4-z
1/4-x,1/2+y,3/4-z
-x,1/2-y,1/2-z
3/4+x,1/4+y,1/2-z
-x,1/4+y,1/4+z
3/4+x,1/2-y,1/4+z
1/2+x,y,1/2+z
3/4-x,1/4-y,1/2+z
1/2+x,1/4-y,3/4-z
3/4-x,y,3/4-z
1/2-x,-y,1/2-z
1/4+x,3/4+y,1/2-z
1/2-x,3/4+y,1/4+z
1/4+x,-y,1/4+z
1/2+x,1/2+y,z
3/4-x,3/4-y,z
1/2+x,3/4-y,1/4-z
3/4-x,1/2+y,1/4-z
1/2-x,1/2-y,-z
1/4+x,1/4+y,-z
1/2-x,1/4+y,3/4+z
1/4+x,1/2-y,3/4+z
loop_
_atom_site_type_symbol
_atom_site_label
_atom_site_fract_x
_atom_site_fract_y
_atom_site_fract_z
Si Si1 0.309056 0.514617 0.540865
Si Si2 0.862493 0.125000 0.625000
Si Si3 0.028149 0.203528 0.075992
Si Si4 0.859036 0.636951 0.822410
Si Si5 0.625000 0.125000 0.234581
Si Si6 0.824772 0.983144 0.760274
Si Si7 0.625000 0.625000 0.928396
O O1 0.334499 0.566374 0.584681
O O2 0.264027 0.473936 0.560039
O O3 0.334459 0.395527 0.517321
O O4 0.304627 0.626793 0.501095
O O5 0.888598 0.247750 0.603298
O O6 0.023057 0.125000 0.125000
O O7 0.061795 0.318287 0.077413
O O8 0.039845 0.096891 0.036874
O O9 0.875000 0.623425 0.875000
O O10 0.862903 0.497722 0.797353
O O11 0.884192 0.746755 0.792807
O O12 0.835999 0.909383 0.711370
#
# Coordination Sequence:
#
# PCOD8285879 Si02
#       7
#    32  16  32  32  16  32  16
#     4  10  22  39  59  84 119 159 197 253 305 355
#     4  10  20  36  56  84 111 156 202 249 296 358
#     4  12  21  35  61  94 121 148 202 259 304 349
#     4  11  21  37  63  89 122 161 200 247 300 378
#     4  10  24  42  60  83 120 171 206 236 314 380
#     4  10  20  36  59  89 118 153 195 247 302 357
#     4  10  19  34  59  81 116 151 203 242 295 358
#
# _framework density 18.906987000000001
#
# number of rings (size 3 to 8) (size 9 to 14) (size 15 to 20)
#    0.000    1.455    4.545    1.364    0.000    0.727 
#    0.000    0.000    0.000    0.000    0.000    0.000 
#    0.000    0.000    0.000    0.000    0.000    0.000 
#
# Total GULP energy -545454.295440 kJ/mol
# GULP energy per Si atom -12396.688533 kJ/mol
# Density = 1.886395 g / cm^3
# Si number density = 18.906987 Si / 1000 Ang^3
#
#
#
# Elastic Constant Matrix: (Units=GPa)
#
#
# Indices 1 2 3 4 5 6 
#
# 1 121.3111 49.2377 44.6523 0.0000 0.0000 0.0000
# 2 49.2377 104.9958 59.4430 0.0000 0.0000 0.0000
# 3 44.6523 59.4430 117.3822 0.0000 0.0000 0.0000
# 4 0.0000 0.0000 0.0000 34.7411 0.0000 0.0000
# 5 0.0000 0.0000 0.0000 0.0000 36.5775 0.0000
# 6 0.0000 0.0000 0.0000 0.0000 0.0000 15.8506
#
#
#
# Elastic Compliance Matrix: (Units=1/GPa)
#
#
# Indices 1 2 3 4 5 6 
#
# 1 0.010542 -0.003748 -0.002112 0.000000 0.000000 0.000000
# 2 -0.003748 0.014685 -0.006011 0.000000 0.000000 0.000000
# 3 -0.002112 -0.006011 0.012367 0.000000 0.000000 0.000000
# 4 0.000000 0.000000 0.000000 0.028784 0.000000 0.000000
# 5 0.000000 0.000000 0.000000 0.000000 0.027339 0.000000
# 6 0.000000 0.000000 0.000000 0.000000 0.000000 0.063089
#
#
# Mechanical properties :
#
#
# Convention : Reuss Voigt Hill
#
# Bulk Modulus (GPa) = 72.19390 72.26167 72.22779
# Shear Modulus (GPa) = 27.00299 30.12423 28.56361
#
# Velocity S-wave (km/s) = 3.78326 3.99593 3.89105
# Velocity P-wave (km/s) = 7.57302 7.71962 7.64667
#
# Compressibility (1/GPa) = 0.01385159
#
# Stress axis : x y z
#
# Youngs Moduli (GPa) = 94.85960 68.09824 80.86327
#
# Poissons Ratio (x) = 0.25522 0.17080
# Poissons Ratio (y) = 0.35551 0.48605
# Poissons Ratio (z) = 0.20037 0.40932
#
# Static dielectric constant tensor:
#      x y z
#    x 3.353830 0.000000 0.000000 
#    y 0.000000 3.544650 0.000000 
#    z 0.000000 0.000000 3.804730 
# 
# 
# High freq. dielectric constant tensor:
#      x y z
#    x 1.713790 0.000000 0.000000 
#    y 0.000000 1.729600 0.000000 
#    z 0.000000 0.000000 1.757370 
# 
# From -- ./inp_files/21230.got.cif
#   From: 2010.03.12/outbox.cif.g09.slc.cpg/sg70_11_cif.got.tgz:21230.got - 2010.04.16 13:46:32.
