data_PCOD8285354
_publ_section_title
;
Structure prediction by ZEFSAII (Michael W. Deem and Ramdas Pophale) SiO2 
 PCOD8285354
Probable space group: F M M M
;
_chemical_formula_sum "Si O2"
_cell_formula_units_Z 144
_cell_length_a 9.664695
_cell_length_b 27.416300
_cell_length_c 26.886861
_cell_angle_alpha 90.000000
_cell_angle_beta 90.000000
_cell_angle_gamma 90.000000
_cell_volume 7124.216332
_symmetry_space_group_name_H-M "F M M M"
_symmetry_group_IT_number 69
_symmetry_cell_setting 'orthorhombic'
loop_
_space_group_symop_operation_xyz
x,y,z
-x,-y,z
x,-y,-z
-x,y,-z
-x,-y,-z
x,y,-z
-x,y,z
x,-y,z
x,1/2+y,1/2+z
-x,1/2-y,1/2+z
x,1/2-y,1/2-z
-x,1/2+y,1/2-z
-x,1/2-y,1/2-z
x,1/2+y,1/2-z
-x,1/2+y,1/2+z
x,1/2-y,1/2+z
1/2+x,y,1/2+z
1/2-x,-y,1/2+z
1/2+x,-y,1/2-z
1/2-x,y,1/2-z
1/2-x,-y,1/2-z
1/2+x,y,1/2-z
1/2-x,y,1/2+z
1/2+x,-y,1/2+z
1/2+x,1/2+y,z
1/2-x,1/2-y,z
1/2+x,1/2-y,-z
1/2-x,1/2+y,-z
1/2-x,1/2-y,-z
1/2+x,1/2+y,-z
1/2-x,1/2+y,z
1/2+x,1/2-y,z
loop_
_atom_site_type_symbol
_atom_site_label
_atom_site_fract_x
_atom_site_fract_y
_atom_site_fract_z
Si Si1 0.753212 0.855382 0.352721
Si Si2 0.000000 0.795202 0.319989
Si Si3 0.840189 0.408255 0.443050
Si Si4 0.343947 0.554266 0.296356
Si Si5 0.500000 0.683220 0.205529
Si Si6 0.343598 0.000000 0.058629
O O1 0.865203 0.812127 0.350453
O O2 0.693363 0.861100 0.408614
O O3 0.822123 0.907028 0.339797
O O4 0.634582 0.844459 0.313047
O O5 0.000000 0.737414 0.316494
O O6 0.000000 0.818803 0.265149
O O7 0.810634 0.393133 0.500000
O O8 0.742712 0.452488 0.425333
O O9 0.000000 0.424069 0.436206
O O10 0.500000 0.556788 0.276701
O O11 0.309571 0.500000 0.317530
O O12 0.250000 0.567638 0.250000
O O13 0.500000 0.000000 0.082540
O O14 0.359508 0.000000 0.000000
#
# Coordination Sequence:
#
# PCOD8285354 Si02
#       6
#    32  16  32  32  16  16
#     4  12  23  39  64  94 121 166 209 255 312 378
#     4  11  24  42  68  94 127 156 204 268 323 369
#     4  10  22  41  62  88 127 171 214 259 307 370
#     4  10  22  38  57  86 127 168 205 244 298 374
#     4  11  24  44  66  94 123 162 206 260 319 383
#     4   9  19  35  61  93 124 161 212 268 312 354
#
# _framework density 20.21275
#
# number of rings (size 3 to 8) (size 9 to 14) (size 15 to 20)
#    0.000    1.444    2.222    3.000    4.667    3.111 
#    0.000    0.000    0.000    4.000    0.000    0.000 
#    0.000    0.000    0.000    0.000    0.000    0.000 
#
# Total GULP energy -446457.571301 kJ/mol
# GULP energy per Si atom -12401.599203 kJ/mol
# Density = 2.016674 g / cm^3
# Si number density = 20.212750 Si / 1000 Ang^3
#
#
#
# Elastic Constant Matrix: (Units=GPa)
#
#
# Indices 1 2 3 4 5 6 
#
# 1 136.1442 30.7593 35.2368 0.0000 0.0000 0.0000
# 2 30.7593 73.5156 38.7531 0.0000 0.0000 0.0000
# 3 35.2368 38.7531 78.6135 0.0000 0.0000 0.0000
# 4 0.0000 0.0000 0.0000 27.8166 0.0000 0.0000
# 5 0.0000 0.0000 0.0000 0.0000 36.8010 0.0000
# 6 0.0000 0.0000 0.0000 0.0000 0.0000 41.9566
#
#
#
# Elastic Compliance Matrix: (Units=1/GPa)
#
#
# Indices 1 2 3 4 5 6 
#
# 1 0.008543 -0.002102 -0.002793 0.000000 0.000000 0.000000
# 2 -0.002102 0.018896 -0.008372 0.000000 0.000000 0.000000
# 3 -0.002793 -0.008372 0.018100 0.000000 0.000000 0.000000
# 4 0.000000 0.000000 0.000000 0.035950 0.000000 0.000000
# 5 0.000000 0.000000 0.000000 0.000000 0.027173 0.000000
# 6 0.000000 0.000000 0.000000 0.000000 0.000000 0.023834
#
#
# Mechanical properties :
#
#
# Convention : Reuss Voigt Hill
#
# Bulk Modulus (GPa) = 52.62314 55.30796 53.96555
# Shear Modulus (GPa) = 30.23622 33.54979 31.89300
#
# Velocity S-wave (km/s) = 3.87188 4.07852 3.97654
# Velocity P-wave (km/s) = 6.78821 7.04283 6.91669
#
# Compressibility (1/GPa) = 0.01900305
#
# Stress axis : x y z
#
# Youngs Moduli (GPa) = 117.05541 52.92244 55.24989
#
# Poissons Ratio (x) = 0.11125 0.15431
# Poissons Ratio (y) = 0.24607 0.46258
# Poissons Ratio (z) = 0.32693 0.44309
#
# Static dielectric constant tensor:
#      x y z
#    x 4.816640 0.000000 0.000000 
#    y 0.000000 3.604200 0.000000 
#    z 0.000000 0.000000 3.519410 
# 
# 
# High freq. dielectric constant tensor:
#      x y z
#    x 1.807690 0.000000 0.000000 
#    y 0.000000 1.777950 0.000000 
#    z 0.000000 0.000000 1.777430 
# 
# From -- ./inp_files/44555.got.cif
#   From: 2010.03.12/outbox.cif.g09.slc.cpg/sg69_23_cif.got.tgz:44555.got - 2010.04.10 23:52:46.
