data_PCOD8285276
_publ_section_title
;
Structure prediction by ZEFSAII (Michael W. Deem and Ramdas Pophale) SiO2 
 PCOD8285276
Probable space group: F M M M
;
_chemical_formula_sum "Si O2"
_cell_formula_units_Z 128
_cell_length_a 14.733605
_cell_length_b 25.026720
_cell_length_c 17.904148
_cell_angle_alpha 90.000000
_cell_angle_beta 90.000000
_cell_angle_gamma 90.000000
_cell_volume 6601.864652
_symmetry_space_group_name_H-M "F M M M"
_symmetry_group_IT_number 69
_symmetry_cell_setting 'orthorhombic'
loop_
_space_group_symop_operation_xyz
x,y,z
-x,-y,z
x,-y,-z
-x,y,-z
-x,-y,-z
x,y,-z
-x,y,z
x,-y,z
x,1/2+y,1/2+z
-x,1/2-y,1/2+z
x,1/2-y,1/2-z
-x,1/2+y,1/2-z
-x,1/2-y,1/2-z
x,1/2+y,1/2-z
-x,1/2+y,1/2+z
x,1/2-y,1/2+z
1/2+x,y,1/2+z
1/2-x,-y,1/2+z
1/2+x,-y,1/2-z
1/2-x,y,1/2-z
1/2-x,-y,1/2-z
1/2+x,y,1/2-z
1/2-x,y,1/2+z
1/2+x,-y,1/2+z
1/2+x,1/2+y,z
1/2-x,1/2-y,z
1/2+x,1/2-y,-z
1/2-x,1/2+y,-z
1/2-x,1/2-y,-z
1/2+x,1/2+y,-z
1/2-x,1/2+y,z
1/2+x,1/2-y,z
loop_
_atom_site_type_symbol
_atom_site_label
_atom_site_fract_x
_atom_site_fract_y
_atom_site_fract_z
Si Si1 0.500000 0.937537 0.083758
Si Si2 0.900420 0.865368 0.317913
Si Si3 0.607708 0.000000 0.415947
Si Si4 0.254122 0.813126 0.083772
Si Si5 0.606915 0.612392 0.850447
O O1 0.589488 0.917370 0.128344
O O2 0.500000 0.000000 0.082188
O O3 0.500000 0.913919 0.000000
O O4 0.829019 0.826291 0.354678
O O5 0.867779 0.883135 0.236474
O O6 0.000000 0.836809 0.312463
O O7 0.642218 0.946180 0.375331
O O8 0.500000 0.000000 0.415581
O O9 0.646149 0.000000 0.500000
O O10 0.250000 0.750000 0.086817
O O11 0.158860 0.841274 0.104347
O O12 0.281523 0.831409 0.000000
O O13 0.500000 0.619539 0.866289
#
# Coordination Sequence:
#
# PCOD8285276 Si02
#       5
#    16  32  16  32  32
#     4   9  18  34  60  87 118 156 190 234 287 348
#     4   9  21  37  60  86 117 151 189 243 289 347
#     4   9  18  34  59  86 121 157 190 234 284 351
#     4  11  24  41  60  83 116 157 201 247 291 345
#     4  10  21  38  61  89 118 153 191 241 296 346
#
# _framework density 19.388461
#
# number of rings (size 3 to 8) (size 9 to 14) (size 15 to 20)
#    0.750    1.500    0.000    2.250    1.750    4.500 
#    2.250    6.250    0.000    0.000    0.000    0.000 
#    0.000    0.000    0.000    0.000    0.000    0.000 
#
# Total GULP energy -396580.391178 kJ/mol
# GULP energy per Si atom -12393.137224 kJ/mol
# Density = 1.934433 g / cm^3
# Si number density = 19.388461 Si / 1000 Ang^3
#
#
#
# Elastic Constant Matrix: (Units=GPa)
#
#
# Indices 1 2 3 4 5 6 
#
# 1 72.2380 42.4269 41.6791 0.0000 0.0000 0.0000
# 2 42.4269 111.9326 66.9665 0.0000 0.0000 0.0000
# 3 41.6791 66.9665 172.2903 0.0000 0.0000 0.0000
# 4 0.0000 0.0000 0.0000 34.2050 0.0000 0.0000
# 5 0.0000 0.0000 0.0000 0.0000 245.9556 0.0000
# 6 0.0000 0.0000 0.0000 0.0000 0.0000 29.9745
#
#
#
# Elastic Compliance Matrix: (Units=1/GPa)
#
#
# Indices 1 2 3 4 5 6 
#
# 1 0.018468 -0.005638 -0.002276 0.000000 0.000000 0.000000
# 2 -0.005638 0.013362 -0.003830 0.000000 0.000000 0.000000
# 3 -0.002276 -0.003830 0.007843 0.000000 0.000000 0.000000
# 4 0.000000 0.000000 0.000000 0.029236 0.000000 0.000000
# 5 0.000000 0.000000 0.000000 0.000000 0.004066 0.000000
# 6 0.000000 0.000000 0.000000 0.000000 0.000000 0.033362
#
#
# Mechanical properties :
#
#
# Convention : Reuss Voigt Hill
#
# Bulk Modulus (GPa) = 61.78474 73.17845 67.48159
# Shear Modulus (GPa) = 36.97679 75.71956 56.34818
#
# Velocity S-wave (km/s) = 4.37184 6.25609 5.39684
# Velocity P-wave (km/s) = 7.57759 9.48737 8.58575
#
# Compressibility (1/GPa) = 0.01618523
#
# Stress axis : x y z
#
# Youngs Moduli (GPa) = 54.14813 74.83713 127.49685
#
# Poissons Ratio (x) = 0.42196 0.29019
# Poissons Ratio (y) = 0.30531 0.48828
# Poissons Ratio (z) = 0.12324 0.28661
#
# Static dielectric constant tensor:
#      x y z
#    x 3.391690 0.000000 0.000000 
#    y 0.000000 3.374850 0.000000 
#    z 0.000000 0.000000 3.871580 
# 
# 
# High freq. dielectric constant tensor:
#      x y z
#    x 1.736490 0.000000 0.000000 
#    y 0.000000 1.742180 0.000000 
#    z 0.000000 0.000000 1.778820 
# 
# From -- ./inp_files/21594.got.cif
#   From: 2010.03.12/outbox.cif.g09.slc.cpg/sg69_11_cif.got.tgz:21594.got - 2010.04.10 23:52:46.
