data_PCOD8285748
_publ_section_title
;
Structure prediction by ZEFSAII (Michael W. Deem and Ramdas Pophale) SiO2 
 PCOD8285748
Probable space group: F D D D
;
_chemical_formula_sum "Si O2"
_cell_formula_units_Z 128
_cell_length_a 8.742746
_cell_length_b 28.897596
_cell_length_c 26.944680
_cell_angle_alpha 90.000000
_cell_angle_beta 90.000000
_cell_angle_gamma 90.000000
_cell_volume 6807.420945
_symmetry_space_group_name_H-M "F D D D"
_symmetry_group_IT_number 70
_space_group.IT_coordinate_system_code '2'
_symmetry_cell_setting 'orthorhombic'
loop_
_space_group_symop_operation_xyz
x,y,z
1/4-x,1/4-y,z
x,1/4-y,1/4-z
1/4-x,y,1/4-z
-x,-y,-z
3/4+x,3/4+y,-z
-x,3/4+y,3/4+z
3/4+x,-y,3/4+z
x,1/2+y,1/2+z
1/4-x,3/4-y,1/2+z
x,3/4-y,3/4-z
1/4-x,1/2+y,3/4-z
-x,1/2-y,1/2-z
3/4+x,1/4+y,1/2-z
-x,1/4+y,1/4+z
3/4+x,1/2-y,1/4+z
1/2+x,y,1/2+z
3/4-x,1/4-y,1/2+z
1/2+x,1/4-y,3/4-z
3/4-x,y,3/4-z
1/2-x,-y,1/2-z
1/4+x,3/4+y,1/2-z
1/2-x,3/4+y,1/4+z
1/4+x,-y,1/4+z
1/2+x,1/2+y,z
3/4-x,3/4-y,z
1/2+x,3/4-y,1/4-z
3/4-x,1/2+y,1/4-z
1/2-x,1/2-y,-z
1/4+x,1/4+y,-z
1/2-x,1/4+y,3/4+z
1/4+x,1/2-y,3/4+z
loop_
_atom_site_type_symbol
_atom_site_label
_atom_site_fract_x
_atom_site_fract_y
_atom_site_fract_z
Si Si1 0.125000 0.512942 0.625000
Si Si2 0.125000 0.125000 0.413128
Si Si3 0.951722 0.434861 0.574776
Si Si4 0.530333 0.346905 0.919612
Si Si5 0.654560 0.399676 0.528774
O O1 0.219400 0.484481 0.667243
O O2 0.247478 0.544408 0.596480
O O3 0.034780 0.161180 0.378862
O O4 0.240610 0.155793 0.445650
O O5 0.776026 0.435673 0.554083
O O6 0.043174 0.403636 0.535404
O O7 0.617687 0.375000 0.875000
O O8 0.375000 0.375000 0.930641
O O9 0.624475 0.342764 0.970349
#
# Coordination Sequence:
#
# PCOD8285748 Si02
#       5
#    16  16  32  32  32
#     4  10  19  32  56  82 118 134 186 234 273 314
#     4  10  18  32  55  80 113 142 176 228 274 330
#     4  10  17  32  54  85 104 136 183 227 270 319
#     4   9  19  36  52  78 111 145 184 231 270 329
#     4  10  18  33  56  79 109 143 183 217 283 323
#
# _framework density 18.803008999999999
#
# number of rings (size 3 to 8) (size 9 to 14) (size 15 to 20)
#    0.000    2.750    5.000    2.250    0.000    1.000 
#    0.000    1.875    0.000    6.000    0.000    0.000 
#    0.000    0.000    0.000    0.000    0.000    0.000 
#
# Total GULP energy -396503.205853 kJ/mol
# GULP energy per Si atom -12390.725183 kJ/mol
# Density = 1.876021 g / cm^3
# Si number density = 18.803009 Si / 1000 Ang^3
#
#
#
# Elastic Constant Matrix: (Units=GPa)
#
#
# Indices 1 2 3 4 5 6 
#
# 1 57.3432 20.6888 31.8577 0.0000 0.0000 0.0000
# 2 20.6888 105.5375 38.4989 0.0000 0.0000 0.0000
# 3 31.8577 38.4989 153.5275 0.0000 0.0000 0.0000
# 4 0.0000 0.0000 0.0000 18.0831 0.0000 0.0000
# 5 0.0000 0.0000 0.0000 0.0000 14.6515 0.0000
# 6 0.0000 0.0000 0.0000 0.0000 0.0000 6.7319
#
#
#
# Elastic Compliance Matrix: (Units=1/GPa)
#
#
# Indices 1 2 3 4 5 6 
#
# 1 0.020387 -0.002700 -0.003553 0.000000 0.000000 0.000000
# 2 -0.002700 0.010787 -0.002145 0.000000 0.000000 0.000000
# 3 -0.003553 -0.002145 0.007789 0.000000 0.000000 0.000000
# 4 0.000000 0.000000 0.000000 0.055300 0.000000 0.000000
# 5 0.000000 0.000000 0.000000 0.000000 0.068252 0.000000
# 6 0.000000 0.000000 0.000000 0.000000 0.000000 0.148547
#
#
# Mechanical properties :
#
#
# Convention : Reuss Voigt Hill
#
# Bulk Modulus (GPa) = 45.11368 55.38879 50.25124
# Shear Modulus (GPa) = 14.91434 22.91748 18.91591
#
# Velocity S-wave (km/s) = 2.81942 3.49495 3.17520
# Velocity P-wave (km/s) = 5.88589 6.76813 6.34237
#
# Compressibility (1/GPa) = 0.02216623
#
# Stress axis : x y z
#
# Youngs Moduli (GPa) = 49.05041 92.70413 128.39266
#
# Poissons Ratio (x) = 0.25033 0.45622
# Poissons Ratio (y) = 0.13245 0.27536
# Poissons Ratio (z) = 0.17429 0.19882
#
# Static dielectric constant tensor:
#      x y z
#    x 3.179880 0.000000 0.000000 
#    y 0.000000 3.264850 0.000000 
#    z 0.000000 0.000000 3.669510 
# 
# 
# High freq. dielectric constant tensor:
#      x y z
#    x 1.696740 0.000000 0.000000 
#    y 0.000000 1.700520 0.000000 
#    z 0.000000 0.000000 1.738710 
# 
# From -- ./inp_files/11059.got.cif
#   From: 2010.03.12/outbox.cif.g09.slc.cpg/sg70_6_cif.got.tgz:11059.got - 2010.04.16 13:46:32.
