data_PCOD8285477
_publ_section_title
;
Structure prediction by ZEFSAII (Michael W. Deem and Ramdas Pophale) SiO2 
 PCOD8285477
Probable space group: F M M M
;
_chemical_formula_sum "Si O2"
_cell_formula_units_Z 176
_cell_length_a 28.735372
_cell_length_b 13.655870
_cell_length_c 31.413126
_cell_angle_alpha 90.000000
_cell_angle_beta 90.000000
_cell_angle_gamma 90.000000
_cell_volume 12326.714967
_symmetry_space_group_name_H-M "F M M M"
_symmetry_group_IT_number 69
_symmetry_cell_setting 'orthorhombic'
loop_
_space_group_symop_operation_xyz
x,y,z
-x,-y,z
x,-y,-z
-x,y,-z
-x,-y,-z
x,y,-z
-x,y,z
x,-y,z
x,1/2+y,1/2+z
-x,1/2-y,1/2+z
x,1/2-y,1/2-z
-x,1/2+y,1/2-z
-x,1/2-y,1/2-z
x,1/2+y,1/2-z
-x,1/2+y,1/2+z
x,1/2-y,1/2+z
1/2+x,y,1/2+z
1/2-x,-y,1/2+z
1/2+x,-y,1/2-z
1/2-x,y,1/2-z
1/2-x,-y,1/2-z
1/2+x,y,1/2-z
1/2-x,y,1/2+z
1/2+x,-y,1/2+z
1/2+x,1/2+y,z
1/2-x,1/2-y,z
1/2+x,1/2-y,-z
1/2-x,1/2+y,-z
1/2-x,1/2-y,-z
1/2+x,1/2+y,-z
1/2-x,1/2+y,z
1/2+x,1/2-y,z
loop_
_atom_site_type_symbol
_atom_site_label
_atom_site_fract_x
_atom_site_fract_y
_atom_site_fract_z
Si Si1 0.089662 0.383415 0.901717
Si Si2 0.000000 0.883748 0.547469
Si Si3 0.177967 0.300567 0.050392
Si Si4 0.945000 0.107304 0.227244
Si Si5 0.274275 0.892754 0.449663
Si Si6 0.944871 0.801620 0.684372
O O1 0.092679 0.500000 0.900767
O O2 0.045532 0.345542 0.928415
O O3 0.134806 0.339623 0.923497
O O4 0.085252 0.342522 0.854261
O O5 0.000000 0.839554 0.500000
O O6 0.000000 0.000000 0.545950
O O7 0.222787 0.362236 0.065412
O O8 0.187040 0.187150 0.063586
O O9 0.168503 0.312028 0.000000
O O10 0.928377 0.138333 0.274219
O O11 0.930940 0.187591 0.191822
O O12 0.000000 0.103136 0.228943
O O13 0.924256 0.000000 0.215522
O O14 0.272732 0.896363 0.500000
O O15 0.287021 0.000000 0.430698
O O16 0.000000 0.814727 0.675645
#
# Coordination Sequence:
#
# PCOD8285477 Si02
#       6
#    32  16  32  32  32  32
#     4  11  19  26  38  57  84 112 141 172 201 238
#     4   9  18  28  36  49  75 115 149 167 190 228
#     4   9  17  27  41  62  83 107 139 171 206 246
#     4   8  14  25  42  58  75 100 132 170 210 248
#     4   8  14  27  45  61  78 100 130 172 219 258
#     4   9  16  26  39  58  81 107 138 167 201 243
#
# _framework density 14.277932
#
# number of rings (size 3 to 8) (size 9 to 14) (size 15 to 20)
#    0.000    3.000    0.909    3.818    0.000    2.545 
#    0.000    0.909    0.000    0.000    0.000    0.000 
#    0.000   16.000    0.000   42.182    0.000    0.727 
#
# Total GULP energy -545262.119951 kJ/mol
# GULP energy per Si atom -12392.320908 kJ/mol
# Density = 1.424543 g / cm^3
# Si number density = 14.277932 Si / 1000 Ang^3
#
#
#
# Elastic Constant Matrix: (Units=GPa)
#
#
# Indices 1 2 3 4 5 6 
#
# 1 61.9883 41.4611 49.2919 0.0000 0.0000 0.0000
# 2 41.4611 120.0357 36.6669 0.0000 0.0000 0.0000
# 3 49.2919 36.6669 61.2350 0.0000 0.0000 0.0000
# 4 0.0000 0.0000 0.0000 18.5848 0.0000 0.0000
# 5 0.0000 0.0000 0.0000 0.0000 -0.4290 0.0000
# 6 0.0000 0.0000 0.0000 0.0000 0.0000 17.5779
#
#
#
# Elastic Compliance Matrix: (Units=1/GPa)
#
#
# Indices 1 2 3 4 5 6 
#
# 1 0.047949 -0.005840 -0.035101 0.000000 0.000000 0.000000
# 2 -0.005840 0.010907 -0.001830 0.000000 0.000000 0.000000
# 3 -0.035101 -0.001830 0.045681 0.000000 0.000000 0.000000
# 4 0.000000 0.000000 0.000000 0.053807 0.000000 0.000000
# 5 0.000000 0.000000 0.000000 0.000000 -2.331191 0.000000
# 6 0.000000 0.000000 0.000000 0.000000 0.000000 0.056890
#
#
# Mechanical properties :
#
#
# Convention : Reuss Voigt Hill
#
# Bulk Modulus (GPa) = 52.64198 55.34431 53.99314
# Shear Modulus (GPa) = -2.47025 14.86936 6.19956
#
# Velocity S-wave (km/s) = -1.31677 3.23061 2.08602
# Velocity P-wave (km/s) = 5.88538 7.26375 6.61059
#
# Compressibility (1/GPa) = 0.01899624
#
# Stress axis : x y z
#
# Youngs Moduli (GPa) = 20.85531 91.68388 21.89092
#
# Poissons Ratio (x) = 0.53543 0.76838
# Poissons Ratio (y) = 0.12179 0.04006
# Poissons Ratio (z) = 0.73203 0.16779
#
# Static dielectric constant tensor:
#      x y z
#    x 2.510440 0.000000 0.000000 
#    y 0.000000 3.411650 0.000000 
#    z 0.000000 0.000000 2.602260 
# 
# 
# High freq. dielectric constant tensor:
#      x y z
#    x 1.511830 0.000000 0.000000 
#    y 0.000000 1.552500 0.000000 
#    z 0.000000 0.000000 1.522060 
# 
# From -- ./inp_files/43611.got.cif
#   From: 2010.03.12/outbox.cif.g09.slc.cpg/sg69_22_cif.got.tgz:43611.got - 2010.04.10 23:52:46.
