data_PCOD8285491
_publ_section_title
;
Structure prediction by ZEFSAII (Michael W. Deem and Ramdas Pophale) SiO2 
 PCOD8285491
Probable space group: F M M M
;
_chemical_formula_sum "Si O2"
_cell_formula_units_Z 120
_cell_length_a 20.379561
_cell_length_b 16.699542
_cell_length_c 17.804013
_cell_angle_alpha 90.000000
_cell_angle_beta 90.000000
_cell_angle_gamma 90.000000
_cell_volume 6059.227902
_symmetry_space_group_name_H-M "F M M M"
_symmetry_group_IT_number 69
_symmetry_cell_setting 'orthorhombic'
loop_
_space_group_symop_operation_xyz
x,y,z
-x,-y,z
x,-y,-z
-x,y,-z
-x,-y,-z
x,y,-z
-x,y,z
x,-y,z
x,1/2+y,1/2+z
-x,1/2-y,1/2+z
x,1/2-y,1/2-z
-x,1/2+y,1/2-z
-x,1/2-y,1/2-z
x,1/2+y,1/2-z
-x,1/2+y,1/2+z
x,1/2-y,1/2+z
1/2+x,y,1/2+z
1/2-x,-y,1/2+z
1/2+x,-y,1/2-z
1/2-x,y,1/2-z
1/2-x,-y,1/2-z
1/2+x,y,1/2-z
1/2-x,y,1/2+z
1/2+x,-y,1/2+z
1/2+x,1/2+y,z
1/2-x,1/2-y,z
1/2+x,1/2-y,-z
1/2-x,1/2+y,-z
1/2-x,1/2-y,-z
1/2+x,1/2+y,-z
1/2-x,1/2+y,z
1/2+x,1/2-y,z
loop_
_atom_site_type_symbol
_atom_site_label
_atom_site_fract_x
_atom_site_fract_y
_atom_site_fract_z
Si Si1 0.750000 0.750000 0.250000
Si Si2 0.746270 0.000000 0.084344
Si Si3 0.327819 0.269658 0.000000
Si Si4 0.569111 0.133331 0.000000
Si Si5 0.923091 0.500000 0.288472
Si Si6 0.670068 0.133981 0.353562
Si Si7 0.096128 0.000000 0.610870
O O1 0.698650 0.802848 0.295653
O O2 0.768909 0.078039 0.127870
O O3 0.669758 0.000000 0.083659
O O4 0.775251 0.000000 0.000000
O O5 0.250000 0.250000 0.000000
O O6 0.352028 0.319104 0.072070
O O7 0.365941 0.186238 0.000000
O O8 0.565626 0.079582 0.075195
O O9 0.500000 0.182988 0.000000
O O10 0.890209 0.419247 0.321999
O O11 0.913827 0.500000 0.199476
O O12 0.000000 0.500000 0.309704
#
# Coordination Sequence:
#
# PCOD8285491 Si02
#       7
#     8  16  16  16  16  32  16
#     4  12  24  40  62 104 132 152 208 270 348 384
#     4  11  19  39  67  96 120 162 215 270 315 376
#     4  12  23  42  66  94 130 167 213 274 330 380
#     4  11  24  38  60  93 128 170 217 261 324 394
#     4  11  26  46  64  91 132 181 223 259 309 389
#     4  11  25  40  67  94 130 169 212 266 327 383
#     4  11  21  40  66  91 127 171 215 264 317 386
#
# _framework density 19.804504000000001
#
# number of rings (size 3 to 8) (size 9 to 14) (size 15 to 20)
#    0.000    0.800    4.000    4.800    3.733    3.200 
#    0.000    1.333    0.000    0.000    0.000    0.000 
#    0.000    0.000    0.000    0.000    0.000    0.000 
#
# Total GULP energy -371910.316386 kJ/mol
# GULP energy per Si atom -12397.010546 kJ/mol
# Density = 1.975943 g / cm^3
# Si number density = 19.804504 Si / 1000 Ang^3
#
#
#
# Elastic Constant Matrix: (Units=GPa)
#
#
# Indices 1 2 3 4 5 6 
#
# 1 139.2913 63.8738 51.4630 0.0000 0.0000 0.0000
# 2 63.8738 133.7555 69.5844 0.0000 0.0000 0.0000
# 3 51.4630 69.5844 158.1963 0.0000 0.0000 0.0000
# 4 0.0000 0.0000 0.0000 -19.5433 0.0000 0.0000
# 5 0.0000 0.0000 0.0000 0.0000 36.0841 0.0000
# 6 0.0000 0.0000 0.0000 0.0000 0.0000 102.3099
#
#
#
# Elastic Compliance Matrix: (Units=1/GPa)
#
#
# Indices 1 2 3 4 5 6 
#
# 1 0.009428 -0.003769 -0.001409 0.000000 0.000000 0.000000
# 2 -0.003769 0.011202 -0.003701 0.000000 0.000000 0.000000
# 3 -0.001409 -0.003701 0.008408 0.000000 0.000000 0.000000
# 4 0.000000 0.000000 0.000000 -0.051168 0.000000 0.000000
# 5 0.000000 0.000000 0.000000 0.000000 0.027713 0.000000
# 6 0.000000 0.000000 0.000000 0.000000 0.000000 0.009774
#
#
# Mechanical properties :
#
#
# Convention : Reuss Voigt Hill
#
# Bulk Modulus (GPa) = 88.66282 89.00949 88.83616
# Shear Modulus (GPa) = 135.59336 40.19161 87.89249
#
# Velocity S-wave (km/s) = 8.28339 4.50979 6.66906
# Velocity P-wave (km/s) = 11.67700 8.49466 10.21057
#
# Compressibility (1/GPa) = 0.01127868
#
# Stress axis : x y z
#
# Youngs Moduli (GPa) = 106.06371 89.27195 118.94000
#
# Poissons Ratio (x) = 0.33649 0.16760
# Poissons Ratio (y) = 0.39979 0.44020
# Poissons Ratio (z) = 0.14946 0.33040
#
# Static dielectric constant tensor:
#      x y z
#    x 3.572630 0.000000 0.000000 
#    y 0.000000 3.641690 0.000000 
#    z 0.000000 0.000000 3.860520 
# 
# 
# High freq. dielectric constant tensor:
#      x y z
#    x 1.771400 0.000000 0.000000 
#    y 0.000000 1.779890 0.000000 
#    z 0.000000 0.000000 1.785660 
# 
# From -- ./inp_files/22558.got.cif
#   From: 2010.03.12/outbox.cif.g09.slc.cpg/sg69_12_cif.got.tgz:22558.got - 2010.04.10 23:52:46.
