data_PCOD8285645
_publ_section_title
;
Structure prediction by ZEFSAII (Michael W. Deem and Ramdas Pophale) SiO2 
 PCOD8285645
Probable space group: F M M M
;
_chemical_formula_sum "Si O2"
_cell_formula_units_Z 112
_cell_length_a 28.259537
_cell_length_b 20.728959
_cell_length_c 9.297873
_cell_angle_alpha 90.000000
_cell_angle_beta 90.000000
_cell_angle_gamma 90.000000
_cell_volume 5446.608313
_symmetry_space_group_name_H-M "F M M M"
_symmetry_group_IT_number 69
_symmetry_cell_setting 'orthorhombic'
loop_
_space_group_symop_operation_xyz
x,y,z
-x,-y,z
x,-y,-z
-x,y,-z
-x,-y,-z
x,y,-z
-x,y,z
x,-y,z
x,1/2+y,1/2+z
-x,1/2-y,1/2+z
x,1/2-y,1/2-z
-x,1/2+y,1/2-z
-x,1/2-y,1/2-z
x,1/2+y,1/2-z
-x,1/2+y,1/2+z
x,1/2-y,1/2+z
1/2+x,y,1/2+z
1/2-x,-y,1/2+z
1/2+x,-y,1/2-z
1/2-x,y,1/2-z
1/2-x,-y,1/2-z
1/2+x,y,1/2-z
1/2-x,y,1/2+z
1/2+x,-y,1/2+z
1/2+x,1/2+y,z
1/2-x,1/2-y,z
1/2+x,1/2-y,-z
1/2-x,1/2+y,-z
1/2-x,1/2-y,-z
1/2+x,1/2+y,-z
1/2-x,1/2+y,z
1/2+x,1/2-y,z
loop_
_atom_site_type_symbol
_atom_site_label
_atom_site_fract_x
_atom_site_fract_y
_atom_site_fract_z
Si Si1 0.298049 0.860576 0.334474
Si Si2 0.102834 0.687598 0.668884
Si Si3 0.444068 0.926976 0.836426
Si Si4 0.202786 0.500000 0.664760
O O1 0.283089 0.857027 0.500000
O O2 0.250000 0.843466 0.250000
O O3 0.340632 0.811978 0.300183
O O4 0.321577 0.931486 0.296788
O O5 0.091764 0.692576 0.500000
O O6 0.081488 0.750000 0.750000
O O7 0.079340 0.622746 0.727165
O O8 0.500000 0.920680 0.822226
O O9 0.428291 0.000000 0.795442
O O10 0.428274 0.911450 0.000000
O O11 0.216779 0.500000 0.500000
O O12 0.250000 0.500000 0.750000
#
# Coordination Sequence:
#
# PCOD8285645 Si02
#       4
#    32  32  32  16
#     4   9  19  34  54  79 111 152 195 242 290 342
#     4  11  24  39  58  86 121 160 201 245 293 348
#     4   9  20  41  67  93 120 150 188 238 296 357
#     4   8  14  28  48  72 101 132 177 231 282 331
#
# _framework density 20.563255999999999
#
# number of rings (size 3 to 8) (size 9 to 14) (size 15 to 20)
#    0.000    2.571    0.000    1.714    2.000    4.571 
#    0.000    4.286    0.000    0.000    0.000    0.000 
#    0.000    0.000    0.000    0.000    0.000    0.000 
#
# Total GULP energy -346868.237969 kJ/mol
# GULP energy per Si atom -12388.151356 kJ/mol
# Density = 2.051645 g / cm^3
# Si number density = 20.563256 Si / 1000 Ang^3
#
#
#
# Elastic Constant Matrix: (Units=GPa)
#
#
# Indices 1 2 3 4 5 6 
#
# 1 42.4116 37.3961 36.2393 0.0000 0.0000 0.0000
# 2 37.3961 124.5458 77.5185 0.0001 0.0000 0.0000
# 3 36.2393 77.5185 107.7787 -0.0005 0.0001 0.0001
# 4 0.0000 0.0001 -0.0005 33.4789 0.0001 0.0000
# 5 0.0000 0.0000 0.0001 0.0001 30.1455 0.0000
# 6 0.0000 0.0000 0.0001 0.0000 0.0000 22.1426
#
#
#
# Elastic Compliance Matrix: (Units=1/GPa)
#
#
# Indices 1 2 3 4 5 6 
#
# 1 0.035261 -0.005808 -0.007679 0.000000 0.000000 0.000000
# 2 -0.005808 0.015493 -0.009191 0.000000 0.000000 0.000000
# 3 -0.007679 -0.009191 0.018470 0.000000 0.000000 0.000000
# 4 0.000000 0.000000 0.000000 0.029870 0.000000 0.000000
# 5 0.000000 0.000000 0.000000 0.000000 0.033172 0.000000
# 6 0.000000 0.000000 0.000000 0.000000 0.000000 0.045162
#
#
# Mechanical properties :
#
#
# Convention : Reuss Voigt Hill
#
# Bulk Modulus (GPa) = 41.89359 64.11598 53.00478
# Shear Modulus (GPa) = 21.66944 25.39221 23.53083
#
# Velocity S-wave (km/s) = 3.24974 3.51783 3.38644
# Velocity P-wave (km/s) = 5.87353 6.90998 6.41273
#
# Compressibility (1/GPa) = 0.02387000
#
# Stress axis : x y z
#
# Youngs Moduli (GPa) = 28.36000 64.54358 54.14109
#
# Poissons Ratio (x) = 0.37488 0.41573
# Poissons Ratio (y) = 0.16472 0.49758
# Poissons Ratio (z) = 0.21776 0.59319
#
# Static dielectric constant tensor:
#      x y z
#    x 3.374730 0.000000 0.000000 
#    y 0.000000 3.676320 0.000000 
#    z 0.000000 0.000000 3.650510 
# 
# 
# High freq. dielectric constant tensor:
#      x y z
#    x 1.782700 0.000000 0.000000 
#    y 0.000000 1.818230 0.000000 
#    z 0.000000 0.000000 1.802630 
# 
# From -- ./inp_files/3718.got.cif
#   From: 2010.03.12/outbox.cif.g09.slc.cpg/sg69_2_cif.got.tgz:3718.got - 2010.04.10 23:52:46.
