data_PCOD8285897
_publ_section_title
;
Structure prediction by ZEFSAII (Michael W. Deem and Ramdas Pophale) SiO2 
 PCOD8285897
Probable space group: F D D D
;
_chemical_formula_sum "Si O2"
_cell_formula_units_Z 240
_cell_length_a 23.353714
_cell_length_b 15.134292
_cell_length_c 30.443431
_cell_angle_alpha 90.000000
_cell_angle_beta 90.000000
_cell_angle_gamma 90.000000
_cell_volume 10759.984916
_symmetry_space_group_name_H-M "F D D D"
_symmetry_group_IT_number 70
_space_group.IT_coordinate_system_code '2'
_symmetry_cell_setting 'orthorhombic'
loop_
_space_group_symop_operation_xyz
x,y,z
1/4-x,1/4-y,z
x,1/4-y,1/4-z
1/4-x,y,1/4-z
-x,-y,-z
3/4+x,3/4+y,-z
-x,3/4+y,3/4+z
3/4+x,-y,3/4+z
x,1/2+y,1/2+z
1/4-x,3/4-y,1/2+z
x,3/4-y,3/4-z
1/4-x,1/2+y,3/4-z
-x,1/2-y,1/2-z
3/4+x,1/4+y,1/2-z
-x,1/4+y,1/4+z
3/4+x,1/2-y,1/4+z
1/2+x,y,1/2+z
3/4-x,1/4-y,1/2+z
1/2+x,1/4-y,3/4-z
3/4-x,y,3/4-z
1/2-x,-y,1/2-z
1/4+x,3/4+y,1/2-z
1/2-x,3/4+y,1/4+z
1/4+x,-y,1/4+z
1/2+x,1/2+y,z
3/4-x,3/4-y,z
1/2+x,3/4-y,1/4-z
3/4-x,1/2+y,1/4-z
1/2-x,1/2-y,-z
1/4+x,1/4+y,-z
1/2-x,1/4+y,3/4+z
1/4+x,1/2-y,3/4+z
loop_
_atom_site_type_symbol
_atom_site_label
_atom_site_fract_x
_atom_site_fract_y
_atom_site_fract_z
Si Si1 0.039738 0.550540 0.466163
Si Si2 0.459598 0.450048 0.776813
Si Si3 0.922872 0.046101 0.528459
Si Si4 0.161741 0.865120 0.686629
Si Si5 0.036890 0.407203 0.151912
Si Si6 0.484916 0.930674 0.795881
Si Si7 0.625000 0.625000 0.503061
Si Si8 0.817126 0.129838 0.573387
O O1 0.070793 0.627862 0.494601
O O2 0.082195 0.478653 0.444703
O O3 0.000000 0.500000 0.500000
O O4 0.005318 0.588401 0.424754
O O5 0.413770 0.508435 0.804179
O O6 0.492583 0.518540 0.746467
O O7 0.504004 0.402077 0.809456
O O8 0.927357 0.078500 0.478815
O O9 0.864796 0.069858 0.552380
O O10 0.978505 0.089099 0.553188
O O11 0.916107 0.939471 0.526552
O O12 0.098887 0.890636 0.672270
O O13 0.209618 0.889683 0.650095
O O14 0.013195 0.506683 0.160841
O O15 0.417907 0.920924 0.786822
O O16 0.822357 0.125000 0.625000
#
# Coordination Sequence:
#
# PCOD8285897 Si02
#       8
#    32  32  32  32  32  32  16  32
#     4   9  18  34  61  89 129 173 214 269 325 395
#     4   9  18  36  60  92 126 169 213 258 327 402
#     4  11  23  41  64  94 123 171 214 270 331 408
#     4  10  19  35  64  88 132 169 210 267 327 386
#     4  10  19  37  58  96 131 166 213 273 320 389
#     4  10  21  39  64  91 122 158 212 267 321 395
#     4  12  20  42  69  88 122 162 224 262 342 407
#     4  11  21  39  64  90 130 173 221 276 334 398
#
# _framework density 22.304864999999999
#
# number of rings (size 3 to 8) (size 9 to 14) (size 15 to 20)
#    0.000    1.867    2.667    2.800    0.000    0.000 
#    0.000   20.667    5.867   10.400    0.000    0.000 
#    0.000    0.000    0.000    0.000    0.000    0.000 
#
# Total GULP energy -743331.774693 kJ/mol
# GULP energy per Si atom -12388.862912 kJ/mol
# Density = 2.225410 g / cm^3
# Si number density = 22.304865 Si / 1000 Ang^3
#
#
#
# Elastic Constant Matrix: (Units=GPa)
#
#
# Indices 1 2 3 4 5 6 
#
# 1 40.4591 16.1270 5.9490 0.0000 0.0000 0.0000
# 2 16.1270 129.2684 42.1104 0.0000 0.0000 0.0000
# 3 5.9490 42.1104 119.2518 0.0000 0.0000 0.0000
# 4 0.0000 0.0000 0.0000 24.7414 0.0000 0.0000
# 5 0.0000 0.0000 0.0000 0.0000 -18.7888 0.0000
# 6 0.0000 0.0000 0.0000 0.0000 0.0000 39.7802
#
#
#
# Elastic Compliance Matrix: (Units=1/GPa)
#
#
# Indices 1 2 3 4 5 6 
#
# 1 0.026013 -0.003189 -0.000171 0.000000 0.000000 0.000000
# 2 -0.003189 0.009132 -0.003066 0.000000 0.000000 0.000000
# 3 -0.000171 -0.003066 0.009477 0.000000 0.000000 0.000000
# 4 0.000000 0.000000 0.000000 0.040418 0.000000 0.000000
# 5 0.000000 0.000000 0.000000 0.000000 -0.053223 0.000000
# 6 0.000000 0.000000 0.000000 0.000000 0.000000 0.025138
#
#
# Mechanical properties :
#
#
# Convention : Reuss Voigt Hill
#
# Bulk Modulus (GPa) = 31.47740 46.37245 38.92493
# Shear Modulus (GPa) = 62.19067 24.13276 43.16172
#
# Velocity S-wave (km/s) = 5.28608 3.29287 4.40373
# Velocity P-wave (km/s) = 7.16937 5.94077 6.58379
#
# Compressibility (1/GPa) = 0.03176882
#
# Stress axis : x y z
#
# Youngs Moduli (GPa) = 38.44260 109.49985 105.52143
#
# Poissons Ratio (x) = 0.34924 0.01809
# Poissons Ratio (y) = 0.12261 0.32350
# Poissons Ratio (z) = 0.00659 0.33570
#
# Static dielectric constant tensor:
#      x y z
#    x 3.923810 0.000000 0.000000 
#    y 0.000000 4.881650 0.000000 
#    z 0.000000 0.000000 4.105410 
# 
# 
# High freq. dielectric constant tensor:
#      x y z
#    x 1.861460 0.000000 0.000000 
#    y 0.000000 1.894170 0.000000 
#    z 0.000000 0.000000 1.865350 
# 
# From -- ./inp_files/69100.got.cif
#   From: 2010.03.12/outbox.cif.g09.slc.cpg/sg70_35_cif.got.tgz:69100.got - 2010.04.16 13:46:32.
