data_PCOD8285508
_publ_section_title
;
Structure prediction by ZEFSAII (Michael W. Deem and Ramdas Pophale) SiO2 
 PCOD8285508
Probable space group: F M M M
;
_chemical_formula_sum "Si O2"
_cell_formula_units_Z 192
_cell_length_a 26.995196
_cell_length_b 15.280354
_cell_length_c 24.241584
_cell_angle_alpha 90.000000
_cell_angle_beta 90.000000
_cell_angle_gamma 90.000000
_cell_volume 9999.560098
_symmetry_space_group_name_H-M "F M M M"
_symmetry_group_IT_number 69
_symmetry_cell_setting 'orthorhombic'
loop_
_space_group_symop_operation_xyz
x,y,z
-x,-y,z
x,-y,-z
-x,y,-z
-x,-y,-z
x,y,-z
-x,y,z
x,-y,z
x,1/2+y,1/2+z
-x,1/2-y,1/2+z
x,1/2-y,1/2-z
-x,1/2+y,1/2-z
-x,1/2-y,1/2-z
x,1/2+y,1/2-z
-x,1/2+y,1/2+z
x,1/2-y,1/2+z
1/2+x,y,1/2+z
1/2-x,-y,1/2+z
1/2+x,-y,1/2-z
1/2-x,y,1/2-z
1/2-x,-y,1/2-z
1/2+x,y,1/2-z
1/2-x,y,1/2+z
1/2+x,-y,1/2+z
1/2+x,1/2+y,z
1/2-x,1/2-y,z
1/2+x,1/2-y,-z
1/2-x,1/2+y,-z
1/2-x,1/2-y,-z
1/2+x,1/2+y,-z
1/2-x,1/2+y,z
1/2+x,1/2-y,z
loop_
_atom_site_type_symbol
_atom_site_label
_atom_site_fract_x
_atom_site_fract_y
_atom_site_fract_z
Si Si1 0.055461 0.500000 0.145789
Si Si2 0.372666 0.655223 0.652569
Si Si3 0.194021 0.398181 0.254938
Si Si4 0.695406 0.259557 0.438021
Si Si5 0.130462 0.401651 0.559446
Si Si6 0.109856 0.843831 0.826365
Si Si7 0.053333 0.000000 0.225873
O O1 0.086937 0.413681 0.129961
O O2 0.046661 0.500000 0.210000
O O3 0.000000 0.500000 0.117774
O O4 0.336932 0.615728 0.699008
O O5 0.339593 0.681748 0.600151
O O6 0.402324 0.740281 0.677046
O O7 0.195421 0.500000 0.268872
O O8 0.250000 0.360870 0.250000
O O9 0.167595 0.351116 0.307251
O O10 0.695830 0.300193 0.500000
O O11 0.750000 0.250000 0.412883
O O12 0.677788 0.159811 0.439959
O O13 0.102014 0.391147 0.500000
O O14 0.149880 0.500000 0.566613
O O15 0.096759 0.376486 0.611741
O O16 0.080152 0.908395 0.786593
O O17 0.000000 0.000000 0.195968
#
# Coordination Sequence:
#
# PCOD8285508 Si02
#       7
#    16  32  32  32  32  32  16
#     4  11  24  44  59  79 118 157 206 261 299 338
#     4  11  22  37  60  85 113 155 198 239 293 350
#     4  11  22  35  54  81 119 156 190 234 289 355
#     4   9  20  37  55  84 121 153 187 229 283 345
#     4   9  17  31  54  78 107 149 186 218 271 339
#     4  11  20  36  57  82 115 147 189 233 284 354
#     4  11  22  38  57  83 116 145 184 245 299 351
#
# _framework density 19.200844
#
# number of rings (size 3 to 8) (size 9 to 14) (size 15 to 20)
#    0.000    1.667    4.167    0.500    4.667    1.333 
#    1.500    2.083    0.000    2.000    0.000    4.667 
#    0.000    0.000    0.000    0.000    0.000    0.000 
#
# Total GULP energy -594706.872881 kJ/mol
# GULP energy per Si atom -12389.726518 kJ/mol
# Density = 1.915714 g / cm^3
# Si number density = 19.200844 Si / 1000 Ang^3
#
#
#
# Elastic Constant Matrix: (Units=GPa)
#
#
# Indices 1 2 3 4 5 6 
#
# 1 103.0017 45.5496 17.0550 0.0000 0.0000 0.0000
# 2 45.5496 120.8631 9.3886 0.0000 0.0000 0.0000
# 3 17.0550 9.3886 61.5675 0.0000 0.0000 0.0000
# 4 0.0000 0.0000 0.0000 24.0559 0.0000 0.0000
# 5 0.0000 0.0000 0.0000 0.0000 14.4045 0.0000
# 6 0.0000 0.0000 0.0000 0.0000 0.0000 10.4830
#
#
#
# Elastic Compliance Matrix: (Units=1/GPa)
#
#
# Indices 1 2 3 4 5 6 
#
# 1 0.012073 -0.004341 -0.002682 0.000000 0.000000 0.000000
# 2 -0.004341 0.009934 -0.000312 0.000000 0.000000 0.000000
# 3 -0.002682 -0.000312 0.017033 0.000000 0.000000 0.000000
# 4 0.000000 0.000000 0.000000 0.041570 0.000000 0.000000
# 5 0.000000 0.000000 0.000000 0.000000 0.069423 0.000000
# 6 0.000000 0.000000 0.000000 0.000000 0.000000 0.095392
#
#
# Mechanical properties :
#
#
# Convention : Reuss Voigt Hill
#
# Bulk Modulus (GPa) = 41.03753 47.71318 44.37536
# Shear Modulus (GPa) = 18.64148 24.01797 21.32973
#
# Velocity S-wave (km/s) = 3.11926 3.54062 3.33659
# Velocity P-wave (km/s) = 5.86448 6.45121 6.16483
#
# Compressibility (1/GPa) = 0.02436794
#
# Stress axis : x y z
#
# Youngs Moduli (GPa) = 82.83241 100.66206 58.70971
#
# Poissons Ratio (x) = 0.43702 0.15747
# Poissons Ratio (y) = 0.35961 0.01833
# Poissons Ratio (z) = 0.22217 0.03143
#
# Static dielectric constant tensor:
#      x y z
#    x 3.566230 0.000000 0.000000 
#    y 0.000000 3.668920 0.000000 
#    z 0.000000 0.000000 3.813400 
# 
# 
# High freq. dielectric constant tensor:
#      x y z
#    x 1.714410 0.000000 0.000000 
#    y 0.000000 1.757870 0.000000 
#    z 0.000000 0.000000 1.747440 
# 
# From -- ./inp_files/36075.got.cif
#   From: 2010.03.12/outbox.cif.g09.slc.cpg/sg69_19_cif.got.tgz:36075.got - 2010.04.10 23:52:46.
