data_PCOD8285718
_publ_section_title
;
Structure prediction by ZEFSAII (Michael W. Deem and Ramdas Pophale) SiO2 
 PCOD8285718
Probable space group: F M M M
;
_chemical_formula_sum "Si O2"
_cell_formula_units_Z 40
_cell_length_a 30.000000
_cell_length_b 30.000000
_cell_length_c 9.000000
_cell_angle_alpha 90.000000
_cell_angle_beta 90.000000
_cell_angle_gamma 90.000000
_cell_volume 8100.000000
_symmetry_space_group_name_H-M "F M M M"
_symmetry_group_IT_number 69
_symmetry_cell_setting 'orthorhombic'
loop_
_space_group_symop_operation_xyz
x,y,z
-x,-y,z
x,-y,-z
-x,y,-z
-x,-y,-z
x,y,-z
-x,y,z
x,-y,z
x,1/2+y,1/2+z
-x,1/2-y,1/2+z
x,1/2-y,1/2-z
-x,1/2+y,1/2-z
-x,1/2-y,1/2-z
x,1/2+y,1/2-z
-x,1/2+y,1/2+z
x,1/2-y,1/2+z
1/2+x,y,1/2+z
1/2-x,-y,1/2+z
1/2+x,-y,1/2-z
1/2-x,y,1/2-z
1/2-x,-y,1/2-z
1/2+x,y,1/2-z
1/2-x,y,1/2+z
1/2+x,-y,1/2+z
1/2+x,1/2+y,z
1/2-x,1/2-y,z
1/2+x,1/2-y,-z
1/2-x,1/2+y,-z
1/2-x,1/2-y,-z
1/2+x,1/2+y,-z
1/2-x,1/2+y,z
1/2+x,1/2-y,z
loop_
_atom_site_type_symbol
_atom_site_label
_atom_site_fract_x
_atom_site_fract_y
_atom_site_fract_z
Si Si1 0.176739 0.205865 0.326925
Si Si2 0.500000 0.203673 0.329199
Si Si3 0.418320 0.173716 0.163214
Si Si4 0.885477 0.925531 0.664304
Si Si5 0.949409 0.500000 0.821742
Si Si6 0.705297 0.609387 0.677940
O O1 0.185408 0.210664 0.500000
O O2 0.196904 0.250000 0.250000
O O3 0.124139 0.203135 0.290347
O O4 0.200017 0.160728 0.267573
O O5 0.500000 0.212534 0.500000
O O6 0.500000 0.250000 0.250000
O O7 0.456095 0.176918 0.285943
O O8 0.405794 0.122782 0.154026
O O9 0.435517 0.189211 0.000000
O O10 0.878246 0.945380 0.500000
O O11 0.921303 0.957871 0.743514
O O12 0.836204 0.920784 0.738517
O O13 0.000000 0.500000 0.756588
O O14 0.953167 0.500000 0.000000
O O15 0.706631 0.607646 0.500000
O O16 0.750000 0.589477 0.750000
#
# Coordination Sequence:
#
# PCOD8285718 Si02
#       6
#    32  16  32  32  16  32
#     4   9  18  31  47  68  95 128 168 212 257 299
#     4  12  24  34  46  69  98 131 173 216 253 300
#     4   9  18  33  51  69  96 134 169 209 260 306
#     4   8  16  31  50  76 109 135 163 212 262 304
#     4   9  16  26  49  86 112 130 166 212 259 310
#     4   9  18  33  50  71 101 136 170 208 256 304
#
# _framework density 4.9382720000000004
#
# number of rings (size 3 to 8) (size 9 to 14) (size 15 to 20)
#    0.000    2.900    0.000    3.900    1.400    3.600 
#    0.000    5.500    0.000    0.000    0.000    2.800 
#    0.000    0.000    0.000    0.000    0.000    0.000 
#
# Total GULP energy -495553.765447 kJ/mol
# GULP energy per Si atom -12388.844136 kJ/mol
# Density = 0.492703 g / cm^3
# Si number density = 4.938272 Si / 1000 Ang^3
#
#
#
# Elastic Constant Matrix: (Units=GPa)
#
#
# Indices 1 2 3 4 5 6 
#
# 1 153.2240 47.7214 37.3888 0.0005 0.0102 0.0153
# 2 47.7214 69.0848 7.8759 0.0118 -0.0043 0.0030
# 3 37.3888 7.8759 41.3814 0.0010 0.0390 0.0450
# 4 0.0005 0.0118 0.0010 6.8517 -0.0036 -0.0045
# 5 0.0102 -0.0043 0.0390 -0.0036 22.9032 -0.0187
# 6 0.0153 0.0030 0.0450 -0.0045 -0.0187 10.8273
#
#
#
# Elastic Compliance Matrix: (Units=1/GPa)
#
#
# Indices 1 2 3 4 5 6 
#
# 1 0.010521 -0.006321 -0.008303 0.000011 0.000008 0.000021
# 2 -0.006321 0.018594 0.002172 -0.000032 0.000003 -0.000005
# 3 -0.008303 0.002172 0.031254 -0.000008 -0.000049 -0.000119
# 4 0.000011 -0.000032 -0.000008 0.145949 0.000023 0.000061
# 5 0.000008 0.000003 -0.000049 0.000023 0.043662 0.000076
# 6 0.000021 -0.000005 -0.000119 0.000061 0.000076 0.092360
#
#
# Mechanical properties :
#
#
# Convention : Reuss Voigt Hill
#
# Bulk Modulus (GPa) = 28.19645 49.96248 39.07947
# Shear Modulus (GPa) = 13.19033 19.49671 16.34352
#
# Velocity S-wave (km/s) = 2.58691 3.14510 2.87956
# Velocity P-wave (km/s) = 4.81957 6.20784 5.55723
#
# Compressibility (1/GPa) = 0.03546546
#
# Stress axis : x y z
#
# Youngs Moduli (GPa) = 95.04696 53.78166 31.99590
#
# Poissons Ratio (x) = 0.33996 0.26566
# Poissons Ratio (y) = 0.60080 -0.06951
# Poissons Ratio (z) = 0.78917 -0.11683
#
# Static dielectric constant tensor:
#      x y z
#    x 3.741130 0.000040 -0.000050 
#    y 0.000040 3.490460 -0.000060 
#    z -0.000050 -0.000060 2.896530 
# 
# 
# High freq. dielectric constant tensor:
#      x y z
#    x 1.779340 0.000000 0.000010 
#    y 0.000000 1.755060 -0.000010 
#    z 0.000010 -0.000010 1.712270 
# 
# From -- ./inp_files/5778.got.cif
#   From: 2010.03.12/outbox.ucp.g09.slc.cvg/sg69_3_cif.got.tgz:5778.got - 2010.05.04 19:54:48.
