data_PCOD8285767
_publ_section_title
;
Structure prediction by ZEFSAII (Michael W. Deem and Ramdas Pophale) SiO2 
 PCOD8285767
Probable space group: F D D D
;
_chemical_formula_sum "Si O2"
_cell_formula_units_Z 160
_cell_length_a 21.585781
_cell_length_b 22.420924
_cell_length_c 16.191434
_cell_angle_alpha 90.000000
_cell_angle_beta 90.000000
_cell_angle_gamma 90.000000
_cell_volume 7836.219402
_symmetry_space_group_name_H-M "F D D D"
_symmetry_group_IT_number 70
_space_group.IT_coordinate_system_code '2'
_symmetry_cell_setting 'orthorhombic'
loop_
_space_group_symop_operation_xyz
x,y,z
1/4-x,1/4-y,z
x,1/4-y,1/4-z
1/4-x,y,1/4-z
-x,-y,-z
3/4+x,3/4+y,-z
-x,3/4+y,3/4+z
3/4+x,-y,3/4+z
x,1/2+y,1/2+z
1/4-x,3/4-y,1/2+z
x,3/4-y,3/4-z
1/4-x,1/2+y,3/4-z
-x,1/2-y,1/2-z
3/4+x,1/4+y,1/2-z
-x,1/4+y,1/4+z
3/4+x,1/2-y,1/4+z
1/2+x,y,1/2+z
3/4-x,1/4-y,1/2+z
1/2+x,1/4-y,3/4-z
3/4-x,y,3/4-z
1/2-x,-y,1/2-z
1/4+x,3/4+y,1/2-z
1/2-x,3/4+y,1/4+z
1/4+x,-y,1/4+z
1/2+x,1/2+y,z
3/4-x,3/4-y,z
1/2+x,3/4-y,1/4-z
3/4-x,1/2+y,1/4-z
1/2-x,1/2-y,-z
1/4+x,1/4+y,-z
1/2-x,1/4+y,3/4+z
1/4+x,1/2-y,3/4+z
loop_
_atom_site_type_symbol
_atom_site_label
_atom_site_fract_x
_atom_site_fract_y
_atom_site_fract_z
Si Si1 0.187422 0.332040 0.176086
Si Si2 0.013678 0.080981 0.332348
Si Si3 0.074487 0.168805 0.219130
Si Si4 0.890795 0.735023 0.068344
Si Si5 0.018797 0.968336 0.841323
O O1 0.125000 0.323767 0.125000
O O2 0.216607 0.397622 0.154953
O O3 0.172526 0.322865 0.274170
O O4 0.238963 0.283371 0.151415
O O5 0.979337 0.056342 0.251201
O O6 0.050476 0.140165 0.304634
O O7 0.059339 0.028369 0.363839
O O8 0.125000 0.125000 0.178576
O O9 0.108353 0.230661 0.241313
O O10 0.019455 0.176469 0.153521
O O11 0.840722 0.715840 0.134804
#
# Coordination Sequence:
#
# PCOD8285767 Si02
#       5
#    32  32  32  32  32
#     4  11  20  32  50  76 110 144 178 226 275 333
#     4  10  22  31  49  78 108 143 183 218 268 336
#     4  10  18  30  45  72 108 144 170 199 260 336
#     4  10  20  33  53  73 113 150 176 222 274 329
#     4  11  20  33  50  77 111 149 183 216 274 343
#
# _framework density 20.418009999999999
#
# number of rings (size 3 to 8) (size 9 to 14) (size 15 to 20)
#    0.000    1.600    4.000    2.400    0.000    4.000 
#    0.000    0.000    0.000    1.200    0.000    0.000 
#    0.000    0.000    0.000    0.000    0.000    0.000 
#
# Total GULP energy -495617.691302 kJ/mol
# GULP energy per Si atom -12390.442283 kJ/mol
# Density = 2.037154 g / cm^3
# Si number density = 20.418010 Si / 1000 Ang^3
#
#
#
# Elastic Constant Matrix: (Units=GPa)
#
#
# Indices 1 2 3 4 5 6 
#
# 1 122.6764 48.4490 47.2561 0.0000 0.0000 0.0000
# 2 48.4490 62.3270 27.1447 0.0000 0.0000 0.0000
# 3 47.2561 27.1447 32.6723 0.0000 0.0000 0.0000
# 4 0.0000 0.0000 0.0000 33.8022 0.0000 0.0000
# 5 0.0000 0.0000 0.0000 0.0000 28.0070 0.0000
# 6 0.0000 0.0000 0.0000 0.0000 0.0000 32.1105
#
#
#
# Elastic Compliance Matrix: (Units=1/GPa)
#
#
# Indices 1 2 3 4 5 6 
#
# 1 0.019155 -0.004425 -0.024030 0.000000 0.000000 0.000000
# 2 -0.004425 0.026164 -0.015337 0.000000 0.000000 0.000000
# 3 -0.024030 -0.015337 0.078105 0.000000 0.000000 0.000000
# 4 0.000000 0.000000 0.000000 0.029584 0.000000 0.000000
# 5 0.000000 0.000000 0.000000 0.000000 0.035705 0.000000
# 6 0.000000 0.000000 0.000000 0.000000 0.000000 0.031142
#
#
# Mechanical properties :
#
#
# Convention : Reuss Voigt Hill
#
# Bulk Modulus (GPa) = 27.90118 51.48613 39.69366
# Shear Modulus (GPa) = 15.65502 25.10567 20.38034
#
# Velocity S-wave (km/s) = 2.77199 3.51035 3.16279
# Velocity P-wave (km/s) = 4.89284 6.45762 5.72890
#
# Compressibility (1/GPa) = 0.03584078
#
# Stress axis : x y z
#
# Youngs Moduli (GPa) = 52.20440 38.22088 12.80326
#
# Poissons Ratio (x) = 0.16912 0.30766
# Poissons Ratio (y) = 0.23100 0.19637
# Poissons Ratio (z) = 1.25445 0.58621
#
# Static dielectric constant tensor:
#      x y z
#    x 3.858950 0.000000 0.000000 
#    y 0.000000 3.656960 0.000000 
#    z 0.000000 0.000000 3.218200 
# 
# 
# High freq. dielectric constant tensor:
#      x y z
#    x 1.795270 0.000000 0.000000 
#    y 0.000000 1.785500 0.000000 
#    z 0.000000 0.000000 1.749980 
# 
# From -- ./inp_files/43658.got.cif
#   From: 2010.03.12/outbox.cif.g09.slc.cpg/sg70_22_cif.got.tgz:43658.got - 2010.04.16 13:46:32.
