data_PCOD8285595
_publ_section_title
;
Structure prediction by ZEFSAII (Michael W. Deem and Ramdas Pophale) SiO2 
 PCOD8285595
Probable space group: F M M M
;
_chemical_formula_sum "Si O2"
_cell_formula_units_Z 160
_cell_length_a 28.916090
_cell_length_b 8.508999
_cell_length_c 32.467097
_cell_angle_alpha 90.000000
_cell_angle_beta 90.000000
_cell_angle_gamma 90.000000
_cell_volume 7988.431195
_symmetry_space_group_name_H-M "F M M M"
_symmetry_group_IT_number 69
_symmetry_cell_setting 'orthorhombic'
loop_
_space_group_symop_operation_xyz
x,y,z
-x,-y,z
x,-y,-z
-x,y,-z
-x,-y,-z
x,y,-z
-x,y,z
x,-y,z
x,1/2+y,1/2+z
-x,1/2-y,1/2+z
x,1/2-y,1/2-z
-x,1/2+y,1/2-z
-x,1/2-y,1/2-z
x,1/2+y,1/2-z
-x,1/2+y,1/2+z
x,1/2-y,1/2+z
1/2+x,y,1/2+z
1/2-x,-y,1/2+z
1/2+x,-y,1/2-z
1/2-x,y,1/2-z
1/2-x,-y,1/2-z
1/2+x,y,1/2-z
1/2-x,y,1/2+z
1/2+x,-y,1/2+z
1/2+x,1/2+y,z
1/2-x,1/2-y,z
1/2+x,1/2-y,-z
1/2-x,1/2+y,-z
1/2-x,1/2-y,-z
1/2+x,1/2+y,-z
1/2-x,1/2+y,z
1/2+x,1/2-y,z
loop_
_atom_site_type_symbol
_atom_site_label
_atom_site_fract_x
_atom_site_fract_y
_atom_site_fract_z
Si Si1 0.200190 0.815278 0.294598
Si Si2 0.921059 0.678774 0.500000
Si Si3 0.204187 0.816982 0.584326
Si Si4 0.946756 0.679153 0.912264
Si Si5 0.187928 0.317744 0.500000
Si Si6 0.368287 0.318880 0.138837
O O1 0.187163 0.750000 0.250000
O O2 0.250000 0.750000 0.309837
O O3 0.157351 0.774282 0.324529
O O4 0.205225 0.000000 0.292149
O O5 0.937746 0.500000 0.500000
O O6 0.940341 0.754882 0.541742
O O7 0.866653 0.694966 0.500000
O O8 0.250000 0.750000 0.607119
O O9 0.209476 0.782907 0.536588
O O10 0.161120 0.711395 0.597856
O O11 0.197259 0.000000 0.595022
O O12 0.929939 0.500000 0.913438
O O13 0.919388 0.763081 0.874581
O O14 0.000000 0.695614 0.899745
O O15 0.204004 0.500000 0.500000
O O16 0.370194 0.500000 0.151311
#
# Coordination Sequence:
#
# PCOD8285595 Si02
#       6
#    32  16  32  32  16  32
#     4  11  22  40  65  96 130 164 200 240 288 348
#     4  11  22  37  60  85 115 154 201 253 306 361
#     4  12  24  38  56  79 111 153 196 242 292 349
#     4  11  24  41  62  88 118 155 201 253 307 361
#     4  11  22  37  54  78 110 150 194 243 292 350
#     4  12  24  40  61  88 120 155 197 245 296 353
#
# _framework density 20.028963999999998
#
# number of rings (size 3 to 8) (size 9 to 14) (size 15 to 20)
#    0.000    0.600    2.000    8.400    0.000    3.600 
#    0.000    0.000    0.000    0.600    0.000    0.000 
#    0.000    0.000    0.000    0.000    0.000    0.000 
#
# Total GULP energy -495866.325320 kJ/mol
# GULP energy per Si atom -12396.658133 kJ/mol
# Density = 1.998338 g / cm^3
# Si number density = 20.028964 Si / 1000 Ang^3
#
#
#
# Elastic Constant Matrix: (Units=GPa)
#
#
# Indices 1 2 3 4 5 6 
#
# 1 101.5030 43.1078 36.1276 0.0000 0.0004 -0.0007
# 2 43.1078 156.5656 32.0019 0.0000 0.0046 -0.0010
# 3 36.1276 32.0019 112.4215 0.0000 -0.0002 0.0000
# 4 0.0000 0.0000 0.0000 33.5527 0.0002 0.0000
# 5 0.0004 0.0046 -0.0002 0.0002 0.3959 -0.0018
# 6 -0.0007 -0.0010 0.0000 0.0000 -0.0018 31.7075
#
#
#
# Elastic Compliance Matrix: (Units=1/GPa)
#
#
# Indices 1 2 3 4 5 6 
#
# 1 0.012109 -0.002695 -0.003124 0.000000 0.000019 0.000000
# 2 -0.002695 0.007382 -0.001235 0.000000 -0.000084 0.000000
# 3 -0.003124 -0.001235 0.010251 0.000000 0.000021 0.000000
# 4 0.000000 0.000000 0.000000 0.029804 -0.000012 0.000000
# 5 0.000019 -0.000084 0.000021 -0.000012 2.525582 0.000147
# 6 0.000000 0.000000 0.000000 0.000000 0.000147 0.031538
#
#
# Mechanical properties :
#
#
# Convention : Reuss Voigt Hill
#
# Bulk Modulus (GPa) = 63.97117 65.88495 64.92806
# Shear Modulus (GPa) = 1.89682 30.41475 16.15579
#
# Velocity S-wave (km/s) = 0.97422 3.90107 2.84319
# Velocity P-wave (km/s) = 5.76837 7.29777 6.57767
#
# Compressibility (1/GPa) = 0.01563204
#
# Stress axis : x y z
#
# Youngs Moduli (GPa) = 82.58655 135.47060 97.55555
#
# Poissons Ratio (x) = 0.36514 0.30475
# Poissons Ratio (y) = 0.22260 0.12049
# Poissons Ratio (z) = 0.25799 0.16732
#
# Static dielectric constant tensor:
#      x y z
#    x 3.730640 0.000000 0.000000 
#    y 0.000000 3.828980 0.000000 
#    z 0.000000 0.000000 3.588350 
# 
# 
# High freq. dielectric constant tensor:
#      x y z
#    x 1.783970 0.000000 0.000000 
#    y 0.000000 1.798630 0.000000 
#    z 0.000000 0.000000 1.770450 
# 
# From -- ./inp_files/47516.got.cif
#   From: 2010.03.12/outbox.cif.g09.slc.cpg/sg69_24_cif.got.tgz:47516.got - 2010.04.10 23:52:46.
