data_PCOD8285581
_publ_section_title
;
Structure prediction by ZEFSAII (Michael W. Deem and Ramdas Pophale) SiO2 
 PCOD8285581
Probable space group: F M M M
;
_chemical_formula_sum "Si O2"
_cell_formula_units_Z 208
_cell_length_a 29.231058
_cell_length_b 16.678410
_cell_length_c 23.243558
_cell_angle_alpha 90.000000
_cell_angle_beta 90.000000
_cell_angle_gamma 90.000000
_cell_volume 11331.875351
_symmetry_space_group_name_H-M "F M M M"
_symmetry_group_IT_number 69
_symmetry_cell_setting 'orthorhombic'
loop_
_space_group_symop_operation_xyz
x,y,z
-x,-y,z
x,-y,-z
-x,y,-z
-x,-y,-z
x,y,-z
-x,y,z
x,-y,z
x,1/2+y,1/2+z
-x,1/2-y,1/2+z
x,1/2-y,1/2-z
-x,1/2+y,1/2-z
-x,1/2-y,1/2-z
x,1/2+y,1/2-z
-x,1/2+y,1/2+z
x,1/2-y,1/2+z
1/2+x,y,1/2+z
1/2-x,-y,1/2+z
1/2+x,-y,1/2-z
1/2-x,y,1/2-z
1/2-x,-y,1/2-z
1/2+x,y,1/2-z
1/2-x,y,1/2+z
1/2+x,-y,1/2+z
1/2+x,1/2+y,z
1/2-x,1/2-y,z
1/2+x,1/2-y,-z
1/2-x,1/2+y,-z
1/2-x,1/2-y,-z
1/2+x,1/2+y,-z
1/2-x,1/2+y,z
1/2+x,1/2-y,z
loop_
_atom_site_type_symbol
_atom_site_label
_atom_site_fract_x
_atom_site_fract_y
_atom_site_fract_z
Si Si1 0.696002 0.905389 0.064625
Si Si2 0.797009 0.910825 0.932011
Si Si3 0.450175 0.905940 0.649076
Si Si4 0.385255 0.681637 0.932077
Si Si5 0.946706 0.905841 0.277228
Si Si6 0.894194 0.354447 0.883222
Si Si7 0.050368 0.500000 0.933246
O O1 0.746521 0.881416 0.087555
O O2 0.659784 0.872740 0.110948
O O3 0.692070 0.000000 0.060487
O O4 0.686524 0.869585 0.000000
O O5 0.833624 0.843185 0.913429
O O6 0.808449 0.000000 0.906362
O O7 0.796123 0.919591 0.000000
O O8 0.500000 0.866721 0.638136
O O9 0.417232 0.883238 0.597610
O O10 0.432478 0.880486 0.712584
O O11 0.455659 0.000000 0.649926
O O12 0.401541 0.767314 0.909801
O O13 0.391921 0.675937 0.000000
O O14 0.912451 0.855244 0.317872
O O15 0.000000 0.884327 0.288473
O O16 0.938452 0.000000 0.289757
O O17 0.922701 0.419880 0.918004
O O18 0.000000 0.500000 0.903040
O O19 0.043107 0.500000 0.000000
#
# Coordination Sequence:
#
# PCOD8285581 Si02
#       7
#    32  32  32  32  32  32  16
#     4   9  16  29  51  76 104 140 185 226 262 315
#     4   8  16  32  53  75 102 141 181 222 272 321
#     4   9  20  39  61  80 100 134 180 231 278 320
#     4  11  23  35  51  81 116 143 175 218 271 335
#     4   9  18  36  59  79 100 135 188 231 262 311
#     4  12  21  32  52  78 110 147 179 218 263 313
#     4  11  22  34  48  70 106 151 187 215 260 315
#
# _framework density 18.355301999999998
#
# number of rings (size 3 to 8) (size 9 to 14) (size 15 to 20)
#    0.000    2.231    1.538    4.154    0.000    3.692 
#    0.000    4.615    0.000    0.923    0.000    6.462 
#    0.000    0.000    0.000    0.000    0.000    0.000 
#
# Total GULP energy -644471.191369 kJ/mol
# GULP energy per Si atom -12393.676757 kJ/mol
# Density = 1.831352 g / cm^3
# Si number density = 18.355302 Si / 1000 Ang^3
#
#
#
# Elastic Constant Matrix: (Units=GPa)
#
#
# Indices 1 2 3 4 5 6 
#
# 1 114.8396 35.9214 52.9384 0.0000 0.0000 0.0000
# 2 35.9214 45.8322 28.8579 0.0000 0.0000 0.0000
# 3 52.9384 28.8579 75.8453 0.0000 0.0000 0.0000
# 4 0.0000 0.0000 0.0000 22.1424 0.0000 0.0000
# 5 0.0000 0.0000 0.0000 0.0000 18.4470 0.0000
# 6 0.0000 0.0000 0.0000 0.0000 0.0000 5.5943
#
#
#
# Elastic Compliance Matrix: (Units=1/GPa)
#
#
# Indices 1 2 3 4 5 6 
#
# 1 0.014135 -0.006400 -0.007431 0.000000 0.000000 0.000000
# 2 -0.006400 0.031590 -0.007553 0.000000 0.000000 0.000000
# 3 -0.007431 -0.007553 0.021245 0.000000 0.000000 0.000000
# 4 0.000000 0.000000 0.000000 0.045162 0.000000 0.000000
# 5 0.000000 0.000000 0.000000 0.000000 0.054209 0.000000
# 6 0.000000 0.000000 0.000000 0.000000 0.000000 0.178752
#
#
# Mechanical properties :
#
#
# Convention : Reuss Voigt Hill
#
# Bulk Modulus (GPa) = 41.31629 52.43915 46.87772
# Shear Modulus (GPa) = 12.62854 17.15670 14.89262
#
# Velocity S-wave (km/s) = 2.62583 3.06060 2.85151
# Velocity P-wave (km/s) = 5.63484 6.41254 6.03623
#
# Compressibility (1/GPa) = 0.02420353
#
# Stress axis : x y z
#
# Youngs Moduli (GPa) = 70.74576 31.65561 47.06966
#
# Poissons Ratio (x) = 0.20258 0.34978
# Poissons Ratio (y) = 0.45275 0.35550
# Poissons Ratio (z) = 0.52572 0.23908
#
# Static dielectric constant tensor:
#      x y z
#    x 3.867720 0.000000 0.000000 
#    y 0.000000 3.262330 0.000000 
#    z 0.000000 0.000000 3.343810 
# 
# 
# High freq. dielectric constant tensor:
#      x y z
#    x 1.716580 0.000000 0.000000 
#    y 0.000000 1.703450 0.000000 
#    z 0.000000 0.000000 1.684510 
# 
# From -- ./inp_files/38469.got.cif
#   From: 2010.03.12/outbox.cif.g09.slc.cpg/sg69_20_cif.got.tgz:38469.got - 2010.04.10 23:52:46.
