data_PCOD8285323
_publ_section_title
;
Structure prediction by ZEFSAII (Michael W. Deem and Ramdas Pophale) SiO2 
 PCOD8285323
Probable space group: F M M M
;
_chemical_formula_sum "Si O2"
_cell_formula_units_Z 112
_cell_length_a 14.460965
_cell_length_b 14.907234
_cell_length_c 23.069102
_cell_angle_alpha 90.000000
_cell_angle_beta 90.000000
_cell_angle_gamma 90.000000
_cell_volume 4973.075274
_symmetry_space_group_name_H-M "F M M M"
_symmetry_group_IT_number 69
_symmetry_cell_setting 'orthorhombic'
loop_
_space_group_symop_operation_xyz
x,y,z
-x,-y,z
x,-y,-z
-x,y,-z
-x,-y,-z
x,y,-z
-x,y,z
x,-y,z
x,1/2+y,1/2+z
-x,1/2-y,1/2+z
x,1/2-y,1/2-z
-x,1/2+y,1/2-z
-x,1/2-y,1/2-z
x,1/2+y,1/2-z
-x,1/2+y,1/2+z
x,1/2-y,1/2+z
1/2+x,y,1/2+z
1/2-x,-y,1/2+z
1/2+x,-y,1/2-z
1/2-x,y,1/2-z
1/2-x,-y,1/2-z
1/2+x,y,1/2-z
1/2-x,y,1/2+z
1/2+x,-y,1/2+z
1/2+x,1/2+y,z
1/2-x,1/2-y,z
1/2+x,1/2-y,-z
1/2-x,1/2+y,-z
1/2-x,1/2-y,-z
1/2+x,1/2+y,-z
1/2-x,1/2+y,z
1/2+x,1/2-y,z
loop_
_atom_site_type_symbol
_atom_site_label
_atom_site_fract_x
_atom_site_fract_y
_atom_site_fract_z
Si Si1 0.500000 0.603403 0.067672
Si Si2 0.393098 0.148730 0.730911
Si Si3 0.801753 0.500000 0.934946
Si Si4 0.689408 0.160433 0.611095
Si Si5 0.106409 0.500000 0.183772
O O1 0.500000 0.500000 0.094184
O O2 0.586064 0.666457 0.085926
O O3 0.500000 0.591405 0.000000
O O4 0.500000 0.126914 0.713433
O O5 0.383477 0.250000 0.750000
O O6 0.323765 0.129916 0.677754
O O7 0.355590 0.089162 0.784576
O O8 0.739137 0.413420 0.927468
O O9 0.878613 0.500000 0.884969
O O10 0.845033 0.500000 0.000000
O O11 0.750000 0.250000 0.605435
O O12 0.000000 0.500000 0.194841
#
# Coordination Sequence:
#
# PCOD8285323 Si02
#       5
#    16  32  16  32  16
#     4  11  24  46  73  99 141 199 246 296 348 405
#     4  10  21  40  67 100 137 174 223 285 357 431
#     4  12  27  45  65  97 142 188 244 297 346 425
#     4  12  25  43  74 107 142 183 239 299 359 425
#     4  10  23  42  68  98 135 185 235 287 354 423
#
# _framework density 22.521277000000001
#
# number of rings (size 3 to 8) (size 9 to 14) (size 15 to 20)
#    0.000    1.000    2.857    3.429    0.000    7.714 
#    2.571    0.000    0.000    0.000    0.000    0.000 
#    0.000    0.000    0.000    0.000    0.000    0.000 
#
# Total GULP energy -347048.322278 kJ/mol
# GULP energy per Si atom -12394.582938 kJ/mol
# Density = 2.247002 g / cm^3
# Si number density = 22.521277 Si / 1000 Ang^3
#
#
#
# Elastic Constant Matrix: (Units=GPa)
#
#
# Indices 1 2 3 4 5 6 
#
# 1 79.1798 56.2010 33.9311 0.0000 0.0000 0.0000
# 2 56.2010 147.1785 74.2053 0.0000 0.0000 0.0000
# 3 33.9311 74.2053 166.3694 0.0000 0.0000 0.0000
# 4 0.0000 0.0000 0.0000 28.8099 0.0000 0.0000
# 5 0.0000 0.0000 0.0000 0.0000 38.3746 0.0000
# 6 0.0000 0.0000 0.0000 0.0000 0.0000 32.9863
#
#
#
# Elastic Compliance Matrix: (Units=1/GPa)
#
#
# Indices 1 2 3 4 5 6 
#
# 1 0.017398 -0.006263 -0.000755 0.000000 0.000000 0.000000
# 2 -0.006263 0.011020 -0.003638 0.000000 0.000000 0.000000
# 3 -0.000755 -0.003638 0.007787 0.000000 0.000000 0.000000
# 4 0.000000 0.000000 0.000000 0.034710 0.000000 0.000000
# 5 0.000000 0.000000 0.000000 0.000000 0.026059 0.000000
# 6 0.000000 0.000000 0.000000 0.000000 0.000000 0.030316
#
#
# Mechanical properties :
#
#
# Convention : Reuss Voigt Hill
#
# Bulk Modulus (GPa) = 67.14071 80.15584 73.64828
# Shear Modulus (GPa) = 32.55894 35.26017 33.90956
#
# Velocity S-wave (km/s) = 3.80636 3.96111 3.88450
# Velocity P-wave (km/s) = 7.01389 7.52256 7.27267
#
# Compressibility (1/GPa) = 0.01489409
#
# Stress axis : x y z
#
# Youngs Moduli (GPa) = 57.47632 90.74170 128.41372
#
# Poissons Ratio (x) = 0.56832 0.09694
# Poissons Ratio (y) = 0.35998 0.46717
# Poissons Ratio (z) = 0.04339 0.33012
#
# Static dielectric constant tensor:
#      x y z
#    x 4.155680 0.000000 0.000000 
#    y 0.000000 4.001070 0.000000 
#    z 0.000000 0.000000 4.177690 
# 
# 
# High freq. dielectric constant tensor:
#      x y z
#    x 1.892280 0.000000 0.000000 
#    y 0.000000 1.885070 0.000000 
#    z 0.000000 0.000000 1.892050 
# 
# From -- ./inp_files/14122.got.cif
#   From: 2010.03.12/outbox.cif.g09.slc.cpg/sg69_8_cif.got.tgz:14122.got - 2010.04.10 23:52:46.
