data_PCOD8285615
_publ_section_title
;
Structure prediction by ZEFSAII (Michael W. Deem and Ramdas Pophale) SiO2 
 PCOD8285615
Probable space group: F M M M
;
_chemical_formula_sum "Si O2"
_cell_formula_units_Z 160
_cell_length_a 9.558478
_cell_length_b 28.008382
_cell_length_c 31.660472
_cell_angle_alpha 90.000000
_cell_angle_beta 90.000000
_cell_angle_gamma 90.000000
_cell_volume 8476.062513
_symmetry_space_group_name_H-M "F M M M"
_symmetry_group_IT_number 69
_symmetry_cell_setting 'orthorhombic'
loop_
_space_group_symop_operation_xyz
x,y,z
-x,-y,z
x,-y,-z
-x,y,-z
-x,-y,-z
x,y,-z
-x,y,z
x,-y,z
x,1/2+y,1/2+z
-x,1/2-y,1/2+z
x,1/2-y,1/2-z
-x,1/2+y,1/2-z
-x,1/2-y,1/2-z
x,1/2+y,1/2-z
-x,1/2+y,1/2+z
x,1/2-y,1/2+z
1/2+x,y,1/2+z
1/2-x,-y,1/2+z
1/2+x,-y,1/2-z
1/2-x,y,1/2-z
1/2-x,-y,1/2-z
1/2+x,y,1/2-z
1/2-x,y,1/2+z
1/2+x,-y,1/2+z
1/2+x,1/2+y,z
1/2-x,1/2-y,z
1/2+x,1/2-y,-z
1/2-x,1/2+y,-z
1/2-x,1/2-y,-z
1/2+x,1/2+y,-z
1/2-x,1/2+y,z
1/2+x,1/2-y,z
loop_
_atom_site_type_symbol
_atom_site_label
_atom_site_fract_x
_atom_site_fract_y
_atom_site_fract_z
Si Si1 0.500000 0.941645 0.797116
Si Si2 0.167774 0.206134 0.206356
Si Si3 0.759206 0.609206 0.338859
Si Si4 0.835467 0.624763 0.569133
Si Si5 0.334076 0.052234 0.500000
Si Si6 0.837078 0.702008 0.500000
Si Si7 0.500000 0.444848 0.799567
O O1 0.376026 0.914900 0.820130
O O2 0.500000 0.924138 0.748279
O O3 0.500000 0.000000 0.802358
O O4 0.250000 0.199940 0.250000
O O5 0.250000 0.250000 0.182967
O O6 0.191182 0.158508 0.180856
O O7 0.000000 0.215922 0.211742
O O8 0.744902 0.620547 0.388467
O O9 0.870542 0.569200 0.327930
O O10 0.786257 0.579518 0.541871
O O11 0.800094 0.672286 0.542343
O O12 0.000000 0.623524 0.580111
O O13 0.500000 0.049914 0.500000
O O14 0.265107 0.000000 0.500000
O O15 0.750000 0.750000 0.500000
O O16 0.000000 0.714922 0.500000
O O17 0.500000 0.500000 0.792119
#
# Coordination Sequence:
#
# PCOD8285615 Si02
#       7
#    16  32  32  32  16  16  16
#     4  11  26  42  57  86 125 164 211 262 318 365
#     4  11  23  38  60  87 116 155 200 245 301 360
#     4  12  23  39  62  87 122 162 203 258 308 361
#     4   9  18  36  56  87 120 147 193 243 289 351
#     4   8  15  28  53  83 111 142 179 231 288 341
#     4   9  19  38  65  91 124 157 189 241 299 360
#     4  11  22  40  63  86 113 160 213 260 308 371
#
# _framework density 18.876688000000001
#
# number of rings (size 3 to 8) (size 9 to 14) (size 15 to 20)
#    0.000    1.700    2.000    4.800    2.800    4.000 
#    1.800    0.000    0.000    0.000    0.000    2.100 
#    0.000    0.000    0.000    0.000    0.000    0.000 
#
# Total GULP energy -495567.243194 kJ/mol
# GULP energy per Si atom -12389.181080 kJ/mol
# Density = 1.883372 g / cm^3
# Si number density = 18.876688 Si / 1000 Ang^3
#
#
#
# Elastic Constant Matrix: (Units=GPa)
#
#
# Indices 1 2 3 4 5 6 
#
# 1 108.1952 37.9422 37.3621 0.0000 0.0000 0.0000
# 2 37.9422 109.4361 43.7440 0.0000 0.0000 0.0000
# 3 37.3621 43.7440 120.9060 0.0000 0.0000 0.0000
# 4 0.0000 0.0000 0.0000 -4.1953 0.0000 0.0000
# 5 0.0000 0.0000 0.0000 0.0000 5.9696 0.0000
# 6 0.0000 0.0000 0.0000 0.0000 0.0000 59.5013
#
#
#
# Elastic Compliance Matrix: (Units=1/GPa)
#
#
# Indices 1 2 3 4 5 6 
#
# 1 0.011077 -0.002890 -0.002377 0.000000 0.000000 0.000000
# 2 -0.002890 0.011437 -0.003245 0.000000 0.000000 0.000000
# 3 -0.002377 -0.003245 0.010179 0.000000 0.000000 0.000000
# 4 0.000000 0.000000 0.000000 -0.238363 0.000000 0.000000
# 5 0.000000 0.000000 0.000000 0.000000 0.167516 0.000000
# 6 0.000000 0.000000 0.000000 0.000000 0.000000 0.016806
#
#
# Mechanical properties :
#
#
# Convention : Reuss Voigt Hill
#
# Bulk Modulus (GPa) = 63.82114 64.07044 63.94579
# Shear Modulus (GPa) = 5553.19896 26.88773 2790.04334
#
# Velocity S-wave (km/s) = 54.29747 3.77820 38.48695
# Velocity P-wave (km/s) = 62.96695 7.28343 44.82123
#
# Compressibility (1/GPa) = 0.01566879
#
# Stress axis : x y z
#
# Youngs Moduli (GPa) = 90.27685 87.43710 98.23700
#
# Poissons Ratio (x) = 0.25271 0.23354
# Poissons Ratio (y) = 0.26092 0.31875
# Poissons Ratio (z) = 0.21462 0.28371
#
# Static dielectric constant tensor:
#      x y z
#    x 3.183050 0.000000 0.000000 
#    y 0.000000 4.200060 0.000000 
#    z 0.000000 0.000000 3.542720 
# 
# 
# High freq. dielectric constant tensor:
#      x y z
#    x 1.717630 0.000000 0.000000 
#    y 0.000000 1.750380 0.000000 
#    z 0.000000 0.000000 1.732930 
# 
# From -- ./inp_files/44648.got.cif
#   From: 2010.03.12/outbox.cif.g09.slc.cpg/sg69_23_cif.got.tgz:44648.got - 2010.04.10 23:52:46.
