data_PCOD8285457
_publ_section_title
;
Structure prediction by ZEFSAII (Michael W. Deem and Ramdas Pophale) SiO2 
 PCOD8285457
Probable space group: F M M M
;
_chemical_formula_sum "Si O2"
_cell_formula_units_Z 128
_cell_length_a 16.334187
_cell_length_b 19.914154
_cell_length_c 18.809740
_cell_angle_alpha 90.000000
_cell_angle_beta 90.000000
_cell_angle_gamma 90.000000
_cell_volume 6118.460731
_symmetry_space_group_name_H-M "F M M M"
_symmetry_group_IT_number 69
_symmetry_cell_setting 'orthorhombic'
loop_
_space_group_symop_operation_xyz
x,y,z
-x,-y,z
x,-y,-z
-x,y,-z
-x,-y,-z
x,y,-z
-x,y,z
x,-y,z
x,1/2+y,1/2+z
-x,1/2-y,1/2+z
x,1/2-y,1/2-z
-x,1/2+y,1/2-z
-x,1/2-y,1/2-z
x,1/2+y,1/2-z
-x,1/2+y,1/2+z
x,1/2-y,1/2+z
1/2+x,y,1/2+z
1/2-x,-y,1/2+z
1/2+x,-y,1/2-z
1/2-x,y,1/2-z
1/2-x,-y,1/2-z
1/2+x,y,1/2-z
1/2-x,y,1/2+z
1/2+x,-y,1/2+z
1/2+x,1/2+y,z
1/2-x,1/2-y,z
1/2+x,1/2-y,-z
1/2-x,1/2+y,-z
1/2-x,1/2-y,-z
1/2+x,1/2+y,-z
1/2-x,1/2+y,z
1/2+x,1/2-y,z
loop_
_atom_site_type_symbol
_atom_site_label
_atom_site_fract_x
_atom_site_fract_y
_atom_site_fract_z
Si Si1 0.590474 0.500000 0.120080
Si Si2 0.697640 0.871894 0.180207
Si Si3 0.401712 0.000000 0.775566
Si Si4 0.595208 0.272416 0.583367
Si Si5 0.338090 0.129880 0.577133
O O1 0.500000 0.500000 0.149179
O O2 0.636643 0.500000 0.196103
O O3 0.602470 0.433868 0.072984
O O4 0.750000 0.848813 0.250000
O O5 0.634107 0.932362 0.189958
O O6 0.648722 0.811764 0.141594
O O7 0.765019 0.895881 0.125214
O O8 0.500000 0.000000 0.785797
O O9 0.617736 0.287718 0.500000
O O10 0.500000 0.288141 0.596092
O O11 0.612408 0.194914 0.603645
O O12 0.301748 0.146170 0.500000
#
# Coordination Sequence:
#
# PCOD8285457 Si02
#       5
#    16  32  16  32  32
#     4  11  22  40  62  90 123 164 213 263 318 379
#     4  12  23  42  66  94 128 170 210 265 320 382
#     4  11  24  44  65  91 129 168 212 263 320 379
#     4  10  23  44  67  94 130 172 217 265 319 381
#     4  11  23  40  65  95 128 166 211 265 321 380
#
# _framework density 20.920293999999998
#
# number of rings (size 3 to 8) (size 9 to 14) (size 15 to 20)
#    0.000    1.000    2.500    4.500    0.000    6.000 
#    0.000    3.125    0.000    4.500    0.000    0.000 
#    0.000    0.000    0.000    0.000    0.000    0.000 
#
# Total GULP energy -396439.572154 kJ/mol
# GULP energy per Si atom -12388.736630 kJ/mol
# Density = 2.087268 g / cm^3
# Si number density = 20.920294 Si / 1000 Ang^3
#
#
#
# Elastic Constant Matrix: (Units=GPa)
#
#
# Indices 1 2 3 4 5 6 
#
# 1 114.9589 53.6525 62.0063 0.0000 0.0000 0.0000
# 2 53.6525 159.7056 60.6320 0.0000 0.0000 0.0000
# 3 62.0063 60.6320 115.8264 0.0000 0.0000 0.0000
# 4 0.0000 0.0000 0.0000 28.7897 0.0000 0.0000
# 5 0.0000 0.0000 0.0000 0.0000 33.3643 0.0000
# 6 0.0000 0.0000 0.0000 0.0000 0.0000 39.4851
#
#
#
# Elastic Compliance Matrix: (Units=1/GPa)
#
#
# Indices 1 2 3 4 5 6 
#
# 1 0.012779 -0.002116 -0.005733 0.000000 0.000000 0.000000
# 2 -0.002116 0.008165 -0.003141 0.000000 0.000000 0.000000
# 3 -0.005733 -0.003141 0.013347 0.000000 0.000000 0.000000
# 4 0.000000 0.000000 0.000000 0.034735 0.000000 0.000000
# 5 0.000000 0.000000 0.000000 0.000000 0.029972 0.000000
# 6 0.000000 0.000000 0.000000 0.000000 0.000000 0.025326
#
#
# Mechanical properties :
#
#
# Convention : Reuss Voigt Hill
#
# Bulk Modulus (GPa) = 81.23776 82.56359 81.90068
# Shear Modulus (GPa) = 33.24280 34.60781 33.92530
#
# Velocity S-wave (km/s) = 3.99058 4.07168 4.03133
# Velocity P-wave (km/s) = 7.75560 7.85215 7.80402
#
# Compressibility (1/GPa) = 0.01230955
#
# Stress axis : x y z
#
# Youngs Moduli (GPa) = 78.25441 122.47276 74.92278
#
# Poissons Ratio (x) = 0.25921 0.42954
# Poissons Ratio (y) = 0.16562 0.23535
# Poissons Ratio (z) = 0.44864 0.38471
#
# Static dielectric constant tensor:
#      x y z
#    x 3.869420 0.000000 0.000000 
#    y 0.000000 3.713530 0.000000 
#    z 0.000000 0.000000 3.956800 
# 
# 
# High freq. dielectric constant tensor:
#      x y z
#    x 1.826630 0.000000 0.000000 
#    y 0.000000 1.823340 0.000000 
#    z 0.000000 0.000000 1.827570 
# 
# From -- ./inp_files/29633.got.cif
#   From: 2010.03.12/outbox.cif.g09.slc.cpg/sg69_15_cif.got.tgz:29633.got - 2010.04.10 23:52:46.
