data_PCOD8285844
_publ_section_title
;
Structure prediction by ZEFSAII (Michael W. Deem and Ramdas Pophale) SiO2 
 PCOD8285844
Probable space group: F D D D
;
_chemical_formula_sum "Si O2"
_cell_formula_units_Z 128
_cell_length_a 20.360494
_cell_length_b 16.008585
_cell_length_c 21.266215
_cell_angle_alpha 90.000000
_cell_angle_beta 90.000000
_cell_angle_gamma 90.000000
_cell_volume 6931.567511
_symmetry_space_group_name_H-M "F D D D"
_symmetry_group_IT_number 70
_space_group.IT_coordinate_system_code '2'
_symmetry_cell_setting 'orthorhombic'
loop_
_space_group_symop_operation_xyz
x,y,z
1/4-x,1/4-y,z
x,1/4-y,1/4-z
1/4-x,y,1/4-z
-x,-y,-z
3/4+x,3/4+y,-z
-x,3/4+y,3/4+z
3/4+x,-y,3/4+z
x,1/2+y,1/2+z
1/4-x,3/4-y,1/2+z
x,3/4-y,3/4-z
1/4-x,1/2+y,3/4-z
-x,1/2-y,1/2-z
3/4+x,1/4+y,1/2-z
-x,1/4+y,1/4+z
3/4+x,1/2-y,1/4+z
1/2+x,y,1/2+z
3/4-x,1/4-y,1/2+z
1/2+x,1/4-y,3/4-z
3/4-x,y,3/4-z
1/2-x,-y,1/2-z
1/4+x,3/4+y,1/2-z
1/2-x,3/4+y,1/4+z
1/4+x,-y,1/4+z
1/2+x,1/2+y,z
3/4-x,3/4-y,z
1/2+x,3/4-y,1/4-z
3/4-x,1/2+y,1/4-z
1/2-x,1/2-y,-z
1/4+x,1/4+y,-z
1/2-x,1/4+y,3/4+z
1/4+x,1/2-y,3/4+z
loop_
_atom_site_type_symbol
_atom_site_label
_atom_site_fract_x
_atom_site_fract_y
_atom_site_fract_z
Si Si1 0.422393 0.121333 0.928716
Si Si2 0.860947 0.081108 0.190568
Si Si3 0.212336 0.064622 0.681782
Si Si4 0.064038 0.167909 0.444364
O O1 0.375000 0.157205 0.875000
O O2 0.493012 0.161787 0.911720
O O3 0.422505 0.020748 0.926312
O O4 0.395116 0.144638 0.999138
O O5 0.879278 0.125000 0.125000
O O6 0.789126 0.038248 0.184594
O O7 0.918367 0.014849 0.204786
O O8 0.195886 0.125000 0.625000
O O9 0.189921 0.116392 0.741502
O O10 0.125000 0.125000 0.405395
#
# Coordination Sequence:
#
# PCOD8285844 Si02
#       4
#    32  32  32  32
#     4  11  21  33  53  84 111 140 177 222 271 322
#     4  10  20  35  52  78 110 146 178 215 267 323
#     4  10  19  29  53  87 116 136 164 210 283 339
#     4  11  18  33  51  76 115 143 171 214 262 326
#
# _framework density 18.466242000000001
#
# number of rings (size 3 to 8) (size 9 to 14) (size 15 to 20)
#    0.000    1.500    5.000    3.000    0.000    0.000 
#    0.000    1.250    0.000    0.750    0.000    0.000 
#    0.000    0.000    0.000    0.000    0.000    0.000 
#
# Total GULP energy -396525.860607 kJ/mol
# GULP energy per Si atom -12391.433144 kJ/mol
# Density = 1.842421 g / cm^3
# Si number density = 18.466242 Si / 1000 Ang^3
#
#
#
# Elastic Constant Matrix: (Units=GPa)
#
#
# Indices 1 2 3 4 5 6 
#
# 1 124.5894 39.2370 44.1811 0.0000 0.0000 0.0000
# 2 39.2370 48.2025 15.0844 0.0000 0.0000 0.0000
# 3 44.1811 15.0844 88.2312 0.0000 0.0000 0.0000
# 4 0.0000 0.0000 0.0000 1131.7479 0.0000 0.0000
# 5 0.0000 0.0000 0.0000 0.0000 15.5130 0.0000
# 6 0.0000 0.0000 0.0000 0.0000 0.0000 54.5669
#
#
#
# Elastic Compliance Matrix: (Units=1/GPa)
#
#
# Indices 1 2 3 4 5 6 
#
# 1 0.012428 -0.008631 -0.004748 0.000000 0.000000 0.000000
# 2 -0.008631 0.027912 -0.000450 0.000000 0.000000 0.000000
# 3 -0.004748 -0.000450 0.013788 0.000000 0.000000 0.000000
# 4 0.000000 0.000000 0.000000 0.000884 0.000000 0.000000
# 5 0.000000 0.000000 0.000000 0.000000 0.064462 0.000000
# 6 0.000000 0.000000 0.000000 0.000000 0.000000 0.018326
#
#
# Mechanical properties :
#
#
# Convention : Reuss Voigt Hill
#
# Bulk Modulus (GPa) = 37.77704 50.89203 44.33453
# Shear Modulus (GPa) = 28.68928 251.20028 139.94478
#
# Velocity S-wave (km/s) = 3.94586 11.67594 8.71485
# Velocity P-wave (km/s) = 6.42351 14.47029 11.19488
#
# Compressibility (1/GPa) = 0.02647110
#
# Stress axis : x y z
#
# Youngs Moduli (GPa) = 80.46306 35.82667 72.52573
#
# Poissons Ratio (x) = 0.30921 0.34433
# Poissons Ratio (y) = 0.69446 0.03265
# Poissons Ratio (z) = 0.38202 0.01613
#
# Static dielectric constant tensor:
#      x y z
#    x 3.978690 0.000000 0.000000 
#    y 0.000000 3.078650 0.000000 
#    z 0.000000 0.000000 3.529810 
# 
# 
# High freq. dielectric constant tensor:
#      x y z
#    x 1.723870 0.000000 0.000000 
#    y 0.000000 1.673200 0.000000 
#    z 0.000000 0.000000 1.704200 
# 
# From -- ./inp_files/34810.got.cif
#   From: 2010.03.12/outbox.cif.g09.slc.cpg/sg70_18_cif.got.tgz:34810.got - 2010.04.16 13:46:32.
