data_PCOD8285096
_publ_section_title
;
Structure prediction by ZEFSAII (Michael W. Deem and Ramdas Pophale) SiO2 
 PCOD8285096
Probable space group: F M M M
;
_chemical_formula_sum "Si O2"
_cell_formula_units_Z 176
_cell_length_a 18.134720
_cell_length_b 16.944154
_cell_length_c 26.854140
_cell_angle_alpha 90.000000
_cell_angle_beta 90.000000
_cell_angle_gamma 90.000000
_cell_volume 8251.672693
_symmetry_space_group_name_H-M "F M M M"
_symmetry_group_IT_number 69
_symmetry_cell_setting 'orthorhombic'
loop_
_space_group_symop_operation_xyz
x,y,z
-x,-y,z
x,-y,-z
-x,y,-z
-x,-y,-z
x,y,-z
-x,y,z
x,-y,z
x,1/2+y,1/2+z
-x,1/2-y,1/2+z
x,1/2-y,1/2-z
-x,1/2+y,1/2-z
-x,1/2-y,1/2-z
x,1/2+y,1/2-z
-x,1/2+y,1/2+z
x,1/2-y,1/2+z
1/2+x,y,1/2+z
1/2-x,-y,1/2+z
1/2+x,-y,1/2-z
1/2-x,y,1/2-z
1/2-x,-y,1/2-z
1/2+x,y,1/2-z
1/2-x,y,1/2+z
1/2+x,-y,1/2+z
1/2+x,1/2+y,z
1/2-x,1/2-y,z
1/2+x,1/2-y,-z
1/2-x,1/2+y,-z
1/2-x,1/2-y,-z
1/2+x,1/2+y,-z
1/2-x,1/2+y,z
1/2+x,1/2-y,z
loop_
_atom_site_type_symbol
_atom_site_label
_atom_site_fract_x
_atom_site_fract_y
_atom_site_fract_z
Si Si1 0.816343 0.088583 0.912480
Si Si2 0.155225 0.912101 0.445191
Si Si3 0.178267 0.302562 0.681721
Si Si4 0.415436 0.090495 0.752268
Si Si5 0.583102 0.405816 0.000000
Si Si6 0.083545 0.334510 0.146076
O O1 0.743144 0.086323 0.945157
O O2 0.802061 0.141479 0.864225
O O3 0.838175 0.000000 0.894801
O O4 0.878672 0.125064 0.949080
O O5 0.129584 0.883298 0.500000
O O6 0.127765 0.853093 0.403549
O O7 0.123926 0.000000 0.434893
O O8 0.250000 0.250000 0.696837
O O9 0.147435 0.355060 0.727284
O O10 0.110211 0.248096 0.667523
O O11 0.500000 0.114571 0.737248
O O12 0.405843 0.098611 0.811754
O O13 0.400605 0.000000 0.737325
O O14 0.588461 0.500000 0.000000
O O15 0.500000 0.374225 0.000000
O O16 0.000000 0.325343 0.129862
#
# Coordination Sequence:
#
# PCOD8285096 Si02
#       6
#    32  32  32  32  16  32
#     4  10  20  39  63  90 126 168 218 267 317 384
#     4  10  20  39  67  93 123 168 217 265 317 379
#     4  12  24  41  63  97 133 171 212 263 329 398
#     4  10  23  45  71  95 125 170 222 275 329 389
#     4   9  18  34  61  94 127 167 217 277 330 371
#     4  11  24  43  64  93 132 169 210 266 329 389
#
# _framework density 21.329008999999999
#
# number of rings (size 3 to 8) (size 9 to 14) (size 15 to 20)
#    0.000    1.545    2.727    2.182    0.000    5.818 
#    1.636    5.000    0.000    0.000    0.000    0.000 
#    0.000    0.000    0.000    0.000    0.000    0.000 
#
# Total GULP energy -545541.823054 kJ/mol
# GULP energy per Si atom -12398.677797 kJ/mol
# Density = 2.128046 g / cm^3
# Si number density = 21.329009 Si / 1000 Ang^3
#
#
#
# Elastic Constant Matrix: (Units=GPa)
#
#
# Indices 1 2 3 4 5 6 
#
# 1 117.6372 40.8412 51.0535 0.0000 0.0000 0.0000
# 2 40.8412 82.9016 39.9078 0.0000 0.0000 0.0000
# 3 51.0535 39.9078 118.3317 0.0000 0.0000 0.0000
# 4 0.0000 0.0000 0.0000 -31.7462 0.0000 0.0000
# 5 0.0000 0.0000 0.0000 0.0000 37.6878 0.0000
# 6 0.0000 0.0000 0.0000 0.0000 0.0000 32.6896
#
#
#
# Elastic Compliance Matrix: (Units=1/GPa)
#
#
# Indices 1 2 3 4 5 6 
#
# 1 0.011419 -0.003885 -0.003617 0.000000 0.000000 0.000000
# 2 -0.003885 0.015722 -0.003626 0.000000 0.000000 0.000000
# 3 -0.003617 -0.003626 0.011234 0.000000 0.000000 0.000000
# 4 0.000000 0.000000 0.000000 -0.031500 0.000000 0.000000
# 5 0.000000 0.000000 0.000000 0.000000 0.026534 0.000000
# 6 0.000000 0.000000 0.000000 0.000000 0.000000 0.030591
#
#
# Mechanical properties :
#
#
# Convention : Reuss Voigt Hill
#
# Bulk Modulus (GPa) = 62.03414 64.71949 63.37682
# Shear Modulus (GPa) = 54.56864 20.19743 37.38304
#
# Velocity S-wave (km/s) = 5.06357 3.08059 4.19105
# Velocity P-wave (km/s) = 7.95826 6.56221 7.29372
#
# Compressibility (1/GPa) = 0.01612016
#
# Stress axis : x y z
#
# Youngs Moduli (GPa) = 87.57427 63.60575 89.01436
#
# Poissons Ratio (x) = 0.24708 0.32192
# Poissons Ratio (y) = 0.34018 0.32279
# Poissons Ratio (z) = 0.31672 0.23065
#
# Static dielectric constant tensor:
#      x y z
#    x 3.849830 0.000000 0.000000 
#    y 0.000000 3.816300 0.000000 
#    z 0.000000 0.000000 3.801410 
# 
# 
# High freq. dielectric constant tensor:
#      x y z
#    x 1.836990 0.000000 0.000000 
#    y 0.000000 1.824060 0.000000 
#    z 0.000000 0.000000 1.843270 
# 
# From -- ./inp_files/41870.got.cif
#   From: 2010.03.12/outbox.cif.g09.slc.cpg/sg69_21_cif.got.tgz:41870.got - 2010.04.10 23:52:46.
