data_PCOD8285480
_publ_section_title
;
Structure prediction by ZEFSAII (Michael W. Deem and Ramdas Pophale) SiO2 
 PCOD8285480
Probable space group: F M M M
;
_chemical_formula_sum "Si O2"
_cell_formula_units_Z 160
_cell_length_a 26.213586
_cell_length_b 23.774486
_cell_length_c 17.582396
_cell_angle_alpha 90.000000
_cell_angle_beta 90.000000
_cell_angle_gamma 90.000000
_cell_volume 10957.604719
_symmetry_space_group_name_H-M "F M M M"
_symmetry_group_IT_number 69
_symmetry_cell_setting 'orthorhombic'
loop_
_space_group_symop_operation_xyz
x,y,z
-x,-y,z
x,-y,-z
-x,y,-z
-x,-y,-z
x,y,-z
-x,y,z
x,-y,z
x,1/2+y,1/2+z
-x,1/2-y,1/2+z
x,1/2-y,1/2-z
-x,1/2+y,1/2-z
-x,1/2-y,1/2-z
x,1/2+y,1/2-z
-x,1/2+y,1/2+z
x,1/2-y,1/2+z
1/2+x,y,1/2+z
1/2-x,-y,1/2+z
1/2+x,-y,1/2-z
1/2-x,y,1/2-z
1/2-x,-y,1/2-z
1/2+x,y,1/2-z
1/2-x,y,1/2+z
1/2+x,-y,1/2+z
1/2+x,1/2+y,z
1/2-x,1/2-y,z
1/2+x,1/2-y,-z
1/2-x,1/2+y,-z
1/2-x,1/2-y,-z
1/2+x,1/2+y,-z
1/2-x,1/2+y,z
1/2+x,1/2-y,z
loop_
_atom_site_type_symbol
_atom_site_label
_atom_site_fract_x
_atom_site_fract_y
_atom_site_fract_z
Si Si1 0.299331 0.289148 0.083979
Si Si2 0.109167 0.500000 0.090616
Si Si3 0.151696 0.319861 0.090037
Si Si4 0.556395 0.888124 0.910079
Si Si5 0.774598 0.000000 0.590159
Si Si6 0.745408 0.384624 0.338962
O O1 0.250000 0.250000 0.082081
O O2 0.343942 0.246435 0.111850
O O3 0.291609 0.342444 0.138436
O O4 0.311271 0.312746 0.000000
O O5 0.079614 0.554160 0.123022
O O6 0.167157 0.500000 0.120408
O O7 0.110008 0.500000 0.000000
O O8 0.094302 0.337440 0.112150
O O9 0.191335 0.358490 0.136048
O O10 0.162991 0.329235 0.000000
O O11 0.500000 0.877116 0.875351
O O12 0.552215 0.893680 0.000000
O O13 0.746228 0.944647 0.621165
O O14 0.771767 0.000000 0.500000
O O15 0.750000 0.393632 0.250000
#
# Coordination Sequence:
#
# PCOD8285480 Si02
#       6
#    32  16  32  32  16  32
#     4   8  15  27  42  57  76 107 147 177 205 248
#     4   9  15  23  38  56  81 113 140 167 200 246
#     4   9  16  28  43  60  85 117 146 174 208 248
#     4   9  15  23  38  62  87 110 141 177 208 245
#     4  11  19  30  45  57  83 119 144 167 211 257
#     4  11  20  28  40  61  84 110 144 183 212 248
#
# _framework density 14.601730999999999
#
# number of rings (size 3 to 8) (size 9 to 14) (size 15 to 20)
#    0.000    2.600    2.000    3.600    0.000    4.800 
#    0.000    0.000    0.000    0.000    0.000    2.800 
#    0.000    0.000    0.000    0.200    0.000   20.400 
#
# Total GULP energy -495702.227505 kJ/mol
# GULP energy per Si atom -12392.555688 kJ/mol
# Density = 1.456850 g / cm^3
# Si number density = 14.601731 Si / 1000 Ang^3
#
#
#
# Elastic Constant Matrix: (Units=GPa)
#
#
# Indices 1 2 3 4 5 6 
#
# 1 75.3302 54.8869 17.6802 0.0000 0.0000 0.0000
# 2 54.8869 123.6711 37.3187 0.0000 0.0000 0.0000
# 3 17.6802 37.3187 58.6494 0.0000 0.0000 0.0000
# 4 0.0000 0.0000 0.0000 13.7816 0.0000 0.0000
# 5 0.0000 0.0000 0.0000 0.0000 6.0277 0.0000
# 6 0.0000 0.0000 0.0000 0.0000 0.0000 21.2104
#
#
#
# Elastic Compliance Matrix: (Units=1/GPa)
#
#
# Indices 1 2 3 4 5 6 
#
# 1 0.019629 -0.008572 -0.000463 0.000000 0.000000 0.000000
# 2 -0.008572 0.013751 -0.006166 0.000000 0.000000 0.000000
# 3 -0.000463 -0.006166 0.021113 0.000000 0.000000 0.000000
# 4 0.000000 0.000000 0.000000 0.072561 0.000000 0.000000
# 5 0.000000 0.000000 0.000000 0.000000 0.165902 0.000000
# 6 0.000000 0.000000 0.000000 0.000000 0.000000 0.047147
#
#
# Mechanical properties :
#
#
# Convention : Reuss Voigt Hill
#
# Bulk Modulus (GPa) = 41.50730 53.04693 47.27712
# Shear Modulus (GPa) = 13.20884 18.05492 15.63188
#
# Velocity S-wave (km/s) = 3.01093 3.52019 3.27548
# Velocity P-wave (km/s) = 6.36990 7.27533 6.83762
#
# Compressibility (1/GPa) = 0.02409215
#
# Stress axis : x y z
#
# Youngs Moduli (GPa) = 50.94435 72.72266 47.36369
#
# Poissons Ratio (x) = 0.62338 0.02193
# Poissons Ratio (y) = 0.43670 0.29203
# Poissons Ratio (z) = 0.02359 0.44838
#
# Static dielectric constant tensor:
#      x y z
#    x 2.916220 0.000000 0.000000 
#    y 0.000000 3.106760 0.000000 
#    z 0.000000 0.000000 2.499030 
# 
# 
# High freq. dielectric constant tensor:
#      x y z
#    x 1.528530 0.000000 0.000000 
#    y 0.000000 1.565420 0.000000 
#    z 0.000000 0.000000 1.516500 
# 
# From -- ./inp_files/25112.got.cif
#   From: 2010.03.12/outbox.cif.g09.slc.cpg/sg69_13_cif.got.tgz:25112.got - 2010.04.10 23:52:46.
