data_PCOD8285563
_publ_section_title
;
Structure prediction by ZEFSAII (Michael W. Deem and Ramdas Pophale) SiO2 
 PCOD8285563
Probable space group: F M M M
;
_chemical_formula_sum "Si O2"
_cell_formula_units_Z 144
_cell_length_a 17.248703
_cell_length_b 14.929667
_cell_length_c 27.221755
_cell_angle_alpha 90.000000
_cell_angle_beta 90.000000
_cell_angle_gamma 90.000000
_cell_volume 7010.075352
_symmetry_space_group_name_H-M "F M M M"
_symmetry_group_IT_number 69
_symmetry_cell_setting 'orthorhombic'
loop_
_space_group_symop_operation_xyz
x,y,z
-x,-y,z
x,-y,-z
-x,y,-z
-x,-y,-z
x,y,-z
-x,y,z
x,-y,z
x,1/2+y,1/2+z
-x,1/2-y,1/2+z
x,1/2-y,1/2-z
-x,1/2+y,1/2-z
-x,1/2-y,1/2-z
x,1/2+y,1/2-z
-x,1/2+y,1/2+z
x,1/2-y,1/2+z
1/2+x,y,1/2+z
1/2-x,-y,1/2+z
1/2+x,-y,1/2-z
1/2-x,y,1/2-z
1/2-x,-y,1/2-z
1/2+x,y,1/2-z
1/2-x,y,1/2+z
1/2+x,-y,1/2+z
1/2+x,1/2+y,z
1/2-x,1/2-y,z
1/2+x,1/2-y,-z
1/2-x,1/2+y,-z
1/2-x,1/2-y,-z
1/2+x,1/2+y,-z
1/2-x,1/2+y,z
1/2+x,1/2-y,z
loop_
_atom_site_type_symbol
_atom_site_label
_atom_site_fract_x
_atom_site_fract_y
_atom_site_fract_z
Si Si1 0.910086 0.104680 0.876733
Si Si2 0.862544 0.400141 0.120155
Si Si3 0.275404 0.352096 0.944026
Si Si4 0.341857 0.748324 0.805800
Si Si5 0.500000 0.606455 0.553839
O O1 0.863365 0.133120 0.925849
O O2 0.876681 0.159767 0.830653
O O3 0.000000 0.128175 0.885814
O O4 0.898968 0.000000 0.864959
O O5 0.885113 0.500000 0.137413
O O6 0.779698 0.405980 0.093133
O O7 0.869339 0.338615 0.167807
O O8 0.923555 0.359731 0.081408
O O9 0.250000 0.250000 0.939793
O O10 0.267951 0.387200 0.000000
O O11 0.371577 0.750000 0.750000
O O12 0.250000 0.750000 0.809242
O O13 0.500000 0.500000 0.549734
O O14 0.500000 0.650559 0.500000
#
# Coordination Sequence:
#
# PCOD8285563 Si02
#       5
#    32  32  32  32  16
#     4  11  24  43  65  91 128 169 211 259 309 373
#     4  11  21  38  63  92 126 162 205 259 320 380
#     4  11  22  39  64  93 125 167 214 255 310 376
#     4  11  24  43  66  91 121 160 210 268 323 375
#     4   9  20  36  57  92 129 159 198 247 308 378
#
# _framework density 20.541861999999998
#
# number of rings (size 3 to 8) (size 9 to 14) (size 15 to 20)
#    0.000    1.222    4.444    1.333    1.556    4.444 
#    0.000    3.333    0.000    0.000    0.000    0.000 
#    0.000    0.000    0.000    0.000    0.000    0.000 
#
# Total GULP energy -446461.075398 kJ/mol
# GULP energy per Si atom -12401.696539 kJ/mol
# Density = 2.049511 g / cm^3
# Si number density = 20.541862 Si / 1000 Ang^3
#
#
#
# Elastic Constant Matrix: (Units=GPa)
#
#
# Indices 1 2 3 4 5 6 
#
# 1 128.9570 36.8214 57.7393 0.0000 0.0000 0.0000
# 2 36.8214 114.5193 65.6512 0.0000 0.0000 0.0000
# 3 57.7393 65.6512 173.8946 0.0000 0.0000 0.0000
# 4 0.0000 0.0000 0.0000 5.0646 0.0000 0.0000
# 5 0.0000 0.0000 0.0000 0.0000 30.6903 0.0000
# 6 0.0000 0.0000 0.0000 0.0000 0.0000 29.7098
#
#
#
# Elastic Compliance Matrix: (Units=1/GPa)
#
#
# Indices 1 2 3 4 5 6 
#
# 1 0.009322 -0.001561 -0.002506 0.000000 0.000000 0.000000
# 2 -0.001561 0.011405 -0.003788 0.000000 0.000000 0.000000
# 3 -0.002506 -0.003788 0.008013 0.000000 0.000000 0.000000
# 4 0.000000 0.000000 0.000000 0.197448 0.000000 0.000000
# 5 0.000000 0.000000 0.000000 0.000000 0.032584 0.000000
# 6 0.000000 0.000000 0.000000 0.000000 0.000000 0.033659
#
#
# Mechanical properties :
#
#
# Convention : Reuss Voigt Hill
#
# Bulk Modulus (GPa) = 76.73829 81.97720 79.35774
# Shear Modulus (GPa) = 16.00084 30.23687 23.11886
#
# Velocity S-wave (km/s) = 2.79397 3.84078 3.35841
# Velocity P-wave (km/s) = 6.91712 7.72417 7.33176
#
# Compressibility (1/GPa) = 0.01303130
#
# Stress axis : x y z
#
# Youngs Moduli (GPa) = 107.27039 87.67805 124.80154
#
# Poissons Ratio (x) = 0.13684 0.31277
# Poissons Ratio (y) = 0.16742 0.47271
# Poissons Ratio (z) = 0.26883 0.33210
#
# Static dielectric constant tensor:
#      x y z
#    x 3.873030 0.000000 0.000000 
#    y 0.000000 3.679750 0.000000 
#    z 0.000000 0.000000 3.863900 
# 
# 
# High freq. dielectric constant tensor:
#      x y z
#    x 1.810830 0.000000 0.000000 
#    y 0.000000 1.807240 0.000000 
#    z 0.000000 0.000000 1.794790 
# 
# From -- ./inp_files/15544.got.cif
#   From: 2010.03.12/outbox.cif.g09.slc.cpg/sg69_8_cif.got.tgz:15544.got - 2010.04.10 23:52:46.
