data_PCOD8285120
_publ_section_title
;
Structure prediction by ZEFSAII (Michael W. Deem and Ramdas Pophale) SiO2 
 PCOD8285120
Probable space group: F M M M
;
_chemical_formula_sum "Si O2"
_cell_formula_units_Z 104
_cell_length_a 23.157314
_cell_length_b 9.257491
_cell_length_c 27.008337
_cell_angle_alpha 90.000000
_cell_angle_beta 90.000000
_cell_angle_gamma 90.000000
_cell_volume 5790.010175
_symmetry_space_group_name_H-M "F M M M"
_symmetry_group_IT_number 69
_symmetry_cell_setting 'orthorhombic'
loop_
_space_group_symop_operation_xyz
x,y,z
-x,-y,z
x,-y,-z
-x,y,-z
-x,-y,-z
x,y,-z
-x,y,z
x,-y,z
x,1/2+y,1/2+z
-x,1/2-y,1/2+z
x,1/2-y,1/2-z
-x,1/2+y,1/2-z
-x,1/2-y,1/2-z
x,1/2+y,1/2-z
-x,1/2+y,1/2+z
x,1/2-y,1/2+z
1/2+x,y,1/2+z
1/2-x,-y,1/2+z
1/2+x,-y,1/2-z
1/2-x,y,1/2-z
1/2-x,-y,1/2-z
1/2+x,y,1/2-z
1/2-x,y,1/2+z
1/2+x,-y,1/2+z
1/2+x,1/2+y,z
1/2-x,1/2-y,z
1/2+x,1/2-y,-z
1/2-x,1/2+y,-z
1/2-x,1/2-y,-z
1/2+x,1/2+y,-z
1/2-x,1/2+y,z
1/2+x,1/2-y,z
loop_
_atom_site_type_symbol
_atom_site_label
_atom_site_fract_x
_atom_site_fract_y
_atom_site_fract_z
Si Si1 0.886772 0.000000 0.557593
Si Si2 0.805397 0.837784 0.619171
Si Si3 0.500000 0.000000 0.123067
Si Si4 0.000000 0.774032 0.808206
Si Si5 0.375119 0.161276 0.300423
O O1 0.849910 0.142989 0.573061
O O2 0.900734 0.000000 0.500000
O O3 0.945341 0.000000 0.587854
O O4 0.750000 0.750000 0.599819
O O5 0.834395 0.746743 0.662437
O O6 0.788845 0.000000 0.638590
O O7 0.500000 0.869941 0.160604
O O8 0.000000 0.750000 0.750000
O O9 0.940551 0.856106 0.821545
O O10 0.375008 0.250000 0.250000
O O11 0.350320 0.000000 0.292208
#
# Coordination Sequence:
#
# PCOD8285120 Si02
#       5
#    16  32   8  16  32
#     4  10  23  40  66  92 117 160 208 261 315 358
#     4  10  21  39  60  86 122 155 203 253 306 364
#     4  12  19  42  64  92 130 156 205 258 298 376
#     4  10  21  31  57  87 124 160 198 245 304 357
#     4  11  22  35  57  87 124 166 207 247 306 369
#
# _framework density 17.961971999999999
#
# number of rings (size 3 to 8) (size 9 to 14) (size 15 to 20)
#    0.923    0.615    3.077    2.538    8.615    1.231 
#    0.000    3.077    0.000    0.000    0.000    2.154 
#    0.000    0.000    0.000    0.000    0.000    0.000 
#
# Total GULP energy -322096.386278 kJ/mol
# GULP energy per Si atom -12388.322549 kJ/mol
# Density = 1.792109 g / cm^3
# Si number density = 17.961972 Si / 1000 Ang^3
#
#
#
# Elastic Constant Matrix: (Units=GPa)
#
#
# Indices 1 2 3 4 5 6 
#
# 1 113.0279 39.1614 47.8371 0.0000 0.0000 0.0000
# 2 39.1614 143.3139 53.4911 0.0000 0.0000 0.0001
# 3 47.8371 53.4911 114.6668 0.0000 0.0000 0.0000
# 4 0.0000 0.0000 0.0000 19.2048 0.0000 0.0000
# 5 0.0000 0.0000 0.0000 0.0000 -42.7816 0.0000
# 6 0.0000 0.0001 0.0000 0.0000 0.0000 36.2269
#
#
#
# Elastic Compliance Matrix: (Units=1/GPa)
#
#
# Indices 1 2 3 4 5 6 
#
# 1 0.011029 -0.001570 -0.003869 0.000000 0.000000 0.000000
# 2 -0.001570 0.008672 -0.003391 0.000000 0.000000 0.000000
# 3 -0.003869 -0.003391 0.011917 0.000000 0.000000 0.000000
# 4 0.000000 0.000000 0.000000 0.052070 0.000000 0.000000
# 5 0.000000 0.000000 0.000000 0.000000 -0.023375 0.000000
# 6 0.000000 0.000000 0.000000 0.000000 0.000000 0.027604
#
#
# Mechanical properties :
#
#
# Convention : Reuss Voigt Hill
#
# Bulk Modulus (GPa) = 71.63689 72.44310 72.04000
# Shear Modulus (GPa) = 45.36049 17.89795 31.62922
#
# Velocity S-wave (km/s) = 5.03075 3.16006 4.20086
# Velocity P-wave (km/s) = 8.58567 7.33032 7.98271
#
# Compressibility (1/GPa) = 0.01395929
#
# Stress axis : x y z
#
# Youngs Moduli (GPa) = 90.67354 115.31163 83.91662
#
# Poissons Ratio (x) = 0.18100 0.32465
# Poissons Ratio (y) = 0.14233 0.28453
# Poissons Ratio (z) = 0.35079 0.39098
#
# Static dielectric constant tensor:
#      x y z
#    x 3.725190 0.000000 0.000000 
#    y 0.000000 3.327740 0.000000 
#    z 0.000000 0.000000 3.029880 
# 
# 
# High freq. dielectric constant tensor:
#      x y z
#    x 1.712710 0.000000 0.000000 
#    y 0.000000 1.696310 0.000000 
#    z 0.000000 0.000000 1.663860 
# 
# From -- ./inp_files/43384.got.cif
#   From: 2010.03.12/outbox.cif.g09.slc.cpg/sg69_22_cif.got.tgz:43384.got - 2010.04.10 23:52:46.
