data_PCOD8285874
_publ_section_title
;
Structure prediction by ZEFSAII (Michael W. Deem and Ramdas Pophale) SiO2 
 PCOD8285874
Probable space group: F D D D
;
_chemical_formula_sum "Si O2"
_cell_formula_units_Z 160
_cell_length_a 10.133742
_cell_length_b 23.292218
_cell_length_c 37.428999
_cell_angle_alpha 90.000000
_cell_angle_beta 90.000000
_cell_angle_gamma 90.000000
_cell_volume 8834.640907
_symmetry_space_group_name_H-M "F D D D"
_symmetry_group_IT_number 70
_space_group.IT_coordinate_system_code '2'
_symmetry_cell_setting 'orthorhombic'
loop_
_space_group_symop_operation_xyz
x,y,z
1/4-x,1/4-y,z
x,1/4-y,1/4-z
1/4-x,y,1/4-z
-x,-y,-z
3/4+x,3/4+y,-z
-x,3/4+y,3/4+z
3/4+x,-y,3/4+z
x,1/2+y,1/2+z
1/4-x,3/4-y,1/2+z
x,3/4-y,3/4-z
1/4-x,1/2+y,3/4-z
-x,1/2-y,1/2-z
3/4+x,1/4+y,1/2-z
-x,1/4+y,1/4+z
3/4+x,1/2-y,1/4+z
1/2+x,y,1/2+z
3/4-x,1/4-y,1/2+z
1/2+x,1/4-y,3/4-z
3/4-x,y,3/4-z
1/2-x,-y,1/2-z
1/4+x,3/4+y,1/2-z
1/2-x,3/4+y,1/4+z
1/4+x,-y,1/4+z
1/2+x,1/2+y,z
3/4-x,3/4-y,z
1/2+x,3/4-y,1/4-z
3/4-x,1/2+y,1/4-z
1/2-x,1/2-y,-z
1/4+x,1/4+y,-z
1/2-x,1/4+y,3/4+z
1/4+x,1/2-y,3/4+z
loop_
_atom_site_type_symbol
_atom_site_label
_atom_site_fract_x
_atom_site_fract_y
_atom_site_fract_z
Si Si1 0.365787 0.232844 0.452391
Si Si2 0.663237 0.218594 0.455819
Si Si3 0.375000 0.683460 0.875000
Si Si4 0.994107 0.590370 0.012796
Si Si5 0.375000 0.875000 0.602075
Si Si6 0.753534 0.413165 0.277881
O O1 0.515557 0.238279 0.466605
O O2 0.368337 0.223018 0.409981
O O3 0.303499 0.179871 0.473862
O O4 0.278547 0.288682 0.460288
O O5 0.668405 0.180149 0.420738
O O6 0.745917 0.277383 0.449665
O O7 0.726043 0.179556 0.486600
O O8 0.502248 0.642501 0.873608
O O9 0.125000 0.625000 0.005185
O O10 0.881666 0.627765 0.032058
O O11 0.875000 0.375000 0.292462
#
# Coordination Sequence:
#
# PCOD8285874 Si02
#       6
#    32  32  16  32  16  32
#     4  10  21  37  57  87 114 152 190 238 285 349
#     4  10  19  34  57  78 119 150 183 229 294 346
#     4  10  22  40  59  80 115 152 194 228 290 348
#     4  11  21  35  57  87 121 139 191 245 288 331
#     4  10  20  40  56  80 110 148 194 234 278 348
#     4  11  19  33  55  86 111 152 180 229 298 345
#
# _framework density 18.110526
#
# number of rings (size 3 to 8) (size 9 to 14) (size 15 to 20)
#    0.000    1.600    5.000    1.200    1.400    0.000 
#    3.600    0.500    0.000    0.000    0.000    0.000 
#    0.000    0.000    0.000    0.000    0.000    0.000 
#
# Total GULP energy -495991.594183 kJ/mol
# GULP energy per Si atom -12399.789855 kJ/mol
# Density = 1.806931 g / cm^3
# Si number density = 18.110526 Si / 1000 Ang^3
#
#
#
# Elastic Constant Matrix: (Units=GPa)
#
#
# Indices 1 2 3 4 5 6 
#
# 1 115.8642 49.0248 20.7622 0.0000 0.0000 0.0000
# 2 49.0248 108.8383 24.4847 0.0000 0.0000 0.0000
# 3 20.7622 24.4847 63.8674 0.0000 0.0000 0.0000
# 4 0.0000 0.0000 0.0000 30.4647 0.0000 0.0000
# 5 0.0000 0.0000 0.0000 0.0000 10.6689 0.0000
# 6 0.0000 0.0000 0.0000 0.0000 0.0000 46.7911
#
#
#
# Elastic Compliance Matrix: (Units=1/GPa)
#
#
# Indices 1 2 3 4 5 6 
#
# 1 0.010851 -0.004481 -0.001810 0.000000 0.000000 0.000000
# 2 -0.004481 0.011905 -0.003108 0.000000 0.000000 0.000000
# 3 -0.001810 -0.003108 0.017437 0.000000 0.000000 0.000000
# 4 0.000000 0.000000 0.000000 0.032825 0.000000 0.000000
# 5 0.000000 0.000000 0.000000 0.000000 0.093730 0.000000
# 6 0.000000 0.000000 0.000000 0.000000 0.000000 0.021372
#
#
# Mechanical properties :
#
#
# Convention : Reuss Voigt Hill
#
# Bulk Modulus (GPa) = 46.73422 53.01258 49.87340
# Shear Modulus (GPa) = 23.35925 30.53815 26.94870
#
# Velocity S-wave (km/s) = 3.59530 4.11080 3.86166
# Velocity P-wave (km/s) = 6.56475 7.20186 6.89067
#
# Compressibility (1/GPa) = 0.02139760
#
# Stress axis : x y z
#
# Youngs Moduli (GPa) = 92.15825 83.99673 57.34902
#
# Poissons Ratio (x) = 0.37635 0.10379
# Poissons Ratio (y) = 0.41292 0.17821
# Poissons Ratio (z) = 0.16678 0.26102
#
# Static dielectric constant tensor:
#      x y z
#    x 3.630640 0.000000 0.000000 
#    y 0.000000 3.594890 0.000000 
#    z 0.000000 0.000000 2.903980 
# 
# 
# High freq. dielectric constant tensor:
#      x y z
#    x 1.718540 0.000000 0.000000 
#    y 0.000000 1.716540 0.000000 
#    z 0.000000 0.000000 1.658820 
# 
# From -- ./inp_files/64691.got.cif
#   From: 2010.03.12/outbox.cif.g09.slc.cpg/sg70_33_cif.got.tgz:64691.got - 2010.04.16 13:46:32.
