data_PCOD8285596
_publ_section_title
;
Structure prediction by ZEFSAII (Michael W. Deem and Ramdas Pophale) SiO2 
 PCOD8285596
Probable space group: F M M M
;
_chemical_formula_sum "Si O2"
_cell_formula_units_Z 112
_cell_length_a 36.021123
_cell_length_b 8.986275
_cell_length_c 19.313406
_cell_angle_alpha 90.000000
_cell_angle_beta 90.000000
_cell_angle_gamma 90.000000
_cell_volume 6251.666805
_symmetry_space_group_name_H-M "F M M M"
_symmetry_group_IT_number 69
_symmetry_cell_setting 'orthorhombic'
loop_
_space_group_symop_operation_xyz
x,y,z
-x,-y,z
x,-y,-z
-x,y,-z
-x,-y,-z
x,y,-z
-x,y,z
x,-y,z
x,1/2+y,1/2+z
-x,1/2-y,1/2+z
x,1/2-y,1/2-z
-x,1/2+y,1/2-z
-x,1/2-y,1/2-z
x,1/2+y,1/2-z
-x,1/2+y,1/2+z
x,1/2-y,1/2+z
1/2+x,y,1/2+z
1/2-x,-y,1/2+z
1/2+x,-y,1/2-z
1/2-x,y,1/2-z
1/2-x,-y,1/2-z
1/2+x,y,1/2-z
1/2-x,y,1/2+z
1/2+x,-y,1/2+z
1/2+x,1/2+y,z
1/2-x,1/2-y,z
1/2+x,1/2-y,-z
1/2-x,1/2+y,-z
1/2-x,1/2-y,-z
1/2+x,1/2+y,-z
1/2-x,1/2+y,z
1/2+x,1/2-y,z
loop_
_atom_site_type_symbol
_atom_site_label
_atom_site_fract_x
_atom_site_fract_y
_atom_site_fract_z
Si Si1 0.211143 0.822357 0.822279
Si Si2 0.653467 0.827153 0.918855
Si Si3 0.070849 0.164351 0.582171
Si Si4 0.000000 0.165198 0.082744
O O1 0.198315 0.750000 0.750000
O O2 0.250000 0.750000 0.845519
O O3 0.181055 0.782569 0.879791
O O4 0.215169 0.000000 0.815076
O O5 0.611740 0.776248 0.897534
O O6 0.660003 0.000000 0.898761
O O7 0.660090 0.804811 0.000000
O O8 0.067978 0.159217 0.500000
O O9 0.037500 0.262097 0.613269
O O10 0.065505 0.000000 0.612773
O O11 0.000000 0.000000 0.111159
O O12 0.000000 0.173085 0.000000
#
# Coordination Sequence:
#
# PCOD8285596 Si02
#       4
#    32  32  32  16
#     4  11  22  37  56  75  98 128 164 204 245 293
#     4   9  18  33  52  75 103 132 164 204 248 293
#     4   8  14  25  41  61  89 126 162 195 235 284
#     4   9  15  21  33  57  90 125 160 199 238 277
#
# _framework density 17.915222
#
# number of rings (size 3 to 8) (size 9 to 14) (size 15 to 20)
#    0.000    2.714    0.000    5.571    0.000    4.000 
#    0.000    2.857    0.000    0.000    0.000    1.000 
#    0.000    0.000    0.000    0.000    0.000    0.000 
#
# Total GULP energy -347039.377651 kJ/mol
# GULP energy per Si atom -12394.263488 kJ/mol
# Density = 1.787445 g / cm^3
# Si number density = 17.915222 Si / 1000 Ang^3
#
#
#
# Elastic Constant Matrix: (Units=GPa)
#
#
# Indices 1 2 3 4 5 6 
#
# 1 144.8440 79.2126 48.4332 0.0000 0.0000 0.0000
# 2 79.2126 135.4215 36.0743 0.0000 0.0000 0.0000
# 3 48.4332 36.0743 35.3908 0.0000 0.0000 0.0000
# 4 0.0000 0.0000 0.0000 19.8820 0.0000 0.0000
# 5 0.0000 0.0000 0.0000 0.0000 -3.3800 0.0000
# 6 0.0000 0.0000 0.0000 0.0000 0.0000 30.9619
#
#
#
# Elastic Compliance Matrix: (Units=1/GPa)
#
#
# Indices 1 2 3 4 5 6 
#
# 1 0.014382 -0.004351 -0.015247 0.000000 0.000000 0.000000
# 2 -0.004351 0.011453 -0.005720 0.000000 0.000000 0.000000
# 3 -0.015247 -0.005720 0.054952 0.000000 0.000000 0.000000
# 4 0.000000 0.000000 0.000000 0.050297 0.000000 0.000000
# 5 0.000000 0.000000 0.000000 0.000000 -0.295854 0.000000
# 6 0.000000 0.000000 0.000000 0.000000 0.000000 0.032298
#
#
# Mechanical properties :
#
#
# Convention : Reuss Voigt Hill
#
# Bulk Modulus (GPa) = 33.16597 71.45516 52.31056
# Shear Modulus (GPa) = -69.65026 19.62186 -25.01420
#
# Velocity S-wave (km/s) = -6.24196 3.31306 -3.74070
# Velocity P-wave (km/s) = 5.77897 7.38965 3.25656
#
# Compressibility (1/GPa) = 0.03015139
#
# Stress axis : x y z
#
# Youngs Moduli (GPa) = 69.53364 87.31336 18.19773
#
# Poissons Ratio (x) = 0.37988 0.27745
# Poissons Ratio (y) = 0.30252 0.10409
# Poissons Ratio (z) = 1.06016 0.49944
#
# Static dielectric constant tensor:
#      x y z
#    x 3.574670 0.000000 0.000000 
#    y 0.000000 3.421390 0.000000 
#    z 0.000000 0.000000 2.791580 
# 
# 
# High freq. dielectric constant tensor:
#      x y z
#    x 1.711360 0.000000 0.000000 
#    y 0.000000 1.695370 0.000000 
#    z 0.000000 0.000000 1.635560 
# 
# From -- ./inp_files/34593.got.cif
#   From: 2010.03.12/outbox.cif.g09.slc.cpg/sg69_18_cif.got.tgz:34593.got - 2010.04.10 23:52:46.
