data_PCOD8285784
_publ_section_title
;
Structure prediction by ZEFSAII (Michael W. Deem and Ramdas Pophale) SiO2 
 PCOD8285784
Probable space group: F D D D
;
_chemical_formula_sum "Si O2"
_cell_formula_units_Z 160
_cell_length_a 10.770708
_cell_length_b 24.381684
_cell_length_c 33.291362
_cell_angle_alpha 90.000000
_cell_angle_beta 90.000000
_cell_angle_gamma 90.000000
_cell_volume 8742.577956
_symmetry_space_group_name_H-M "F D D D"
_symmetry_group_IT_number 70
_space_group.IT_coordinate_system_code '2'
_symmetry_cell_setting 'orthorhombic'
loop_
_space_group_symop_operation_xyz
x,y,z
1/4-x,1/4-y,z
x,1/4-y,1/4-z
1/4-x,y,1/4-z
-x,-y,-z
3/4+x,3/4+y,-z
-x,3/4+y,3/4+z
3/4+x,-y,3/4+z
x,1/2+y,1/2+z
1/4-x,3/4-y,1/2+z
x,3/4-y,3/4-z
1/4-x,1/2+y,3/4-z
-x,1/2-y,1/2-z
3/4+x,1/4+y,1/2-z
-x,1/4+y,1/4+z
3/4+x,1/2-y,1/4+z
1/2+x,y,1/2+z
3/4-x,1/4-y,1/2+z
1/2+x,1/4-y,3/4-z
3/4-x,y,3/4-z
1/2-x,-y,1/2-z
1/4+x,3/4+y,1/2-z
1/2-x,3/4+y,1/4+z
1/4+x,-y,1/4+z
1/2+x,1/2+y,z
3/4-x,3/4-y,z
1/2+x,3/4-y,1/4-z
3/4-x,1/2+y,1/4-z
1/2-x,1/2-y,-z
1/4+x,1/4+y,-z
1/2-x,1/4+y,3/4+z
1/4+x,1/2-y,3/4+z
loop_
_atom_site_type_symbol
_atom_site_label
_atom_site_fract_x
_atom_site_fract_y
_atom_site_fract_z
Si Si1 0.310521 0.998510 0.416234
Si Si2 0.212726 0.689925 0.012228
Si Si3 0.634988 0.407102 0.836474
Si Si4 0.045311 0.332327 0.018342
Si Si5 0.028473 0.582540 0.532519
O O1 0.375000 0.014996 0.375000
O O2 0.190237 0.962939 0.404290
O O3 0.400273 0.968568 0.448110
O O4 0.272921 0.055518 0.438013
O O5 0.253540 0.673277 0.057007
O O6 0.250000 0.750000 0.000000
O O7 0.280435 0.648629 0.980297
O O8 0.063892 0.687214 0.011750
O O9 0.690154 0.375000 0.875000
O O10 0.537780 0.364560 0.818285
O O11 0.178289 0.313480 0.000588
O O12 0.125000 0.625000 0.511629
#
# Coordination Sequence:
#
# PCOD8285784 Si02
#       5
#    32  32  32  32  32
#     4  11  19  32  59  85 117 148 184 244 309 357
#     4  10  20  38  61  82 114 164 203 244 295 364
#     4  10  18  33  58  89 118 147 195 245 301 356
#     4  10  21  36  57  86 112 152 205 236 301 362
#     4   9  19  32  55  85 116 147 187 242 292 354
#
# _framework density 18.301238999999999
#
# number of rings (size 3 to 8) (size 9 to 14) (size 15 to 20)
#    0.000    2.000    4.000    0.600    0.000    0.000 
#    0.000    8.000    4.400    7.200    0.000    0.000 
#    0.000    0.000    0.000    0.000    0.000    0.000 
#
# Total GULP energy -495759.665193 kJ/mol
# GULP energy per Si atom -12393.991630 kJ/mol
# Density = 1.825958 g / cm^3
# Si number density = 18.301239 Si / 1000 Ang^3
#
#
#
# Elastic Constant Matrix: (Units=GPa)
#
#
# Indices 1 2 3 4 5 6 
#
# 1 100.4451 30.9347 45.9612 0.0000 0.0000 0.0000
# 2 30.9347 121.8904 62.6140 0.0000 0.0000 0.0000
# 3 45.9612 62.6140 113.2482 0.0000 0.0000 0.0000
# 4 0.0000 0.0000 0.0000 29.9666 0.0000 0.0000
# 5 0.0000 0.0000 0.0000 0.0000 26.9665 0.0000
# 6 0.0000 0.0000 0.0000 0.0000 0.0000 17.9848
#
#
#
# Elastic Compliance Matrix: (Units=1/GPa)
#
#
# Indices 1 2 3 4 5 6 
#
# 1 0.012279 -0.000777 -0.004554 0.000000 0.000000 0.000000
# 2 -0.000777 0.011508 -0.006047 0.000000 0.000000 0.000000
# 3 -0.004554 -0.006047 0.014022 0.000000 0.000000 0.000000
# 4 0.000000 0.000000 0.000000 0.033370 0.000000 0.000000
# 5 0.000000 0.000000 0.000000 0.000000 0.037083 0.000000
# 6 0.000000 0.000000 0.000000 0.000000 0.000000 0.055603
#
#
# Mechanical properties :
#
#
# Convention : Reuss Voigt Hill
#
# Bulk Modulus (GPa) = 66.43481 68.28927 67.36204
# Shear Modulus (GPa) = 26.09102 28.05518 27.07310
#
# Velocity S-wave (km/s) = 3.77986 3.91956 3.85034
# Velocity P-wave (km/s) = 7.44509 7.60782 7.52689
#
# Compressibility (1/GPa) = 0.01505235
#
# Stress axis : x y z
#
# Youngs Moduli (GPa) = 81.44250 86.89868 71.31850
#
# Poissons Ratio (x) = 0.06753 0.32475
# Poissons Ratio (y) = 0.06329 0.43127
# Poissons Ratio (z) = 0.37085 0.52549
#
# Static dielectric constant tensor:
#      x y z
#    x 3.538080 0.000000 0.000000 
#    y 0.000000 3.533920 0.000000 
#    z 0.000000 0.000000 3.095250 
# 
# 
# High freq. dielectric constant tensor:
#      x y z
#    x 1.712990 0.000000 0.000000 
#    y 0.000000 1.710930 0.000000 
#    z 0.000000 0.000000 1.679460 
# 
# From -- ./inp_files/19500.got.cif
#   From: 2010.03.12/outbox.cif.g09.slc.cpg/sg70_10_cif.got.tgz:19500.got - 2010.04.16 13:46:32.
