data_PCOD8285587
_publ_section_title
;
Structure prediction by ZEFSAII (Michael W. Deem and Ramdas Pophale) SiO2 
 PCOD8285587
Probable space group: F M M M
;
_chemical_formula_sum "Si O2"
_cell_formula_units_Z 112
_cell_length_a 9.184150
_cell_length_b 36.195496
_cell_length_c 18.192494
_cell_angle_alpha 90.000000
_cell_angle_beta 90.000000
_cell_angle_gamma 90.000000
_cell_volume 6047.637354
_symmetry_space_group_name_H-M "F M M M"
_symmetry_group_IT_number 69
_symmetry_cell_setting 'orthorhombic'
loop_
_space_group_symop_operation_xyz
x,y,z
-x,-y,z
x,-y,-z
-x,y,-z
-x,-y,-z
x,y,-z
-x,y,z
x,-y,z
x,1/2+y,1/2+z
-x,1/2-y,1/2+z
x,1/2-y,1/2-z
-x,1/2+y,1/2-z
-x,1/2-y,1/2-z
x,1/2+y,1/2-z
-x,1/2+y,1/2+z
x,1/2-y,1/2+z
1/2+x,y,1/2+z
1/2-x,-y,1/2+z
1/2+x,-y,1/2-z
1/2-x,y,1/2-z
1/2-x,-y,1/2-z
1/2+x,y,1/2-z
1/2-x,y,1/2+z
1/2+x,-y,1/2+z
1/2+x,1/2+y,z
1/2-x,1/2-y,z
1/2+x,1/2-y,-z
1/2-x,1/2+y,-z
1/2-x,1/2-y,-z
1/2+x,1/2+y,-z
1/2-x,1/2+y,z
1/2+x,1/2-y,z
loop_
_atom_site_type_symbol
_atom_site_label
_atom_site_fract_x
_atom_site_fract_y
_atom_site_fract_z
Si Si1 0.173522 0.428951 0.827585
Si Si2 0.172310 0.500000 0.918058
Si Si3 0.159744 0.216277 0.087048
Si Si4 0.170647 0.866005 0.914571
O O1 0.250000 0.433315 0.750000
O O2 0.226083 0.463634 0.875938
O O3 0.228049 0.391996 0.866411
O O4 0.000000 0.427475 0.817933
O O5 0.000000 0.500000 0.923009
O O6 0.240232 0.500000 0.000000
O O7 0.250000 0.250000 0.122478
O O8 0.222853 0.175663 0.105220
O O9 0.000000 0.219450 0.121555
O O10 0.151412 0.220864 0.000000
O O11 0.000000 0.871356 0.895791
O O12 0.198353 0.874585 0.000000
#
# Coordination Sequence:
#
# PCOD8285587 Si02
#       4
#    32  16  32  32
#     4  11  22  36  55  77 105 140 175 212 256 307
#     4   9  19  36  57  81 106 131 166 213 258 302
#     4   8  14  25  43  69 101 134 167 208 256 303
#     4   9  18  33  52  76 107 139 173 216 262 307
#
# _framework density 18.519628999999998
#
# number of rings (size 3 to 8) (size 9 to 14) (size 15 to 20)
#    0.000    2.714    0.000    3.857    0.000    2.857 
#    0.000    5.000    0.000    6.000    0.000    6.000 
#    0.000    0.000    0.000    0.000    0.000    0.000 
#
# Total GULP energy -347075.999195 kJ/mol
# GULP energy per Si atom -12395.571400 kJ/mol
# Density = 1.847748 g / cm^3
# Si number density = 18.519629 Si / 1000 Ang^3
#
#
#
# Elastic Constant Matrix: (Units=GPa)
#
#
# Indices 1 2 3 4 5 6 
#
# 1 73.6030 60.6498 48.5678 0.0000 0.0000 0.0000
# 2 60.6498 167.6564 71.6477 0.0000 0.0000 0.0000
# 3 48.5678 71.6477 102.8633 0.0000 0.0000 0.0000
# 4 0.0000 0.0000 0.0000 1.1952 0.0000 0.0000
# 5 0.0000 0.0000 0.0000 0.0000 14.7944 0.0000
# 6 0.0000 0.0000 0.0000 0.0000 0.0000 27.6446
#
#
#
# Elastic Compliance Matrix: (Units=1/GPa)
#
#
# Indices 1 2 3 4 5 6 
#
# 1 0.022441 -0.005111 -0.007035 0.000000 0.000000 0.000000
# 2 -0.005111 0.009657 -0.004313 0.000000 0.000000 0.000000
# 3 -0.007035 -0.004313 0.016047 0.000000 0.000000 0.000000
# 4 0.000000 0.000000 0.000000 0.836672 0.000000 0.000000
# 5 0.000000 0.000000 0.000000 0.000000 0.067593 0.000000
# 6 0.000000 0.000000 0.000000 0.000000 0.000000 0.036173
#
#
# Mechanical properties :
#
#
# Convention : Reuss Voigt Hill
#
# Bulk Modulus (GPa) = 65.67825 78.42815 72.05320
# Shear Modulus (GPa) = 4.87055 19.61068 12.24062
#
# Velocity S-wave (km/s) = 1.62347 3.25762 2.57369
# Velocity P-wave (km/s) = 6.24943 7.52264 6.91540
#
# Compressibility (1/GPa) = 0.01522574
#
# Stress axis : x y z
#
# Youngs Moduli (GPa) = 44.56227 103.55504 62.31526
#
# Poissons Ratio (x) = 0.52931 0.43840
# Poissons Ratio (y) = 0.22777 0.26876
# Poissons Ratio (z) = 0.31351 0.44662
#
# Static dielectric constant tensor:
#      x y z
#    x 3.424720 0.000000 0.000000 
#    y 0.000000 3.669860 0.000000 
#    z 0.000000 0.000000 3.188100 
# 
# 
# High freq. dielectric constant tensor:
#      x y z
#    x 1.704540 0.000000 0.000000 
#    y 0.000000 1.738180 0.000000 
#    z 0.000000 0.000000 1.689840 
# 
# From -- ./inp_files/8507.got.cif
#   From: 2010.03.12/outbox.cif.g09.slc.cpg/sg69_5_cif.got.tgz:8507.got - 2010.04.10 23:52:46.
