data_PCOD8285215
_publ_section_title
;
Structure prediction by ZEFSAII (Michael W. Deem and Ramdas Pophale) SiO2 
 PCOD8285215
Probable space group: F M M M
;
_chemical_formula_sum "Si O2"
_cell_formula_units_Z 160
_cell_length_a 10.193894
_cell_length_b 28.367372
_cell_length_c 28.507339
_cell_angle_alpha 90.000000
_cell_angle_beta 90.000000
_cell_angle_gamma 90.000000
_cell_volume 8243.580770
_symmetry_space_group_name_H-M "F M M M"
_symmetry_group_IT_number 69
_symmetry_cell_setting 'orthorhombic'
loop_
_space_group_symop_operation_xyz
x,y,z
-x,-y,z
x,-y,-z
-x,y,-z
-x,-y,-z
x,y,-z
-x,y,z
x,-y,z
x,1/2+y,1/2+z
-x,1/2-y,1/2+z
x,1/2-y,1/2-z
-x,1/2+y,1/2-z
-x,1/2-y,1/2-z
x,1/2+y,1/2-z
-x,1/2+y,1/2+z
x,1/2-y,1/2+z
1/2+x,y,1/2+z
1/2-x,-y,1/2+z
1/2+x,-y,1/2-z
1/2-x,y,1/2-z
1/2-x,-y,1/2-z
1/2+x,y,1/2-z
1/2-x,y,1/2+z
1/2+x,-y,1/2+z
1/2+x,1/2+y,z
1/2-x,1/2-y,z
1/2+x,1/2-y,-z
1/2-x,1/2+y,-z
1/2-x,1/2-y,-z
1/2+x,1/2+y,-z
1/2-x,1/2+y,z
1/2+x,1/2-y,z
loop_
_atom_site_type_symbol
_atom_site_label
_atom_site_fract_x
_atom_site_fract_y
_atom_site_fract_z
Si Si1 0.354242 0.446493 0.605672
Si Si2 0.850204 0.380453 0.554530
Si Si3 0.705952 0.050777 0.696790
Si Si4 0.650717 0.707907 0.117534
Si Si5 0.642585 0.348336 0.790265
O O1 0.500000 0.425725 0.596699
O O2 0.346913 0.500000 0.587479
O O3 0.245823 0.418003 0.577534
O O4 0.329060 0.444331 0.661628
O O5 0.817575 0.376825 0.500000
O O6 0.826740 0.329170 0.576160
O O7 0.000000 0.397022 0.563499
O O8 0.750000 0.049552 0.750000
O O9 0.620998 0.098090 0.690508
O O10 0.633715 0.000000 0.686074
O O11 0.500000 0.725858 0.117831
O O12 0.750000 0.750000 0.107876
O O13 0.687774 0.684312 0.167080
O O14 0.500000 0.331987 0.771098
O O15 0.750000 0.343830 0.750000
#
# Coordination Sequence:
#
# PCOD8285215 Si02
#       5
#    32  32  32  32  32
#     4  10  21  37  59  89 124 159 197 241 286 337
#     4  10  22  42  64  85 115 153 194 242 297 358
#     4   9  18  33  54  83 120 158 192 227 275 334
#     4  10  22  41  61  86 115 147 191 243 297 352
#     4  10  21  37  57  85 120 155 195 237 281 340
#
# _framework density 19.409043
#
# number of rings (size 3 to 8) (size 9 to 14) (size 15 to 20)
#    0.000    2.200    2.000    0.000    0.000    7.200 
#    0.000   10.000    0.000    0.000    0.000    0.000 
#    0.000    0.000    0.000    0.000    0.000    0.000 
#
# Total GULP energy -495637.563483 kJ/mol
# GULP energy per Si atom -12390.939087 kJ/mol
# Density = 1.936487 g / cm^3
# Si number density = 19.409043 Si / 1000 Ang^3
#
#
#
# Elastic Constant Matrix: (Units=GPa)
#
#
# Indices 1 2 3 4 5 6 
#
# 1 135.9203 69.0192 80.7890 0.0000 0.0000 0.0000
# 2 69.0192 97.4634 56.5802 0.0000 0.0000 0.0000
# 3 80.7890 56.5802 125.0244 0.0000 0.0000 0.0000
# 4 0.0000 0.0000 0.0000 -107.4785 0.0000 0.0000
# 5 0.0000 0.0000 0.0000 0.0000 21.0744 0.0000
# 6 0.0000 0.0000 0.0000 0.0000 0.0000 28.9173
#
#
#
# Elastic Compliance Matrix: (Units=1/GPa)
#
#
# Indices 1 2 3 4 5 6 
#
# 1 0.014481 -0.006541 -0.006397 0.000000 0.000000 0.000000
# 2 -0.006541 0.016871 -0.003408 0.000000 0.000000 0.000000
# 3 -0.006397 -0.003408 0.013675 0.000000 0.000000 0.000000
# 4 0.000000 0.000000 0.000000 -0.009304 0.000000 0.000000
# 5 0.000000 0.000000 0.000000 0.000000 0.047451 0.000000
# 6 0.000000 0.000000 0.000000 0.000000 0.000000 0.034581
#
#
# Mechanical properties :
#
#
# Convention : Reuss Voigt Hill
#
# Bulk Modulus (GPa) = 81.07998 85.68722 83.38360
# Shear Modulus (GPa) = 32.34993 -1.36271 15.49361
#
# Velocity S-wave (km/s) = 4.08701 -0.83882 2.82843
# Velocity P-wave (km/s) = 8.00853 6.58071 7.32947
#
# Compressibility (1/GPa) = 0.01233350
#
# Stress axis : x y z
#
# Youngs Moduli (GPa) = 69.05452 59.27343 73.12743
#
# Poissons Ratio (x) = 0.38772 0.46783
# Poissons Ratio (y) = 0.45170 0.24923
# Poissons Ratio (z) = 0.44177 0.20202
#
# Static dielectric constant tensor:
#      x y z
#    x 3.486180 0.000000 0.000000 
#    y 0.000000 3.797310 0.000000 
#    z 0.000000 0.000000 3.529490 
# 
# 
# High freq. dielectric constant tensor:
#      x y z
#    x 1.750390 0.000000 0.000000 
#    y 0.000000 1.754260 0.000000 
#    z 0.000000 0.000000 1.754470 
# 
# From -- ./inp_files/40265.got.cif
#   From: 2010.03.12/outbox.cif.g09.slc.cpg/sg69_21_cif.got.tgz:40265.got - 2010.04.10 23:52:46.
