data_PCOD8285654
_publ_section_title
;
Structure prediction by ZEFSAII (Michael W. Deem and Ramdas Pophale) SiO2 
 PCOD8285654
Probable space group: F M M M
;
_chemical_formula_sum "Si O2"
_cell_formula_units_Z 176
_cell_length_a 26.489714
_cell_length_b 19.922879
_cell_length_c 16.930749
_cell_angle_alpha 90.000000
_cell_angle_beta 90.000000
_cell_angle_gamma 90.000000
_cell_volume 8935.225925
_symmetry_space_group_name_H-M "F M M M"
_symmetry_group_IT_number 69
_symmetry_cell_setting 'orthorhombic'
loop_
_space_group_symop_operation_xyz
x,y,z
-x,-y,z
x,-y,-z
-x,y,-z
-x,-y,-z
x,y,-z
-x,y,z
x,-y,z
x,1/2+y,1/2+z
-x,1/2-y,1/2+z
x,1/2-y,1/2-z
-x,1/2+y,1/2-z
-x,1/2-y,1/2-z
x,1/2+y,1/2-z
-x,1/2+y,1/2+z
x,1/2-y,1/2+z
1/2+x,y,1/2+z
1/2-x,-y,1/2+z
1/2+x,-y,1/2-z
1/2-x,y,1/2-z
1/2-x,-y,1/2-z
1/2+x,y,1/2-z
1/2-x,y,1/2+z
1/2+x,-y,1/2+z
1/2+x,1/2+y,z
1/2-x,1/2-y,z
1/2+x,1/2-y,-z
1/2-x,1/2+y,-z
1/2-x,1/2-y,-z
1/2+x,1/2+y,-z
1/2-x,1/2+y,z
1/2+x,1/2-y,z
loop_
_atom_site_type_symbol
_atom_site_label
_atom_site_fract_x
_atom_site_fract_y
_atom_site_fract_z
Si Si1 0.859146 0.368929 0.806765
Si Si2 0.691980 0.260218 0.411885
Si Si3 0.291430 0.500000 0.681728
Si Si4 0.942465 0.423601 0.089760
Si Si5 0.558998 0.079858 0.500000
Si Si6 0.136117 0.127618 0.127063
Si Si7 0.802150 0.000000 0.090720
O O1 0.829206 0.306906 0.843136
O O2 0.825604 0.434836 0.814467
O O3 0.910604 0.375428 0.855087
O O4 0.876199 0.353730 0.717434
O O5 0.686705 0.292291 0.500000
O O6 0.750000 0.250000 0.390157
O O7 0.663511 0.189430 0.414387
O O8 0.250000 0.500000 0.750000
O O9 0.258587 0.500000 0.600917
O O10 0.923623 0.500000 0.098367
O O11 0.000000 0.417697 0.117008
O O12 0.936016 0.399291 0.000000
O O13 0.500000 0.100582 0.500000
O O14 0.585311 0.109412 0.578823
O O15 0.565356 0.000000 0.500000
O O16 0.174328 0.065348 0.131006
O O17 0.817435 0.000000 0.000000
#
# Coordination Sequence:
#
# PCOD8285654 Si02
#       7
#    32  32  16  32  16  32  16
#     4  12  24  38  65  97 131 167 220 264 323 393
#     4  11  25  43  64  93 133 179 220 261 320 395
#     4  12  24  38  57  96 134 170 207 267 316 369
#     4   9  19  38  62  88 124 164 204 259 319 376
#     4  11  24  44  73 102 126 165 224 281 339 401
#     4  12  22  42  65  91 129 169 211 275 331 381
#     4  12  22  38  64  87 122 175 218 256 318 390
#
# _framework density 19.697320000000001
#
# number of rings (size 3 to 8) (size 9 to 14) (size 15 to 20)
#    0.000    0.818    5.455    2.727    0.000    4.364 
#    0.000    2.727    0.000    2.182    0.000    0.000 
#    0.000    0.000    0.000    0.000    0.000    0.000 
#
# Total GULP energy -545706.922912 kJ/mol
# GULP energy per Si atom -12402.430066 kJ/mol
# Density = 1.965249 g / cm^3
# Si number density = 19.697320 Si / 1000 Ang^3
#
#
#
# Elastic Constant Matrix: (Units=GPa)
#
#
# Indices 1 2 3 4 5 6 
#
# 1 124.2667 41.3889 61.8964 0.0000 0.0000 0.0000
# 2 41.3889 96.4138 37.2926 0.0000 0.0000 0.0000
# 3 61.8964 37.2926 145.4524 0.0000 0.0000 0.0000
# 4 0.0000 0.0000 0.0000 30.3207 0.0000 0.0000
# 5 0.0000 0.0000 0.0000 0.0000 31.2755 0.0000
# 6 0.0000 0.0000 0.0000 0.0000 0.0000 32.6754
#
#
#
# Elastic Compliance Matrix: (Units=1/GPa)
#
#
# Indices 1 2 3 4 5 6 
#
# 1 0.011058 -0.003249 -0.003873 0.000000 0.000000 0.000000
# 2 -0.003249 0.012468 -0.001814 0.000000 0.000000 0.000000
# 3 -0.003873 -0.001814 0.008988 0.000000 0.000000 0.000000
# 4 0.000000 0.000000 0.000000 0.032981 0.000000 0.000000
# 5 0.000000 0.000000 0.000000 0.000000 0.031974 0.000000
# 6 0.000000 0.000000 0.000000 0.000000 0.000000 0.030604
#
#
# Mechanical properties :
#
#
# Convention : Reuss Voigt Hill
#
# Bulk Modulus (GPa) = 68.29228 71.92098 70.10663
# Shear Modulus (GPa) = 33.15054 33.89131 33.52092
#
# Velocity S-wave (km/s) = 4.10689 4.15252 4.12976
# Velocity P-wave (km/s) = 7.56537 7.71904 7.64259
#
# Compressibility (1/GPa) = 0.01464294
#
# Stress axis : x y z
#
# Youngs Moduli (GPa) = 90.42890 80.20214 111.25627
#
# Poissons Ratio (x) = 0.26059 0.43087
# Poissons Ratio (y) = 0.29382 0.20183
# Poissons Ratio (z) = 0.35021 0.14550
#
# Static dielectric constant tensor:
#      x y z
#    x 3.726800 0.000000 0.000000 
#    y 0.000000 3.501050 0.000000 
#    z 0.000000 0.000000 3.741120 
# 
# 
# High freq. dielectric constant tensor:
#      x y z
#    x 1.766290 0.000000 0.000000 
#    y 0.000000 1.761270 0.000000 
#    z 0.000000 0.000000 1.781790 
# 
# From -- ./inp_files/23317.got.cif
#   From: 2010.03.12/outbox.cif.g09.slc.cpg/sg69_12_cif.got.tgz:23317.got - 2010.04.10 23:52:46.
