data_PCOD8285790
_publ_section_title
;
Structure prediction by ZEFSAII (Michael W. Deem and Ramdas Pophale) SiO2 
 PCOD8285790
Probable space group: F D D D
;
_chemical_formula_sum "Si O2"
_cell_formula_units_Z 232
_cell_length_a 23.673062
_cell_length_b 30.914331
_cell_length_c 15.885739
_cell_angle_alpha 90.000000
_cell_angle_beta 90.000000
_cell_angle_gamma 90.000000
_cell_volume 11625.769578
_symmetry_space_group_name_H-M "F D D D"
_symmetry_group_IT_number 70
_space_group.IT_coordinate_system_code '2'
_symmetry_cell_setting 'orthorhombic'
loop_
_space_group_symop_operation_xyz
x,y,z
1/4-x,1/4-y,z
x,1/4-y,1/4-z
1/4-x,y,1/4-z
-x,-y,-z
3/4+x,3/4+y,-z
-x,3/4+y,3/4+z
3/4+x,-y,3/4+z
x,1/2+y,1/2+z
1/4-x,3/4-y,1/2+z
x,3/4-y,3/4-z
1/4-x,1/2+y,3/4-z
-x,1/2-y,1/2-z
3/4+x,1/4+y,1/2-z
-x,1/4+y,1/4+z
3/4+x,1/2-y,1/4+z
1/2+x,y,1/2+z
3/4-x,1/4-y,1/2+z
1/2+x,1/4-y,3/4-z
3/4-x,y,3/4-z
1/2-x,-y,1/2-z
1/4+x,3/4+y,1/2-z
1/2-x,3/4+y,1/4+z
1/4+x,-y,1/4+z
1/2+x,1/2+y,z
3/4-x,3/4-y,z
1/2+x,3/4-y,1/4-z
3/4-x,1/2+y,1/4-z
1/2-x,1/2-y,-z
1/4+x,1/4+y,-z
1/2-x,1/4+y,3/4+z
1/4+x,1/2-y,3/4+z
loop_
_atom_site_type_symbol
_atom_site_label
_atom_site_fract_x
_atom_site_fract_y
_atom_site_fract_z
Si Si1 0.229920 0.537311 0.812553
Si Si2 0.219745 0.447289 0.505883
Si Si3 0.709269 0.698407 0.590028
Si Si4 0.869048 0.014488 0.658523
Si Si5 0.393142 0.123390 0.962821
Si Si6 0.568791 0.967775 0.009075
Si Si7 0.625000 0.125000 0.125000
Si Si8 0.458888 0.157230 0.691055
O O1 0.250000 0.500000 0.750000
O O2 0.162019 0.531588 0.823394
O O3 0.246666 0.582219 0.766166
O O4 0.258558 0.535170 0.904762
O O5 0.268404 0.447848 0.435770
O O6 0.164314 0.475563 0.481846
O O7 0.200295 0.397205 0.507863
O O8 0.679954 0.745183 0.579881
O O9 0.757919 0.698749 0.519312
O O10 0.666267 0.657947 0.572898
O O11 0.900753 0.011659 0.570991
O O12 0.817945 0.049235 0.651979
O O13 0.375000 0.145131 0.875000
O O14 0.400180 0.072591 0.950407
O O15 0.343720 0.128802 0.029161
O O16 0.490096 0.125000 0.625000
#
# Coordination Sequence:
#
# PCOD8285790 Si02
#       8
#    32  32  32  32  32  32   8  32
#     4  10  21  35  56  89 119 156 204 254 307 367
#     4  10  21  39  59  91 122 159 205 255 309 367
#     4  10  24  40  62  87 125 163 199 245 304 380
#     4   9  20  34  62  87 122 155 200 256 305 362
#     4  11  20  32  61  89 119 150 199 258 305 356
#     4  10  21  41  59  92 123 158 204 249 306 363
#     4  12  24  40  60  92 120 168 202 236 316 382
#     4  10  18  34  54  87 120 156 195 252 314 362
#
# _framework density 19.955667999999999
#
# number of rings (size 3 to 8) (size 9 to 14) (size 15 to 20)
#    0.000    1.931    2.759    0.828    2.897    0.000 
#    0.000    0.000    0.000    0.000    3.586    0.966 
#    0.000    0.000    0.000    0.000    0.000    0.000 
#
# Total GULP energy -718618.337415 kJ/mol
# GULP energy per Si atom -12389.971335 kJ/mol
# Density = 1.991025 g / cm^3
# Si number density = 19.955668 Si / 1000 Ang^3
#
#
#
# Elastic Constant Matrix: (Units=GPa)
#
#
# Indices 1 2 3 4 5 6 
#
# 1 96.7533 55.4388 38.3780 0.0000 0.0000 0.0000
# 2 55.4388 118.1512 51.3375 0.0000 0.0000 0.0000
# 3 38.3780 51.3375 118.3471 0.0000 0.0000 0.0000
# 4 0.0000 0.0000 0.0000 31.7277 0.0000 0.0000
# 5 0.0000 0.0000 0.0000 0.0000 24.1187 0.0000
# 6 0.0000 0.0000 0.0000 0.0000 0.0000 19.4981
#
#
#
# Elastic Compliance Matrix: (Units=1/GPa)
#
#
# Indices 1 2 3 4 5 6 
#
# 1 0.014574 -0.005896 -0.002168 0.000000 0.000000 0.000000
# 2 -0.005896 0.012815 -0.003647 0.000000 0.000000 0.000000
# 3 -0.002168 -0.003647 0.010735 0.000000 0.000000 0.000000
# 4 0.000000 0.000000 0.000000 0.031518 0.000000 0.000000
# 5 0.000000 0.000000 0.000000 0.000000 0.041462 0.000000
# 6 0.000000 0.000000 0.000000 0.000000 0.000000 0.051287
#
#
# Mechanical properties :
#
#
# Convention : Reuss Voigt Hill
#
# Bulk Modulus (GPa) = 68.02347 69.28448 68.65398
# Shear Modulus (GPa) = 26.21719 27.60872 26.91295
#
# Velocity S-wave (km/s) = 3.62853 3.72358 3.67636
# Velocity P-wave (km/s) = 7.19140 7.29941 7.24561
#
# Compressibility (1/GPa) = 0.01470081
#
# Stress axis : x y z
#
# Youngs Moduli (GPa) = 68.61424 78.03358 93.15415
#
# Poissons Ratio (x) = 0.46011 0.20200
# Poissons Ratio (y) = 0.40457 0.33972
# Poissons Ratio (z) = 0.14879 0.28458
#
# Static dielectric constant tensor:
#      x y z
#    x 3.888330 0.000000 0.000000 
#    y 0.000000 3.751900 0.000000 
#    z 0.000000 0.000000 3.590650 
# 
# 
# High freq. dielectric constant tensor:
#      x y z
#    x 1.769580 0.000000 0.000000 
#    y 0.000000 1.767660 0.000000 
#    z 0.000000 0.000000 1.778010 
# 
# From -- ./inp_files/37877.got.cif
#   From: 2010.03.12/outbox.cif.g09.slc.cpg/sg70_19_cif.got.tgz:37877.got - 2010.04.16 13:46:32.
