data_PCOD8285997
_publ_section_title
;
Structure prediction by ZEFSAII (Michael W. Deem and Ramdas Pophale) SiO2 
 PCOD8285997
Probable space group: F D D D
;
_chemical_formula_sum "Si O2"
_cell_formula_units_Z 240
_cell_length_a 21.790167
_cell_length_b 27.372296
_cell_length_c 20.941879
_cell_angle_alpha 90.000000
_cell_angle_beta 90.000000
_cell_angle_gamma 90.000000
_cell_volume 12490.718831
_symmetry_space_group_name_H-M "F D D D"
_symmetry_group_IT_number 70
_space_group.IT_coordinate_system_code '2'
_symmetry_cell_setting 'orthorhombic'
loop_
_space_group_symop_operation_xyz
x,y,z
1/4-x,1/4-y,z
x,1/4-y,1/4-z
1/4-x,y,1/4-z
-x,-y,-z
3/4+x,3/4+y,-z
-x,3/4+y,3/4+z
3/4+x,-y,3/4+z
x,1/2+y,1/2+z
1/4-x,3/4-y,1/2+z
x,3/4-y,3/4-z
1/4-x,1/2+y,3/4-z
-x,1/2-y,1/2-z
3/4+x,1/4+y,1/2-z
-x,1/4+y,1/4+z
3/4+x,1/2-y,1/4+z
1/2+x,y,1/2+z
3/4-x,1/4-y,1/2+z
1/2+x,1/4-y,3/4-z
3/4-x,y,3/4-z
1/2-x,-y,1/2-z
1/4+x,3/4+y,1/2-z
1/2-x,3/4+y,1/4+z
1/4+x,-y,1/4+z
1/2+x,1/2+y,z
3/4-x,3/4-y,z
1/2+x,3/4-y,1/4-z
3/4-x,1/2+y,1/4-z
1/2-x,1/2-y,-z
1/4+x,1/4+y,-z
1/2-x,1/4+y,3/4+z
1/4+x,1/2-y,3/4+z
loop_
_atom_site_type_symbol
_atom_site_label
_atom_site_fract_x
_atom_site_fract_y
_atom_site_fract_z
Si Si1 0.666543 0.335833 0.687613
Si Si2 0.434112 0.968379 0.143721
Si Si3 0.375000 0.375000 0.049317
Si Si4 0.217099 0.137486 0.191766
Si Si5 0.513048 0.747706 0.020159
Si Si6 0.062767 0.442557 0.084773
Si Si7 0.626812 0.768778 0.774732
Si Si8 0.647608 0.871921 0.945677
O O1 0.625000 0.331088 0.625000
O O2 0.714705 0.291452 0.684195
O O3 0.701673 0.387705 0.689591
O O4 0.630334 0.332355 0.755384
O O5 0.391624 0.920905 0.155956
O O6 0.444390 0.999984 0.207177
O O7 0.503209 0.955714 0.124465
O O8 0.399237 0.000603 0.091753
O O9 0.317915 0.364520 0.002310
O O10 0.182594 0.125000 0.125000
O O11 0.226157 0.195770 0.196098
O O12 0.281075 0.108209 0.189127
O O13 0.440638 0.758146 0.007003
O O14 0.125000 0.441562 0.125000
O O15 0.073946 0.484215 0.029864
O O16 0.642648 0.825568 0.772473
O O17 0.616357 0.875000 0.875000
#
# Coordination Sequence:
#
# PCOD8285997 Si02
#       8
#    32  32  16  32  32  32  32  32
#     4  10  22  33  57  84 116 146 193 246 293 338
#     4  11  22  36  58  83 116 147 192 239 296 345
#     4  10  23  32  54  84 113 144 184 236 288 334
#     4   9  19  36  57  76 112 159 192 224 276 352
#     4  10  21  36  54  86 115 148 191 243 286 341
#     4  10  20  39  60  81 108 154 191 234 291 362
#     4  10  20  35  58  82 109 146 193 239 287 351
#     4   9  18  36  57  79 108 152 197 229 286 351
#
# _framework density 19.214267
#
# number of rings (size 3 to 8) (size 9 to 14) (size 15 to 20)
#    0.000    2.133    1.333    1.400    7.467    2.133 
#    0.000    0.000    0.000    8.800    0.000    0.467 
#    0.000    0.000    0.000    0.000    0.000    0.000 
#
# Total GULP energy -743445.304004 kJ/mol
# GULP energy per Si atom -12390.755067 kJ/mol
# Density = 1.917053 g / cm^3
# Si number density = 19.214267 Si / 1000 Ang^3
#
#
#
# Elastic Constant Matrix: (Units=GPa)
#
#
# Indices 1 2 3 4 5 6 
#
# 1 75.0355 37.4304 19.7389 0.0000 0.0000 0.0000
# 2 37.4304 61.5499 31.1454 0.0000 0.0000 0.0000
# 3 19.7389 31.1454 103.9404 0.0000 0.0000 0.0000
# 4 0.0000 0.0000 0.0000 32.2347 0.0000 0.0000
# 5 0.0000 0.0000 0.0000 0.0000 34.0096 0.0000
# 6 0.0000 0.0000 0.0000 0.0000 0.0000 17.9021
#
#
#
# Elastic Compliance Matrix: (Units=1/GPa)
#
#
# Indices 1 2 3 4 5 6 
#
# 1 0.019133 -0.011548 -0.000173 0.000000 0.000000 0.000000
# 2 -0.011548 0.026120 -0.005634 0.000000 0.000000 0.000000
# 3 -0.000173 -0.005634 0.011342 0.000000 0.000000 0.000000
# 4 0.000000 0.000000 0.000000 0.031022 0.000000 0.000000
# 5 0.000000 0.000000 0.000000 0.000000 0.029404 0.000000
# 6 0.000000 0.000000 0.000000 0.000000 0.000000 0.055859
#
#
# Mechanical properties :
#
#
# Convention : Reuss Voigt Hill
#
# Bulk Modulus (GPa) = 45.69205 46.35057 46.02131
# Shear Modulus (GPa) = 23.26822 26.97669 25.12245
#
# Velocity S-wave (km/s) = 3.48370 3.75105 3.61985
# Velocity P-wave (km/s) = 6.32562 6.55255 6.44008
#
# Compressibility (1/GPa) = 0.02188565
#
# Stress axis : x y z
#
# Youngs Moduli (GPa) = 52.26570 38.28437 88.16807
#
# Poissons Ratio (x) = 0.44210 0.01527
# Poissons Ratio (y) = 0.60355 0.49673
# Poissons Ratio (z) = 0.00905 0.21569
#
# Static dielectric constant tensor:
#      x y z
#    x 3.578090 0.000000 0.000000 
#    y 0.000000 3.282150 0.000000 
#    z 0.000000 0.000000 3.756360 
# 
# 
# High freq. dielectric constant tensor:
#      x y z
#    x 1.744310 0.000000 0.000000 
#    y 0.000000 1.723550 0.000000 
#    z 0.000000 0.000000 1.761380 
# 
# From -- ./inp_files/46158.got.cif
#   From: 2010.03.12/outbox.cif.g09.slc.cpg/sg70_24_cif.got.tgz:46158.got - 2010.04.16 13:46:32.
