data_PCOD8285355
_publ_section_title
;
Structure prediction by ZEFSAII (Michael W. Deem and Ramdas Pophale) SiO2 
 PCOD8285355
Probable space group: F M M M
;
_chemical_formula_sum "Si O2"
_cell_formula_units_Z 136
_cell_length_a 14.469085
_cell_length_b 23.004875
_cell_length_c 23.004873
_cell_angle_alpha 90.000000
_cell_angle_beta 90.000000
_cell_angle_gamma 90.000000
_cell_volume 7657.390335
_symmetry_space_group_name_H-M "F M M M"
_symmetry_group_IT_number 69
_symmetry_cell_setting 'orthorhombic'
loop_
_space_group_symop_operation_xyz
x,y,z
-x,-y,z
x,-y,-z
-x,y,-z
-x,-y,-z
x,y,-z
-x,y,z
x,-y,z
x,1/2+y,1/2+z
-x,1/2-y,1/2+z
x,1/2-y,1/2-z
-x,1/2+y,1/2-z
-x,1/2-y,1/2-z
x,1/2+y,1/2-z
-x,1/2+y,1/2+z
x,1/2-y,1/2+z
1/2+x,y,1/2+z
1/2-x,-y,1/2+z
1/2+x,-y,1/2-z
1/2-x,y,1/2-z
1/2-x,-y,1/2-z
1/2+x,y,1/2-z
1/2-x,y,1/2+z
1/2+x,-y,1/2+z
1/2+x,1/2+y,z
1/2-x,1/2-y,z
1/2+x,1/2-y,-z
1/2-x,1/2+y,-z
1/2-x,1/2-y,-z
1/2+x,1/2+y,-z
1/2-x,1/2+y,z
1/2+x,1/2-y,z
loop_
_atom_site_type_symbol
_atom_site_label
_atom_site_fract_x
_atom_site_fract_y
_atom_site_fract_z
Si Si1 0.250000 0.250000 0.750000
Si Si2 0.000000 0.336885 0.433191
Si Si3 0.142713 0.565251 0.760986
Si Si4 0.000000 0.066809 0.836885
Si Si5 0.357287 0.239014 0.934749
Si Si6 0.602595 0.822506 0.822506
O O1 0.316350 0.210869 0.789131
O O2 0.000000 0.393843 0.393843
O O3 0.090582 0.298798 0.418808
O O4 0.000000 0.357592 0.500000
O O5 0.116076 0.500000 0.780766
O O6 0.250000 0.571762 0.750000
O O7 0.090582 0.581192 0.701202
O O8 0.111976 0.608677 0.811878
O O9 0.000000 0.000000 0.857592
O O10 0.250000 0.250000 0.928238
O O11 0.388024 0.188122 0.891323
O O12 0.383924 0.219234 0.000000
O O13 0.500000 0.802014 0.802014
#
# Coordination Sequence:
#
# PCOD8285355 Si02
#       6
#     8  16  32  16  32  32
#     4  12  26  36  48  90 120 148 186 228 284 346
#     4  10  22  38  59  83 112 148 190 234 281 335
#     4  10  22  39  57  80 112 151 188 229 282 337
#     4  10  22  38  59  83 112 148 190 234 281 335
#     4  10  22  39  57  80 112 151 188 229 282 337
#     4  12  23  35  59  85 115 150 185 237 282 340
#
# _framework density 17.760619999999999
#
# number of rings (size 3 to 8) (size 9 to 14) (size 15 to 20)
#    0.000    1.412    4.706    0.353    6.588    0.235 
#    0.000    0.000    0.000    0.706    0.000    1.647 
#    0.000    0.000    0.000    0.000    0.000    0.000 
#
# Total GULP energy -421564.585687 kJ/mol
# GULP energy per Si atom -12398.958403 kJ/mol
# Density = 1.772020 g / cm^3
# Si number density = 17.760620 Si / 1000 Ang^3
#
#
#
# Elastic Constant Matrix: (Units=GPa)
#
#
# Indices 1 2 3 4 5 6 
#
# 1 144.9977 44.7158 44.7159 0.0000 0.0000 0.0000
# 2 44.7158 126.3007 91.9110 0.0000 0.0000 0.0000
# 3 44.7159 91.9110 126.3008 0.0000 0.0000 0.0000
# 4 0.0000 0.0000 0.0000 38.5737 0.0000 0.0000
# 5 0.0000 0.0000 0.0000 0.0000 17.4672 0.0000
# 6 0.0000 0.0000 0.0000 0.0000 0.0000 17.4673
#
#
#
# Elastic Compliance Matrix: (Units=1/GPa)
#
#
# Indices 1 2 3 4 5 6 
#
# 1 0.007894 -0.001618 -0.001618 0.000000 0.000000 0.000000
# 2 -0.001618 0.017162 -0.011916 0.000000 0.000000 0.000000
# 3 -0.001618 -0.011916 0.017162 0.000000 0.000000 0.000000
# 4 0.000000 0.000000 0.000000 0.025924 0.000000 0.000000
# 5 0.000000 0.000000 0.000000 0.000000 0.057250 0.000000
# 6 0.000000 0.000000 0.000000 0.000000 0.000000 0.057250
#
#
# Mechanical properties :
#
#
# Convention : Reuss Voigt Hill
#
# Bulk Modulus (GPa) = 83.92809 84.47608 84.20208
# Shear Modulus (GPa) = 23.05016 29.11874 26.08445
#
# Velocity S-wave (km/s) = 3.60644 4.05348 3.83648
# Velocity P-wave (km/s) = 8.04361 8.34114 8.19372
#
# Compressibility (1/GPa) = 0.01191496
#
# Stress axis : x y z
#
# Youngs Moduli (GPa) = 126.67140 58.26793 58.26795
#
# Poissons Ratio (x) = 0.09426 0.09426
# Poissons Ratio (y) = 0.20492 0.69434
# Poissons Ratio (z) = 0.20492 0.69434
#
# Static dielectric constant tensor:
#      x y z
#    x 3.582500 0.000000 0.000000 
#    y 0.000000 3.299760 0.000000 
#    z 0.000000 0.000000 3.299760 
# 
# 
# High freq. dielectric constant tensor:
#      x y z
#    x 1.718310 0.000000 0.000000 
#    y 0.000000 1.673820 0.000000 
#    z 0.000000 0.000000 1.673820 
# 
# From -- ./inp_files/29902.got.cif
#   From: 2010.03.12/outbox.cif.g09.slc.cpg/sg69_15_cif.got.tgz:29902.got - 2010.04.10 23:52:46.
