data_PCOD8285945
_publ_section_title
;
Structure prediction by ZEFSAII (Michael W. Deem and Ramdas Pophale) SiO2 
 PCOD8285945
Probable space group: F D D D
;
_chemical_formula_sum "Si O2"
_cell_formula_units_Z 168
_cell_length_a 25.339770
_cell_length_b 13.100828
_cell_length_c 26.368665
_cell_angle_alpha 90.000000
_cell_angle_beta 90.000000
_cell_angle_gamma 90.000000
_cell_volume 8753.657622
_symmetry_space_group_name_H-M "F D D D"
_symmetry_group_IT_number 70
_space_group.IT_coordinate_system_code '2'
_symmetry_cell_setting 'orthorhombic'
loop_
_space_group_symop_operation_xyz
x,y,z
1/4-x,1/4-y,z
x,1/4-y,1/4-z
1/4-x,y,1/4-z
-x,-y,-z
3/4+x,3/4+y,-z
-x,3/4+y,3/4+z
3/4+x,-y,3/4+z
x,1/2+y,1/2+z
1/4-x,3/4-y,1/2+z
x,3/4-y,3/4-z
1/4-x,1/2+y,3/4-z
-x,1/2-y,1/2-z
3/4+x,1/4+y,1/2-z
-x,1/4+y,1/4+z
3/4+x,1/2-y,1/4+z
1/2+x,y,1/2+z
3/4-x,1/4-y,1/2+z
1/2+x,1/4-y,3/4-z
3/4-x,y,3/4-z
1/2-x,-y,1/2-z
1/4+x,3/4+y,1/2-z
1/2-x,3/4+y,1/4+z
1/4+x,-y,1/4+z
1/2+x,1/2+y,z
3/4-x,3/4-y,z
1/2+x,3/4-y,1/4-z
3/4-x,1/2+y,1/4-z
1/2-x,1/2-y,-z
1/4+x,1/4+y,-z
1/2-x,1/4+y,3/4+z
1/4+x,1/2-y,3/4+z
loop_
_atom_site_type_symbol
_atom_site_label
_atom_site_fract_x
_atom_site_fract_y
_atom_site_fract_z
Si Si1 0.950512 0.125000 0.125000
Si Si2 0.980595 0.634693 0.255123
Si Si3 0.487479 0.905600 0.634824
Si Si4 0.448929 0.732155 0.941822
Si Si5 0.133123 0.412580 0.971674
Si Si6 0.125000 0.625000 0.125000
Si Si7 0.625000 0.125000 0.325634
O O1 0.988468 0.223117 0.125535
O O2 0.912783 0.113025 0.076031
O O3 0.923832 0.612423 0.230175
O O4 0.000000 0.750000 0.250000
O O5 0.978619 0.611293 0.314648
O O6 0.019834 0.558206 0.227983
O O7 0.512309 0.838408 0.590622
O O8 0.426644 0.870670 0.639299
O O9 0.411223 0.800867 0.907775
O O10 0.416608 0.652641 0.976687
O O11 0.124967 0.531621 0.962427
#
# Coordination Sequence:
#
# PCOD8285945 Si02
#       7
#    16  32  32  32  32   8  16
#     4  10  24  45  62  89 130 173 217 278 304 392
#     4  12  22  38  64  96 129 168 210 272 338 388
#     4  11  24  41  65  91 132 170 221 268 326 386
#     4  12  24  41  65  99 129 174 209 268 337 391
#     4  11  22  39  64  90 129 167 219 263 330 382
#     4  12  26  38  64 110 140 156 210 278 336 410
#     4  10  19  40  60  93 128 165 208 279 314 384
#
# _framework density 19.191977000000001
#
# number of rings (size 3 to 8) (size 9 to 14) (size 15 to 20)
#    0.000    0.762    5.714    4.000    5.333    0.762 
#    0.000    0.000    0.000    4.000    0.000    0.000 
#    0.000    0.000    0.000    0.000    0.000    0.000 
#
# Total GULP energy -520822.355821 kJ/mol
# GULP energy per Si atom -12400.532281 kJ/mol
# Density = 1.914830 g / cm^3
# Si number density = 19.191977 Si / 1000 Ang^3
#
#
#
# Elastic Constant Matrix: (Units=GPa)
#
#
# Indices 1 2 3 4 5 6 
#
# 1 82.9367 10.9208 19.9403 0.0000 0.0000 0.0000
# 2 10.9208 71.1465 15.9820 0.0000 0.0000 0.0000
# 3 19.9403 15.9820 92.1988 0.0000 0.0000 0.0000
# 4 0.0000 0.0000 0.0000 39.9976 0.0000 0.0000
# 5 0.0000 0.0000 0.0000 0.0000 44.5052 0.0000
# 6 0.0000 0.0000 0.0000 0.0000 0.0000 32.4272
#
#
#
# Elastic Compliance Matrix: (Units=1/GPa)
#
#
# Indices 1 2 3 4 5 6 
#
# 1 0.012852 -0.001403 -0.002536 0.000000 0.000000 0.000000
# 2 -0.001403 0.014778 -0.002258 0.000000 0.000000 0.000000
# 3 -0.002536 -0.002258 0.011786 0.000000 0.000000 0.000000
# 4 0.000000 0.000000 0.000000 0.025002 0.000000 0.000000
# 5 0.000000 0.000000 0.000000 0.000000 0.022469 0.000000
# 6 0.000000 0.000000 0.000000 0.000000 0.000000 0.030838
#
#
# Mechanical properties :
#
#
# Convention : Reuss Voigt Hill
#
# Bulk Modulus (GPa) = 37.00823 37.77425 37.39124
# Shear Modulus (GPa) = 35.93825 36.68192 36.31009
#
# Velocity S-wave (km/s) = 4.33201 4.37660 4.35436
# Velocity P-wave (km/s) = 6.65934 6.72790 6.69370
#
# Compressibility (1/GPa) = 0.02702102
#
# Stress axis : x y z
#
# Youngs Moduli (GPa) = 77.80928 67.66749 84.84548
#
# Poissons Ratio (x) = 0.09494 0.21520
# Poissons Ratio (y) = 0.10917 0.19160
# Poissons Ratio (z) = 0.19735 0.15281
#
# Static dielectric constant tensor:
#      x y z
#    x 3.888770 0.000000 0.000000 
#    y 0.000000 3.463540 0.000000 
#    z 0.000000 0.000000 3.629840 
# 
# 
# High freq. dielectric constant tensor:
#      x y z
#    x 1.754510 0.000000 0.000000 
#    y 0.000000 1.735280 0.000000 
#    z 0.000000 0.000000 1.759230 
# 
# From -- ./inp_files/28792.got.cif
#   From: 2010.03.12/outbox.cif.g09.slc.cpg/sg70_15_cif.got.tgz:28792.got - 2010.04.16 13:46:32.
