data_PCOD8285819
_publ_section_title
;
Structure prediction by ZEFSAII (Michael W. Deem and Ramdas Pophale) SiO2 
 PCOD8285819
Probable space group: F D D D
;
_chemical_formula_sum "Si O2"
_cell_formula_units_Z 120
_cell_length_a 10.216006
_cell_length_b 29.565287
_cell_length_c 19.967506
_cell_angle_alpha 90.000000
_cell_angle_beta 90.000000
_cell_angle_gamma 90.000000
_cell_volume 6030.968528
_symmetry_space_group_name_H-M "F D D D"
_symmetry_group_IT_number 70
_space_group.IT_coordinate_system_code '2'
_symmetry_cell_setting 'orthorhombic'
loop_
_space_group_symop_operation_xyz
x,y,z
1/4-x,1/4-y,z
x,1/4-y,1/4-z
1/4-x,y,1/4-z
-x,-y,-z
3/4+x,3/4+y,-z
-x,3/4+y,3/4+z
3/4+x,-y,3/4+z
x,1/2+y,1/2+z
1/4-x,3/4-y,1/2+z
x,3/4-y,3/4-z
1/4-x,1/2+y,3/4-z
-x,1/2-y,1/2-z
3/4+x,1/4+y,1/2-z
-x,1/4+y,1/4+z
3/4+x,1/2-y,1/4+z
1/2+x,y,1/2+z
3/4-x,1/4-y,1/2+z
1/2+x,1/4-y,3/4-z
3/4-x,y,3/4-z
1/2-x,-y,1/2-z
1/4+x,3/4+y,1/2-z
1/2-x,3/4+y,1/4+z
1/4+x,-y,1/4+z
1/2+x,1/2+y,z
3/4-x,3/4-y,z
1/2+x,3/4-y,1/4-z
3/4-x,1/2+y,1/4-z
1/2-x,1/2-y,-z
1/4+x,1/4+y,-z
1/2-x,1/4+y,3/4+z
1/4+x,1/2-y,3/4+z
loop_
_atom_site_type_symbol
_atom_site_label
_atom_site_fract_x
_atom_site_fract_y
_atom_site_fract_z
Si Si1 0.005640 0.399029 0.706283
Si Si2 0.461843 0.556743 0.043642
Si Si3 0.150347 0.036103 0.341921
Si Si4 0.375000 0.875000 0.375000
Si Si5 0.625000 0.925832 0.125000
O O1 0.875000 0.375000 0.733574
O O2 0.980309 0.431286 0.641719
O O3 0.070346 0.429262 0.763852
O O4 0.099611 0.357308 0.687526
O O5 0.439724 0.516706 0.098439
O O6 0.525157 0.597532 0.081155
O O7 0.564309 0.545926 0.984831
O O8 0.996404 0.042320 0.355726
#
# Coordination Sequence:
#
# PCOD8285819 Si02
#       5
#    32  32  32   8  16
#     4  10  20  39  65  91 118 162 209 256 305 366
#     4  11  23  41  60  90 126 159 207 255 317 375
#     4  10  22  37  66  88 121 161 207 261 305 368
#     4  12  28  38  62  92 120 172 192 266 320 376
#     4  10  18  37  60  93 112 155 208 253 300 366
#
# _framework density 19.897300000000001
#
# number of rings (size 3 to 8) (size 9 to 14) (size 15 to 20)
#    0.000    1.600    2.667    1.600    9.333    0.000 
#    4.800    2.667    0.000    0.000    0.000    0.000 
#    0.000    0.000    0.000    0.000    0.000    0.000 
#
# Total GULP energy -371851.387747 kJ/mol
# GULP energy per Si atom -12395.046258 kJ/mol
# Density = 1.985201 g / cm^3
# Si number density = 19.897300 Si / 1000 Ang^3
#
#
#
# Elastic Constant Matrix: (Units=GPa)
#
#
# Indices 1 2 3 4 5 6 
#
# 1 116.8199 57.4252 37.0077 0.0000 0.0000 0.0000
# 2 57.4252 131.4136 41.3948 0.0000 0.0000 0.0000
# 3 37.0077 41.3948 54.1164 0.0000 0.0000 0.0000
# 4 0.0000 0.0000 0.0000 18.8958 0.0000 0.0000
# 5 0.0000 0.0000 0.0000 0.0000 18.8380 0.0000
# 6 0.0000 0.0000 0.0000 0.0000 0.0000 23.3529
#
#
#
# Elastic Compliance Matrix: (Units=1/GPa)
#
#
# Indices 1 2 3 4 5 6 
#
# 1 0.012046 -0.003516 -0.005548 0.000000 0.000000 0.000000
# 2 -0.003516 0.011052 -0.006049 0.000000 0.000000 0.000000
# 3 -0.005548 -0.006049 0.026900 0.000000 0.000000 0.000000
# 4 0.000000 0.000000 0.000000 0.052922 0.000000 0.000000
# 5 0.000000 0.000000 0.000000 0.000000 0.053084 0.000000
# 6 0.000000 0.000000 0.000000 0.000000 0.000000 0.042821
#
#
# Mechanical properties :
#
#
# Convention : Reuss Voigt Hill
#
# Bulk Modulus (GPa) = 50.57975 63.77838 57.17906
# Shear Modulus (GPa) = 21.21861 23.31880 22.26870
#
# Velocity S-wave (km/s) = 3.26913 3.42710 3.34905
# Velocity P-wave (km/s) = 6.30279 6.91255 6.61470
#
# Compressibility (1/GPa) = 0.01977076
#
# Stress axis : x y z
#
# Youngs Moduli (GPa) = 83.01268 90.48528 37.17504
#
# Poissons Ratio (x) = 0.31818 0.20625
# Poissons Ratio (y) = 0.29190 0.22487
# Poissons Ratio (z) = 0.46057 0.54733
#
# Static dielectric constant tensor:
#      x y z
#    x 3.693010 0.000000 0.000000 
#    y 0.000000 3.934030 0.000000 
#    z 0.000000 0.000000 3.320680 
# 
# 
# High freq. dielectric constant tensor:
#      x y z
#    x 1.787400 0.000000 0.000000 
#    y 0.000000 1.788320 0.000000 
#    z 0.000000 0.000000 1.746800 
# 
# From -- ./inp_files/17620.got.cif
#   From: 2010.03.12/outbox.cif.g09.slc.cpg/sg70_9_cif.got.tgz:17620.got - 2010.04.16 13:46:32.
