data_PCOD8285208
_publ_section_title
;
Structure prediction by ZEFSAII (Michael W. Deem and Ramdas Pophale) SiO2 
 PCOD8285208
Probable space group: F M M M
;
_chemical_formula_sum "Si O2"
_cell_formula_units_Z 192
_cell_length_a 32.942908
_cell_length_b 17.577671
_cell_length_c 17.523301
_cell_angle_alpha 90.000000
_cell_angle_beta 90.000000
_cell_angle_gamma 90.000000
_cell_volume 10147.035643
_symmetry_space_group_name_H-M "F M M M"
_symmetry_group_IT_number 69
_symmetry_cell_setting 'orthorhombic'
loop_
_space_group_symop_operation_xyz
x,y,z
-x,-y,z
x,-y,-z
-x,y,-z
-x,-y,-z
x,y,-z
-x,y,z
x,-y,z
x,1/2+y,1/2+z
-x,1/2-y,1/2+z
x,1/2-y,1/2-z
-x,1/2+y,1/2-z
-x,1/2-y,1/2-z
x,1/2+y,1/2-z
-x,1/2+y,1/2+z
x,1/2-y,1/2+z
1/2+x,y,1/2+z
1/2-x,-y,1/2+z
1/2+x,-y,1/2-z
1/2-x,y,1/2-z
1/2-x,-y,1/2-z
1/2+x,y,1/2-z
1/2-x,y,1/2+z
1/2+x,-y,1/2+z
1/2+x,1/2+y,z
1/2-x,1/2-y,z
1/2+x,1/2-y,-z
1/2-x,1/2+y,-z
1/2-x,1/2-y,-z
1/2+x,1/2+y,-z
1/2-x,1/2+y,z
1/2+x,1/2-y,z
loop_
_atom_site_type_symbol
_atom_site_label
_atom_site_fract_x
_atom_site_fract_y
_atom_site_fract_z
Si Si1 0.000000 0.586008 0.089922
Si Si2 0.421278 0.409564 0.178151
Si Si3 0.624385 0.703430 0.910936
Si Si4 0.707899 0.723287 0.411547
Si Si5 0.660001 0.583992 0.411861
Si Si6 0.417448 0.851493 0.154306
Si Si7 0.000000 0.589416 0.415198
O O1 0.039524 0.631622 0.116042
O O2 0.000000 0.500000 0.124864
O O3 0.000000 0.580916 0.000000
O O4 0.417310 0.500000 0.191400
O O5 0.384252 0.378919 0.126194
O O6 0.422323 0.362166 0.255720
O O7 0.461162 0.384887 0.132243
O O8 0.672443 0.715369 0.898793
O O9 0.597620 0.767215 0.867735
O O10 0.613022 0.704572 0.000000
O O11 0.717210 0.709657 0.500000
O O12 0.750000 0.750000 0.371327
O O13 0.692355 0.643122 0.375829
O O14 0.652672 0.605715 0.500000
O O15 0.678115 0.500000 0.401359
O O16 0.616176 0.588013 0.372757
O O17 0.000000 0.500000 0.425264
O O18 0.000000 0.627111 0.500000
#
# Coordination Sequence:
#
# PCOD8285208 Si02
#       7
#    16  32  32  32  32  32  16
#     4  11  21  32  51  80 112 143 177 223 274 316
#     4  11  22  36  56  80 107 141 182 226 268 312
#     4  10  21  37  57  80 107 141 180 220 266 321
#     4   8  15  30  52  77 104 132 167 217 271 317
#     4   9  16  28  49  75 103 139 179 214 256 318
#     4  11  21  35  52  76 109 144 178 217 266 318
#     4   9  19  36  55  74 101 140 183 221 258 305
#
# _framework density 18.921782
#
# number of rings (size 3 to 8) (size 9 to 14) (size 15 to 20)
#    0.000    2.167    0.000    5.500    0.000    3.667 
#    0.000    4.167    0.000   11.000    0.000    5.833 
#    0.000    0.000    0.000    0.000    0.000    0.000 
#
# Total GULP energy -595006.352251 kJ/mol
# GULP energy per Si atom -12395.965672 kJ/mol
# Density = 1.887872 g / cm^3
# Si number density = 18.921782 Si / 1000 Ang^3
#
#
#
# Elastic Constant Matrix: (Units=GPa)
#
#
# Indices 1 2 3 4 5 6 
#
# 1 145.6046 45.2820 42.8283 0.0000 0.0000 0.0000
# 2 45.2820 54.7544 31.4948 0.0000 0.0000 0.0000
# 3 42.8283 31.4948 106.4591 0.0000 0.0000 0.0000
# 4 0.0000 0.0000 0.0000 23.1891 0.0000 0.0000
# 5 0.0000 0.0000 0.0000 0.0000 -2.1128 0.0000
# 6 0.0000 0.0000 0.0000 0.0000 0.0000 21.2749
#
#
#
# Elastic Compliance Matrix: (Units=1/GPa)
#
#
# Indices 1 2 3 4 5 6 
#
# 1 0.009527 -0.006838 -0.001810 0.000000 0.000000 0.000000
# 2 -0.006838 0.026916 -0.005212 0.000000 0.000000 0.000000
# 3 -0.001810 -0.005212 0.011663 0.000000 0.000000 0.000000
# 4 0.000000 0.000000 0.000000 0.043124 0.000000 0.000000
# 5 0.000000 0.000000 0.000000 0.000000 -0.473305 0.000000
# 6 0.000000 0.000000 0.000000 0.000000 0.000000 0.047004
#
#
# Mechanical properties :
#
#
# Convention : Reuss Voigt Hill
#
# Bulk Modulus (GPa) = 49.05044 60.66982 54.86013
# Shear Modulus (GPa) = -16.63581 20.95111 2.15765
#
# Velocity S-wave (km/s) = -2.96833 3.33114 1.06901
# Velocity P-wave (km/s) = 3.77241 6.85043 5.52990
#
# Compressibility (1/GPa) = 0.02038718
#
# Stress axis : x y z
#
# Youngs Moduli (GPa) = 104.96831 37.15248 85.73925
#
# Poissons Ratio (x) = 0.25403 0.15516
# Poissons Ratio (y) = 0.71773 0.44688
# Poissons Ratio (z) = 0.18996 0.19364
#
# Static dielectric constant tensor:
#      x y z
#    x 3.616140 0.000000 0.000000 
#    y 0.000000 3.487680 0.000000 
#    z 0.000000 0.000000 3.415440 
# 
# 
# High freq. dielectric constant tensor:
#      x y z
#    x 1.729480 0.000000 0.000000 
#    y 0.000000 1.731470 0.000000 
#    z 0.000000 0.000000 1.724600 
# 
# From -- ./inp_files/27810.got.cif
#   From: 2010.03.12/outbox.cif.g09.slc.cpg/sg69_14_cif.got.tgz:27810.got - 2010.04.10 23:52:46.
