data_PCOD8285062
_publ_section_title
;
Structure prediction by ZEFSAII (Michael W. Deem and Ramdas Pophale) SiO2 
 PCOD8285062
Probable space group: F M M M
;
_chemical_formula_sum "Si O2"
_cell_formula_units_Z 160
_cell_length_a 23.944297
_cell_length_b 13.980010
_cell_length_c 22.305156
_cell_angle_alpha 90.000000
_cell_angle_beta 90.000000
_cell_angle_gamma 90.000000
_cell_volume 7466.461634
_symmetry_space_group_name_H-M "F M M M"
_symmetry_group_IT_number 69
_symmetry_cell_setting 'orthorhombic'
loop_
_space_group_symop_operation_xyz
x,y,z
-x,-y,z
x,-y,-z
-x,y,-z
-x,-y,-z
x,y,-z
-x,y,z
x,-y,z
x,1/2+y,1/2+z
-x,1/2-y,1/2+z
x,1/2-y,1/2-z
-x,1/2+y,1/2-z
-x,1/2-y,1/2-z
x,1/2+y,1/2-z
-x,1/2+y,1/2+z
x,1/2-y,1/2+z
1/2+x,y,1/2+z
1/2-x,-y,1/2+z
1/2+x,-y,1/2-z
1/2-x,y,1/2-z
1/2-x,-y,1/2-z
1/2+x,y,1/2-z
1/2-x,y,1/2+z
1/2+x,-y,1/2+z
1/2+x,1/2+y,z
1/2-x,1/2-y,z
1/2+x,1/2-y,-z
1/2-x,1/2+y,-z
1/2-x,1/2-y,-z
1/2+x,1/2+y,-z
1/2-x,1/2+y,z
1/2+x,1/2-y,z
loop_
_atom_site_type_symbol
_atom_site_label
_atom_site_fract_x
_atom_site_fract_y
_atom_site_fract_z
Si Si1 0.133071 0.105852 0.840597
Si Si2 0.590520 0.617268 0.500000
Si Si3 0.255772 0.137976 0.872685
Si Si4 0.135630 0.890881 0.705991
Si Si5 0.716440 0.651712 0.500000
Si Si6 0.436990 0.274337 0.617483
O O1 0.197687 0.091163 0.856008
O O2 0.133690 0.150392 0.773599
O O3 0.100551 0.177219 0.885982
O O4 0.105421 0.000000 0.844458
O O5 0.589641 0.500000 0.500000
O O6 0.650557 0.666256 0.500000
O O7 0.560591 0.661128 0.557956
O O8 0.250000 0.250000 0.878136
O O9 0.303089 0.115884 0.823710
O O10 0.270734 0.094664 0.938420
O O11 0.088149 0.837927 0.669693
O O12 0.117532 0.000000 0.708657
O O13 0.750000 0.750000 0.500000
O O14 0.500000 0.243944 0.633761
#
# Coordination Sequence:
#
# PCOD8285062 Si02
#       6
#    32  16  32  32  16  32
#     4  11  25  43  65  95 134 180 224 269 325 393
#     4  12  25  46  73 101 134 171 215 275 343 401
#     4  11  20  37  65  97 137 176 219 271 335 401
#     4  11  23  40  65  98 133 173 221 273 334 399
#     4  10  20  37  63  97 137 174 209 258 325 399
#     4  12  26  45  68  95 130 172 224 282 335 388
#
# _framework density 21.42916
#
# number of rings (size 3 to 8) (size 9 to 14) (size 15 to 20)
#    0.000    0.800    4.000    3.900    0.000    7.200 
#    0.000    3.500    0.000    1.200    0.000    0.000 
#    0.000    0.000    0.000    0.000    0.000    0.000 
#
# Total GULP energy -495740.585445 kJ/mol
# GULP energy per Si atom -12393.514636 kJ/mol
# Density = 2.138039 g / cm^3
# Si number density = 21.429160 Si / 1000 Ang^3
#
#
#
# Elastic Constant Matrix: (Units=GPa)
#
#
# Indices 1 2 3 4 5 6 
#
# 1 133.7358 25.3380 29.0694 0.0000 0.0000 0.0000
# 2 25.3380 101.0502 34.0480 0.0000 0.0000 0.0000
# 3 29.0694 34.0480 113.5187 0.0000 0.0000 0.0000
# 4 0.0000 0.0000 0.0000 64.5230 0.0000 0.0000
# 5 0.0000 0.0000 0.0000 0.0000 53.9044 0.0000
# 6 0.0000 0.0000 0.0000 0.0000 0.0000 3.6560
#
#
#
# Elastic Compliance Matrix: (Units=1/GPa)
#
#
# Indices 1 2 3 4 5 6 
#
# 1 0.008114 -0.001484 -0.001632 0.000000 0.000000 0.000000
# 2 -0.001484 0.011280 -0.003003 0.000000 0.000000 0.000000
# 3 -0.001632 -0.003003 0.010128 0.000000 0.000000 0.000000
# 4 0.000000 0.000000 0.000000 0.015498 0.000000 0.000000
# 5 0.000000 0.000000 0.000000 0.000000 0.018551 0.000000
# 6 0.000000 0.000000 0.000000 0.000000 0.000000 0.273522
#
#
# Mechanical properties :
#
#
# Convention : Reuss Voigt Hill
#
# Bulk Modulus (GPa) = 57.86526 58.35729 58.11128
# Shear Modulus (GPa) = 14.08079 41.73996 27.91038
#
# Velocity S-wave (km/s) = 2.56615 4.41819 3.61286
# Velocity P-wave (km/s) = 5.98680 7.30198 6.67686
#
# Compressibility (1/GPa) = 0.01728153
#
# Stress axis : x y z
#
# Youngs Moduli (GPa) = 123.25127 88.65109 98.73705
#
# Poissons Ratio (x) = 0.13159 0.16118
# Poissons Ratio (y) = 0.18295 0.29653
# Poissons Ratio (z) = 0.20120 0.26624
#
# Static dielectric constant tensor:
#      x y z
#    x 2.860070 0.000000 0.000000 
#    y 0.000000 6.350610 0.000000 
#    z 0.000000 0.000000 4.444950 
# 
# 
# High freq. dielectric constant tensor:
#      x y z
#    x 1.830590 0.000000 0.000000 
#    y 0.000000 1.851800 0.000000 
#    z 0.000000 0.000000 1.850380 
# 
# From -- ./inp_files/31752.got.cif
#   From: 2010.03.12/outbox.cif.g09.slc.cpg/sg69_16_cif.got.tgz:31752.got - 2010.04.10 23:52:46.
