data_PCOD8285135
_publ_section_title
;
Structure prediction by ZEFSAII (Michael W. Deem and Ramdas Pophale) SiO2 
 PCOD8285135
Probable space group: F M M M
;
_chemical_formula_sum "Si O2"
_cell_formula_units_Z 136
_cell_length_a 24.740384
_cell_length_b 18.859595
_cell_length_c 16.201902
_cell_angle_alpha 90.000000
_cell_angle_beta 90.000000
_cell_angle_gamma 90.000000
_cell_volume 7559.704144
_symmetry_space_group_name_H-M "F M M M"
_symmetry_group_IT_number 69
_symmetry_cell_setting 'orthorhombic'
loop_
_space_group_symop_operation_xyz
x,y,z
-x,-y,z
x,-y,-z
-x,y,-z
-x,-y,-z
x,y,-z
-x,y,z
x,-y,z
x,1/2+y,1/2+z
-x,1/2-y,1/2+z
x,1/2-y,1/2-z
-x,1/2+y,1/2-z
-x,1/2-y,1/2-z
x,1/2+y,1/2-z
-x,1/2+y,1/2+z
x,1/2-y,1/2+z
1/2+x,y,1/2+z
1/2-x,-y,1/2+z
1/2+x,-y,1/2-z
1/2-x,y,1/2-z
1/2-x,-y,1/2-z
1/2+x,y,1/2-z
1/2-x,y,1/2+z
1/2+x,-y,1/2+z
1/2+x,1/2+y,z
1/2-x,1/2-y,z
1/2+x,1/2-y,-z
1/2-x,1/2+y,-z
1/2-x,1/2-y,-z
1/2+x,1/2+y,-z
1/2-x,1/2+y,z
1/2+x,1/2-y,z
loop_
_atom_site_type_symbol
_atom_site_label
_atom_site_fract_x
_atom_site_fract_y
_atom_site_fract_z
Si Si1 0.063770 0.350728 0.343964
Si Si2 0.884757 0.577755 0.500000
Si Si3 0.220187 0.000000 0.000000
Si Si4 0.561059 0.298314 0.592867
Si Si5 0.389729 0.078901 0.180510
Si Si6 0.213210 0.500000 0.829626
O O1 0.096430 0.382439 0.419323
O O2 0.074453 0.266053 0.344718
O O3 0.088065 0.384885 0.262636
O O4 0.000000 0.366976 0.351980
O O5 0.912045 0.500000 0.500000
O O6 0.818949 0.569515 0.500000
O O7 0.256078 0.000000 0.082950
O O8 0.569814 0.270326 0.500000
O O9 0.500000 0.323124 0.608164
O O10 0.596889 0.368171 0.606066
O O11 0.324675 0.070058 0.178741
O O12 0.416261 0.000000 0.169700
O O13 0.250000 0.500000 0.750000
#
# Coordination Sequence:
#
# PCOD8285135 Si02
#       6
#    32  16   8  32  32  16
#     4  11  20  36  57  89 129 159 185 233 301 366
#     4  10  21  34  59  91 109 155 199 241 302 353
#     4  10  22  40  63  80 119 158 196 266 318 346
#     4  10  21  37  57  85 127 166 189 223 287 365
#     4  10  23  35  60  87 114 157 205 243 287 346
#     4  10  22  42  62  87 114 151 210 260 323 352
#
# _framework density 17.990122
#
# number of rings (size 3 to 8) (size 9 to 14) (size 15 to 20)
#    1.059    0.706    1.176    3.882    1.647    6.118 
#    0.000    1.176    0.000   11.294    0.000    0.000 
#    0.000    0.000    0.000    0.000    0.000    0.000 
#
# Total GULP energy -421293.552764 kJ/mol
# GULP energy per Si atom -12390.986846 kJ/mol
# Density = 1.794918 g / cm^3
# Si number density = 17.990122 Si / 1000 Ang^3
#
#
#
# Elastic Constant Matrix: (Units=GPa)
#
#
# Indices 1 2 3 4 5 6 
#
# 1 117.2008 59.7019 42.6621 0.0000 0.0000 0.0000
# 2 59.7019 111.0174 47.8756 0.0000 0.0000 0.0000
# 3 42.6621 47.8756 70.4756 0.0000 0.0000 0.0000
# 4 0.0000 0.0000 0.0000 43.7488 0.0000 0.0000
# 5 0.0000 0.0000 0.0000 0.0000 33.1406 0.0000
# 6 0.0000 0.0000 0.0000 0.0000 0.0000 2.1452
#
#
#
# Elastic Compliance Matrix: (Units=1/GPa)
#
#
# Indices 1 2 3 4 5 6 
#
# 1 0.012602 -0.004932 -0.004278 0.000000 0.000000 0.000000
# 2 -0.004932 0.014670 -0.006980 0.000000 0.000000 0.000000
# 3 -0.004278 -0.006980 0.021521 0.000000 0.000000 0.000000
# 4 0.000000 0.000000 0.000000 0.022858 0.000000 0.000000
# 5 0.000000 0.000000 0.000000 0.000000 0.030174 0.000000
# 6 0.000000 0.000000 0.000000 0.000000 0.000000 0.466159
#
#
# Mechanical properties :
#
#
# Convention : Reuss Voigt Hill
#
# Bulk Modulus (GPa) = 60.92992 66.57480 63.75236
# Shear Modulus (GPa) = 8.25306 25.70386 16.97846
#
# Velocity S-wave (km/s) = 2.14418 3.78402 3.07541
# Velocity P-wave (km/s) = 6.33025 7.49522 6.93723
#
# Compressibility (1/GPa) = 0.01641230
#
# Stress axis : x y z
#
# Youngs Moduli (GPa) = 79.35230 68.16613 46.46679
#
# Poissons Ratio (x) = 0.33620 0.19879
# Poissons Ratio (y) = 0.39137 0.32434
# Poissons Ratio (z) = 0.33948 0.47580
#
# Static dielectric constant tensor:
#      x y z
#    x 3.240990 0.000000 0.000000 
#    y 0.000000 3.421390 0.000000 
#    z 0.000000 0.000000 2.898080 
# 
# 
# High freq. dielectric constant tensor:
#      x y z
#    x 1.678830 0.000000 0.000000 
#    y 0.000000 1.697430 0.000000 
#    z 0.000000 0.000000 1.711200 
# 
# From -- ./inp_files/18745.got.cif
#   From: 2010.03.12/outbox.cif.g09.slc.cpg/sg69_10_cif.got.tgz:18745.got - 2010.04.10 23:52:46.
