data_PCOD8285467
_publ_section_title
;
Structure prediction by ZEFSAII (Michael W. Deem and Ramdas Pophale) SiO2 
 PCOD8285467
Probable space group: F M M M
;
_chemical_formula_sum "Si O2"
_cell_formula_units_Z 192
_cell_length_a 23.027408
_cell_length_b 15.976975
_cell_length_c 24.936388
_cell_angle_alpha 90.000000
_cell_angle_beta 90.000000
_cell_angle_gamma 90.000000
_cell_volume 9174.304664
_symmetry_space_group_name_H-M "F M M M"
_symmetry_group_IT_number 69
_symmetry_cell_setting 'orthorhombic'
loop_
_space_group_symop_operation_xyz
x,y,z
-x,-y,z
x,-y,-z
-x,y,-z
-x,-y,-z
x,y,-z
-x,y,z
x,-y,z
x,1/2+y,1/2+z
-x,1/2-y,1/2+z
x,1/2-y,1/2-z
-x,1/2+y,1/2-z
-x,1/2-y,1/2-z
x,1/2+y,1/2-z
-x,1/2+y,1/2+z
x,1/2-y,1/2+z
1/2+x,y,1/2+z
1/2-x,-y,1/2+z
1/2+x,-y,1/2-z
1/2-x,y,1/2-z
1/2-x,-y,1/2-z
1/2+x,y,1/2-z
1/2-x,y,1/2+z
1/2+x,-y,1/2+z
1/2+x,1/2+y,z
1/2-x,1/2-y,z
1/2+x,1/2-y,-z
1/2-x,1/2+y,-z
1/2-x,1/2-y,-z
1/2+x,1/2+y,-z
1/2-x,1/2+y,z
1/2+x,1/2-y,z
loop_
_atom_site_type_symbol
_atom_site_label
_atom_site_fract_x
_atom_site_fract_y
_atom_site_fract_z
Si Si1 0.163293 0.405325 0.859314
Si Si2 0.433587 0.663981 0.437662
Si Si3 0.139722 0.845065 0.753687
Si Si4 0.433536 0.500000 0.090299
Si Si5 0.705981 0.098695 0.355498
Si Si6 0.621131 0.663377 0.058660
Si Si7 0.568367 0.000000 0.710262
O O1 0.152983 0.500000 0.842156
O O2 0.114731 0.384749 0.903624
O O3 0.162565 0.351789 0.806071
O O4 0.229100 0.390047 0.878672
O O5 0.425532 0.639554 0.500000
O O6 0.500000 0.642815 0.419510
O O7 0.422874 0.761906 0.427423
O O8 0.115407 0.750000 0.750000
O O9 0.192020 0.862901 0.796399
O O10 0.089283 0.913428 0.762712
O O11 0.500000 0.500000 0.101741
O O12 0.416606 0.419992 0.056074
O O13 0.405650 0.500000 0.149925
O O14 0.669780 0.155116 0.396588
O O15 0.690223 0.000000 0.356416
O O16 0.649715 0.677798 0.000000
O O17 0.500000 0.000000 0.714854
#
# Coordination Sequence:
#
# PCOD8285467 Si02
#       7
#    32  32  32  16  32  32  16
#     4  11  25  42  69  96 122 170 223 265 322 392
#     4  10  24  45  65  91 130 169 214 274 328 378
#     4  12  23  42  68  95 130 176 218 268 329 390
#     4  11  21  36  60  88 123 168 209 250 310 384
#     4  11  22  42  64  95 137 168 206 269 330 388
#     4  11  21  37  63  93 126 168 210 257 318 385
#     4  11  24  43  62  92 137 176 215 271 328 375
#
# _framework density 20.928016
#
# number of rings (size 3 to 8) (size 9 to 14) (size 15 to 20)
#    0.000    1.000    4.167    2.250    0.000    8.333 
#    0.000    4.167    0.000    0.000    0.000    0.000 
#    0.000    0.000    0.000    0.000    0.000    0.000 
#
# Total GULP energy -594760.533575 kJ/mol
# GULP energy per Si atom -12390.844449 kJ/mol
# Density = 2.088038 g / cm^3
# Si number density = 20.928016 Si / 1000 Ang^3
#
#
#
# Elastic Constant Matrix: (Units=GPa)
#
#
# Indices 1 2 3 4 5 6 
#
# 1 151.8312 37.0368 54.2329 0.0000 0.0000 0.0000
# 2 37.0368 101.0979 16.8807 0.0000 0.0000 0.0000
# 3 54.2329 16.8807 105.0730 0.0000 0.0000 0.0000
# 4 0.0000 0.0000 0.0000 37.3880 0.0000 0.0000
# 5 0.0000 0.0000 0.0000 0.0000 27.0467 0.0000
# 6 0.0000 0.0000 0.0000 0.0000 0.0000 26.7901
#
#
#
# Elastic Compliance Matrix: (Units=1/GPa)
#
#
# Indices 1 2 3 4 5 6 
#
# 1 0.008644 -0.002489 -0.004062 0.000000 0.000000 0.000000
# 2 -0.002489 0.010880 -0.000464 0.000000 0.000000 0.000000
# 3 -0.004062 -0.000464 0.011688 0.000000 0.000000 0.000000
# 4 0.000000 0.000000 0.000000 0.026747 0.000000 0.000000
# 5 0.000000 0.000000 0.000000 0.000000 0.036973 0.000000
# 6 0.000000 0.000000 0.000000 0.000000 0.000000 0.037327
#
#
# Mechanical properties :
#
#
# Convention : Reuss Voigt Hill
#
# Bulk Modulus (GPa) = 58.19062 63.81142 61.00102
# Shear Modulus (GPa) = 32.89133 34.90176 33.89654
#
# Velocity S-wave (km/s) = 3.96869 4.08818 4.02888
# Velocity P-wave (km/s) = 6.99044 7.26921 7.13119
#
# Compressibility (1/GPa) = 0.01718490
#
# Stress axis : x y z
#
# Youngs Moduli (GPa) = 115.68513 91.90782 85.55662
#
# Poissons Ratio (x) = 0.22872 0.34752
# Poissons Ratio (y) = 0.28789 0.03966
# Poissons Ratio (z) = 0.46989 0.04261
#
# Static dielectric constant tensor:
#      x y z
#    x 3.726360 0.000000 0.000000 
#    y 0.000000 3.846420 0.000000 
#    z 0.000000 0.000000 3.868940 
# 
# 
# High freq. dielectric constant tensor:
#      x y z
#    x 1.818220 0.000000 0.000000 
#    y 0.000000 1.827210 0.000000 
#    z 0.000000 0.000000 1.821220 
# 
# From -- ./inp_files/41144.got.cif
#   From: 2010.03.12/outbox.cif.g09.slc.cpg/sg69_21_cif.got.tgz:41144.got - 2010.04.10 23:52:46.
