data_PCOD8285841
_publ_section_title
;
Structure prediction by ZEFSAII (Michael W. Deem and Ramdas Pophale) SiO2 
 PCOD8285841
Probable space group: F D D D
;
_chemical_formula_sum "Si O2"
_cell_formula_units_Z 208
_cell_length_a 26.968775
_cell_length_b 20.557360
_cell_length_c 17.647573
_cell_angle_alpha 90.000000
_cell_angle_beta 90.000000
_cell_angle_gamma 90.000000
_cell_volume 9783.934765
_symmetry_space_group_name_H-M "F D D D"
_symmetry_group_IT_number 70
_space_group.IT_coordinate_system_code '2'
_symmetry_cell_setting 'orthorhombic'
loop_
_space_group_symop_operation_xyz
x,y,z
1/4-x,1/4-y,z
x,1/4-y,1/4-z
1/4-x,y,1/4-z
-x,-y,-z
3/4+x,3/4+y,-z
-x,3/4+y,3/4+z
3/4+x,-y,3/4+z
x,1/2+y,1/2+z
1/4-x,3/4-y,1/2+z
x,3/4-y,3/4-z
1/4-x,1/2+y,3/4-z
-x,1/2-y,1/2-z
3/4+x,1/4+y,1/2-z
-x,1/4+y,1/4+z
3/4+x,1/2-y,1/4+z
1/2+x,y,1/2+z
3/4-x,1/4-y,1/2+z
1/2+x,1/4-y,3/4-z
3/4-x,y,3/4-z
1/2-x,-y,1/2-z
1/4+x,3/4+y,1/2-z
1/2-x,3/4+y,1/4+z
1/4+x,-y,1/4+z
1/2+x,1/2+y,z
3/4-x,3/4-y,z
1/2+x,3/4-y,1/4-z
3/4-x,1/2+y,1/4-z
1/2-x,1/2-y,-z
1/4+x,1/4+y,-z
1/2-x,1/4+y,3/4+z
1/4+x,1/2-y,3/4+z
loop_
_atom_site_type_symbol
_atom_site_label
_atom_site_fract_x
_atom_site_fract_y
_atom_site_fract_z
Si Si1 0.938380 0.184029 0.069388
Si Si2 0.777894 0.924247 0.037378
Si Si3 0.758552 0.625000 0.625000
Si Si4 0.954071 0.275103 0.200886
Si Si5 0.336900 0.150145 0.494145
Si Si6 0.229992 0.991762 0.666891
Si Si7 0.640124 0.991766 0.542996
O O1 0.949556 0.125000 0.125000
O O2 0.954049 0.250051 0.113898
O O3 0.881620 0.182863 0.041352
O O4 0.972796 0.175444 0.996628
O O5 0.799086 0.852370 0.046598
O O6 0.772787 0.953514 0.121137
O O7 0.813555 0.966362 0.984652
O O8 0.792811 0.631077 0.551227
O O9 0.722707 0.561317 0.624135
O O10 0.904095 0.246525 0.234324
O O11 0.000000 0.250000 0.250000
O O12 0.320521 0.200418 0.427419
O O13 0.349121 0.084444 0.449747
O O14 0.250000 0.000000 0.750000
O O15 0.625000 0.019448 0.625000
#
# Coordination Sequence:
#
# PCOD8285841 Si02
#       7
#    32  32  16  32  32  32  32
#     4  12  24  42  72  99 139 184 233 297 354 433
#     4  12  27  44  68 106 144 184 232 297 362 424
#     4  10  18  46  68  99 136 180 233 292 354 408
#     4  12  25  44  69 103 142 184 230 284 360 433
#     4  11  22  42  71 102 133 184 242 282 360 420
#     4  10  25  41  74 100 135 183 239 294 345 426
#     4  12  26  42  72 103 143 186 230 289 355 440
#
# _framework density 21.259342
#
# number of rings (size 3 to 8) (size 9 to 14) (size 15 to 20)
#    0.000    0.615    5.385    1.385    8.615    0.615 
#    0.000    0.000    0.000    0.923    0.000    0.000 
#    0.000    0.000    0.000    0.000    0.000    0.000 
#
# Total GULP energy -644793.264516 kJ/mol
# GULP energy per Si atom -12399.870471 kJ/mol
# Density = 2.121095 g / cm^3
# Si number density = 21.259342 Si / 1000 Ang^3
#
#
#
# Elastic Constant Matrix: (Units=GPa)
#
#
# Indices 1 2 3 4 5 6 
#
# 1 88.1865 70.7903 39.5263 0.0000 0.0000 0.0000
# 2 70.7903 163.7058 41.7850 0.0000 0.0000 0.0000
# 3 39.5263 41.7850 103.8761 0.0000 0.0000 0.0000
# 4 0.0000 0.0000 0.0000 26.9080 0.0000 0.0000
# 5 0.0000 0.0000 0.0000 0.0000 35.5398 0.0000
# 6 0.0000 0.0000 0.0000 0.0000 0.0000 28.5025
#
#
#
# Elastic Compliance Matrix: (Units=1/GPa)
#
#
# Indices 1 2 3 4 5 6 
#
# 1 0.018999 -0.007099 -0.004374 0.000000 0.000000 0.000000
# 2 -0.007099 0.009460 -0.001104 0.000000 0.000000 0.000000
# 3 -0.004374 -0.001104 0.011735 0.000000 0.000000 0.000000
# 4 0.000000 0.000000 0.000000 0.037164 0.000000 0.000000
# 5 0.000000 0.000000 0.000000 0.000000 0.028137 0.000000
# 6 0.000000 0.000000 0.000000 0.000000 0.000000 0.035085
#
#
# Mechanical properties :
#
#
# Convention : Reuss Voigt Hill
#
# Bulk Modulus (GPa) = 66.48768 73.33016 69.90892
# Shear Modulus (GPa) = 29.28314 31.76785 30.52549
#
# Velocity S-wave (km/s) = 3.71539 3.86981 3.79339
# Velocity P-wave (km/s) = 7.05323 7.38480 7.22092
#
# Compressibility (1/GPa) = 0.01504038
#
# Stress axis : x y z
#
# Youngs Moduli (GPa) = 52.63551 105.70637 85.21378
#
# Poissons Ratio (x) = 0.75042 0.37269
# Poissons Ratio (y) = 0.37367 0.09409
# Poissons Ratio (z) = 0.23020 0.11671
#
# Static dielectric constant tensor:
#      x y z
#    x 4.139490 0.000000 0.000000 
#    y 0.000000 4.341680 0.000000 
#    z 0.000000 0.000000 4.047060 
# 
# 
# High freq. dielectric constant tensor:
#      x y z
#    x 1.825710 0.000000 0.000000 
#    y 0.000000 1.846390 0.000000 
#    z 0.000000 0.000000 1.842840 
# 
# From -- ./inp_files/38758.got.cif
#   From: 2010.03.12/outbox.cif.g09.slc.cpg/sg70_20_cif.got.tgz:38758.got - 2010.04.16 13:46:32.
