data_PCOD8285402
_publ_section_title
;
Structure prediction by ZEFSAII (Michael W. Deem and Ramdas Pophale) SiO2 
 PCOD8285402
Probable space group: F M M M
;
_chemical_formula_sum "Si O2"
_cell_formula_units_Z 120
_cell_length_a 26.678485
_cell_length_b 14.768820
_cell_length_c 13.894284
_cell_angle_alpha 90.000000
_cell_angle_beta 90.000000
_cell_angle_gamma 90.000000
_cell_volume 5474.483266
_symmetry_space_group_name_H-M "F M M M"
_symmetry_group_IT_number 69
_symmetry_cell_setting 'orthorhombic'
loop_
_space_group_symop_operation_xyz
x,y,z
-x,-y,z
x,-y,-z
-x,y,-z
-x,-y,-z
x,y,-z
-x,y,z
x,-y,z
x,1/2+y,1/2+z
-x,1/2-y,1/2+z
x,1/2-y,1/2-z
-x,1/2+y,1/2-z
-x,1/2-y,1/2-z
x,1/2+y,1/2-z
-x,1/2+y,1/2+z
x,1/2-y,1/2+z
1/2+x,y,1/2+z
1/2-x,-y,1/2+z
1/2+x,-y,1/2-z
1/2-x,y,1/2-z
1/2-x,-y,1/2-z
1/2+x,y,1/2-z
1/2-x,y,1/2+z
1/2+x,-y,1/2+z
1/2+x,1/2+y,z
1/2-x,1/2-y,z
1/2+x,1/2-y,-z
1/2-x,1/2+y,-z
1/2-x,1/2-y,-z
1/2+x,1/2+y,-z
1/2-x,1/2+y,z
1/2+x,1/2-y,z
loop_
_atom_site_type_symbol
_atom_site_label
_atom_site_fract_x
_atom_site_fract_y
_atom_site_fract_z
Si Si1 0.000000 0.647532 0.282467
Si Si2 0.500000 0.312311 0.000000
Si Si3 0.168088 0.103289 0.000000
Si Si4 0.600933 0.277623 0.500000
Si Si5 0.604440 0.896813 0.813805
Si Si6 0.200951 0.895940 0.204366
O O1 0.000000 0.750000 0.250000
O O2 0.000000 0.630658 0.399161
O O3 0.050375 0.605389 0.237979
O O4 0.542936 0.239171 0.000000
O O5 0.204301 0.117896 0.909612
O O6 0.124889 0.177738 0.000000
O O7 0.144978 0.000000 0.000000
O O8 0.613153 0.334517 0.405779
O O9 0.647196 0.859310 0.741107
O O10 0.613566 0.000000 0.845834
O O11 0.250000 0.846622 0.250000
O O12 0.202826 0.000000 0.234780
#
# Coordination Sequence:
#
# PCOD8285402 Si02
#       6
#    16   8  16  16  32  32
#     4  12  23  42  67  92 134 173 219 273 329 391
#     4  12  24  38  64  94 122 176 212 264 334 382
#     4  10  22  40  65  94 127 172 220 270 339 401
#     4  12  23  41  67  93 132 170 220 276 330 396
#     4  11  24  42  66  96 130 175 222 270 332 397
#     4   9  20  40  65  93 130 172 216 272 332 393
#
# _framework density 21.919877
#
# number of rings (size 3 to 8) (size 9 to 14) (size 15 to 20)
#    0.000    1.333    2.667    2.400    0.000    1.067 
#    0.000   13.000    0.000    0.000    0.000    0.000 
#    0.000    0.000    0.000    0.000    0.000    0.000 
#
# Total GULP energy -371765.464885 kJ/mol
# GULP energy per Si atom -12392.182163 kJ/mol
# Density = 2.186999 g / cm^3
# Si number density = 21.919877 Si / 1000 Ang^3
#
#
#
# Elastic Constant Matrix: (Units=GPa)
#
#
# Indices 1 2 3 4 5 6 
#
# 1 179.6970 28.1581 77.2478 0.0000 0.0000 0.0000
# 2 28.1581 101.1975 51.4863 0.0000 0.0000 0.0000
# 3 77.2478 51.4863 191.1346 0.0000 0.0000 0.0000
# 4 0.0000 0.0000 0.0000 34.3414 0.0000 0.0000
# 5 0.0000 0.0000 0.0000 0.0000 33.2589 0.0000
# 6 0.0000 0.0000 0.0000 0.0000 0.0000 -16.1012
#
#
#
# Elastic Compliance Matrix: (Units=1/GPa)
#
#
# Indices 1 2 3 4 5 6 
#
# 1 0.006763 -0.000569 -0.002580 0.000000 0.000000 0.000000
# 2 -0.000569 0.011499 -0.002867 0.000000 0.000000 0.000000
# 3 -0.002580 -0.002867 0.007047 0.000000 0.000000 0.000000
# 4 0.000000 0.000000 0.000000 0.029119 0.000000 0.000000
# 5 0.000000 0.000000 0.000000 0.000000 0.030067 0.000000
# 6 0.000000 0.000000 0.000000 0.000000 0.000000 -0.062107
#
#
# Mechanical properties :
#
#
# Convention : Reuss Voigt Hill
#
# Bulk Modulus (GPa) = 75.32500 87.31262 81.31881
# Shear Modulus (GPa) = 128.70885 31.30893 80.00889
#
# Velocity S-wave (km/s) = 7.67107 3.78343 6.04813
# Velocity P-wave (km/s) = 10.62539 7.68147 9.27102
#
# Compressibility (1/GPa) = 0.01327581
#
# Stress axis : x y z
#
# Youngs Moduli (GPa) = 147.85840 86.96470 141.90308
#
# Poissons Ratio (x) = 0.04950 0.36612
# Poissons Ratio (y) = 0.08416 0.40690
# Poissons Ratio (z) = 0.38148 0.24937
#
# Static dielectric constant tensor:
#      x y z
#    x 4.301660 0.000000 0.000000 
#    y 0.000000 3.869110 0.000000 
#    z 0.000000 0.000000 4.211330 
# 
# 
# High freq. dielectric constant tensor:
#      x y z
#    x 1.866810 0.000000 0.000000 
#    y 0.000000 1.853710 0.000000 
#    z 0.000000 0.000000 1.873910 
# 
# From -- ./inp_files/17507.got.cif
#   From: 2010.03.12/outbox.cif.g09.slc.cpg/sg69_9_cif.got.tgz:17507.got - 2010.04.10 23:52:46.
