data_PCOD8285452
_publ_section_title
;
Structure prediction by ZEFSAII (Michael W. Deem and Ramdas Pophale) SiO2 
 PCOD8285452
Probable space group: F M M M
;
_chemical_formula_sum "Si O2"
_cell_formula_units_Z 160
_cell_length_a 16.175708
_cell_length_b 16.253281
_cell_length_c 28.049544
_cell_angle_alpha 90.000000
_cell_angle_beta 90.000000
_cell_angle_gamma 90.000000
_cell_volume 7374.458700
_symmetry_space_group_name_H-M "F M M M"
_symmetry_group_IT_number 69
_symmetry_cell_setting 'orthorhombic'
loop_
_space_group_symop_operation_xyz
x,y,z
-x,-y,z
x,-y,-z
-x,y,-z
-x,-y,-z
x,y,-z
-x,y,z
x,-y,z
x,1/2+y,1/2+z
-x,1/2-y,1/2+z
x,1/2-y,1/2-z
-x,1/2+y,1/2-z
-x,1/2-y,1/2-z
x,1/2+y,1/2-z
-x,1/2+y,1/2+z
x,1/2-y,1/2+z
1/2+x,y,1/2+z
1/2-x,-y,1/2+z
1/2+x,-y,1/2-z
1/2-x,y,1/2-z
1/2-x,-y,1/2-z
1/2+x,y,1/2-z
1/2-x,y,1/2+z
1/2+x,-y,1/2+z
1/2+x,1/2+y,z
1/2-x,1/2-y,z
1/2+x,1/2-y,-z
1/2-x,1/2+y,-z
1/2-x,1/2-y,-z
1/2+x,1/2+y,-z
1/2-x,1/2+y,z
1/2+x,1/2-y,z
loop_
_atom_site_type_symbol
_atom_site_label
_atom_site_fract_x
_atom_site_fract_y
_atom_site_fract_z
Si Si1 0.162293 0.642176 0.554048
Si Si2 0.093006 0.408064 0.145252
Si Si3 0.155808 0.664495 0.234066
Si Si4 0.840339 0.000000 0.775666
Si Si5 0.902964 0.500000 0.379678
Si Si6 0.146272 0.169544 0.553650
O O1 0.142583 0.614060 0.500000
O O2 0.117026 0.581232 0.590082
O O3 0.129791 0.734216 0.562636
O O4 0.259859 0.642592 0.562725
O O5 0.129489 0.500000 0.149878
O O6 0.148841 0.346189 0.176915
O O7 0.091311 0.381250 0.090325
O O8 0.000000 0.405011 0.164760
O O9 0.111690 0.750000 0.250000
O O10 0.250000 0.669317 0.250000
O O11 0.113531 0.583679 0.258218
O O12 0.750000 0.000000 0.750000
O O13 0.843812 0.000000 0.833079
O O14 0.000000 0.500000 0.365760
O O15 0.119621 0.146372 0.500000
#
# Coordination Sequence:
#
# PCOD8285452 Si02
#       6
#    32  32  32  16  16  32
#     4   9  21  41  65  96 131 168 214 263 311 379
#     4  11  25  41  61  91 128 166 207 263 326 378
#     4  10  23  41  67  94 118 162 212 265 321 385
#     4  10  24  43  63  92 127 169 217 265 313 379
#     4  12  27  40  64 103 138 172 210 262 337 409
#     4   9  21  41  67  95 125 169 222 266 309 375
#
# _framework density 21.696507
#
# number of rings (size 3 to 8) (size 9 to 14) (size 15 to 20)
#    0.000    2.000    1.000    1.500    9.800    5.200 
#    0.000    3.000    0.000    0.000    0.000    0.000 
#    0.000    0.000    0.000    0.000    0.000    0.000 
#
# Total GULP energy -495806.749611 kJ/mol
# GULP energy per Si atom -12395.168740 kJ/mol
# Density = 2.164713 g / cm^3
# Si number density = 21.696507 Si / 1000 Ang^3
#
#
#
# Elastic Constant Matrix: (Units=GPa)
#
#
# Indices 1 2 3 4 5 6 
#
# 1 58.9921 28.1070 44.1227 0.0000 0.0000 0.0000
# 2 28.1070 167.7951 77.2487 0.0000 0.0000 0.0000
# 3 44.1227 77.2487 165.5614 0.0000 0.0000 0.0000
# 4 0.0000 0.0000 0.0000 43.5982 0.0000 0.0000
# 5 0.0000 0.0000 0.0000 0.0000 18.1867 0.0000
# 6 0.0000 0.0000 0.0000 0.0000 0.0000 15.5337
#
#
#
# Elastic Compliance Matrix: (Units=1/GPa)
#
#
# Indices 1 2 3 4 5 6 
#
# 1 0.021366 -0.001219 -0.005125 0.000000 0.000000 0.000000
# 2 -0.001219 0.007660 -0.003249 0.000000 0.000000 0.000000
# 3 -0.005125 -0.003249 0.008922 0.000000 0.000000 0.000000
# 4 0.000000 0.000000 0.000000 0.022937 0.000000 0.000000
# 5 0.000000 0.000000 0.000000 0.000000 0.054985 0.000000
# 6 0.000000 0.000000 0.000000 0.000000 0.000000 0.064376
#
#
# Mechanical properties :
#
#
# Convention : Reuss Voigt Hill
#
# Bulk Modulus (GPa) = 53.30411 76.81172 65.05791
# Shear Modulus (GPa) = 24.30893 31.65505 27.98199
#
# Velocity S-wave (km/s) = 3.35088 3.82382 3.59514
# Velocity P-wave (km/s) = 6.29226 7.41452 6.87633
#
# Compressibility (1/GPa) = 0.01876028
#
# Stress axis : x y z
#
# Youngs Moduli (GPa) = 46.80408 130.55465 112.08525
#
# Poissons Ratio (x) = 0.15921 0.57444
# Poissons Ratio (y) = 0.05708 0.36415
# Poissons Ratio (z) = 0.23987 0.42416
#
# Static dielectric constant tensor:
#      x y z
#    x 3.451520 0.000000 0.000000 
#    y 0.000000 4.925820 0.000000 
#    z 0.000000 0.000000 3.947950 
# 
# 
# High freq. dielectric constant tensor:
#      x y z
#    x 1.818940 0.000000 0.000000 
#    y 0.000000 1.867430 0.000000 
#    z 0.000000 0.000000 1.860300 
# 
# From -- ./inp_files/41770.got.cif
#   From: 2010.03.12/outbox.cif.g09.slc.cpg/sg69_21_cif.got.tgz:41770.got - 2010.04.10 23:52:46.
