data_PCOD8285395
_publ_section_title
;
Structure prediction by ZEFSAII (Michael W. Deem and Ramdas Pophale) SiO2 
 PCOD8285395
Probable space group: F M M M
;
_chemical_formula_sum "Si O2"
_cell_formula_units_Z 112
_cell_length_a 10.036971
_cell_length_b 24.810930
_cell_length_c 25.378002
_cell_angle_alpha 90.000000
_cell_angle_beta 90.000000
_cell_angle_gamma 90.000000
_cell_volume 6319.797169
_symmetry_space_group_name_H-M "F M M M"
_symmetry_group_IT_number 69
_symmetry_cell_setting 'orthorhombic'
loop_
_space_group_symop_operation_xyz
x,y,z
-x,-y,z
x,-y,-z
-x,y,-z
-x,-y,-z
x,y,-z
-x,y,z
x,-y,z
x,1/2+y,1/2+z
-x,1/2-y,1/2+z
x,1/2-y,1/2-z
-x,1/2+y,1/2-z
-x,1/2-y,1/2-z
x,1/2+y,1/2-z
-x,1/2+y,1/2+z
x,1/2-y,1/2+z
1/2+x,y,1/2+z
1/2-x,-y,1/2+z
1/2+x,-y,1/2-z
1/2-x,y,1/2-z
1/2-x,-y,1/2-z
1/2+x,y,1/2-z
1/2-x,y,1/2+z
1/2+x,-y,1/2+z
1/2+x,1/2+y,z
1/2-x,1/2-y,z
1/2+x,1/2-y,-z
1/2-x,1/2+y,-z
1/2-x,1/2-y,-z
1/2+x,1/2+y,-z
1/2-x,1/2+y,z
1/2+x,1/2-y,z
loop_
_atom_site_type_symbol
_atom_site_label
_atom_site_fract_x
_atom_site_fract_y
_atom_site_fract_z
Si Si1 0.000000 0.563167 0.674960
Si Si2 0.654352 0.199790 0.060165
Si Si3 0.342610 0.500000 0.440506
Si Si4 0.270567 0.401413 0.628781
Si Si5 0.000000 0.937688 0.299500
O O1 0.876271 0.595684 0.652037
O O2 0.000000 0.568233 0.737418
O O3 0.000000 0.500000 0.658503
O O4 0.500000 0.215490 0.070728
O O5 0.750000 0.250000 0.070587
O O6 0.701378 0.154879 0.100923
O O7 0.670641 0.179031 0.000000
O O8 0.500000 0.500000 0.435659
O O9 0.292828 0.500000 0.500000
O O10 0.284862 0.552943 0.414546
O O11 0.369899 0.409247 0.677528
O O12 0.000000 0.000000 0.317289
#
# Coordination Sequence:
#
# PCOD8285395 Si02
#       5
#    16  32  16  32  16
#     4  11  24  36  57  88 125 153 196 242 288 344
#     4  10  22  40  63  88 114 152 198 239 286 350
#     4  11  20  33  56  86 115 150 187 231 288 354
#     4  12  20  38  58  87 118 153 191 239 294 343
#     4  11  20  38  61  86 115 157 200 238 284 352
#
# _framework density 17.722086999999998
#
# number of rings (size 3 to 8) (size 9 to 14) (size 15 to 20)
#    0.000    1.000    5.714    1.714    2.000    4.571 
#    0.000    2.857    0.000    5.143    0.000    0.000 
#    0.000    0.000    0.000    0.000    0.000    0.000 
#
# Total GULP energy -347267.433577 kJ/mol
# GULP energy per Si atom -12402.408342 kJ/mol
# Density = 1.768175 g / cm^3
# Si number density = 17.722087 Si / 1000 Ang^3
#
#
#
# Elastic Constant Matrix: (Units=GPa)
#
#
# Indices 1 2 3 4 5 6 
#
# 1 163.1438 61.6226 59.1491 0.0000 0.0000 0.0000
# 2 61.6226 108.5006 55.5414 0.0000 0.0000 0.0000
# 3 59.1491 55.5414 97.6739 0.0000 0.0000 0.0000
# 4 0.0000 0.0000 0.0000 37.9477 0.0000 0.0000
# 5 0.0000 0.0000 0.0000 0.0000 7.3483 0.0000
# 6 0.0000 0.0000 0.0000 0.0000 0.0000 13.6625
#
#
#
# Elastic Compliance Matrix: (Units=1/GPa)
#
#
# Indices 1 2 3 4 5 6 
#
# 1 0.008537 -0.003106 -0.003403 0.000000 0.000000 0.000000
# 2 -0.003106 0.014131 -0.006155 0.000000 0.000000 0.000000
# 3 -0.003403 -0.006155 0.015799 0.000000 0.000000 0.000000
# 4 0.000000 0.000000 0.000000 0.026352 0.000000 0.000000
# 5 0.000000 0.000000 0.000000 0.000000 0.136086 0.000000
# 6 0.000000 0.000000 0.000000 0.000000 0.000000 0.073193
#
#
# Mechanical properties :
#
#
# Convention : Reuss Voigt Hill
#
# Bulk Modulus (GPa) = 76.11148 80.21607 78.16377
# Shear Modulus (GPa) = 16.45788 24.65870 20.55829
#
# Velocity S-wave (km/s) = 3.05071 3.73421 3.40963
# Velocity P-wave (km/s) = 7.44645 7.99713 7.72669
#
# Compressibility (1/GPa) = 0.01313862
#
# Stress axis : x y z
#
# Youngs Moduli (GPa) = 117.14042 70.76527 63.29585
#
# Poissons Ratio (x) = 0.21982 0.21542
# Poissons Ratio (y) = 0.36387 0.38955
# Poissons Ratio (z) = 0.39867 0.43552
#
# Static dielectric constant tensor:
#      x y z
#    x 3.354440 0.000000 0.000000 
#    y 0.000000 3.223070 0.000000 
#    z 0.000000 0.000000 3.420440 
# 
# 
# High freq. dielectric constant tensor:
#      x y z
#    x 1.699210 0.000000 0.000000 
#    y 0.000000 1.670270 0.000000 
#    z 0.000000 0.000000 1.695790 
# 
# From -- ./inp_files/3797.got.cif
#   From: 2010.03.12/outbox.cif.g09.slc.cpg/sg69_2_cif.got.tgz:3797.got - 2010.04.10 23:52:46.
