data_PCOD8285655
_publ_section_title
;
Structure prediction by ZEFSAII (Michael W. Deem and Ramdas Pophale) SiO2 
 PCOD8285655
Probable space group: F M M M
;
_chemical_formula_sum "Si O2"
_cell_formula_units_Z 160
_cell_length_a 17.492646
_cell_length_b 22.373639
_cell_length_c 16.863128
_cell_angle_alpha 90.000000
_cell_angle_beta 90.000000
_cell_angle_gamma 90.000000
_cell_volume 6599.792333
_symmetry_space_group_name_H-M "F M M M"
_symmetry_group_IT_number 69
_symmetry_cell_setting 'orthorhombic'
loop_
_space_group_symop_operation_xyz
x,y,z
-x,-y,z
x,-y,-z
-x,y,-z
-x,-y,-z
x,y,-z
-x,y,z
x,-y,z
x,1/2+y,1/2+z
-x,1/2-y,1/2+z
x,1/2-y,1/2-z
-x,1/2+y,1/2-z
-x,1/2-y,1/2-z
x,1/2+y,1/2-z
-x,1/2+y,1/2+z
x,1/2-y,1/2+z
1/2+x,y,1/2+z
1/2-x,-y,1/2+z
1/2+x,-y,1/2-z
1/2-x,y,1/2-z
1/2-x,-y,1/2-z
1/2+x,y,1/2-z
1/2-x,y,1/2+z
1/2+x,-y,1/2+z
1/2+x,1/2+y,z
1/2-x,1/2-y,z
1/2+x,1/2-y,-z
1/2-x,1/2+y,-z
1/2-x,1/2-y,-z
1/2+x,1/2+y,-z
1/2-x,1/2+y,z
1/2+x,1/2-y,z
loop_
_atom_site_type_symbol
_atom_site_label
_atom_site_fract_x
_atom_site_fract_y
_atom_site_fract_z
Si Si1 0.346164 0.875909 0.406280
Si Si2 0.418396 0.069666 0.000000
Si Si3 0.909875 0.931629 0.673937
Si Si4 0.701298 0.836549 0.176845
Si Si5 0.414002 0.000000 0.594292
Si Si6 0.084056 0.742590 0.656516
O O1 0.357340 0.873795 0.500000
O O2 0.257475 0.867050 0.386049
O O3 0.373048 0.940490 0.372635
O O4 0.398916 0.824751 0.368717
O O5 0.378270 0.083433 0.083973
O O6 0.500000 0.103342 0.000000
O O7 0.435661 0.000000 0.000000
O O8 0.855931 0.885041 0.720635
O O9 0.000000 0.917391 0.682826
O O10 0.893531 0.000000 0.698972
O O11 0.750000 0.808397 0.250000
O O12 0.652047 0.786983 0.128195
O O13 0.500000 0.000000 0.628242
O O14 0.413503 0.000000 0.500000
O O15 0.082811 0.750000 0.750000
O O16 0.000000 0.760398 0.622439
#
# Coordination Sequence:
#
# PCOD8285655 Si02
#       6
#    32  16  32  32  16  32
#     4  11  25  45  74 109 141 178 230 292 350 410
#     4   7  12  28  54  82 113 160 216 273 330 385
#     4   9  19  37  60  88 128 178 232 283 335 406
#     4  12  25  41  64  96 143 183 225 284 351 415
#     4   9  20  44  73 104 143 183 227 286 349 407
#     4  11  24  46  73  96 130 187 238 281 343 420
#
# _framework density 24.243186999999999
#
# number of rings (size 3 to 8) (size 9 to 14) (size 15 to 20)
#    0.000    1.800    2.000    3.000    2.800    3.200 
#    0.000    0.000    0.000    0.000    0.000    0.000 
#    0.000    0.000    0.000    0.000    0.000    0.000 
#
# Total GULP energy -495638.806302 kJ/mol
# GULP energy per Si atom -12390.970158 kJ/mol
# Density = 2.418801 g / cm^3
# Si number density = 24.243187 Si / 1000 Ang^3
#
#
#
# Elastic Constant Matrix: (Units=GPa)
#
#
# Indices 1 2 3 4 5 6 
#
# 1 180.9633 99.1386 22.2046 0.0000 0.0000 0.0000
# 2 99.1386 189.6092 31.1273 0.0000 0.0000 0.0000
# 3 22.2046 31.1273 23.4497 0.0000 0.0000 0.0000
# 4 0.0000 0.0000 0.0000 31.0510 0.0000 0.0000
# 5 0.0000 0.0000 0.0000 0.0000 7.4603 0.0000
# 6 0.0000 0.0000 0.0000 0.0000 0.0000 46.6266
#
#
#
# Elastic Compliance Matrix: (Units=1/GPa)
#
#
# Indices 1 2 3 4 5 6 
#
# 1 0.007861 -0.003693 -0.002542 0.000000 0.000000 0.000000
# 2 -0.003693 0.008478 -0.007757 0.000000 0.000000 0.000000
# 3 -0.002542 -0.007757 0.055348 0.000000 0.000000 0.000000
# 4 0.000000 0.000000 0.000000 0.032205 0.000000 0.000000
# 5 0.000000 0.000000 0.000000 0.000000 0.134043 0.000000
# 6 0.000000 0.000000 0.000000 0.000000 0.000000 0.021447
#
#
# Mechanical properties :
#
#
# Convention : Reuss Voigt Hill
#
# Bulk Modulus (GPa) = 22.88123 77.66257 50.27190
# Shear Modulus (GPa) = 16.55987 33.13103 24.84545
#
# Velocity S-wave (km/s) = 2.61640 3.70078 3.20479
# Velocity P-wave (km/s) = 4.31116 7.09686 5.87161
#
# Compressibility (1/GPa) = 0.04370395
#
# Stress axis : x y z
#
# Youngs Moduli (GPa) = 127.21086 117.94709 18.06736
#
# Poissons Ratio (x) = 0.43557 0.04592
# Poissons Ratio (y) = 0.46978 0.14016
# Poissons Ratio (z) = 0.32332 0.91496
#
# Static dielectric constant tensor:
#      x y z
#    x 4.830730 0.000000 0.000000 
#    y 0.000000 4.535310 0.000000 
#    z 0.000000 0.000000 4.699720 
# 
# 
# High freq. dielectric constant tensor:
#      x y z
#    x 1.969330 0.000000 0.000000 
#    y 0.000000 1.966600 0.000000 
#    z 0.000000 0.000000 1.944020 
# 
# From -- ./inp_files/30823.got.cif
#   From: 2010.03.12/outbox.cif.g09.slc.cpg/sg69_16_cif.got.tgz:30823.got - 2010.04.10 23:52:46.
