data_PCOD8285296
_publ_section_title
;
Structure prediction by ZEFSAII (Michael W. Deem and Ramdas Pophale) SiO2 
 PCOD8285296
Probable space group: F M M M
;
_chemical_formula_sum "Si O2"
_cell_formula_units_Z 176
_cell_length_a 18.460270
_cell_length_b 19.045963
_cell_length_c 25.737904
_cell_angle_alpha 90.000000
_cell_angle_beta 90.000000
_cell_angle_gamma 90.000000
_cell_volume 9049.282823
_symmetry_space_group_name_H-M "F M M M"
_symmetry_group_IT_number 69
_symmetry_cell_setting 'orthorhombic'
loop_
_space_group_symop_operation_xyz
x,y,z
-x,-y,z
x,-y,-z
-x,y,-z
-x,-y,-z
x,y,-z
-x,y,z
x,-y,z
x,1/2+y,1/2+z
-x,1/2-y,1/2+z
x,1/2-y,1/2-z
-x,1/2+y,1/2-z
-x,1/2-y,1/2-z
x,1/2+y,1/2-z
-x,1/2+y,1/2+z
x,1/2-y,1/2+z
1/2+x,y,1/2+z
1/2-x,-y,1/2+z
1/2+x,-y,1/2-z
1/2-x,y,1/2-z
1/2-x,-y,1/2-z
1/2+x,y,1/2-z
1/2-x,y,1/2+z
1/2+x,-y,1/2+z
1/2+x,1/2+y,z
1/2-x,1/2-y,z
1/2+x,1/2-y,-z
1/2-x,1/2+y,-z
1/2-x,1/2-y,-z
1/2+x,1/2+y,-z
1/2-x,1/2+y,z
1/2+x,1/2-y,z
loop_
_atom_site_type_symbol
_atom_site_label
_atom_site_fract_x
_atom_site_fract_y
_atom_site_fract_z
Si Si1 0.323281 0.578639 0.281723
Si Si2 0.585620 0.180108 0.718255
Si Si3 0.419357 0.222554 0.059170
Si Si4 0.867029 0.357013 0.396770
Si Si5 0.915948 0.000000 0.941708
Si Si6 0.715370 0.323490 0.375712
O O1 0.345963 0.500000 0.298917
O O2 0.250000 0.575795 0.250000
O O3 0.388229 0.610862 0.248087
O O4 0.310080 0.627884 0.329916
O O5 0.500000 0.178779 0.713576
O O6 0.611305 0.250000 0.750000
O O7 0.618626 0.176339 0.660449
O O8 0.500000 0.204621 0.081559
O O9 0.406533 0.306276 0.062240
O O10 0.355853 0.183298 0.089376
O O11 0.415427 0.198229 0.000000
O O12 0.895615 0.434571 0.405638
O O13 0.780554 0.360398 0.407408
O O14 0.000000 0.000000 0.950811
O O15 0.879651 0.000000 0.000000
O O16 0.750000 0.250000 0.355841
#
# Coordination Sequence:
#
# PCOD8285296 Si02
#       6
#    32  32  32  32  16  32
#     4  11  24  39  59  86 123 162 200 243 301 365
#     4  11  23  38  60  89 119 157 208 252 301 363
#     4  10  21  39  62  89 121 155 199 256 308 354
#     4  11  22  37  60  86 121 158 197 252 302 364
#     4  11  24  38  56  85 121 161 199 238 303 380
#     4  10  22  38  63  90 117 159 207 251 301 362
#
# _framework density 19.449055000000001
#
# number of rings (size 3 to 8) (size 9 to 14) (size 15 to 20)
#    0.000    1.364    1.818    4.364    2.545    8.000 
#    0.000    0.000    0.000    0.000    0.000    1.273 
#    0.000    0.000    0.000    0.000    0.000    0.000 
#
# Total GULP energy -545382.007241 kJ/mol
# GULP energy per Si atom -12395.045619 kJ/mol
# Density = 1.940479 g / cm^3
# Si number density = 19.449055 Si / 1000 Ang^3
#
#
#
# Elastic Constant Matrix: (Units=GPa)
#
#
# Indices 1 2 3 4 5 6 
#
# 1 141.8131 39.2539 49.2101 0.0000 0.0000 0.0000
# 2 39.2539 87.3040 48.6805 0.0000 0.0000 0.0000
# 3 49.2101 48.6805 92.3130 0.0000 0.0000 0.0000
# 4 0.0000 0.0000 0.0000 31.3100 0.0000 0.0000
# 5 0.0000 0.0000 0.0000 0.0000 28.1798 0.0000
# 6 0.0000 0.0000 0.0000 0.0000 0.0000 22.3535
#
#
#
# Elastic Compliance Matrix: (Units=1/GPa)
#
#
# Indices 1 2 3 4 5 6 
#
# 1 0.008872 -0.001915 -0.003720 0.000000 0.000000 0.000000
# 2 -0.001915 0.016639 -0.007753 0.000000 0.000000 0.000000
# 3 -0.003720 -0.007753 0.016904 0.000000 0.000000 0.000000
# 4 0.000000 0.000000 0.000000 0.031939 0.000000 0.000000
# 5 0.000000 0.000000 0.000000 0.000000 0.035486 0.000000
# 6 0.000000 0.000000 0.000000 0.000000 0.000000 0.044736
#
#
# Mechanical properties :
#
#
# Convention : Reuss Voigt Hill
#
# Bulk Modulus (GPa) = 63.94321 66.19100 65.06711
# Shear Modulus (GPa) = 26.80029 28.65439 27.72734
#
# Velocity S-wave (km/s) = 3.71613 3.84253 3.77986
# Velocity P-wave (km/s) = 7.16670 7.33441 7.25104
#
# Compressibility (1/GPa) = 0.01563888
#
# Stress axis : x y z
#
# Youngs Moduli (GPa) = 112.70871 60.10154 59.15667
#
# Poissons Ratio (x) = 0.11510 0.22005
# Poissons Ratio (y) = 0.21585 0.45866
# Poissons Ratio (z) = 0.41925 0.46598
#
# Static dielectric constant tensor:
#      x y z
#    x 3.843050 0.000000 0.000000 
#    y 0.000000 3.700930 0.000000 
#    z 0.000000 0.000000 3.519930 
# 
# 
# High freq. dielectric constant tensor:
#      x y z
#    x 1.773640 0.000000 0.000000 
#    y 0.000000 1.748150 0.000000 
#    z 0.000000 0.000000 1.752590 
# 
# From -- ./inp_files/26781.got.cif
#   From: 2010.03.12/outbox.cif.g09.slc.cpg/sg69_14_cif.got.tgz:26781.got - 2010.04.10 23:52:46.
