data_PCOD8285591
_publ_section_title
;
Structure prediction by ZEFSAII (Michael W. Deem and Ramdas Pophale) SiO2 
 PCOD8285591
Probable space group: F M M M
;
_chemical_formula_sum "Si O2"
_cell_formula_units_Z 160
_cell_length_a 21.707474
_cell_length_b 21.244363
_cell_length_c 17.428685
_cell_angle_alpha 90.000000
_cell_angle_beta 90.000000
_cell_angle_gamma 90.000000
_cell_volume 8037.437776
_symmetry_space_group_name_H-M "F M M M"
_symmetry_group_IT_number 69
_symmetry_cell_setting 'orthorhombic'
loop_
_space_group_symop_operation_xyz
x,y,z
-x,-y,z
x,-y,-z
-x,y,-z
-x,-y,-z
x,y,-z
-x,y,z
x,-y,z
x,1/2+y,1/2+z
-x,1/2-y,1/2+z
x,1/2-y,1/2-z
-x,1/2+y,1/2-z
-x,1/2-y,1/2-z
x,1/2+y,1/2-z
-x,1/2+y,1/2+z
x,1/2-y,1/2+z
1/2+x,y,1/2+z
1/2-x,-y,1/2+z
1/2+x,-y,1/2-z
1/2-x,y,1/2-z
1/2-x,-y,1/2-z
1/2+x,y,1/2-z
1/2-x,y,1/2+z
1/2+x,-y,1/2+z
1/2+x,1/2+y,z
1/2-x,1/2-y,z
1/2+x,1/2-y,-z
1/2-x,1/2+y,-z
1/2-x,1/2-y,-z
1/2+x,1/2+y,-z
1/2-x,1/2+y,z
1/2+x,1/2-y,z
loop_
_atom_site_type_symbol
_atom_site_label
_atom_site_fract_x
_atom_site_fract_y
_atom_site_fract_z
Si Si1 0.125315 0.379219 0.844723
Si Si2 0.500000 0.072861 0.909390
Si Si3 0.758638 0.928735 0.415612
Si Si4 0.180503 0.251971 0.659441
Si Si5 0.571352 0.500000 0.090452
Si Si6 0.355677 0.114130 0.334298
O O1 0.057362 0.392180 0.872707
O O2 0.170856 0.426055 0.888970
O O3 0.142971 0.308451 0.869078
O O4 0.129499 0.392670 0.754649
O O5 0.500000 0.000000 0.885486
O O6 0.500000 0.081352 0.000000
O O7 0.750316 0.897013 0.500000
O O8 0.716567 0.897847 0.350149
O O9 0.737450 0.000000 0.422842
O O10 0.188021 0.250000 0.750000
O O11 0.250000 0.250000 0.623308
O O12 0.138627 0.313155 0.637089
O O13 0.500000 0.500000 0.115396
O O14 0.601793 0.564622 0.120751
O O15 0.579360 0.500000 0.000000
#
# Coordination Sequence:
#
# PCOD8285591 Si02
#       6
#    32  16  32  32  16  32
#     4  11  23  39  66  93 123 166 221 257 305 384
#     4  11  26  46  63  88 134 171 200 257 323 375
#     4  11  22  36  57  90 131 163 202 264 330 376
#     4   9  18  38  61  94 130 159 197 267 323 365
#     4  11  26  46  63  88 132 171 212 271 331 381
#     4  11  22  38  67  92 122 161 212 265 317 369
#
# _framework density 19.906841
#
# number of rings (size 3 to 8) (size 9 to 14) (size 15 to 20)
#    0.000    1.400    3.000    2.400    4.200    2.400 
#    1.800    6.500    0.000    0.000    0.000    0.000 
#    0.000    0.000    0.000    0.000    0.000    0.000 
#
# Total GULP energy -495845.130076 kJ/mol
# GULP energy per Si atom -12396.128252 kJ/mol
# Density = 1.986153 g / cm^3
# Si number density = 19.906841 Si / 1000 Ang^3
#
#
#
# Elastic Constant Matrix: (Units=GPa)
#
#
# Indices 1 2 3 4 5 6 
#
# 1 152.7982 60.7954 51.6995 0.0000 0.0000 0.0000
# 2 60.7954 137.8666 46.7125 0.0000 0.0000 0.0000
# 3 51.6995 46.7125 81.8654 0.0000 0.0000 0.0000
# 4 0.0000 0.0000 0.0000 7.2698 0.0000 0.0000
# 5 0.0000 0.0000 0.0000 0.0000 -14.1717 0.0000
# 6 0.0000 0.0000 0.0000 0.0000 0.0000 30.8462
#
#
#
# Elastic Compliance Matrix: (Units=1/GPa)
#
#
# Indices 1 2 3 4 5 6 
#
# 1 0.008981 -0.002527 -0.004230 0.000000 0.000000 0.000000
# 2 -0.002527 0.009703 -0.003940 0.000000 0.000000 0.000000
# 3 -0.004230 -0.003940 0.017135 0.000000 0.000000 0.000000
# 4 0.000000 0.000000 0.000000 0.137556 0.000000 0.000000
# 5 0.000000 0.000000 0.000000 0.000000 -0.070563 0.000000
# 6 0.000000 0.000000 0.000000 0.000000 0.000000 0.032419
#
#
# Mechanical properties :
#
#
# Convention : Reuss Voigt Hill
#
# Bulk Modulus (GPa) = 69.32924 76.77166 73.05045
# Shear Modulus (GPa) = 30.97242 19.01037 24.99139
#
# Velocity S-wave (km/s) = 3.94873 3.09361 3.54703
# Velocity P-wave (km/s) = 7.46273 7.17006 7.31786
#
# Compressibility (1/GPa) = 0.01442393
#
# Stress axis : x y z
#
# Youngs Moduli (GPa) = 111.34231 103.06073 58.36093
#
# Poissons Ratio (x) = 0.26047 0.24685
# Poissons Ratio (y) = 0.28140 0.22997
# Poissons Ratio (z) = 0.47095 0.40611
#
# Static dielectric constant tensor:
#      x y z
#    x 3.551510 0.000000 0.000000 
#    y 0.000000 3.911130 0.000000 
#    z 0.000000 0.000000 3.596460 
# 
# 
# High freq. dielectric constant tensor:
#      x y z
#    x 1.768380 0.000000 0.000000 
#    y 0.000000 1.790010 0.000000 
#    z 0.000000 0.000000 1.770590 
# 
# From -- ./inp_files/24643.got.cif
#   From: 2010.03.12/outbox.cif.g09.slc.cpg/sg69_13_cif.got.tgz:24643.got - 2010.04.10 23:52:46.
