data_PCOD8285141
_publ_section_title
;
Structure prediction by ZEFSAII (Michael W. Deem and Ramdas Pophale) SiO2 
 PCOD8285141
Probable space group: F M M M
;
_chemical_formula_sum "Si O2"
_cell_formula_units_Z 120
_cell_length_a 14.793077
_cell_length_b 25.012127
_cell_length_c 17.656512
_cell_angle_alpha 90.000000
_cell_angle_beta 90.000000
_cell_angle_gamma 90.000000
_cell_volume 6533.021041
_symmetry_space_group_name_H-M "F M M M"
_symmetry_group_IT_number 69
_symmetry_cell_setting 'orthorhombic'
loop_
_space_group_symop_operation_xyz
x,y,z
-x,-y,z
x,-y,-z
-x,y,-z
-x,-y,-z
x,y,-z
-x,y,z
x,-y,z
x,1/2+y,1/2+z
-x,1/2-y,1/2+z
x,1/2-y,1/2-z
-x,1/2+y,1/2-z
-x,1/2-y,1/2-z
x,1/2+y,1/2-z
-x,1/2+y,1/2+z
x,1/2-y,1/2+z
1/2+x,y,1/2+z
1/2-x,-y,1/2+z
1/2+x,-y,1/2-z
1/2-x,y,1/2-z
1/2-x,-y,1/2-z
1/2+x,y,1/2-z
1/2-x,y,1/2+z
1/2+x,-y,1/2+z
1/2+x,1/2+y,z
1/2-x,1/2-y,z
1/2+x,1/2-y,-z
1/2-x,1/2+y,-z
1/2-x,1/2-y,-z
1/2+x,1/2+y,-z
1/2-x,1/2+y,z
1/2+x,1/2-y,z
loop_
_atom_site_type_symbol
_atom_site_label
_atom_site_fract_x
_atom_site_fract_y
_atom_site_fract_z
Si Si1 0.000000 0.209855 0.681685
Si Si2 0.319833 0.500000 0.088646
Si Si3 0.324581 0.209517 0.087621
Si Si4 0.000000 0.000000 0.812634
Si Si5 0.000000 0.086737 0.685381
Si Si6 0.675862 0.412160 0.412519
O O1 0.000000 0.250000 0.750000
O O2 0.914895 0.222980 0.630869
O O3 0.000000 0.148663 0.709687
O O4 0.411730 0.500000 0.135264
O O5 0.260926 0.551817 0.111129
O O6 0.344328 0.500000 0.000000
O O7 0.250000 0.250000 0.119835
O O8 0.293364 0.148694 0.101821
O O9 0.343362 0.220550 0.000000
O O10 0.000000 0.052863 0.761746
O O11 0.088352 0.072326 0.636381
O O12 0.649363 0.421775 0.500000
#
# Coordination Sequence:
#
# PCOD8285141 Si02
#       6
#    16  16  32   8  16  32
#     4  10  21  35  51  77 111 142 171 208 259 311
#     4  10  22  39  57  75 100 137 177 214 253 304
#     4   9  18  34  56  79 103 135 176 218 257 300
#     4  12  25  38  51  74 110 144 172 204 251 314
#     4  10  21  35  55  81 107 135 168 215 267 308
#     4   9  18  35  58  81 103 131 172 219 262 303
#
# _framework density 18.368224000000001
#
# number of rings (size 3 to 8) (size 9 to 14) (size 15 to 20)
#    0.000    2.400    0.000    1.800    0.000    8.000 
#    0.000    8.000    0.000    8.000    0.000    0.000 
#    0.000    0.000    0.000    0.000    0.000    0.000 
#
# Total GULP energy -372042.673127 kJ/mol
# GULP energy per Si atom -12401.422438 kJ/mol
# Density = 1.832642 g / cm^3
# Si number density = 18.368224 Si / 1000 Ang^3
#
#
#
# Elastic Constant Matrix: (Units=GPa)
#
#
# Indices 1 2 3 4 5 6 
#
# 1 178.0310 100.4156 84.8456 0.0000 0.0000 0.0000
# 2 100.4156 124.7433 68.0416 0.0000 0.0000 0.0000
# 3 84.8456 68.0416 84.8078 0.0000 0.0000 0.0000
# 4 0.0000 0.0000 0.0000 32.9640 0.0000 0.0000
# 5 0.0000 0.0000 0.0000 0.0000 63.8333 0.0000
# 6 0.0000 0.0000 0.0000 0.0000 0.0000 32.1146
#
#
#
# Elastic Compliance Matrix: (Units=1/GPa)
#
#
# Indices 1 2 3 4 5 6 
#
# 1 0.012782 -0.005893 -0.008060 0.000000 0.000000 0.000000
# 2 -0.005893 0.016971 -0.007721 0.000000 0.000000 0.000000
# 3 -0.008060 -0.007721 0.026049 0.000000 0.000000 0.000000
# 4 0.000000 0.000000 0.000000 0.030336 0.000000 0.000000
# 5 0.000000 0.000000 0.000000 0.000000 0.015666 0.000000
# 6 0.000000 0.000000 0.000000 0.000000 0.000000 0.031138
#
#
# Mechanical properties :
#
#
# Convention : Reuss Voigt Hill
#
# Bulk Modulus (GPa) = 80.28438 99.35418 89.81928
# Shear Modulus (GPa) = 27.70992 34.73434 31.22213
#
# Velocity S-wave (km/s) = 3.88826 4.35328 4.12732
# Velocity P-wave (km/s) = 7.99758 8.91492 8.46868
#
# Compressibility (1/GPa) = 0.01245572
#
# Stress axis : x y z
#
# Youngs Moduli (GPa) = 78.23581 58.92264 38.38942
#
# Poissons Ratio (x) = 0.34723 0.30940
# Poissons Ratio (y) = 0.46104 0.29639
# Poissons Ratio (z) = 0.63055 0.45492
#
# Static dielectric constant tensor:
#      x y z
#    x 3.401650 0.000000 0.000000 
#    y 0.000000 3.600680 0.000000 
#    z 0.000000 0.000000 3.297610 
# 
# 
# High freq. dielectric constant tensor:
#      x y z
#    x 1.714670 0.000000 0.000000 
#    y 0.000000 1.724220 0.000000 
#    z 0.000000 0.000000 1.705340 
# 
# From -- ./inp_files/14480.got.cif
#   From: 2010.03.12/outbox.cif.g09.slc.cpg/sg69_8_cif.got.tgz:14480.got - 2010.04.10 23:52:46.
