data_PCOD8285433
_publ_section_title
;
Structure prediction by ZEFSAII (Michael W. Deem and Ramdas Pophale) SiO2 
 PCOD8285433
Probable space group: F M M M
;
_chemical_formula_sum "Si O2"
_cell_formula_units_Z 136
_cell_length_a 21.853413
_cell_length_b 29.645094
_cell_length_c 10.599398
_cell_angle_alpha 90.000000
_cell_angle_beta 90.000000
_cell_angle_gamma 90.000000
_cell_volume 6866.782712
_symmetry_space_group_name_H-M "F M M M"
_symmetry_group_IT_number 69
_symmetry_cell_setting 'orthorhombic'
loop_
_space_group_symop_operation_xyz
x,y,z
-x,-y,z
x,-y,-z
-x,y,-z
-x,-y,-z
x,y,-z
-x,y,z
x,-y,z
x,1/2+y,1/2+z
-x,1/2-y,1/2+z
x,1/2-y,1/2-z
-x,1/2+y,1/2-z
-x,1/2-y,1/2-z
x,1/2+y,1/2-z
-x,1/2+y,1/2+z
x,1/2-y,1/2+z
1/2+x,y,1/2+z
1/2-x,-y,1/2+z
1/2+x,-y,1/2-z
1/2-x,y,1/2-z
1/2-x,-y,1/2-z
1/2+x,y,1/2-z
1/2-x,y,1/2+z
1/2+x,-y,1/2+z
1/2+x,1/2+y,z
1/2-x,1/2-y,z
1/2+x,1/2-y,-z
1/2-x,1/2+y,-z
1/2-x,1/2-y,-z
1/2+x,1/2+y,-z
1/2-x,1/2+y,z
1/2+x,1/2-y,z
loop_
_atom_site_type_symbol
_atom_site_label
_atom_site_fract_x
_atom_site_fract_y
_atom_site_fract_z
Si Si1 0.685253 0.224183 0.500000
Si Si2 0.389208 0.923608 0.359874
Si Si3 0.500000 0.450116 0.697585
Si Si4 0.000000 0.869886 0.500000
Si Si5 0.318518 0.658633 0.238500
Si Si6 0.207664 0.500000 0.632794
Si Si7 0.625170 0.687561 0.500000
O O1 0.750000 0.250000 0.500000
O O2 0.680465 0.195855 0.371294
O O3 0.625878 0.257729 0.500000
O O4 0.413636 0.912772 0.500000
O O5 0.440693 0.949260 0.283416
O O6 0.369358 0.878026 0.292986
O O7 0.331197 0.955208 0.364753
O O8 0.500000 0.500000 0.628735
O O9 0.500000 0.404901 0.614947
O O10 0.058680 0.836534 0.500000
O O11 0.250000 0.638357 0.250000
O O12 0.336349 0.676084 0.375875
O O13 0.245328 0.500000 0.500000
O O14 0.250000 0.500000 0.750000
#
# Coordination Sequence:
#
# PCOD8285433 Si02
#       7
#    16  32  16   8  32  16  16
#     4  12  24  44  71 102 136 174 233 282 338 407
#     4  11  23  41  67  98 130 174 226 284 334 401
#     4  12  24  46  72  94 128 179 238 278 335 401
#     4  12  27  50  64 100 144 178 228 283 346 420
#     4  12  23  42  69 102 139 175 225 279 340 406
#     4  10  22  43  63  94 138 171 216 274 347 410
#     4  12  26  43  70 100 138 182 223 285 341 397
#
# _framework density 19.805491
#
# number of rings (size 3 to 8) (size 9 to 14) (size 15 to 20)
#    0.000    0.471    7.059    1.941    0.000    0.471 
#    4.235    3.529    0.000    0.000    0.000    0.000 
#    0.000    0.000    0.000    0.000    0.000    0.000 
#
# Total GULP energy -421305.649915 kJ/mol
# GULP energy per Si atom -12391.342645 kJ/mol
# Density = 1.976041 g / cm^3
# Si number density = 19.805491 Si / 1000 Ang^3
#
#
#
# Elastic Constant Matrix: (Units=GPa)
#
#
# Indices 1 2 3 4 5 6 
#
# 1 97.9055 35.8168 47.2960 0.0000 0.0000 0.0000
# 2 35.8168 113.0354 39.6081 0.0000 0.0001 0.0000
# 3 47.2960 39.6081 166.4753 0.0001 0.0002 0.0000
# 4 0.0000 0.0000 0.0001 39.0145 -0.0002 0.0000
# 5 0.0000 0.0001 0.0002 -0.0002 -84.0097 0.0000
# 6 0.0000 0.0000 0.0000 0.0000 0.0000 37.8313
#
#
#
# Elastic Compliance Matrix: (Units=1/GPa)
#
#
# Indices 1 2 3 4 5 6 
#
# 1 0.012715 -0.003015 -0.002895 0.000000 0.000000 0.000000
# 2 -0.003015 0.010366 -0.001610 0.000000 0.000000 0.000000
# 3 -0.002895 -0.001610 0.007212 0.000000 0.000000 0.000000
# 4 0.000000 0.000000 0.000000 0.025631 0.000000 0.000000
# 5 0.000000 0.000000 0.000000 0.000000 -0.011903 0.000000
# 6 0.000000 0.000000 0.000000 0.000000 0.000000 0.026433
#
#
# Mechanical properties :
#
#
# Convention : Reuss Voigt Hill
#
# Bulk Modulus (GPa) = 65.55393 69.20643 67.38018
# Shear Modulus (GPa) = 55.20023 15.54691 35.37357
#
# Velocity S-wave (km/s) = 5.28504 2.80479 4.23075
# Velocity P-wave (km/s) = 8.39124 6.74596 7.61318
#
# Compressibility (1/GPa) = 0.01525462
#
# Stress axis : x y z
#
# Youngs Moduli (GPa) = 78.64504 96.46838 138.64878
#
# Poissons Ratio (x) = 0.29081 0.40142
# Poissons Ratio (y) = 0.23708 0.22321
# Poissons Ratio (z) = 0.22770 0.15530
#
# Static dielectric constant tensor:
#      x y z
#    x 3.552010 0.000000 0.000000 
#    y 0.000000 3.871050 0.000000 
#    z 0.000000 0.000000 3.387490 
# 
# 
# High freq. dielectric constant tensor:
#      x y z
#    x 1.760410 0.000000 0.000000 
#    y 0.000000 1.784360 0.000000 
#    z 0.000000 0.000000 1.797030 
# 
# From -- ./inp_files/9529.got.cif
#   From: 2010.03.12/outbox.cif.g09.slc.cpg/sg69_5_cif.got.tgz:9529.got - 2010.04.10 23:52:46.
