data_PCOD8285434
_publ_section_title
;
Structure prediction by ZEFSAII (Michael W. Deem and Ramdas Pophale) SiO2 
 PCOD8285434
Probable space group: F M M M
;
_chemical_formula_sum "Si O2"
_cell_formula_units_Z 160
_cell_length_a 26.275040
_cell_length_b 16.021471
_cell_length_c 17.915294
_cell_angle_alpha 90.000000
_cell_angle_beta 90.000000
_cell_angle_gamma 90.000000
_cell_volume 7541.708001
_symmetry_space_group_name_H-M "F M M M"
_symmetry_group_IT_number 69
_symmetry_cell_setting 'orthorhombic'
loop_
_space_group_symop_operation_xyz
x,y,z
-x,-y,z
x,-y,-z
-x,y,-z
-x,-y,-z
x,y,-z
-x,y,z
x,-y,z
x,1/2+y,1/2+z
-x,1/2-y,1/2+z
x,1/2-y,1/2-z
-x,1/2+y,1/2-z
-x,1/2-y,1/2-z
x,1/2+y,1/2-z
-x,1/2+y,1/2+z
x,1/2-y,1/2+z
1/2+x,y,1/2+z
1/2-x,-y,1/2+z
1/2+x,-y,1/2-z
1/2-x,y,1/2-z
1/2-x,-y,1/2-z
1/2+x,y,1/2-z
1/2-x,y,1/2+z
1/2+x,-y,1/2+z
1/2+x,1/2+y,z
1/2-x,1/2-y,z
1/2+x,1/2-y,-z
1/2-x,1/2+y,-z
1/2-x,1/2-y,-z
1/2+x,1/2+y,-z
1/2-x,1/2+y,z
1/2+x,1/2-y,z
loop_
_atom_site_type_symbol
_atom_site_label
_atom_site_fract_x
_atom_site_fract_y
_atom_site_fract_z
Si Si1 0.058707 0.856580 0.331047
Si Si2 0.121930 0.000000 0.589559
Si Si3 0.652058 0.404005 0.084317
Si Si4 0.557808 0.835890 0.340950
Si Si5 0.692680 0.000000 0.785094
Si Si6 0.807214 0.665708 0.278029
O O1 0.092577 0.917807 0.381761
O O2 0.072868 0.860299 0.243474
O O3 0.066689 0.761709 0.358060
O O4 0.000000 0.882950 0.341685
O O5 0.126706 0.000000 0.500000
O O6 0.179911 0.000000 0.625692
O O7 0.666748 0.500000 0.099148
O O8 0.593185 0.389113 0.104185
O O9 0.688787 0.343247 0.132779
O O10 0.662462 0.378462 0.000000
O O11 0.500000 0.861157 0.357751
O O12 0.750000 0.000000 0.750000
O O13 0.665083 0.083868 0.755619
O O14 0.835596 0.750000 0.250000
O O15 0.750000 0.669559 0.250000
#
# Coordination Sequence:
#
# PCOD8285434 Si02
#       6
#    32  16  32  32  16  32
#     4   9  20  38  61  90 124 167 217 258 302 368
#     4  12  25  38  58  95 134 168 204 258 329 387
#     4  11  24  39  60  94 130 165 206 262 323 374
#     4   9  20  39  62  88 122 170 219 260 301 362
#     4  10  22  43  65  90 123 163 218 256 309 387
#     4  10  22  43  70  94 117 160 213 262 320 385
#
# _framework density 21.215353
#
# number of rings (size 3 to 8) (size 9 to 14) (size 15 to 20)
#    0.000    2.000    1.000    2.700    7.000    2.400 
#    0.000    9.000    0.000    0.000    0.000    0.000 
#    0.000    0.000    0.000    0.000    0.000    0.000 
#
# Total GULP energy -495552.991770 kJ/mol
# GULP energy per Si atom -12388.824794 kJ/mol
# Density = 2.116707 g / cm^3
# Si number density = 21.215353 Si / 1000 Ang^3
#
#
#
# Elastic Constant Matrix: (Units=GPa)
#
#
# Indices 1 2 3 4 5 6 
#
# 1 97.6452 31.9916 56.5406 0.0000 0.0000 0.0000
# 2 31.9916 123.7537 85.0184 0.0000 0.0000 0.0000
# 3 56.5406 85.0184 172.8620 0.0000 0.0000 0.0000
# 4 0.0000 0.0000 0.0000 30.2461 0.0000 0.0000
# 5 0.0000 0.0000 0.0000 0.0000 25.3029 0.0000
# 6 0.0000 0.0000 0.0000 0.0000 0.0000 5.1426
#
#
#
# Elastic Compliance Matrix: (Units=1/GPa)
#
#
# Indices 1 2 3 4 5 6 
#
# 1 0.012668 -0.000647 -0.003825 0.000000 0.000000 0.000000
# 2 -0.000647 0.012237 -0.005807 0.000000 0.000000 0.000000
# 3 -0.003825 -0.005807 0.009892 0.000000 0.000000 0.000000
# 4 0.000000 0.000000 0.000000 0.033062 0.000000 0.000000
# 5 0.000000 0.000000 0.000000 0.000000 0.039521 0.000000
# 6 0.000000 0.000000 0.000000 0.000000 0.000000 0.194454
#
#
# Mechanical properties :
#
#
# Convention : Reuss Voigt Hill
#
# Bulk Modulus (GPa) = 70.22930 82.37356 76.30143
# Shear Modulus (GPa) = 15.28396 26.85234 21.06815
#
# Velocity S-wave (km/s) = 2.68698 3.56153 3.15471
# Velocity P-wave (km/s) = 6.54228 7.47157 7.02231
#
# Compressibility (1/GPa) = 0.01423907
#
# Stress axis : x y z
#
# Youngs Moduli (GPa) = 78.93803 81.71815 101.08892
#
# Poissons Ratio (x) = 0.05285 0.38671
# Poissons Ratio (y) = 0.05105 0.58703
# Poissons Ratio (z) = 0.30197 0.47454
#
# Static dielectric constant tensor:
#      x y z
#    x 3.724110 0.000000 0.000000 
#    y 0.000000 6.017550 0.000000 
#    z 0.000000 0.000000 3.669580 
# 
# 
# High freq. dielectric constant tensor:
#      x y z
#    x 1.834170 0.000000 0.000000 
#    y 0.000000 1.848590 0.000000 
#    z 0.000000 0.000000 1.806710 
# 
# From -- ./inp_files/19562.got.cif
#   From: 2010.03.12/outbox.cif.g09.slc.cpg/sg69_10_cif.got.tgz:19562.got - 2010.04.10 23:52:46.
