data_PCOD8285260
_publ_section_title
;
Structure prediction by ZEFSAII (Michael W. Deem and Ramdas Pophale) SiO2 
 PCOD8285260
Probable space group: F M M M
;
_chemical_formula_sum "Si O2"
_cell_formula_units_Z 176
_cell_length_a 28.401967
_cell_length_b 18.780969
_cell_length_c 17.466918
_cell_angle_alpha 90.000000
_cell_angle_beta 90.000000
_cell_angle_gamma 90.000000
_cell_volume 9317.141598
_symmetry_space_group_name_H-M "F M M M"
_symmetry_group_IT_number 69
_symmetry_cell_setting 'orthorhombic'
loop_
_space_group_symop_operation_xyz
x,y,z
-x,-y,z
x,-y,-z
-x,y,-z
-x,-y,-z
x,y,-z
-x,y,z
x,-y,z
x,1/2+y,1/2+z
-x,1/2-y,1/2+z
x,1/2-y,1/2-z
-x,1/2+y,1/2-z
-x,1/2-y,1/2-z
x,1/2+y,1/2-z
-x,1/2+y,1/2+z
x,1/2-y,1/2+z
1/2+x,y,1/2+z
1/2-x,-y,1/2+z
1/2+x,-y,1/2-z
1/2-x,y,1/2-z
1/2-x,-y,1/2-z
1/2+x,y,1/2-z
1/2-x,y,1/2+z
1/2+x,-y,1/2+z
1/2+x,1/2+y,z
1/2-x,1/2-y,z
1/2+x,1/2-y,-z
1/2-x,1/2+y,-z
1/2-x,1/2-y,-z
1/2+x,1/2+y,-z
1/2-x,1/2+y,z
1/2+x,1/2-y,z
loop_
_atom_site_type_symbol
_atom_site_label
_atom_site_fract_x
_atom_site_fract_y
_atom_site_fract_z
Si Si1 0.055771 0.661184 0.148986
Si Si2 0.444020 0.079333 0.000000
Si Si3 0.290232 0.701508 0.912982
Si Si4 0.603466 0.702291 0.909882
Si Si5 0.896046 0.582864 0.289680
Si Si6 0.709957 0.920024 0.304123
O O1 0.074922 0.618707 0.075244
O O2 0.071531 0.742809 0.138052
O O3 0.075248 0.623473 0.224437
O O4 0.000000 0.659572 0.154985
O O5 0.500000 0.078415 0.000000
O O6 0.423232 0.000000 0.000000
O O7 0.250000 0.750000 0.872254
O O8 0.343043 0.731555 0.901370
O O9 0.288647 0.621894 0.882676
O O10 0.276162 0.694030 0.000000
O O11 0.596668 0.624634 0.870413
O O12 0.589137 0.696719 0.000000
O O13 0.912486 0.500000 0.298859
O O14 0.841320 0.585563 0.264916
O O15 0.750000 0.886980 0.250000
O O16 0.723190 0.000000 0.325844
#
# Coordination Sequence:
#
# PCOD8285260 Si02
#       6
#    32  16  32  32  32  32
#     4  11  22  38  59  84 117 151 190 239 286 341
#     4   9  18  34  58  84 110 149 193 233 285 340
#     4   9  19  34  54  80 109 144 185 231 276 329
#     4  10  21  38  59  85 115 150 193 238 287 343
#     4  10  22  38  58  85 115 150 194 239 286 342
#     4   9  19  35  54  78 110 146 184 228 279 332
#
# _framework density 18.889914000000001
#
# number of rings (size 3 to 8) (size 9 to 14) (size 15 to 20)
#    0.000    2.273    0.909    1.091    2.545    3.636 
#    0.000    3.636    0.000    0.000    0.000    2.545 
#    0.000    0.000    0.000    0.000    0.000    0.000 
#
# Total GULP energy -545381.836792 kJ/mol
# GULP energy per Si atom -12395.041745 kJ/mol
# Density = 1.884692 g / cm^3
# Si number density = 18.889914 Si / 1000 Ang^3
#
#
#
# Elastic Constant Matrix: (Units=GPa)
#
#
# Indices 1 2 3 4 5 6 
#
# 1 79.0186 43.6123 45.0911 0.0000 0.0000 0.0000
# 2 43.6123 119.9257 59.2038 0.0000 0.0000 0.0000
# 3 45.0911 59.2038 94.8767 0.0000 0.0000 0.0000
# 4 0.0000 0.0000 0.0000 32.1419 0.0000 0.0000
# 5 0.0000 0.0000 0.0000 0.0000 26.1218 0.0000
# 6 0.0000 0.0000 0.0000 0.0000 0.0000 25.9767
#
#
#
# Elastic Compliance Matrix: (Units=1/GPa)
#
#
# Indices 1 2 3 4 5 6 
#
# 1 0.018281 -0.003409 -0.006561 0.000000 0.000000 0.000000
# 2 -0.003409 0.012687 -0.006296 0.000000 0.000000 0.000000
# 3 -0.006561 -0.006296 0.017587 0.000000 0.000000 0.000000
# 4 0.000000 0.000000 0.000000 0.031112 0.000000 0.000000
# 5 0.000000 0.000000 0.000000 0.000000 0.038282 0.000000
# 6 0.000000 0.000000 0.000000 0.000000 0.000000 0.038496
#
#
# Mechanical properties :
#
#
# Convention : Reuss Voigt Hill
#
# Bulk Modulus (GPa) = 62.41465 65.51506 63.96486
# Shear Modulus (GPa) = 25.73111 26.57567 26.15339
#
# Velocity S-wave (km/s) = 3.69475 3.75490 3.72495
# Velocity P-wave (km/s) = 7.16342 7.31826 7.24125
#
# Compressibility (1/GPa) = 0.01602188
#
# Stress axis : x y z
#
# Youngs Moduli (GPa) = 54.70267 78.82361 56.86016
#
# Poissons Ratio (x) = 0.26872 0.37305
# Poissons Ratio (y) = 0.18649 0.35801
# Poissons Ratio (z) = 0.35889 0.49630
#
# Static dielectric constant tensor:
#      x y z
#    x 3.540970 0.000000 0.000000 
#    y 0.000000 3.585440 0.000000 
#    z 0.000000 0.000000 3.454290 
# 
# 
# High freq. dielectric constant tensor:
#      x y z
#    x 1.729750 0.000000 0.000000 
#    y 0.000000 1.738520 0.000000 
#    z 0.000000 0.000000 1.729620 
# 
# From -- ./inp_files/26737.got.cif
#   From: 2010.03.12/outbox.cif.g09.slc.cpg/sg69_14_cif.got.tgz:26737.got - 2010.04.10 23:52:46.
