data_PCOD8285635
_publ_section_title
;
Structure prediction by ZEFSAII (Michael W. Deem and Ramdas Pophale) SiO2 
 PCOD8285635
Probable space group: F M M M
;
_chemical_formula_sum "Si O2"
_cell_formula_units_Z 104
_cell_length_a 18.917017
_cell_length_b 28.860592
_cell_length_c 8.882726
_cell_angle_alpha 90.000000
_cell_angle_beta 90.000000
_cell_angle_gamma 90.000000
_cell_volume 4849.580305
_symmetry_space_group_name_H-M "F M M M"
_symmetry_group_IT_number 69
_symmetry_cell_setting 'orthorhombic'
loop_
_space_group_symop_operation_xyz
x,y,z
-x,-y,z
x,-y,-z
-x,y,-z
-x,-y,-z
x,y,-z
-x,y,z
x,-y,z
x,1/2+y,1/2+z
-x,1/2-y,1/2+z
x,1/2-y,1/2-z
-x,1/2+y,1/2-z
-x,1/2-y,1/2-z
x,1/2+y,1/2-z
-x,1/2+y,1/2+z
x,1/2-y,1/2+z
1/2+x,y,1/2+z
1/2-x,-y,1/2+z
1/2+x,-y,1/2-z
1/2-x,y,1/2-z
1/2-x,-y,1/2-z
1/2+x,y,1/2-z
1/2-x,y,1/2+z
1/2+x,-y,1/2+z
1/2+x,1/2+y,z
1/2-x,1/2-y,z
1/2+x,1/2-y,-z
1/2-x,1/2+y,-z
1/2-x,1/2-y,-z
1/2+x,1/2+y,-z
1/2-x,1/2+y,z
1/2+x,1/2-y,z
loop_
_atom_site_type_symbol
_atom_site_label
_atom_site_fract_x
_atom_site_fract_y
_atom_site_fract_z
Si Si1 0.250000 0.750000 0.750000
Si Si2 0.000000 0.200512 0.678938
Si Si3 0.577551 0.000000 0.821702
Si Si4 0.818554 0.078888 0.320930
Si Si5 0.857455 0.827819 0.830318
O O1 0.195910 0.783588 0.839728
O O2 0.000000 0.250000 0.750000
O O3 0.071762 0.176741 0.732258
O O4 0.000000 0.202630 0.500000
O O5 0.615875 0.047100 0.770315
O O6 0.500000 0.000000 0.748035
O O7 0.573277 0.000000 0.000000
O O8 0.812672 0.083685 0.500000
O O9 0.750000 0.053880 0.250000
O O10 0.819262 0.129177 0.245684
O O11 0.880218 0.839161 0.000000
#
# Coordination Sequence:
#
# PCOD8285635 Si02
#       5
#     8  16  16  32  32
#     4  12  26  42  72  96 138 178 230 268 338 388
#     4  12  26  44  66  93 132 179 226 276 337 399
#     4   9  21  42  67  97 130 175 225 277 336 406
#     4  11  23  41  68  98 133 175 223 276 338 401
#     4  12  26  44  68  99 136 176 228 280 336 400
#
# _framework density 21.445155
#
# number of rings (size 3 to 8) (size 9 to 14) (size 15 to 20)
#    0.000    0.769    3.077    4.154    2.154    2.462 
#    0.000    2.308    0.000    3.692    0.000    0.000 
#    0.000    0.000    0.000    0.000    0.000    0.000 
#
# Total GULP energy -322216.718979 kJ/mol
# GULP energy per Si atom -12392.950730 kJ/mol
# Density = 2.139635 g / cm^3
# Si number density = 21.445155 Si / 1000 Ang^3
#
#
#
# Elastic Constant Matrix: (Units=GPa)
#
#
# Indices 1 2 3 4 5 6 
#
# 1 178.1822 59.7002 55.7218 0.0000 -0.0001 0.0000
# 2 59.7002 125.0123 39.9539 0.0000 0.0000 0.0000
# 3 55.7218 39.9539 155.7850 0.0001 -0.0004 0.0000
# 4 0.0000 0.0000 0.0001 10.0044 0.0000 -0.0001
# 5 -0.0001 0.0000 -0.0004 0.0000 29.8029 0.0000
# 6 0.0000 0.0000 0.0000 -0.0001 0.0000 41.8663
#
#
#
# Elastic Compliance Matrix: (Units=1/GPa)
#
#
# Indices 1 2 3 4 5 6 
#
# 1 0.007128 -0.002820 -0.001826 0.000000 0.000000 0.000000
# 2 -0.002820 0.009829 -0.001512 0.000000 0.000000 0.000000
# 3 -0.001826 -0.001512 0.007460 0.000000 0.000000 0.000000
# 4 0.000000 0.000000 0.000000 0.099956 0.000000 0.000000
# 5 0.000000 0.000000 0.000000 0.000000 0.033554 0.000000
# 6 0.000000 0.000000 0.000000 0.000000 0.000000 0.023886
#
#
# Mechanical properties :
#
#
# Convention : Reuss Voigt Hill
#
# Bulk Modulus (GPa) = 82.64385 85.52569 84.08477
# Shear Modulus (GPa) = 25.23151 36.57496 30.90324
#
# Velocity S-wave (km/s) = 3.43382 4.13426 3.80022
# Velocity P-wave (km/s) = 7.37174 7.92195 7.65179
#
# Compressibility (1/GPa) = 0.01210011
#
# Stress axis : x y z
#
# Youngs Moduli (GPa) = 140.28425 101.73548 134.04543
#
# Poissons Ratio (x) = 0.28694 0.24481
# Poissons Ratio (y) = 0.39567 0.20269
# Poissons Ratio (z) = 0.25621 0.15383
#
# Static dielectric constant tensor:
#      x y z
#    x 3.902610 0.000000 0.000000 
#    y 0.000000 3.878330 0.000000 
#    z 0.000000 0.000000 3.441110 
# 
# 
# High freq. dielectric constant tensor:
#      x y z
#    x 1.866900 0.000000 0.000000 
#    y 0.000000 1.846100 0.000000 
#    z 0.000000 0.000000 1.830780 
# 
# From -- ./inp_files/2990.got.cif
#   From: 2010.03.12/outbox.cif.g09.slc.cpg/sg69_2_cif.got.tgz:2990.got - 2010.04.10 23:52:46.
