data_PCOD8285956
_publ_section_title
;
Structure prediction by ZEFSAII (Michael W. Deem and Ramdas Pophale) SiO2 
 PCOD8285956
Probable space group: F D D D
;
_chemical_formula_sum "Si O2"
_cell_formula_units_Z 160
_cell_length_a 15.473534
_cell_length_b 23.162770
_cell_length_c 21.641839
_cell_angle_alpha 90.000000
_cell_angle_beta 90.000000
_cell_angle_gamma 90.000000
_cell_volume 7756.649549
_symmetry_space_group_name_H-M "F D D D"
_symmetry_group_IT_number 70
_space_group.IT_coordinate_system_code '2'
_symmetry_cell_setting 'orthorhombic'
loop_
_space_group_symop_operation_xyz
x,y,z
1/4-x,1/4-y,z
x,1/4-y,1/4-z
1/4-x,y,1/4-z
-x,-y,-z
3/4+x,3/4+y,-z
-x,3/4+y,3/4+z
3/4+x,-y,3/4+z
x,1/2+y,1/2+z
1/4-x,3/4-y,1/2+z
x,3/4-y,3/4-z
1/4-x,1/2+y,3/4-z
-x,1/2-y,1/2-z
3/4+x,1/4+y,1/2-z
-x,1/4+y,1/4+z
3/4+x,1/2-y,1/4+z
1/2+x,y,1/2+z
3/4-x,1/4-y,1/2+z
1/2+x,1/4-y,3/4-z
3/4-x,y,3/4-z
1/2-x,-y,1/2-z
1/4+x,3/4+y,1/2-z
1/2-x,3/4+y,1/4+z
1/4+x,-y,1/4+z
1/2+x,1/2+y,z
3/4-x,3/4-y,z
1/2+x,3/4-y,1/4-z
3/4-x,1/2+y,1/4-z
1/2-x,1/2-y,-z
1/4+x,1/4+y,-z
1/2-x,1/4+y,3/4+z
1/4+x,1/2-y,3/4+z
loop_
_atom_site_type_symbol
_atom_site_label
_atom_site_fract_x
_atom_site_fract_y
_atom_site_fract_z
Si Si1 0.859644 0.556165 0.765454
Si Si2 0.375000 0.875000 0.515174
Si Si3 0.375000 0.121254 0.375000
Si Si4 0.256140 0.572614 0.580444
Si Si5 0.591827 0.567233 0.487448
Si Si6 0.709506 0.052425 0.873004
O O1 0.909410 0.588575 0.819798
O O2 0.899671 0.576189 0.700724
O O3 0.759940 0.571036 0.766661
O O4 0.874120 0.487753 0.776089
O O5 0.316896 0.918903 0.473040
O O6 0.318777 0.828659 0.556184
O O7 0.455826 0.084588 0.351601
O O8 0.241045 0.625000 0.625000
O O9 0.257439 0.514415 0.622812
O O10 0.625000 0.625000 0.521357
O O11 0.629160 0.563837 0.418036
#
# Coordination Sequence:
#
# PCOD8285956 Si02
#       6
#    32  16  16  32  32  32
#     4  10  22  39  66  93 129 170 222 277 336 402
#     4  12  23  46  70  98 138 181 226 284 340 412
#     4  12  20  40  66 100 126 180 222 272 334 420
#     4  11  27  45  63 101 138 174 228 285 340 414
#     4  10  19  41  64  93 130 170 219 283 329 400
#     4  11  24  41  68  97 132 179 225 274 341 407
#
# _framework density 20.627462999999999
#
# number of rings (size 3 to 8) (size 9 to 14) (size 15 to 20)
#    0.000    1.200    5.000    0.300    2.800    2.400 
#    0.000    0.500    0.000    0.000    0.000    0.000 
#    0.000    0.000    0.000    0.000    0.000    0.000 
#
# Total GULP energy -495541.738184 kJ/mol
# GULP energy per Si atom -12388.543455 kJ/mol
# Density = 2.058051 g / cm^3
# Si number density = 20.627463 Si / 1000 Ang^3
#
#
#
# Elastic Constant Matrix: (Units=GPa)
#
#
# Indices 1 2 3 4 5 6 
#
# 1 100.1445 44.3757 38.9869 0.0000 0.0000 0.0000
# 2 44.3757 162.9914 66.8430 0.0000 0.0000 0.0000
# 3 38.9869 66.8430 85.2825 0.0000 0.0000 0.0000
# 4 0.0000 0.0000 0.0000 46.8622 0.0000 0.0000
# 5 0.0000 0.0000 0.0000 0.0000 22.0738 0.0000
# 6 0.0000 0.0000 0.0000 0.0000 0.0000 30.3708
#
#
#
# Elastic Compliance Matrix: (Units=1/GPa)
#
#
# Indices 1 2 3 4 5 6 
#
# 1 0.012408 -0.001550 -0.004457 0.000000 0.000000 0.000000
# 2 -0.001550 0.009235 -0.006530 0.000000 0.000000 0.000000
# 3 -0.004457 -0.006530 0.018881 0.000000 0.000000 0.000000
# 4 0.000000 0.000000 0.000000 0.021339 0.000000 0.000000
# 5 0.000000 0.000000 0.000000 0.000000 0.045303 0.000000
# 6 0.000000 0.000000 0.000000 0.000000 0.000000 0.032926
#
#
# Mechanical properties :
#
#
# Convention : Reuss Voigt Hill
#
# Bulk Modulus (GPa) = 64.72518 72.09220 68.40869
# Shear Modulus (GPa) = 29.35714 33.07555 31.21635
#
# Velocity S-wave (km/s) = 3.77663 4.00868 3.89439
# Velocity P-wave (km/s) = 7.10377 7.51342 7.31147
#
# Compressibility (1/GPa) = 0.01544994
#
# Stress axis : x y z
#
# Youngs Moduli (GPa) = 80.59518 108.28146 52.96274
#
# Poissons Ratio (x) = 0.16786 0.23606
# Poissons Ratio (y) = 0.12494 0.34583
# Poissons Ratio (z) = 0.35923 0.70705
#
# Static dielectric constant tensor:
#      x y z
#    x 2.279370 0.000000 0.000000 
#    y 0.000000 4.310320 0.000000 
#    z 0.000000 0.000000 3.606800 
# 
# 
# High freq. dielectric constant tensor:
#      x y z
#    x 1.818090 0.000000 0.000000 
#    y 0.000000 1.824040 0.000000 
#    z 0.000000 0.000000 1.784950 
# 
# From -- ./inp_files/28676.got.cif
#   From: 2010.03.12/outbox.cif.g09.slc.cpg/sg70_15_cif.got.tgz:28676.got - 2010.04.16 13:46:32.
