data_PCOD8285056
_publ_section_title
;
Structure prediction by ZEFSAII (Michael W. Deem and Ramdas Pophale) SiO2 
 PCOD8285056
Probable space group: F M M M
;
_chemical_formula_sum "Si O2"
_cell_formula_units_Z 224
_cell_length_a 31.163900
_cell_length_b 19.417919
_cell_length_c 17.962919
_cell_angle_alpha 90.000000
_cell_angle_beta 90.000000
_cell_angle_gamma 90.000000
_cell_volume 10870.046421
_symmetry_space_group_name_H-M "F M M M"
_symmetry_group_IT_number 69
_symmetry_cell_setting 'orthorhombic'
loop_
_space_group_symop_operation_xyz
x,y,z
-x,-y,z
x,-y,-z
-x,y,-z
-x,-y,-z
x,y,-z
-x,y,z
x,-y,z
x,1/2+y,1/2+z
-x,1/2-y,1/2+z
x,1/2-y,1/2-z
-x,1/2+y,1/2-z
-x,1/2-y,1/2-z
x,1/2+y,1/2-z
-x,1/2+y,1/2+z
x,1/2-y,1/2+z
1/2+x,y,1/2+z
1/2-x,-y,1/2+z
1/2+x,-y,1/2-z
1/2-x,y,1/2-z
1/2-x,-y,1/2-z
1/2+x,y,1/2-z
1/2-x,y,1/2+z
1/2+x,-y,1/2+z
1/2+x,1/2+y,z
1/2-x,1/2-y,z
1/2+x,1/2-y,-z
1/2-x,1/2+y,-z
1/2-x,1/2-y,-z
1/2+x,1/2+y,-z
1/2-x,1/2+y,z
1/2+x,1/2-y,z
loop_
_atom_site_type_symbol
_atom_site_label
_atom_site_fract_x
_atom_site_fract_y
_atom_site_fract_z
Si Si1 0.952072 0.290592 0.415580
Si Si2 0.798765 0.259276 0.586039
Si Si3 0.629404 0.642510 0.154118
Si Si4 0.814354 0.397230 0.084757
Si Si5 0.548492 0.628142 0.418064
Si Si6 0.350070 0.500000 0.087864
Si Si7 0.885459 0.424759 0.804050
Si Si8 0.256191 0.500000 0.913244
O O1 0.943912 0.315363 0.500000
O O2 0.915051 0.320088 0.363673
O O3 0.948995 0.209403 0.410406
O O4 0.000000 0.314585 0.389744
O O5 0.797538 0.284486 0.500000
O O6 0.750000 0.250000 0.616529
O O7 0.828111 0.313395 0.631670
O O8 0.819374 0.184402 0.593658
O O9 0.626699 0.569273 0.113609
O O10 0.628999 0.631194 0.242897
O O11 0.848842 0.433348 0.135273
O O12 0.768433 0.429368 0.109388
O O13 0.822791 0.419257 0.000000
O O14 0.567588 0.607395 0.500000
O O15 0.500000 0.601812 0.413750
O O16 0.571922 0.595354 0.347971
O O17 0.302563 0.500000 0.125772
O O18 0.349424 0.500000 0.000000
O O19 0.892220 0.500000 0.766470
O O20 0.265408 0.500000 0.000000
#
# Coordination Sequence:
#
# PCOD8285056 Si02
#       8
#    32  32  32  32  32  16  32  16
#     4   9  19  39  67  96 122 153 201 259 318 380
#     4  10  21  39  65  94 120 152 208 274 324 370
#     4  12  24  40  58  89 129 169 208 258 318 379
#     4  10  20  37  62  89 115 153 202 254 315 375
#     4   9  20  40  67  96 122 156 206 264 326 388
#     4  11  22  39  62  83 112 163 218 257 305 366
#     4  12  25  40  55  84 128 170 208 250 308 378
#     4   9  18  35  61  88 113 148 199 255 306 373
#
# _framework density 20.607088000000001
#
# number of rings (size 3 to 8) (size 9 to 14) (size 15 to 20)
#    0.000    1.714    1.429    4.286    0.000    8.571 
#    0.000    6.786    0.000    1.286    0.000    0.000 
#    0.000    0.000    0.000    0.000    0.000    0.000 
#
# Total GULP energy -694095.530220 kJ/mol
# GULP energy per Si atom -12394.563040 kJ/mol
# Density = 2.056019 g / cm^3
# Si number density = 20.607088 Si / 1000 Ang^3
#
#
#
# Elastic Constant Matrix: (Units=GPa)
#
#
# Indices 1 2 3 4 5 6 
#
# 1 116.5195 28.8814 46.7855 0.0000 0.0000 0.0000
# 2 28.8814 79.2563 35.5695 0.0000 0.0000 0.0000
# 3 46.7855 35.5695 94.9614 0.0000 0.0000 0.0000
# 4 0.0000 0.0000 0.0000 28.9202 0.0000 0.0000
# 5 0.0000 0.0000 0.0000 0.0000 8.6625 0.0000
# 6 0.0000 0.0000 0.0000 0.0000 0.0000 52.9904
#
#
#
# Elastic Compliance Matrix: (Units=1/GPa)
#
#
# Indices 1 2 3 4 5 6 
#
# 1 0.010927 -0.001882 -0.004679 0.000000 0.000000 0.000000
# 2 -0.001882 0.015491 -0.004875 0.000000 0.000000 0.000000
# 3 -0.004679 -0.004875 0.014662 0.000000 0.000000 0.000000
# 4 0.000000 0.000000 0.000000 0.034578 0.000000 0.000000
# 5 0.000000 0.000000 0.000000 0.000000 0.115441 0.000000
# 6 0.000000 0.000000 0.000000 0.000000 0.000000 0.018871
#
#
# Mechanical properties :
#
#
# Convention : Reuss Voigt Hill
#
# Bulk Modulus (GPa) = 54.92043 57.02331 55.97187
# Shear Modulus (GPa) = 20.92823 30.08132 25.50478
#
# Velocity S-wave (km/s) = 3.19028 3.82482 3.52187
# Velocity P-wave (km/s) = 6.34662 6.87295 6.61502
#
# Compressibility (1/GPa) = 0.01820816
#
# Stress axis : x y z
#
# Youngs Moduli (GPa) = 91.51294 64.55316 68.20466
#
# Poissons Ratio (x) = 0.12151 0.31911
# Poissons Ratio (y) = 0.17225 0.33251
# Poissons Ratio (z) = 0.42816 0.31470
#
# Static dielectric constant tensor:
#      x y z
#    x 3.942020 0.000000 0.000000 
#    y 0.000000 3.756880 0.000000 
#    z 0.000000 0.000000 3.593680 
# 
# 
# High freq. dielectric constant tensor:
#      x y z
#    x 1.809900 0.000000 0.000000 
#    y 0.000000 1.811750 0.000000 
#    z 0.000000 0.000000 1.786680 
# 
# From -- ./inp_files/27968.got.cif
#   From: 2010.03.12/outbox.cif.g09.slc.cpg/sg69_14_cif.got.tgz:27968.got - 2010.04.10 23:52:46.
