data_PCOD8285374
_publ_section_title
;
Structure prediction by ZEFSAII (Michael W. Deem and Ramdas Pophale) SiO2 
 PCOD8285374
Probable space group: F M M M
;
_chemical_formula_sum "Si O2"
_cell_formula_units_Z 208
_cell_length_a 29.486369
_cell_length_b 16.803116
_cell_length_c 20.825969
_cell_angle_alpha 90.000000
_cell_angle_beta 90.000000
_cell_angle_gamma 90.000000
_cell_volume 10318.494553
_symmetry_space_group_name_H-M "F M M M"
_symmetry_group_IT_number 69
_symmetry_cell_setting 'orthorhombic'
loop_
_space_group_symop_operation_xyz
x,y,z
-x,-y,z
x,-y,-z
-x,y,-z
-x,-y,-z
x,y,-z
-x,y,z
x,-y,z
x,1/2+y,1/2+z
-x,1/2-y,1/2+z
x,1/2-y,1/2-z
-x,1/2+y,1/2-z
-x,1/2-y,1/2-z
x,1/2+y,1/2-z
-x,1/2+y,1/2+z
x,1/2-y,1/2+z
1/2+x,y,1/2+z
1/2-x,-y,1/2+z
1/2+x,-y,1/2-z
1/2-x,y,1/2-z
1/2-x,-y,1/2-z
1/2+x,y,1/2-z
1/2-x,y,1/2+z
1/2+x,-y,1/2+z
1/2+x,1/2+y,z
1/2-x,1/2-y,z
1/2+x,1/2-y,-z
1/2-x,1/2+y,-z
1/2-x,1/2-y,-z
1/2+x,1/2+y,-z
1/2-x,1/2+y,z
1/2+x,1/2-y,z
loop_
_atom_site_type_symbol
_atom_site_label
_atom_site_fract_x
_atom_site_fract_y
_atom_site_fract_z
Si Si1 0.500000 0.913445 0.924469
Si Si2 0.947706 0.314836 0.694571
Si Si3 0.363525 0.091428 0.258020
Si Si4 0.793427 0.200444 0.173494
Si Si5 0.571223 0.211924 0.072462
Si Si6 0.252410 0.090584 0.926279
Si Si7 0.656084 0.848355 0.873987
O O1 0.542964 0.863245 0.902338
O O2 0.500000 0.000000 0.890274
O O3 0.500000 0.925683 0.000000
O O4 0.940217 0.250000 0.750000
O O5 0.910281 0.383115 0.706986
O O6 0.937337 0.282343 0.623098
O O7 0.000000 0.346729 0.696919
O O8 0.317857 0.142029 0.275691
O O9 0.368688 0.100698 0.181455
O O10 0.354421 0.000000 0.276508
O O11 0.750000 0.250000 0.201032
O O12 0.780215 0.149270 0.111624
O O13 0.830541 0.263790 0.154894
O O14 0.621735 0.176873 0.070131
O O15 0.557793 0.240098 0.000000
O O16 0.303964 0.100066 0.904007
O O17 0.237300 0.000000 0.914150
O O18 0.247838 0.114610 0.000000
#
# Coordination Sequence:
#
# PCOD8285374 Si02
#       7
#    16  32  32  32  32  32  32
#     4   9  20  36  55  88 129 161 197 252 313 377
#     4  11  22  42  66  92 127 168 217 271 321 385
#     4  12  24  41  63  93 131 169 216 273 336 390
#     4  10  22  39  63  86 120 163 215 261 312 383
#     4  11  21  37  63  91 122 164 212 258 314 385
#     4  10  22  39  58  88 128 166 209 263 321 380
#     4  11  22  39  60  88 122 162 213 257 316 379
#
# _framework density 20.157979000000001
#
# number of rings (size 3 to 8) (size 9 to 14) (size 15 to 20)
#    0.000    1.308    3.846    1.846    0.000    9.231 
#    0.000    5.385    0.000    0.462    0.000    1.077 
#    0.000    0.000    0.000    0.000    0.000    0.000 
#
# Total GULP energy -644490.678474 kJ/mol
# GULP energy per Si atom -12394.051509 kJ/mol
# Density = 2.011210 g / cm^3
# Si number density = 20.157979 Si / 1000 Ang^3
#
#
#
# Elastic Constant Matrix: (Units=GPa)
#
#
# Indices 1 2 3 4 5 6 
#
# 1 100.4790 39.4545 27.7715 0.0000 0.0000 0.0000
# 2 39.4545 109.7885 40.6161 0.0000 0.0000 0.0000
# 3 27.7715 40.6161 110.2160 0.0000 0.0000 0.0000
# 4 0.0000 0.0000 0.0000 16.3420 0.0000 0.0000
# 5 0.0000 0.0000 0.0000 0.0000 26.7149 0.0000
# 6 0.0000 0.0000 0.0000 0.0000 0.0000 25.5980
#
#
#
# Elastic Compliance Matrix: (Units=1/GPa)
#
#
# Indices 1 2 3 4 5 6 
#
# 1 0.011838 -0.003648 -0.001638 0.000000 0.000000 0.000000
# 2 -0.003648 0.011670 -0.003382 0.000000 0.000000 0.000000
# 3 -0.001638 -0.003382 0.010732 0.000000 0.000000 0.000000
# 4 0.000000 0.000000 0.000000 0.061192 0.000000 0.000000
# 5 0.000000 0.000000 0.000000 0.000000 0.037432 0.000000
# 6 0.000000 0.000000 0.000000 0.000000 0.000000 0.039066
#
#
# Mechanical properties :
#
#
# Convention : Reuss Voigt Hill
#
# Bulk Modulus (GPa) = 59.15666 59.57419 59.36542
# Shear Modulus (GPa) = 25.65412 27.90706 26.78059
#
# Velocity S-wave (km/s) = 3.57130 3.72481 3.64886
# Velocity P-wave (km/s) = 6.81291 6.93663 6.87505
#
# Compressibility (1/GPa) = 0.01690427
#
# Stress axis : x y z
#
# Youngs Moduli (GPa) = 84.47671 85.68720 93.17865
#
# Poissons Ratio (x) = 0.31258 0.15267
# Poissons Ratio (y) = 0.30816 0.31508
# Poissons Ratio (z) = 0.13841 0.28975
#
# Static dielectric constant tensor:
#      x y z
#    x 4.076150 0.000000 0.000000 
#    y 0.000000 3.637550 0.000000 
#    z 0.000000 0.000000 3.628360 
# 
# 
# High freq. dielectric constant tensor:
#      x y z
#    x 1.796570 0.000000 0.000000 
#    y 0.000000 1.772930 0.000000 
#    z 0.000000 0.000000 1.789250 
# 
# From -- ./inp_files/34009.got.cif
#   From: 2010.03.12/outbox.cif.g09.slc.cpg/sg69_18_cif.got.tgz:34009.got - 2010.04.10 23:52:46.
