data_PCOD8285033
_publ_section_title
;
Structure prediction by ZEFSAII (Michael W. Deem and Ramdas Pophale) SiO2 
 PCOD8285033
Probable space group: F M M M
;
_chemical_formula_sum "Si O2"
_cell_formula_units_Z 160
_cell_length_a 21.589239
_cell_length_b 20.553836
_cell_length_c 18.685689
_cell_angle_alpha 90.000000
_cell_angle_beta 90.000000
_cell_angle_gamma 90.000000
_cell_volume 8291.618987
_symmetry_space_group_name_H-M "F M M M"
_symmetry_group_IT_number 69
_symmetry_cell_setting 'orthorhombic'
loop_
_space_group_symop_operation_xyz
x,y,z
-x,-y,z
x,-y,-z
-x,y,-z
-x,-y,-z
x,y,-z
-x,y,z
x,-y,z
x,1/2+y,1/2+z
-x,1/2-y,1/2+z
x,1/2-y,1/2-z
-x,1/2+y,1/2-z
-x,1/2-y,1/2-z
x,1/2+y,1/2-z
-x,1/2+y,1/2+z
x,1/2-y,1/2+z
1/2+x,y,1/2+z
1/2-x,-y,1/2+z
1/2+x,-y,1/2-z
1/2-x,y,1/2-z
1/2-x,-y,1/2-z
1/2+x,y,1/2-z
1/2-x,y,1/2+z
1/2+x,-y,1/2+z
1/2+x,1/2+y,z
1/2-x,1/2-y,z
1/2+x,1/2-y,-z
1/2-x,1/2+y,-z
1/2-x,1/2-y,-z
1/2+x,1/2+y,-z
1/2-x,1/2+y,z
1/2+x,1/2-y,z
loop_
_atom_site_type_symbol
_atom_site_label
_atom_site_fract_x
_atom_site_fract_y
_atom_site_fract_z
Si Si1 0.678052 0.230447 0.000000
Si Si2 0.133482 0.712175 0.146356
Si Si3 0.105021 0.573204 0.633218
Si Si4 0.500000 0.571844 0.248973
Si Si5 0.070903 0.839997 0.000000
Si Si6 0.318031 0.160275 0.280380
Si Si7 0.000000 0.793139 0.679100
O O1 0.750000 0.250000 0.000000
O O2 0.664579 0.188624 0.071864
O O3 0.627236 0.288461 0.000000
O O4 0.170911 0.775052 0.173253
O O5 0.137785 0.658648 0.209601
O O6 0.060594 0.727032 0.133305
O O7 0.115462 0.500000 0.605787
O O8 0.059054 0.578068 0.699001
O O9 0.078755 0.615502 0.569194
O O10 0.169392 0.600573 0.665939
O O11 0.500000 0.500000 0.286540
O O12 0.500000 0.629306 0.307200
O O13 0.000000 0.811626 0.000000
O O14 0.250000 0.156787 0.250000
O O15 0.000000 0.750000 0.750000
#
# Coordination Sequence:
#
# PCOD8285033 Si02
#       7
#    16  32  32  16  16  32  16
#     4  12  26  41  59  88 121 168 199 241 307 377
#     4  11  22  36  60  85 119 154 197 246 309 355
#     4  11  22  38  60  87 119 161 203 244 301 369
#     4  10  20  37  58  87 122 159 196 240 307 371
#     4  12  25  38  60  91 131 159 195 247 313 380
#     4  11  21  37  57  83 118 158 201 249 295 355
#     4  12  20  35  61  93 123 151 196 260 312 358
#
# _framework density 19.296593999999999
#
# number of rings (size 3 to 8) (size 9 to 14) (size 15 to 20)
#    0.000    0.800    7.000    2.700    1.400    0.800 
#    0.000    0.000    0.000    0.000    0.000    3.500 
#    0.000    0.000    0.000    0.000    0.000    0.000 
#
# Total GULP energy -495702.293893 kJ/mol
# GULP energy per Si atom -12392.557347 kJ/mol
# Density = 1.925267 g / cm^3
# Si number density = 19.296594 Si / 1000 Ang^3
#
#
#
# Elastic Constant Matrix: (Units=GPa)
#
#
# Indices 1 2 3 4 5 6 
#
# 1 138.9339 12.6207 22.1133 0.0000 0.0000 0.0000
# 2 12.6207 63.4612 2.6154 0.0000 0.0000 0.0000
# 3 22.1133 2.6154 89.3651 0.0000 0.0000 0.0000
# 4 0.0000 0.0000 0.0000 12.9747 0.0000 0.0000
# 5 0.0000 0.0000 0.0000 0.0000 -13.8183 0.0000
# 6 0.0000 0.0000 0.0000 0.0000 0.0000 10.6034
#
#
#
# Elastic Compliance Matrix: (Units=1/GPa)
#
#
# Indices 1 2 3 4 5 6 
#
# 1 0.007622 -0.001440 -0.001844 0.000000 0.000000 0.000000
# 2 -0.001440 0.016049 -0.000113 0.000000 0.000000 0.000000
# 3 -0.001844 -0.000113 0.011650 0.000000 0.000000 0.000000
# 4 0.000000 0.000000 0.000000 0.077073 0.000000 0.000000
# 5 0.000000 0.000000 0.000000 0.000000 -0.072368 0.000000
# 6 0.000000 0.000000 0.000000 0.000000 0.000000 0.094310
#
#
# Mechanical properties :
#
#
# Convention : Reuss Voigt Hill
#
# Bulk Modulus (GPa) = 35.05571 40.71766 37.88669
# Shear Modulus (GPa) = 33.19205 18.91267 26.05236
#
# Velocity S-wave (km/s) = 4.15191 3.13406 3.67836
# Velocity P-wave (km/s) = 6.41800 5.85177 6.14141
#
# Compressibility (1/GPa) = 0.02852602
#
# Stress axis : x y z
#
# Youngs Moduli (GPa) = 131.20021 62.31046 85.83959
#
# Poissons Ratio (x) = 0.08971 0.15828
# Poissons Ratio (y) = 0.18890 0.00974
# Poissons Ratio (z) = 0.24192 0.00707
#
# Static dielectric constant tensor:
#      x y z
#    x 3.854360 0.000000 0.000000 
#    y 0.000000 3.501540 0.000000 
#    z 0.000000 0.000000 3.870150 
# 
# 
# High freq. dielectric constant tensor:
#      x y z
#    x 1.765520 0.000000 0.000000 
#    y 0.000000 1.711980 0.000000 
#    z 0.000000 0.000000 1.751060 
# 
# From -- ./inp_files/24697.got.cif
#   From: 2010.03.12/outbox.cif.g09.slc.cpg/sg69_13_cif.got.tgz:24697.got - 2010.04.10 23:52:46.
