data_PCOD8285722
_publ_section_title
;
Structure prediction by ZEFSAII (Michael W. Deem and Ramdas Pophale) SiO2 
 PCOD8285722
Probable space group: F D D D
;
_chemical_formula_sum "Si O2"
_cell_formula_units_Z 152
_cell_length_a 31.112758
_cell_length_b 28.535734
_cell_length_c 9.873372
_cell_angle_alpha 90.000000
_cell_angle_beta 90.000000
_cell_angle_gamma 90.000000
_cell_volume 8765.830310
_symmetry_space_group_name_H-M "F D D D"
_symmetry_group_IT_number 70
_space_group.IT_coordinate_system_code '2'
_symmetry_cell_setting 'orthorhombic'
loop_
_space_group_symop_operation_xyz
x,y,z
1/4-x,1/4-y,z
x,1/4-y,1/4-z
1/4-x,y,1/4-z
-x,-y,-z
3/4+x,3/4+y,-z
-x,3/4+y,3/4+z
3/4+x,-y,3/4+z
x,1/2+y,1/2+z
1/4-x,3/4-y,1/2+z
x,3/4-y,3/4-z
1/4-x,1/2+y,3/4-z
-x,1/2-y,1/2-z
3/4+x,1/4+y,1/2-z
-x,1/4+y,1/4+z
3/4+x,1/2-y,1/4+z
1/2+x,y,1/2+z
3/4-x,1/4-y,1/2+z
1/2+x,1/4-y,3/4-z
3/4-x,y,3/4-z
1/2-x,-y,1/2-z
1/4+x,3/4+y,1/2-z
1/2-x,3/4+y,1/4+z
1/4+x,-y,1/4+z
1/2+x,1/2+y,z
3/4-x,3/4-y,z
1/2+x,3/4-y,1/4-z
3/4-x,1/2+y,1/4-z
1/2-x,1/2-y,-z
1/4+x,1/4+y,-z
1/2-x,1/4+y,3/4+z
1/4+x,1/2-y,3/4+z
loop_
_atom_site_type_symbol
_atom_site_label
_atom_site_fract_x
_atom_site_fract_y
_atom_site_fract_z
Si Si1 0.685263 0.323757 0.831172
Si Si2 0.095970 0.550478 0.429320
Si Si3 0.964845 0.324919 0.936504
Si Si4 0.910995 0.489895 0.985086
Si Si5 0.125000 0.125000 0.125000
Si Si6 0.625000 0.473855 0.125000
O O1 0.669819 0.375000 0.875000
O O2 0.734751 0.324541 0.787527
O O3 0.657620 0.309389 0.702673
O O4 0.677912 0.288195 0.954114
O O5 0.056451 0.559660 0.328798
O O6 0.140373 0.545590 0.345170
O O7 0.094826 0.594247 0.529571
O O8 0.094481 0.504065 0.523553
O O9 0.949316 0.375000 0.875000
O O10 0.952064 0.285884 0.827182
O O11 0.875000 0.502613 0.875000
#
# Coordination Sequence:
#
# PCOD8285722 Si02
#       6
#    32  32  32  32   8  16
#     4  10  21  34  53  72  99 135 172 218 250 293
#     4   9  18  31  51  75 102 134 162 203 253 310
#     4  10  19  32  52  79 106 127 165 208 261 304
#     4   9  18  33  53  77 100 130 168 205 256 307
#     4  10  16  28  50  72 104 136 160 194 250 312
#     4   9  20  37  50  70  98 136 177 206 251 300
#
# _framework density 17.340057000000002
#
# number of rings (size 3 to 8) (size 9 to 14) (size 15 to 20)
#    0.000    2.526    0.000    1.895    1.474    3.789 
#    0.000    0.000    2.316    0.000    0.000    0.000 
#    0.000    0.000    0.000    0.000    0.000    0.000 
#
# Total GULP energy -471036.360009 kJ/mol
# GULP energy per Si atom -12395.693684 kJ/mol
# Density = 1.730059 g / cm^3
# Si number density = 17.340057 Si / 1000 Ang^3
#
#
#
# Elastic Constant Matrix: (Units=GPa)
#
#
# Indices 1 2 3 4 5 6 
#
# 1 75.7280 59.2923 49.9680 0.0127 -0.0100 -0.0341
# 2 59.2923 131.2108 73.6056 0.0033 -0.0112 -0.0118
# 3 49.9680 73.6056 124.8873 0.0104 -0.0170 -0.0173
# 4 0.0127 0.0033 0.0104 25.8802 -0.0150 -0.0168
# 5 -0.0100 -0.0112 -0.0170 -0.0150 23.1863 0.0247
# 6 -0.0341 -0.0118 -0.0173 -0.0168 0.0247 8.2213
#
#
#
# Elastic Compliance Matrix: (Units=1/GPa)
#
#
# Indices 1 2 3 4 5 6 
#
# 1 0.021932 -0.007452 -0.004383 -0.000008 0.000003 0.000071
# 2 -0.007452 0.013918 -0.005221 0.000004 0.000000 -0.000022
# 3 -0.004383 -0.005221 0.012838 -0.000002 0.000005 0.000001
# 4 -0.000008 0.000004 -0.000002 0.038640 0.000025 0.000079
# 5 0.000003 0.000000 0.000005 0.000025 0.043129 -0.000130
# 6 0.000071 -0.000022 0.000001 0.000079 -0.000130 0.121636
#
#
# Mechanical properties :
#
#
# Convention : Reuss Voigt Hill
#
# Bulk Modulus (GPa) = 68.60897 77.50642 73.05770
# Shear Modulus (GPa) = 17.17842 21.38825 19.28334
#
# Velocity S-wave (km/s) = 3.15092 3.51587 3.33839
# Velocity P-wave (km/s) = 7.27258 7.82795 7.55537
#
# Compressibility (1/GPa) = 0.01457535
#
# Stress axis : x y z
#
# Youngs Moduli (GPa) = 45.59577 71.85102 77.89277
#
# Poissons Ratio (x) = 0.53543 0.34141
# Poissons Ratio (y) = 0.33978 0.40669
# Poissons Ratio (z) = 0.19985 0.37515
#
# Static dielectric constant tensor:
#      x y z
#    x 3.000200 0.000010 0.000000 
#    y 0.000010 3.333300 -0.000020 
#    z 0.000000 -0.000020 3.456910 
# 
# 
# High freq. dielectric constant tensor:
#      x y z
#    x 1.651360 0.000000 0.000000 
#    y 0.000000 1.677030 0.000000 
#    z 0.000000 0.000000 1.683450 
# 
# From -- ./inp_files/22540.got.cif
#   From: 2010.03.12/outbox.cif.g09.slc.cpg/sg70_12_cif.got.tgz:22540.got - 2010.04.16 13:46:32.
