data_PCOD8285294
_publ_section_title
;
Structure prediction by ZEFSAII (Michael W. Deem and Ramdas Pophale) SiO2 
 PCOD8285294
Probable space group: F M M M
;
_chemical_formula_sum "Si O2"
_cell_formula_units_Z 144
_cell_length_a 8.854748
_cell_length_b 31.751938
_cell_length_c 26.865208
_cell_angle_alpha 90.000000
_cell_angle_beta 90.000000
_cell_angle_gamma 90.000000
_cell_volume 7553.298557
_symmetry_space_group_name_H-M "F M M M"
_symmetry_group_IT_number 69
_symmetry_cell_setting 'orthorhombic'
loop_
_space_group_symop_operation_xyz
x,y,z
-x,-y,z
x,-y,-z
-x,y,-z
-x,-y,-z
x,y,-z
-x,y,z
x,-y,z
x,1/2+y,1/2+z
-x,1/2-y,1/2+z
x,1/2-y,1/2-z
-x,1/2+y,1/2-z
-x,1/2-y,1/2-z
x,1/2+y,1/2-z
-x,1/2+y,1/2+z
x,1/2-y,1/2+z
1/2+x,y,1/2+z
1/2-x,-y,1/2+z
1/2+x,-y,1/2-z
1/2-x,y,1/2-z
1/2-x,-y,1/2-z
1/2+x,y,1/2-z
1/2-x,y,1/2+z
1/2+x,-y,1/2+z
1/2+x,1/2+y,z
1/2-x,1/2-y,z
1/2+x,1/2-y,-z
1/2-x,1/2+y,-z
1/2-x,1/2-y,-z
1/2+x,1/2+y,-z
1/2-x,1/2+y,z
1/2+x,1/2-y,z
loop_
_atom_site_type_symbol
_atom_site_label
_atom_site_fract_x
_atom_site_fract_y
_atom_site_fract_z
Si Si1 0.821388 0.293718 0.648830
Si Si2 0.323798 0.872810 0.800547
Si Si3 0.177168 0.500000 0.444336
Si Si4 0.175040 0.331706 0.943251
Si Si5 0.827427 0.079909 0.600247
O O1 0.750000 0.250000 0.666777
O O2 0.757011 0.329605 0.684529
O O3 0.776525 0.302187 0.591418
O O4 0.000000 0.291787 0.653746
O O5 0.500000 0.863532 0.793254
O O6 0.250000 0.890214 0.750000
O O7 0.297222 0.908227 0.842347
O O8 0.248790 0.500000 0.500000
O O9 0.224167 0.458938 0.414028
O O10 0.000000 0.500000 0.448634
O O11 0.215600 0.380571 0.934565
O O12 0.000000 0.324329 0.928945
O O13 0.209374 0.319547 0.000000
O O14 0.000000 0.066593 0.591715
#
# Coordination Sequence:
#
# PCOD8285294 Si02
#       5
#    32  32  16  32  32
#     4  11  22  36  54  78 109 143 181 226 272 320
#     4  10  21  39  61  84 108 138 178 222 272 326
#     4  11  23  35  52  83 118 147 180 223 264 307
#     4   9  18  34  55  78 106 142 183 226 273 326
#     4   9  19  36  57  80 108 142 180 220 264 320
#
# _framework density 19.064519000000001
#
# number of rings (size 3 to 8) (size 9 to 14) (size 15 to 20)
#    0.000    2.111    0.000    5.000    0.000    7.556 
#    0.000    2.778    0.000    0.000    0.000    0.000 
#    0.000    0.000    0.000    0.000    0.000    0.000 
#
# Total GULP energy -446523.628867 kJ/mol
# GULP energy per Si atom -12403.434135 kJ/mol
# Density = 1.902113 g / cm^3
# Si number density = 19.064519 Si / 1000 Ang^3
#
#
#
# Elastic Constant Matrix: (Units=GPa)
#
#
# Indices 1 2 3 4 5 6 
#
# 1 118.9730 47.0984 42.9543 0.0000 0.0000 0.0000
# 2 47.0984 89.5750 25.6603 0.0000 0.0000 0.0000
# 3 42.9543 25.6603 97.9017 0.0000 0.0000 0.0000
# 4 0.0000 0.0000 0.0000 16.4673 0.0000 0.0000
# 5 0.0000 0.0000 0.0000 0.0000 34.2916 0.0000
# 6 0.0000 0.0000 0.0000 0.0000 0.0000 31.6926
#
#
#
# Elastic Compliance Matrix: (Units=1/GPa)
#
#
# Indices 1 2 3 4 5 6 
#
# 1 0.011817 -0.005112 -0.003845 0.000000 0.000000 0.000000
# 2 -0.005112 0.014282 -0.001500 0.000000 0.000000 0.000000
# 3 -0.003845 -0.001500 0.012295 0.000000 0.000000 0.000000
# 4 0.000000 0.000000 0.000000 0.060726 0.000000 0.000000
# 5 0.000000 0.000000 0.000000 0.000000 0.029162 0.000000
# 6 0.000000 0.000000 0.000000 0.000000 0.000000 0.031553
#
#
# Mechanical properties :
#
#
# Convention : Reuss Voigt Hill
#
# Bulk Modulus (GPa) = 57.21249 59.76398 58.48823
# Shear Modulus (GPa) = 26.79887 29.20608 28.00247
#
# Velocity S-wave (km/s) = 3.75333 3.91827 3.83669
# Velocity P-wave (km/s) = 6.98987 7.20325 7.09736
#
# Compressibility (1/GPa) = 0.01747870
#
# Stress axis : x y z
#
# Youngs Moduli (GPa) = 84.62278 70.02057 81.33708
#
# Poissons Ratio (x) = 0.35795 0.31273
# Poissons Ratio (y) = 0.43259 0.12203
# Poissons Ratio (z) = 0.32537 0.10505
#
# Static dielectric constant tensor:
#      x y z
#    x 3.451770 0.000000 0.000000 
#    y 0.000000 3.315080 0.000000 
#    z 0.000000 0.000000 3.607690 
# 
# 
# High freq. dielectric constant tensor:
#      x y z
#    x 1.743760 0.000000 0.000000 
#    y 0.000000 1.730470 0.000000 
#    z 0.000000 0.000000 1.746180 
# 
# From -- ./inp_files/44523.got.cif
#   From: 2010.03.12/outbox.cif.g09.slc.cpg/sg69_23_cif.got.tgz:44523.got - 2010.04.10 23:52:46.
