data_PCOD8285158
_publ_section_title
;
Structure prediction by ZEFSAII (Michael W. Deem and Ramdas Pophale) SiO2 
 PCOD8285158
Probable space group: F M M M
;
_chemical_formula_sum "Si O2"
_cell_formula_units_Z 160
_cell_length_a 15.579656
_cell_length_b 18.317255
_cell_length_c 26.300653
_cell_angle_alpha 90.000000
_cell_angle_beta 90.000000
_cell_angle_gamma 90.000000
_cell_volume 7505.589136
_symmetry_space_group_name_H-M "F M M M"
_symmetry_group_IT_number 69
_symmetry_cell_setting 'orthorhombic'
loop_
_space_group_symop_operation_xyz
x,y,z
-x,-y,z
x,-y,-z
-x,y,-z
-x,-y,-z
x,y,-z
-x,y,z
x,-y,z
x,1/2+y,1/2+z
-x,1/2-y,1/2+z
x,1/2-y,1/2-z
-x,1/2+y,1/2-z
-x,1/2-y,1/2-z
x,1/2+y,1/2-z
-x,1/2+y,1/2+z
x,1/2-y,1/2+z
1/2+x,y,1/2+z
1/2-x,-y,1/2+z
1/2+x,-y,1/2-z
1/2-x,y,1/2-z
1/2-x,-y,1/2-z
1/2+x,y,1/2-z
1/2-x,y,1/2+z
1/2+x,-y,1/2+z
1/2+x,1/2+y,z
1/2-x,1/2-y,z
1/2+x,1/2-y,-z
1/2-x,1/2+y,-z
1/2-x,1/2-y,-z
1/2+x,1/2+y,-z
1/2-x,1/2+y,z
1/2+x,1/2-y,z
loop_
_atom_site_type_symbol
_atom_site_label
_atom_site_fract_x
_atom_site_fract_y
_atom_site_fract_z
Si Si1 0.716751 0.581747 0.693917
Si Si2 0.000000 0.913530 0.941419
Si Si3 0.661543 0.353766 0.119154
Si Si4 0.827118 0.152429 0.559049
Si Si5 0.404342 0.500000 0.559412
Si Si6 0.097069 0.291686 0.848257
O O1 0.676000 0.500000 0.690006
O O2 0.750000 0.597089 0.750000
O O3 0.797024 0.584879 0.655220
O O4 0.648412 0.644793 0.680554
O O5 0.917789 0.884449 0.911905
O O6 0.000000 0.000000 0.939978
O O7 0.000000 0.886286 0.000000
O O8 0.731396 0.327239 0.077318
O O9 0.636691 0.288919 0.158872
O O10 0.838475 0.169059 0.500000
O O11 0.847087 0.068939 0.574906
O O12 0.897370 0.198768 0.590265
O O13 0.500000 0.500000 0.585310
O O14 0.420083 0.500000 0.500000
O O15 0.000000 0.294157 0.828676
#
# Coordination Sequence:
#
# PCOD8285158 Si02
#       6
#    32  16  32  32  16  32
#     4  10  23  45  72  98 126 164 217 279 344 409
#     4  11  24  40  64  95 133 181 235 286 329 386
#     4  11  23  42  62  93 131 173 221 270 332 400
#     4  10  21  35  57  86 124 172 219 260 317 384
#     4   9  18  32  50  81 118 157 211 268 318 374
#     4  11  24  41  62  95 134 172 214 269 331 397
#
# _framework density 21.317447999999999
#
# number of rings (size 3 to 8) (size 9 to 14) (size 15 to 20)
#    0.000    1.600    1.000    4.200    7.000    5.600 
#    1.800    1.000    0.000    0.000    0.000    0.000 
#    0.000    0.000    0.000    0.000    0.000    0.000 
#
# Total GULP energy -495807.603566 kJ/mol
# GULP energy per Si atom -12395.190089 kJ/mol
# Density = 2.126893 g / cm^3
# Si number density = 21.317448 Si / 1000 Ang^3
#
#
#
# Elastic Constant Matrix: (Units=GPa)
#
#
# Indices 1 2 3 4 5 6 
#
# 1 135.5997 44.6154 27.3473 0.0000 0.0000 0.0000
# 2 44.6154 103.1929 23.6336 0.0000 0.0000 0.0000
# 3 27.3473 23.6336 88.1836 0.0000 0.0000 0.0000
# 4 0.0000 0.0000 0.0000 32.2570 0.0000 0.0000
# 5 0.0000 0.0000 0.0000 0.0000 -6.6448 0.0000
# 6 0.0000 0.0000 0.0000 0.0000 0.0000 58.4981
#
#
#
# Elastic Compliance Matrix: (Units=1/GPa)
#
#
# Indices 1 2 3 4 5 6 
#
# 1 0.008868 -0.003414 -0.001835 0.000000 0.000000 0.000000
# 2 -0.003414 0.011638 -0.002060 0.000000 0.000000 0.000000
# 3 -0.001835 -0.002060 0.012461 0.000000 0.000000 0.000000
# 4 0.000000 0.000000 0.000000 0.031001 0.000000 0.000000
# 5 0.000000 0.000000 0.000000 0.000000 -0.150493 0.000000
# 6 0.000000 0.000000 0.000000 0.000000 0.000000 0.017095
#
#
# Mechanical properties :
#
#
# Convention : Reuss Voigt Hill
#
# Bulk Modulus (GPa) = 54.49942 57.57430 56.03686
# Shear Modulus (GPa) = -102.68041 32.24738 -35.21651
#
# Velocity S-wave (km/s) = -6.94780 3.89359 -4.06889
# Velocity P-wave (km/s) = 6.22426 6.87605 2.06625
#
# Compressibility (1/GPa) = 0.01834882
#
# Stress axis : x y z
#
# Youngs Moduli (GPa) = 112.76534 85.92235 80.24830
#
# Poissons Ratio (x) = 0.29332 0.14727
# Poissons Ratio (y) = 0.38495 0.16535
# Poissons Ratio (z) = 0.20695 0.17704
#
# Static dielectric constant tensor:
#      x y z
#    x 3.991670 0.000000 0.000000 
#    y 0.000000 4.175620 0.000000 
#    z 0.000000 0.000000 3.784780 
# 
# 
# High freq. dielectric constant tensor:
#      x y z
#    x 1.832060 0.000000 0.000000 
#    y 0.000000 1.851780 0.000000 
#    z 0.000000 0.000000 1.825720 
# 
# From -- ./inp_files/45686.got.cif
#   From: 2010.03.12/outbox.cif.g09.slc.cpg/sg69_23_cif.got.tgz:45686.got - 2010.04.10 23:52:46.
