data_PCOD8285246
_publ_section_title
;
Structure prediction by ZEFSAII (Michael W. Deem and Ramdas Pophale) SiO2 
 PCOD8285246
Probable space group: F M M M
;
_chemical_formula_sum "Si O2"
_cell_formula_units_Z 208
_cell_length_a 23.647652
_cell_length_b 18.125692
_cell_length_c 25.577146
_cell_angle_alpha 90.000000
_cell_angle_beta 90.000000
_cell_angle_gamma 90.000000
_cell_volume 10963.133540
_symmetry_space_group_name_H-M "F M M M"
_symmetry_group_IT_number 69
_symmetry_cell_setting 'orthorhombic'
loop_
_space_group_symop_operation_xyz
x,y,z
-x,-y,z
x,-y,-z
-x,y,-z
-x,-y,-z
x,y,-z
-x,y,z
x,-y,z
x,1/2+y,1/2+z
-x,1/2-y,1/2+z
x,1/2-y,1/2-z
-x,1/2+y,1/2-z
-x,1/2-y,1/2-z
x,1/2+y,1/2-z
-x,1/2+y,1/2+z
x,1/2-y,1/2+z
1/2+x,y,1/2+z
1/2-x,-y,1/2+z
1/2+x,-y,1/2-z
1/2-x,y,1/2-z
1/2-x,-y,1/2-z
1/2+x,y,1/2-z
1/2-x,y,1/2+z
1/2+x,-y,1/2+z
1/2+x,1/2+y,z
1/2-x,1/2-y,z
1/2+x,1/2-y,-z
1/2-x,1/2+y,-z
1/2-x,1/2-y,-z
1/2+x,1/2+y,-z
1/2-x,1/2+y,z
1/2+x,1/2-y,z
loop_
_atom_site_type_symbol
_atom_site_label
_atom_site_fract_x
_atom_site_fract_y
_atom_site_fract_z
Si Si1 0.229780 0.084725 0.352411
Si Si2 0.646826 0.914587 0.941659
Si Si3 0.348316 0.672806 0.721002
Si Si4 0.932636 0.583449 0.500000
Si Si5 0.435851 0.161720 0.397494
Si Si6 0.355607 0.584237 0.822090
Si Si7 0.935089 0.326094 0.129685
O O1 0.205690 0.099202 0.410731
O O2 0.203987 0.147038 0.314624
O O3 0.296628 0.097231 0.352059
O O4 0.215440 0.000000 0.334601
O O5 0.594467 0.883893 0.908485
O O6 0.634197 0.000000 0.947377
O O7 0.651122 0.879212 0.000000
O O8 0.334867 0.750000 0.750000
O O9 0.354128 0.606727 0.761897
O O10 0.404828 0.679217 0.686109
O O11 0.909589 0.500000 0.500000
O O12 0.908869 0.625529 0.449315
O O13 0.000000 0.585983 0.500000
O O14 0.500000 0.134975 0.390436
O O15 0.402327 0.135530 0.347346
O O16 0.431719 0.249318 0.401193
O O17 0.374761 0.500000 0.826103
O O18 0.000000 0.349564 0.139599
#
# Coordination Sequence:
#
# PCOD8285246 Si02
#       7
#    32  32  32  16  32  32  32
#     4   9  20  38  58  83 116 148 185 234 287 340
#     4   9  19  38  62  87 117 151 187 231 283 338
#     4  11  21  37  56  82 111 152 189 236 285 338
#     4   9  18  34  56  78 104 143 187 233 282 333
#     4  10  21  38  57  81 115 151 188 235 288 339
#     4  11  22  37  58  85 111 146 194 237 285 346
#     4  10  22  38  57  83 118 154 190 235 286 341
#
# _framework density 18.972678999999999
#
# number of rings (size 3 to 8) (size 9 to 14) (size 15 to 20)
#    0.000    2.077    1.538    1.385    1.077    5.538 
#    1.385    0.769    0.000    0.923    0.000    0.000 
#    0.000    0.000    0.000    0.000    0.000    0.000 
#
# Total GULP energy -644773.678837 kJ/mol
# GULP energy per Si atom -12399.493824 kJ/mol
# Density = 1.892950 g / cm^3
# Si number density = 18.972679 Si / 1000 Ang^3
#
#
#
# Elastic Constant Matrix: (Units=GPa)
#
#
# Indices 1 2 3 4 5 6 
#
# 1 79.7155 35.6729 41.2700 0.0000 0.0000 0.0000
# 2 35.6729 57.3855 35.6181 0.0000 0.0000 0.0000
# 3 41.2700 35.6181 103.6070 0.0000 0.0000 0.0000
# 4 0.0000 0.0000 0.0000 34.7584 0.0000 0.0000
# 5 0.0000 0.0000 0.0000 0.0000 16.8543 0.0000
# 6 0.0000 0.0000 0.0000 0.0000 0.0000 24.8654
#
#
#
# Elastic Compliance Matrix: (Units=1/GPa)
#
#
# Indices 1 2 3 4 5 6 
#
# 1 0.018850 -0.008972 -0.004424 0.000000 0.000000 0.000000
# 2 -0.008972 0.026423 -0.005510 0.000000 0.000000 0.000000
# 3 -0.004424 -0.005510 0.013308 0.000000 0.000000 0.000000
# 4 0.000000 0.000000 0.000000 0.028770 0.000000 0.000000
# 5 0.000000 0.000000 0.000000 0.000000 0.059332 0.000000
# 6 0.000000 0.000000 0.000000 0.000000 0.000000 0.040217
#
#
# Mechanical properties :
#
#
# Convention : Reuss Voigt Hill
#
# Bulk Modulus (GPa) = 48.14757 51.75889 49.95323
# Shear Modulus (GPa) = 21.58563 23.83875 22.71219
#
# Velocity S-wave (km/s) = 3.37667 3.54853 3.46367
# Velocity P-wave (km/s) = 6.37456 6.64299 6.51016
#
# Compressibility (1/GPa) = 0.02076948
#
# Stress axis : x y z
#
# Youngs Moduli (GPa) = 53.05037 37.84551 75.14049
#
# Poissons Ratio (x) = 0.33954 0.33244
# Poissons Ratio (y) = 0.47596 0.41403
# Poissons Ratio (z) = 0.23471 0.20853
#
# Static dielectric constant tensor:
#      x y z
#    x 3.372490 0.000000 0.000000 
#    y 0.000000 3.513910 0.000000 
#    z 0.000000 0.000000 3.669180 
# 
# 
# High freq. dielectric constant tensor:
#      x y z
#    x 1.725010 0.000000 0.000000 
#    y 0.000000 1.742860 0.000000 
#    z 0.000000 0.000000 1.743170 
# 
# From -- ./inp_files/42703.got.cif
#   From: 2010.03.12/outbox.cif.g09.slc.cpg/sg69_22_cif.got.tgz:42703.got - 2010.04.10 23:52:46.
