data_PCOD8285955
_publ_section_title
;
Structure prediction by ZEFSAII (Michael W. Deem and Ramdas Pophale) SiO2 
 PCOD8285955
Probable space group: F D D D
;
_chemical_formula_sum "Si O2"
_cell_formula_units_Z 144
_cell_length_a 19.225531
_cell_length_b 14.890199
_cell_length_c 23.534809
_cell_angle_alpha 90.000000
_cell_angle_beta 90.000000
_cell_angle_gamma 90.000000
_cell_volume 6737.356429
_symmetry_space_group_name_H-M "F D D D"
_symmetry_group_IT_number 70
_space_group.IT_coordinate_system_code '2'
_symmetry_cell_setting 'orthorhombic'
loop_
_space_group_symop_operation_xyz
x,y,z
1/4-x,1/4-y,z
x,1/4-y,1/4-z
1/4-x,y,1/4-z
-x,-y,-z
3/4+x,3/4+y,-z
-x,3/4+y,3/4+z
3/4+x,-y,3/4+z
x,1/2+y,1/2+z
1/4-x,3/4-y,1/2+z
x,3/4-y,3/4-z
1/4-x,1/2+y,3/4-z
-x,1/2-y,1/2-z
3/4+x,1/4+y,1/2-z
-x,1/4+y,1/4+z
3/4+x,1/2-y,1/4+z
1/2+x,y,1/2+z
3/4-x,1/4-y,1/2+z
1/2+x,1/4-y,3/4-z
3/4-x,y,3/4-z
1/2-x,-y,1/2-z
1/4+x,3/4+y,1/2-z
1/2-x,3/4+y,1/4+z
1/4+x,-y,1/4+z
1/2+x,1/2+y,z
3/4-x,3/4-y,z
1/2+x,3/4-y,1/4-z
3/4-x,1/2+y,1/4-z
1/2-x,1/2-y,-z
1/4+x,1/4+y,-z
1/2-x,1/4+y,3/4+z
1/4+x,1/2-y,3/4+z
loop_
_atom_site_type_symbol
_atom_site_label
_atom_site_fract_x
_atom_site_fract_y
_atom_site_fract_z
Si Si1 0.742237 0.690258 0.921570
Si Si2 0.194804 0.875000 0.875000
Si Si3 0.749984 0.505962 0.533071
Si Si4 0.154792 0.525184 0.930985
Si Si5 0.388662 0.773523 0.269251
O O1 0.738808 0.584312 0.931266
O O2 0.722811 0.720269 0.858423
O O3 0.820648 0.724821 0.930059
O O4 0.686195 0.737004 0.963000
O O5 0.248733 0.914705 0.921007
O O6 0.148212 0.799058 0.906443
O O7 0.679994 0.501056 0.495061
O O8 0.815725 0.524657 0.492094
O O9 0.125000 0.625000 0.931271
O O10 0.375000 0.875000 0.287488
#
# Coordination Sequence:
#
# PCOD8285955 Si02
#       5
#    32  16  32  32  32
#     4  10  19  41  62  96 142 170 213 284 339 402
#     4  12  24  46  71 101 132 182 228 280 344 402
#     4  11  23  40  68  97 130 186 225 276 340 406
#     4  12  25  44  70  98 133 180 229 280 344 409
#     4   9  18  34  62  98 135 171 215 269 344 410
#
# _framework density 21.373366999999998
#
# number of rings (size 3 to 8) (size 9 to 14) (size 15 to 20)
#    0.000    1.333    4.444    2.000    6.222    1.778 
#    0.000    3.889    0.000    0.000    0.000    0.000 
#    0.000    0.000    0.000    0.000    0.000    0.000 
#
# Total GULP energy -446291.848251 kJ/mol
# GULP energy per Si atom -12396.995785 kJ/mol
# Density = 2.132472 g / cm^3
# Si number density = 21.373367 Si / 1000 Ang^3
#
#
#
# Elastic Constant Matrix: (Units=GPa)
#
#
# Indices 1 2 3 4 5 6 
#
# 1 49.8950 11.2736 19.7457 0.0000 0.0000 0.0000
# 2 11.2736 48.9035 27.6281 0.0000 0.0000 0.0000
# 3 19.7457 27.6281 95.5727 0.0000 0.0000 0.0000
# 4 0.0000 0.0000 0.0000 29.9172 0.0000 0.0000
# 5 0.0000 0.0000 0.0000 0.0000 23.0303 0.0000
# 6 0.0000 0.0000 0.0000 0.0000 0.0000 31.4826
#
#
#
# Elastic Compliance Matrix: (Units=1/GPa)
#
#
# Indices 1 2 3 4 5 6 
#
# 1 0.022193 -0.003019 -0.003713 0.000000 0.000000 0.000000
# 2 -0.003019 0.024850 -0.006560 0.000000 0.000000 0.000000
# 3 -0.003713 -0.006560 0.013127 0.000000 0.000000 0.000000
# 4 0.000000 0.000000 0.000000 0.033426 0.000000 0.000000
# 5 0.000000 0.000000 0.000000 0.000000 0.043421 0.000000
# 6 0.000000 0.000000 0.000000 0.000000 0.000000 0.031764
#
#
# Mechanical properties :
#
#
# Convention : Reuss Voigt Hill
#
# Bulk Modulus (GPa) = 29.77281 34.62955 32.20118
# Shear Modulus (GPa) = 24.20612 25.93428 25.07020
#
# Velocity S-wave (km/s) = 3.36897 3.48716 3.42857
# Velocity P-wave (km/s) = 5.39383 5.69658 5.54727
#
# Compressibility (1/GPa) = 0.03358770
#
# Stress axis : x y z
#
# Youngs Moduli (GPa) = 45.05845 40.24073 76.18092
#
# Poissons Ratio (x) = 0.12148 0.28283
# Poissons Ratio (y) = 0.13602 0.49975
# Poissons Ratio (z) = 0.16728 0.26398
#
# Static dielectric constant tensor:
#      x y z
#    x 3.818400 0.000000 0.000000 
#    y 0.000000 3.835720 0.000000 
#    z 0.000000 0.000000 3.847080 
# 
# 
# High freq. dielectric constant tensor:
#      x y z
#    x 1.823760 0.000000 0.000000 
#    y 0.000000 1.839460 0.000000 
#    z 0.000000 0.000000 1.830010 
# 
# From -- ./inp_files/43761.got.cif
#   From: 2010.03.12/outbox.cif.g09.slc.cpg/sg70_22_cif.got.tgz:43761.got - 2010.04.16 13:46:32.
