data_PCOD8285851
_publ_section_title
;
Structure prediction by ZEFSAII (Michael W. Deem and Ramdas Pophale) SiO2 
 PCOD8285851
Probable space group: F D D D
;
_chemical_formula_sum "Si O2"
_cell_formula_units_Z 168
_cell_length_a 16.498420
_cell_length_b 23.262869
_cell_length_c 25.201640
_cell_angle_alpha 90.000000
_cell_angle_beta 90.000000
_cell_angle_gamma 90.000000
_cell_volume 9672.404129
_symmetry_space_group_name_H-M "F D D D"
_symmetry_group_IT_number 70
_space_group.IT_coordinate_system_code '2'
_symmetry_cell_setting 'orthorhombic'
loop_
_space_group_symop_operation_xyz
x,y,z
1/4-x,1/4-y,z
x,1/4-y,1/4-z
1/4-x,y,1/4-z
-x,-y,-z
3/4+x,3/4+y,-z
-x,3/4+y,3/4+z
3/4+x,-y,3/4+z
x,1/2+y,1/2+z
1/4-x,3/4-y,1/2+z
x,3/4-y,3/4-z
1/4-x,1/2+y,3/4-z
-x,1/2-y,1/2-z
3/4+x,1/4+y,1/2-z
-x,1/4+y,1/4+z
3/4+x,1/2-y,1/4+z
1/2+x,y,1/2+z
3/4-x,1/4-y,1/2+z
1/2+x,1/4-y,3/4-z
3/4-x,y,3/4-z
1/2-x,-y,1/2-z
1/4+x,3/4+y,1/2-z
1/2-x,3/4+y,1/4+z
1/4+x,-y,1/4+z
1/2+x,1/2+y,z
3/4-x,3/4-y,z
1/2+x,3/4-y,1/4-z
3/4-x,1/2+y,1/4-z
1/2-x,1/2-y,-z
1/4+x,1/4+y,-z
1/2-x,1/4+y,3/4+z
1/4+x,1/2-y,3/4+z
loop_
_atom_site_type_symbol
_atom_site_label
_atom_site_fract_x
_atom_site_fract_y
_atom_site_fract_z
Si Si1 0.965919 0.564861 0.603415
Si Si2 0.627038 0.393202 0.260164
Si Si3 0.108371 0.495628 0.564250
Si Si4 0.030769 0.470090 0.284139
Si Si5 0.125000 0.625000 0.125000
Si Si6 0.696290 0.587348 0.522172
O O1 0.003840 0.625000 0.625000
O O2 0.887172 0.577314 0.567992
O O3 0.940302 0.526109 0.654093
O O4 0.029738 0.535979 0.563118
O O5 0.658737 0.435430 0.214438
O O6 0.681283 0.335809 0.255839
O O7 0.530874 0.382415 0.255641
O O8 0.125000 0.480303 0.625000
O O9 0.182431 0.529740 0.535782
O O10 0.062127 0.523748 0.250870
O O11 0.182244 0.586036 0.086385
O O12 0.625000 0.625000 0.495231
#
# Coordination Sequence:
#
# PCOD8285851 Si02
#       6
#    32  32  32  32   8  32
#     4   9  18  30  55  79 103 136 168 202 253 319
#     4  10  19  32  54  77 101 135 170 214 257 311
#     4   9  18  34  49  75 112 135 161 210 257 309
#     4   9  19  32  52  75 101 131 176 207 253 319
#     4   8  20  36  56  64 100 134 176 228 260 288
#     4   9  20  36  52  72 101 133 175 227 256 295
#
# _framework density 17.369001000000001
#
# number of rings (size 3 to 8) (size 9 to 14) (size 15 to 20)
#    0.571    2.286    0.000    0.571    4.000    9.524 
#    1.714    0.000   20.952    0.000    0.000    0.000 
#    0.000    0.000    0.000    0.000    0.000    0.000 
#
# Total GULP energy -520362.851537 kJ/mol
# GULP energy per Si atom -12389.591703 kJ/mol
# Density = 1.732947 g / cm^3
# Si number density = 17.369001 Si / 1000 Ang^3
#
#
#
# Elastic Constant Matrix: (Units=GPa)
#
#
# Indices 1 2 3 4 5 6 
#
# 1 95.7850 67.7185 35.1195 0.0000 0.0000 0.0000
# 2 67.7185 113.7820 59.0194 0.0000 0.0000 0.0000
# 3 35.1195 59.0194 69.6303 0.0000 0.0000 0.0000
# 4 0.0000 0.0000 0.0000 37.0559 0.0000 0.0000
# 5 0.0000 0.0000 0.0000 0.0000 21.4254 0.0000
# 6 0.0000 0.0000 0.0000 0.0000 0.0000 28.1026
#
#
#
# Elastic Compliance Matrix: (Units=1/GPa)
#
#
# Indices 1 2 3 4 5 6 
#
# 1 0.018024 -0.010729 0.000003 0.000000 0.000000 0.000000
# 2 -0.010729 0.022071 -0.013296 0.000000 0.000000 0.000000
# 3 0.000003 -0.013296 0.025630 0.000000 0.000000 0.000000
# 4 0.000000 0.000000 0.000000 0.026986 0.000000 0.000000
# 5 0.000000 0.000000 0.000000 0.000000 0.046674 0.000000
# 6 0.000000 0.000000 0.000000 0.000000 0.000000 0.035584
#
#
# Mechanical properties :
#
#
# Convention : Reuss Voigt Hill
#
# Bulk Modulus (GPa) = 56.55787 66.99024 61.77405
# Shear Modulus (GPa) = 21.84299 25.13944 23.49121
#
# Velocity S-wave (km/s) = 3.55009 3.80856 3.68160
# Velocity P-wave (km/s) = 7.03118 7.61530 7.32906
#
# Compressibility (1/GPa) = 0.01768101
#
# Stress axis : x y z
#
# Youngs Moduli (GPa) = 55.48171 45.30854 39.01660
#
# Poissons Ratio (x) = 0.48610 -0.00012
# Poissons Ratio (y) = 0.59525 0.51878
# Poissons Ratio (z) = -0.00017 0.60244
#
# Static dielectric constant tensor:
#      x y z
#    x 3.225940 0.000000 0.000000 
#    y 0.000000 3.089660 0.000000 
#    z 0.000000 0.000000 3.293870 
# 
# 
# High freq. dielectric constant tensor:
#      x y z
#    x 1.667220 0.000000 0.000000 
#    y 0.000000 1.655440 0.000000 
#    z 0.000000 0.000000 1.667300 
# 
# From -- ./inp_files/31085.got.cif
#   From: 2010.03.12/outbox.cif.g09.slc.cpg/sg70_16_cif.got.tgz:31085.got - 2010.04.16 13:46:32.
