data_PCOD8285676
_publ_section_title
;
Structure prediction by ZEFSAII (Michael W. Deem and Ramdas Pophale) SiO2 
 PCOD8285676
Probable space group: F M M M
;
_chemical_formula_sum "Si O2"
_cell_formula_units_Z 176
_cell_length_a 9.570529
_cell_length_b 42.716653
_cell_length_c 27.072295
_cell_angle_alpha 90.000000
_cell_angle_beta 90.000000
_cell_angle_gamma 90.000000
_cell_volume 11067.721802
_symmetry_space_group_name_H-M "F M M M"
_symmetry_group_IT_number 69
_symmetry_cell_setting 'orthorhombic'
loop_
_space_group_symop_operation_xyz
x,y,z
-x,-y,z
x,-y,-z
-x,y,-z
-x,-y,-z
x,y,-z
-x,y,z
x,-y,z
x,1/2+y,1/2+z
-x,1/2-y,1/2+z
x,1/2-y,1/2-z
-x,1/2+y,1/2-z
-x,1/2-y,1/2-z
x,1/2+y,1/2-z
-x,1/2+y,1/2+z
x,1/2-y,1/2+z
1/2+x,y,1/2+z
1/2-x,-y,1/2+z
1/2+x,-y,1/2-z
1/2-x,y,1/2-z
1/2-x,-y,1/2-z
1/2+x,y,1/2-z
1/2-x,y,1/2+z
1/2+x,-y,1/2+z
1/2+x,1/2+y,z
1/2-x,1/2-y,z
1/2+x,1/2-y,-z
1/2-x,1/2+y,-z
1/2-x,1/2-y,-z
1/2+x,1/2+y,-z
1/2-x,1/2+y,z
1/2+x,1/2-y,z
loop_
_atom_site_type_symbol
_atom_site_label
_atom_site_fract_x
_atom_site_fract_y
_atom_site_fract_z
Si Si1 0.340300 0.656486 0.296626
Si Si2 0.334743 0.567791 0.942148
Si Si3 0.837684 0.622586 0.102956
Si Si4 0.665991 0.814205 0.945501
Si Si5 0.662514 0.000000 0.442852
Si Si6 0.336015 0.720148 0.350044
O O1 0.500000 0.655951 0.279875
O O2 0.250000 0.646263 0.250000
O O3 0.314258 0.631596 0.340040
O O4 0.299910 0.691330 0.314354
O O5 0.500000 0.571658 0.933782
O O6 0.253388 0.592472 0.909037
O O7 0.280784 0.533394 0.922502
O O8 0.298975 0.572299 0.000000
O O9 0.782264 0.651124 0.068985
O O10 0.000000 0.615433 0.092302
O O11 0.500000 0.815016 0.943946
O O12 0.716177 0.788647 0.905542
O O13 0.723240 0.805344 0.000000
O O14 0.500000 0.000000 0.432997
O O15 0.696033 0.000000 0.500000
O O16 0.500000 0.727944 0.349088
O O17 0.250000 0.750000 0.331278
#
# Coordination Sequence:
#
# PCOD8285676 Si02
#       6
#    32  32  32  32  16  32
#     4   9  19  34  49  65  85 109 139 177 222 270
#     4   9  16  26  42  65  93 124 154 179 204 240
#     4   9  17  29  45  65  87 112 144 180 219 261
#     4   8  14  26  43  60  82 114 144 168 202 251
#     4   7  12  24  39  57  88 127 156 175 200 239
#     4   9  18  31  45  63  85 108 138 173 209 254
#
# _framework density 15.902098000000001
#
# number of rings (size 3 to 8) (size 9 to 14) (size 15 to 20)
#    0.000    3.364    0.000    3.818    0.000    3.273 
#    0.000    5.000    0.000    2.727    0.000    0.636 
#    0.000    0.000    0.000    0.000    0.000    0.000 
#
# Total GULP energy -545189.405210 kJ/mol
# GULP energy per Si atom -12390.668300 kJ/mol
# Density = 1.586590 g / cm^3
# Si number density = 15.902098 Si / 1000 Ang^3
#
#
#
# Elastic Constant Matrix: (Units=GPa)
#
#
# Indices 1 2 3 4 5 6 
#
# 1 46.1939 43.8527 30.5968 0.0000 0.0000 0.0000
# 2 43.8527 110.8228 23.2116 0.0000 0.0000 0.0000
# 3 30.5968 23.2116 66.7424 0.0000 0.0000 0.0000
# 4 0.0000 0.0000 0.0000 13.1249 0.0000 0.0000
# 5 0.0000 0.0000 0.0000 0.0000 22.9260 0.0000
# 6 0.0000 0.0000 0.0000 0.0000 0.0000 27.3858
#
#
#
# Elastic Compliance Matrix: (Units=1/GPa)
#
#
# Indices 1 2 3 4 5 6 
#
# 1 0.046658 -0.015081 -0.016145 0.000000 0.000000 0.000000
# 2 -0.015081 0.014607 0.001834 0.000000 0.000000 0.000000
# 3 -0.016145 0.001834 0.021746 0.000000 0.000000 0.000000
# 4 0.000000 0.000000 0.000000 0.076191 0.000000 0.000000
# 5 0.000000 0.000000 0.000000 0.000000 0.043619 0.000000
# 6 0.000000 0.000000 0.000000 0.000000 0.000000 0.036515
#
#
# Mechanical properties :
#
#
# Convention : Reuss Voigt Hill
#
# Bulk Modulus (GPa) = 41.27569 46.56460 43.92015
# Shear Modulus (GPa) = 16.32936 21.09388 18.71162
#
# Velocity S-wave (km/s) = 3.20795 3.64604 3.43399
# Velocity P-wave (km/s) = 6.30347 6.86079 6.58803
#
# Compressibility (1/GPa) = 0.02422733
#
# Stress axis : x y z
#
# Youngs Moduli (GPa) = 21.43237 68.46010 45.98449
#
# Poissons Ratio (x) = 1.03247 0.74241
# Poissons Ratio (y) = 0.32323 -0.08432
# Poissons Ratio (z) = 0.34602 -0.12554
#
# Static dielectric constant tensor:
#      x y z
#    x 2.702190 0.000000 0.000000 
#    y 0.000000 3.109590 0.000000 
#    z 0.000000 0.000000 2.939360 
# 
# 
# High freq. dielectric constant tensor:
#      x y z
#    x 1.584590 0.000000 0.000000 
#    y 0.000000 1.610130 0.000000 
#    z 0.000000 0.000000 1.592800 
# 
# From -- ./inp_files/40436.got.cif
#   From: 2010.03.12/outbox.cif.g09.slc.cpg/sg69_21_cif.got.tgz:40436.got - 2010.04.10 23:52:46.
