data_PCOD8285007
_publ_section_title
;
Structure prediction by ZEFSAII (Michael W. Deem and Ramdas Pophale) SiO2 
 PCOD8285007
Probable space group: F M M M
;
_chemical_formula_sum "Si O2"
_cell_formula_units_Z 96
_cell_length_a 17.136130
_cell_length_b 10.436392
_cell_length_c 25.522276
_cell_angle_alpha 90.000000
_cell_angle_beta 90.000000
_cell_angle_gamma 90.000000
_cell_volume 4564.387762
_symmetry_space_group_name_H-M "F M M M"
_symmetry_group_IT_number 69
_symmetry_cell_setting 'orthorhombic'
loop_
_space_group_symop_operation_xyz
x,y,z
-x,-y,z
x,-y,-z
-x,y,-z
-x,-y,-z
x,y,-z
-x,y,z
x,-y,z
x,1/2+y,1/2+z
-x,1/2-y,1/2+z
x,1/2-y,1/2-z
-x,1/2+y,1/2-z
-x,1/2-y,1/2-z
x,1/2+y,1/2-z
-x,1/2+y,1/2+z
x,1/2-y,1/2+z
1/2+x,y,1/2+z
1/2-x,-y,1/2+z
1/2+x,-y,1/2-z
1/2-x,y,1/2-z
1/2-x,-y,1/2-z
1/2+x,y,1/2-z
1/2-x,y,1/2+z
1/2+x,-y,1/2+z
1/2+x,1/2+y,z
1/2-x,1/2-y,z
1/2+x,1/2-y,-z
1/2-x,1/2+y,-z
1/2-x,1/2-y,-z
1/2+x,1/2+y,-z
1/2-x,1/2+y,z
1/2+x,1/2-y,z
loop_
_atom_site_type_symbol
_atom_site_label
_atom_site_fract_x
_atom_site_fract_y
_atom_site_fract_z
Si Si1 0.907152 0.143772 0.289941
Si Si2 0.407800 0.000000 0.441097
Si Si3 0.592577 0.272065 0.403792
Si Si4 0.813726 0.139889 0.500000
O O1 0.872429 0.250000 0.250000
O O2 0.877274 0.176984 0.348048
O O3 0.000000 0.150070 0.288608
O O4 0.879041 0.000000 0.274403
O O5 0.379520 0.875287 0.409597
O O6 0.500000 0.000000 0.444879
O O7 0.373145 0.000000 0.500000
O O8 0.500000 0.286230 0.409422
O O9 0.631863 0.354141 0.449098
O O10 0.750000 0.250000 0.500000
O O11 0.772965 0.000000 0.500000
#
# Coordination Sequence:
#
# PCOD8285007 Si02
#       4
#    32  16  32  16
#     4   9  18  31  50  81 116 146 183 233 286 337
#     4   9  16  28  52  86 112 139 183 236 280 333
#     4  10  20  36  61  86 115 152 195 238 282 339
#     4  12  27  41  58  84 118 153 188 239 295 347
#
# _framework density 21.032392999999999
#
# number of rings (size 3 to 8) (size 9 to 14) (size 15 to 20)
#    0.000    2.167    1.667    1.500    4.667    2.667 
#    0.000    0.000    0.000    1.000    0.000    4.667 
#    0.000    0.000    0.000    0.000    0.000    0.000 
#
# Total GULP energy -297542.996157 kJ/mol
# GULP energy per Si atom -12397.624840 kJ/mol
# Density = 2.098452 g / cm^3
# Si number density = 21.032393 Si / 1000 Ang^3
#
#
#
# Elastic Constant Matrix: (Units=GPa)
#
#
# Indices 1 2 3 4 5 6 
#
# 1 28.0407 22.9630 24.8330 0.0000 0.0000 0.0000
# 2 22.9630 206.6808 86.1103 0.0000 0.0000 0.0000
# 3 24.8330 86.1103 176.3751 0.0000 0.0000 0.0000
# 4 0.0000 0.0000 0.0000 42.3151 0.0000 0.0000
# 5 0.0000 0.0000 0.0000 0.0000 3.0319 0.0000
# 6 0.0000 0.0000 0.0000 0.0000 0.0000 13.2987
#
#
#
# Elastic Compliance Matrix: (Units=1/GPa)
#
#
# Indices 1 2 3 4 5 6 
#
# 1 0.041963 -0.002763 -0.004559 0.000000 0.000000 0.000000
# 2 -0.002763 0.006256 -0.002665 0.000000 0.000000 0.000000
# 3 -0.004559 -0.002665 0.007613 0.000000 0.000000 0.000000
# 4 0.000000 0.000000 0.000000 0.023632 0.000000 0.000000
# 5 0.000000 0.000000 0.000000 0.000000 0.329821 0.000000
# 6 0.000000 0.000000 0.000000 0.000000 0.000000 0.075195
#
#
# Mechanical properties :
#
#
# Convention : Reuss Voigt Hill
#
# Bulk Modulus (GPa) = 27.88871 75.43436 51.66153
# Shear Modulus (GPa) = 9.68228 30.20849 19.94539
#
# Velocity S-wave (km/s) = 2.14791 3.79395 3.08282
# Velocity P-wave (km/s) = 4.40908 7.42534 6.10638
#
# Compressibility (1/GPa) = 0.03585681
#
# Stress axis : x y z
#
# Youngs Moduli (GPa) = 23.83070 159.85323 131.35577
#
# Poissons Ratio (x) = 0.44161 0.59891
# Poissons Ratio (y) = 0.06583 0.35009
# Poissons Ratio (z) = 0.10865 0.42605
#
# Static dielectric constant tensor:
#      x y z
#    x 3.227860 0.000000 0.000000 
#    y 0.000000 4.226290 0.000000 
#    z 0.000000 0.000000 3.924940 
# 
# 
# High freq. dielectric constant tensor:
#      x y z
#    x 1.767880 0.000000 0.000000 
#    y 0.000000 1.845680 0.000000 
#    z 0.000000 0.000000 1.823770 
# 
# From -- ./inp_files/9782.got.cif
#   From: 2010.03.12/outbox.cif.g09.slc.cpg/sg69_5_cif.got.tgz:9782.got - 2010.04.10 23:52:46.
