data_PCOD8285869
_publ_section_title
;
Structure prediction by ZEFSAII (Michael W. Deem and Ramdas Pophale) SiO2 
 PCOD8285869
Probable space group: F D D D
;
_chemical_formula_sum "Si O2"
_cell_formula_units_Z 144
_cell_length_a 19.541707
_cell_length_b 19.541433
_cell_length_c 20.057434
_cell_angle_alpha 90.000000
_cell_angle_beta 90.000000
_cell_angle_gamma 90.000000
_cell_volume 7659.391652
_symmetry_space_group_name_H-M "F D D D"
_symmetry_group_IT_number 70
_space_group.IT_coordinate_system_code '2'
_symmetry_cell_setting 'orthorhombic'
loop_
_space_group_symop_operation_xyz
x,y,z
1/4-x,1/4-y,z
x,1/4-y,1/4-z
1/4-x,y,1/4-z
-x,-y,-z
3/4+x,3/4+y,-z
-x,3/4+y,3/4+z
3/4+x,-y,3/4+z
x,1/2+y,1/2+z
1/4-x,3/4-y,1/2+z
x,3/4-y,3/4-z
1/4-x,1/2+y,3/4-z
-x,1/2-y,1/2-z
3/4+x,1/4+y,1/2-z
-x,1/4+y,1/4+z
3/4+x,1/2-y,1/4+z
1/2+x,y,1/2+z
3/4-x,1/4-y,1/2+z
1/2+x,1/4-y,3/4-z
3/4-x,y,3/4-z
1/2-x,-y,1/2-z
1/4+x,3/4+y,1/2-z
1/2-x,3/4+y,1/4+z
1/4+x,-y,1/4+z
1/2+x,1/2+y,z
3/4-x,3/4-y,z
1/2+x,3/4-y,1/4-z
3/4-x,1/2+y,1/4-z
1/2-x,1/2-y,-z
1/4+x,1/4+y,-z
1/2-x,1/4+y,3/4+z
1/4+x,1/2-y,3/4+z
loop_
_atom_site_type_symbol
_atom_site_label
_atom_site_fract_x
_atom_site_fract_y
_atom_site_fract_z
Si Si1 0.796761 0.953240 0.550352
Si Si2 0.557351 0.192650 0.246669
Si Si3 0.875000 0.875000 0.875000
Si Si4 0.875000 0.875000 0.375000
Si Si5 0.203949 0.703951 0.452913
Si Si6 0.942224 0.807775 0.995535
O O1 0.875599 0.970347 0.534591
O O2 0.779657 0.874401 0.534593
O O3 0.779590 0.970413 0.626557
O O4 0.749919 0.000081 0.503152
O O5 0.500000 0.250000 0.250000
O O6 0.576899 0.173101 0.170677
O O7 0.922918 0.827082 0.919881
O O8 0.250000 0.750000 0.500000
O O9 0.124535 0.720598 0.466709
O O10 0.220594 0.624535 0.466708
#
# Coordination Sequence:
#
# PCOD8285869 Si02
#       6
#    32  32   8   8  32  32
#     4  10  21  37  56  82 110 144 186 224 273 325
#     4  10  22  39  59  80 110 148 188 239 279 325
#     4   8  16  32  50  76 112 144 172 214 268 328
#     4   8  20  40  58  84 108 140 192 230 284 344
#     4  10  21  36  57  84 113 145 179 219 272 333
#     4  10  19  34  54  78 111 144 176 222 268 319
#
# _framework density 18.800449
#
# number of rings (size 3 to 8) (size 9 to 14) (size 15 to 20)
#    0.000    2.667    0.000    5.333    0.000    8.889 
#    0.000    2.222    0.000    0.000    0.000    0.000 
#    0.000    0.000    0.000    0.000    0.000    0.000 
#
# Total GULP energy -446373.822662 kJ/mol
# GULP energy per Si atom -12399.272852 kJ/mol
# Density = 1.875766 g / cm^3
# Si number density = 18.800449 Si / 1000 Ang^3
#
#
#
# Elastic Constant Matrix: (Units=GPa)
#
#
# Indices 1 2 3 4 5 6 
#
# 1 111.0350 101.2298 32.5667 0.0000 0.0000 0.0000
# 2 101.2298 111.0121 32.5631 0.0000 0.0000 0.0000
# 3 32.5667 32.5631 116.0955 0.0000 0.0000 0.0000
# 4 0.0000 0.0000 0.0000 27.1013 0.0000 0.0000
# 5 0.0000 0.0000 0.0000 0.0000 27.1019 0.0000
# 6 0.0000 0.0000 0.0000 0.0000 0.0000 57.0678
#
#
#
# Elastic Compliance Matrix: (Units=1/GPa)
#
#
# Indices 1 2 3 4 5 6 
#
# 1 0.053625 -0.048476 -0.001446 0.000000 0.000000 0.000000
# 2 -0.048476 0.053636 -0.001446 0.000000 0.000000 0.000000
# 3 -0.001446 -0.001446 0.009425 0.000000 0.000000 0.000000
# 4 0.000000 0.000000 0.000000 0.036899 0.000000 0.000000
# 5 0.000000 0.000000 0.000000 0.000000 0.036898 0.000000
# 6 0.000000 0.000000 0.000000 0.000000 0.000000 0.017523
#
#
# Mechanical properties :
#
#
# Convention : Reuss Voigt Hill
#
# Bulk Modulus (GPa) = 71.67982 74.54018 73.11000
# Shear Modulus (GPa) = 15.85335 33.70641 24.77988
#
# Velocity S-wave (km/s) = 2.90702 4.23880 3.63443
# Velocity P-wave (km/s) = 7.03399 7.98065 7.52223
#
# Compressibility (1/GPa) = 0.01395093
#
# Stress axis : x y z
#
# Youngs Moduli (GPa) = 18.64798 18.64416 106.10297
#
# Poissons Ratio (x) = 0.90379 0.15343
# Poissons Ratio (y) = 0.90397 0.15342
# Poissons Ratio (z) = 0.02697 0.02696
#
# Static dielectric constant tensor:
#      x y z
#    x 3.293930 0.000000 0.000000 
#    y 0.000000 3.293860 0.000000 
#    z 0.000000 0.000000 3.520010 
# 
# 
# High freq. dielectric constant tensor:
#      x y z
#    x 1.722130 0.000000 0.000000 
#    y 0.000000 1.722130 0.000000 
#    z 0.000000 0.000000 1.743390 
# 
# From -- ./inp_files/43775.got.cif
#   From: 2010.03.12/outbox.cif.g09.slc.cpg/sg70_22_cif.got.tgz:43775.got - 2010.04.16 13:46:32.
