data_PCOD8285971
_publ_section_title
;
Structure prediction by ZEFSAII (Michael W. Deem and Ramdas Pophale) SiO2 
 PCOD8285971
Probable space group: F D D D
;
_chemical_formula_sum "Si O2"
_cell_formula_units_Z 176
_cell_length_a 28.179509
_cell_length_b 32.521104
_cell_length_c 9.481782
_cell_angle_alpha 90.000000
_cell_angle_beta 90.000000
_cell_angle_gamma 90.000000
_cell_volume 8689.377558
_symmetry_space_group_name_H-M "F D D D"
_symmetry_group_IT_number 70
_space_group.IT_coordinate_system_code '2'
_symmetry_cell_setting 'orthorhombic'
loop_
_space_group_symop_operation_xyz
x,y,z
1/4-x,1/4-y,z
x,1/4-y,1/4-z
1/4-x,y,1/4-z
-x,-y,-z
3/4+x,3/4+y,-z
-x,3/4+y,3/4+z
3/4+x,-y,3/4+z
x,1/2+y,1/2+z
1/4-x,3/4-y,1/2+z
x,3/4-y,3/4-z
1/4-x,1/2+y,3/4-z
-x,1/2-y,1/2-z
3/4+x,1/4+y,1/2-z
-x,1/4+y,1/4+z
3/4+x,1/2-y,1/4+z
1/2+x,y,1/2+z
3/4-x,1/4-y,1/2+z
1/2+x,1/4-y,3/4-z
3/4-x,y,3/4-z
1/2-x,-y,1/2-z
1/4+x,3/4+y,1/2-z
1/2-x,3/4+y,1/4+z
1/4+x,-y,1/4+z
1/2+x,1/2+y,z
3/4-x,3/4-y,z
1/2+x,3/4-y,1/4-z
3/4-x,1/2+y,1/4-z
1/2-x,1/2-y,-z
1/4+x,1/4+y,-z
1/2-x,1/4+y,3/4+z
1/4+x,1/2-y,3/4+z
loop_
_atom_site_type_symbol
_atom_site_label
_atom_site_fract_x
_atom_site_fract_y
_atom_site_fract_z
Si Si1 0.551858 0.141994 0.906752
Si Si2 0.894007 0.934066 0.528102
Si Si3 0.247271 0.375000 0.875000
Si Si4 0.760762 0.036233 0.944653
Si Si5 0.043305 0.789922 0.869707
Si Si6 0.141920 0.758337 0.780325
O O1 0.601198 0.165290 0.881362
O O2 0.563201 0.099278 0.989770
O O3 0.531271 0.133913 0.754195
O O4 0.517135 0.172695 0.995073
O O5 0.875000 0.947469 0.375000
O O6 0.911436 0.972044 0.620892
O O7 0.214393 0.413490 0.923434
O O8 0.766455 0.037759 0.777674
O O9 0.730098 0.994427 0.974433
O O10 0.812111 0.037484 0.018210
O O11 0.099594 0.782352 0.857530
O O12 0.125000 0.742984 0.625000
#
# Coordination Sequence:
#
# PCOD8285971 Si02
#       6
#    32  32  16  32  32  32
#     4  10  20  34  56  86 118 154 194 239 305 354
#     4  11  23  37  57  83 126 152 192 251 303 352
#     4  10  20  31  60  90 120 146 196 259 296 346
#     4   9  17  32  56  87 113 148 192 243 288 355
#     4   9  17  32  52  87 122 140 187 251 294 336
#     4  10  20  35  64  87 115 158 201 244 307 362
#
# _framework density 20.254615000000001
#
# number of rings (size 3 to 8) (size 9 to 14) (size 15 to 20)
#    0.000    2.182    1.818    2.182    5.091    0.727 
#    0.000    0.909    8.000    3.273    0.000    0.000 
#    0.000    0.000    0.000    0.000    0.000    0.000 
#
# Total GULP energy -545230.476813 kJ/mol
# GULP energy per Si atom -12391.601746 kJ/mol
# Density = 2.020851 g / cm^3
# Si number density = 20.254615 Si / 1000 Ang^3
#
#
#
# Elastic Constant Matrix: (Units=GPa)
#
#
# Indices 1 2 3 4 5 6 
#
# 1 130.6098 64.3223 28.4971 -0.0056 0.0060 0.0011
# 2 64.3223 126.8644 34.9150 -0.0193 0.0242 0.0162
# 3 28.4971 34.9150 53.1588 0.0017 0.0041 0.0151
# 4 -0.0056 -0.0193 0.0017 20.4818 -0.0051 0.0062
# 5 0.0060 0.0242 0.0041 -0.0051 15.9271 -0.0055
# 6 0.0011 0.0162 0.0151 0.0062 -0.0055 32.0261
#
#
#
# Elastic Compliance Matrix: (Units=1/GPa)
#
#
# Indices 1 2 3 4 5 6 
#
# 1 0.010491 -0.004603 -0.002600 -0.000001 0.000004 0.000003
# 2 -0.004603 0.011642 -0.005179 0.000010 -0.000015 -0.000003
# 3 -0.002600 -0.005179 0.023607 -0.000008 0.000003 -0.000008
# 4 -0.000001 0.000010 -0.000008 0.048824 0.000016 -0.000009
# 5 0.000004 -0.000015 0.000003 0.000016 0.062786 0.000011
# 6 0.000003 -0.000003 -0.000008 -0.000009 0.000011 0.031224
#
#
# Mechanical properties :
#
#
# Convention : Reuss Voigt Hill
#
# Bulk Modulus (GPa) = 47.67630 62.90020 55.28825
# Shear Modulus (GPa) = 22.69325 25.88024 24.28674
#
# Velocity S-wave (km/s) = 3.35087 3.57843 3.46652
# Velocity P-wave (km/s) = 6.20972 6.94232 6.58621
#
# Compressibility (1/GPa) = 0.02097478
#
# Stress axis : x y z
#
# Youngs Moduli (GPa) = 95.32172 85.89861 42.36061
#
# Poissons Ratio (x) = 0.39542 0.11015
# Poissons Ratio (y) = 0.43880 0.21937
# Poissons Ratio (z) = 0.24787 0.44483
#
# Static dielectric constant tensor:
#      x y z
#    x 3.721540 0.000000 0.000020 
#    y 0.000000 4.099330 -0.000010 
#    z 0.000020 -0.000010 3.285730 
# 
# 
# High freq. dielectric constant tensor:
#      x y z
#    x 1.790610 0.000000 0.000000 
#    y 0.000000 1.789890 0.000000 
#    z 0.000000 0.000000 1.755400 
# 
# From -- ./inp_files/21154.got.cif
#   From: 2010.03.12/outbox.cif.g09.slc.cpg/sg70_11_cif.got.tgz:21154.got - 2010.04.16 13:46:32.
