data_PCOD8285180
_publ_section_title
;
Structure prediction by ZEFSAII (Michael W. Deem and Ramdas Pophale) SiO2 
 PCOD8285180
Probable space group: F M M M
;
_chemical_formula_sum "Si O2"
_cell_formula_units_Z 168
_cell_length_a 14.199067
_cell_length_b 22.841176
_cell_length_c 24.477561
_cell_angle_alpha 90.000000
_cell_angle_beta 90.000000
_cell_angle_gamma 90.000000
_cell_volume 7938.645523
_symmetry_space_group_name_H-M "F M M M"
_symmetry_group_IT_number 69
_symmetry_cell_setting 'orthorhombic'
loop_
_space_group_symop_operation_xyz
x,y,z
-x,-y,z
x,-y,-z
-x,y,-z
-x,-y,-z
x,y,-z
-x,y,z
x,-y,z
x,1/2+y,1/2+z
-x,1/2-y,1/2+z
x,1/2-y,1/2-z
-x,1/2+y,1/2-z
-x,1/2-y,1/2-z
x,1/2+y,1/2-z
-x,1/2+y,1/2+z
x,1/2-y,1/2+z
1/2+x,y,1/2+z
1/2-x,-y,1/2+z
1/2+x,-y,1/2-z
1/2-x,y,1/2-z
1/2-x,-y,1/2-z
1/2+x,y,1/2-z
1/2-x,y,1/2+z
1/2+x,-y,1/2+z
1/2+x,1/2+y,z
1/2-x,1/2-y,z
1/2+x,1/2-y,-z
1/2-x,1/2+y,-z
1/2-x,1/2-y,-z
1/2+x,1/2+y,-z
1/2-x,1/2+y,z
1/2+x,1/2-y,z
loop_
_atom_site_type_symbol
_atom_site_label
_atom_site_fract_x
_atom_site_fract_y
_atom_site_fract_z
Si Si1 0.108225 0.066945 0.723873
Si Si2 0.776819 0.431597 0.116677
Si Si3 0.392539 0.373589 0.835310
Si Si4 0.607861 0.735919 0.336470
Si Si5 0.750000 0.750000 0.750000
Si Si6 0.392110 0.159390 0.939258
O O1 0.168836 0.085835 0.672025
O O2 0.137113 0.107288 0.774488
O O3 0.000000 0.076067 0.707187
O O4 0.128972 0.000000 0.740877
O O5 0.779198 0.500000 0.103970
O O6 0.669898 0.408892 0.121051
O O7 0.828538 0.398333 0.067481
O O8 0.500000 0.391084 0.847457
O O9 0.375720 0.304913 0.841702
O O10 0.500000 0.721121 0.319384
O O11 0.679402 0.712046 0.289390
O O12 0.635241 0.708380 0.394648
O O13 0.500000 0.140305 0.931912
O O14 0.374679 0.185302 0.000000
#
# Coordination Sequence:
#
# PCOD8285180 Si02
#       6
#    32  32  32  32   8  32
#     4   9  18  32  52  82 123 166 203 244 300 366
#     4  11  22  36  59  91 122 158 207 259 308 363
#     4  10  21  36  55  85 125 170 208 244 297 366
#     4  10  23  39  60  93 127 164 209 254 306 375
#     4  12  22  36  58  90 130 168 190 242 316 368
#     4  10  23  45  69  90 119 160 205 260 320 373
#
# _framework density 21.162300999999999
#
# number of rings (size 3 to 8) (size 9 to 14) (size 15 to 20)
#    0.000    1.905    0.000    3.143    5.333    4.190 
#    0.000    5.238    0.000    1.714    0.000    1.333 
#    0.000    0.000    0.000    0.000    0.000    0.000 
#
# Total GULP energy -520834.539062 kJ/mol
# GULP energy per Si atom -12400.822359 kJ/mol
# Density = 2.111413 g / cm^3
# Si number density = 21.162301 Si / 1000 Ang^3
#
#
#
# Elastic Constant Matrix: (Units=GPa)
#
#
# Indices 1 2 3 4 5 6 
#
# 1 104.6427 21.0471 62.4322 0.0000 0.0000 0.0000
# 2 21.0471 90.5124 59.0321 0.0000 0.0000 0.0000
# 3 62.4322 59.0321 131.7085 0.0000 0.0000 0.0000
# 4 0.0000 0.0000 0.0000 28.1108 0.0000 0.0000
# 5 0.0000 0.0000 0.0000 0.0000 29.7519 0.0000
# 6 0.0000 0.0000 0.0000 0.0000 0.0000 26.3626
#
#
#
# Elastic Compliance Matrix: (Units=1/GPa)
#
#
# Indices 1 2 3 4 5 6 
#
# 1 0.013459 0.001457 -0.007033 0.000000 0.000000 0.000000
# 2 0.001457 0.015770 -0.007759 0.000000 0.000000 0.000000
# 3 -0.007033 -0.007759 0.014404 0.000000 0.000000 0.000000
# 4 0.000000 0.000000 0.000000 0.035573 0.000000 0.000000
# 5 0.000000 0.000000 0.000000 0.000000 0.033611 0.000000
# 6 0.000000 0.000000 0.000000 0.000000 0.000000 0.037932
#
#
# Mechanical properties :
#
#
# Convention : Reuss Voigt Hill
#
# Bulk Modulus (GPa) = 58.94988 67.98737 63.46863
# Shear Modulus (GPa) = 27.31142 29.13523 28.22332
#
# Velocity S-wave (km/s) = 3.59635 3.71449 3.65589
# Velocity P-wave (km/s) = 6.72023 7.11287 6.91934
#
# Compressibility (1/GPa) = 0.01696356
#
# Stress axis : x y z
#
# Youngs Moduli (GPa) = 74.29784 63.41327 69.42602
#
# Poissons Ratio (x) = -0.09241 0.48828
# Poissons Ratio (y) = -0.10827 0.53866
# Poissons Ratio (z) = 0.52254 0.49201
#
# Static dielectric constant tensor:
#      x y z
#    x 4.149900 0.000000 0.000000 
#    y 0.000000 3.745120 0.000000 
#    z 0.000000 0.000000 3.661170 
# 
# 
# High freq. dielectric constant tensor:
#      x y z
#    x 1.846440 0.000000 0.000000 
#    y 0.000000 1.829240 0.000000 
#    z 0.000000 0.000000 1.796360 
# 
# From -- ./inp_files/35919.got.cif
#   From: 2010.03.12/outbox.cif.g09.slc.cpg/sg69_18_cif.got.tgz:35919.got - 2010.04.10 23:52:46.
