data_PCOD8285154
_publ_section_title
;
Structure prediction by ZEFSAII (Michael W. Deem and Ramdas Pophale) SiO2 
 PCOD8285154
Probable space group: F M M M
;
_chemical_formula_sum "Si O2"
_cell_formula_units_Z 176
_cell_length_a 17.424016
_cell_length_b 23.040145
_cell_length_c 23.143162
_cell_angle_alpha 90.000000
_cell_angle_beta 90.000000
_cell_angle_gamma 90.000000
_cell_volume 9290.865318
_symmetry_space_group_name_H-M "F M M M"
_symmetry_group_IT_number 69
_symmetry_cell_setting 'orthorhombic'
loop_
_space_group_symop_operation_xyz
x,y,z
-x,-y,z
x,-y,-z
-x,y,-z
-x,-y,-z
x,y,-z
-x,y,z
x,-y,z
x,1/2+y,1/2+z
-x,1/2-y,1/2+z
x,1/2-y,1/2-z
-x,1/2+y,1/2-z
-x,1/2-y,1/2-z
x,1/2+y,1/2-z
-x,1/2+y,1/2+z
x,1/2-y,1/2+z
1/2+x,y,1/2+z
1/2-x,-y,1/2+z
1/2+x,-y,1/2-z
1/2-x,y,1/2-z
1/2-x,-y,1/2-z
1/2+x,y,1/2-z
1/2-x,y,1/2+z
1/2+x,-y,1/2+z
1/2+x,1/2+y,z
1/2-x,1/2-y,z
1/2+x,1/2-y,-z
1/2-x,1/2+y,-z
1/2-x,1/2-y,-z
1/2+x,1/2+y,-z
1/2-x,1/2+y,z
1/2+x,1/2-y,z
loop_
_atom_site_type_symbol
_atom_site_label
_atom_site_fract_x
_atom_site_fract_y
_atom_site_fract_z
Si Si1 0.412981 0.342044 0.065007
Si Si2 0.500000 0.568729 0.434952
Si Si3 0.411436 0.231022 0.328472
Si Si4 0.786583 0.566160 0.565689
Si Si5 0.838046 0.164650 0.268808
Si Si6 0.858424 0.931911 0.357566
O O1 0.500000 0.363753 0.073478
O O2 0.395560 0.287402 0.105817
O O3 0.360075 0.396000 0.081627
O O4 0.397618 0.320428 0.000000
O O5 0.500000 0.500000 0.440474
O O6 0.500000 0.595497 0.500000
O O7 0.573892 0.589907 0.399455
O O8 0.500000 0.249071 0.318891
O O9 0.391650 0.176423 0.286775
O O10 0.355054 0.284532 0.315250
O O11 0.758149 0.576800 0.500000
O O12 0.811648 0.500000 0.574391
O O13 0.719473 0.583136 0.609267
O O14 0.750000 0.166186 0.250000
O O15 0.859650 0.102854 0.297200
O O16 0.866339 0.000000 0.342976
#
# Coordination Sequence:
#
# PCOD8285154 Si02
#       6
#    32  16  32  32  32  32
#     4   9  18  34  56  82 111 142 181 233 287 329
#     4   9  18  34  56  81 112 150 187 226 278 338
#     4  10  21  37  58  77 105 146 184 228 273 332
#     4   9  17  31  52  78 110 147 184 221 271 335
#     4  11  22  36  57  79 107 144 189 224 264 334
#     4  10  21  35  56  82 113 146 182 232 282 330
#
# _framework density 18.943337
#
# number of rings (size 3 to 8) (size 9 to 14) (size 15 to 20)
#    0.000    2.273    0.000    3.818    2.545    2.909 
#    0.000    4.545    0.000    5.455    0.000    0.000 
#    0.000    0.000    0.000    0.000    0.000    0.000 
#
# Total GULP energy -545568.529204 kJ/mol
# GULP energy per Si atom -12399.284755 kJ/mol
# Density = 1.890022 g / cm^3
# Si number density = 18.943337 Si / 1000 Ang^3
#
#
#
# Elastic Constant Matrix: (Units=GPa)
#
#
# Indices 1 2 3 4 5 6 
#
# 1 105.3541 48.1928 54.0622 0.0000 0.0000 0.0000
# 2 48.1928 77.6274 59.0574 0.0000 0.0000 0.0000
# 3 54.0622 59.0574 97.1763 0.0000 0.0000 0.0000
# 4 0.0000 0.0000 0.0000 34.6733 0.0000 0.0000
# 5 0.0000 0.0000 0.0000 0.0000 29.7541 0.0000
# 6 0.0000 0.0000 0.0000 0.0000 0.0000 26.7948
#
#
#
# Elastic Compliance Matrix: (Units=1/GPa)
#
#
# Indices 1 2 3 4 5 6 
#
# 1 0.014359 -0.005277 -0.004782 0.000000 0.000000 0.000000
# 2 -0.005277 0.025899 -0.012804 0.000000 0.000000 0.000000
# 3 -0.004782 -0.012804 0.020732 0.000000 0.000000 0.000000
# 4 0.000000 0.000000 0.000000 0.028841 0.000000 0.000000
# 5 0.000000 0.000000 0.000000 0.000000 0.033609 0.000000
# 6 0.000000 0.000000 0.000000 0.000000 0.000000 0.037321
#
#
# Mechanical properties :
#
#
# Convention : Reuss Voigt Hill
#
# Bulk Modulus (GPa) = 65.50700 66.97584 66.24142
# Shear Modulus (GPa) = 23.63234 26.16747 24.89991
#
# Velocity S-wave (km/s) = 3.53587 3.72069 3.62946
# Velocity P-wave (km/s) = 7.16417 7.34103 7.25314
#
# Compressibility (1/GPa) = 0.01526554
#
# Stress axis : x y z
#
# Youngs Moduli (GPa) = 69.64140 38.61129 48.23399
#
# Poissons Ratio (x) = 0.20374 0.23064
# Poissons Ratio (y) = 0.36748 0.61760
# Poissons Ratio (z) = 0.33300 0.49439
#
# Static dielectric constant tensor:
#      x y z
#    x 3.562160 0.000000 0.000000 
#    y 0.000000 3.241180 0.000000 
#    z 0.000000 0.000000 3.612420 
# 
# 
# High freq. dielectric constant tensor:
#      x y z
#    x 1.745880 0.000000 0.000000 
#    y 0.000000 1.712930 0.000000 
#    z 0.000000 0.000000 1.740790 
# 
# From -- ./inp_files/36044.got.cif
#   From: 2010.03.12/outbox.cif.g09.slc.cpg/sg69_19_cif.got.tgz:36044.got - 2010.04.10 23:52:46.
