data_PCOD8285102
_publ_section_title
;
Structure prediction by ZEFSAII (Michael W. Deem and Ramdas Pophale) SiO2 
 PCOD8285102
Probable space group: F M M M
;
_chemical_formula_sum "Si O2"
_cell_formula_units_Z 96
_cell_length_a 12.650080
_cell_length_b 21.806053
_cell_length_c 17.182268
_cell_angle_alpha 90.000000
_cell_angle_beta 90.000000
_cell_angle_gamma 90.000000
_cell_volume 4739.699675
_symmetry_space_group_name_H-M "F M M M"
_symmetry_group_IT_number 69
_symmetry_cell_setting 'orthorhombic'
loop_
_space_group_symop_operation_xyz
x,y,z
-x,-y,z
x,-y,-z
-x,y,-z
-x,-y,-z
x,y,-z
-x,y,z
x,-y,z
x,1/2+y,1/2+z
-x,1/2-y,1/2+z
x,1/2-y,1/2-z
-x,1/2+y,1/2-z
-x,1/2-y,1/2-z
x,1/2+y,1/2-z
-x,1/2+y,1/2+z
x,1/2-y,1/2+z
1/2+x,y,1/2+z
1/2-x,-y,1/2+z
1/2+x,-y,1/2-z
1/2-x,y,1/2-z
1/2-x,-y,1/2-z
1/2+x,y,1/2-z
1/2-x,y,1/2+z
1/2+x,-y,1/2+z
1/2+x,1/2+y,z
1/2-x,1/2-y,z
1/2+x,1/2-y,-z
1/2-x,1/2+y,-z
1/2-x,1/2-y,-z
1/2+x,1/2+y,-z
1/2-x,1/2+y,z
1/2+x,1/2-y,z
loop_
_atom_site_type_symbol
_atom_site_label
_atom_site_fract_x
_atom_site_fract_y
_atom_site_fract_z
Si Si1 0.385632 0.366197 0.914117
Si Si2 0.500000 0.735053 0.160154
Si Si3 0.204209 0.071277 0.667109
Si Si4 0.500000 0.366582 0.593117
O O1 0.500000 0.400396 0.912086
O O2 0.394660 0.305348 0.859493
O O3 0.298138 0.415470 0.892199
O O4 0.359161 0.341790 0.000000
O O5 0.500000 0.750000 0.250000
O O6 0.500000 0.794021 0.104690
O O7 0.250000 0.093930 0.750000
O O8 0.101146 0.106994 0.638436
O O9 0.175243 0.000000 0.668707
O O10 0.500000 0.382449 0.500000
#
# Coordination Sequence:
#
# PCOD8285102 Si02
#       4
#    32  16  32  16
#     4   9  20  40  63  92 124 158 208 259 308 369
#     4  10  20  39  66  95 128 163 209 261 319 376
#     4  11  25  42  64  92 128 170 214 261 314 376
#     4  12  25  42  66  97 133 169 210 263 324 385
#
# _framework density 20.254448
#
# number of rings (size 3 to 8) (size 9 to 14) (size 15 to 20)
#    1.000    0.667    0.000    4.500    2.333    5.333 
#    0.000    8.333    0.000    0.000    0.000    0.000 
#    0.000    0.000    0.000    0.000    0.000    0.000 
#
# Total GULP energy -297327.531210 kJ/mol
# GULP energy per Si atom -12388.647134 kJ/mol
# Density = 2.020835 g / cm^3
# Si number density = 20.254448 Si / 1000 Ang^3
#
#
#
# Elastic Constant Matrix: (Units=GPa)
#
#
# Indices 1 2 3 4 5 6 
#
# 1 113.4336 21.5169 43.9041 0.0000 0.0000 0.0000
# 2 21.5169 47.0631 9.6465 0.0000 0.0000 0.0000
# 3 43.9041 9.6465 134.7067 0.0000 0.0000 0.0000
# 4 0.0000 0.0000 0.0000 32.9187 0.0000 0.0000
# 5 0.0000 0.0000 0.0000 0.0000 35.9083 0.0000
# 6 0.0000 0.0000 0.0000 0.0000 0.0000 34.5839
#
#
#
# Elastic Compliance Matrix: (Units=1/GPa)
#
#
# Indices 1 2 3 4 5 6 
#
# 1 0.010888 -0.004314 -0.003240 0.000000 0.000000 0.000000
# 2 -0.004314 0.023274 -0.000261 0.000000 0.000000 0.000000
# 3 -0.003240 -0.000261 0.008498 0.000000 0.000000 0.000000
# 4 0.000000 0.000000 0.000000 0.030378 0.000000 0.000000
# 5 0.000000 0.000000 0.000000 0.000000 0.027849 0.000000
# 6 0.000000 0.000000 0.000000 0.000000 0.000000 0.028915
#
#
# Mechanical properties :
#
#
# Convention : Reuss Voigt Hill
#
# Bulk Modulus (GPa) = 36.99415 49.48205 43.23810
# Shear Modulus (GPa) = 32.37495 35.35792 33.86644
#
# Velocity S-wave (km/s) = 4.00235 4.18267 4.09351
# Velocity P-wave (km/s) = 6.29784 6.91445 6.61333
#
# Compressibility (1/GPa) = 0.02703130
#
# Stress axis : x y z
#
# Youngs Moduli (GPa) = 91.84481 42.96690 117.67338
#
# Poissons Ratio (x) = 0.18535 0.38123
# Poissons Ratio (y) = 0.39620 0.03068
# Poissons Ratio (z) = 0.29755 0.01120
#
# Static dielectric constant tensor:
#      x y z
#    x 3.857820 0.000000 0.000000 
#    y 0.000000 3.477600 0.000000 
#    z 0.000000 0.000000 3.849710 
# 
# 
# High freq. dielectric constant tensor:
#      x y z
#    x 1.788080 0.000000 0.000000 
#    y 0.000000 1.778490 0.000000 
#    z 0.000000 0.000000 1.809240 
# 
# From -- ./inp_files/28846.got.cif
#   From: 2010.03.12/outbox.cif.g09.slc.cpg/sg69_15_cif.got.tgz:28846.got - 2010.04.10 23:52:46.
