data_PCOD8285306
_publ_section_title
;
Structure prediction by ZEFSAII (Michael W. Deem and Ramdas Pophale) SiO2 
 PCOD8285306
Probable space group: F M M M
;
_chemical_formula_sum "Si O2"
_cell_formula_units_Z 160
_cell_length_a 16.082404
_cell_length_b 29.510550
_cell_length_c 16.637818
_cell_angle_alpha 90.000000
_cell_angle_beta 90.000000
_cell_angle_gamma 90.000000
_cell_volume 7896.318195
_symmetry_space_group_name_H-M "F M M M"
_symmetry_group_IT_number 69
_symmetry_cell_setting 'orthorhombic'
loop_
_space_group_symop_operation_xyz
x,y,z
-x,-y,z
x,-y,-z
-x,y,-z
-x,-y,-z
x,y,-z
-x,y,z
x,-y,z
x,1/2+y,1/2+z
-x,1/2-y,1/2+z
x,1/2-y,1/2-z
-x,1/2+y,1/2-z
-x,1/2-y,1/2-z
x,1/2+y,1/2-z
-x,1/2+y,1/2+z
x,1/2-y,1/2+z
1/2+x,y,1/2+z
1/2-x,-y,1/2+z
1/2+x,-y,1/2-z
1/2-x,y,1/2-z
1/2-x,-y,1/2-z
1/2+x,y,1/2-z
1/2-x,y,1/2+z
1/2+x,-y,1/2+z
1/2+x,1/2+y,z
1/2-x,1/2-y,z
1/2+x,1/2-y,-z
1/2-x,1/2+y,-z
1/2-x,1/2-y,-z
1/2+x,1/2+y,-z
1/2-x,1/2+y,z
1/2+x,1/2-y,z
loop_
_atom_site_type_symbol
_atom_site_label
_atom_site_fract_x
_atom_site_fract_y
_atom_site_fract_z
Si Si1 0.357583 0.608781 0.330467
Si Si2 0.902053 0.551162 0.500000
Si Si3 0.852948 0.300069 0.091196
Si Si4 0.164369 0.392589 0.648750
Si Si5 0.000000 0.550775 0.905435
Si Si6 0.655662 0.201773 0.410035
O O1 0.386201 0.660801 0.348850
O O2 0.263554 0.604221 0.361646
O O3 0.364430 0.593847 0.237728
O O4 0.416218 0.575059 0.377907
O O5 0.866932 0.500000 0.500000
O O6 0.872498 0.575075 0.581304
O O7 0.000000 0.551234 0.500000
O O8 0.754457 0.297749 0.090994
O O9 0.882044 0.249851 0.121746
O O10 0.884900 0.309562 0.000000
O O11 0.127583 0.341603 0.641077
O O12 0.000000 0.500000 0.870197
O O13 0.000000 0.550034 0.000000
O O14 0.622906 0.194334 0.500000
#
# Coordination Sequence:
#
# PCOD8285306 Si02
#       6
#    32  16  32  32  16  32
#     4  10  22  38  62  93 124 158 199 252 304 357
#     4  11  26  44  66  88 113 157 203 251 314 369
#     4   8  14  26  52  86 121 159 197 237 285 353
#     4  10  21  39  64  92 122 158 200 251 303 362
#     4  11  26  44  64  86 117 161 203 253 313 362
#     4   8  13  26  52  86 120 157 198 237 285 350
#
# _framework density 20.262608
#
# number of rings (size 3 to 8) (size 9 to 14) (size 15 to 20)
#    0.000    2.600    1.000    1.800    4.200    2.400 
#    0.000    6.000    2.200    1.200    0.000    0.000 
#    0.000    0.000    0.000    0.000    0.000    0.000 
#
# Total GULP energy -495608.921897 kJ/mol
# GULP energy per Si atom -12390.223047 kJ/mol
# Density = 2.021649 g / cm^3
# Si number density = 20.262608 Si / 1000 Ang^3
#
#
#
# Elastic Constant Matrix: (Units=GPa)
#
#
# Indices 1 2 3 4 5 6 
#
# 1 46.9495 45.5518 30.0596 0.0000 0.0000 0.0000
# 2 45.5518 173.5659 68.6046 0.0000 0.0000 0.0000
# 3 30.0596 68.6046 98.9392 0.0000 0.0000 0.0000
# 4 0.0000 0.0000 0.0000 8.2419 0.0000 0.0000
# 5 0.0000 0.0000 0.0000 0.0000 21.6504 0.0000
# 6 0.0000 0.0000 0.0000 0.0000 0.0000 300.4909
#
#
#
# Elastic Compliance Matrix: (Units=1/GPa)
#
#
# Indices 1 2 3 4 5 6 
#
# 1 0.030329 -0.005948 -0.005090 0.000000 0.000000 0.000000
# 2 -0.005948 0.009103 -0.004505 0.000000 0.000000 0.000000
# 3 -0.005090 -0.004505 0.014778 0.000000 0.000000 0.000000
# 4 0.000000 0.000000 0.000000 0.121332 0.000000 0.000000
# 5 0.000000 0.000000 0.000000 0.000000 0.046188 0.000000
# 6 0.000000 0.000000 0.000000 0.000000 0.000000 0.003328
#
#
# Mechanical properties :
#
#
# Convention : Reuss Voigt Hill
#
# Bulk Modulus (GPa) = 43.24602 67.54296 55.39449
# Shear Modulus (GPa) = 18.94996 77.75922 48.35459
#
# Velocity S-wave (km/s) = 3.06145 6.20153 4.89037
# Velocity P-wave (km/s) = 5.82115 9.20244 7.69970
#
# Compressibility (1/GPa) = 0.02312351
#
# Stress axis : x y z
#
# Youngs Moduli (GPa) = 32.97140 109.85164 67.66981
#
# Poissons Ratio (x) = 0.65337 0.34447
# Poissons Ratio (y) = 0.19611 0.30486
# Poissons Ratio (z) = 0.16784 0.49489
#
# Static dielectric constant tensor:
#      x y z
#    x 3.281040 0.000000 0.000000 
#    y 0.000000 4.226610 0.000000 
#    z 0.000000 0.000000 3.626570 
# 
# 
# High freq. dielectric constant tensor:
#      x y z
#    x 1.756790 0.000000 0.000000 
#    y 0.000000 1.801760 0.000000 
#    z 0.000000 0.000000 1.784910 
# 
# From -- ./inp_files/15713.got.cif
#   From: 2010.03.12/outbox.cif.g09.slc.cpg/sg69_8_cif.got.tgz:15713.got - 2010.04.10 23:52:46.
