data_PCOD8285677
_publ_section_title
;
Structure prediction by ZEFSAII (Michael W. Deem and Ramdas Pophale) SiO2 
 PCOD8285677
Probable space group: F M M M
;
_chemical_formula_sum "Si O2"
_cell_formula_units_Z 160
_cell_length_a 9.631529
_cell_length_b 37.752821
_cell_length_c 27.525062
_cell_angle_alpha 90.000000
_cell_angle_beta 90.000000
_cell_angle_gamma 90.000000
_cell_volume 10008.591212
_symmetry_space_group_name_H-M "F M M M"
_symmetry_group_IT_number 69
_symmetry_cell_setting 'orthorhombic'
loop_
_space_group_symop_operation_xyz
x,y,z
-x,-y,z
x,-y,-z
-x,y,-z
-x,-y,-z
x,y,-z
-x,y,z
x,-y,z
x,1/2+y,1/2+z
-x,1/2-y,1/2+z
x,1/2-y,1/2-z
-x,1/2+y,1/2-z
-x,1/2-y,1/2-z
x,1/2+y,1/2-z
-x,1/2+y,1/2+z
x,1/2-y,1/2+z
1/2+x,y,1/2+z
1/2-x,-y,1/2+z
1/2+x,-y,1/2-z
1/2-x,y,1/2-z
1/2-x,-y,1/2-z
1/2+x,y,1/2-z
1/2-x,y,1/2+z
1/2+x,-y,1/2+z
1/2+x,1/2+y,z
1/2-x,1/2-y,z
1/2+x,1/2-y,-z
1/2-x,1/2+y,-z
1/2-x,1/2-y,-z
1/2+x,1/2+y,-z
1/2-x,1/2+y,z
1/2+x,1/2-y,z
loop_
_atom_site_type_symbol
_atom_site_label
_atom_site_fract_x
_atom_site_fract_y
_atom_site_fract_z
Si Si1 0.334793 0.961001 0.054824
Si Si2 0.834969 0.107449 0.392896
Si Si3 0.665145 0.175990 0.946277
Si Si4 0.660978 0.716770 0.646693
Si Si5 0.839049 0.645111 0.797190
O O1 0.500000 0.960007 0.055704
O O2 0.274088 0.930709 0.090635
O O3 0.282990 0.000000 0.071982
O O4 0.282962 0.953540 0.000000
O O5 0.777481 0.137684 0.429345
O O6 0.790778 0.116666 0.337869
O O7 0.000000 0.107536 0.396058
O O8 0.500000 0.174373 0.946842
O O9 0.711389 0.205769 0.907549
O O10 0.724124 0.184990 0.000000
O O11 0.500000 0.727532 0.646730
O O12 0.750000 0.750000 0.664791
O O13 0.688411 0.684638 0.683480
O O14 0.750000 0.637270 0.750000
O O15 0.000000 0.640123 0.784186
#
# Coordination Sequence:
#
# PCOD8285677 Si02
#       5
#    32  32  32  32  32
#     4   8  12  17  29  54  86 114 135 156 189 233
#     4   8  13  22  36  54  78 106 134 164 196 232
#     4   8  13  22  37  55  75 102 133 160 189 231
#     4   9  18  30  42  59  81 102 128 163 201 241
#     4   9  18  31  45  60  77 101 135 170 203 239
#
# _framework density 15.986266000000001
#
# number of rings (size 3 to 8) (size 9 to 14) (size 15 to 20)
#    0.000    3.600    0.000    3.600    0.000    4.000 
#    0.000    2.000    0.000    0.600    0.000    0.000 
#    0.000    2.400    0.000    2.200    0.000    4.200 
#
# Total GULP energy -495631.459881 kJ/mol
# GULP energy per Si atom -12390.786497 kJ/mol
# Density = 1.594988 g / cm^3
# Si number density = 15.986266 Si / 1000 Ang^3
#
#
#
# Elastic Constant Matrix: (Units=GPa)
#
#
# Indices 1 2 3 4 5 6 
#
# 1 20.6221 26.3702 25.8204 0.0000 0.0000 0.0000
# 2 26.3702 113.8042 46.2151 0.0000 0.0000 0.0000
# 3 25.8204 46.2151 102.4149 0.0000 0.0000 0.0000
# 4 0.0000 0.0000 0.0000 16.8378 0.0000 0.0000
# 5 0.0000 0.0000 0.0000 0.0000 18.0336 0.0000
# 6 0.0000 0.0000 0.0000 0.0000 0.0000 9.2974
#
#
#
# Elastic Compliance Matrix: (Units=1/GPa)
#
#
# Indices 1 2 3 4 5 6 
#
# 1 0.084878 -0.013440 -0.015334 0.000000 0.000000 0.000000
# 2 -0.013440 0.012887 -0.002427 0.000000 0.000000 0.000000
# 3 -0.015334 -0.002427 0.014725 0.000000 0.000000 0.000000
# 4 0.000000 0.000000 0.000000 0.059390 0.000000 0.000000
# 5 0.000000 0.000000 0.000000 0.000000 0.055452 0.000000
# 6 0.000000 0.000000 0.000000 0.000000 0.000000 0.107557
#
#
# Mechanical properties :
#
#
# Convention : Reuss Voigt Hill
#
# Bulk Modulus (GPa) = 19.96503 48.18361 34.07432
# Shear Modulus (GPa) = 12.07767 18.06278 15.07023
#
# Velocity S-wave (km/s) = 2.75162 3.36504 3.07367
# Velocity P-wave (km/s) = 4.75513 6.73083 5.82732
#
# Compressibility (1/GPa) = 0.05008759
#
# Stress axis : x y z
#
# Youngs Moduli (GPa) = 11.78166 77.59852 67.91089
#
# Poissons Ratio (x) = 1.04296 1.04134
# Poissons Ratio (y) = 0.15835 0.16480
# Poissons Ratio (z) = 0.18066 0.18831
#
# Static dielectric constant tensor:
#      x y z
#    x 2.427290 0.000000 0.000000 
#    y 0.000000 3.272260 0.000000 
#    z 0.000000 0.000000 3.145580 
# 
# 
# High freq. dielectric constant tensor:
#      x y z
#    x 1.548300 0.000000 0.000000 
#    y 0.000000 1.613230 0.000000 
#    z 0.000000 0.000000 1.612510 
# 
# From -- ./inp_files/40397.got.cif
#   From: 2010.03.12/outbox.cif.g09.slc.cpg/sg69_21_cif.got.tgz:40397.got - 2010.04.10 23:52:46.
