data_PCOD8285483
_publ_section_title
;
Structure prediction by ZEFSAII (Michael W. Deem and Ramdas Pophale) SiO2 
 PCOD8285483
Probable space group: F M M M
;
_chemical_formula_sum "Si O2"
_cell_formula_units_Z 160
_cell_length_a 13.911023
_cell_length_b 23.363108
_cell_length_c 24.374187
_cell_angle_alpha 90.000000
_cell_angle_beta 90.000000
_cell_angle_gamma 90.000000
_cell_volume 7921.726132
_symmetry_space_group_name_H-M "F M M M"
_symmetry_group_IT_number 69
_symmetry_cell_setting 'orthorhombic'
loop_
_space_group_symop_operation_xyz
x,y,z
-x,-y,z
x,-y,-z
-x,y,-z
-x,-y,-z
x,y,-z
-x,y,z
x,-y,z
x,1/2+y,1/2+z
-x,1/2-y,1/2+z
x,1/2-y,1/2-z
-x,1/2+y,1/2-z
-x,1/2-y,1/2-z
x,1/2+y,1/2-z
-x,1/2+y,1/2+z
x,1/2-y,1/2+z
1/2+x,y,1/2+z
1/2-x,-y,1/2+z
1/2+x,-y,1/2-z
1/2-x,y,1/2-z
1/2-x,-y,1/2-z
1/2+x,y,1/2-z
1/2-x,y,1/2+z
1/2+x,-y,1/2+z
1/2+x,1/2+y,z
1/2-x,1/2-y,z
1/2+x,1/2-y,-z
1/2-x,1/2+y,-z
1/2-x,1/2-y,-z
1/2+x,1/2+y,-z
1/2-x,1/2+y,z
1/2+x,1/2-y,z
loop_
_atom_site_type_symbol
_atom_site_label
_atom_site_fract_x
_atom_site_fract_y
_atom_site_fract_z
Si Si1 0.354654 0.722382 0.198170
Si Si2 0.767197 0.652233 0.939580
Si Si3 0.275630 0.063580 0.160815
Si Si4 0.885827 0.903732 0.233252
Si Si5 0.896132 0.759195 0.080340
O O1 0.408816 0.750000 0.250000
O O2 0.250000 0.750000 0.189378
O O3 0.346037 0.656012 0.210781
O O4 0.415719 0.735609 0.144978
O O5 0.770447 0.604612 0.892271
O O6 0.852993 0.697440 0.933289
O O7 0.668431 0.687834 0.938504
O O8 0.775230 0.623123 0.000000
O O9 0.173305 0.055042 0.192293
O O10 0.356313 0.087022 0.203347
O O11 0.305894 0.000000 0.140727
O O12 0.000000 0.912025 0.226496
O O13 0.000000 0.763720 0.051308
#
# Coordination Sequence:
#
# PCOD8285483 Si02
#       5
#    32  32  32  32  32
#     4  11  19  31  55  89 130 160 189 236 297 369
#     4  11  24  42  61  87 123 159 206 257 299 359
#     4  11  24  42  63  89 123 161 208 261 303 358
#     4  11  22  39  63  91 124 161 199 248 309 369
#     4  11  21  38  62  89 121 157 197 246 306 368
#
# _framework density 20.197617000000001
#
# number of rings (size 3 to 8) (size 9 to 14) (size 15 to 20)
#    0.000    1.000    4.000    6.600    0.000    7.600 
#    0.000    0.000    0.000    0.000    0.000    5.600 
#    0.000    0.000    0.000    0.000    0.000    0.000 
#
# Total GULP energy -495617.249372 kJ/mol
# GULP energy per Si atom -12390.431234 kJ/mol
# Density = 2.015165 g / cm^3
# Si number density = 20.197617 Si / 1000 Ang^3
#
#
#
# Elastic Constant Matrix: (Units=GPa)
#
#
# Indices 1 2 3 4 5 6 
#
# 1 140.9133 45.5654 19.7843 0.0000 0.0000 0.0000
# 2 45.5654 91.8699 50.5690 0.0000 0.0000 0.0000
# 3 19.7843 50.5690 166.7270 0.0000 0.0000 0.0000
# 4 0.0000 0.0000 0.0000 19.4896 0.0000 0.0000
# 5 0.0000 0.0000 0.0000 0.0000 -34.6487 0.0000
# 6 0.0000 0.0000 0.0000 0.0000 0.0000 3.5013
#
#
#
# Elastic Compliance Matrix: (Units=1/GPa)
#
#
# Indices 1 2 3 4 5 6 
#
# 1 0.008467 -0.004377 0.000323 0.000000 0.000000 0.000000
# 2 -0.004377 0.015329 -0.004130 0.000000 0.000000 0.000000
# 3 0.000323 -0.004130 0.007212 0.000000 0.000000 0.000000
# 4 0.000000 0.000000 0.000000 0.051309 0.000000 0.000000
# 5 0.000000 0.000000 0.000000 0.000000 -0.028861 0.000000
# 6 0.000000 0.000000 0.000000 0.000000 0.000000 0.285612
#
#
# Mechanical properties :
#
#
# Convention : Reuss Voigt Hill
#
# Bulk Modulus (GPa) = 68.30736 70.14973 69.22854
# Shear Modulus (GPa) = 13.87671 16.57454 15.22563
#
# Velocity S-wave (km/s) = 2.62400 2.86775 2.74858
# Velocity P-wave (km/s) = 6.56304 6.76553 6.66505
#
# Compressibility (1/GPa) = 0.01463971
#
# Stress axis : x y z
#
# Youngs Moduli (GPa) = 118.11194 65.23523 138.65464
#
# Poissons Ratio (x) = 0.28553 -0.04477
# Poissons Ratio (y) = 0.51697 0.57264
# Poissons Ratio (z) = -0.03814 0.26942
#
# Static dielectric constant tensor:
#      x y z
#    x 3.583490 0.000000 0.000000 
#    y 0.000000 3.631790 0.000000 
#    z 0.000000 0.000000 4.367710 
# 
# 
# High freq. dielectric constant tensor:
#      x y z
#    x 1.787750 0.000000 0.000000 
#    y 0.000000 1.775090 0.000000 
#    z 0.000000 0.000000 1.797800 
# 
# From -- ./inp_files/35824.got.cif
#   From: 2010.03.12/outbox.cif.g09.slc.cpg/sg69_18_cif.got.tgz:35824.got - 2010.04.10 23:52:46.
