data_PCOD8285421
_publ_section_title
;
Structure prediction by ZEFSAII (Michael W. Deem and Ramdas Pophale) SiO2 
 PCOD8285421
Probable space group: F M M M
;
_chemical_formula_sum "Si O2"
_cell_formula_units_Z 192
_cell_length_a 27.459434
_cell_length_b 15.244204
_cell_length_c 23.231117
_cell_angle_alpha 90.000000
_cell_angle_beta 90.000000
_cell_angle_gamma 90.000000
_cell_volume 9724.480845
_symmetry_space_group_name_H-M "F M M M"
_symmetry_group_IT_number 69
_symmetry_cell_setting 'orthorhombic'
loop_
_space_group_symop_operation_xyz
x,y,z
-x,-y,z
x,-y,-z
-x,y,-z
-x,-y,-z
x,y,-z
-x,y,z
x,-y,z
x,1/2+y,1/2+z
-x,1/2-y,1/2+z
x,1/2-y,1/2-z
-x,1/2+y,1/2-z
-x,1/2-y,1/2-z
x,1/2+y,1/2-z
-x,1/2+y,1/2+z
x,1/2-y,1/2+z
1/2+x,y,1/2+z
1/2-x,-y,1/2+z
1/2+x,-y,1/2-z
1/2-x,y,1/2-z
1/2-x,-y,1/2-z
1/2+x,y,1/2-z
1/2-x,y,1/2+z
1/2+x,-y,1/2+z
1/2+x,1/2+y,z
1/2-x,1/2-y,z
1/2+x,1/2-y,-z
1/2-x,1/2+y,-z
1/2-x,1/2-y,-z
1/2+x,1/2+y,-z
1/2-x,1/2+y,z
1/2+x,1/2-y,z
loop_
_atom_site_type_symbol
_atom_site_label
_atom_site_fract_x
_atom_site_fract_y
_atom_site_fract_z
Si Si1 0.500000 0.899616 0.814299
Si Si2 0.104962 0.253959 0.934659
Si Si3 0.740015 0.896612 0.687161
Si Si4 0.400994 0.849780 0.758637
Si Si5 0.659947 0.099433 0.136913
Si Si6 0.863115 0.599640 0.642793
Si Si7 0.500000 0.825859 0.935868
O O1 0.453756 0.851246 0.787718
O O2 0.500000 0.896250 0.884119
O O3 0.500000 0.000000 0.795251
O O4 0.132073 0.334852 0.904701
O O5 0.117334 0.160331 0.907860
O O6 0.047068 0.264655 0.929332
O O7 0.122856 0.253148 0.000000
O O8 0.750000 0.854117 0.750000
O O9 0.783468 0.872854 0.642886
O O10 0.689352 0.861068 0.661602
O O11 0.735422 0.000000 0.694592
O O12 0.384718 0.750000 0.750000
O O13 0.362816 0.899031 0.799392
O O14 0.399978 0.897585 0.696995
O O15 0.654948 0.000000 0.112748
O O16 0.859773 0.500000 0.619719
O O17 0.500000 0.871039 0.000000
#
# Coordination Sequence:
#
# PCOD8285421 Si02
#       7
#    16  32  32  32  32  32  16
#     4  12  23  36  58  92 126 161 204 251 309 377
#     4  11  25  44  63  87 118 162 211 256 306 359
#     4   9  18  33  59  92 125 158 199 248 296 363
#     4  12  22  37  58  90 129 162 195 249 311 368
#     4  11  21  38  62  91 123 156 199 251 308 364
#     4  11  22  40  63  91 125 164 205 248 303 364
#     4  10  22  42  63  83 120 163 206 258 302 354
#
# _framework density 19.743984000000001
#
# number of rings (size 3 to 8) (size 9 to 14) (size 15 to 20)
#    0.000    1.167    5.000    1.750    0.000    2.167 
#    0.000    6.250    0.000    4.500    0.000    0.000 
#    0.000    0.000    0.000    0.000    0.000    0.000 
#
# Total GULP energy -595265.809967 kJ/mol
# GULP energy per Si atom -12401.371041 kJ/mol
# Density = 1.969905 g / cm^3
# Si number density = 19.743984 Si / 1000 Ang^3
#
#
#
# Elastic Constant Matrix: (Units=GPa)
#
#
# Indices 1 2 3 4 5 6 
#
# 1 111.5196 29.1451 43.3706 0.0000 0.0000 0.0000
# 2 29.1451 99.5688 49.0944 0.0000 0.0000 0.0000
# 3 43.3706 49.0944 119.6186 0.0000 0.0000 0.0000
# 4 0.0000 0.0000 0.0000 22.9471 0.0000 0.0000
# 5 0.0000 0.0000 0.0000 0.0000 22.6234 0.0000
# 6 0.0000 0.0000 0.0000 0.0000 0.0000 20.1956
#
#
#
# Elastic Compliance Matrix: (Units=1/GPa)
#
#
# Indices 1 2 3 4 5 6 
#
# 1 0.010619 -0.001517 -0.003227 0.000000 0.000000 0.000000
# 2 -0.001517 0.012808 -0.004707 0.000000 0.000000 0.000000
# 3 -0.003227 -0.004707 0.011462 0.000000 0.000000 0.000000
# 4 0.000000 0.000000 0.000000 0.043578 0.000000 0.000000
# 5 0.000000 0.000000 0.000000 0.000000 0.044202 0.000000
# 6 0.000000 0.000000 0.000000 0.000000 0.000000 0.049516
#
#
# Mechanical properties :
#
#
# Convention : Reuss Voigt Hill
#
# Bulk Modulus (GPa) = 62.55324 63.76968 63.16146
# Shear Modulus (GPa) = 25.45618 27.09300 26.27459
#
# Velocity S-wave (km/s) = 3.59460 3.70836 3.65192
# Velocity P-wave (km/s) = 6.99851 7.12070 7.05987
#
# Compressibility (1/GPa) = 0.01598638
#
# Stress axis : x y z
#
# Youngs Moduli (GPa) = 94.17396 78.07568 87.24565
#
# Poissons Ratio (x) = 0.11843 0.28159
# Poissons Ratio (y) = 0.14285 0.41065
# Poissons Ratio (z) = 0.30395 0.36749
#
# Static dielectric constant tensor:
#      x y z
#    x 3.859310 0.000000 0.000000 
#    y 0.000000 3.402950 0.000000 
#    z 0.000000 0.000000 3.550620 
# 
# 
# High freq. dielectric constant tensor:
#      x y z
#    x 1.781970 0.000000 0.000000 
#    y 0.000000 1.763760 0.000000 
#    z 0.000000 0.000000 1.752970 
# 
# From -- ./inp_files/38391.got.cif
#   From: 2010.03.12/outbox.cif.g09.slc.cpg/sg69_20_cif.got.tgz:38391.got - 2010.04.10 23:52:46.
