data_PCOD8285310
_publ_section_title
;
Structure prediction by ZEFSAII (Michael W. Deem and Ramdas Pophale) SiO2 
 PCOD8285310
Probable space group: F M M M
;
_chemical_formula_sum "Si O2"
_cell_formula_units_Z 104
_cell_length_a 17.139760
_cell_length_b 13.412815
_cell_length_c 22.199900
_cell_angle_alpha 90.000000
_cell_angle_beta 90.000000
_cell_angle_gamma 90.000000
_cell_volume 5103.588957
_symmetry_space_group_name_H-M "F M M M"
_symmetry_group_IT_number 69
_symmetry_cell_setting 'orthorhombic'
loop_
_space_group_symop_operation_xyz
x,y,z
-x,-y,z
x,-y,-z
-x,y,-z
-x,-y,-z
x,y,-z
-x,y,z
x,-y,z
x,1/2+y,1/2+z
-x,1/2-y,1/2+z
x,1/2-y,1/2-z
-x,1/2+y,1/2-z
-x,1/2-y,1/2-z
x,1/2+y,1/2-z
-x,1/2+y,1/2+z
x,1/2-y,1/2+z
1/2+x,y,1/2+z
1/2-x,-y,1/2+z
1/2+x,-y,1/2-z
1/2-x,y,1/2-z
1/2-x,-y,1/2-z
1/2+x,y,1/2-z
1/2-x,y,1/2+z
1/2+x,-y,1/2+z
1/2+x,1/2+y,z
1/2-x,1/2-y,z
1/2+x,1/2-y,-z
1/2-x,1/2+y,-z
1/2-x,1/2-y,-z
1/2+x,1/2+y,-z
1/2-x,1/2+y,z
1/2+x,1/2-y,z
loop_
_atom_site_type_symbol
_atom_site_label
_atom_site_fract_x
_atom_site_fract_y
_atom_site_fract_z
Si Si1 0.000000 0.116336 0.620383
Si Si2 0.151700 0.888232 0.000000
Si Si3 0.500000 0.752275 0.000000
Si Si4 0.206876 0.887111 0.127811
Si Si5 0.859045 0.213669 0.681794
O O1 0.000000 0.177939 0.558708
O O2 0.927779 0.140587 0.663494
O O3 0.000000 0.000000 0.603531
O O4 0.211713 0.875749 0.055697
O O5 0.078677 0.813252 0.000000
O O6 0.115657 0.000000 0.000000
O O7 0.133419 0.818086 0.145749
O O8 0.281241 0.845759 0.163361
O O9 0.191473 0.000000 0.148179
O O10 0.859534 0.250000 0.750000
#
# Coordination Sequence:
#
# PCOD8285310 Si02
#       5
#    16  16   8  32  32
#     4  12  26  44  66  96 130 174 220 270 330 390
#     4  10  21  39  68 100 133 170 213 269 335 388
#     4  12  22  44  66  98 134 172 214 272 330 390
#     4  10  21  39  66  97 127 167 213 266 327 385
#     4  11  24  42  64  92 132 171 215 268 321 386
#
# _framework density 20.377817
#
# number of rings (size 3 to 8) (size 9 to 14) (size 15 to 20)
#    0.000    1.231    3.077    3.692    0.000    7.385 
#    0.000    3.846    0.000    0.000    0.000    0.000 
#    0.000    0.000    0.000    0.000    0.000    0.000 
#
# Total GULP energy -322136.542783 kJ/mol
# GULP energy per Si atom -12389.867030 kJ/mol
# Density = 2.033144 g / cm^3
# Si number density = 20.377817 Si / 1000 Ang^3
#
#
#
# Elastic Constant Matrix: (Units=GPa)
#
#
# Indices 1 2 3 4 5 6 
#
# 1 74.4540 37.5911 29.2533 0.0000 0.0000 0.0000
# 2 37.5911 165.9193 55.7219 0.0000 0.0000 0.0000
# 3 29.2533 55.7219 149.3982 0.0000 0.0000 0.0000
# 4 0.0000 0.0000 0.0000 26.5386 0.0000 0.0000
# 5 0.0000 0.0000 0.0000 0.0000 51.4115 0.0000
# 6 0.0000 0.0000 0.0000 0.0000 0.0000 29.4630
#
#
#
# Elastic Compliance Matrix: (Units=1/GPa)
#
#
# Indices 1 2 3 4 5 6 
#
# 1 0.015669 -0.002880 -0.001994 0.000000 0.000000 0.000000
# 2 -0.002880 0.007420 -0.002203 0.000000 0.000000 0.000000
# 3 -0.001994 -0.002203 0.007906 0.000000 0.000000 0.000000
# 4 0.000000 0.000000 0.000000 0.037681 0.000000 0.000000
# 5 0.000000 0.000000 0.000000 0.000000 0.019451 0.000000
# 6 0.000000 0.000000 0.000000 0.000000 0.000000 0.033941
#
#
# Mechanical properties :
#
#
# Convention : Reuss Voigt Hill
#
# Bulk Modulus (GPa) = 59.38551 70.54491 64.96521
# Shear Modulus (GPa) = 35.25233 39.29631 37.27432
#
# Velocity S-wave (km/s) = 4.16376 4.39610 4.28151
# Velocity P-wave (km/s) = 7.23335 7.77568 7.50942
#
# Compressibility (1/GPa) = 0.01683912
#
# Stress axis : x y z
#
# Youngs Moduli (GPa) = 63.82132 134.77873 126.49101
#
# Poissons Ratio (x) = 0.38821 0.25219
# Poissons Ratio (y) = 0.18383 0.27870
# Poissons Ratio (z) = 0.12724 0.29696
#
# Static dielectric constant tensor:
#      x y z
#    x 3.787030 0.000000 0.000000 
#    y 0.000000 4.169320 0.000000 
#    z 0.000000 0.000000 3.856860 
# 
# 
# High freq. dielectric constant tensor:
#      x y z
#    x 1.775900 0.000000 0.000000 
#    y 0.000000 1.819330 0.000000 
#    z 0.000000 0.000000 1.813650 
# 
# From -- ./inp_files/36361.got.cif
#   From: 2010.03.12/outbox.cif.g09.slc.cpg/sg69_19_cif.got.tgz:36361.got - 2010.04.10 23:52:46.
