data_PCOD8285898
_publ_section_title
;
Structure prediction by ZEFSAII (Michael W. Deem and Ramdas Pophale) SiO2 
 PCOD8285898
Probable space group: F D D D
;
_chemical_formula_sum "Si O2"
_cell_formula_units_Z 208
_cell_length_a 19.085193
_cell_length_b 23.128250
_cell_length_c 27.009628
_cell_angle_alpha 90.000000
_cell_angle_beta 90.000000
_cell_angle_gamma 90.000000
_cell_volume 11922.241973
_symmetry_space_group_name_H-M "F D D D"
_symmetry_group_IT_number 70
_space_group.IT_coordinate_system_code '2'
_symmetry_cell_setting 'orthorhombic'
loop_
_space_group_symop_operation_xyz
x,y,z
1/4-x,1/4-y,z
x,1/4-y,1/4-z
1/4-x,y,1/4-z
-x,-y,-z
3/4+x,3/4+y,-z
-x,3/4+y,3/4+z
3/4+x,-y,3/4+z
x,1/2+y,1/2+z
1/4-x,3/4-y,1/2+z
x,3/4-y,3/4-z
1/4-x,1/2+y,3/4-z
-x,1/2-y,1/2-z
3/4+x,1/4+y,1/2-z
-x,1/4+y,1/4+z
3/4+x,1/2-y,1/4+z
1/2+x,y,1/2+z
3/4-x,1/4-y,1/2+z
1/2+x,1/4-y,3/4-z
3/4-x,y,3/4-z
1/2-x,-y,1/2-z
1/4+x,3/4+y,1/2-z
1/2-x,3/4+y,1/4+z
1/4+x,-y,1/4+z
1/2+x,1/2+y,z
3/4-x,3/4-y,z
1/2+x,3/4-y,1/4-z
3/4-x,1/2+y,1/4-z
1/2-x,1/2-y,-z
1/4+x,1/4+y,-z
1/2-x,1/4+y,3/4+z
1/4+x,1/2-y,3/4+z
loop_
_atom_site_type_symbol
_atom_site_label
_atom_site_fract_x
_atom_site_fract_y
_atom_site_fract_z
Si Si1 0.004937 0.550924 0.307143
Si Si2 0.455475 0.860401 0.319685
Si Si3 0.625000 0.125000 0.337738
Si Si4 0.497871 0.233808 0.830972
Si Si5 0.392104 0.313024 0.068012
Si Si6 0.225633 0.943749 0.507360
Si Si7 0.387096 0.138264 0.817253
O O1 0.060279 0.603303 0.305373
O O2 0.996952 0.518605 0.359548
O O3 0.037034 0.504707 0.269152
O O4 0.930064 0.579499 0.293284
O O5 0.480461 0.875000 0.375000
O O6 0.375000 0.875000 0.311280
O O7 0.463859 0.792122 0.310580
O O8 0.503550 0.895523 0.282345
O O9 0.597247 0.177215 0.372935
O O10 0.576678 0.229877 0.809451
O O11 0.453975 0.179716 0.810849
O O12 0.375000 0.375000 0.042228
O O13 0.462849 0.288970 0.045356
O O14 0.157180 0.920398 0.537112
O O15 0.375000 0.122886 0.875000
#
# Coordination Sequence:
#
# PCOD8285898 Si02
#       7
#    32  32  16  32  32  32  32
#     4  10  20  35  56  75 101 137 180 220 280 319
#     4  11  23  32  45  75 122 157 176 207 264 316
#     4   8  18  40  58  70 100 142 170 228 272 330
#     4  10  19  36  50  71 109 154 172 216 255 317
#     4   9  17  32  53  75 101 139 187 208 251 303
#     4  12  21  33  52  84 105 139 185 225 260 334
#     4  10  21  35  54  79 110 139 184 225 268 312
#
# _framework density 17.446383000000001
#
# number of rings (size 3 to 8) (size 9 to 14) (size 15 to 20)
#    0.462    1.385    3.077    2.308    6.462    0.615 
#    0.000    0.769    0.000    0.000    0.000    2.692 
#    0.000    0.000    0.000    0.000    0.000    0.000 
#
# Total GULP energy -644537.185109 kJ/mol
# GULP energy per Si atom -12394.945867 kJ/mol
# Density = 1.740667 g / cm^3
# Si number density = 17.446383 Si / 1000 Ang^3
#
#
#
# Elastic Constant Matrix: (Units=GPa)
#
#
# Indices 1 2 3 4 5 6 
#
# 1 87.3956 55.0917 34.4556 0.0000 0.0000 0.0000
# 2 55.0917 86.5822 31.2372 0.0000 0.0000 0.0000
# 3 34.4556 31.2372 56.5793 0.0000 0.0000 0.0000
# 4 0.0000 0.0000 0.0000 21.4535 0.0000 0.0000
# 5 0.0000 0.0000 0.0000 0.0000 18.1786 0.0000
# 6 0.0000 0.0000 0.0000 0.0000 0.0000 33.4634
#
#
#
# Elastic Compliance Matrix: (Units=1/GPa)
#
#
# Indices 1 2 3 4 5 6 
#
# 1 0.020987 -0.010917 -0.006753 0.000000 0.000000 0.000000
# 2 -0.010917 0.020102 -0.004450 0.000000 0.000000 0.000000
# 3 -0.006753 -0.004450 0.024243 0.000000 0.000000 0.000000
# 4 0.000000 0.000000 0.000000 0.046612 0.000000 0.000000
# 5 0.000000 0.000000 0.000000 0.000000 0.055010 0.000000
# 6 0.000000 0.000000 0.000000 0.000000 0.000000 0.029883
#
#
# Mechanical properties :
#
#
# Convention : Reuss Voigt Hill
#
# Bulk Modulus (GPa) = 47.41190 52.45847 49.93518
# Shear Modulus (GPa) = 20.15256 21.93727 21.04491
#
# Velocity S-wave (km/s) = 3.40238 3.54985 3.47690
# Velocity P-wave (km/s) = 6.53221 6.85095 6.69348
#
# Compressibility (1/GPa) = 0.02109175
#
# Stress axis : x y z
#
# Youngs Moduli (GPa) = 47.64964 49.74714 41.24836
#
# Poissons Ratio (x) = 0.54310 0.27855
# Poissons Ratio (y) = 0.52020 0.18354
# Poissons Ratio (z) = 0.32178 0.22136
#
# Static dielectric constant tensor:
#      x y z
#    x 3.137780 0.000000 0.000000 
#    y 0.000000 3.074140 0.000000 
#    z 0.000000 0.000000 3.219560 
# 
# 
# High freq. dielectric constant tensor:
#      x y z
#    x 1.662060 0.000000 0.000000 
#    y 0.000000 1.651190 0.000000 
#    z 0.000000 0.000000 1.663210 
# 
# From -- ./inp_files/59719.got.cif
#   From: 2010.03.12/outbox.cif.g09.slc.cpg/sg70_30_cif.got.tgz:59719.got - 2010.04.16 13:46:32.
