data_PCOD8285699
_publ_section_title
;
Structure prediction by ZEFSAII (Michael W. Deem and Ramdas Pophale) SiO2 
 PCOD8285699
Probable space group: F M M M
;
_chemical_formula_sum "Si O2"
_cell_formula_units_Z 160
_cell_length_a 25.297878
_cell_length_b 18.640936
_cell_length_c 20.120199
_cell_angle_alpha 90.000000
_cell_angle_beta 90.000000
_cell_angle_gamma 90.000000
_cell_volume 9488.205473
_symmetry_space_group_name_H-M "F M M M"
_symmetry_group_IT_number 69
_symmetry_cell_setting 'orthorhombic'
loop_
_space_group_symop_operation_xyz
x,y,z
-x,-y,z
x,-y,-z
-x,y,-z
-x,-y,-z
x,y,-z
-x,y,z
x,-y,z
x,1/2+y,1/2+z
-x,1/2-y,1/2+z
x,1/2-y,1/2-z
-x,1/2+y,1/2-z
-x,1/2-y,1/2-z
x,1/2+y,1/2-z
-x,1/2+y,1/2+z
x,1/2-y,1/2+z
1/2+x,y,1/2+z
1/2-x,-y,1/2+z
1/2+x,-y,1/2-z
1/2-x,y,1/2-z
1/2-x,-y,1/2-z
1/2+x,y,1/2-z
1/2-x,y,1/2+z
1/2+x,-y,1/2+z
1/2+x,1/2+y,z
1/2-x,1/2-y,z
1/2+x,1/2-y,-z
1/2-x,1/2+y,-z
1/2-x,1/2-y,-z
1/2+x,1/2+y,-z
1/2-x,1/2+y,z
1/2+x,1/2-y,z
loop_
_atom_site_type_symbol
_atom_site_label
_atom_site_fract_x
_atom_site_fract_y
_atom_site_fract_z
Si Si1 0.594767 0.418673 0.356017
Si Si2 0.000000 0.322491 0.842230
Si Si3 0.298480 0.085151 0.925865
Si Si4 0.896959 0.919119 0.198654
Si Si5 0.000000 0.336025 0.684321
Si Si6 0.719808 0.585708 0.184624
O O1 0.579531 0.500000 0.378152
O O2 0.549752 0.362054 0.375351
O O3 0.646552 0.390552 0.393435
O O4 0.603143 0.417589 0.277772
O O5 0.000000 0.328494 0.763164
O O6 0.000000 0.237812 0.857474
O O7 0.250574 0.113757 0.880462
O O8 0.296541 0.000000 0.927786
O O9 0.293001 0.117386 0.000000
O O10 0.945873 0.877001 0.165259
O O11 0.840298 0.885071 0.178023
O O12 0.902363 0.000000 0.172308
O O13 0.718117 0.500000 0.189415
O O14 0.750000 0.615623 0.250000
#
# Coordination Sequence:
#
# PCOD8285699 Si02
#       6
#    32  16  32  32  16  32
#     4   9  15  25  41  62  87 118 151 179 215 263
#     4   9  17  27  40  58  85 119 144 184 223 264
#     4   9  16  25  39  64  95 119 144 183 223 260
#     4   9  15  24  42  65  90 117 146 180 219 268
#     4   9  17  27  39  63  89 112 143 185 231 259
#     4   9  14  23  40  64  89 115 147 180 218 264
#
# _framework density 16.863042
#
# number of rings (size 3 to 8) (size 9 to 14) (size 15 to 20)
#    0.000    3.000    2.000    0.600    0.000    2.400 
#    0.000    0.500    0.000    3.600    0.000    4.900 
#    0.000    4.800    0.000    0.000    0.000    0.000 
#
# Total GULP energy -495700.141576 kJ/mol
# GULP energy per Si atom -12392.503539 kJ/mol
# Density = 1.682466 g / cm^3
# Si number density = 16.863042 Si / 1000 Ang^3
#
#
#
# Elastic Constant Matrix: (Units=GPa)
#
#
# Indices 1 2 3 4 5 6 
#
# 1 187.1559 58.3379 46.9737 0.0000 0.0000 0.0000
# 2 58.3379 60.0398 18.5237 0.0000 0.0000 0.0000
# 3 46.9737 18.5237 48.2732 0.0000 0.0000 0.0000
# 4 0.0000 0.0000 0.0000 6.2546 0.0000 0.0000
# 5 0.0000 0.0000 0.0000 0.0000 14.8773 0.0000
# 6 0.0000 0.0000 0.0000 0.0000 0.0000 2.6532
#
#
#
# Elastic Compliance Matrix: (Units=1/GPa)
#
#
# Indices 1 2 3 4 5 6 
#
# 1 0.009030 -0.006877 -0.006148 0.000000 0.000000 0.000000
# 2 -0.006877 0.024130 -0.002567 0.000000 0.000000 0.000000
# 3 -0.006148 -0.002567 0.027683 0.000000 0.000000 0.000000
# 4 0.000000 0.000000 0.000000 0.159882 0.000000 0.000000
# 5 0.000000 0.000000 0.000000 0.000000 0.067217 0.000000
# 6 0.000000 0.000000 0.000000 0.000000 0.000000 0.376904
#
#
# Mechanical properties :
#
#
# Convention : Reuss Voigt Hill
#
# Bulk Modulus (GPa) = 33.71752 60.34884 47.03318
# Shear Modulus (GPa) = 7.08300 16.19925 11.64112
#
# Velocity S-wave (km/s) = 2.05169 3.10278 2.63027
# Velocity P-wave (km/s) = 5.06467 6.97865 6.09723
#
# Compressibility (1/GPa) = 0.02965817
#
# Stress axis : x y z
#
# Youngs Moduli (GPa) = 110.74433 41.44244 36.12342
#
# Poissons Ratio (x) = 0.28500 0.22208
# Poissons Ratio (y) = 0.76160 0.09274
# Poissons Ratio (z) = 0.68084 0.10639
#
# Static dielectric constant tensor:
#      x y z
#    x 3.460610 0.000000 0.000000 
#    y 0.000000 2.870880 0.000000 
#    z 0.000000 0.000000 2.931750 
# 
# 
# High freq. dielectric constant tensor:
#      x y z
#    x 1.669460 0.000000 0.000000 
#    y 0.000000 1.601090 0.000000 
#    z 0.000000 0.000000 1.605320 
# 
# From -- ./inp_files/26673.got.cif
#   From: 2010.03.12/outbox.cif.g09.slc.cpg/sg69_14_cif.got.tgz:26673.got - 2010.04.10 23:52:46.
