data_PCOD8285540
_publ_section_title
;
Structure prediction by ZEFSAII (Michael W. Deem and Ramdas Pophale) SiO2 
 PCOD8285540
Probable space group: F M M M
;
_chemical_formula_sum "Si O2"
_cell_formula_units_Z 128
_cell_length_a 20.979880
_cell_length_b 16.535466
_cell_length_c 19.121029
_cell_angle_alpha 90.000000
_cell_angle_beta 90.000000
_cell_angle_gamma 90.000000
_cell_volume 6633.316180
_symmetry_space_group_name_H-M "F M M M"
_symmetry_group_IT_number 69
_symmetry_cell_setting 'orthorhombic'
loop_
_space_group_symop_operation_xyz
x,y,z
-x,-y,z
x,-y,-z
-x,y,-z
-x,-y,-z
x,y,-z
-x,y,z
x,-y,z
x,1/2+y,1/2+z
-x,1/2-y,1/2+z
x,1/2-y,1/2-z
-x,1/2+y,1/2-z
-x,1/2-y,1/2-z
x,1/2+y,1/2-z
-x,1/2+y,1/2+z
x,1/2-y,1/2+z
1/2+x,y,1/2+z
1/2-x,-y,1/2+z
1/2+x,-y,1/2-z
1/2-x,y,1/2-z
1/2-x,-y,1/2-z
1/2+x,y,1/2-z
1/2-x,y,1/2+z
1/2+x,-y,1/2+z
1/2+x,1/2+y,z
1/2-x,1/2-y,z
1/2+x,1/2-y,-z
1/2-x,1/2+y,-z
1/2-x,1/2-y,-z
1/2+x,1/2+y,-z
1/2-x,1/2+y,z
1/2+x,1/2-y,z
loop_
_atom_site_type_symbol
_atom_site_label
_atom_site_fract_x
_atom_site_fract_y
_atom_site_fract_z
Si Si1 0.851668 0.689133 0.000000
Si Si2 0.842970 0.341995 0.227607
Si Si3 0.295329 0.147643 0.500000
Si Si4 0.074035 0.093840 0.616520
Si Si5 0.272175 0.590334 0.149346
O O1 0.884867 0.650934 0.933077
O O2 0.776719 0.677473 0.000000
O O3 0.853313 0.786905 0.000000
O O4 0.852789 0.250000 0.250000
O O5 0.907523 0.379106 0.194872
O O6 0.785664 0.348851 0.169866
O O7 0.829193 0.394474 0.296367
O O8 0.301447 0.097809 0.571806
O O9 0.000000 0.109705 0.603157
O O10 0.090906 0.000000 0.602520
O O11 0.245128 0.500000 0.158402
#
# Coordination Sequence:
#
# PCOD8285540 Si02
#       5
#    16  32  16  32  32
#     4  11  22  36  57  85 121 150 192 242 300 360
#     4  11  22  36  56  82 119 156 196 243 298 354
#     4  11  23  35  59  87 117 157 189 242 302 356
#     4  11  23  40  62  87 119 161 204 248 296 351
#     4  11  21  35  57  85 119 155 196 244 296 355
#
# _framework density 19.296531999999999
#
# number of rings (size 3 to 8) (size 9 to 14) (size 15 to 20)
#    0.000    1.000    2.500    7.125    3.500    2.500 
#    0.000    0.000    0.000    0.000    0.000    0.000 
#    0.000   10.000    0.000    0.000    0.000    0.000 
#
# Total GULP energy -396620.733764 kJ/mol
# GULP energy per Si atom -12394.397930 kJ/mol
# Density = 1.925261 g / cm^3
# Si number density = 19.296532 Si / 1000 Ang^3
#
#
#
# Elastic Constant Matrix: (Units=GPa)
#
#
# Indices 1 2 3 4 5 6 
#
# 1 80.8461 46.2072 39.5229 0.0000 0.0000 0.0000
# 2 46.2072 109.8245 34.5218 0.0000 0.0000 0.0000
# 3 39.5229 34.5218 138.6645 0.0000 0.0000 0.0000
# 4 0.0000 0.0000 0.0000 30.8480 0.0000 0.0000
# 5 0.0000 0.0000 0.0000 0.0000 -169.8734 0.0000
# 6 0.0000 0.0000 0.0000 0.0000 0.0000 29.8639
#
#
#
# Elastic Compliance Matrix: (Units=1/GPa)
#
#
# Indices 1 2 3 4 5 6 
#
# 1 0.017694 -0.006357 -0.003461 0.000000 0.000000 0.000000
# 2 -0.006357 0.012162 -0.001216 0.000000 0.000000 0.000000
# 3 -0.003461 -0.001216 0.008501 0.000000 0.000000 0.000000
# 4 0.000000 0.000000 0.000000 0.032417 0.000000 0.000000
# 5 0.000000 0.000000 0.000000 0.000000 -0.005887 0.000000
# 6 0.000000 0.000000 0.000000 0.000000 0.000000 0.033485
#
#
# Mechanical properties :
#
#
# Convention : Reuss Voigt Hill
#
# Bulk Modulus (GPa) = 61.38694 63.31545 62.35120
# Shear Modulus (GPa) = 39.72358 -7.89343 15.91508
#
# Velocity S-wave (km/s) = 4.54209 -2.02472 2.87499
# Velocity P-wave (km/s) = 7.70642 5.23613 6.58809
#
# Compressibility (1/GPa) = 0.01629011
#
# Stress axis : x y z
#
# Youngs Moduli (GPa) = 56.51574 82.22182 117.63612
#
# Poissons Ratio (x) = 0.52267 0.40710
# Poissons Ratio (y) = 0.35926 0.14305
# Poissons Ratio (z) = 0.19558 0.09999
#
# Static dielectric constant tensor:
#      x y z
#    x 3.330210 0.000000 0.000000 
#    y 0.000000 3.625640 0.000000 
#    z 0.000000 0.000000 3.997900 
# 
# 
# High freq. dielectric constant tensor:
#      x y z
#    x 1.712210 0.000000 0.000000 
#    y 0.000000 1.753520 0.000000 
#    z 0.000000 0.000000 1.769240 
# 
# From -- ./inp_files/31633.got.cif
#   From: 2010.03.12/outbox.cif.g09.slc.cpg/sg69_16_cif.got.tgz:31633.got - 2010.04.10 23:52:46.
