data_PCOD8285904
_publ_section_title
;
Structure prediction by ZEFSAII (Michael W. Deem and Ramdas Pophale) SiO2 
 PCOD8285904
Probable space group: F D D D
;
_chemical_formula_sum "Si O2"
_cell_formula_units_Z 160
_cell_length_a 20.762001
_cell_length_b 21.468380
_cell_length_c 18.103123
_cell_angle_alpha 90.000000
_cell_angle_beta 90.000000
_cell_angle_gamma 90.000000
_cell_volume 8069.042143
_symmetry_space_group_name_H-M "F D D D"
_symmetry_group_IT_number 70
_space_group.IT_coordinate_system_code '2'
_symmetry_cell_setting 'orthorhombic'
loop_
_space_group_symop_operation_xyz
x,y,z
1/4-x,1/4-y,z
x,1/4-y,1/4-z
1/4-x,y,1/4-z
-x,-y,-z
3/4+x,3/4+y,-z
-x,3/4+y,3/4+z
3/4+x,-y,3/4+z
x,1/2+y,1/2+z
1/4-x,3/4-y,1/2+z
x,3/4-y,3/4-z
1/4-x,1/2+y,3/4-z
-x,1/2-y,1/2-z
3/4+x,1/4+y,1/2-z
-x,1/4+y,1/4+z
3/4+x,1/2-y,1/4+z
1/2+x,y,1/2+z
3/4-x,1/4-y,1/2+z
1/2+x,1/4-y,3/4-z
3/4-x,y,3/4-z
1/2-x,-y,1/2-z
1/4+x,3/4+y,1/2-z
1/2-x,3/4+y,1/4+z
1/4+x,-y,1/4+z
1/2+x,1/2+y,z
3/4-x,3/4-y,z
1/2+x,3/4-y,1/4-z
3/4-x,1/2+y,1/4-z
1/2-x,1/2-y,-z
1/4+x,1/4+y,-z
1/2-x,1/4+y,3/4+z
1/4+x,1/2-y,3/4+z
loop_
_atom_site_type_symbol
_atom_site_label
_atom_site_fract_x
_atom_site_fract_y
_atom_site_fract_z
Si Si1 0.447419 0.937759 0.343888
Si Si2 0.512171 0.350050 0.292094
Si Si3 0.059825 0.591102 0.819459
Si Si4 0.516990 0.692811 0.423516
Si Si5 0.589305 0.519656 0.458130
O O1 0.480369 0.875000 0.375000
O O2 0.375000 0.941110 0.375000
O O3 0.462957 0.937935 0.256820
O O4 0.483199 0.999984 0.368326
O O5 0.506023 0.375000 0.375000
O O6 0.522893 0.410247 0.239782
O O7 0.446793 0.312984 0.268715
O O8 0.573251 0.303396 0.279843
O O9 0.125000 0.625000 0.798493
O O10 0.016508 0.644000 0.856420
O O11 0.064235 0.534214 0.876076
O O12 0.585349 0.713373 0.459107
#
# Coordination Sequence:
#
# PCOD8285904 Si02
#       5
#    32  32  32  32  32
#     4  11  22  39  57  82 108 151 202 245 290 358
#     4  10  19  36  61  88 120 159 196 239 291 361
#     4   9  17  38  58  75 113 151 183 239 297 344
#     4  10  22  37  57  87 120 155 195 245 309 346
#     4   9  20  36  58  86 119 157 193 237 297 361
#
# _framework density 19.828872
#
# number of rings (size 3 to 8) (size 9 to 14) (size 15 to 20)
#    0.000    2.200    2.000    3.000    0.000    3.200 
#    3.600    0.000    0.000    0.000    0.000    0.000 
#    0.000    0.000    0.000    0.000    0.000    0.000 
#
# Total GULP energy -495527.600183 kJ/mol
# GULP energy per Si atom -12388.190005 kJ/mol
# Density = 1.978374 g / cm^3
# Si number density = 19.828872 Si / 1000 Ang^3
#
#
#
# Elastic Constant Matrix: (Units=GPa)
#
#
# Indices 1 2 3 4 5 6 
#
# 1 42.1591 37.8142 9.8039 0.0000 0.0000 0.0000
# 2 37.8142 128.8019 27.2103 0.0000 0.0000 0.0000
# 3 9.8039 27.2103 96.0444 0.0000 0.0000 0.0000
# 4 0.0000 0.0000 0.0000 27.2998 0.0000 0.0000
# 5 0.0000 0.0000 0.0000 0.0000 17.2361 0.0000
# 6 0.0000 0.0000 0.0000 0.0000 0.0000 23.2950
#
#
#
# Elastic Compliance Matrix: (Units=1/GPa)
#
#
# Indices 1 2 3 4 5 6 
#
# 1 0.032236 -0.009327 -0.000648 0.000000 0.000000 0.000000
# 2 -0.009327 0.010957 -0.002152 0.000000 0.000000 0.000000
# 3 -0.000648 -0.002152 0.011088 0.000000 0.000000 0.000000
# 4 0.000000 0.000000 0.000000 0.036630 0.000000 0.000000
# 5 0.000000 0.000000 0.000000 0.000000 0.058018 0.000000
# 6 0.000000 0.000000 0.000000 0.000000 0.000000 0.042928
#
#
# Mechanical properties :
#
#
# Convention : Reuss Voigt Hill
#
# Bulk Modulus (GPa) = 33.30436 46.29581 39.80009
# Shear Modulus (GPa) = 22.11216 26.37799 24.24507
#
# Velocity S-wave (km/s) = 3.34301 3.65126 3.50053
# Velocity P-wave (km/s) = 5.63323 6.41669 6.03768
#
# Compressibility (1/GPa) = 0.03002610
#
# Stress axis : x y z
#
# Youngs Moduli (GPa) = 31.02098 91.26752 90.18996
#
# Poissons Ratio (x) = 0.85126 0.05845
# Poissons Ratio (y) = 0.28934 0.19410
# Poissons Ratio (z) = 0.02011 0.19641
#
# Static dielectric constant tensor:
#      x y z
#    x 3.240000 0.000000 0.000000 
#    y 0.000000 3.856150 0.000000 
#    z 0.000000 0.000000 3.707140 
# 
# 
# High freq. dielectric constant tensor:
#      x y z
#    x 1.733850 0.000000 0.000000 
#    y 0.000000 1.793830 0.000000 
#    z 0.000000 0.000000 1.775960 
# 
# From -- ./inp_files/36311.got.cif
#   From: 2010.03.12/outbox.cif.g09.slc.cpg/sg70_19_cif.got.tgz:36311.got - 2010.04.16 13:46:32.
