data_PCOD8285106
_publ_section_title
;
Structure prediction by ZEFSAII (Michael W. Deem and Ramdas Pophale) SiO2 
 PCOD8285106
Probable space group: F M M M
;
_chemical_formula_sum "Si O2"
_cell_formula_units_Z 160
_cell_length_a 7.496855
_cell_length_b 36.058221
_cell_length_c 29.993541
_cell_angle_alpha 90.000000
_cell_angle_beta 90.000000
_cell_angle_gamma 90.000000
_cell_volume 8107.951614
_symmetry_space_group_name_H-M "F M M M"
_symmetry_group_IT_number 69
_symmetry_cell_setting 'orthorhombic'
loop_
_space_group_symop_operation_xyz
x,y,z
-x,-y,z
x,-y,-z
-x,y,-z
-x,-y,-z
x,y,-z
-x,y,z
x,-y,z
x,1/2+y,1/2+z
-x,1/2-y,1/2+z
x,1/2-y,1/2-z
-x,1/2+y,1/2-z
-x,1/2-y,1/2-z
x,1/2+y,1/2-z
-x,1/2+y,1/2+z
x,1/2-y,1/2+z
1/2+x,y,1/2+z
1/2-x,-y,1/2+z
1/2+x,-y,1/2-z
1/2-x,y,1/2-z
1/2-x,-y,1/2-z
1/2+x,y,1/2-z
1/2-x,y,1/2+z
1/2+x,-y,1/2+z
1/2+x,1/2+y,z
1/2-x,1/2-y,z
1/2+x,1/2-y,-z
1/2-x,1/2+y,-z
1/2-x,1/2-y,-z
1/2+x,1/2+y,-z
1/2-x,1/2+y,z
1/2+x,1/2-y,z
loop_
_atom_site_type_symbol
_atom_site_label
_atom_site_fract_x
_atom_site_fract_y
_atom_site_fract_z
Si Si1 0.289984 0.581035 0.200098
Si Si2 0.500000 0.087468 0.051370
Si Si3 0.207951 0.792370 0.881277
Si Si4 0.292262 0.165002 0.298406
Si Si5 0.500000 0.456281 0.639898
Si Si6 0.795902 0.647250 0.550762
O O1 0.500000 0.577243 0.189247
O O2 0.250000 0.566160 0.250000
O O3 0.216761 0.623330 0.196775
O O4 0.178812 0.557826 0.164227
O O5 0.500000 0.054811 0.087576
O O6 0.677083 0.111428 0.060316
O O7 0.500000 0.072401 0.000000
O O8 0.250000 0.750000 0.890837
O O9 0.294834 0.807485 0.835108
O O10 0.279564 0.818010 0.921210
O O11 0.000000 0.797313 0.877899
O O12 0.500000 0.162402 0.305997
O O13 0.250000 0.181851 0.250000
O O14 0.500000 0.500000 0.641922
O O15 0.779123 0.660077 0.500000
O O16 0.000000 0.637015 0.563368
#
# Coordination Sequence:
#
# PCOD8285106 Si02
#       6
#    32  16  32  32  16  32
#     4  10  20  40  63  88 119 158 201 243 290 346
#     4  10  22  41  66  90 113 153 205 246 290 349
#     4  10  21  34  48  76 112 147 183 232 292 341
#     4   9  19  34  54  75 102 142 194 239 274 327
#     4  12  26  39  60  94 125 159 192 233 299 356
#     4   9  19  38  62  86 111 145 193 244 290 343
#
# _framework density 19.733713000000002
#
# number of rings (size 3 to 8) (size 9 to 14) (size 15 to 20)
#    0.000    2.200    1.000    1.200    2.800    5.000 
#    0.000    2.000    0.000    0.000    0.000    4.200 
#    0.000    0.000    0.000    0.000    0.000    0.000 
#
# Total GULP energy -495872.181869 kJ/mol
# GULP energy per Si atom -12396.804547 kJ/mol
# Density = 1.968880 g / cm^3
# Si number density = 19.733713 Si / 1000 Ang^3
#
#
#
# Elastic Constant Matrix: (Units=GPa)
#
#
# Indices 1 2 3 4 5 6 
#
# 1 76.5999 14.0733 25.7147 0.0000 0.0000 0.0000
# 2 14.0733 46.1863 24.6793 0.0000 0.0000 0.0000
# 3 25.7147 24.6793 105.8224 0.0000 0.0000 0.0000
# 4 0.0000 0.0000 0.0000 19.4379 0.0000 0.0000
# 5 0.0000 0.0000 0.0000 0.0000 22.6786 0.0000
# 6 0.0000 0.0000 0.0000 0.0000 0.0000 11.0590
#
#
#
# Elastic Compliance Matrix: (Units=1/GPa)
#
#
# Indices 1 2 3 4 5 6 
#
# 1 0.014548 -0.002906 -0.002857 0.000000 0.000000 0.000000
# 2 -0.002906 0.025314 -0.005197 0.000000 0.000000 0.000000
# 3 -0.002857 -0.005197 0.011356 0.000000 0.000000 0.000000
# 4 0.000000 0.000000 0.000000 0.051446 0.000000 0.000000
# 5 0.000000 0.000000 0.000000 0.000000 0.044094 0.000000
# 6 0.000000 0.000000 0.000000 0.000000 0.000000 0.090424
#
#
# Mechanical properties :
#
#
# Convention : Reuss Voigt Hill
#
# Bulk Modulus (GPa) = 34.13366 39.72701 36.93034
# Shear Modulus (GPa) = 18.59632 21.57785 20.08709
#
# Velocity S-wave (km/s) = 3.07312 3.31032 3.19393
# Velocity P-wave (km/s) = 5.47054 5.89799 5.68828
#
# Compressibility (1/GPa) = 0.02929659
#
# Stress axis : x y z
#
# Youngs Moduli (GPa) = 68.73798 39.50365 88.05722
#
# Poissons Ratio (x) = 0.11480 0.25162
# Poissons Ratio (y) = 0.19976 0.45767
# Poissons Ratio (z) = 0.19641 0.20532
#
# Static dielectric constant tensor:
#      x y z
#    x 3.655580 0.000000 0.000000 
#    y 0.000000 2.640400 0.000000 
#    z 0.000000 0.000000 4.360970 
# 
# 
# High freq. dielectric constant tensor:
#      x y z
#    x 1.774060 0.000000 0.000000 
#    y 0.000000 1.738340 0.000000 
#    z 0.000000 0.000000 1.781870 
# 
# From -- ./inp_files/44607.got.cif
#   From: 2010.03.12/outbox.cif.g09.slc.cpg/sg69_23_cif.got.tgz:44607.got - 2010.04.10 23:52:46.
