data_PCOD8285194
_publ_section_title
;
Structure prediction by ZEFSAII (Michael W. Deem and Ramdas Pophale) SiO2 
 PCOD8285194
Probable space group: F M M M
;
_chemical_formula_sum "Si O2"
_cell_formula_units_Z 88
_cell_length_a 9.374407
_cell_length_b 25.291188
_cell_length_c 18.784958
_cell_angle_alpha 90.000000
_cell_angle_beta 90.000000
_cell_angle_gamma 90.000000
_cell_volume 4453.723623
_symmetry_space_group_name_H-M "F M M M"
_symmetry_group_IT_number 69
_symmetry_cell_setting 'orthorhombic'
loop_
_space_group_symop_operation_xyz
x,y,z
-x,-y,z
x,-y,-z
-x,y,-z
-x,-y,-z
x,y,-z
-x,y,z
x,-y,z
x,1/2+y,1/2+z
-x,1/2-y,1/2+z
x,1/2-y,1/2-z
-x,1/2+y,1/2-z
-x,1/2-y,1/2-z
x,1/2+y,1/2-z
-x,1/2+y,1/2+z
x,1/2-y,1/2+z
1/2+x,y,1/2+z
1/2-x,-y,1/2+z
1/2+x,-y,1/2-z
1/2-x,y,1/2-z
1/2-x,-y,1/2-z
1/2+x,y,1/2-z
1/2-x,y,1/2+z
1/2+x,-y,1/2+z
1/2+x,1/2+y,z
1/2-x,1/2-y,z
1/2+x,1/2-y,-z
1/2-x,1/2+y,-z
1/2-x,1/2-y,-z
1/2+x,1/2+y,-z
1/2-x,1/2+y,z
1/2+x,1/2-y,z
loop_
_atom_site_type_symbol
_atom_site_label
_atom_site_fract_x
_atom_site_fract_y
_atom_site_fract_z
Si Si1 0.162688 0.099044 0.418565
Si Si2 0.250000 0.250000 0.750000
Si Si3 0.160004 0.702203 0.613862
Si Si4 0.332847 0.000000 0.176497
O O1 0.176734 0.080245 0.500000
O O2 0.266122 0.147457 0.403845
O O3 0.211792 0.051206 0.368607
O O4 0.000000 0.116137 0.401709
O O5 0.154443 0.287974 0.699455
O O6 0.250000 0.750000 0.577283
O O7 0.000000 0.701555 0.583089
O O8 0.250000 0.000000 0.250000
O O9 0.500000 0.000000 0.192706
#
# Coordination Sequence:
#
# PCOD8285194 Si02
#       4
#    32   8  32  16
#     4  10  22  41  63  86 119 161 202 245 296 356
#     4   8  22  36  56  82 122 160 196 236 296 356
#     4  10  21  36  59  87 119 156 198 244 295 351
#     4  10  23  41  63  91 119 154 200 247 299 355
#
# _framework density 19.758747
#
# number of rings (size 3 to 8) (size 9 to 14) (size 15 to 20)
#    1.091    1.091    0.000    2.182    2.545    5.091 
#    0.000    0.000    0.000    3.273    0.000    0.000 
#    0.000    0.000    0.000    0.000    0.000    0.000 
#
# Total GULP energy -272682.334436 kJ/mol
# GULP energy per Si atom -12394.651565 kJ/mol
# Density = 1.971378 g / cm^3
# Si number density = 19.758747 Si / 1000 Ang^3
#
#
#
# Elastic Constant Matrix: (Units=GPa)
#
#
# Indices 1 2 3 4 5 6 
#
# 1 141.0985 93.5983 41.4688 0.0000 0.0000 0.0000
# 2 93.5983 167.8316 54.0832 0.0000 0.0000 0.0000
# 3 41.4688 54.0832 113.6439 0.0000 0.0000 0.0000
# 4 0.0000 0.0000 0.0000 53.8688 0.0000 0.0000
# 5 0.0000 0.0000 0.0000 0.0000 15.2113 0.0000
# 6 0.0000 0.0000 0.0000 0.0000 0.0000 35.9981
#
#
#
# Elastic Compliance Matrix: (Units=1/GPa)
#
#
# Indices 1 2 3 4 5 6 
#
# 1 0.011419 -0.005936 -0.001342 0.000000 0.000000 0.000000
# 2 -0.005936 0.010123 -0.002652 0.000000 0.000000 0.000000
# 3 -0.001342 -0.002652 0.010551 0.000000 0.000000 0.000000
# 4 0.000000 0.000000 0.000000 0.018564 0.000000 0.000000
# 5 0.000000 0.000000 0.000000 0.000000 0.065741 0.000000
# 6 0.000000 0.000000 0.000000 0.000000 0.000000 0.027779
#
#
# Mechanical properties :
#
#
# Convention : Reuss Voigt Hill
#
# Bulk Modulus (GPa) = 81.73668 88.98610 85.36139
# Shear Modulus (GPa) = 29.74164 36.57722 33.15943
#
# Velocity S-wave (km/s) = 3.88395 4.30721 4.10105
# Velocity P-wave (km/s) = 7.84669 8.35884 8.10681
#
# Compressibility (1/GPa) = 0.01223441
#
# Stress axis : x y z
#
# Youngs Moduli (GPa) = 87.57072 98.78201 94.77759
#
# Poissons Ratio (x) = 0.58637 0.12719
# Poissons Ratio (y) = 0.51982 0.25131
# Poissons Ratio (z) = 0.11752 0.26193
#
# Static dielectric constant tensor:
#      x y z
#    x 3.454040 0.000000 0.000000 
#    y 0.000000 3.509210 0.000000 
#    z 0.000000 0.000000 3.577750 
# 
# 
# High freq. dielectric constant tensor:
#      x y z
#    x 1.763450 0.000000 0.000000 
#    y 0.000000 1.770230 0.000000 
#    z 0.000000 0.000000 1.773470 
# 
# From -- ./inp_files/28366.got.cif
#   From: 2010.03.12/outbox.cif.g09.slc.cpg/sg69_15_cif.got.tgz:28366.got - 2010.04.10 23:52:46.
