data_PCOD8285213
_publ_section_title
;
Structure prediction by ZEFSAII (Michael W. Deem and Ramdas Pophale) SiO2 
 PCOD8285213
Probable space group: F M M M
;
_chemical_formula_sum "Si O2"
_cell_formula_units_Z 160
_cell_length_a 17.832799
_cell_length_b 14.834690
_cell_length_c 27.460717
_cell_angle_alpha 90.000000
_cell_angle_beta 90.000000
_cell_angle_gamma 90.000000
_cell_volume 7264.569154
_symmetry_space_group_name_H-M "F M M M"
_symmetry_group_IT_number 69
_symmetry_cell_setting 'orthorhombic'
loop_
_space_group_symop_operation_xyz
x,y,z
-x,-y,z
x,-y,-z
-x,y,-z
-x,-y,-z
x,y,-z
-x,y,z
x,-y,z
x,1/2+y,1/2+z
-x,1/2-y,1/2+z
x,1/2-y,1/2-z
-x,1/2+y,1/2-z
-x,1/2-y,1/2-z
x,1/2+y,1/2-z
-x,1/2+y,1/2+z
x,1/2-y,1/2+z
1/2+x,y,1/2+z
1/2-x,-y,1/2+z
1/2+x,-y,1/2-z
1/2-x,y,1/2-z
1/2-x,-y,1/2-z
1/2+x,y,1/2-z
1/2-x,y,1/2+z
1/2+x,-y,1/2+z
1/2+x,1/2+y,z
1/2-x,1/2-y,z
1/2+x,1/2-y,-z
1/2-x,1/2+y,-z
1/2-x,1/2-y,-z
1/2+x,1/2+y,-z
1/2-x,1/2+y,z
1/2+x,1/2-y,z
loop_
_atom_site_type_symbol
_atom_site_label
_atom_site_fract_x
_atom_site_fract_y
_atom_site_fract_z
Si Si1 0.153773 0.394332 0.142901
Si Si2 0.586008 0.101005 0.591897
Si Si3 0.582180 0.854282 0.760011
Si Si4 0.913315 0.288972 0.945809
Si Si5 0.811070 0.898388 0.822637
O O1 0.156857 0.500000 0.129891
O O2 0.089980 0.375962 0.182906
O O3 0.137950 0.340597 0.093106
O O4 0.230116 0.352685 0.167536
O O5 0.500000 0.094693 0.606704
O O6 0.600167 0.180020 0.552800
O O7 0.627393 0.138266 0.639918
O O8 0.612623 0.000000 0.574168
O O9 0.500000 0.893079 0.744014
O O10 0.583780 0.750000 0.750000
O O11 0.653824 0.894804 0.731446
O O12 0.000000 0.309600 0.933533
O O13 0.892782 0.323790 0.000000
O O14 0.793923 0.000000 0.835894
#
# Coordination Sequence:
#
# PCOD8285213 Si02
#       5
#    32  32  32  32  32
#     4  11  24  40  58  85 122 161 203 249 294 346
#     4   9  18  35  60  88 118 152 193 245 302 359
#     4  11  23  37  57  87 120 155 198 245 294 356
#     4  10  22  40  62  88 117 154 203 252 298 351
#     4  10  21  37  57  84 118 155 195 239 293 357
#
# _framework density 22.024705000000001
#
# number of rings (size 3 to 8) (size 9 to 14) (size 15 to 20)
#    0.000    1.800    0.000    3.600    0.000   13.200 
#    0.000    5.000    0.000    3.600    0.000    0.000 
#    0.000    0.000    0.000    0.000    0.000    0.000 
#
# Total GULP energy -495587.866271 kJ/mol
# GULP energy per Si atom -12389.696657 kJ/mol
# Density = 2.197458 g / cm^3
# Si number density = 22.024705 Si / 1000 Ang^3
#
#
#
# Elastic Constant Matrix: (Units=GPa)
#
#
# Indices 1 2 3 4 5 6 
#
# 1 116.4071 38.2818 57.7482 0.0000 0.0000 0.0000
# 2 38.2818 89.2075 38.3922 0.0000 0.0000 0.0000
# 3 57.7482 38.3922 137.5756 0.0000 0.0000 0.0000
# 4 0.0000 0.0000 0.0000 26.8247 0.0000 0.0000
# 5 0.0000 0.0000 0.0000 0.0000 30.0086 0.0000
# 6 0.0000 0.0000 0.0000 0.0000 0.0000 67.2013
#
#
#
# Elastic Compliance Matrix: (Units=1/GPa)
#
#
# Indices 1 2 3 4 5 6 
#
# 1 0.011640 -0.003287 -0.003969 0.000000 0.000000 0.000000
# 2 -0.003287 0.013668 -0.002434 0.000000 0.000000 0.000000
# 3 -0.003969 -0.002434 0.009614 0.000000 0.000000 0.000000
# 4 0.000000 0.000000 0.000000 0.037279 0.000000 0.000000
# 5 0.000000 0.000000 0.000000 0.000000 0.033324 0.000000
# 6 0.000000 0.000000 0.000000 0.000000 0.000000 0.014881
#
#
# Mechanical properties :
#
#
# Convention : Reuss Voigt Hill
#
# Bulk Modulus (GPa) = 64.34307 68.00386 66.17346
# Shear Modulus (GPa) = 34.49042 38.72478 36.60760
#
# Velocity S-wave (km/s) = 3.96155 4.19769 4.08133
# Velocity P-wave (km/s) = 7.08538 7.37817 7.23326
#
# Compressibility (1/GPa) = 0.01554169
#
# Stress axis : x y z
#
# Youngs Moduli (GPa) = 85.90718 73.16258 104.01477
#
# Poissons Ratio (x) = 0.24050 0.41281
# Poissons Ratio (y) = 0.28240 0.25322
# Poissons Ratio (z) = 0.34095 0.17811
#
# Static dielectric constant tensor:
#      x y z
#    x 4.280150 0.000000 0.000000 
#    y 0.000000 3.971040 0.000000 
#    z 0.000000 0.000000 3.830870 
# 
# 
# High freq. dielectric constant tensor:
#      x y z
#    x 1.868120 0.000000 0.000000 
#    y 0.000000 1.866030 0.000000 
#    z 0.000000 0.000000 1.848430 
# 
# From -- ./inp_files/41755.got.cif
#   From: 2010.03.12/outbox.cif.g09.slc.cpg/sg69_21_cif.got.tgz:41755.got - 2010.04.10 23:52:46.
