data_PCOD8285496
_publ_section_title
;
Structure prediction by ZEFSAII (Michael W. Deem and Ramdas Pophale) SiO2 
 PCOD8285496
Probable space group: F M M M
;
_chemical_formula_sum "Si O2"
_cell_formula_units_Z 128
_cell_length_a 13.946845
_cell_length_b 19.210019
_cell_length_c 26.800306
_cell_angle_alpha 90.000000
_cell_angle_beta 90.000000
_cell_angle_gamma 90.000000
_cell_volume 7180.315403
_symmetry_space_group_name_H-M "F M M M"
_symmetry_group_IT_number 69
_symmetry_cell_setting 'orthorhombic'
loop_
_space_group_symop_operation_xyz
x,y,z
-x,-y,z
x,-y,-z
-x,y,-z
-x,-y,-z
x,y,-z
-x,y,z
x,-y,z
x,1/2+y,1/2+z
-x,1/2-y,1/2+z
x,1/2-y,1/2-z
-x,1/2+y,1/2-z
-x,1/2-y,1/2-z
x,1/2+y,1/2-z
-x,1/2+y,1/2+z
x,1/2-y,1/2+z
1/2+x,y,1/2+z
1/2-x,-y,1/2+z
1/2+x,-y,1/2-z
1/2-x,y,1/2-z
1/2-x,-y,1/2-z
1/2+x,y,1/2-z
1/2-x,y,1/2+z
1/2+x,-y,1/2+z
1/2+x,1/2+y,z
1/2-x,1/2-y,z
1/2+x,1/2-y,-z
1/2-x,1/2+y,-z
1/2-x,1/2-y,-z
1/2+x,1/2+y,-z
1/2-x,1/2+y,z
1/2+x,1/2-y,z
loop_
_atom_site_type_symbol
_atom_site_label
_atom_site_fract_x
_atom_site_fract_y
_atom_site_fract_z
Si Si1 0.113649 0.500000 0.555970
Si Si2 0.603992 0.801808 0.207288
Si Si3 0.750000 0.750000 0.132559
Si Si4 0.644221 0.577723 0.771468
Si Si5 0.887016 0.367463 0.618032
O O1 0.155987 0.500000 0.500000
O O2 0.149898 0.568450 0.584643
O O3 0.000000 0.500000 0.555012
O O4 0.500000 0.776529 0.186584
O O5 0.641734 0.750000 0.250000
O O6 0.682925 0.801926 0.164329
O O7 0.587206 0.878342 0.230295
O O8 0.822316 0.800415 0.101566
O O9 0.600921 0.500000 0.776642
O O10 0.750000 0.574684 0.750000
O O11 0.633979 0.616596 0.824211
O O12 0.000000 0.352398 0.609355
#
# Coordination Sequence:
#
# PCOD8285496 Si02
#       5
#    16  32  16  32  32
#     4   9  20  40  63  84 101 123 168 229 286 328
#     4  11  20  30  45  64 101 148 180 206 242 289
#     4  12  21  34  45  76 108 146 179 210 241 314
#     4  11  20  31  47  71 104 143 180 217 256 300
#     4  11  21  34  56  79 105 143 177 218 271 311
#
# _framework density 17.826515000000001
#
# number of rings (size 3 to 8) (size 9 to 14) (size 15 to 20)
#    0.000    1.125    6.250    1.875    0.000    1.500 
#    0.000    0.625    0.000    0.000    0.000    0.000 
#    0.000    4.000    0.000    0.000    0.000    0.000 
#
# Total GULP energy -396524.188743 kJ/mol
# GULP energy per Si atom -12391.380898 kJ/mol
# Density = 1.778594 g / cm^3
# Si number density = 17.826515 Si / 1000 Ang^3
#
#
#
# Elastic Constant Matrix: (Units=GPa)
#
#
# Indices 1 2 3 4 5 6 
#
# 1 91.0314 36.2129 21.2344 0.0000 0.0000 0.0000
# 2 36.2129 122.1009 27.6180 0.0000 0.0000 0.0000
# 3 21.2344 27.6180 59.1868 0.0000 0.0000 0.0000
# 4 0.0000 0.0000 0.0000 14.9450 0.0000 0.0000
# 5 0.0000 0.0000 0.0000 0.0000 1.5345 0.0000
# 6 0.0000 0.0000 0.0000 0.0000 0.0000 73.0248
#
#
#
# Elastic Compliance Matrix: (Units=1/GPa)
#
#
# Indices 1 2 3 4 5 6 
#
# 1 0.012974 -0.003125 -0.003197 0.000000 0.000000 0.000000
# 2 -0.003125 0.009909 -0.003503 0.000000 0.000000 0.000000
# 3 -0.003197 -0.003503 0.019677 0.000000 0.000000 0.000000
# 4 0.000000 0.000000 0.000000 0.066912 0.000000 0.000000
# 5 0.000000 0.000000 0.000000 0.000000 0.651669 0.000000
# 6 0.000000 0.000000 0.000000 0.000000 0.000000 0.013694
#
#
# Mechanical properties :
#
#
# Convention : Reuss Voigt Hill
#
# Bulk Modulus (GPa) = 43.64568 49.16107 46.40338
# Shear Modulus (GPa) = 6.23348 30.38446 18.30897
#
# Velocity S-wave (km/s) = 1.87199 4.13298 3.20826
# Velocity P-wave (km/s) = 5.40455 7.10019 6.30959
#
# Compressibility (1/GPa) = 0.02291177
#
# Stress axis : x y z
#
# Youngs Moduli (GPa) = 77.07772 100.91855 50.82096
#
# Poissons Ratio (x) = 0.31535 0.16245
# Poissons Ratio (y) = 0.24085 0.17801
# Poissons Ratio (z) = 0.24638 0.35349
#
# Static dielectric constant tensor:
#      x y z
#    x 3.379510 0.000000 0.000000 
#    y 0.000000 3.795960 0.000000 
#    z 0.000000 0.000000 2.975270 
# 
# 
# High freq. dielectric constant tensor:
#      x y z
#    x 1.695710 0.000000 0.000000 
#    y 0.000000 1.704670 0.000000 
#    z 0.000000 0.000000 1.626820 
# 
# From -- ./inp_files/19404.got.cif
#   From: 2010.03.12/outbox.cif.g09.slc.cpg/sg69_10_cif.got.tgz:19404.got - 2010.04.10 23:52:46.
