data_PCOD8285922
_publ_section_title
;
Structure prediction by ZEFSAII (Michael W. Deem and Ramdas Pophale) SiO2 
 PCOD8285922
Probable space group: F D D D
;
_chemical_formula_sum "Si O2"
_cell_formula_units_Z 144
_cell_length_a 16.315089
_cell_length_b 13.830093
_cell_length_c 28.214871
_cell_angle_alpha 90.000000
_cell_angle_beta 90.000000
_cell_angle_gamma 90.000000
_cell_volume 6366.380869
_symmetry_space_group_name_H-M "F D D D"
_symmetry_group_IT_number 70
_space_group.IT_coordinate_system_code '2'
_symmetry_cell_setting 'orthorhombic'
loop_
_space_group_symop_operation_xyz
x,y,z
1/4-x,1/4-y,z
x,1/4-y,1/4-z
1/4-x,y,1/4-z
-x,-y,-z
3/4+x,3/4+y,-z
-x,3/4+y,3/4+z
3/4+x,-y,3/4+z
x,1/2+y,1/2+z
1/4-x,3/4-y,1/2+z
x,3/4-y,3/4-z
1/4-x,1/2+y,3/4-z
-x,1/2-y,1/2-z
3/4+x,1/4+y,1/2-z
-x,1/4+y,1/4+z
3/4+x,1/2-y,1/4+z
1/2+x,y,1/2+z
3/4-x,1/4-y,1/2+z
1/2+x,1/4-y,3/4-z
3/4-x,y,3/4-z
1/2-x,-y,1/2-z
1/4+x,3/4+y,1/2-z
1/2-x,3/4+y,1/4+z
1/4+x,-y,1/4+z
1/2+x,1/2+y,z
3/4-x,3/4-y,z
1/2+x,3/4-y,1/4-z
3/4-x,1/2+y,1/4-z
1/2-x,1/2-y,-z
1/4+x,1/4+y,-z
1/2-x,1/4+y,3/4+z
1/4+x,1/2-y,3/4+z
loop_
_atom_site_type_symbol
_atom_site_label
_atom_site_fract_x
_atom_site_fract_y
_atom_site_fract_z
Si Si1 0.716222 0.098450 0.356387
Si Si2 0.036347 0.160132 0.678249
Si Si3 0.875000 0.375000 0.468361
Si Si4 0.327747 0.246380 0.701866
Si Si5 0.245399 0.283702 0.904954
O O1 0.625000 0.125000 0.336703
O O2 0.763578 0.198643 0.366605
O O3 0.766934 0.026557 0.320808
O O4 0.713063 0.048376 0.407449
O O5 0.125000 0.125000 0.698131
O O6 0.027706 0.125000 0.625000
O O7 0.966416 0.107221 0.709577
O O8 0.935149 0.309892 0.500840
O O9 0.923248 0.447501 0.434394
O O10 0.424487 0.239292 0.692629
O O11 0.215166 0.375000 0.875000
#
# Coordination Sequence:
#
# PCOD8285922 Si02
#       5
#    32  32  16  32  32
#     4   9  17  35  63  90 121 164 210 266 328 383
#     4   9  18  35  61  97 115 160 221 266 315 391
#     4  12  23  38  58 100 126 170 208 272 338 376
#     4  10  19  37  65  87 123 165 211 257 330 394
#     4  11  22  39  59  94 129 167 215 266 325 397
#
# _framework density 22.618815000000001
#
# number of rings (size 3 to 8) (size 9 to 14) (size 15 to 20)
#    0.000    2.000    3.333    4.333    0.000    0.000 
#   16.000    0.000    0.000    9.333    5.778    0.000 
#    0.000    0.000    0.000    0.000    0.000    0.000 
#
# Total GULP energy -446143.312362 kJ/mol
# GULP energy per Si atom -12392.869788 kJ/mol
# Density = 2.256733 g / cm^3
# Si number density = 22.618815 Si / 1000 Ang^3
#
#
#
# Elastic Constant Matrix: (Units=GPa)
#
#
# Indices 1 2 3 4 5 6 
#
# 1 92.5942 65.0804 16.9918 0.0000 0.0000 0.0000
# 2 65.0804 181.2997 24.3405 0.0000 0.0000 0.0000
# 3 16.9918 24.3405 29.3976 0.0000 0.0000 0.0000
# 4 0.0000 0.0000 0.0000 14.8882 0.0000 0.0000
# 5 0.0000 0.0000 0.0000 0.0000 21.5545 0.0000
# 6 0.0000 0.0000 0.0000 0.0000 0.0000 38.6759
#
#
#
# Elastic Compliance Matrix: (Units=1/GPa)
#
#
# Indices 1 2 3 4 5 6 
#
# 1 0.015009 -0.004751 -0.004741 0.000000 0.000000 0.000000
# 2 -0.004751 0.007710 -0.003637 0.000000 0.000000 0.000000
# 3 -0.004741 -0.003637 0.039768 0.000000 0.000000 0.000000
# 4 0.000000 0.000000 0.000000 0.067167 0.000000 0.000000
# 5 0.000000 0.000000 0.000000 0.000000 0.046394 0.000000
# 6 0.000000 0.000000 0.000000 0.000000 0.000000 0.025856
#
#
# Mechanical properties :
#
#
# Convention : Reuss Voigt Hill
#
# Bulk Modulus (GPa) = 27.60326 57.34632 42.47479
# Shear Modulus (GPa) = 20.81254 28.14900 24.48077
#
# Velocity S-wave (km/s) = 3.03668 3.53157 3.29343
# Velocity P-wave (km/s) = 4.95231 6.48365 5.76901
#
# Compressibility (1/GPa) = 0.03622760
#
# Stress axis : x y z
#
# Youngs Moduli (GPa) = 66.62506 129.70887 25.14565
#
# Poissons Ratio (x) = 0.61628 0.11923
# Poissons Ratio (y) = 0.31655 0.09146
# Poissons Ratio (z) = 0.31590 0.47176
#
# Static dielectric constant tensor:
#      x y z
#    x 3.950840 0.000000 0.000000 
#    y 0.000000 4.790510 0.000000 
#    z 0.000000 0.000000 3.596440 
# 
# 
# High freq. dielectric constant tensor:
#      x y z
#    x 1.874920 0.000000 0.000000 
#    y 0.000000 1.910690 0.000000 
#    z 0.000000 0.000000 1.848620 
# 
# From -- ./inp_files/66490.got.cif
#   From: 2010.03.12/outbox.cif.g09.slc.cpg/sg70_34_cif.got.tgz:66490.got - 2010.04.16 13:46:32.
