data_PCOD8285430
_publ_section_title
;
Structure prediction by ZEFSAII (Michael W. Deem and Ramdas Pophale) SiO2 
 PCOD8285430
Probable space group: F M M M
;
_chemical_formula_sum "Si O2"
_cell_formula_units_Z 112
_cell_length_a 9.047213
_cell_length_b 28.967600
_cell_length_c 20.535602
_cell_angle_alpha 90.000000
_cell_angle_beta 90.000000
_cell_angle_gamma 90.000000
_cell_volume 5381.889401
_symmetry_space_group_name_H-M "F M M M"
_symmetry_group_IT_number 69
_symmetry_cell_setting 'orthorhombic'
loop_
_space_group_symop_operation_xyz
x,y,z
-x,-y,z
x,-y,-z
-x,y,-z
-x,-y,-z
x,y,-z
-x,y,z
x,-y,z
x,1/2+y,1/2+z
-x,1/2-y,1/2+z
x,1/2-y,1/2-z
-x,1/2+y,1/2-z
-x,1/2-y,1/2-z
x,1/2+y,1/2-z
-x,1/2+y,1/2+z
x,1/2-y,1/2+z
1/2+x,y,1/2+z
1/2-x,-y,1/2+z
1/2+x,-y,1/2-z
1/2-x,y,1/2-z
1/2-x,-y,1/2-z
1/2+x,y,1/2-z
1/2-x,y,1/2+z
1/2+x,-y,1/2+z
1/2+x,1/2+y,z
1/2-x,1/2-y,z
1/2+x,1/2-y,-z
1/2-x,1/2+y,-z
1/2-x,1/2-y,-z
1/2+x,1/2+y,-z
1/2-x,1/2+y,z
1/2+x,1/2-y,z
loop_
_atom_site_type_symbol
_atom_site_label
_atom_site_fract_x
_atom_site_fract_y
_atom_site_fract_z
Si Si1 0.327216 0.201335 0.574606
Si Si2 0.328781 0.144650 0.184928
Si Si3 0.331389 0.051243 0.873710
Si Si4 0.837269 0.445270 0.500000
O O1 0.303769 0.184939 0.500000
O O2 0.500000 0.205797 0.591412
O O3 0.250000 0.250000 0.586837
O O4 0.250603 0.164712 0.621630
O O5 0.500000 0.159716 0.185809
O O6 0.250000 0.163237 0.250000
O O7 0.312553 0.088732 0.183515
O O8 0.500000 0.047684 0.896174
O O9 0.275306 0.000000 0.851300
O O10 0.243557 0.071374 0.935217
O O11 0.843898 0.500000 0.500000
O O12 0.000000 0.422908 0.500000
#
# Coordination Sequence:
#
# PCOD8285430 Si02
#       4
#    32  32  32  16
#     4  10  22  42  68  96 124 155 194 245 301 362
#     4  11  24  40  60  88 123 163 206 251 301 359
#     4   9  19  36  56  80 115 160 205 248 297 353
#     4   9  17  29  49  79 110 143 190 247 299 345
#
# _framework density 20.810535000000002
#
# number of rings (size 3 to 8) (size 9 to 14) (size 15 to 20)
#    0.000    2.143    0.000    2.143    2.000    6.857 
#    0.000    2.857    0.000    0.000    0.000    0.000 
#    0.000    0.000    0.000    0.000    0.000    0.000 
#
# Total GULP energy -347140.611825 kJ/mol
# GULP energy per Si atom -12397.878994 kJ/mol
# Density = 2.076317 g / cm^3
# Si number density = 20.810535 Si / 1000 Ang^3
#
#
#
# Elastic Constant Matrix: (Units=GPa)
#
#
# Indices 1 2 3 4 5 6 
#
# 1 143.6218 48.2068 63.9887 0.0000 0.0000 0.0000
# 2 48.2068 79.8125 47.6575 0.0000 0.0000 0.0000
# 3 63.9887 47.6575 101.6839 0.0000 0.0000 0.0000
# 4 0.0000 0.0000 0.0000 22.8250 0.0000 0.0000
# 5 0.0000 0.0000 0.0000 0.0000 31.5292 0.0000
# 6 0.0000 0.0000 0.0000 0.0000 0.0000 27.3306
#
#
#
# Elastic Compliance Matrix: (Units=1/GPa)
#
#
# Indices 1 2 3 4 5 6 
#
# 1 0.010248 -0.003248 -0.004927 0.000000 0.000000 0.000000
# 2 -0.003248 0.018428 -0.006593 0.000000 0.000000 0.000000
# 3 -0.004927 -0.006593 0.016025 0.000000 0.000000 0.000000
# 4 0.000000 0.000000 0.000000 0.043812 0.000000 0.000000
# 5 0.000000 0.000000 0.000000 0.000000 0.031717 0.000000
# 6 0.000000 0.000000 0.000000 0.000000 0.000000 0.036589
#
#
# Mechanical properties :
#
#
# Convention : Reuss Voigt Hill
#
# Bulk Modulus (GPa) = 65.93948 71.64712 68.79330
# Shear Modulus (GPa) = 26.12221 27.35463 26.73842
#
# Velocity S-wave (km/s) = 3.54678 3.62948 3.58837
# Velocity P-wave (km/s) = 6.96615 7.21576 7.09206
#
# Compressibility (1/GPa) = 0.01516542
#
# Stress axis : x y z
#
# Youngs Moduli (GPa) = 97.58084 54.26556 62.40376
#
# Poissons Ratio (x) = 0.17625 0.30744
# Poissons Ratio (y) = 0.31694 0.41142
# Poissons Ratio (z) = 0.48075 0.35777
#
# Static dielectric constant tensor:
#      x y z
#    x 3.935120 0.000000 0.000000 
#    y 0.000000 3.741350 0.000000 
#    z 0.000000 0.000000 3.542140 
# 
# 
# High freq. dielectric constant tensor:
#      x y z
#    x 1.823460 0.000000 0.000000 
#    y 0.000000 1.813580 0.000000 
#    z 0.000000 0.000000 1.800280 
# 
# From -- ./inp_files/3728.got.cif
#   From: 2010.03.12/outbox.cif.g09.slc.cpg/sg69_2_cif.got.tgz:3728.got - 2010.04.10 23:52:46.
