data_PCOD8285017
_publ_section_title
;
Structure prediction by ZEFSAII (Michael W. Deem and Ramdas Pophale) SiO2 
 PCOD8285017
Probable space group: F M M M
;
_chemical_formula_sum "Si O2"
_cell_formula_units_Z 160
_cell_length_a 16.353514
_cell_length_b 15.928724
_cell_length_c 29.794830
_cell_angle_alpha 90.000000
_cell_angle_beta 90.000000
_cell_angle_gamma 90.000000
_cell_volume 7761.273469
_symmetry_space_group_name_H-M "F M M M"
_symmetry_group_IT_number 69
_symmetry_cell_setting 'orthorhombic'
loop_
_space_group_symop_operation_xyz
x,y,z
-x,-y,z
x,-y,-z
-x,y,-z
-x,-y,-z
x,y,-z
-x,y,z
x,-y,z
x,1/2+y,1/2+z
-x,1/2-y,1/2+z
x,1/2-y,1/2-z
-x,1/2+y,1/2-z
-x,1/2-y,1/2-z
x,1/2+y,1/2-z
-x,1/2+y,1/2+z
x,1/2-y,1/2+z
1/2+x,y,1/2+z
1/2-x,-y,1/2+z
1/2+x,-y,1/2-z
1/2-x,y,1/2-z
1/2-x,-y,1/2-z
1/2+x,y,1/2-z
1/2-x,y,1/2+z
1/2+x,-y,1/2+z
1/2+x,1/2+y,z
1/2-x,1/2-y,z
1/2+x,1/2-y,-z
1/2-x,1/2+y,-z
1/2-x,1/2-y,-z
1/2+x,1/2+y,-z
1/2-x,1/2+y,z
1/2+x,1/2-y,z
loop_
_atom_site_type_symbol
_atom_site_label
_atom_site_fract_x
_atom_site_fract_y
_atom_site_fract_z
Si Si1 0.409242 0.000000 0.145033
Si Si2 0.404790 0.330307 0.220732
Si Si3 0.169055 0.302628 0.373721
Si Si4 0.409438 0.156470 0.081662
Si Si5 0.343507 0.500000 0.262499
Si Si6 0.747913 0.096715 0.450620
O O1 0.395388 0.917255 0.116685
O O2 0.342755 0.000000 0.183875
O O3 0.500000 0.000000 0.166166
O O4 0.500000 0.318476 0.210763
O O5 0.373252 0.250000 0.250000
O O6 0.357742 0.340837 0.173633
O O7 0.389645 0.416496 0.246717
O O8 0.250000 0.250000 0.364928
O O9 0.096085 0.244367 0.392157
O O10 0.186938 0.373031 0.411529
O O11 0.500000 0.149912 0.059019
O O12 0.334039 0.148221 0.047121
O O13 0.250000 0.500000 0.250000
O O14 0.707304 0.109407 0.500000
O O15 0.768133 0.000000 0.441574
#
# Coordination Sequence:
#
# PCOD8285017 Si02
#       6
#    16  32  32  32  16  32
#     4  10  20  38  59  85 123 158 200 253 317 373
#     4  11  25  44  64  91 129 168 210 263 321 377
#     4  10  23  37  63  90 124 163 210 253 309 369
#     4  10  20  36  62  90 118 157 198 249 314 374
#     4  12  28  36  62  92 125 164 212 260 313 377
#     4  10  22  40  62  90 125 160 205 260 312 366
#
# _framework density 20.615174
#
# number of rings (size 3 to 8) (size 9 to 14) (size 15 to 20)
#    0.000    1.600    1.000    2.700    9.800    7.200 
#    0.000    1.000    0.000    1.800    0.000    5.600 
#    0.000    0.000    0.000    0.000    0.000    0.000 
#
# Total GULP energy -495893.317069 kJ/mol
# GULP energy per Si atom -12397.332927 kJ/mol
# Density = 2.056825 g / cm^3
# Si number density = 20.615174 Si / 1000 Ang^3
#
#
#
# Elastic Constant Matrix: (Units=GPa)
#
#
# Indices 1 2 3 4 5 6 
#
# 1 73.1399 13.5799 35.7877 0.0000 0.0000 0.0000
# 2 13.5799 99.9662 30.9953 0.0000 0.0000 0.0000
# 3 35.7877 30.9953 114.7631 0.0000 0.0000 0.0000
# 4 0.0000 0.0000 0.0000 -14.8954 0.0000 0.0000
# 5 0.0000 0.0000 0.0000 0.0000 24.7242 0.0000
# 6 0.0000 0.0000 0.0000 0.0000 0.0000 63.1518
#
#
#
# Elastic Compliance Matrix: (Units=1/GPa)
#
#
# Indices 1 2 3 4 5 6 
#
# 1 0.016178 -0.000691 -0.004858 0.000000 0.000000 0.000000
# 2 -0.000691 0.010947 -0.002741 0.000000 0.000000 0.000000
# 3 -0.004858 -0.002741 0.010969 0.000000 0.000000 0.000000
# 4 0.000000 0.000000 0.000000 -0.067135 0.000000 0.000000
# 5 0.000000 0.000000 0.000000 0.000000 0.040446 0.000000
# 6 0.000000 0.000000 0.000000 0.000000 0.000000 0.015835
#
#
# Mechanical properties :
#
#
# Convention : Reuss Voigt Hill
#
# Bulk Modulus (GPa) = 46.48395 49.84389 48.16392
# Shear Modulus (GPa) = 98.05351 28.42985 63.24168
#
# Velocity S-wave (km/s) = 6.90413 3.71762 5.54471
# Velocity P-wave (km/s) = 9.28188 6.53133 8.02533
#
# Compressibility (1/GPa) = 0.02151280
#
# Stress axis : x y z
#
# Youngs Moduli (GPa) = 61.81257 91.34773 91.16697
#
# Poissons Ratio (x) = 0.06316 0.44291
# Poissons Ratio (y) = 0.04274 0.24989
# Poissons Ratio (z) = 0.30030 0.25039
#
# Static dielectric constant tensor:
#      x y z
#    x 3.751360 0.000000 0.000000 
#    y 0.000000 3.904290 0.000000 
#    z 0.000000 0.000000 3.678400 
# 
# 
# High freq. dielectric constant tensor:
#      x y z
#    x 1.798560 0.000000 0.000000 
#    y 0.000000 1.812430 0.000000 
#    z 0.000000 0.000000 1.805700 
# 
# From -- ./inp_files/21881.got.cif
#   From: 2010.03.12/outbox.cif.g09.slc.cpg/sg69_11_cif.got.tgz:21881.got - 2010.04.10 23:52:46.
