data_PCOD8285159
_publ_section_title
;
Structure prediction by ZEFSAII (Michael W. Deem and Ramdas Pophale) SiO2 
 PCOD8285159
Probable space group: F M M M
;
_chemical_formula_sum "Si O2"
_cell_formula_units_Z 112
_cell_length_a 18.246903
_cell_length_b 13.851122
_cell_length_c 22.554691
_cell_angle_alpha 90.000000
_cell_angle_beta 90.000000
_cell_angle_gamma 90.000000
_cell_volume 5700.474398
_symmetry_space_group_name_H-M "F M M M"
_symmetry_group_IT_number 69
_symmetry_cell_setting 'orthorhombic'
loop_
_space_group_symop_operation_xyz
x,y,z
-x,-y,z
x,-y,-z
-x,y,-z
-x,-y,-z
x,y,-z
-x,y,z
x,-y,z
x,1/2+y,1/2+z
-x,1/2-y,1/2+z
x,1/2-y,1/2-z
-x,1/2+y,1/2-z
-x,1/2-y,1/2-z
x,1/2+y,1/2-z
-x,1/2+y,1/2+z
x,1/2-y,1/2+z
1/2+x,y,1/2+z
1/2-x,-y,1/2+z
1/2+x,-y,1/2-z
1/2-x,y,1/2-z
1/2-x,-y,1/2-z
1/2+x,y,1/2-z
1/2-x,y,1/2+z
1/2+x,-y,1/2+z
1/2+x,1/2+y,z
1/2-x,1/2-y,z
1/2+x,1/2-y,-z
1/2-x,1/2+y,-z
1/2-x,1/2-y,-z
1/2+x,1/2+y,-z
1/2-x,1/2+y,z
1/2+x,1/2-y,z
loop_
_atom_site_type_symbol
_atom_site_label
_atom_site_fract_x
_atom_site_fract_y
_atom_site_fract_z
Si Si1 0.667664 0.218920 0.107076
Si Si2 0.174949 0.358694 0.230936
Si Si3 0.082696 0.893196 0.836700
Si Si4 0.912789 0.114297 0.500000
O O1 0.750000 0.250000 0.088736
O O2 0.664764 0.139662 0.160096
O O3 0.629853 0.319399 0.124934
O O4 0.623791 0.166403 0.055666
O O5 0.183513 0.250000 0.250000
O O6 0.250000 0.413483 0.250000
O O7 0.107608 0.402846 0.267700
O O8 0.000000 0.855052 0.836646
O O9 0.088493 0.000000 0.865558
O O10 0.000000 0.132197 0.500000
O O11 0.895083 0.000000 0.500000
#
# Coordination Sequence:
#
# PCOD8285159 Si02
#       4
#    32  32  32  16
#     4  11  21  41  65  87 120 161 203 255 305 356
#     4   9  16  34  57  88 120 154 194 237 294 352
#     4  10  21  35  57  93 128 159 199 246 304 369
#     4  11  27  46  63  87 117 159 214 259 302 360
#
# _framework density 19.647487999999999
#
# number of rings (size 3 to 8) (size 9 to 14) (size 15 to 20)
#    0.000    1.857    5.714    1.286    0.000    9.143 
#    0.000    3.571    0.000    2.571    0.000    0.000 
#    0.000    0.000    0.000    0.000    0.000    0.000 
#
# Total GULP energy -346891.340412 kJ/mol
# GULP energy per Si atom -12388.976443 kJ/mol
# Density = 1.960277 g / cm^3
# Si number density = 19.647488 Si / 1000 Ang^3
#
#
#
# Elastic Constant Matrix: (Units=GPa)
#
#
# Indices 1 2 3 4 5 6 
#
# 1 170.6206 60.2275 63.1674 0.0000 0.0000 0.0000
# 2 60.2275 102.8651 50.3867 0.0000 0.0000 0.0000
# 3 63.1674 50.3867 145.2332 0.0000 0.0000 0.0000
# 4 0.0000 0.0000 0.0000 3.1555 0.0000 0.0000
# 5 0.0000 0.0000 0.0000 0.0000 24.3647 0.0000
# 6 0.0000 0.0000 0.0000 0.0000 0.0000 57.2518
#
#
#
# Elastic Compliance Matrix: (Units=1/GPa)
#
#
# Indices 1 2 3 4 5 6 
#
# 1 0.007939 -0.003562 -0.002217 0.000000 0.000000 0.000000
# 2 -0.003562 0.013310 -0.003068 0.000000 0.000000 0.000000
# 3 -0.002217 -0.003068 0.008914 0.000000 0.000000 0.000000
# 4 0.000000 0.000000 0.000000 0.316911 0.000000 0.000000
# 5 0.000000 0.000000 0.000000 0.000000 0.041043 0.000000
# 6 0.000000 0.000000 0.000000 0.000000 0.000000 0.017467
#
#
# Mechanical properties :
#
#
# Convention : Reuss Voigt Hill
#
# Bulk Modulus (GPa) = 80.20557 85.14244 82.67401
# Shear Modulus (GPa) = 11.69763 33.28354 22.49059
#
# Velocity S-wave (km/s) = 2.44268 4.12033 3.38702
# Velocity P-wave (km/s) = 6.99046 8.12806 7.58063
#
# Compressibility (1/GPa) = 0.01246796
#
# Stress axis : x y z
#
# Youngs Moduli (GPa) = 125.95576 75.13003 112.17875
#
# Poissons Ratio (x) = 0.26764 0.24872
# Poissons Ratio (y) = 0.44871 0.34421
# Poissons Ratio (z) = 0.27926 0.23053
#
# Static dielectric constant tensor:
#      x y z
#    x 4.003820 0.000000 0.000000 
#    y 0.000000 5.337450 0.000000 
#    z 0.000000 0.000000 4.003590 
# 
# 
# High freq. dielectric constant tensor:
#      x y z
#    x 1.781070 0.000000 0.000000 
#    y 0.000000 1.768820 0.000000 
#    z 0.000000 0.000000 1.745190 
# 
# From -- ./inp_files/25430.got.cif
#   From: 2010.03.12/outbox.cif.g09.slc.cpg/sg69_13_cif.got.tgz:25430.got - 2010.04.10 23:52:46.
