data_PCOD8285488
_publ_section_title
;
Structure prediction by ZEFSAII (Michael W. Deem and Ramdas Pophale) SiO2 
 PCOD8285488
Probable space group: F M M M
;
_chemical_formula_sum "Si O2"
_cell_formula_units_Z 160
_cell_length_a 19.952001
_cell_length_b 19.289002
_cell_length_c 21.512585
_cell_angle_alpha 90.000000
_cell_angle_beta 90.000000
_cell_angle_gamma 90.000000
_cell_volume 8279.208415
_symmetry_space_group_name_H-M "F M M M"
_symmetry_group_IT_number 69
_symmetry_cell_setting 'orthorhombic'
loop_
_space_group_symop_operation_xyz
x,y,z
-x,-y,z
x,-y,-z
-x,y,-z
-x,-y,-z
x,y,-z
-x,y,z
x,-y,z
x,1/2+y,1/2+z
-x,1/2-y,1/2+z
x,1/2-y,1/2-z
-x,1/2+y,1/2-z
-x,1/2-y,1/2-z
x,1/2+y,1/2-z
-x,1/2+y,1/2+z
x,1/2-y,1/2+z
1/2+x,y,1/2+z
1/2-x,-y,1/2+z
1/2+x,-y,1/2-z
1/2-x,y,1/2-z
1/2-x,-y,1/2-z
1/2+x,y,1/2-z
1/2-x,y,1/2+z
1/2+x,-y,1/2+z
1/2+x,1/2+y,z
1/2-x,1/2-y,z
1/2+x,1/2-y,-z
1/2-x,1/2+y,-z
1/2-x,1/2-y,-z
1/2+x,1/2+y,-z
1/2-x,1/2+y,z
1/2+x,1/2-y,z
loop_
_atom_site_type_symbol
_atom_site_label
_atom_site_fract_x
_atom_site_fract_y
_atom_site_fract_z
Si Si1 0.838362 0.789033 0.569728
Si Si2 0.614651 0.500000 0.575440
Si Si3 0.297293 0.147913 0.607823
Si Si4 0.326657 0.331437 0.242249
Si Si5 0.235994 0.000000 0.070520
Si Si6 0.075590 0.130751 0.347820
O O1 0.839437 0.821053 0.500000
O O2 0.781334 0.828951 0.611249
O O3 0.828429 0.706371 0.562383
O O4 0.905630 0.803708 0.608337
O O5 0.606221 0.500000 0.500000
O O6 0.690948 0.500000 0.601742
O O7 0.579628 0.434191 0.606140
O O8 0.340366 0.151188 0.670637
O O9 0.306130 0.069208 0.585204
O O10 0.337130 0.250000 0.250000
O O11 0.250000 0.355333 0.250000
O O12 0.376605 0.374151 0.286974
O O13 0.254589 0.000000 0.000000
O O14 0.000000 0.140010 0.323489
#
# Coordination Sequence:
#
# PCOD8285488 Si02
#       6
#    32  16  32  32  16  32
#     4  11  20  36  59  87 121 162 206 250 299 357
#     4  11  23  41  59  85 128 170 201 242 306 379
#     4  11  20  35  59  89 117 158 203 253 304 352
#     4  11  19  39  63  85 118 157 206 258 302 349
#     4  11  20  34  58  94 126 151 198 257 307 360
#     4  12  25  39  59  89 124 166 206 245 302 371
#
# _framework density 19.325519
#
# number of rings (size 3 to 8) (size 9 to 14) (size 15 to 20)
#    0.000    0.800    6.000    4.500    0.000    3.200 
#    0.000    2.000    0.000    0.000    0.000    0.700 
#    0.000    4.800    0.000    0.000    0.000    0.000 
#
# Total GULP energy -495622.144070 kJ/mol
# GULP energy per Si atom -12390.553602 kJ/mol
# Density = 1.928153 g / cm^3
# Si number density = 19.325519 Si / 1000 Ang^3
#
#
#
# Elastic Constant Matrix: (Units=GPa)
#
#
# Indices 1 2 3 4 5 6 
#
# 1 97.5171 30.1193 51.9658 0.0000 0.0000 0.0000
# 2 30.1193 123.6679 22.1394 0.0000 0.0000 0.0000
# 3 51.9658 22.1394 120.6174 0.0000 0.0000 0.0000
# 4 0.0000 0.0000 0.0000 28.4649 0.0000 0.0000
# 5 0.0000 0.0000 0.0000 0.0000 -22.4407 0.0000
# 6 0.0000 0.0000 0.0000 0.0000 0.0000 9.4967
#
#
#
# Elastic Compliance Matrix: (Units=1/GPa)
#
#
# Indices 1 2 3 4 5 6 
#
# 1 0.013969 -0.002404 -0.005577 0.000000 0.000000 0.000000
# 2 -0.002404 0.008775 -0.000575 0.000000 0.000000 0.000000
# 3 -0.005577 -0.000575 0.010799 0.000000 0.000000 0.000000
# 4 0.000000 0.000000 0.000000 0.035131 0.000000 0.000000
# 5 0.000000 0.000000 0.000000 0.000000 -0.044562 0.000000
# 6 0.000000 0.000000 0.000000 0.000000 0.000000 0.105300
#
#
# Mechanical properties :
#
#
# Convention : Reuss Voigt Hill
#
# Bulk Modulus (GPa) = 60.86066 61.13905 60.99985
# Shear Modulus (GPa) = 32.89471 18.94270 25.91870
#
# Velocity S-wave (km/s) = 4.13017 3.13420 3.66616
# Velocity P-wave (km/s) = 7.36921 6.69348 7.03946
#
# Compressibility (1/GPa) = 0.01643098
#
# Stress axis : x y z
#
# Youngs Moduli (GPa) = 71.58711 113.96614 92.60114
#
# Poissons Ratio (x) = 0.27394 0.51644
# Poissons Ratio (y) = 0.17208 0.05324
# Poissons Ratio (z) = 0.39925 0.06553
#
# Static dielectric constant tensor:
#      x y z
#    x 3.268920 0.000000 0.000000 
#    y 0.000000 3.467640 0.000000 
#    z 0.000000 0.000000 3.685870 
# 
# 
# High freq. dielectric constant tensor:
#      x y z
#    x 1.704320 0.000000 0.000000 
#    y 0.000000 1.746940 0.000000 
#    z 0.000000 0.000000 1.763970 
# 
# From -- ./inp_files/24647.got.cif
#   From: 2010.03.12/outbox.cif.g09.slc.cpg/sg69_13_cif.got.tgz:24647.got - 2010.04.10 23:52:46.
