data_PCOD8285698
_publ_section_title
;
Structure prediction by ZEFSAII (Michael W. Deem and Ramdas Pophale) SiO2 
 PCOD8285698
Probable space group: F M M M
;
_chemical_formula_sum "Si O2"
_cell_formula_units_Z 208
_cell_length_a 32.923292
_cell_length_b 19.774882
_cell_length_c 18.502824
_cell_angle_alpha 90.000000
_cell_angle_beta 90.000000
_cell_angle_gamma 90.000000
_cell_volume 12046.341543
_symmetry_space_group_name_H-M "F M M M"
_symmetry_group_IT_number 69
_symmetry_cell_setting 'orthorhombic'
loop_
_space_group_symop_operation_xyz
x,y,z
-x,-y,z
x,-y,-z
-x,y,-z
-x,-y,-z
x,y,-z
-x,y,z
x,-y,z
x,1/2+y,1/2+z
-x,1/2-y,1/2+z
x,1/2-y,1/2-z
-x,1/2+y,1/2-z
-x,1/2-y,1/2-z
x,1/2+y,1/2-z
-x,1/2+y,1/2+z
x,1/2-y,1/2+z
1/2+x,y,1/2+z
1/2-x,-y,1/2+z
1/2+x,-y,1/2-z
1/2-x,y,1/2-z
1/2-x,-y,1/2-z
1/2+x,y,1/2-z
1/2-x,y,1/2+z
1/2+x,-y,1/2+z
1/2+x,1/2+y,z
1/2-x,1/2-y,z
1/2+x,1/2-y,-z
1/2-x,1/2+y,-z
1/2-x,1/2-y,-z
1/2+x,1/2+y,-z
1/2-x,1/2+y,z
1/2+x,1/2-y,z
loop_
_atom_site_type_symbol
_atom_site_label
_atom_site_fract_x
_atom_site_fract_y
_atom_site_fract_z
Si Si1 0.574088 0.668444 0.585540
Si Si2 0.395419 0.424830 0.086173
Si Si3 0.545379 0.188084 0.586203
Si Si4 0.320076 0.340960 0.916313
Si Si5 0.335123 0.814620 0.915456
Si Si6 0.243395 0.329600 0.830623
Si Si7 0.000000 0.423244 0.913793
O O1 0.570124 0.671383 0.500000
O O2 0.563328 0.742107 0.617566
O O3 0.621162 0.652429 0.606023
O O4 0.541240 0.613763 0.615029
O O5 0.401142 0.500000 0.118169
O O6 0.430517 0.376347 0.117140
O O7 0.352866 0.394302 0.112577
O O8 0.397052 0.426190 0.000000
O O9 0.547790 0.189452 0.500000
O O10 0.500000 0.180016 0.614617
O O11 0.336317 0.265562 0.899768
O O12 0.278269 0.362181 0.879041
O O13 0.311932 0.349499 0.000000
O O14 0.300608 0.848432 0.864555
O O15 0.325041 0.827925 0.000000
O O16 0.250000 0.358186 0.750000
O O17 0.250000 0.250000 0.832225
O O18 0.000000 0.500000 0.884341
O O19 0.000000 0.422493 0.000000
#
# Coordination Sequence:
#
# PCOD8285698 Si02
#       7
#    32  32  32  32  32  32  16
#     4   9  14  22  37  57  84 117 149 180 213 256
#     4   9  16  24  35  55  83 113 145 181 219 259
#     4   9  14  21  34  53  81 115 145 174 213 259
#     4   9  15  25  41  59  83 114 147 180 217 267
#     4   9  15  24  41  63  85 115 152 184 218 265
#     4   9  17  27  40  62  90 112 138 184 234 267
#     4   9  16  24  36  58  89 122 149 177 221 268
#
# _framework density 17.266653000000002
#
# number of rings (size 3 to 8) (size 9 to 14) (size 15 to 20)
#    0.000    3.000    2.308    0.462    0.000    2.154 
#    0.000    1.538    0.000    1.385    0.000    4.308 
#    2.308    4.154    0.000    0.000    0.000    0.000 
#
# Total GULP energy -644369.043640 kJ/mol
# GULP energy per Si atom -12391.712378 kJ/mol
# Density = 1.722735 g / cm^3
# Si number density = 17.266653 Si / 1000 Ang^3
#
#
#
# Elastic Constant Matrix: (Units=GPa)
#
#
# Indices 1 2 3 4 5 6 
#
# 1 177.3116 62.6388 40.5625 0.0000 0.0000 0.0000
# 2 62.6388 83.9048 16.5021 0.0000 0.0000 0.0000
# 3 40.5625 16.5021 33.6103 0.0000 0.0000 0.0000
# 4 0.0000 0.0000 0.0000 4.2524 0.0000 0.0000
# 5 0.0000 0.0000 0.0000 0.0000 3.8110 0.0000
# 6 0.0000 0.0000 0.0000 0.0000 0.0000 22.3854
#
#
#
# Elastic Compliance Matrix: (Units=1/GPa)
#
#
# Indices 1 2 3 4 5 6 
#
# 1 0.009590 -0.005405 -0.008919 0.000000 0.000000 0.000000
# 2 -0.005405 0.016238 -0.001450 0.000000 0.000000 0.000000
# 3 -0.008919 -0.001450 0.041229 0.000000 0.000000 0.000000
# 4 0.000000 0.000000 0.000000 0.235164 0.000000 0.000000
# 5 0.000000 0.000000 0.000000 0.000000 0.262395 0.000000
# 6 0.000000 0.000000 0.000000 0.000000 0.000000 0.044672
#
#
# Mechanical properties :
#
#
# Convention : Reuss Voigt Hill
#
# Bulk Modulus (GPa) = 28.16229 59.35928 43.76078
# Shear Modulus (GPa) = 7.66081 17.76465 12.71273
#
# Velocity S-wave (km/s) = 2.10865 3.21104 2.71635
# Velocity P-wave (km/s) = 4.71955 6.94264 5.93609
#
# Compressibility (1/GPa) = 0.03550848
#
# Stress axis : x y z
#
# Youngs Moduli (GPa) = 104.27961 61.58241 24.25471
#
# Poissons Ratio (x) = 0.33284 0.21634
# Poissons Ratio (y) = 0.56361 0.03517
# Poissons Ratio (z) = 0.93012 0.08930
#
# Static dielectric constant tensor:
#      x y z
#    x 3.526600 0.000000 0.000000 
#    y 0.000000 3.127550 0.000000 
#    z 0.000000 0.000000 2.696150 
# 
# 
# High freq. dielectric constant tensor:
#      x y z
#    x 1.686740 0.000000 0.000000 
#    y 0.000000 1.633060 0.000000 
#    z 0.000000 0.000000 1.599700 
# 
# From -- ./inp_files/34085.got.cif
#   From: 2010.03.12/outbox.cif.g09.slc.cpg/sg69_18_cif.got.tgz:34085.got - 2010.04.10 23:52:46.
