data_PCOD8285888
_publ_section_title
;
Structure prediction by ZEFSAII (Michael W. Deem and Ramdas Pophale) SiO2 
 PCOD8285888
Probable space group: F D D D
;
_chemical_formula_sum "Si O2"
_cell_formula_units_Z 136
_cell_length_a 29.999636
_cell_length_b 9.560297
_cell_length_c 24.259436
_cell_angle_alpha 90.000000
_cell_angle_beta 90.000000
_cell_angle_gamma 90.000000
_cell_volume 6957.737975
_symmetry_space_group_name_H-M "F D D D"
_symmetry_group_IT_number 70
_space_group.IT_coordinate_system_code '2'
_symmetry_cell_setting 'orthorhombic'
loop_
_space_group_symop_operation_xyz
x,y,z
1/4-x,1/4-y,z
x,1/4-y,1/4-z
1/4-x,y,1/4-z
-x,-y,-z
3/4+x,3/4+y,-z
-x,3/4+y,3/4+z
3/4+x,-y,3/4+z
x,1/2+y,1/2+z
1/4-x,3/4-y,1/2+z
x,3/4-y,3/4-z
1/4-x,1/2+y,3/4-z
-x,1/2-y,1/2-z
3/4+x,1/4+y,1/2-z
-x,1/4+y,1/4+z
3/4+x,1/2-y,1/4+z
1/2+x,y,1/2+z
3/4-x,1/4-y,1/2+z
1/2+x,1/4-y,3/4-z
3/4-x,y,3/4-z
1/2-x,-y,1/2-z
1/4+x,3/4+y,1/2-z
1/2-x,3/4+y,1/4+z
1/4+x,-y,1/4+z
1/2+x,1/2+y,z
3/4-x,3/4-y,z
1/2+x,3/4-y,1/4-z
3/4-x,1/2+y,1/4-z
1/2-x,1/2-y,-z
1/4+x,1/4+y,-z
1/2-x,1/4+y,3/4+z
1/4+x,1/2-y,3/4+z
loop_
_atom_site_type_symbol
_atom_site_label
_atom_site_fract_x
_atom_site_fract_y
_atom_site_fract_z
Si Si1 0.878827 0.721219 0.544439
Si Si2 0.732171 0.624076 0.307928
Si Si3 0.375000 0.375000 0.875000
Si Si4 0.945232 0.125000 0.625000
Si Si5 0.549524 0.875000 0.375000
Si Si6 0.427099 0.518076 0.970711
O O1 0.833474 0.692986 0.576842
O O2 0.919743 0.722634 0.587000
O O3 0.886346 0.600542 0.499394
O O4 0.875000 0.875000 0.517049
O O5 0.725689 0.757304 0.346677
O O6 0.731680 0.478349 0.341121
O O7 0.782495 0.629709 0.284998
O O8 0.694612 0.611387 0.259344
O O9 0.407850 0.466441 0.912822
#
# Coordination Sequence:
#
# PCOD8285888 Si02
#       6
#    32  32   8  16  16  32
#     4  10  19  35  57  91 114 151 189 248 286 350
#     4  10  20  39  59  93 115 151 189 251 290 352
#     4  12  22  44  60  84 104 176 200 234 266 378
#     4  11  20  34  65  93 116 146 198 239 303 342
#     4   9  17  32  62  83 120 146 190 237 296 342
#     4  10  23  38  62  80 123 152 203 232 292 342
#
# _framework density 19.546582999999998
#
# number of rings (size 3 to 8) (size 9 to 14) (size 15 to 20)
#    0.000    1.882    2.353    2.118    0.000    0.000 
#    4.235    1.176    0.000    0.000    0.000    0.000 
#    0.000    0.000    0.000    0.000    0.000    0.000 
#
# Total GULP energy -421503.322227 kJ/mol
# GULP energy per Si atom -12397.156536 kJ/mol
# Density = 1.950209 g / cm^3
# Si number density = 19.546583 Si / 1000 Ang^3
#
#
#
# Elastic Constant Matrix: (Units=GPa)
#
#
# Indices 1 2 3 4 5 6 
#
# 1 62.7486 43.6648 34.2746 0.0000 0.0000 0.0000
# 2 43.6648 101.4933 48.7215 0.0000 0.0000 0.0000
# 3 34.2746 48.7215 116.9948 0.0000 0.0000 0.0000
# 4 0.0000 0.0000 0.0000 42.8252 0.0000 0.0000
# 5 0.0000 0.0000 0.0000 0.0000 20.6751 0.0000
# 6 0.0000 0.0000 0.0000 0.0000 0.0000 -14.8819
#
#
#
# Elastic Compliance Matrix: (Units=1/GPa)
#
#
# Indices 1 2 3 4 5 6 
#
# 1 0.023770 -0.008604 -0.003381 0.000000 0.000000 0.000000
# 2 -0.008604 0.015429 -0.003905 0.000000 0.000000 0.000000
# 3 -0.003381 -0.003905 0.011164 0.000000 0.000000 0.000000
# 4 0.000000 0.000000 0.000000 0.023351 0.000000 0.000000
# 5 0.000000 0.000000 0.000000 0.000000 0.048367 0.000000
# 6 0.000000 0.000000 0.000000 0.000000 0.000000 -0.067196
#
#
# Mechanical properties :
#
#
# Convention : Reuss Voigt Hill
#
# Bulk Modulus (GPa) = 53.80752 59.39539 56.60146
# Shear Modulus (GPa) = 53.84544 20.02873 36.93709
#
# Velocity S-wave (km/s) = 5.25424 3.20451 4.35178
# Velocity P-wave (km/s) = 8.02477 6.64413 7.36687
#
# Compressibility (1/GPa) = 0.01858476
#
# Stress axis : x y z
#
# Youngs Moduli (GPa) = 42.06943 64.81393 89.57441
#
# Poissons Ratio (x) = 0.55763 0.30283
# Poissons Ratio (y) = 0.36195 0.34976
# Poissons Ratio (z) = 0.14223 0.25308
#
# Static dielectric constant tensor:
#      x y z
#    x 3.421760 0.000000 0.000000 
#    y 0.000000 3.340530 0.000000 
#    z 0.000000 0.000000 3.612280 
# 
# 
# High freq. dielectric constant tensor:
#      x y z
#    x 1.755690 0.000000 0.000000 
#    y 0.000000 1.746870 0.000000 
#    z 0.000000 0.000000 1.759190 
# 
# From -- ./inp_files/19258.got.cif
#   From: 2010.03.12/outbox.cif.g09.slc.cpg/sg70_10_cif.got.tgz:19258.got - 2010.04.16 13:46:32.
