data_PCOD8285916
_publ_section_title
;
Structure prediction by ZEFSAII (Michael W. Deem and Ramdas Pophale) SiO2 
 PCOD8285916
Probable space group: F D D D
;
_chemical_formula_sum "Si O2"
_cell_formula_units_Z 216
_cell_length_a 19.657907
_cell_length_b 23.113214
_cell_length_c 24.290231
_cell_angle_alpha 90.000000
_cell_angle_beta 90.000000
_cell_angle_gamma 90.000000
_cell_volume 11036.446477
_symmetry_space_group_name_H-M "F D D D"
_symmetry_group_IT_number 70
_space_group.IT_coordinate_system_code '2'
_symmetry_cell_setting 'orthorhombic'
loop_
_space_group_symop_operation_xyz
x,y,z
1/4-x,1/4-y,z
x,1/4-y,1/4-z
1/4-x,y,1/4-z
-x,-y,-z
3/4+x,3/4+y,-z
-x,3/4+y,3/4+z
3/4+x,-y,3/4+z
x,1/2+y,1/2+z
1/4-x,3/4-y,1/2+z
x,3/4-y,3/4-z
1/4-x,1/2+y,3/4-z
-x,1/2-y,1/2-z
3/4+x,1/4+y,1/2-z
-x,1/4+y,1/4+z
3/4+x,1/2-y,1/4+z
1/2+x,y,1/2+z
3/4-x,1/4-y,1/2+z
1/2+x,1/4-y,3/4-z
3/4-x,y,3/4-z
1/2-x,-y,1/2-z
1/4+x,3/4+y,1/2-z
1/2-x,3/4+y,1/4+z
1/4+x,-y,1/4+z
1/2+x,1/2+y,z
3/4-x,3/4-y,z
1/2+x,3/4-y,1/4-z
3/4-x,1/2+y,1/4-z
1/2-x,1/2-y,-z
1/4+x,1/4+y,-z
1/2-x,1/4+y,3/4+z
1/4+x,1/2-y,3/4+z
loop_
_atom_site_type_symbol
_atom_site_label
_atom_site_fract_x
_atom_site_fract_y
_atom_site_fract_z
Si Si1 0.250648 0.808504 0.862858
Si Si2 0.534259 0.522683 0.140085
Si Si3 0.609458 0.436262 0.847633
Si Si4 0.207105 0.994338 0.992343
Si Si5 0.125000 0.479015 0.125000
Si Si6 0.685872 0.835164 0.726085
Si Si7 0.625000 0.125000 0.625000
Si Si8 0.935672 0.528693 0.473806
O O1 0.266492 0.875000 0.875000
O O2 0.181073 0.781982 0.889503
O O3 0.244160 0.802905 0.796210
O O4 0.310812 0.769882 0.887630
O O5 0.456018 0.534891 0.123163
O O6 0.530476 0.480132 0.192820
O O7 0.573547 0.582476 0.158788
O O8 0.574451 0.495066 0.088563
O O9 0.620607 0.375000 0.875000
O O10 0.600936 0.432258 0.782399
O O11 0.125750 0.990607 0.986004
O O12 0.238584 0.056793 0.975701
O O13 0.111294 0.438222 0.177184
O O14 0.694930 0.903098 0.720717
O O15 0.000000 0.500000 0.500000
#
# Coordination Sequence:
#
# PCOD8285916 Si02
#       8
#    32  32  32  32  16  32   8  32
#     4  10  20  39  64  88 110 154 203 260 311 373
#     4  11  22  34  57  87 125 162 208 239 300 366
#     4  10  19  37  58  84 115 155 198 245 302 361
#     4  10  22  39  56  87 123 154 200 257 301 360
#     4  10  23  41  60  88 117 149 204 256 332 362
#     4  10  24  39  60  84 123 158 198 265 306 368
#     4  12  20  34  56  84 122 174 196 244 278 370
#     4  12  23  35  58  91 118 168 204 239 308 377
#
# _framework density 19.571517
#
# number of rings (size 3 to 8) (size 9 to 14) (size 15 to 20)
#    0.000    1.481    2.222    3.778    4.148    1.185 
#    0.000    0.000    0.000    0.000    3.852    0.000 
#    0.000    0.000    0.000    0.000    0.000    0.000 
#
# Total GULP energy -669246.445845 kJ/mol
# GULP energy per Si atom -12393.452701 kJ/mol
# Density = 1.952697 g / cm^3
# Si number density = 19.571517 Si / 1000 Ang^3
#
#
#
# Elastic Constant Matrix: (Units=GPa)
#
#
# Indices 1 2 3 4 5 6 
#
# 1 141.9979 66.3091 31.5849 0.0000 0.0000 0.0000
# 2 66.3091 117.9385 55.0464 0.0000 0.0000 0.0000
# 3 31.5849 55.0464 108.1674 0.0000 0.0000 0.0000
# 4 0.0000 0.0000 0.0000 28.9096 0.0000 0.0000
# 5 0.0000 0.0000 0.0000 0.0000 1.9351 0.0000
# 6 0.0000 0.0000 0.0000 0.0000 0.0000 29.4804
#
#
#
# Elastic Compliance Matrix: (Units=1/GPa)
#
#
# Indices 1 2 3 4 5 6 
#
# 1 0.009550 -0.005335 -0.000074 0.000000 0.000000 0.000000
# 2 -0.005335 0.014101 -0.005618 0.000000 0.000000 0.000000
# 3 -0.000074 -0.005618 0.012125 0.000000 0.000000 0.000000
# 4 0.000000 0.000000 0.000000 0.034591 0.000000 0.000000
# 5 0.000000 0.000000 0.000000 0.000000 0.516769 0.000000
# 6 0.000000 0.000000 0.000000 0.000000 0.000000 0.033921
#
#
# Mechanical properties :
#
#
# Convention : Reuss Voigt Hill
#
# Bulk Modulus (GPa) = 72.87112 74.88718 73.87915
# Shear Modulus (GPa) = 7.71981 26.40925 17.06453
#
# Velocity S-wave (km/s) = 1.98821 3.67736 2.95601
# Velocity P-wave (km/s) = 6.52570 7.50847 7.03427
#
# Compressibility (1/GPa) = 0.01372286
#
# Stress axis : x y z
#
# Youngs Moduli (GPa) = 104.71174 70.91875 82.47131
#
# Poissons Ratio (x) = 0.37835 0.00607
# Poissons Ratio (y) = 0.55864 0.46332
# Poissons Ratio (z) = 0.00771 0.39842
#
# Static dielectric constant tensor:
#      x y z
#    x 4.102000 0.000000 0.000000 
#    y 0.000000 3.177240 0.000000 
#    z 0.000000 0.000000 3.685360 
# 
# 
# High freq. dielectric constant tensor:
#      x y z
#    x 1.781240 0.000000 0.000000 
#    y 0.000000 1.739260 0.000000 
#    z 0.000000 0.000000 1.765800 
# 
# From -- ./inp_files/60531.got.cif
#   From: 2010.03.12/outbox.cif.g09.slc.cpg/sg70_31_cif.got.tgz:60531.got - 2010.04.16 13:46:32.
