data_PCOD8285082
_publ_section_title
;
Structure prediction by ZEFSAII (Michael W. Deem and Ramdas Pophale) SiO2 
 PCOD8285082
Probable space group: F M M M
;
_chemical_formula_sum "Si O2"
_cell_formula_units_Z 160
_cell_length_a 18.039696
_cell_length_b 24.761120
_cell_length_c 18.121066
_cell_angle_alpha 90.000000
_cell_angle_beta 90.000000
_cell_angle_gamma 90.000000
_cell_volume 8094.373527
_symmetry_space_group_name_H-M "F M M M"
_symmetry_group_IT_number 69
_symmetry_cell_setting 'orthorhombic'
loop_
_space_group_symop_operation_xyz
x,y,z
-x,-y,z
x,-y,-z
-x,y,-z
-x,-y,-z
x,y,-z
-x,y,z
x,-y,z
x,1/2+y,1/2+z
-x,1/2-y,1/2+z
x,1/2-y,1/2-z
-x,1/2+y,1/2-z
-x,1/2-y,1/2-z
x,1/2+y,1/2-z
-x,1/2+y,1/2+z
x,1/2-y,1/2+z
1/2+x,y,1/2+z
1/2-x,-y,1/2+z
1/2+x,-y,1/2-z
1/2-x,y,1/2-z
1/2-x,-y,1/2-z
1/2+x,y,1/2-z
1/2-x,y,1/2+z
1/2+x,-y,1/2+z
1/2+x,1/2+y,z
1/2-x,1/2-y,z
1/2+x,1/2-y,-z
1/2-x,1/2+y,-z
1/2-x,1/2-y,-z
1/2+x,1/2+y,-z
1/2-x,1/2+y,z
1/2+x,1/2-y,z
loop_
_atom_site_type_symbol
_atom_site_label
_atom_site_fract_x
_atom_site_fract_y
_atom_site_fract_z
Si Si1 0.197865 0.561480 0.816848
Si Si2 0.585594 0.845047 0.184029
Si Si3 0.165757 0.243399 0.585197
Si Si4 0.168978 0.438534 0.584037
Si Si5 0.084448 0.342573 0.353284
O O1 0.172293 0.500000 0.801962
O O2 0.250000 0.582065 0.750000
O O3 0.124674 0.597189 0.825328
O O4 0.245394 0.566542 0.891710
O O5 0.500000 0.851172 0.160234
O O6 0.624967 0.801460 0.133038
O O7 0.591911 0.825070 0.268203
O O8 0.162252 0.225718 0.500000
O O9 0.250000 0.250000 0.612385
O O10 0.127227 0.300946 0.595071
O O11 0.163334 0.418933 0.500000
O O12 0.141418 0.500000 0.593578
O O13 0.116860 0.402357 0.635510
O O14 0.000000 0.343014 0.379063
#
# Coordination Sequence:
#
# PCOD8285082 Si02
#       5
#    32  32  32  32  32
#     4  10  20  38  63  88 117 160 203 241 294 356
#     4  11  24  39  60  92 124 157 201 252 305 365
#     4  11  25  42  62  87 116 158 209 257 307 363
#     4  10  21  37  60  91 122 155 201 252 300 360
#     4  11  23  39  59  86 122 160 198 244 304 370
#
# _framework density 19.766818000000001
#
# number of rings (size 3 to 8) (size 9 to 14) (size 15 to 20)
#    0.000    1.400    2.000    3.000    0.000    8.400 
#    0.000    3.000    0.000    0.000    0.000    4.200 
#    0.000    0.000    0.000    0.000    0.000    0.000 
#
# Total GULP energy -496198.155280 kJ/mol
# GULP energy per Si atom -12404.953882 kJ/mol
# Density = 1.972183 g / cm^3
# Si number density = 19.766818 Si / 1000 Ang^3
#
#
#
# Elastic Constant Matrix: (Units=GPa)
#
#
# Indices 1 2 3 4 5 6 
#
# 1 158.1164 72.7410 48.6309 0.0000 0.0000 0.0000
# 2 72.7410 111.1820 39.6676 0.0000 0.0000 0.0000
# 3 48.6309 39.6676 88.2276 0.0000 0.0000 0.0000
# 4 0.0000 0.0000 0.0000 32.2606 0.0000 0.0000
# 5 0.0000 0.0000 0.0000 0.0000 22.7580 0.0000
# 6 0.0000 0.0000 0.0000 0.0000 0.0000 17.6840
#
#
#
# Elastic Compliance Matrix: (Units=1/GPa)
#
#
# Indices 1 2 3 4 5 6 
#
# 1 0.009654 -0.005262 -0.002956 0.000000 0.000000 0.000000
# 2 -0.005262 0.013580 -0.003206 0.000000 0.000000 0.000000
# 3 -0.002956 -0.003206 0.014405 0.000000 0.000000 0.000000
# 4 0.000000 0.000000 0.000000 0.030998 0.000000 0.000000
# 5 0.000000 0.000000 0.000000 0.000000 0.043941 0.000000
# 6 0.000000 0.000000 0.000000 0.000000 0.000000 0.056548
#
#
# Mechanical properties :
#
#
# Convention : Reuss Voigt Hill
#
# Bulk Modulus (GPa) = 67.59776 75.51167 71.55471
# Shear Modulus (GPa) = 25.39323 27.63961 26.51642
#
# Velocity S-wave (km/s) = 3.58807 3.74342 3.66657
# Velocity P-wave (km/s) = 7.17200 7.54774 7.36227
#
# Compressibility (1/GPa) = 0.01479339
#
# Stress axis : x y z
#
# Youngs Moduli (GPa) = 103.58242 73.63529 69.42171
#
# Poissons Ratio (x) = 0.38745 0.20519
# Poissons Ratio (y) = 0.54502 0.22254
# Poissons Ratio (z) = 0.30615 0.23604
#
# Static dielectric constant tensor:
#      x y z
#    x 3.623330 0.000000 0.000000 
#    y 0.000000 3.610750 0.000000 
#    z 0.000000 0.000000 3.650420 
# 
# 
# High freq. dielectric constant tensor:
#      x y z
#    x 1.768550 0.000000 0.000000 
#    y 0.000000 1.777550 0.000000 
#    z 0.000000 0.000000 1.775480 
# 
# From -- ./inp_files/23129.got.cif
#   From: 2010.03.12/outbox.cif.g09.slc.cpg/sg69_12_cif.got.tgz:23129.got - 2010.04.10 23:52:46.
