data_PCOD8285072
_publ_section_title
;
Structure prediction by ZEFSAII (Michael W. Deem and Ramdas Pophale) SiO2 
 PCOD8285072
Probable space group: F M M M
;
_chemical_formula_sum "Si O2"
_cell_formula_units_Z 160
_cell_length_a 18.195888
_cell_length_b 25.749748
_cell_length_c 18.114045
_cell_angle_alpha 90.000000
_cell_angle_beta 90.000000
_cell_angle_gamma 90.000000
_cell_volume 8487.146142
_symmetry_space_group_name_H-M "F M M M"
_symmetry_group_IT_number 69
_symmetry_cell_setting 'orthorhombic'
loop_
_space_group_symop_operation_xyz
x,y,z
-x,-y,z
x,-y,-z
-x,y,-z
-x,-y,-z
x,y,-z
-x,y,z
x,-y,z
x,1/2+y,1/2+z
-x,1/2-y,1/2+z
x,1/2-y,1/2-z
-x,1/2+y,1/2-z
-x,1/2-y,1/2-z
x,1/2+y,1/2-z
-x,1/2+y,1/2+z
x,1/2-y,1/2+z
1/2+x,y,1/2+z
1/2-x,-y,1/2+z
1/2+x,-y,1/2-z
1/2-x,y,1/2-z
1/2-x,-y,1/2-z
1/2+x,y,1/2-z
1/2-x,y,1/2+z
1/2+x,-y,1/2+z
1/2+x,1/2+y,z
1/2-x,1/2-y,z
1/2+x,1/2-y,-z
1/2-x,1/2+y,-z
1/2-x,1/2-y,-z
1/2+x,1/2+y,-z
1/2-x,1/2+y,z
1/2+x,1/2-y,z
loop_
_atom_site_type_symbol
_atom_site_label
_atom_site_fract_x
_atom_site_fract_y
_atom_site_fract_z
Si Si1 0.915422 0.859752 0.788565
Si Si2 0.685698 0.862285 0.083108
Si Si3 0.676981 0.557669 0.703902
Si Si4 0.162400 0.190329 0.086442
Si Si5 0.585027 0.787512 0.155742
O O1 0.883237 0.909091 0.746934
O O2 0.879305 0.855477 0.869626
O O3 0.904003 0.805621 0.741515
O O4 0.000000 0.871053 0.800128
O O5 0.699718 0.914537 0.128212
O O6 0.750597 0.819635 0.094536
O O7 0.608167 0.836942 0.106357
O O8 0.681739 0.881065 0.000000
O O9 0.645276 0.500000 0.688174
O O10 0.750000 0.553377 0.750000
O O11 0.139054 0.242199 0.129364
O O12 0.139109 0.192107 0.000000
O O13 0.500000 0.772581 0.140712
#
# Coordination Sequence:
#
# PCOD8285072 Si02
#       5
#    32  32  32  32  32
#     4  10  21  37  56  82 112 143 184 230 274 324
#     4  10  21  36  55  83 114 142 180 229 277 326
#     4  10  20  38  61  80 102 139 184 227 276 331
#     4  11  21  34  53  80 113 152 189 222 268 327
#     4  10  21  35  54  79 112 152 188 223 267 323
#
# _framework density 18.852038
#
# number of rings (size 3 to 8) (size 9 to 14) (size 15 to 20)
#    0.000    1.800    2.000    2.400    0.000    6.800 
#    0.000    2.000    0.000    0.600    0.000    7.000 
#    0.000    0.000    0.000    0.000    0.000    0.000 
#
# Total GULP energy -495798.401429 kJ/mol
# GULP energy per Si atom -12394.960036 kJ/mol
# Density = 1.880913 g / cm^3
# Si number density = 18.852038 Si / 1000 Ang^3
#
#
#
# Elastic Constant Matrix: (Units=GPa)
#
#
# Indices 1 2 3 4 5 6 
#
# 1 56.0757 -3.9196 32.2356 0.0000 0.0000 0.0000
# 2 -3.9196 60.1386 25.1487 0.0000 0.0000 0.0000
# 3 32.2356 25.1487 115.9741 0.0000 0.0000 0.0000
# 4 0.0000 0.0000 0.0000 19.0903 0.0000 0.0000
# 5 0.0000 0.0000 0.0000 0.0000 19.2210 0.0000
# 6 0.0000 0.0000 0.0000 0.0000 0.0000 14.8035
#
#
#
# Elastic Compliance Matrix: (Units=1/GPa)
#
#
# Indices 1 2 3 4 5 6 
#
# 1 0.022252 0.004439 -0.007148 0.000000 0.000000 0.000000
# 2 0.004439 0.019172 -0.005391 0.000000 0.000000 0.000000
# 3 -0.007148 -0.005391 0.011778 0.000000 0.000000 0.000000
# 4 0.000000 0.000000 0.000000 0.052383 0.000000 0.000000
# 5 0.000000 0.000000 0.000000 0.000000 0.052026 0.000000
# 6 0.000000 0.000000 0.000000 0.000000 0.000000 0.067552
#
#
# Mechanical properties :
#
#
# Convention : Reuss Voigt Hill
#
# Bulk Modulus (GPa) = 27.02459 37.67975 32.35217
# Shear Modulus (GPa) = 19.70849 22.53787 21.12318
#
# Velocity S-wave (km/s) = 3.23682 3.46137 3.35098
# Velocity P-wave (km/s) = 5.32312 6.00044 5.67190
#
# Compressibility (1/GPa) = 0.03700334
#
# Stress axis : x y z
#
# Youngs Moduli (GPa) = 44.93914 52.15898 84.90052
#
# Poissons Ratio (x) = -0.23155 0.60685
# Poissons Ratio (y) = -0.19950 0.45773
# Poissons Ratio (z) = 0.32122 0.28121
#
# Static dielectric constant tensor:
#      x y z
#    x 3.444260 0.000000 0.000000 
#    y 0.000000 3.562190 0.000000 
#    z 0.000000 0.000000 3.572730 
# 
# 
# High freq. dielectric constant tensor:
#      x y z
#    x 1.732380 0.000000 0.000000 
#    y 0.000000 1.717560 0.000000 
#    z 0.000000 0.000000 1.738380 
# 
# From -- ./inp_files/23095.got.cif
#   From: 2010.03.12/outbox.cif.g09.slc.cpg/sg69_12_cif.got.tgz:23095.got - 2010.04.10 23:52:46.
