data_PCOD8285235
_publ_section_title
;
Structure prediction by ZEFSAII (Michael W. Deem and Ramdas Pophale) SiO2 
 PCOD8285235
Probable space group: F M M M
;
_chemical_formula_sum "Si O2"
_cell_formula_units_Z 144
_cell_length_a 28.276919
_cell_length_b 26.739175
_cell_length_c 10.056639
_cell_angle_alpha 90.000000
_cell_angle_beta 90.000000
_cell_angle_gamma 90.000000
_cell_volume 7603.839688
_symmetry_space_group_name_H-M "F M M M"
_symmetry_group_IT_number 69
_symmetry_cell_setting 'orthorhombic'
loop_
_space_group_symop_operation_xyz
x,y,z
-x,-y,z
x,-y,-z
-x,y,-z
-x,-y,-z
x,y,-z
-x,y,z
x,-y,z
x,1/2+y,1/2+z
-x,1/2-y,1/2+z
x,1/2-y,1/2-z
-x,1/2+y,1/2-z
-x,1/2-y,1/2-z
x,1/2+y,1/2-z
-x,1/2+y,1/2+z
x,1/2-y,1/2+z
1/2+x,y,1/2+z
1/2-x,-y,1/2+z
1/2+x,-y,1/2-z
1/2-x,y,1/2-z
1/2-x,-y,1/2-z
1/2+x,y,1/2-z
1/2-x,y,1/2+z
1/2+x,-y,1/2+z
1/2+x,1/2+y,z
1/2-x,1/2-y,z
1/2+x,1/2-y,-z
1/2-x,1/2+y,-z
1/2-x,1/2-y,-z
1/2+x,1/2+y,-z
1/2-x,1/2+y,z
1/2+x,1/2-y,z
loop_
_atom_site_type_symbol
_atom_site_label
_atom_site_fract_x
_atom_site_fract_y
_atom_site_fract_z
Si Si1 0.500000 0.706040 0.352584
Si Si2 0.800735 0.556761 0.000000
Si Si3 0.811215 0.058338 0.000000
Si Si4 0.396684 0.798251 0.844398
Si Si5 0.052124 0.559203 0.849653
Si Si6 0.855017 0.103096 0.258779
O O1 0.500000 0.730053 0.500000
O O2 0.500000 0.750000 0.250000
O O3 0.550037 0.676712 0.334640
O O4 0.821263 0.581704 0.129661
O O5 0.818021 0.500000 0.000000
O O6 0.744803 0.561069 0.000000
O O7 0.830475 0.089762 0.122315
O O8 0.827759 0.000000 0.000000
O O9 0.393021 0.750000 0.750000
O O10 0.359455 0.837638 0.784958
O O11 0.385275 0.785541 0.000000
O O12 0.051402 0.500000 0.841080
O O13 0.092641 0.579621 0.754096
O O14 0.000000 0.579850 0.808576
O O15 0.064027 0.576633 0.000000
#
# Coordination Sequence:
#
# PCOD8285235 Si02
#       6
#    16  16  16  32  32  32
#     4   8  16  32  54  84 117 152 200 250 293 342
#     4  11  22  42  68  92 117 152 204 260 307 369
#     4  11  26  42  62  92 125 158 196 256 321 363
#     4  10  21  37  61  89 121 160 204 253 299 351
#     4   9  17  30  53  85 119 155 196 239 288 357
#     4  12  22  38  63  92 120 160 204 247 304 371
#
# _framework density 18.937801
#
# number of rings (size 3 to 8) (size 9 to 14) (size 15 to 20)
#    0.000    1.778    2.222    3.333    3.111    1.778 
#    0.000    0.556    0.000    6.000    0.000    0.000 
#    0.000    0.000    0.000    0.000    0.000    0.000 
#
# Total GULP energy -446145.144581 kJ/mol
# GULP energy per Si atom -12392.920683 kJ/mol
# Density = 1.889470 g / cm^3
# Si number density = 18.937801 Si / 1000 Ang^3
#
#
#
# Elastic Constant Matrix: (Units=GPa)
#
#
# Indices 1 2 3 4 5 6 
#
# 1 83.4470 50.0018 47.5590 -0.0002 -0.0004 0.0005
# 2 50.0018 94.8779 58.2214 -0.0020 0.0019 0.0007
# 3 47.5590 58.2214 139.0298 -0.0080 0.0097 0.0021
# 4 -0.0002 -0.0020 -0.0080 31.0974 0.0048 0.0010
# 5 -0.0004 0.0019 0.0097 0.0048 25.7166 -0.0005
# 6 0.0005 0.0007 0.0021 0.0010 -0.0005 27.1955
#
#
#
# Elastic Compliance Matrix: (Units=1/GPa)
#
#
# Indices 1 2 3 4 5 6 
#
# 1 0.018403 -0.007854 -0.003006 -0.000001 0.000002 0.000000
# 2 -0.007854 0.017537 -0.004657 0.000000 0.000000 0.000000
# 3 -0.003006 -0.004657 0.010171 0.000002 -0.000004 -0.000001
# 4 -0.000001 0.000000 0.000002 0.032157 -0.000006 -0.000001
# 5 0.000002 0.000000 -0.000004 -0.000006 0.038885 0.000001
# 6 0.000000 0.000000 -0.000001 -0.000001 0.000001 0.036771
#
#
# Mechanical properties :
#
#
# Convention : Reuss Voigt Hill
#
# Bulk Modulus (GPa) = 66.32847 69.87989 68.10418
# Shear Modulus (GPa) = 26.31789 27.57342 26.94565
#
# Velocity S-wave (km/s) = 3.73191 3.81990 3.77616
# Velocity P-wave (km/s) = 7.32598 7.51234 7.41975
#
# Compressibility (1/GPa) = 0.01507648
#
# Stress axis : x y z
#
# Youngs Moduli (GPa) = 54.33869 57.02288 98.31458
#
# Poissons Ratio (x) = 0.44785 0.29557
# Poissons Ratio (y) = 0.42677 0.45788
# Poissons Ratio (z) = 0.16336 0.26557
#
# Static dielectric constant tensor:
#      x y z
#    x 3.722040 0.000000 0.000000 
#    y 0.000000 3.373150 0.000000 
#    z 0.000000 0.000000 3.149400 
# 
# 
# High freq. dielectric constant tensor:
#      x y z
#    x 1.741330 0.000000 0.000000 
#    y 0.000000 1.730520 0.000000 
#    z 0.000000 0.000000 1.727690 
# 
# From -- ./inp_files/5638.got.cif
#   From: 2010.03.12/outbox.cif.g09.slc.cpg/sg69_3_cif.got.tgz:5638.got - 2010.04.10 23:52:46.
