data_PCOD8285857
_publ_section_title
;
Structure prediction by ZEFSAII (Michael W. Deem and Ramdas Pophale) SiO2 
 PCOD8285857
Probable space group: F D D D
;
_chemical_formula_sum "Si O2"
_cell_formula_units_Z 176
_cell_length_a 28.394613
_cell_length_b 9.757272
_cell_length_c 28.598959
_cell_angle_alpha 90.000000
_cell_angle_beta 90.000000
_cell_angle_gamma 90.000000
_cell_volume 7923.454911
_symmetry_space_group_name_H-M "F D D D"
_symmetry_group_IT_number 70
_space_group.IT_coordinate_system_code '2'
_symmetry_cell_setting 'orthorhombic'
loop_
_space_group_symop_operation_xyz
x,y,z
1/4-x,1/4-y,z
x,1/4-y,1/4-z
1/4-x,y,1/4-z
-x,-y,-z
3/4+x,3/4+y,-z
-x,3/4+y,3/4+z
3/4+x,-y,3/4+z
x,1/2+y,1/2+z
1/4-x,3/4-y,1/2+z
x,3/4-y,3/4-z
1/4-x,1/2+y,3/4-z
-x,1/2-y,1/2-z
3/4+x,1/4+y,1/2-z
-x,1/4+y,1/4+z
3/4+x,1/2-y,1/4+z
1/2+x,y,1/2+z
3/4-x,1/4-y,1/2+z
1/2+x,1/4-y,3/4-z
3/4-x,y,3/4-z
1/2-x,-y,1/2-z
1/4+x,3/4+y,1/2-z
1/2-x,3/4+y,1/4+z
1/4+x,-y,1/4+z
1/2+x,1/2+y,z
3/4-x,3/4-y,z
1/2+x,3/4-y,1/4-z
3/4-x,1/2+y,1/4-z
1/2-x,1/2-y,-z
1/4+x,1/4+y,-z
1/2-x,1/4+y,3/4+z
1/4+x,1/2-y,3/4+z
loop_
_atom_site_type_symbol
_atom_site_label
_atom_site_fract_x
_atom_site_fract_y
_atom_site_fract_z
Si Si1 0.296790 0.875000 0.375000
Si Si2 0.832392 0.089824 0.402414
Si Si3 0.231293 0.996607 0.447414
Si Si4 0.519925 0.223450 0.380043
Si Si5 0.943441 0.795723 0.021323
Si Si6 0.096376 0.416890 0.495128
O O1 0.329168 0.743809 0.382034
O O2 0.262647 0.888645 0.419323
O O3 0.875000 0.016659 0.375000
O O4 0.785016 0.009388 0.391267
O O5 0.845105 0.085202 0.456632
O O6 0.261431 0.023399 0.495252
O O7 0.180869 0.928040 0.457789
O O8 0.221948 0.133797 0.416789
O O9 0.541391 0.375000 0.375000
O O10 0.545027 0.159540 0.425496
O O11 0.900290 0.687929 0.020862
O O12 0.929012 0.937311 0.996423
#
# Coordination Sequence:
#
# PCOD8285857 Si02
#       6
#    16  32  32  32  32  32
#     4  10  19  32  64 100 136 162 210 282 349 416
#     4  11  21  36  66 103 130 167 223 280 349 411
#     4  11  21  41  68  96 133 183 222 281 357 410
#     4  11  26  46  63  90 137 184 230 290 337 417
#     4  11  23  41  65 102 138 175 222 286 352 424
#     4  11  21  39  67 101 138 170 225 285 347 427
#
# _framework density 22.212533000000001
#
# number of rings (size 3 to 8) (size 9 to 14) (size 15 to 20)
#    0.000    1.091    3.636    5.182    2.545    1.091 
#    8.182    0.000    0.000    0.000    0.000    0.000 
#    0.000    0.000    0.000    0.000    0.000    0.000 
#
# Total GULP energy -545550.211159 kJ/mol
# GULP energy per Si atom -12398.868435 kJ/mol
# Density = 2.216198 g / cm^3
# Si number density = 22.212533 Si / 1000 Ang^3
#
#
#
# Elastic Constant Matrix: (Units=GPa)
#
#
# Indices 1 2 3 4 5 6 
#
# 1 109.4627 29.4860 39.9988 0.0000 0.0000 0.0000
# 2 29.4860 72.3058 35.1400 0.0000 0.0000 0.0000
# 3 39.9988 35.1400 121.5715 0.0000 0.0000 0.0000
# 4 0.0000 0.0000 0.0000 18.9619 0.0000 0.0000
# 5 0.0000 0.0000 0.0000 0.0000 33.3536 0.0000
# 6 0.0000 0.0000 0.0000 0.0000 0.0000 25.0565
#
#
#
# Elastic Compliance Matrix: (Units=1/GPa)
#
#
# Indices 1 2 3 4 5 6 
#
# 1 0.010973 -0.003165 -0.002696 0.000000 0.000000 0.000000
# 2 -0.003165 0.017003 -0.003873 0.000000 0.000000 0.000000
# 3 -0.002696 -0.003873 0.010232 0.000000 0.000000 0.000000
# 4 0.000000 0.000000 0.000000 0.052737 0.000000 0.000000
# 5 0.000000 0.000000 0.000000 0.000000 0.029982 0.000000
# 6 0.000000 0.000000 0.000000 0.000000 0.000000 0.039910
#
#
# Mechanical properties :
#
#
# Convention : Reuss Voigt Hill
#
# Bulk Modulus (GPa) = 53.35952 56.95439 55.15696
# Shear Modulus (GPa) = 26.80222 28.72207 27.76214
#
# Velocity S-wave (km/s) = 3.47742 3.59981 3.53914
# Velocity P-wave (km/s) = 6.34016 6.55549 6.44873
#
# Compressibility (1/GPa) = 0.01874080
#
# Stress axis : x y z
#
# Youngs Moduli (GPa) = 91.13289 58.81241 97.73164
#
# Poissons Ratio (x) = 0.18613 0.26344
# Poissons Ratio (y) = 0.28841 0.37856
# Poissons Ratio (z) = 0.24565 0.22781
#
# Static dielectric constant tensor:
#      x y z
#    x 3.973220 0.000000 0.000000 
#    y 0.000000 3.612390 0.000000 
#    z 0.000000 0.000000 4.078790 
# 
# 
# High freq. dielectric constant tensor:
#      x y z
#    x 1.874890 0.000000 0.000000 
#    y 0.000000 1.846700 0.000000 
#    z 0.000000 0.000000 1.882810 
# 
# From -- ./inp_files/21187.got.cif
#   From: 2010.03.12/outbox.cif.g09.slc.cpg/sg70_11_cif.got.tgz:21187.got - 2010.04.16 13:46:32.
