data_PCOD8285445
_publ_section_title
;
Structure prediction by ZEFSAII (Michael W. Deem and Ramdas Pophale) SiO2 
 PCOD8285445
Probable space group: F M M M
;
_chemical_formula_sum "Si O2"
_cell_formula_units_Z 160
_cell_length_a 14.009604
_cell_length_b 20.306811
_cell_length_c 26.036325
_cell_angle_alpha 90.000000
_cell_angle_beta 90.000000
_cell_angle_gamma 90.000000
_cell_volume 7407.084009
_symmetry_space_group_name_H-M "F M M M"
_symmetry_group_IT_number 69
_symmetry_cell_setting 'orthorhombic'
loop_
_space_group_symop_operation_xyz
x,y,z
-x,-y,z
x,-y,-z
-x,y,-z
-x,-y,-z
x,y,-z
-x,y,z
x,-y,z
x,1/2+y,1/2+z
-x,1/2-y,1/2+z
x,1/2-y,1/2-z
-x,1/2+y,1/2-z
-x,1/2-y,1/2-z
x,1/2+y,1/2-z
-x,1/2+y,1/2+z
x,1/2-y,1/2+z
1/2+x,y,1/2+z
1/2-x,-y,1/2+z
1/2+x,-y,1/2-z
1/2-x,y,1/2-z
1/2-x,-y,1/2-z
1/2+x,y,1/2-z
1/2-x,y,1/2+z
1/2+x,-y,1/2+z
1/2+x,1/2+y,z
1/2-x,1/2-y,z
1/2+x,1/2-y,-z
1/2-x,1/2+y,-z
1/2-x,1/2-y,-z
1/2+x,1/2+y,-z
1/2-x,1/2+y,z
1/2+x,1/2-y,z
loop_
_atom_site_type_symbol
_atom_site_label
_atom_site_fract_x
_atom_site_fract_y
_atom_site_fract_z
Si Si1 0.652160 0.571763 0.279244
Si Si2 0.394978 0.309746 0.213625
Si Si3 0.607376 0.780516 0.057637
Si Si4 0.754912 0.356769 0.867492
Si Si5 0.105974 0.876168 0.057388
O O1 0.600647 0.500000 0.281894
O O2 0.750000 0.563306 0.250000
O O3 0.590844 0.624795 0.248074
O O4 0.672710 0.596500 0.336994
O O5 0.500000 0.295458 0.188945
O O6 0.362630 0.250000 0.250000
O O7 0.314282 0.315366 0.170413
O O8 0.500000 0.804384 0.070936
O O9 0.682362 0.808085 0.098180
O O10 0.612409 0.702309 0.059457
O O11 0.634937 0.804402 0.000000
O O12 0.686258 0.402752 0.903251
O O13 0.000000 0.899637 0.074426
O O14 0.126968 0.902131 0.000000
#
# Coordination Sequence:
#
# PCOD8285445 Si02
#       5
#    32  32  32  32  32
#     4   9  21  39  56  77 110 153 200 239 279 342
#     4  10  23  38  54  84 120 149 186 241 297 347
#     4   9  19  33  50  80 118 151 187 233 287 350
#     4  11  20  32  58  80 109 147 193 233 293 343
#     4   9  18  31  49  80 117 149 186 233 291 357
#
# _framework density 21.600943000000001
#
# number of rings (size 3 to 8) (size 9 to 14) (size 15 to 20)
#    0.000    2.400    0.000    3.000    5.600    5.600 
#    0.000    0.000    0.000    4.800    0.000    2.800 
#    0.000    0.000    0.000    0.000    0.000    0.000 
#
# Total GULP energy -495709.899329 kJ/mol
# GULP energy per Si atom -12392.747483 kJ/mol
# Density = 2.155178 g / cm^3
# Si number density = 21.600943 Si / 1000 Ang^3
#
#
#
# Elastic Constant Matrix: (Units=GPa)
#
#
# Indices 1 2 3 4 5 6 
#
# 1 99.2237 10.8864 51.1754 0.0000 0.0000 0.0000
# 2 10.8864 66.1865 22.9739 0.0000 0.0000 0.0000
# 3 51.1754 22.9739 122.7486 0.0000 0.0000 0.0000
# 4 0.0000 0.0000 0.0000 17.1807 0.0000 0.0000
# 5 0.0000 0.0000 0.0000 0.0000 32.4233 0.0000
# 6 0.0000 0.0000 0.0000 0.0000 0.0000 0.1537
#
#
#
# Elastic Compliance Matrix: (Units=1/GPa)
#
#
# Indices 1 2 3 4 5 6 
#
# 1 0.012843 -0.000272 -0.005304 0.000000 0.000000 0.000000
# 2 -0.000272 0.016164 -0.002912 0.000000 0.000000 0.000000
# 3 -0.005304 -0.002912 0.010903 0.000000 0.000000 0.000000
# 4 0.000000 0.000000 0.000000 0.058205 0.000000 0.000000
# 5 0.000000 0.000000 0.000000 0.000000 0.030842 0.000000
# 6 0.000000 0.000000 0.000000 0.000000 0.000000 6.504139
#
#
# Mechanical properties :
#
#
# Convention : Reuss Voigt Hill
#
# Bulk Modulus (GPa) = 43.59978 50.91445 47.25711
# Shear Modulus (GPa) = 0.75101 23.49308 12.12204
#
# Velocity S-wave (km/s) = 0.59028 3.30145 2.37150
# Velocity P-wave (km/s) = 4.54891 6.17692 5.42434
#
# Compressibility (1/GPa) = 0.02293590
#
# Stress axis : x y z
#
# Youngs Moduli (GPa) = 77.86040 61.86464 91.71790
#
# Poissons Ratio (x) = 0.01680 0.48645
# Poissons Ratio (y) = 0.02114 0.26710
# Poissons Ratio (z) = 0.41296 0.18016
#
# Static dielectric constant tensor:
#      x y z
#    x 4.174230 0.000000 0.000000 
#    y 0.000000 3.763310 0.000000 
#    z 0.000000 0.000000 4.553460 
# 
# 
# High freq. dielectric constant tensor:
#      x y z
#    x 1.858140 0.000000 0.000000 
#    y 0.000000 1.794290 0.000000 
#    z 0.000000 0.000000 1.858680 
# 
# From -- ./inp_files/41051.got.cif
#   From: 2010.03.12/outbox.cif.g09.slc.cpg/sg69_21_cif.got.tgz:41051.got - 2010.04.10 23:52:46.
