data_PCOD8285870
_publ_section_title
;
Structure prediction by ZEFSAII (Michael W. Deem and Ramdas Pophale) SiO2 
 PCOD8285870
Probable space group: F D D D
;
_chemical_formula_sum "Si O2"
_cell_formula_units_Z 160
_cell_length_a 16.673277
_cell_length_b 24.313012
_cell_length_c 19.101092
_cell_angle_alpha 90.000000
_cell_angle_beta 90.000000
_cell_angle_gamma 90.000000
_cell_volume 7743.154523
_symmetry_space_group_name_H-M "F D D D"
_symmetry_group_IT_number 70
_space_group.IT_coordinate_system_code '2'
_symmetry_cell_setting 'orthorhombic'
loop_
_space_group_symop_operation_xyz
x,y,z
1/4-x,1/4-y,z
x,1/4-y,1/4-z
1/4-x,y,1/4-z
-x,-y,-z
3/4+x,3/4+y,-z
-x,3/4+y,3/4+z
3/4+x,-y,3/4+z
x,1/2+y,1/2+z
1/4-x,3/4-y,1/2+z
x,3/4-y,3/4-z
1/4-x,1/2+y,3/4-z
-x,1/2-y,1/2-z
3/4+x,1/4+y,1/2-z
-x,1/4+y,1/4+z
3/4+x,1/2-y,1/4+z
1/2+x,y,1/2+z
3/4-x,1/4-y,1/2+z
1/2+x,1/4-y,3/4-z
3/4-x,y,3/4-z
1/2-x,-y,1/2-z
1/4+x,3/4+y,1/2-z
1/2-x,3/4+y,1/4+z
1/4+x,-y,1/4+z
1/2+x,1/2+y,z
3/4-x,3/4-y,z
1/2+x,3/4-y,1/4-z
3/4-x,1/2+y,1/4-z
1/2-x,1/2-y,-z
1/4+x,1/4+y,-z
1/2-x,1/4+y,3/4+z
1/4+x,1/2-y,3/4+z
loop_
_atom_site_type_symbol
_atom_site_label
_atom_site_fract_x
_atom_site_fract_y
_atom_site_fract_z
Si Si1 0.118757 0.995632 0.281715
Si Si2 0.511425 0.193920 0.565223
Si Si3 0.836555 0.815660 0.449191
Si Si4 0.987934 0.325506 0.278368
Si Si5 0.085850 0.974082 0.433297
O O1 0.049328 0.003360 0.223629
O O2 0.185904 0.043544 0.279020
O O3 0.166785 0.938197 0.268910
O O4 0.075640 0.000767 0.356632
O O5 0.534797 0.139392 0.521869
O O6 0.541835 0.194598 0.644888
O O7 0.415830 0.188829 0.565951
O O8 0.875000 0.796607 0.375000
O O9 0.875000 0.875000 0.469543
O O10 0.851587 0.770959 0.508926
O O11 0.739308 0.817122 0.444729
#
# Coordination Sequence:
#
# PCOD8285870 Si02
#       5
#    32  32  32  32  32
#     4  10  19  34  55  80 114 146 181 231 276 323
#     4  10  19  34  56  79 113 149 181 228 279 335
#     4  10  22  40  60  79 106 145 185 227 280 337
#     4   9  20  33  52  83 111 148 192 218 271 347
#     4  10  22  37  57  85 108 138 188 234 277 330
#
# _framework density 20.663414
#
# number of rings (size 3 to 8) (size 9 to 14) (size 15 to 20)
#    0.000    2.200    0.000    2.400    0.000   11.200 
#    0.000    0.000    0.000   16.800    0.000    0.000 
#    0.000    0.000    0.000    0.000    0.000    0.000 
#
# Total GULP energy -495573.298879 kJ/mol
# GULP energy per Si atom -12389.332472 kJ/mol
# Density = 2.061638 g / cm^3
# Si number density = 20.663414 Si / 1000 Ang^3
#
#
#
# Elastic Constant Matrix: (Units=GPa)
#
#
# Indices 1 2 3 4 5 6 
#
# 1 90.9524 16.3184 13.0634 0.0000 0.0000 0.0000
# 2 16.3184 67.7216 24.7799 0.0000 0.0000 0.0000
# 3 13.0634 24.7799 64.7171 0.0000 0.0000 0.0000
# 4 0.0000 0.0000 0.0000 23.7306 0.0000 0.0000
# 5 0.0000 0.0000 0.0000 0.0000 36.4944 0.0000
# 6 0.0000 0.0000 0.0000 0.0000 0.0000 30.7271
#
#
#
# Elastic Compliance Matrix: (Units=1/GPa)
#
#
# Indices 1 2 3 4 5 6 
#
# 1 0.011612 -0.002257 -0.001480 0.000000 0.000000 0.000000
# 2 -0.002257 0.017611 -0.006288 0.000000 0.000000 0.000000
# 3 -0.001480 -0.006288 0.018158 0.000000 0.000000 0.000000
# 4 0.000000 0.000000 0.000000 0.042140 0.000000 0.000000
# 5 0.000000 0.000000 0.000000 0.000000 0.027401 0.000000
# 6 0.000000 0.000000 0.000000 0.000000 0.000000 0.032545
#
#
# Mechanical properties :
#
#
# Convention : Reuss Voigt Hill
#
# Bulk Modulus (GPa) = 36.58605 36.85719 36.72162
# Shear Modulus (GPa) = 27.99146 29.47238 28.73192
#
# Velocity S-wave (km/s) = 3.68453 3.78075 3.73295
# Velocity P-wave (km/s) = 5.98709 6.07737 6.03239
#
# Compressibility (1/GPa) = 0.02733282
#
# Stress axis : x y z
#
# Youngs Moduli (GPa) = 86.11632 56.78338 55.07186
#
# Poissons Ratio (x) = 0.12814 0.08150
# Poissons Ratio (y) = 0.19433 0.34627
# Poissons Ratio (z) = 0.12745 0.35703
#
# Static dielectric constant tensor:
#      x y z
#    x 3.966530 0.000000 0.000000 
#    y 0.000000 3.530410 0.000000 
#    z 0.000000 0.000000 3.782060 
# 
# 
# High freq. dielectric constant tensor:
#      x y z
#    x 1.829170 0.000000 0.000000 
#    y 0.000000 1.783510 0.000000 
#    z 0.000000 0.000000 1.801020 
# 
# From -- ./inp_files/35104.got.cif
#   From: 2010.03.12/outbox.cif.g09.slc.cpg/sg70_18_cif.got.tgz:35104.got - 2010.04.16 13:46:32.
