data_PCOD8285425
_publ_section_title
;
Structure prediction by ZEFSAII (Michael W. Deem and Ramdas Pophale) SiO2 
 PCOD8285425
Probable space group: F M M M
;
_chemical_formula_sum "Si O2"
_cell_formula_units_Z 104
_cell_length_a 29.010193
_cell_length_b 11.769723
_cell_length_c 13.607436
_cell_angle_alpha 90.000000
_cell_angle_beta 90.000000
_cell_angle_gamma 90.000000
_cell_volume 4646.149289
_symmetry_space_group_name_H-M "F M M M"
_symmetry_group_IT_number 69
_symmetry_cell_setting 'orthorhombic'
loop_
_space_group_symop_operation_xyz
x,y,z
-x,-y,z
x,-y,-z
-x,y,-z
-x,-y,-z
x,y,-z
-x,y,z
x,-y,z
x,1/2+y,1/2+z
-x,1/2-y,1/2+z
x,1/2-y,1/2-z
-x,1/2+y,1/2-z
-x,1/2-y,1/2-z
x,1/2+y,1/2-z
-x,1/2+y,1/2+z
x,1/2-y,1/2+z
1/2+x,y,1/2+z
1/2-x,-y,1/2+z
1/2+x,-y,1/2-z
1/2-x,y,1/2-z
1/2-x,-y,1/2-z
1/2+x,y,1/2-z
1/2-x,y,1/2+z
1/2+x,-y,1/2+z
1/2+x,1/2+y,z
1/2-x,1/2-y,z
1/2+x,1/2-y,-z
1/2-x,1/2+y,-z
1/2-x,1/2-y,-z
1/2+x,1/2+y,-z
1/2-x,1/2+y,z
1/2+x,1/2-y,z
loop_
_atom_site_type_symbol
_atom_site_label
_atom_site_fract_x
_atom_site_fract_y
_atom_site_fract_z
Si Si1 0.947516 0.500000 0.116916
Si Si2 0.500000 0.127147 0.617444
Si Si3 0.250000 0.250000 0.750000
Si Si4 0.087224 0.761385 0.384143
Si Si5 0.322253 0.632351 0.114569
O O1 0.918764 0.390499 0.153316
O O2 0.000000 0.500000 0.158539
O O3 0.950800 0.500000 0.000000
O O4 0.500000 0.130148 0.500000
O O5 0.454784 0.188463 0.659893
O O6 0.500000 0.000000 0.658275
O O7 0.278973 0.332884 0.819885
O O8 0.085387 0.754768 0.500000
O O9 0.134899 0.707843 0.346913
O O10 0.333857 0.500000 0.129890
O O11 0.311412 0.657151 0.000000
#
# Coordination Sequence:
#
# PCOD8285425 Si02
#       5
#    16  16   8  32  32
#     4   9  14  24  44  79 126 164 199 246 295 351
#     4   9  14  21  41  76 115 154 197 242 292 356
#     4  12  24  44  68  94 120 154 210 268 330 376
#     4   9  16  28  49  81 120 161 202 246 298 360
#     4  10  22  42  66  93 126 163 206 258 316 377
#
# _framework density 22.384126999999999
#
# number of rings (size 3 to 8) (size 9 to 14) (size 15 to 20)
#    0.000    2.462    1.538    1.846    0.000    3.692 
#    5.538    0.000    0.000    0.923    0.000    0.000 
#    0.000    0.000    0.000    0.000    0.000    1.846 
#
# Total GULP energy -322357.203460 kJ/mol
# GULP energy per Si atom -12398.353979 kJ/mol
# Density = 2.233318 g / cm^3
# Si number density = 22.384127 Si / 1000 Ang^3
#
#
#
# Elastic Constant Matrix: (Units=GPa)
#
#
# Indices 1 2 3 4 5 6 
#
# 1 177.7085 103.3727 42.2435 0.0000 0.0000 0.0000
# 2 103.3727 208.8006 35.8555 0.0000 0.0000 0.0000
# 3 42.2435 35.8555 74.8664 0.0000 0.0000 0.0000
# 4 0.0000 0.0000 0.0000 8.0876 0.0000 0.0000
# 5 0.0000 0.0000 0.0000 0.0000 -52.9490 0.0000
# 6 0.0000 0.0000 0.0000 0.0000 0.0000 44.6106
#
#
#
# Elastic Compliance Matrix: (Units=1/GPa)
#
#
# Indices 1 2 3 4 5 6 
#
# 1 0.008489 -0.003683 -0.003026 0.000000 0.000000 0.000000
# 2 -0.003683 0.006816 -0.001186 0.000000 0.000000 0.000000
# 3 -0.003026 -0.001186 0.015633 0.000000 0.000000 0.000000
# 4 0.000000 0.000000 0.000000 0.123646 0.000000 0.000000
# 5 0.000000 0.000000 0.000000 0.000000 -0.018886 0.000000
# 6 0.000000 0.000000 0.000000 0.000000 0.000000 0.022416
#
#
# Mechanical properties :
#
#
# Convention : Reuss Voigt Hill
#
# Bulk Modulus (GPa) = 66.01875 91.59099 78.80487
# Shear Modulus (GPa) = 27.94017 18.61009 23.27513
#
# Velocity S-wave (km/s) = 3.53684 2.88652 3.22810
# Velocity P-wave (km/s) = 6.79975 7.21914 7.01258
#
# Compressibility (1/GPa) = 0.01514721
#
# Stress axis : x y z
#
# Youngs Moduli (GPa) = 117.80036 146.70518 63.96835
#
# Poissons Ratio (x) = 0.54032 0.19357
# Poissons Ratio (y) = 0.43387 0.07589
# Poissons Ratio (z) = 0.35646 0.17405
#
# Static dielectric constant tensor:
#      x y z
#    x 4.051970 0.000000 0.000000 
#    y 0.000000 4.226370 0.000000 
#    z 0.000000 0.000000 3.791260 
# 
# 
# High freq. dielectric constant tensor:
#      x y z
#    x 1.869200 0.000000 0.000000 
#    y 0.000000 1.891010 0.000000 
#    z 0.000000 0.000000 1.888580 
# 
# From -- ./inp_files/19208.got.cif
#   From: 2010.03.12/outbox.cif.g09.slc.cpg/sg69_10_cif.got.tgz:19208.got - 2010.04.10 23:52:46.
