data_PCOD8285537
_publ_section_title
;
Structure prediction by ZEFSAII (Michael W. Deem and Ramdas Pophale) SiO2 
 PCOD8285537
Probable space group: F M M M
;
_chemical_formula_sum "Si O2"
_cell_formula_units_Z 160
_cell_length_a 17.497389
_cell_length_b 30.089288
_cell_length_c 15.111981
_cell_angle_alpha 90.000000
_cell_angle_beta 90.000000
_cell_angle_gamma 90.000000
_cell_volume 7956.215855
_symmetry_space_group_name_H-M "F M M M"
_symmetry_group_IT_number 69
_symmetry_cell_setting 'orthorhombic'
loop_
_space_group_symop_operation_xyz
x,y,z
-x,-y,z
x,-y,-z
-x,y,-z
-x,-y,-z
x,y,-z
-x,y,z
x,-y,z
x,1/2+y,1/2+z
-x,1/2-y,1/2+z
x,1/2-y,1/2-z
-x,1/2+y,1/2-z
-x,1/2-y,1/2-z
x,1/2+y,1/2-z
-x,1/2+y,1/2+z
x,1/2-y,1/2+z
1/2+x,y,1/2+z
1/2-x,-y,1/2+z
1/2+x,-y,1/2-z
1/2-x,y,1/2-z
1/2-x,-y,1/2-z
1/2+x,y,1/2-z
1/2-x,y,1/2+z
1/2+x,-y,1/2+z
1/2+x,1/2+y,z
1/2-x,1/2-y,z
1/2+x,1/2-y,-z
1/2-x,1/2+y,-z
1/2-x,1/2-y,-z
1/2+x,1/2+y,-z
1/2-x,1/2+y,z
1/2+x,1/2-y,z
loop_
_atom_site_type_symbol
_atom_site_label
_atom_site_fract_x
_atom_site_fract_y
_atom_site_fract_z
Si Si1 0.413336 0.123191 0.905211
Si Si2 0.811675 0.685952 0.000000
Si Si3 0.588272 0.793346 0.694059
Si Si4 0.412238 0.449814 0.897196
Si Si5 0.148679 0.713629 0.500000
Si Si6 0.838739 0.614274 0.736524
O O1 0.500000 0.140016 0.888006
O O2 0.354715 0.165326 0.913697
O O3 0.383130 0.094147 0.822943
O O4 0.410278 0.096687 0.000000
O O5 0.817672 0.737857 0.000000
O O6 0.719327 0.677634 0.000000
O O7 0.500000 0.802595 0.714657
O O8 0.615712 0.750000 0.750000
O O9 0.598004 0.790514 0.588133
O O10 0.637405 0.834694 0.727631
O O11 0.500000 0.438392 0.877064
O O12 0.393513 0.500000 0.866524
O O13 0.359489 0.414906 0.847748
O O14 0.394459 0.444348 0.000000
O O15 0.750000 0.610113 0.750000
#
# Coordination Sequence:
#
# PCOD8285537 Si02
#       6
#    32  16  32  32  16  32
#     4   9  19  36  59  78 106 154 205 243 289 361
#     4   9  19  35  55  79 108 151 200 247 315 373
#     4  11  25  40  57  85 119 164 219 262 309 367
#     4   9  20  41  69  97 126 162 203 253 316 383
#     4  11  21  35  55  79 114 149 194 267 321 357
#     4  12  24  37  61  92 126 164 203 263 316 377
#
# _framework density 20.110063
#
# number of rings (size 3 to 8) (size 9 to 14) (size 15 to 20)
#    0.600    1.200    0.000    5.100    1.400    6.400 
#    0.000    0.000    0.000    0.600    0.000    2.800 
#    0.000    0.000    0.000    0.000    0.000    0.000 
#
# Total GULP energy -495612.722863 kJ/mol
# GULP energy per Si atom -12390.318072 kJ/mol
# Density = 2.006429 g / cm^3
# Si number density = 20.110063 Si / 1000 Ang^3
#
#
#
# Elastic Constant Matrix: (Units=GPa)
#
#
# Indices 1 2 3 4 5 6 
#
# 1 117.5962 44.4949 46.8930 0.0000 0.0000 0.0000
# 2 44.4949 78.6470 38.4540 0.0000 0.0000 0.0000
# 3 46.8930 38.4540 124.1124 0.0000 0.0000 0.0000
# 4 0.0000 0.0000 0.0000 32.1178 0.0000 0.0000
# 5 0.0000 0.0000 0.0000 0.0000 47.2200 0.0000
# 6 0.0000 0.0000 0.0000 0.0000 0.0000 -12.9760
#
#
#
# Elastic Compliance Matrix: (Units=1/GPa)
#
#
# Indices 1 2 3 4 5 6 
#
# 1 0.011571 -0.005196 -0.002762 0.000000 0.000000 0.000000
# 2 -0.005196 0.017318 -0.003403 0.000000 0.000000 0.000000
# 3 -0.002762 -0.003403 0.010155 0.000000 0.000000 0.000000
# 4 0.000000 0.000000 0.000000 0.031135 0.000000 0.000000
# 5 0.000000 0.000000 0.000000 0.000000 0.021177 0.000000
# 6 0.000000 0.000000 0.000000 0.000000 0.000000 -0.077066
#
#
# Mechanical properties :
#
#
# Convention : Reuss Voigt Hill
#
# Bulk Modulus (GPa) = 61.26195 64.44883 62.85539
# Shear Modulus (GPa) = 117.77515 25.97327 71.87421
#
# Velocity S-wave (km/s) = 7.66110 3.59772 5.98482
# Velocity P-wave (km/s) = 10.43005 7.02679 8.89274
#
# Compressibility (1/GPa) = 0.01632335
#
# Stress axis : x y z
#
# Youngs Moduli (GPa) = 86.42268 57.74225 98.47361
#
# Poissons Ratio (x) = 0.30002 0.27198
# Poissons Ratio (y) = 0.44904 0.33507
# Poissons Ratio (z) = 0.23870 0.19647
#
# Static dielectric constant tensor:
#      x y z
#    x 3.680580 0.000000 0.000000 
#    y 0.000000 3.268230 0.000000 
#    z 0.000000 0.000000 4.132890 
# 
# 
# High freq. dielectric constant tensor:
#      x y z
#    x 1.791940 0.000000 0.000000 
#    y 0.000000 1.738610 0.000000 
#    z 0.000000 0.000000 1.806740 
# 
# From -- ./inp_files/15679.got.cif
#   From: 2010.03.12/outbox.cif.g09.slc.cpg/sg69_8_cif.got.tgz:15679.got - 2010.04.10 23:52:46.
