data_PCOD8285178
_publ_section_title
;
Structure prediction by ZEFSAII (Michael W. Deem and Ramdas Pophale) SiO2 
 PCOD8285178
Probable space group: F M M M
;
_chemical_formula_sum "Si O2"
_cell_formula_units_Z 112
_cell_length_a 25.451885
_cell_length_b 8.816585
_cell_length_c 28.501334
_cell_angle_alpha 90.000000
_cell_angle_beta 90.000000
_cell_angle_gamma 90.000000
_cell_volume 6395.662512
_symmetry_space_group_name_H-M "F M M M"
_symmetry_group_IT_number 69
_symmetry_cell_setting 'orthorhombic'
loop_
_space_group_symop_operation_xyz
x,y,z
-x,-y,z
x,-y,-z
-x,y,-z
-x,-y,-z
x,y,-z
-x,y,z
x,-y,z
x,1/2+y,1/2+z
-x,1/2-y,1/2+z
x,1/2-y,1/2-z
-x,1/2+y,1/2-z
-x,1/2-y,1/2-z
x,1/2+y,1/2-z
-x,1/2+y,1/2+z
x,1/2-y,1/2+z
1/2+x,y,1/2+z
1/2-x,-y,1/2+z
1/2+x,-y,1/2-z
1/2-x,y,1/2-z
1/2-x,-y,1/2-z
1/2+x,y,1/2-z
1/2-x,y,1/2+z
1/2+x,-y,1/2+z
1/2+x,1/2+y,z
1/2-x,1/2-y,z
1/2+x,1/2-y,-z
1/2-x,1/2+y,-z
1/2-x,1/2-y,-z
1/2+x,1/2+y,-z
1/2-x,1/2+y,z
1/2+x,1/2-y,z
loop_
_atom_site_type_symbol
_atom_site_label
_atom_site_fract_x
_atom_site_fract_y
_atom_site_fract_z
Si Si1 0.093848 0.824307 0.143264
Si Si2 0.061379 0.175149 0.552884
Si Si3 0.000000 0.321415 0.800990
Si Si4 0.804118 0.677423 0.299249
O O1 0.094085 0.778998 0.088558
O O2 0.051675 0.726129 0.171118
O O3 0.151465 0.787611 0.162646
O O4 0.079304 0.000000 0.149234
O O5 0.077263 0.221155 0.500000
O O6 0.000000 0.204622 0.561138
O O7 0.074786 0.000000 0.562133
O O8 0.000000 0.250000 0.750000
O O9 0.000000 0.500000 0.795311
O O10 0.795699 0.500000 0.291443
O O11 0.821471 0.750000 0.250000
O O12 0.750000 0.750000 0.317748
#
# Coordination Sequence:
#
# PCOD8285178 Si02
#       4
#    32  32  16  32
#     4  11  22  35  53  80 109 138 175 217 264 315
#     4   9  18  33  53  78 107 140 178 216 260 314
#     4  12  24  36  51  74 107 144 176 211 259 315
#     4  10  21  36  55  78 104 137 178 220 260 309
#
# _framework density 17.511868
#
# number of rings (size 3 to 8) (size 9 to 14) (size 15 to 20)
#    0.000    1.714    1.429    5.571    0.000    7.429 
#    0.000    1.429    0.000    0.857    0.000    0.000 
#    0.000    0.000    0.000    0.000    0.000    0.000 
#
# Total GULP energy -347290.483713 kJ/mol
# GULP energy per Si atom -12403.231561 kJ/mol
# Density = 1.747201 g / cm^3
# Si number density = 17.511868 Si / 1000 Ang^3
#
#
#
# Elastic Constant Matrix: (Units=GPa)
#
#
# Indices 1 2 3 4 5 6 
#
# 1 98.5552 61.8869 66.7120 0.0000 0.0000 0.0004
# 2 61.8869 117.3560 60.9971 0.0000 0.0000 0.0005
# 3 66.7120 60.9971 133.8301 0.0000 0.0000 0.0000
# 4 0.0000 0.0000 0.0000 34.8971 0.0000 0.0000
# 5 0.0000 0.0000 0.0000 0.0000 28.0936 0.0000
# 6 0.0004 0.0005 0.0000 0.0000 0.0000 27.6377
#
#
#
# Elastic Compliance Matrix: (Units=1/GPa)
#
#
# Indices 1 2 3 4 5 6 
#
# 1 0.018439 -0.006482 -0.006237 0.000000 0.000000 0.000000
# 2 -0.006482 0.013445 -0.002897 0.000000 0.000000 0.000000
# 3 -0.006237 -0.002897 0.011902 0.000000 0.000000 0.000000
# 4 0.000000 0.000000 0.000000 0.028656 0.000000 0.000000
# 5 0.000000 0.000000 0.000000 0.000000 0.035595 0.000000
# 6 0.000000 0.000000 0.000000 0.000000 0.000000 0.036183
#
#
# Mechanical properties :
#
#
# Convention : Reuss Voigt Hill
#
# Bulk Modulus (GPa) = 79.65776 80.99258 80.32517
# Shear Modulus (GPa) = 27.83431 28.80202 28.31816
#
# Velocity S-wave (km/s) = 3.99112 4.05991 4.02566
# Velocity P-wave (km/s) = 8.17468 8.26605 8.22049
#
# Compressibility (1/GPa) = 0.01255370
#
# Stress axis : x y z
#
# Youngs Moduli (GPa) = 54.23401 74.37805 84.02232
#
# Poissons Ratio (x) = 0.48209 0.52406
# Poissons Ratio (y) = 0.35153 0.24340
# Poissons Ratio (z) = 0.33826 0.21546
#
# Static dielectric constant tensor:
#      x y z
#    x 3.197810 0.000000 0.000000 
#    y 0.000000 3.350150 0.000000 
#    z 0.000000 0.000000 3.441790 
# 
# 
# High freq. dielectric constant tensor:
#      x y z
#    x 1.658790 0.000000 0.000000 
#    y 0.000000 1.689870 0.000000 
#    z 0.000000 0.000000 1.680090 
# 
# From -- ./inp_files/3986.got.cif
#   From: 2010.03.12/outbox.cif.g09.slc.cpg/sg69_2_cif.got.tgz:3986.got - 2010.04.10 23:52:46.
