data_PCOD8285229
_publ_section_title
;
Structure prediction by ZEFSAII (Michael W. Deem and Ramdas Pophale) SiO2 
 PCOD8285229
Probable space group: F M M M
;
_chemical_formula_sum "Si O2"
_cell_formula_units_Z 128
_cell_length_a 24.766130
_cell_length_b 22.599347
_cell_length_c 10.925788
_cell_angle_alpha 90.000000
_cell_angle_beta 90.000000
_cell_angle_gamma 90.000000
_cell_volume 6115.145688
_symmetry_space_group_name_H-M "F M M M"
_symmetry_group_IT_number 69
_symmetry_cell_setting 'orthorhombic'
loop_
_space_group_symop_operation_xyz
x,y,z
-x,-y,z
x,-y,-z
-x,y,-z
-x,-y,-z
x,y,-z
-x,y,z
x,-y,z
x,1/2+y,1/2+z
-x,1/2-y,1/2+z
x,1/2-y,1/2-z
-x,1/2+y,1/2-z
-x,1/2-y,1/2-z
x,1/2+y,1/2-z
-x,1/2+y,1/2+z
x,1/2-y,1/2+z
1/2+x,y,1/2+z
1/2-x,-y,1/2+z
1/2+x,-y,1/2-z
1/2-x,y,1/2-z
1/2-x,-y,1/2-z
1/2+x,y,1/2-z
1/2-x,y,1/2+z
1/2+x,-y,1/2+z
1/2+x,1/2+y,z
1/2-x,1/2-y,z
1/2+x,1/2-y,-z
1/2-x,1/2+y,-z
1/2-x,1/2-y,-z
1/2+x,1/2+y,-z
1/2-x,1/2+y,z
1/2+x,1/2-y,z
loop_
_atom_site_type_symbol
_atom_site_label
_atom_site_fract_x
_atom_site_fract_y
_atom_site_fract_z
Si Si1 0.558655 0.430149 0.500000
Si Si2 0.059618 0.358348 0.358660
Si Si3 0.879047 0.250000 0.750000
Si Si4 0.792181 0.170165 0.356871
Si Si5 0.364871 0.069258 0.214994
O O1 0.552991 0.500000 0.500000
O O2 0.500000 0.399648 0.500000
O O3 0.591179 0.409335 0.617014
O O4 0.050535 0.354629 0.500000
O O5 0.082300 0.295717 0.316410
O O6 0.104972 0.409648 0.337749
O O7 0.000000 0.371717 0.299349
O O8 0.841913 0.215679 0.650857
O O9 0.770379 0.171214 0.500000
O O10 0.750000 0.189205 0.250000
O O11 0.809995 0.103612 0.318565
O O12 0.351312 0.000000 0.216714
#
# Coordination Sequence:
#
# PCOD8285229 Si02
#       5
#    16  32  16  32  32
#     4   9  16  30  56  84 111 146 190 236 283 342
#     4  10  21  37  59  90 126 161 198 245 304 370
#     4  10  22  40  64  86 118 156 208 256 310 370
#     4  11  24  41  63  89 118 158 209 265 318 369
#     4  10  21  38  59  86 122 159 199 245 297 360
#
# _framework density 20.931636000000001
#
# number of rings (size 3 to 8) (size 9 to 14) (size 15 to 20)
#    0.000    1.875    1.250    2.250    0.000    8.500 
#    0.000    1.250    0.000    0.000    0.000    0.000 
#    0.000    0.000    0.000    0.000    0.000    0.000 
#
# Total GULP energy -396468.830128 kJ/mol
# GULP energy per Si atom -12389.650941 kJ/mol
# Density = 2.088399 g / cm^3
# Si number density = 20.931636 Si / 1000 Ang^3
#
#
#
# Elastic Constant Matrix: (Units=GPa)
#
#
# Indices 1 2 3 4 5 6 
#
# 1 64.9722 7.2265 32.0363 -0.0001 0.0000 0.0000
# 2 7.2265 93.4978 12.4662 0.0000 0.0000 0.0001
# 3 32.0363 12.4662 101.4812 -0.0011 0.0012 0.0009
# 4 -0.0001 0.0000 -0.0011 16.3166 0.0003 0.0005
# 5 0.0000 0.0000 0.0012 0.0003 31.9629 -0.0002
# 6 0.0000 0.0001 0.0009 0.0005 -0.0002 18.5783
#
#
#
# Elastic Compliance Matrix: (Units=1/GPa)
#
#
# Indices 1 2 3 4 5 6 
#
# 1 0.018268 -0.000654 -0.005687 0.000000 0.000000 0.000000
# 2 -0.000654 0.010897 -0.001132 0.000000 0.000000 0.000000
# 3 -0.005687 -0.001132 0.011788 0.000001 0.000000 -0.000001
# 4 0.000000 0.000000 0.000001 0.061287 -0.000001 -0.000002
# 5 0.000000 0.000000 0.000000 -0.000001 0.031286 0.000000
# 6 0.000000 0.000000 -0.000001 -0.000002 0.000000 0.053826
#
#
# Mechanical properties :
#
#
# Convention : Reuss Voigt Hill
#
# Bulk Modulus (GPa) = 38.44978 40.37880 39.41429
# Shear Modulus (GPa) = 23.70037 27.25305 25.47671
#
# Velocity S-wave (km/s) = 3.36858 3.61224 3.49254
# Velocity P-wave (km/s) = 5.79128 6.06056 5.92745
#
# Compressibility (1/GPa) = 0.02600795
#
# Stress axis : x y z
#
# Youngs Moduli (GPa) = 54.74093 91.76894 84.82966
#
# Poissons Ratio (x) = 0.05999 0.48239
# Poissons Ratio (y) = 0.03579 0.09605
# Poissons Ratio (z) = 0.31129 0.10390
#
# Static dielectric constant tensor:
#      x y z
#    x 4.219490 0.000000 0.000000 
#    y 0.000000 3.715400 0.000000 
#    z 0.000000 0.000000 3.783790 
# 
# 
# High freq. dielectric constant tensor:
#      x y z
#    x 1.821600 0.000000 0.000000 
#    y 0.000000 1.818270 0.000000 
#    z 0.000000 0.000000 1.815890 
# 
# From -- ./inp_files/10133.got.cif
#   From: 2010.03.12/outbox.cif.g09.slc.cpg/sg69_6_cif.got.tgz:10133.got - 2010.04.10 23:52:46.
