data_PCOD8285894
_publ_section_title
;
Structure prediction by ZEFSAII (Michael W. Deem and Ramdas Pophale) SiO2 
 PCOD8285894
Probable space group: F D D D
;
_chemical_formula_sum "Si O2"
_cell_formula_units_Z 144
_cell_length_a 20.360344
_cell_length_b 20.754778
_cell_length_c 15.782217
_cell_angle_alpha 90.000000
_cell_angle_beta 90.000000
_cell_angle_gamma 90.000000
_cell_volume 6669.161191
_symmetry_space_group_name_H-M "F D D D"
_symmetry_group_IT_number 70
_space_group.IT_coordinate_system_code '2'
_symmetry_cell_setting 'orthorhombic'
loop_
_space_group_symop_operation_xyz
x,y,z
1/4-x,1/4-y,z
x,1/4-y,1/4-z
1/4-x,y,1/4-z
-x,-y,-z
3/4+x,3/4+y,-z
-x,3/4+y,3/4+z
3/4+x,-y,3/4+z
x,1/2+y,1/2+z
1/4-x,3/4-y,1/2+z
x,3/4-y,3/4-z
1/4-x,1/2+y,3/4-z
-x,1/2-y,1/2-z
3/4+x,1/4+y,1/2-z
-x,1/4+y,1/4+z
3/4+x,1/2-y,1/4+z
1/2+x,y,1/2+z
3/4-x,1/4-y,1/2+z
1/2+x,1/4-y,3/4-z
3/4-x,y,3/4-z
1/2-x,-y,1/2-z
1/4+x,3/4+y,1/2-z
1/2-x,3/4+y,1/4+z
1/4+x,-y,1/4+z
1/2+x,1/2+y,z
3/4-x,3/4-y,z
1/2+x,3/4-y,1/4-z
3/4-x,1/2+y,1/4-z
1/2-x,1/2-y,-z
1/4+x,1/4+y,-z
1/2-x,1/4+y,3/4+z
1/4+x,1/2-y,3/4+z
loop_
_atom_site_type_symbol
_atom_site_label
_atom_site_fract_x
_atom_site_fract_y
_atom_site_fract_z
Si Si1 0.946670 0.694535 0.975615
Si Si2 0.480382 0.875000 0.375000
Si Si3 0.049663 0.796661 0.020959
Si Si4 0.301401 0.697881 0.966086
Si Si5 0.435225 0.501415 0.948417
O O1 0.954283 0.622145 0.011115
O O2 0.878578 0.730656 0.005762
O O3 0.942493 0.694108 0.873381
O O4 0.009952 0.731397 0.007844
O O5 0.526629 0.851765 0.454019
O O6 0.431021 0.818348 0.346546
O O7 0.038292 0.817426 0.117639
O O8 0.125943 0.777385 0.010623
O O9 0.250000 0.750000 0.000000
O O10 0.500000 0.500000 0.000000
#
# Coordination Sequence:
#
# PCOD8285894 Si02
#       5
#    32  16  32  32  32
#     4  10  22  38  58  87 117 156 203 249 309 367
#     4  10  20  37  66 100 126 161 204 256 332 399
#     4  10  23  41  63  92 124 161 210 260 314 377
#     4  11  24  43  62  84 124 170 213 263 312 375
#     4  10  19  35  61  90 127 158 193 255 317 386
#
# _framework density 21.591919000000001
#
# number of rings (size 3 to 8) (size 9 to 14) (size 15 to 20)
#    0.000    1.778    0.000    5.333    0.000   14.222 
#    0.000    4.444    0.000    0.000    0.000    0.000 
#    0.000    0.000    0.000    0.000    0.000    0.000 
#
# Total GULP energy -446010.906959 kJ/mol
# GULP energy per Si atom -12389.191860 kJ/mol
# Density = 2.154278 g / cm^3
# Si number density = 21.591919 Si / 1000 Ang^3
#
#
#
# Elastic Constant Matrix: (Units=GPa)
#
#
# Indices 1 2 3 4 5 6 
#
# 1 178.6409 95.0229 51.8210 0.0000 0.0000 0.0000
# 2 95.0229 165.8388 34.7084 0.0000 0.0000 0.0000
# 3 51.8210 34.7084 66.0068 0.0000 0.0000 0.0000
# 4 0.0000 0.0000 0.0000 8.6337 0.0000 0.0000
# 5 0.0000 0.0000 0.0000 0.0000 41.5770 0.0000
# 6 0.0000 0.0000 0.0000 0.0000 0.0000 30.6101
#
#
#
# Elastic Compliance Matrix: (Units=1/GPa)
#
#
# Indices 1 2 3 4 5 6 
#
# 1 0.009360 -0.004298 -0.005088 0.000000 0.000000 0.000000
# 2 -0.004298 0.008749 -0.001226 0.000000 0.000000 0.000000
# 3 -0.005088 -0.001226 0.019790 0.000000 0.000000 0.000000
# 4 0.000000 0.000000 0.000000 0.115825 0.000000 0.000000
# 5 0.000000 0.000000 0.000000 0.000000 0.024052 0.000000
# 6 0.000000 0.000000 0.000000 0.000000 0.000000 0.032669
#
#
# Mechanical properties :
#
#
# Convention : Reuss Voigt Hill
#
# Bulk Modulus (GPa) = 59.97567 85.95458 72.96513
# Shear Modulus (GPa) = 21.07667 31.42644 26.25156
#
# Velocity S-wave (km/s) = 3.12771 3.81920 3.49062
# Velocity P-wave (km/s) = 6.39380 7.70347 7.07899
#
# Compressibility (1/GPa) = 0.01667343
#
# Stress axis : x y z
#
# Youngs Moduli (GPa) = 106.83454 114.29294 50.53172
#
# Poissons Ratio (x) = 0.49127 0.25713
# Poissons Ratio (y) = 0.45921 0.06196
# Poissons Ratio (z) = 0.54362 0.14014
#
# Static dielectric constant tensor:
#      x y z
#    x 3.857140 0.000000 0.000000 
#    y 0.000000 4.451970 0.000000 
#    z 0.000000 0.000000 3.888450 
# 
# 
# High freq. dielectric constant tensor:
#      x y z
#    x 1.860320 0.000000 0.000000 
#    y 0.000000 1.854580 0.000000 
#    z 0.000000 0.000000 1.828920 
# 
# From -- ./inp_files/43601.got.cif
#   From: 2010.03.12/outbox.cif.g09.slc.cpg/sg70_22_cif.got.tgz:43601.got - 2010.04.16 13:46:32.
