data_PCOD8285619
_publ_section_title
;
Structure prediction by ZEFSAII (Michael W. Deem and Ramdas Pophale) SiO2 
 PCOD8285619
Probable space group: F M M M
;
_chemical_formula_sum "Si O2"
_cell_formula_units_Z 160
_cell_length_a 16.142903
_cell_length_b 24.138282
_cell_length_c 20.465523
_cell_angle_alpha 90.000000
_cell_angle_beta 90.000000
_cell_angle_gamma 90.000000
_cell_volume 7974.635496
_symmetry_space_group_name_H-M "F M M M"
_symmetry_group_IT_number 69
_symmetry_cell_setting 'orthorhombic'
loop_
_space_group_symop_operation_xyz
x,y,z
-x,-y,z
x,-y,-z
-x,y,-z
-x,-y,-z
x,y,-z
-x,y,z
x,-y,z
x,1/2+y,1/2+z
-x,1/2-y,1/2+z
x,1/2-y,1/2-z
-x,1/2+y,1/2-z
-x,1/2-y,1/2-z
x,1/2+y,1/2-z
-x,1/2+y,1/2+z
x,1/2-y,1/2+z
1/2+x,y,1/2+z
1/2-x,-y,1/2+z
1/2+x,-y,1/2-z
1/2-x,y,1/2-z
1/2-x,-y,1/2-z
1/2+x,y,1/2-z
1/2-x,y,1/2+z
1/2+x,-y,1/2+z
1/2+x,1/2+y,z
1/2-x,1/2-y,z
1/2+x,1/2-y,-z
1/2-x,1/2+y,-z
1/2-x,1/2-y,-z
1/2+x,1/2+y,-z
1/2-x,1/2+y,z
1/2+x,1/2-y,z
loop_
_atom_site_type_symbol
_atom_site_label
_atom_site_fract_x
_atom_site_fract_y
_atom_site_fract_z
Si Si1 0.352216 0.196921 0.000000
Si Si2 0.402537 0.686123 0.243220
Si Si3 0.142150 0.628319 0.876371
Si Si4 0.500000 0.563555 0.427916
Si Si5 0.401979 0.000000 0.576194
Si Si6 0.343087 0.181791 0.500000
Si Si7 0.165235 0.885479 0.876304
O O1 0.384902 0.169565 0.065951
O O2 0.387914 0.259052 0.000000
O O3 0.253787 0.193051 0.000000
O O4 0.500000 0.683763 0.230407
O O5 0.372018 0.750000 0.250000
O O6 0.376051 0.658021 0.309442
O O7 0.357930 0.650224 0.187258
O O8 0.236081 0.607957 0.880527
O O9 0.081618 0.576455 0.885269
O O10 0.500000 0.500000 0.441198
O O11 0.500000 0.592726 0.500000
O O12 0.371738 0.947141 0.618433
O O13 0.500000 0.000000 0.575070
O O14 0.368915 0.000000 0.500000
O O15 0.371893 0.148066 0.437014
#
# Coordination Sequence:
#
# PCOD8285619 Si02
#       7
#    16  32  32  16  16  16  32
#     4   9  18  33  62  91 127 158 200 271 323 381
#     4  11  24  43  66  96 136 174 213 267 329 391
#     4  11  22  41  64  95 129 164 220 265 324 389
#     4  11  24  42  65  92 130 169 210 269 333 387
#     4  11  24  44  69  93 135 172 215 274 324 382
#     4   9  18  35  58  95 123 156 212 266 318 378
#     4  11  23  41  66  97 125 173 221 266 323 389
#
# _framework density 20.063611999999999
#
# number of rings (size 3 to 8) (size 9 to 14) (size 15 to 20)
#    0.000    1.400    3.000    2.400    1.400    3.200 
#    1.800    1.000    2.200    0.000    0.000    0.000 
#    0.000    0.000    0.000    0.000    0.000    0.000 
#
# Total GULP energy -495865.585346 kJ/mol
# GULP energy per Si atom -12396.639634 kJ/mol
# Density = 2.001795 g / cm^3
# Si number density = 20.063612 Si / 1000 Ang^3
#
#
#
# Elastic Constant Matrix: (Units=GPa)
#
#
# Indices 1 2 3 4 5 6 
#
# 1 95.7621 44.1978 34.9661 0.0000 0.0000 0.0000
# 2 44.1978 150.9365 71.4139 0.0000 0.0000 0.0000
# 3 34.9661 71.4139 167.1140 0.0000 0.0000 0.0000
# 4 0.0000 0.0000 0.0000 47.7391 0.0000 0.0000
# 5 0.0000 0.0000 0.0000 0.0000 40.4101 0.0000
# 6 0.0000 0.0000 0.0000 0.0000 0.0000 17.6858
#
#
#
# Elastic Compliance Matrix: (Units=1/GPa)
#
#
# Indices 1 2 3 4 5 6 
#
# 1 0.012294 -0.002987 -0.001296 0.000000 0.000000 0.000000
# 2 -0.002987 0.009030 -0.003234 0.000000 0.000000 0.000000
# 3 -0.001296 -0.003234 0.007637 0.000000 0.000000 0.000000
# 4 0.000000 0.000000 0.000000 0.020947 0.000000 0.000000
# 5 0.000000 0.000000 0.000000 0.000000 0.024746 0.000000
# 6 0.000000 0.000000 0.000000 0.000000 0.000000 0.056543
#
#
# Mechanical properties :
#
#
# Convention : Reuss Voigt Hill
#
# Bulk Modulus (GPa) = 71.79860 79.44092 75.61976
# Shear Modulus (GPa) = 33.14031 38.71597 35.92814
#
# Velocity S-wave (km/s) = 4.06860 4.39756 4.23627
# Velocity P-wave (km/s) = 7.61147 8.09105 7.85492
#
# Compressibility (1/GPa) = 0.01392785
#
# Stress axis : x y z
#
# Youngs Moduli (GPa) = 81.33843 110.74178 130.94036
#
# Poissons Ratio (x) = 0.33077 0.16970
# Poissons Ratio (y) = 0.24295 0.42345
# Poissons Ratio (z) = 0.10541 0.35813
#
# Static dielectric constant tensor:
#      x y z
#    x 3.646930 0.000000 0.000000 
#    y 0.000000 3.740500 0.000000 
#    z 0.000000 0.000000 4.213340 
# 
# 
# High freq. dielectric constant tensor:
#      x y z
#    x 1.782020 0.000000 0.000000 
#    y 0.000000 1.787890 0.000000 
#    z 0.000000 0.000000 1.792580 
# 
# From -- ./inp_files/24720.got.cif
#   From: 2010.03.12/outbox.cif.g09.slc.cpg/sg69_13_cif.got.tgz:24720.got - 2010.04.10 23:52:46.
