data_PCOD8285202
_publ_section_title
;
Structure prediction by ZEFSAII (Michael W. Deem and Ramdas Pophale) SiO2 
 PCOD8285202
Probable space group: F M M M
;
_chemical_formula_sum "Si O2"
_cell_formula_units_Z 200
_cell_length_a 32.318639
_cell_length_b 17.895129
_cell_length_c 18.269106
_cell_angle_alpha 90.000000
_cell_angle_beta 90.000000
_cell_angle_gamma 90.000000
_cell_volume 10565.868288
_symmetry_space_group_name_H-M "F M M M"
_symmetry_group_IT_number 69
_symmetry_cell_setting 'orthorhombic'
loop_
_space_group_symop_operation_xyz
x,y,z
-x,-y,z
x,-y,-z
-x,y,-z
-x,-y,-z
x,y,-z
-x,y,z
x,-y,z
x,1/2+y,1/2+z
-x,1/2-y,1/2+z
x,1/2-y,1/2-z
-x,1/2+y,1/2-z
-x,1/2-y,1/2-z
x,1/2+y,1/2-z
-x,1/2+y,1/2+z
x,1/2-y,1/2+z
1/2+x,y,1/2+z
1/2-x,-y,1/2+z
1/2+x,-y,1/2-z
1/2-x,y,1/2-z
1/2-x,-y,1/2-z
1/2+x,y,1/2-z
1/2-x,y,1/2+z
1/2+x,-y,1/2+z
1/2+x,1/2+y,z
1/2-x,1/2-y,z
1/2+x,1/2-y,-z
1/2-x,1/2+y,-z
1/2-x,1/2-y,-z
1/2+x,1/2+y,-z
1/2-x,1/2+y,z
1/2+x,1/2-y,z
loop_
_atom_site_type_symbol
_atom_site_label
_atom_site_fract_x
_atom_site_fract_y
_atom_site_fract_z
Si Si1 0.750000 0.250000 0.250000
Si Si2 0.178377 0.418226 0.673166
Si Si3 0.083414 0.087101 0.814601
Si Si4 0.099790 0.310747 0.811269
Si Si5 0.756683 0.661851 0.420338
Si Si6 0.451854 0.790621 0.415565
Si Si7 0.811133 0.639443 0.173953
O O1 0.780166 0.294786 0.197454
O O2 0.189798 0.500000 0.642470
O O3 0.130428 0.400336 0.659167
O O4 0.205549 0.355034 0.635105
O O5 0.186235 0.420228 0.760710
O O6 0.077620 0.120499 0.732079
O O7 0.055704 0.131066 0.873708
O O8 0.070610 0.000000 0.813597
O O9 0.110914 0.250000 0.750000
O O10 0.070877 0.278040 0.874845
O O11 0.142959 0.334525 0.848562
O O12 0.769447 0.631474 0.500000
O O13 0.750000 0.750000 0.424928
O O14 0.714793 0.614312 0.397710
O O15 0.436777 0.796588 0.500000
O O16 0.500000 0.771960 0.412426
#
# Coordination Sequence:
#
# PCOD8285202 Si02
#       7
#     8  32  32  32  32  32  32
#     4  12  16  28  52  76 102 132 168 224 260 300
#     4  10  21  37  55  75 104 143 183 226 278 331
#     4   9  20  37  58  86 113 143 187 235 284 335
#     4   9  19  33  56  82 108 143 187 233 280 330
#     4  11  23  33  46  73 107 141 181 228 272 316
#     4  10  22  38  57  84 118 152 184 225 283 347
#     4  11  18  31  53  75 101 136 183 227 270 313
#
# _framework density 18.928875999999999
#
# number of rings (size 3 to 8) (size 9 to 14) (size 15 to 20)
#    0.000    1.920    3.200    0.000    4.480    6.400 
#    0.000    2.400    0.000    0.480    0.000    5.600 
#    0.000    0.000    0.000    0.000    0.000    0.000 
#
# Total GULP energy -619540.908437 kJ/mol
# GULP energy per Si atom -12390.818169 kJ/mol
# Density = 1.888579 g / cm^3
# Si number density = 18.928876 Si / 1000 Ang^3
#
#
#
# Elastic Constant Matrix: (Units=GPa)
#
#
# Indices 1 2 3 4 5 6 
#
# 1 81.6700 30.6724 45.4493 0.0000 0.0000 0.0000
# 2 30.6724 85.2322 38.9378 0.0000 0.0000 0.0000
# 3 45.4493 38.9378 106.9578 0.0000 0.0000 0.0000
# 4 0.0000 0.0000 0.0000 15.6213 0.0000 0.0000
# 5 0.0000 0.0000 0.0000 0.0000 18.4095 0.0000
# 6 0.0000 0.0000 0.0000 0.0000 0.0000 18.8342
#
#
#
# Elastic Compliance Matrix: (Units=1/GPa)
#
#
# Indices 1 2 3 4 5 6 
#
# 1 0.016793 -0.003339 -0.005920 0.000000 0.000000 0.000000
# 2 -0.003339 0.014737 -0.003946 0.000000 0.000000 0.000000
# 3 -0.005920 -0.003946 0.013302 0.000000 0.000000 0.000000
# 4 0.000000 0.000000 0.000000 0.064015 0.000000 0.000000
# 5 0.000000 0.000000 0.000000 0.000000 0.054320 0.000000
# 6 0.000000 0.000000 0.000000 0.000000 0.000000 0.053095
#
#
# Mechanical properties :
#
#
# Convention : Reuss Voigt Hill
#
# Bulk Modulus (GPa) = 54.28520 55.99768 55.14144
# Shear Modulus (GPa) = 20.09546 21.15971 20.62759
#
# Velocity S-wave (km/s) = 3.26180 3.34706 3.30471
# Velocity P-wave (km/s) = 6.55184 6.67716 6.61480
#
# Compressibility (1/GPa) = 0.01842123
#
# Stress axis : x y z
#
# Youngs Moduli (GPa) = 59.54888 67.85668 75.17752
#
# Poissons Ratio (x) = 0.22654 0.44508
# Poissons Ratio (y) = 0.19881 0.29667
# Poissons Ratio (z) = 0.35255 0.26778
#
# Static dielectric constant tensor:
#      x y z
#    x 3.441860 0.000000 0.000000 
#    y 0.000000 3.443430 0.000000 
#    z 0.000000 0.000000 5.207990 
# 
# 
# High freq. dielectric constant tensor:
#      x y z
#    x 1.731270 0.000000 0.000000 
#    y 0.000000 1.720060 0.000000 
#    z 0.000000 0.000000 1.727310 
# 
# From -- ./inp_files/33984.got.cif
#   From: 2010.03.12/outbox.cif.g09.slc.cpg/sg69_17_cif.got.tgz:33984.got - 2010.04.10 23:52:46.
