data_PCOD8285251
_publ_section_title
;
Structure prediction by ZEFSAII (Michael W. Deem and Ramdas Pophale) SiO2 
 PCOD8285251
Probable space group: F M M M
;
_chemical_formula_sum "Si O2"
_cell_formula_units_Z 160
_cell_length_a 8.609511
_cell_length_b 29.186591
_cell_length_c 32.903351
_cell_angle_alpha 90.000000
_cell_angle_beta 90.000000
_cell_angle_gamma 90.000000
_cell_volume 8268.028936
_symmetry_space_group_name_H-M "F M M M"
_symmetry_group_IT_number 69
_symmetry_cell_setting 'orthorhombic'
loop_
_space_group_symop_operation_xyz
x,y,z
-x,-y,z
x,-y,-z
-x,y,-z
-x,-y,-z
x,y,-z
-x,y,z
x,-y,z
x,1/2+y,1/2+z
-x,1/2-y,1/2+z
x,1/2-y,1/2-z
-x,1/2+y,1/2-z
-x,1/2-y,1/2-z
x,1/2+y,1/2-z
-x,1/2+y,1/2+z
x,1/2-y,1/2+z
1/2+x,y,1/2+z
1/2-x,-y,1/2+z
1/2+x,-y,1/2-z
1/2-x,y,1/2-z
1/2-x,-y,1/2-z
1/2+x,y,1/2-z
1/2-x,y,1/2+z
1/2+x,-y,1/2+z
1/2+x,1/2+y,z
1/2-x,1/2-y,z
1/2+x,1/2-y,-z
1/2-x,1/2+y,-z
1/2-x,1/2-y,-z
1/2+x,1/2+y,-z
1/2-x,1/2+y,z
1/2+x,1/2-y,z
loop_
_atom_site_type_symbol
_atom_site_label
_atom_site_fract_x
_atom_site_fract_y
_atom_site_fract_z
Si Si1 0.818372 0.201459 0.411664
Si Si2 0.816834 0.164542 0.500000
Si Si3 0.825215 0.950253 0.418018
Si Si4 0.184557 0.947968 0.793725
Si Si5 0.178465 0.380784 0.363471
Si Si6 0.817572 0.933568 0.000000
O O1 0.750000 0.250000 0.398796
O O2 0.769461 0.190943 0.458476
O O3 0.764866 0.165331 0.377142
O O4 0.000000 0.204307 0.408638
O O5 0.709836 0.120453 0.500000
O O6 0.000000 0.152458 0.500000
O O7 0.697568 0.916772 0.399591
O O8 0.770290 0.957601 0.463398
O O9 0.000000 0.928975 0.415680
O O10 0.823777 0.000000 0.396349
O O11 0.250000 0.934605 0.750000
O O12 0.248124 0.908217 0.824246
O O13 0.000000 0.946358 0.793203
O O14 0.239025 0.000000 0.805730
O O15 0.000000 0.368248 0.356679
O O16 0.000000 0.944692 0.000000
#
# Coordination Sequence:
#
# PCOD8285251 Si02
#       6
#    32  16  32  32  32  16
#     4  11  23  39  60  84 113 150 192 241 293 344
#     4  10  21  38  58  79 110 147 190 240 290 341
#     4  11  23  37  53  75 108 150 192 233 280 336
#     4   9  19  36  59  88 121 154 188 228 274 332
#     4  11  22  37  58  85 116 148 187 235 285 338
#     4  12  23  34  53  76 105 146 190 236 284 335
#
# _framework density 19.351649999999999
#
# number of rings (size 3 to 8) (size 9 to 14) (size 15 to 20)
#    0.000    1.400    2.000    3.900    0.000    6.000 
#    0.000    2.000    0.000    0.600    0.000    4.200 
#    0.000    0.000    0.000    0.000    0.000    0.000 
#
# Total GULP energy -495686.740939 kJ/mol
# GULP energy per Si atom -12392.168523 kJ/mol
# Density = 1.930760 g / cm^3
# Si number density = 19.351650 Si / 1000 Ang^3
#
#
#
# Elastic Constant Matrix: (Units=GPa)
#
#
# Indices 1 2 3 4 5 6 
#
# 1 51.1433 32.0986 19.0076 0.0000 0.0000 0.0000
# 2 32.0986 149.3138 63.8445 0.0000 0.0000 0.0000
# 3 19.0076 63.8445 114.3615 0.0000 0.0000 0.0000
# 4 0.0000 0.0000 0.0000 72.2121 0.0000 0.0000
# 5 0.0000 0.0000 0.0000 0.0000 28.2679 0.0000
# 6 0.0000 0.0000 0.0000 0.0000 0.0000 25.7554
#
#
#
# Elastic Compliance Matrix: (Units=1/GPa)
#
#
# Indices 1 2 3 4 5 6 
#
# 1 0.022767 -0.004304 -0.001381 0.000000 0.000000 0.000000
# 2 -0.004304 0.009611 -0.004650 0.000000 0.000000 0.000000
# 3 -0.001381 -0.004650 0.011570 0.000000 0.000000 0.000000
# 4 0.000000 0.000000 0.000000 0.013848 0.000000 0.000000
# 5 0.000000 0.000000 0.000000 0.000000 0.035376 0.000000
# 6 0.000000 0.000000 0.000000 0.000000 0.000000 0.038827
#
#
# Mechanical properties :
#
#
# Convention : Reuss Voigt Hill
#
# Bulk Modulus (GPa) = 42.95996 60.52444 51.74220
# Shear Modulus (GPa) = 31.16653 38.57161 34.86907
#
# Velocity S-wave (km/s) = 4.01750 4.46936 4.24944
# Velocity P-wave (km/s) = 6.61576 7.61430 7.13253
#
# Compressibility (1/GPa) = 0.02327749
#
# Stress axis : x y z
#
# Youngs Moduli (GPa) = 43.92240 104.04943 86.43170
#
# Poissons Ratio (x) = 0.44780 0.11940
# Poissons Ratio (y) = 0.18903 0.40192
# Poissons Ratio (z) = 0.06068 0.48384
#
# Static dielectric constant tensor:
#      x y z
#    x 3.435330 0.000000 0.000000 
#    y 0.000000 3.416490 0.000000 
#    z 0.000000 0.000000 3.725430 
# 
# 
# High freq. dielectric constant tensor:
#      x y z
#    x 1.753190 0.000000 0.000000 
#    y 0.000000 1.752580 0.000000 
#    z 0.000000 0.000000 1.737130 
# 
# From -- ./inp_files/5750.got.cif
#   From: 2010.03.12/outbox.cif.g09.slc.cpg/sg69_3_cif.got.tgz:5750.got - 2010.04.10 23:52:46.
