data_PCOD8285746
_publ_section_title
;
Structure prediction by ZEFSAII (Michael W. Deem and Ramdas Pophale) SiO2 
 PCOD8285746
Probable space group: F D D D
;
_chemical_formula_sum "Si O2"
_cell_formula_units_Z 224
_cell_length_a 21.659570
_cell_length_b 24.983021
_cell_length_c 23.249448
_cell_angle_alpha 90.000000
_cell_angle_beta 90.000000
_cell_angle_gamma 90.000000
_cell_volume 12580.775994
_symmetry_space_group_name_H-M "F D D D"
_symmetry_group_IT_number 70
_space_group.IT_coordinate_system_code '2'
_symmetry_cell_setting 'orthorhombic'
loop_
_space_group_symop_operation_xyz
x,y,z
1/4-x,1/4-y,z
x,1/4-y,1/4-z
1/4-x,y,1/4-z
-x,-y,-z
3/4+x,3/4+y,-z
-x,3/4+y,3/4+z
3/4+x,-y,3/4+z
x,1/2+y,1/2+z
1/4-x,3/4-y,1/2+z
x,3/4-y,3/4-z
1/4-x,1/2+y,3/4-z
-x,1/2-y,1/2-z
3/4+x,1/4+y,1/2-z
-x,1/4+y,1/4+z
3/4+x,1/2-y,1/4+z
1/2+x,y,1/2+z
3/4-x,1/4-y,1/2+z
1/2+x,1/4-y,3/4-z
3/4-x,y,3/4-z
1/2-x,-y,1/2-z
1/4+x,3/4+y,1/2-z
1/2-x,3/4+y,1/4+z
1/4+x,-y,1/4+z
1/2+x,1/2+y,z
3/4-x,3/4-y,z
1/2+x,3/4-y,1/4-z
3/4-x,1/2+y,1/4-z
1/2-x,1/2-y,-z
1/4+x,1/4+y,-z
1/2-x,1/4+y,3/4+z
1/4+x,1/2-y,3/4+z
loop_
_atom_site_type_symbol
_atom_site_label
_atom_site_fract_x
_atom_site_fract_y
_atom_site_fract_z
Si Si1 0.566461 0.745665 0.590189
Si Si2 0.019696 0.300280 0.817713
Si Si3 0.661476 0.364041 0.196843
Si Si4 0.971741 0.643353 0.907764
Si Si5 0.807090 0.813368 0.535473
Si Si6 0.151131 0.338332 0.823540
Si Si7 0.435554 0.971942 0.707526
O O1 0.625000 0.721663 0.625000
O O2 0.506446 0.723150 0.622755
O O3 0.574591 0.809353 0.587807
O O4 0.559408 0.727015 0.525452
O O5 0.049020 0.250761 0.783174
O O6 0.076545 0.340817 0.827795
O O7 0.967752 0.330637 0.778385
O O8 0.705703 0.403861 0.160013
O O9 0.590281 0.380679 0.192857
O O10 0.677765 0.362754 0.263963
O O11 0.018099 0.593210 0.915654
O O12 0.002148 0.697204 0.932044
O O13 0.879758 0.821401 0.549144
O O14 0.178315 0.375000 0.875000
O O15 0.174736 0.277147 0.827137
#
# Coordination Sequence:
#
# PCOD8285746 Si02
#       7
#    32  32  32  32  32  32  32
#     4  11  17  32  50  79 114 155 182 203 256 334
#     4  10  18  28  53  79 110 154 181 204 261 339
#     4  10  20  34  58  76 103 151 193 218 267 338
#     4  11  19  34  52  76 107 146 194 224 259 319
#     4  10  17  31  48  76 116 144 177 217 262 314
#     4  10  22  39  54  79 110 143 184 236 288 330
#     4  10  23  32  52  81 113 143 186 231 270 322
#
# _framework density 17.804943000000002
#
# number of rings (size 3 to 8) (size 9 to 14) (size 15 to 20)
#    0.000    1.714    5.714    0.429    2.000    0.000 
#    0.000    0.714    0.000    0.000    0.000    2.000 
#    0.000    0.000    0.000    0.000    0.000    0.000 
#
# Total GULP energy -693806.457496 kJ/mol
# GULP energy per Si atom -12389.401027 kJ/mol
# Density = 1.776442 g / cm^3
# Si number density = 17.804943 Si / 1000 Ang^3
#
#
#
# Elastic Constant Matrix: (Units=GPa)
#
#
# Indices 1 2 3 4 5 6 
#
# 1 73.0957 23.0385 40.2235 0.0000 0.0000 0.0000
# 2 23.0385 53.2339 37.2590 0.0000 0.0000 0.0000
# 3 40.2235 37.2590 115.1078 0.0000 0.0000 0.0000
# 4 0.0000 0.0000 0.0000 25.3896 0.0000 0.0000
# 5 0.0000 0.0000 0.0000 0.0000 29.9311 0.0000
# 6 0.0000 0.0000 0.0000 0.0000 0.0000 24.5885
#
#
#
# Elastic Compliance Matrix: (Units=1/GPa)
#
#
# Indices 1 2 3 4 5 6 
#
# 1 0.017667 -0.004299 -0.004782 0.000000 0.000000 0.000000
# 2 -0.004299 0.025333 -0.006698 0.000000 0.000000 0.000000
# 3 -0.004782 -0.006698 0.012527 0.000000 0.000000 0.000000
# 4 0.000000 0.000000 0.000000 0.039386 0.000000 0.000000
# 5 0.000000 0.000000 0.000000 0.000000 0.033410 0.000000
# 6 0.000000 0.000000 0.000000 0.000000 0.000000 0.040669
#
#
# Mechanical properties :
#
#
# Convention : Reuss Voigt Hill
#
# Bulk Modulus (GPa) = 41.71999 49.16436 45.44218
# Shear Modulus (GPa) = 23.97615 25.37627 24.67621
#
# Velocity S-wave (km/s) = 3.67359 3.77933 3.72683
# Velocity P-wave (km/s) = 6.44020 6.83499 6.64053
#
# Compressibility (1/GPa) = 0.02396933
#
# Stress axis : x y z
#
# Youngs Moduli (GPa) = 56.60211 39.47350 79.82995
#
# Poissons Ratio (x) = 0.16969 0.38176
# Poissons Ratio (y) = 0.24333 0.53469
# Poissons Ratio (z) = 0.27068 0.26439
#
# Static dielectric constant tensor:
#      x y z
#    x 3.336380 0.000000 0.000000 
#    y 0.000000 3.081050 0.000000 
#    z 0.000000 0.000000 3.264420 
# 
# 
# High freq. dielectric constant tensor:
#      x y z
#    x 1.671860 0.000000 0.000000 
#    y 0.000000 1.663310 0.000000 
#    z 0.000000 0.000000 1.683640 
# 
# From -- ./inp_files/53784.got.cif
#   From: 2010.03.12/outbox.cif.g09.slc.cpg/sg70_27_cif.got.tgz:53784.got - 2010.04.16 13:46:32.
