data_PCOD8285119
_publ_section_title
;
Structure prediction by ZEFSAII (Michael W. Deem and Ramdas Pophale) SiO2 
 PCOD8285119
Probable space group: F M M M
;
_chemical_formula_sum "Si O2"
_cell_formula_units_Z 176
_cell_length_a 20.563352
_cell_length_b 33.620754
_cell_length_c 14.407039
_cell_angle_alpha 90.000000
_cell_angle_beta 90.000000
_cell_angle_gamma 90.000000
_cell_volume 9960.384196
_symmetry_space_group_name_H-M "F M M M"
_symmetry_group_IT_number 69
_symmetry_cell_setting 'orthorhombic'
loop_
_space_group_symop_operation_xyz
x,y,z
-x,-y,z
x,-y,-z
-x,y,-z
-x,-y,-z
x,y,-z
-x,y,z
x,-y,z
x,1/2+y,1/2+z
-x,1/2-y,1/2+z
x,1/2-y,1/2-z
-x,1/2+y,1/2-z
-x,1/2-y,1/2-z
x,1/2+y,1/2-z
-x,1/2+y,1/2+z
x,1/2-y,1/2+z
1/2+x,y,1/2+z
1/2-x,-y,1/2+z
1/2+x,-y,1/2-z
1/2-x,y,1/2-z
1/2-x,-y,1/2-z
1/2+x,y,1/2-z
1/2-x,y,1/2+z
1/2+x,-y,1/2+z
1/2+x,1/2+y,z
1/2-x,1/2-y,z
1/2+x,1/2-y,-z
1/2-x,1/2+y,-z
1/2-x,1/2-y,-z
1/2+x,1/2+y,-z
1/2-x,1/2+y,z
1/2+x,1/2-y,z
loop_
_atom_site_type_symbol
_atom_site_label
_atom_site_fract_x
_atom_site_fract_y
_atom_site_fract_z
Si Si1 0.077008 0.187198 0.279060
Si Si2 0.576131 0.236301 0.396888
Si Si3 0.155870 0.069823 0.103461
Si Si4 0.823949 0.880451 0.265973
Si Si5 0.571318 0.000000 0.611034
Si Si6 0.698096 0.045097 0.105061
O O1 0.098656 0.202868 0.176918
O O2 0.092163 0.220336 0.356228
O O3 0.125745 0.151573 0.307058
O O4 0.000000 0.175216 0.281100
O O5 0.608338 0.231007 0.500000
O O6 0.500000 0.232081 0.407263
O O7 0.151689 0.109664 0.162914
O O8 0.224495 0.047683 0.107574
O O9 0.104938 0.039506 0.148434
O O10 0.137067 0.082755 0.000000
O O11 0.750000 0.864654 0.250000
O O12 0.829399 0.920470 0.328200
O O13 0.500000 0.000000 0.652443
O O14 0.574896 0.000000 0.500000
O O15 0.678394 0.000000 0.136947
O O16 0.672902 0.052684 0.000000
#
# Coordination Sequence:
#
# PCOD8285119 Si02
#       6
#    32  32  32  32  16  32
#     4   9  18  33  51  75 102 124 158 201 238 286
#     4   8  15  31  56  77  94 126 165 195 230 287
#     4   9  17  29  44  64  91 124 161 200 240 285
#     4  10  21  31  48  72 101 131 161 200 245 294
#     4   9  16  26  41  62  89 119 155 200 244 284
#     4   9  17  31  50  67  87 123 172 213 238 275
#
# _framework density 17.670000999999999
#
# number of rings (size 3 to 8) (size 9 to 14) (size 15 to 20)
#    0.000    3.000    0.909    1.091    1.273    3.273 
#    0.000    1.818    0.000    1.091    0.000    1.273 
#    0.000    0.000    0.000    0.000    0.000    0.000 
#
# Total GULP energy -545078.849690 kJ/mol
# GULP energy per Si atom -12388.155675 kJ/mol
# Density = 1.762978 g / cm^3
# Si number density = 17.670001 Si / 1000 Ang^3
#
#
#
# Elastic Constant Matrix: (Units=GPa)
#
#
# Indices 1 2 3 4 5 6 
#
# 1 64.9376 41.9344 15.4010 0.0000 0.0000 0.0000
# 2 41.9344 86.6830 25.1375 0.0000 0.0000 0.0000
# 3 15.4010 25.1375 79.3793 0.0000 0.0000 0.0000
# 4 0.0000 0.0000 0.0000 13.0411 0.0000 0.0000
# 5 0.0000 0.0000 0.0000 0.0000 13.6391 0.0000
# 6 0.0000 0.0000 0.0000 0.0000 0.0000 32.6374
#
#
#
# Elastic Compliance Matrix: (Units=1/GPa)
#
#
# Indices 1 2 3 4 5 6 
#
# 1 0.022469 -0.010577 -0.001010 0.000000 0.000000 0.000000
# 2 -0.010577 0.017682 -0.003547 0.000000 0.000000 0.000000
# 3 -0.001010 -0.003547 0.013917 0.000000 0.000000 0.000000
# 4 0.000000 0.000000 0.000000 0.076680 0.000000 0.000000
# 5 0.000000 0.000000 0.000000 0.000000 0.073319 0.000000
# 6 0.000000 0.000000 0.000000 0.000000 0.000000 0.030640
#
#
# Mechanical properties :
#
#
# Convention : Reuss Voigt Hill
#
# Bulk Modulus (GPa) = 42.01755 43.99397 43.00576
# Shear Modulus (GPa) = 18.32116 21.76531 20.04324
#
# Velocity S-wave (km/s) = 3.22351 3.51346 3.37160
# Velocity P-wave (km/s) = 6.13884 6.43512 6.28873
#
# Compressibility (1/GPa) = 0.02379958
#
# Stress axis : x y z
#
# Youngs Moduli (GPa) = 44.50547 56.55545 71.85445
#
# Poissons Ratio (x) = 0.59818 0.07257
# Poissons Ratio (y) = 0.47073 0.25489
# Poissons Ratio (z) = 0.04495 0.20062
#
# Static dielectric constant tensor:
#      x y z
#    x 2.985810 0.000000 0.000000 
#    y 0.000000 3.170060 0.000000 
#    z 0.000000 0.000000 3.744240 
# 
# 
# High freq. dielectric constant tensor:
#      x y z
#    x 1.645750 0.000000 0.000000 
#    y 0.000000 1.672720 0.000000 
#    z 0.000000 0.000000 1.686650 
# 
# From -- ./inp_files/18258.got.cif
#   From: 2010.03.12/outbox.cif.g09.slc.cpg/sg69_10_cif.got.tgz:18258.got - 2010.04.10 23:52:46.
