data_PCOD8285142
_publ_section_title
;
Structure prediction by ZEFSAII (Michael W. Deem and Ramdas Pophale) SiO2 
 PCOD8285142
Probable space group: F M M M
;
_chemical_formula_sum "Si O2"
_cell_formula_units_Z 208
_cell_length_a 19.911106
_cell_length_b 29.224518
_cell_length_c 19.591004
_cell_angle_alpha 90.000000
_cell_angle_beta 90.000000
_cell_angle_gamma 90.000000
_cell_volume 11399.857819
_symmetry_space_group_name_H-M "F M M M"
_symmetry_group_IT_number 69
_symmetry_cell_setting 'orthorhombic'
loop_
_space_group_symop_operation_xyz
x,y,z
-x,-y,z
x,-y,-z
-x,y,-z
-x,-y,-z
x,y,-z
-x,y,z
x,-y,z
x,1/2+y,1/2+z
-x,1/2-y,1/2+z
x,1/2-y,1/2-z
-x,1/2+y,1/2-z
-x,1/2-y,1/2-z
x,1/2+y,1/2-z
-x,1/2+y,1/2+z
x,1/2-y,1/2+z
1/2+x,y,1/2+z
1/2-x,-y,1/2+z
1/2+x,-y,1/2-z
1/2-x,y,1/2-z
1/2-x,-y,1/2-z
1/2+x,y,1/2-z
1/2-x,y,1/2+z
1/2+x,-y,1/2+z
1/2+x,1/2+y,z
1/2-x,1/2-y,z
1/2+x,1/2-y,-z
1/2-x,1/2+y,-z
1/2-x,1/2-y,-z
1/2+x,1/2+y,-z
1/2-x,1/2+y,z
1/2+x,1/2-y,z
loop_
_atom_site_type_symbol
_atom_site_label
_atom_site_fract_x
_atom_site_fract_y
_atom_site_fract_z
Si Si1 0.425935 0.445477 0.500000
Si Si2 0.424423 0.704414 0.078442
Si Si3 0.182251 0.051313 0.922828
Si Si4 0.168659 0.050512 0.616561
Si Si5 0.673078 0.639338 0.683016
Si Si6 0.077437 0.188733 0.577419
Si Si7 0.326109 0.358836 0.161470
O O1 0.426137 0.500000 0.500000
O O2 0.500000 0.424010 0.500000
O O3 0.388513 0.428602 0.567507
O O4 0.500000 0.693064 0.104708
O O5 0.409306 0.757730 0.087248
O O6 0.368432 0.677446 0.119562
O O7 0.418302 0.689858 0.000000
O O8 0.262590 0.050066 0.925551
O O9 0.158332 0.090259 0.869051
O O10 0.156210 0.000000 0.901431
O O11 0.157221 0.062933 0.000000
O O12 0.171941 0.084069 0.680608
O O13 0.150488 0.000000 0.643800
O O14 0.621433 0.662486 0.632278
O O15 0.651723 0.648457 0.760402
O O16 0.747517 0.654690 0.659418
O O17 0.096950 0.173912 0.500000
O O18 0.000000 0.177094 0.591233
#
# Coordination Sequence:
#
# PCOD8285142 Si02
#       7
#    16  32  32  32  32  32  32
#     4   9  16  26  42  66  94 127 171 215 251 292
#     4   9  19  38  61  80  99 129 173 221 268 320
#     4   9  16  29  52  77 101 132 175 222 262 303
#     4   9  17  30  46  67 100 140 177 212 251 297
#     4  10  22  34  49  77 112 144 176 213 257 309
#     4   9  20  38  58  80 104 133 172 217 264 314
#     4  10  21  35  51  78 110 142 175 212 261 315
#
# _framework density 18.245840999999999
#
# number of rings (size 3 to 8) (size 9 to 14) (size 15 to 20)
#    0.000    2.692    0.769    1.385    1.077    4.308 
#    0.000    7.692    0.000    0.462    0.000    4.308 
#    0.000    0.000    0.000    0.000    0.000    0.000 
#
# Total GULP energy -644399.447417 kJ/mol
# GULP energy per Si atom -12392.297066 kJ/mol
# Density = 1.820431 g / cm^3
# Si number density = 18.245841 Si / 1000 Ang^3
#
#
#
# Elastic Constant Matrix: (Units=GPa)
#
#
# Indices 1 2 3 4 5 6 
#
# 1 75.8615 47.8685 57.0814 0.0000 0.0000 0.0000
# 2 47.8685 77.2227 67.8375 0.0000 0.0000 0.0000
# 3 57.0814 67.8375 114.8999 0.0000 0.0000 0.0000
# 4 0.0000 0.0000 0.0000 19.7225 0.0000 0.0000
# 5 0.0000 0.0000 0.0000 0.0000 26.5660 0.0000
# 6 0.0000 0.0000 0.0000 0.0000 0.0000 16.6438
#
#
#
# Elastic Compliance Matrix: (Units=1/GPa)
#
#
# Indices 1 2 3 4 5 6 
#
# 1 0.023751 -0.009052 -0.006455 0.000000 0.000000 0.000000
# 2 -0.009052 0.030353 -0.013423 0.000000 0.000000 0.000000
# 3 -0.006455 -0.013423 0.019835 0.000000 0.000000 0.000000
# 4 0.000000 0.000000 0.000000 0.050703 0.000000 0.000000
# 5 0.000000 0.000000 0.000000 0.000000 0.037642 0.000000
# 6 0.000000 0.000000 0.000000 0.000000 0.000000 0.060082
#
#
# Mechanical properties :
#
#
# Convention : Reuss Voigt Hill
#
# Bulk Modulus (GPa) = 62.19687 68.17323 65.18505
# Shear Modulus (GPa) = 17.50784 18.93291 18.22037
#
# Velocity S-wave (km/s) = 3.10102 3.22476 3.16350
# Velocity P-wave (km/s) = 6.85449 7.16312 7.01050
#
# Compressibility (1/GPa) = 0.01607798
#
# Stress axis : x y z
#
# Youngs Moduli (GPa) = 42.10408 32.94581 50.41580
#
# Poissons Ratio (x) = 0.29824 0.32541
# Poissons Ratio (y) = 0.38114 0.67675
# Poissons Ratio (z) = 0.27177 0.44224
#
# Static dielectric constant tensor:
#      x y z
#    x 3.249350 0.000000 0.000000 
#    y 0.000000 3.425480 0.000000 
#    z 0.000000 0.000000 3.282990 
# 
# 
# High freq. dielectric constant tensor:
#      x y z
#    x 1.688150 0.000000 0.000000 
#    y 0.000000 1.714360 0.000000 
#    z 0.000000 0.000000 1.699150 
# 
# From -- ./inp_files/25207.got.cif
#   From: 2010.03.12/outbox.cif.g09.slc.cpg/sg69_13_cif.got.tgz:25207.got - 2010.04.10 23:52:46.
