data_PCOD8285909
_publ_section_title
;
Structure prediction by ZEFSAII (Michael W. Deem and Ramdas Pophale) SiO2 
 PCOD8285909
Probable space group: F D D D
;
_chemical_formula_sum "Si O2"
_cell_formula_units_Z 160
_cell_length_a 27.385254
_cell_length_b 13.258628
_cell_length_c 21.382238
_cell_angle_alpha 90.000000
_cell_angle_beta 90.000000
_cell_angle_gamma 90.000000
_cell_volume 7763.695943
_symmetry_space_group_name_H-M "F D D D"
_symmetry_group_IT_number 70
_space_group.IT_coordinate_system_code '2'
_symmetry_cell_setting 'orthorhombic'
loop_
_space_group_symop_operation_xyz
x,y,z
1/4-x,1/4-y,z
x,1/4-y,1/4-z
1/4-x,y,1/4-z
-x,-y,-z
3/4+x,3/4+y,-z
-x,3/4+y,3/4+z
3/4+x,-y,3/4+z
x,1/2+y,1/2+z
1/4-x,3/4-y,1/2+z
x,3/4-y,3/4-z
1/4-x,1/2+y,3/4-z
-x,1/2-y,1/2-z
3/4+x,1/4+y,1/2-z
-x,1/4+y,1/4+z
3/4+x,1/2-y,1/4+z
1/2+x,y,1/2+z
3/4-x,1/4-y,1/2+z
1/2+x,1/4-y,3/4-z
3/4-x,y,3/4-z
1/2-x,-y,1/2-z
1/4+x,3/4+y,1/2-z
1/2-x,3/4+y,1/4+z
1/4+x,-y,1/4+z
1/2+x,1/2+y,z
3/4-x,3/4-y,z
1/2+x,3/4-y,1/4-z
3/4-x,1/2+y,1/4-z
1/2-x,1/2-y,-z
1/4+x,1/4+y,-z
1/2-x,1/4+y,3/4+z
1/4+x,1/2-y,3/4+z
loop_
_atom_site_type_symbol
_atom_site_label
_atom_site_fract_x
_atom_site_fract_y
_atom_site_fract_z
Si Si1 0.070324 0.647678 0.882128
Si Si2 0.754078 0.226417 0.160095
Si Si3 0.926442 0.638395 0.849914
Si Si4 0.987694 0.750051 0.952475
Si Si5 0.425482 0.929466 0.487988
O O1 0.125000 0.625000 0.906604
O O2 0.069702 0.692801 0.812327
O O3 0.042875 0.539903 0.880675
O O4 0.043149 0.728129 0.928009
O O5 0.741419 0.125000 0.125000
O O6 0.704775 0.288934 0.170145
O O7 0.772807 0.200460 0.229692
O O8 0.875000 0.601367 0.875000
O O9 0.951353 0.698171 0.905390
O O10 0.924104 0.708891 0.789232
O O11 0.972207 0.868481 0.959040
O O12 0.375000 0.875000 0.469560
#
# Coordination Sequence:
#
# PCOD8285909 Si02
#       5
#    32  32  32  32  32
#     4   9  21  41  62  94 127 163 211 256 313 375
#     4  10  24  45  60  86 128 171 210 254 305 371
#     4  11  22  37  63  95 123 164 209 256 314 375
#     4  10  21  38  64  92 121 167 202 260 320 362
#     4  10  19  36  63  93 132 156 197 266 328 372
#
# _framework density 20.608740999999998
#
# number of rings (size 3 to 8) (size 9 to 14) (size 15 to 20)
#    0.000    2.000    2.000    0.600    0.000   12.400 
#    7.200    4.000    0.000    0.000    0.000    0.000 
#    0.000    0.000    0.000    0.000    0.000    0.000 
#
# Total GULP energy -495926.088250 kJ/mol
# GULP energy per Si atom -12398.152206 kJ/mol
# Density = 2.056183 g / cm^3
# Si number density = 20.608741 Si / 1000 Ang^3
#
#
#
# Elastic Constant Matrix: (Units=GPa)
#
#
# Indices 1 2 3 4 5 6 
#
# 1 119.1958 26.9879 -3.3442 0.0000 0.0000 0.0000
# 2 26.9879 98.6231 23.2546 0.0000 0.0000 0.0000
# 3 -3.3442 23.2546 48.7340 0.0000 0.0000 0.0000
# 4 0.0000 0.0000 0.0000 75.1451 0.0000 0.0000
# 5 0.0000 0.0000 0.0000 0.0000 29.4612 0.0000
# 6 0.0000 0.0000 0.0000 0.0000 0.0000 22.3551
#
#
#
# Elastic Compliance Matrix: (Units=1/GPa)
#
#
# Indices 1 2 3 4 5 6 
#
# 1 0.009121 -0.002979 0.002047 0.000000 0.000000 0.000000
# 2 -0.002979 0.012398 -0.006120 0.000000 0.000000 0.000000
# 3 0.002047 -0.006120 0.023581 0.000000 0.000000 0.000000
# 4 0.000000 0.000000 0.000000 0.013308 0.000000 0.000000
# 5 0.000000 0.000000 0.000000 0.000000 0.033943 0.000000
# 6 0.000000 0.000000 0.000000 0.000000 0.000000 0.044733
#
#
# Mechanical properties :
#
#
# Convention : Reuss Voigt Hill
#
# Bulk Modulus (GPa) = 32.26203 40.03883 36.15043
# Shear Modulus (GPa) = 30.95617 40.03592 35.49605
#
# Velocity S-wave (km/s) = 3.87988 4.41235 4.15466
# Velocity P-wave (km/s) = 5.97995 6.74008 6.37136
#
# Compressibility (1/GPa) = 0.03099619
#
# Stress axis : x y z
#
# Youngs Moduli (GPa) = 109.63170 80.65884 42.40790
#
# Poissons Ratio (x) = 0.24027 -0.08682
# Poissons Ratio (y) = 0.32657 0.25955
# Poissons Ratio (z) = -0.22445 0.49366
#
# Static dielectric constant tensor:
#      x y z
#    x 4.127030 0.000000 0.000000 
#    y 0.000000 3.511540 0.000000 
#    z 0.000000 0.000000 3.846540 
# 
# 
# High freq. dielectric constant tensor:
#      x y z
#    x 1.811690 0.000000 0.000000 
#    y 0.000000 1.782210 0.000000 
#    z 0.000000 0.000000 1.809980 
# 
# From -- ./inp_files/19471.got.cif
#   From: 2010.03.12/outbox.cif.g09.slc.cpg/sg70_10_cif.got.tgz:19471.got - 2010.04.16 13:46:32.
