data_PCOD8285336
_publ_section_title
;
Structure prediction by ZEFSAII (Michael W. Deem and Ramdas Pophale) SiO2 
 PCOD8285336
Probable space group: F M M M
;
_chemical_formula_sum "Si O2"
_cell_formula_units_Z 128
_cell_length_a 9.917398
_cell_length_b 25.206205
_cell_length_c 25.864856
_cell_angle_alpha 90.000000
_cell_angle_beta 90.000000
_cell_angle_gamma 90.000000
_cell_volume 6465.695851
_symmetry_space_group_name_H-M "F M M M"
_symmetry_group_IT_number 69
_symmetry_cell_setting 'orthorhombic'
loop_
_space_group_symop_operation_xyz
x,y,z
-x,-y,z
x,-y,-z
-x,y,-z
-x,-y,-z
x,y,-z
-x,y,z
x,-y,z
x,1/2+y,1/2+z
-x,1/2-y,1/2+z
x,1/2-y,1/2-z
-x,1/2+y,1/2-z
-x,1/2-y,1/2-z
x,1/2+y,1/2-z
-x,1/2+y,1/2+z
x,1/2-y,1/2+z
1/2+x,y,1/2+z
1/2-x,-y,1/2+z
1/2+x,-y,1/2-z
1/2-x,y,1/2-z
1/2-x,-y,1/2-z
1/2+x,y,1/2-z
1/2-x,y,1/2+z
1/2+x,-y,1/2+z
1/2+x,1/2+y,z
1/2-x,1/2-y,z
1/2+x,1/2-y,-z
1/2-x,1/2+y,-z
1/2-x,1/2-y,-z
1/2+x,1/2+y,-z
1/2-x,1/2+y,z
1/2+x,1/2-y,z
loop_
_atom_site_type_symbol
_atom_site_label
_atom_site_fract_x
_atom_site_fract_y
_atom_site_fract_z
Si Si1 0.843773 0.698418 0.886144
Si Si2 0.500000 0.439212 0.939007
Si Si3 0.746058 0.090591 0.622427
Si Si4 0.500000 0.059974 0.943465
Si Si5 0.160349 0.500000 0.699209
Si Si6 0.145953 0.204166 0.500000
O O1 0.750000 0.750000 0.878320
O O2 0.780413 0.649342 0.853982
O O3 0.000000 0.710846 0.870546
O O4 0.838205 0.673887 0.945170
O O5 0.500000 0.500000 0.916985
O O6 0.627585 0.406661 0.919430
O O7 0.500000 0.440289 0.000000
O O8 0.873897 0.069443 0.592547
O O9 0.700975 0.053041 0.668898
O O10 0.500000 0.000000 0.960701
O O11 0.500000 0.091709 0.000000
O O12 0.250000 0.500000 0.750000
O O13 0.000000 0.500000 0.711584
O O14 0.250000 0.250000 0.500000
O O15 0.000000 0.232043 0.500000
#
# Coordination Sequence:
#
# PCOD8285336 Si02
#       6
#    32  16  32  16  16  16
#     4  10  22  35  55  84 123 170 213 255 302 360
#     4  11  22  38  59  89 133 174 209 254 313 381
#     4  12  22  41  61  92 131 165 217 259 312 379
#     4  11  22  34  59  95 133 174 211 254 311 377
#     4  12  28  48  71  96 122 160 209 270 331 382
#     4   8  16  32  46  71 112 161 215 250 280 336
#
# _framework density 19.796786000000001
#
# number of rings (size 3 to 8) (size 9 to 14) (size 15 to 20)
#    0.000    1.250    5.000    0.750    7.000    2.000 
#    0.000    0.000    0.000    0.750    0.000    3.500 
#    0.000    0.000    0.000    0.000    0.000    0.000 
#
# Total GULP energy -396425.938948 kJ/mol
# GULP energy per Si atom -12388.310592 kJ/mol
# Density = 1.975173 g / cm^3
# Si number density = 19.796786 Si / 1000 Ang^3
#
#
#
# Elastic Constant Matrix: (Units=GPa)
#
#
# Indices 1 2 3 4 5 6 
#
# 1 186.4026 61.3845 46.9539 0.0000 0.0000 0.0000
# 2 61.3845 127.0644 31.2592 0.0000 0.0000 0.0000
# 3 46.9539 31.2592 71.1779 0.0000 0.0000 0.0000
# 4 0.0000 0.0000 0.0000 10.0908 0.0000 0.0000
# 5 0.0000 0.0000 0.0000 0.0000 28.9005 0.0000
# 6 0.0000 0.0000 0.0000 0.0000 0.0000 28.6349
#
#
#
# Elastic Compliance Matrix: (Units=1/GPa)
#
#
# Indices 1 2 3 4 5 6 
#
# 1 0.007104 -0.002555 -0.003564 0.000000 0.000000 0.000000
# 2 -0.002555 0.009742 -0.002593 0.000000 0.000000 0.000000
# 3 -0.003564 -0.002593 0.017539 0.000000 0.000000 0.000000
# 4 0.000000 0.000000 0.000000 0.099101 0.000000 0.000000
# 5 0.000000 0.000000 0.000000 0.000000 0.034601 0.000000
# 6 0.000000 0.000000 0.000000 0.000000 0.000000 0.034922
#
#
# Mechanical properties :
#
#
# Convention : Reuss Voigt Hill
#
# Bulk Modulus (GPa) = 58.95880 73.76000 66.35940
# Shear Modulus (GPa) = 22.11527 29.86172 25.98850
#
# Velocity S-wave (km/s) = 3.34595 3.88804 3.62714
# Velocity P-wave (km/s) = 6.69133 7.58256 7.15084
#
# Compressibility (1/GPa) = 0.01696100
#
# Stress axis : x y z
#
# Youngs Moduli (GPa) = 140.76710 102.64526 57.01503
#
# Poissons Ratio (x) = 0.26227 0.20321
# Poissons Ratio (y) = 0.35967 0.14784
# Poissons Ratio (z) = 0.50171 0.26616
#
# Static dielectric constant tensor:
#      x y z
#    x 3.777790 0.000000 0.000000 
#    y 0.000000 3.862100 0.000000 
#    z 0.000000 0.000000 3.746110 
# 
# 
# High freq. dielectric constant tensor:
#      x y z
#    x 1.799500 0.000000 0.000000 
#    y 0.000000 1.773880 0.000000 
#    z 0.000000 0.000000 1.724950 
# 
# From -- ./inp_files/44401.got.cif
#   From: 2010.03.12/outbox.cif.g09.slc.cpg/sg69_23_cif.got.tgz:44401.got - 2010.04.10 23:52:46.
