data_PCOD8285375
_publ_section_title
;
Structure prediction by ZEFSAII (Michael W. Deem and Ramdas Pophale) SiO2 
 PCOD8285375
Probable space group: F M M M
;
_chemical_formula_sum "Si O2"
_cell_formula_units_Z 168
_cell_length_a 28.238078
_cell_length_b 19.484098
_cell_length_c 14.168860
_cell_angle_alpha 90.000000
_cell_angle_beta 90.000000
_cell_angle_gamma 90.000000
_cell_volume 7795.614378
_symmetry_space_group_name_H-M "F M M M"
_symmetry_group_IT_number 69
_symmetry_cell_setting 'orthorhombic'
loop_
_space_group_symop_operation_xyz
x,y,z
-x,-y,z
x,-y,-z
-x,y,-z
-x,-y,-z
x,y,-z
-x,y,z
x,-y,z
x,1/2+y,1/2+z
-x,1/2-y,1/2+z
x,1/2-y,1/2-z
-x,1/2+y,1/2-z
-x,1/2-y,1/2-z
x,1/2+y,1/2-z
-x,1/2+y,1/2+z
x,1/2-y,1/2+z
1/2+x,y,1/2+z
1/2-x,-y,1/2+z
1/2+x,-y,1/2-z
1/2-x,y,1/2-z
1/2-x,-y,1/2-z
1/2+x,y,1/2-z
1/2-x,y,1/2+z
1/2+x,-y,1/2+z
1/2+x,1/2+y,z
1/2-x,1/2-y,z
1/2+x,1/2-y,-z
1/2-x,1/2+y,-z
1/2-x,1/2-y,-z
1/2+x,1/2+y,-z
1/2-x,1/2+y,z
1/2+x,1/2-y,z
loop_
_atom_site_type_symbol
_atom_site_label
_atom_site_fract_x
_atom_site_fract_y
_atom_site_fract_z
Si Si1 0.216390 0.150454 0.609747
Si Si2 0.446670 0.327753 0.266879
Si Si3 0.250000 0.250000 0.250000
Si Si4 0.809715 0.925552 0.888401
Si Si5 0.915028 0.919612 0.109146
Si Si6 0.379912 0.077707 0.110015
O O1 0.216471 0.173545 0.500000
O O2 0.211658 0.213432 0.680955
O O3 0.267460 0.122634 0.644443
O O4 0.175152 0.095504 0.628568
O O5 0.500000 0.324876 0.307839
O O6 0.428079 0.250000 0.250000
O O7 0.448828 0.370664 0.169399
O O8 0.413529 0.367336 0.340464
O O9 0.861643 0.899283 0.857825
O O10 0.800989 0.000000 0.842866
O O11 0.809139 0.932838 0.000000
O O12 0.925086 0.000000 0.128512
O O13 0.923796 0.902676 0.000000
O O14 0.388856 0.000000 0.147494
O O15 0.391490 0.081883 0.000000
#
# Coordination Sequence:
#
# PCOD8285375 Si02
#       6
#    32  32   8  32  32  32
#     4  10  22  39  59  88 128 169 210 253 301 363
#     4  11  26  44  63  90 126 165 207 258 319 388
#     4  12  26  36  54  90 130 180 216 248 300 370
#     4   8  15  32  58  86 118 155 195 242 293 347
#     4   9  19  37  64  96 127 163 205 252 311 373
#     4  10  23  44  69  94 122 163 216 270 320 372
#
# _framework density 21.550578999999999
#
# number of rings (size 3 to 8) (size 9 to 14) (size 15 to 20)
#    0.000    2.286    0.000    2.571    4.000    5.333 
#    0.000    8.571    0.000    0.000    0.000    0.000 
#    0.000    0.000    0.000    0.000    0.000    0.000 
#
# Total GULP energy -520568.436588 kJ/mol
# GULP energy per Si atom -12394.486585 kJ/mol
# Density = 2.150153 g / cm^3
# Si number density = 21.550579 Si / 1000 Ang^3
#
#
#
# Elastic Constant Matrix: (Units=GPa)
#
#
# Indices 1 2 3 4 5 6 
#
# 1 86.7521 48.7042 23.8917 0.0000 0.0000 0.0000
# 2 48.7042 137.8848 57.3309 0.0000 0.0000 0.0000
# 3 23.8917 57.3309 70.9696 0.0000 0.0000 0.0000
# 4 0.0000 0.0000 0.0000 35.6524 0.0000 0.0000
# 5 0.0000 0.0000 0.0000 0.0000 27.6957 0.0000
# 6 0.0000 0.0000 0.0000 0.0000 0.0000 -9.8609
#
#
#
# Elastic Compliance Matrix: (Units=1/GPa)
#
#
# Indices 1 2 3 4 5 6 
#
# 1 0.014437 -0.004636 -0.001115 0.000000 0.000000 0.000000
# 2 -0.004636 0.012409 -0.008464 0.000000 0.000000 0.000000
# 3 -0.001115 -0.008464 0.021303 0.000000 0.000000 0.000000
# 4 0.000000 0.000000 0.000000 0.028049 0.000000 0.000000
# 5 0.000000 0.000000 0.000000 0.000000 0.036107 0.000000
# 6 0.000000 0.000000 0.000000 0.000000 0.000000 -0.101411
#
#
# Mechanical properties :
#
#
# Convention : Reuss Voigt Hill
#
# Bulk Modulus (GPa) = 50.71086 61.71781 56.21433
# Shear Modulus (GPa) = 108.94208 21.74275 65.34242
#
# Velocity S-wave (km/s) = 7.11769 3.17979 5.51238
# Velocity P-wave (km/s) = 9.54625 6.49478 8.16435
#
# Compressibility (1/GPa) = 0.01971964
#
# Stress axis : x y z
#
# Youngs Moduli (GPa) = 69.26736 80.58687 46.94141
#
# Poissons Ratio (x) = 0.37358 0.05235
# Poissons Ratio (y) = 0.32110 0.39730
# Poissons Ratio (z) = 0.07725 0.68206
#
# Static dielectric constant tensor:
#      x y z
#    x 3.895740 0.000000 0.000000 
#    y 0.000000 4.401330 0.000000 
#    z 0.000000 0.000000 3.824410 
# 
# 
# High freq. dielectric constant tensor:
#      x y z
#    x 1.836460 0.000000 0.000000 
#    y 0.000000 1.841540 0.000000 
#    z 0.000000 0.000000 1.853210 
# 
# From -- ./inp_files/19715.got.cif
#   From: 2010.03.12/outbox.cif.g09.slc.cpg/sg69_10_cif.got.tgz:19715.got - 2010.04.10 23:52:46.
