data_PCOD8285028
_publ_section_title
;
Structure prediction by ZEFSAII (Michael W. Deem and Ramdas Pophale) SiO2 
 PCOD8285028
Probable space group: F M M M
;
_chemical_formula_sum "Si O2"
_cell_formula_units_Z 176
_cell_length_a 36.288751
_cell_length_b 11.451820
_cell_length_c 25.678636
_cell_angle_alpha 90.000000
_cell_angle_beta 90.000000
_cell_angle_gamma 90.000000
_cell_volume 10671.328398
_symmetry_space_group_name_H-M "F M M M"
_symmetry_group_IT_number 69
_symmetry_cell_setting 'orthorhombic'
loop_
_space_group_symop_operation_xyz
x,y,z
-x,-y,z
x,-y,-z
-x,y,-z
-x,-y,-z
x,y,-z
-x,y,z
x,-y,z
x,1/2+y,1/2+z
-x,1/2-y,1/2+z
x,1/2-y,1/2-z
-x,1/2+y,1/2-z
-x,1/2-y,1/2-z
x,1/2+y,1/2-z
-x,1/2+y,1/2+z
x,1/2-y,1/2+z
1/2+x,y,1/2+z
1/2-x,-y,1/2+z
1/2+x,-y,1/2-z
1/2-x,y,1/2-z
1/2-x,-y,1/2-z
1/2+x,y,1/2-z
1/2-x,y,1/2+z
1/2+x,-y,1/2+z
1/2+x,1/2+y,z
1/2-x,1/2-y,z
1/2+x,1/2-y,-z
1/2-x,1/2+y,-z
1/2-x,1/2-y,-z
1/2+x,1/2+y,-z
1/2-x,1/2+y,z
1/2+x,1/2-y,z
loop_
_atom_site_type_symbol
_atom_site_label
_atom_site_fract_x
_atom_site_fract_y
_atom_site_fract_z
Si Si1 0.350729 0.637424 0.560208
Si Si2 0.790585 0.211617 0.108445
Si Si3 0.573088 0.251209 0.061751
Si Si4 0.500000 0.631591 0.437838
Si Si5 0.290747 0.367491 0.226242
Si Si6 0.174504 0.500000 0.441433
Si Si7 0.405947 0.500000 0.937883
O O1 0.343052 0.674828 0.500000
O O2 0.352535 0.500000 0.565391
O O3 0.318875 0.681718 0.599465
O O4 0.389555 0.688369 0.580492
O O5 0.750000 0.250000 0.093259
O O6 0.790814 0.154234 0.165101
O O7 0.801502 0.112911 0.068265
O O8 0.536659 0.191689 0.085550
O O9 0.572885 0.384823 0.081644
O O10 0.571399 0.242308 0.000000
O O11 0.500000 0.500000 0.417876
O O12 0.500000 0.638587 0.500000
O O13 0.307798 0.500000 0.236922
O O14 0.311156 0.250000 0.250000
O O15 0.250000 0.369116 0.250000
O O16 0.161946 0.500000 0.500000
O O17 0.135033 0.500000 0.411876
O O18 0.404670 0.500000 0.000000
#
# Coordination Sequence:
#
# PCOD8285028 Si02
#       7
#    32  32  32  16  32  16  16
#     4  10  21  34  47  67 100 135 169 209 252 301
#     4  12  23  35  53  73  91 129 172 211 260 308
#     4   9  16  28  44  63  88 123 164 204 248 291
#     4   9  16  25  41  63  87 118 160 205 246 289
#     4  10  20  37  57  74  94 119 157 211 267 315
#     4  11  22  36  50  69 102 135 171 211 251 302
#     4   9  16  29  46  60  87 129 162 200 247 285
#
# _framework density 16.492791
#
# number of rings (size 3 to 8) (size 9 to 14) (size 15 to 20)
#    0.000    1.909    4.545    1.091    1.273    4.727 
#    0.000    1.818    0.000    0.000    0.000    0.000 
#    0.000    0.000    0.000    0.818    0.000    6.636 
#
# Total GULP energy -545092.005535 kJ/mol
# GULP energy per Si atom -12388.454671 kJ/mol
# Density = 1.645525 g / cm^3
# Si number density = 16.492791 Si / 1000 Ang^3
#
#
#
# Elastic Constant Matrix: (Units=GPa)
#
#
# Indices 1 2 3 4 5 6 
#
# 1 126.3905 65.4093 18.0778 0.0000 0.0000 0.0000
# 2 65.4093 158.2741 21.1381 0.0000 0.0000 0.0000
# 3 18.0778 21.1381 34.2834 0.0000 0.0000 0.0000
# 4 0.0000 0.0000 0.0000 14.7358 0.0000 0.0000
# 5 0.0000 0.0000 0.0000 0.0000 1.8212 0.0000
# 6 0.0000 0.0000 0.0000 0.0000 0.0000 29.9761
#
#
#
# Elastic Compliance Matrix: (Units=1/GPa)
#
#
# Indices 1 2 3 4 5 6 
#
# 1 0.010354 -0.003868 -0.003074 0.000000 0.000000 0.000000
# 2 -0.003868 0.008330 -0.003096 0.000000 0.000000 0.000000
# 3 -0.003074 -0.003096 0.032699 0.000000 0.000000 0.000000
# 4 0.000000 0.000000 0.000000 0.067862 0.000000 0.000000
# 5 0.000000 0.000000 0.000000 0.000000 0.549077 0.000000
# 6 0.000000 0.000000 0.000000 0.000000 0.000000 0.033360
#
#
# Mechanical properties :
#
#
# Convention : Reuss Voigt Hill
#
# Bulk Modulus (GPa) = 31.94417 58.68870 45.31644
# Shear Modulus (GPa) = 6.82878 23.59482 15.21180
#
# Velocity S-wave (km/s) = 2.03702 3.78645 3.04028
# Velocity P-wave (km/s) = 4.99432 7.40121 6.31352
#
# Compressibility (1/GPa) = 0.03130461
#
# Stress axis : x y z
#
# Youngs Moduli (GPa) = 96.58489 120.04383 30.58190
#
# Poissons Ratio (x) = 0.46435 0.09402
# Poissons Ratio (y) = 0.37361 0.09470
# Poissons Ratio (z) = 0.29695 0.37171
#
# Static dielectric constant tensor:
#      x y z
#    x 3.235640 0.000000 0.000000 
#    y 0.000000 44.810110 0.000000 
#    z 0.000000 0.000000 2.750660 
# 
# 
# High freq. dielectric constant tensor:
#      x y z
#    x 1.617500 0.000000 0.000000 
#    y 0.000000 1.667030 0.000000 
#    z 0.000000 0.000000 1.571360 
# 
# From -- ./inp_files/43890.got.cif
#   From: 2010.03.12/outbox.cif.g09.slc.cpg/sg69_22_cif.got.tgz:43890.got - 2010.04.10 23:52:46.
