data_PCOD8285334
_publ_section_title
;
Structure prediction by ZEFSAII (Michael W. Deem and Ramdas Pophale) SiO2 
 PCOD8285334
Probable space group: F M M M
;
_chemical_formula_sum "Si O2"
_cell_formula_units_Z 128
_cell_length_a 34.388647
_cell_length_b 8.626282
_cell_length_c 25.392644
_cell_angle_alpha 90.000000
_cell_angle_beta 90.000000
_cell_angle_gamma 90.000000
_cell_volume 7532.630503
_symmetry_space_group_name_H-M "F M M M"
_symmetry_group_IT_number 69
_symmetry_cell_setting 'orthorhombic'
loop_
_space_group_symop_operation_xyz
x,y,z
-x,-y,z
x,-y,-z
-x,y,-z
-x,-y,-z
x,y,-z
-x,y,z
x,-y,z
x,1/2+y,1/2+z
-x,1/2-y,1/2+z
x,1/2-y,1/2-z
-x,1/2+y,1/2-z
-x,1/2-y,1/2-z
x,1/2+y,1/2-z
-x,1/2+y,1/2+z
x,1/2-y,1/2+z
1/2+x,y,1/2+z
1/2-x,-y,1/2+z
1/2+x,-y,1/2-z
1/2-x,y,1/2-z
1/2-x,-y,1/2-z
1/2+x,y,1/2-z
1/2-x,y,1/2+z
1/2+x,-y,1/2+z
1/2+x,1/2+y,z
1/2-x,1/2-y,z
1/2+x,1/2-y,-z
1/2-x,1/2+y,-z
1/2-x,1/2-y,-z
1/2+x,1/2+y,-z
1/2-x,1/2+y,z
1/2+x,1/2-y,z
loop_
_atom_site_type_symbol
_atom_site_label
_atom_site_fract_x
_atom_site_fract_y
_atom_site_fract_z
Si Si1 0.000000 0.820095 0.561277
Si Si2 0.084014 0.816987 0.438251
Si Si3 0.839388 0.318026 0.398059
Si Si4 0.207235 0.183236 0.000000
Si Si5 0.708922 0.817358 0.806604
O O1 0.958562 0.756150 0.582964
O O2 0.000000 0.787064 0.500000
O O3 0.000000 0.000000 0.572955
O O4 0.088716 0.779476 0.500000
O O5 0.115437 0.721568 0.405356
O O6 0.089058 0.000000 0.428425
O O7 0.833897 0.500000 0.389557
O O8 0.815499 0.256927 0.448605
O O9 0.824580 0.227949 0.347084
O O10 0.250000 0.250000 0.000000
O O11 0.209412 0.000000 0.000000
O O12 0.697531 0.750000 0.750000
O O13 0.750000 0.750000 0.826674
O O14 0.712785 0.000000 0.802138
#
# Coordination Sequence:
#
# PCOD8285334 Si02
#       5
#    16  32  32  16  32
#     4   7  12  24  43  67  96 129 168 207 245 290
#     4   9  16  28  47  71  99 134 171 208 248 296
#     4  11  21  34  49  72 103 136 169 208 250 297
#     4  10  22  34  46  65  96 133 167 200 243 292
#     4  11  22  38  57  77  98 128 167 212 257 299
#
# _framework density 16.992735
#
# number of rings (size 3 to 8) (size 9 to 14) (size 15 to 20)
#    0.000    2.125    1.250    6.000    0.000    4.000 
#    0.000    0.625    0.000    2.250    0.000    0.875 
#    0.000    0.000    0.000    0.000    0.000    0.000 
#
# Total GULP energy -396658.024574 kJ/mol
# GULP energy per Si atom -12395.563268 kJ/mol
# Density = 1.695406 g / cm^3
# Si number density = 16.992735 Si / 1000 Ang^3
#
#
#
# Elastic Constant Matrix: (Units=GPa)
#
#
# Indices 1 2 3 4 5 6 
#
# 1 150.0997 32.9919 55.4152 0.0001 0.0000 -0.0002
# 2 32.9919 77.5738 32.5503 0.0003 0.0000 -0.0004
# 3 55.4152 32.5503 75.6849 0.0000 0.0000 0.0000
# 4 0.0001 0.0003 0.0000 19.1562 0.0000 -0.0001
# 5 0.0000 0.0000 0.0000 0.0000 18.2979 0.0000
# 6 -0.0002 -0.0004 0.0000 -0.0001 0.0000 26.6019
#
#
#
# Elastic Compliance Matrix: (Units=1/GPa)
#
#
# Indices 1 2 3 4 5 6 
#
# 1 0.009242 -0.001331 -0.006194 0.000000 0.000000 0.000000
# 2 -0.001331 0.015921 -0.005873 0.000000 0.000000 0.000000
# 3 -0.006194 -0.005873 0.020273 0.000000 0.000000 0.000000
# 4 0.000000 0.000000 0.000000 0.052202 0.000000 0.000000
# 5 0.000000 0.000000 0.000000 0.000000 0.054651 0.000000
# 6 0.000000 0.000000 0.000000 0.000000 0.000000 0.037591
#
#
# Mechanical properties :
#
#
# Convention : Reuss Voigt Hill
#
# Bulk Modulus (GPa) = 53.64648 60.58590 57.11619
# Shear Modulus (GPa) = 22.43255 24.97128 23.70192
#
# Velocity S-wave (km/s) = 3.63730 3.83760 3.73879
# Velocity P-wave (km/s) = 7.01988 7.44094 7.23347
#
# Compressibility (1/GPa) = 0.01864055
#
# Stress axis : x y z
#
# Youngs Moduli (GPa) = 108.20599 62.80881 49.32564
#
# Poissons Ratio (x) = 0.08363 0.30552
# Poissons Ratio (y) = 0.14407 0.28967
# Poissons Ratio (z) = 0.67022 0.36885
#
# Static dielectric constant tensor:
#      x y z
#    x 3.477010 0.000000 0.000000 
#    y 0.000000 3.069350 0.000000 
#    z 0.000000 0.000000 2.964490 
# 
# 
# High freq. dielectric constant tensor:
#      x y z
#    x 1.668120 0.000000 0.000000 
#    y 0.000000 1.650500 0.000000 
#    z 0.000000 0.000000 1.619920 
# 
# From -- ./inp_files/43755.got.cif
#   From: 2010.03.12/outbox.cif.g09.slc.cpg/sg69_22_cif.got.tgz:43755.got - 2010.04.10 23:52:46.
