data_PCOD8285571
_publ_section_title
;
Structure prediction by ZEFSAII (Michael W. Deem and Ramdas Pophale) SiO2 
 PCOD8285571
Probable space group: F M M M
;
_chemical_formula_sum "Si O2"
_cell_formula_units_Z 160
_cell_length_a 17.891347
_cell_length_b 22.812024
_cell_length_c 19.930096
_cell_angle_alpha 90.000000
_cell_angle_beta 90.000000
_cell_angle_gamma 90.000000
_cell_volume 8134.226276
_symmetry_space_group_name_H-M "F M M M"
_symmetry_group_IT_number 69
_symmetry_cell_setting 'orthorhombic'
loop_
_space_group_symop_operation_xyz
x,y,z
-x,-y,z
x,-y,-z
-x,y,-z
-x,-y,-z
x,y,-z
-x,y,z
x,-y,z
x,1/2+y,1/2+z
-x,1/2-y,1/2+z
x,1/2-y,1/2-z
-x,1/2+y,1/2-z
-x,1/2-y,1/2-z
x,1/2+y,1/2-z
-x,1/2+y,1/2+z
x,1/2-y,1/2+z
1/2+x,y,1/2+z
1/2-x,-y,1/2+z
1/2+x,-y,1/2-z
1/2-x,y,1/2-z
1/2-x,-y,1/2-z
1/2+x,y,1/2-z
1/2-x,y,1/2+z
1/2+x,-y,1/2+z
1/2+x,1/2+y,z
1/2-x,1/2-y,z
1/2+x,1/2-y,-z
1/2-x,1/2+y,-z
1/2-x,1/2-y,-z
1/2+x,1/2+y,-z
1/2-x,1/2+y,z
1/2+x,1/2-y,z
loop_
_atom_site_type_symbol
_atom_site_label
_atom_site_fract_x
_atom_site_fract_y
_atom_site_fract_z
Si Si1 0.676665 0.790789 0.000000
Si Si2 0.685994 0.872344 0.128854
Si Si3 0.859183 0.377631 0.363875
Si Si4 0.323528 0.000000 0.837243
Si Si5 0.650576 0.000000 0.311515
Si Si6 0.914914 0.814967 0.740465
Si Si7 0.412018 0.676648 0.000000
O O1 0.750000 0.750000 0.000000
O O2 0.671274 0.833424 0.936458
O O3 0.607268 0.745891 0.000000
O O4 0.771821 0.867245 0.151204
O O5 0.662043 0.940977 0.118471
O O6 0.637018 0.849284 0.189644
O O7 0.882086 0.444848 0.351789
O O8 0.911102 0.341661 0.314150
O O9 0.876033 0.357281 0.438319
O O10 0.372519 0.000000 0.767921
O O11 0.238937 0.000000 0.814378
O O12 0.883895 0.750000 0.750000
O O13 0.000000 0.815703 0.713813
O O14 0.500000 0.670094 0.000000
#
# Coordination Sequence:
#
# PCOD8285571 Si02
#       7
#    16  32  32  16  16  32  16
#     4  12  24  43  63  97 125 165 219 259 309 387
#     4  11  22  39  67  91 126 164 218 269 315 380
#     4  11  21  40  64  91 126 169 213 260 314 386
#     4   9  18  37  61  97 125 160 209 269 324 358
#     4   9  18  35  62  93 126 161 209 262 309 366
#     4  11  24  38  57  90 127 166 216 268 327 381
#     4  12  26  43  64  93 136 170 202 261 328 385
#
# _framework density 19.669972000000001
#
# number of rings (size 3 to 8) (size 9 to 14) (size 15 to 20)
#    0.000    1.200    4.000    2.400    0.000    4.000 
#    0.000    7.000    0.000    0.000    0.000    2.100 
#    0.000    0.000    0.000    0.000    0.000    0.000 
#
# Total GULP energy -495916.209470 kJ/mol
# GULP energy per Si atom -12397.905237 kJ/mol
# Density = 1.962520 g / cm^3
# Si number density = 19.669972 Si / 1000 Ang^3
#
#
#
# Elastic Constant Matrix: (Units=GPa)
#
#
# Indices 1 2 3 4 5 6 
#
# 1 72.4118 34.4422 18.5293 0.0000 0.0000 0.0000
# 2 34.4422 187.6644 71.3305 0.0000 0.0000 0.0000
# 3 18.5293 71.3305 125.3542 0.0000 0.0000 0.0000
# 4 0.0000 0.0000 0.0000 23.9793 0.0000 0.0000
# 5 0.0000 0.0000 0.0000 0.0000 17.4260 0.0000
# 6 0.0000 0.0000 0.0000 0.0000 0.0000 15.2270
#
#
#
# Elastic Compliance Matrix: (Units=1/GPa)
#
#
# Indices 1 2 3 4 5 6 
#
# 1 0.015200 -0.002470 -0.000841 0.000000 0.000000 0.000000
# 2 -0.002470 0.007201 -0.003732 0.000000 0.000000 0.000000
# 3 -0.000841 -0.003732 0.010226 0.000000 0.000000 0.000000
# 4 0.000000 0.000000 0.000000 0.041703 0.000000 0.000000
# 5 0.000000 0.000000 0.000000 0.000000 0.057385 0.000000
# 6 0.000000 0.000000 0.000000 0.000000 0.000000 0.065673
#
#
# Mechanical properties :
#
#
# Convention : Reuss Voigt Hill
#
# Bulk Modulus (GPa) = 53.94005 70.44826 62.19416
# Shear Modulus (GPa) = 22.97227 28.73503 25.85365
#
# Velocity S-wave (km/s) = 3.42114 3.82626 3.62936
# Velocity P-wave (km/s) = 6.56412 7.44401 7.01787
#
# Compressibility (1/GPa) = 0.01853910
#
# Stress axis : x y z
#
# Youngs Moduli (GPa) = 65.78960 138.87767 97.79437
#
# Poissons Ratio (x) = 0.34301 0.08228
# Poissons Ratio (y) = 0.16249 0.36500
# Poissons Ratio (z) = 0.05535 0.51833
#
# Static dielectric constant tensor:
#      x y z
#    x 3.423460 0.000000 0.000000 
#    y 0.000000 4.101410 0.000000 
#    z 0.000000 0.000000 3.382600 
# 
# 
# High freq. dielectric constant tensor:
#      x y z
#    x 1.747980 0.000000 0.000000 
#    y 0.000000 1.789920 0.000000 
#    z 0.000000 0.000000 1.763650 
# 
# From -- ./inp_files/24691.got.cif
#   From: 2010.03.12/outbox.cif.g09.slc.cpg/sg69_13_cif.got.tgz:24691.got - 2010.04.10 23:52:46.
