data_PCOD8285268
_publ_section_title
;
Structure prediction by ZEFSAII (Michael W. Deem and Ramdas Pophale) SiO2 
 PCOD8285268
Probable space group: F M M M
;
_chemical_formula_sum "Si O2"
_cell_formula_units_Z 128
_cell_length_a 27.256231
_cell_length_b 13.570545
_cell_length_c 16.762298
_cell_angle_alpha 90.000000
_cell_angle_beta 90.000000
_cell_angle_gamma 90.000000
_cell_volume 6200.070789
_symmetry_space_group_name_H-M "F M M M"
_symmetry_group_IT_number 69
_symmetry_cell_setting 'orthorhombic'
loop_
_space_group_symop_operation_xyz
x,y,z
-x,-y,z
x,-y,-z
-x,y,-z
-x,-y,-z
x,y,-z
-x,y,z
x,-y,z
x,1/2+y,1/2+z
-x,1/2-y,1/2+z
x,1/2-y,1/2-z
-x,1/2+y,1/2-z
-x,1/2-y,1/2-z
x,1/2+y,1/2-z
-x,1/2+y,1/2+z
x,1/2-y,1/2+z
1/2+x,y,1/2+z
1/2-x,-y,1/2+z
1/2+x,-y,1/2-z
1/2-x,y,1/2-z
1/2-x,-y,1/2-z
1/2+x,y,1/2-z
1/2-x,y,1/2+z
1/2+x,-y,1/2+z
1/2+x,1/2+y,z
1/2-x,1/2-y,z
1/2+x,1/2-y,-z
1/2-x,1/2+y,-z
1/2-x,1/2-y,-z
1/2+x,1/2+y,-z
1/2-x,1/2+y,z
1/2+x,1/2-y,z
loop_
_atom_site_type_symbol
_atom_site_label
_atom_site_fract_x
_atom_site_fract_y
_atom_site_fract_z
Si Si1 0.000000 0.759233 0.917637
Si Si2 0.420581 0.613356 0.856892
Si Si3 0.500000 0.107971 0.223446
Si Si4 0.824416 0.713343 0.406388
Si Si5 0.266595 0.886391 0.159901
O O1 0.952630 0.829310 0.921570
O O2 0.000000 0.689017 0.843171
O O3 0.000000 0.697094 0.000000
O O4 0.413824 0.500000 0.882286
O O5 0.450201 0.621688 0.773769
O O6 0.367789 0.665234 0.854182
O O7 0.500000 0.000000 0.184159
O O8 0.837905 0.724469 0.500000
O O9 0.777915 0.640786 0.399018
O O10 0.812932 0.819664 0.366361
O O11 0.250000 0.862344 0.250000
O O12 0.281869 0.000000 0.149924
#
# Coordination Sequence:
#
# PCOD8285268 Si02
#       5
#    16  32  16  32  32
#     4  11  22  36  59  91 123 151 185 237 292 342
#     4  10  21  38  60  85 114 152 197 239 284 341
#     4   9  21  41  63  85 114 155 193 232 284 343
#     4  11  22  36  59  88 116 148 189 242 295 338
#     4  10  22  39  58  82 115 156 197 235 281 343
#
# _framework density 20.644925000000001
#
# number of rings (size 3 to 8) (size 9 to 14) (size 15 to 20)
#    0.000    1.750    0.000    7.125    0.000    9.750 
#    0.000    3.750    0.000    4.500    0.000    0.000 
#    0.000    0.000    0.000    0.000    0.000    0.000 
#
# Total GULP energy -396629.156597 kJ/mol
# GULP energy per Si atom -12394.661144 kJ/mol
# Density = 2.059794 g / cm^3
# Si number density = 20.644925 Si / 1000 Ang^3
#
#
#
# Elastic Constant Matrix: (Units=GPa)
#
#
# Indices 1 2 3 4 5 6 
#
# 1 121.1220 68.2338 28.7975 0.0000 0.0000 0.0000
# 2 68.2338 170.5861 62.0345 0.0000 0.0000 0.0000
# 3 28.7975 62.0345 111.9331 0.0000 0.0000 0.0000
# 4 0.0000 0.0000 0.0000 -0.6887 0.0000 0.0000
# 5 0.0000 0.0000 0.0000 0.0000 25.3161 0.0000
# 6 0.0000 0.0000 0.0000 0.0000 0.0000 38.5581
#
#
#
# Elastic Compliance Matrix: (Units=1/GPa)
#
#
# Indices 1 2 3 4 5 6 
#
# 1 0.010678 -0.004098 -0.000476 0.000000 0.000000 0.000000
# 2 -0.004098 0.008915 -0.003886 0.000000 0.000000 0.000000
# 3 -0.000476 -0.003886 0.011210 0.000000 0.000000 0.000000
# 4 0.000000 0.000000 0.000000 -1.452044 0.000000 0.000000
# 5 0.000000 0.000000 0.000000 0.000000 0.039501 0.000000
# 6 0.000000 0.000000 0.000000 0.000000 0.000000 0.025935
#
#
# Mechanical properties :
#
#
# Convention : Reuss Voigt Hill
#
# Bulk Modulus (GPa) = 72.03491 80.19699 76.11595
# Shear Modulus (GPa) = -3.74740 28.94214 12.59737
#
# Velocity S-wave (km/s) = -1.34874 3.74826 2.47289
# Velocity P-wave (km/s) = 5.70461 7.59360 6.71585
#
# Compressibility (1/GPa) = 0.01388216
#
# Stress axis : x y z
#
# Youngs Moduli (GPa) = 93.65118 112.17567 89.20483
#
# Poissons Ratio (x) = 0.45970 0.04246
# Poissons Ratio (y) = 0.38379 0.34667
# Poissons Ratio (z) = 0.04458 0.43594
#
# Static dielectric constant tensor:
#      x y z
#    x 3.762800 0.000000 0.000000 
#    y 0.000000 3.917090 0.000000 
#    z 0.000000 0.000000 3.560800 
# 
# 
# High freq. dielectric constant tensor:
#      x y z
#    x 1.802080 0.000000 0.000000 
#    y 0.000000 1.815800 0.000000 
#    z 0.000000 0.000000 1.801910 
# 
# From -- ./inp_files/26507.got.cif
#   From: 2010.03.12/outbox.cif.g09.slc.cpg/sg69_14_cif.got.tgz:26507.got - 2010.04.10 23:52:46.
