data_PCOD8285621
_publ_section_title
;
Structure prediction by ZEFSAII (Michael W. Deem and Ramdas Pophale) SiO2 
 PCOD8285621
Probable space group: F M M M
;
_chemical_formula_sum "Si O2"
_cell_formula_units_Z 136
_cell_length_a 19.098615
_cell_length_b 14.929192
_cell_length_c 23.306464
_cell_angle_alpha 90.000000
_cell_angle_beta 90.000000
_cell_angle_gamma 90.000000
_cell_volume 6645.299603
_symmetry_space_group_name_H-M "F M M M"
_symmetry_group_IT_number 69
_symmetry_cell_setting 'orthorhombic'
loop_
_space_group_symop_operation_xyz
x,y,z
-x,-y,z
x,-y,-z
-x,y,-z
-x,-y,-z
x,y,-z
-x,y,z
x,-y,z
x,1/2+y,1/2+z
-x,1/2-y,1/2+z
x,1/2-y,1/2-z
-x,1/2+y,1/2-z
-x,1/2-y,1/2-z
x,1/2+y,1/2-z
-x,1/2+y,1/2+z
x,1/2-y,1/2+z
1/2+x,y,1/2+z
1/2-x,-y,1/2+z
1/2+x,-y,1/2-z
1/2-x,y,1/2-z
1/2-x,-y,1/2-z
1/2+x,y,1/2-z
1/2-x,y,1/2+z
1/2+x,-y,1/2+z
1/2+x,1/2+y,z
1/2-x,1/2-y,z
1/2+x,1/2-y,-z
1/2-x,1/2+y,-z
1/2-x,1/2-y,-z
1/2+x,1/2+y,-z
1/2-x,1/2+y,z
1/2+x,1/2-y,z
loop_
_atom_site_type_symbol
_atom_site_label
_atom_site_fract_x
_atom_site_fract_y
_atom_site_fract_z
Si Si1 0.620859 0.500000 0.000000
Si Si2 0.000000 0.500000 0.334776
Si Si3 0.000000 0.854492 0.740228
Si Si4 0.602086 0.400584 0.355666
Si Si5 0.653996 0.500000 0.124603
Si Si6 0.000000 0.360772 0.500000
Si Si7 0.500000 0.808624 0.936701
Si Si8 0.748566 0.143883 0.317528
O O1 0.671008 0.500000 0.056377
O O2 0.571815 0.413686 0.000000
O O3 0.000000 0.409098 0.298521
O O4 0.930680 0.500000 0.373612
O O5 0.000000 0.750000 0.750000
O O6 0.929730 0.879101 0.706407
O O7 0.580295 0.500000 0.374407
O O8 0.570459 0.334642 0.403082
O O9 0.684855 0.394664 0.350682
O O10 0.683007 0.409299 0.154944
O O11 0.000000 0.298946 0.442737
O O12 0.500000 0.854045 0.000000
O O13 0.750000 0.122532 0.250000
O O14 0.750000 0.250000 0.328799
#
# Coordination Sequence:
#
# PCOD8285621 Si02
#       8
#     8   8  16  32  16   8  16  32
#     4  11  26  46  68  94 138 177 234 282 342 403
#     4  12  24  41  70  98 127 180 228 290 346 396
#     4  11  24  36  63  99 136 171 230 277 341 409
#     4  11  22  42  63  96 140 177 220 289 338 411
#     4  12  27  47  70  99 137 181 233 287 346 410
#     4   9  22  46  67  98 132 176 223 296 332 415
#     4   9  22  40  71  97 130 173 230 282 345 394
#     4  11  26  44  68  99 140 184 229 280 354 421
#
# _framework density 20.465592999999998
#
# number of rings (size 3 to 8) (size 9 to 14) (size 15 to 20)
#    0.353    0.824    2.353    3.529    9.882    2.824 
#    2.118    0.588    0.000    0.000    0.000    0.000 
#    0.000    0.000    0.000    0.000    0.000    0.000 
#
# Total GULP energy -421571.035722 kJ/mol
# GULP energy per Si atom -12399.148109 kJ/mol
# Density = 2.041901 g / cm^3
# Si number density = 20.465593 Si / 1000 Ang^3
#
#
#
# Elastic Constant Matrix: (Units=GPa)
#
#
# Indices 1 2 3 4 5 6 
#
# 1 114.8545 29.4411 35.3119 0.0000 0.0000 0.0000
# 2 29.4411 157.1764 44.2478 0.0000 0.0000 0.0000
# 3 35.3119 44.2478 127.0519 0.0000 0.0000 0.0000
# 4 0.0000 0.0000 0.0000 32.9767 0.0000 0.0000
# 5 0.0000 0.0000 0.0000 0.0000 25.5227 0.0000
# 6 0.0000 0.0000 0.0000 0.0000 0.0000 22.1154
#
#
#
# Elastic Compliance Matrix: (Units=1/GPa)
#
#
# Indices 1 2 3 4 5 6 
#
# 1 0.009712 -0.001174 -0.002290 0.000000 0.000000 0.000000
# 2 -0.001174 0.007196 -0.002180 0.000000 0.000000 0.000000
# 3 -0.002290 -0.002180 0.009266 0.000000 0.000000 0.000000
# 4 0.000000 0.000000 0.000000 0.030324 0.000000 0.000000
# 5 0.000000 0.000000 0.000000 0.000000 0.039181 0.000000
# 6 0.000000 0.000000 0.000000 0.000000 0.000000 0.045217
#
#
# Mechanical properties :
#
#
# Convention : Reuss Voigt Hill
#
# Bulk Modulus (GPa) = 67.17937 68.56494 67.87216
# Shear Modulus (GPa) = 31.81727 35.46174 33.63950
#
# Velocity S-wave (km/s) = 3.94721 4.16715 4.05867
# Velocity P-wave (km/s) = 7.32603 7.53185 7.42965
#
# Compressibility (1/GPa) = 0.01488552
#
# Stress axis : x y z
#
# Youngs Moduli (GPa) = 102.96710 138.96850 107.91632
#
# Poissons Ratio (x) = 0.16321 0.24715
# Poissons Ratio (y) = 0.12093 0.23522
# Poissons Ratio (z) = 0.23582 0.30291
#
# Static dielectric constant tensor:
#      x y z
#    x 3.602820 0.000000 0.000000 
#    y 0.000000 3.747500 0.000000 
#    z 0.000000 0.000000 3.658130 
# 
# 
# High freq. dielectric constant tensor:
#      x y z
#    x 1.797250 0.000000 0.000000 
#    y 0.000000 1.817080 0.000000 
#    z 0.000000 0.000000 1.793510 
# 
# From -- ./inp_files/37120.got.cif
#   From: 2010.03.12/outbox.cif.g09.slc.cpg/sg69_19_cif.got.tgz:37120.got - 2010.04.10 23:52:46.
