data_PCOD8285739
_publ_section_title
;
Structure prediction by ZEFSAII (Michael W. Deem and Ramdas Pophale) SiO2 
 PCOD8285739
Probable space group: F D D D
;
_chemical_formula_sum "Si O2"
_cell_formula_units_Z 192
_cell_length_a 31.324163
_cell_length_b 13.365864
_cell_length_c 31.277637
_cell_angle_alpha 90.000000
_cell_angle_beta 90.000000
_cell_angle_gamma 90.000000
_cell_volume 13095.149113
_symmetry_space_group_name_H-M "F D D D"
_symmetry_group_IT_number 70
_space_group.IT_coordinate_system_code '2'
_symmetry_cell_setting 'orthorhombic'
loop_
_space_group_symop_operation_xyz
x,y,z
1/4-x,1/4-y,z
x,1/4-y,1/4-z
1/4-x,y,1/4-z
-x,-y,-z
3/4+x,3/4+y,-z
-x,3/4+y,3/4+z
3/4+x,-y,3/4+z
x,1/2+y,1/2+z
1/4-x,3/4-y,1/2+z
x,3/4-y,3/4-z
1/4-x,1/2+y,3/4-z
-x,1/2-y,1/2-z
3/4+x,1/4+y,1/2-z
-x,1/4+y,1/4+z
3/4+x,1/2-y,1/4+z
1/2+x,y,1/2+z
3/4-x,1/4-y,1/2+z
1/2+x,1/4-y,3/4-z
3/4-x,y,3/4-z
1/2-x,-y,1/2-z
1/4+x,3/4+y,1/2-z
1/2-x,3/4+y,1/4+z
1/4+x,-y,1/4+z
1/2+x,1/2+y,z
3/4-x,3/4-y,z
1/2+x,3/4-y,1/4-z
3/4-x,1/2+y,1/4-z
1/2-x,1/2-y,-z
1/4+x,1/4+y,-z
1/2-x,1/4+y,3/4+z
1/4+x,1/2-y,3/4+z
loop_
_atom_site_type_symbol
_atom_site_label
_atom_site_fract_x
_atom_site_fract_y
_atom_site_fract_z
Si Si1 0.100564 0.225652 0.898907
Si Si2 0.161737 0.548329 0.001565
Si Si3 0.216662 0.711007 0.967547
Si Si4 0.916132 0.481710 0.852032
Si Si5 0.241485 0.995612 0.874655
Si Si6 0.613689 0.823305 0.808205
O O1 0.125000 0.125000 0.911759
O O2 0.048949 0.211852 0.901421
O O3 0.114301 0.308862 0.933169
O O4 0.115276 0.259198 0.851804
O O5 0.125000 0.625000 0.988438
O O6 0.204955 0.600626 0.985476
O O7 0.154180 0.449618 0.972564
O O8 0.158989 0.525269 0.051635
O O9 0.238853 0.704977 0.921732
O O10 0.178548 0.791374 0.967356
O O11 0.250000 0.750000 0.000000
O O12 0.919652 0.375000 0.875000
O O13 0.875000 0.536629 0.875000
O O14 0.962540 0.533723 0.857714
O O15 0.237064 0.875000 0.875000
#
# Coordination Sequence:
#
# PCOD8285739 Si02
#       6
#    32  32  32  32  32  32
#     4  10  17  31  48  66  91 124 154 201 243 275
#     4  10  18  28  42  64  95 125 149 184 227 282
#     4  10  17  25  42  64  90 121 148 186 227 277
#     4  10  18  28  40  63  97 131 147 177 228 284
#     4  10  17  28  41  64  92 118 153 185 227 282
#     4   9  18  29  43  68  92 118 158 188 233 288
#
# _framework density 14.661917000000001
#
# number of rings (size 3 to 8) (size 9 to 14) (size 15 to 20)
#    0.000    2.167    5.000    4.500    2.333    0.000 
#    0.000    0.000    0.000    1.000    0.000    0.000 
#    0.000    0.667    0.000    1.167    0.000    0.000 
#
# Total GULP energy -594688.151860 kJ/mol
# GULP energy per Si atom -12389.336497 kJ/mol
# Density = 1.462855 g / cm^3
# Si number density = 14.661917 Si / 1000 Ang^3
#
#
#
# Elastic Constant Matrix: (Units=GPa)
#
#
# Indices 1 2 3 4 5 6 
#
# 1 106.6871 46.8308 40.2272 0.0000 0.0000 0.0000
# 2 46.8308 68.7368 40.2265 0.0000 0.0000 0.0000
# 3 40.2272 40.2265 94.5897 0.0000 0.0000 0.0000
# 4 0.0000 0.0000 0.0000 12.2718 0.0000 0.0000
# 5 0.0000 0.0000 0.0000 0.0000 18.0460 0.0000
# 6 0.0000 0.0000 0.0000 0.0000 0.0000 15.7588
#
#
#
# Elastic Compliance Matrix: (Units=1/GPa)
#
#
# Indices 1 2 3 4 5 6 
#
# 1 0.013799 -0.007944 -0.002490 0.000000 0.000000 0.000000
# 2 -0.007944 0.023942 -0.006803 0.000000 0.000000 0.000000
# 3 -0.002490 -0.006803 0.014524 0.000000 0.000000 0.000000
# 4 0.000000 0.000000 0.000000 0.081488 0.000000 0.000000
# 5 0.000000 0.000000 0.000000 0.000000 0.055414 0.000000
# 6 0.000000 0.000000 0.000000 0.000000 0.000000 0.063457
#
#
# Mechanical properties :
#
#
# Convention : Reuss Voigt Hill
#
# Bulk Modulus (GPa) = 56.21069 58.28695 57.24882
# Shear Modulus (GPa) = 17.06309 18.73058 17.89683
#
# Velocity S-wave (km/s) = 3.41511 3.57809 3.49755
# Velocity P-wave (km/s) = 7.34655 7.54391 7.44588
#
# Compressibility (1/GPa) = 0.01779021
#
# Stress axis : x y z
#
# Youngs Moduli (GPa) = 72.46754 41.76712 68.85015
#
# Poissons Ratio (x) = 0.33181 0.17144
# Poissons Ratio (y) = 0.57570 0.46842
# Poissons Ratio (z) = 0.18045 0.28416
#
# Static dielectric constant tensor:
#      x y z
#    x 3.275590 0.000000 0.000000 
#    y 0.000000 2.602490 0.000000 
#    z 0.000000 0.000000 2.690360 
# 
# 
# High freq. dielectric constant tensor:
#      x y z
#    x 1.567020 0.000000 0.000000 
#    y 0.000000 1.504400 0.000000 
#    z 0.000000 0.000000 1.561880 
# 
# From -- ./inp_files/31295.got.cif
#   From: 2010.03.12/outbox.cif.g09.slc.cpg/sg70_16_cif.got.tgz:31295.got - 2010.04.16 13:46:32.
