data_PCOD8285308
_publ_section_title
;
Structure prediction by ZEFSAII (Michael W. Deem and Ramdas Pophale) SiO2 
 PCOD8285308
Probable space group: F M M M
;
_chemical_formula_sum "Si O2"
_cell_formula_units_Z 192
_cell_length_a 15.179269
_cell_length_b 22.528365
_cell_length_c 28.096214
_cell_angle_alpha 90.000000
_cell_angle_beta 90.000000
_cell_angle_gamma 90.000000
_cell_volume 9607.896884
_symmetry_space_group_name_H-M "F M M M"
_symmetry_group_IT_number 69
_symmetry_cell_setting 'orthorhombic'
loop_
_space_group_symop_operation_xyz
x,y,z
-x,-y,z
x,-y,-z
-x,y,-z
-x,-y,-z
x,y,-z
-x,y,z
x,-y,z
x,1/2+y,1/2+z
-x,1/2-y,1/2+z
x,1/2-y,1/2-z
-x,1/2+y,1/2-z
-x,1/2-y,1/2-z
x,1/2+y,1/2-z
-x,1/2+y,1/2+z
x,1/2-y,1/2+z
1/2+x,y,1/2+z
1/2-x,-y,1/2+z
1/2+x,-y,1/2-z
1/2-x,y,1/2-z
1/2-x,-y,1/2-z
1/2+x,y,1/2-z
1/2-x,y,1/2+z
1/2+x,-y,1/2+z
1/2+x,1/2+y,z
1/2-x,1/2-y,z
1/2+x,1/2-y,-z
1/2-x,1/2+y,-z
1/2-x,1/2-y,-z
1/2+x,1/2+y,-z
1/2-x,1/2+y,z
1/2+x,1/2-y,z
loop_
_atom_site_type_symbol
_atom_site_label
_atom_site_fract_x
_atom_site_fract_y
_atom_site_fract_z
Si Si1 0.837138 0.149937 0.647096
Si Si2 0.900288 0.066829 0.725998
Si Si3 0.599090 0.258520 0.803724
Si Si4 0.231779 0.500000 0.054234
Si Si5 0.601078 0.106306 0.946451
Si Si6 0.849958 0.388280 0.322399
Si Si7 0.903313 0.500000 0.619255
O O1 0.898084 0.107943 0.679532
O O2 0.836569 0.217672 0.664922
O O3 0.876177 0.154913 0.593521
O O4 0.740798 0.121698 0.649967
O O5 0.836343 0.091584 0.767524
O O6 0.000000 0.067907 0.745879
O O7 0.871394 0.000000 0.711971
O O8 0.500000 0.233716 0.807935
O O9 0.633171 0.250000 0.750000
O O10 0.598609 0.325992 0.822065
O O11 0.169473 0.445095 0.066017
O O12 0.322392 0.500000 0.083017
O O13 0.262169 0.500000 0.000000
O O14 0.500000 0.084057 0.941983
O O15 0.616906 0.131402 0.000000
O O16 0.901460 0.440704 0.348854
O O17 0.000000 0.500000 0.593804
#
# Coordination Sequence:
#
# PCOD8285308 Si02
#       7
#    32  32  32  16  32  32  16
#     4  12  24  38  61  92 123 163 213 259 319 373
#     4  11  23  36  54  84 125 169 209 251 305 376
#     4  11  23  40  61  86 122 169 215 261 309 369
#     4  10  21  41  65  94 125 160 208 267 324 375
#     4  10  21  39  64  94 128 164 205 260 325 382
#     4  12  24  39  60  87 127 169 210 254 305 375
#     4  12  24  42  65  92 127 174 215 256 316 374
#
# _framework density 19.983561000000002
#
# number of rings (size 3 to 8) (size 9 to 14) (size 15 to 20)
#    0.000    0.833    4.167    4.250    2.333    2.500 
#    0.000    0.000    0.000    3.000    0.000    0.000 
#    0.000    0.000    0.000    0.000    0.000    0.000 
#
# Total GULP energy -595057.978733 kJ/mol
# GULP energy per Si atom -12397.041224 kJ/mol
# Density = 1.993808 g / cm^3
# Si number density = 19.983561 Si / 1000 Ang^3
#
#
#
# Elastic Constant Matrix: (Units=GPa)
#
#
# Indices 1 2 3 4 5 6 
#
# 1 110.2586 25.9712 46.1419 0.0000 0.0000 0.0000
# 2 25.9712 131.3366 43.8556 0.0000 0.0000 0.0000
# 3 46.1419 43.8556 129.0682 0.0000 0.0000 0.0000
# 4 0.0000 0.0000 0.0000 23.0786 0.0000 0.0000
# 5 0.0000 0.0000 0.0000 0.0000 30.5987 0.0000
# 6 0.0000 0.0000 0.0000 0.0000 0.0000 21.4600
#
#
#
# Elastic Compliance Matrix: (Units=1/GPa)
#
#
# Indices 1 2 3 4 5 6 
#
# 1 0.010770 -0.000952 -0.003527 0.000000 0.000000 0.000000
# 2 -0.000952 0.008673 -0.002606 0.000000 0.000000 0.000000
# 3 -0.003527 -0.002606 0.009894 0.000000 0.000000 0.000000
# 4 0.000000 0.000000 0.000000 0.043330 0.000000 0.000000
# 5 0.000000 0.000000 0.000000 0.000000 0.032681 0.000000
# 6 0.000000 0.000000 0.000000 0.000000 0.000000 0.046598
#
#
# Mechanical properties :
#
#
# Convention : Reuss Voigt Hill
#
# Bulk Modulus (GPa) = 65.93604 66.95562 66.44583
# Shear Modulus (GPa) = 29.21039 32.00712 30.60875
#
# Velocity S-wave (km/s) = 3.82739 4.00643 3.91794
# Velocity P-wave (km/s) = 7.25250 7.41486 7.33412
#
# Compressibility (1/GPa) = 0.01516621
#
# Stress axis : x y z
#
# Youngs Moduli (GPa) = 92.85298 115.30522 101.06848
#
# Poissons Ratio (x) = 0.10977 0.35644
# Poissons Ratio (y) = 0.08840 0.26343
# Poissons Ratio (z) = 0.32746 0.30054
#
# Static dielectric constant tensor:
#      x y z
#    x 3.636810 0.000000 0.000000 
#    y 0.000000 3.605560 0.000000 
#    z 0.000000 0.000000 3.533610 
# 
# 
# High freq. dielectric constant tensor:
#      x y z
#    x 1.790090 0.000000 0.000000 
#    y 0.000000 1.775110 0.000000 
#    z 0.000000 0.000000 1.759550 
# 
# From -- ./inp_files/41179.got.cif
#   From: 2010.03.12/outbox.cif.g09.slc.cpg/sg69_21_cif.got.tgz:41179.got - 2010.04.10 23:52:46.
