data_PCOD8285346
_publ_section_title
;
Structure prediction by ZEFSAII (Michael W. Deem and Ramdas Pophale) SiO2 
 PCOD8285346
Probable space group: F M M M
;
_chemical_formula_sum "Si O2"
_cell_formula_units_Z 160
_cell_length_a 22.232454
_cell_length_b 21.548647
_cell_length_c 16.533769
_cell_angle_alpha 90.000000
_cell_angle_beta 90.000000
_cell_angle_gamma 90.000000
_cell_volume 7920.986532
_symmetry_space_group_name_H-M "F M M M"
_symmetry_group_IT_number 69
_symmetry_cell_setting 'orthorhombic'
loop_
_space_group_symop_operation_xyz
x,y,z
-x,-y,z
x,-y,-z
-x,y,-z
-x,-y,-z
x,y,-z
-x,y,z
x,-y,z
x,1/2+y,1/2+z
-x,1/2-y,1/2+z
x,1/2-y,1/2-z
-x,1/2+y,1/2-z
-x,1/2-y,1/2-z
x,1/2+y,1/2-z
-x,1/2+y,1/2+z
x,1/2-y,1/2+z
1/2+x,y,1/2+z
1/2-x,-y,1/2+z
1/2+x,-y,1/2-z
1/2-x,y,1/2-z
1/2-x,-y,1/2-z
1/2+x,y,1/2-z
1/2-x,y,1/2+z
1/2+x,-y,1/2+z
1/2+x,1/2+y,z
1/2-x,1/2-y,z
1/2+x,1/2-y,-z
1/2-x,1/2+y,-z
1/2-x,1/2-y,-z
1/2+x,1/2+y,-z
1/2-x,1/2+y,z
1/2+x,1/2-y,z
loop_
_atom_site_type_symbol
_atom_site_label
_atom_site_fract_x
_atom_site_fract_y
_atom_site_fract_z
Si Si1 0.776236 0.429920 0.906517
Si Si2 0.000000 0.667646 0.592632
Si Si3 0.700793 0.329587 0.185114
Si Si4 0.114155 0.753903 0.593996
Si Si5 0.500000 0.929486 0.264951
Si Si6 0.115010 0.878735 0.686200
O O1 0.752759 0.500000 0.892067
O O2 0.727332 0.382341 0.872748
O O3 0.840051 0.422595 0.863114
O O4 0.785576 0.415317 0.000000
O O5 0.940943 0.707955 0.609755
O O6 0.000000 0.610386 0.653326
O O7 0.000000 0.643374 0.500000
O O8 0.750000 0.306267 0.250000
O O9 0.676415 0.271454 0.133115
O O10 0.643879 0.358608 0.229406
O O11 0.126575 0.764349 0.500000
O O12 0.097108 0.818899 0.633859
O O13 0.556325 0.917391 0.207061
O O14 0.500000 0.000000 0.294530
#
# Coordination Sequence:
#
# PCOD8285346 Si02
#       6
#    32  16  32  32  16  32
#     4  10  22  41  61  85 123 169 213 255 301 356
#     4  10  23  42  65  94 125 159 198 249 309 369
#     4  10  22  37  60  92 123 161 206 254 304 361
#     4  11  22  40  64  93 127 160 201 253 311 368
#     4  12  25  42  66  93 123 161 203 249 303 366
#     4  11  23  39  63  91 124 161 204 252 306 362
#
# _framework density 20.199503
#
# number of rings (size 3 to 8) (size 9 to 14) (size 15 to 20)
#    0.000    1.400    2.000    3.000    0.000   11.000 
#    0.000    6.500    0.000    3.600    0.000    0.000 
#    0.000    0.000    0.000    0.000    0.000    0.000 
#
# Total GULP energy -496156.267567 kJ/mol
# GULP energy per Si atom -12403.906689 kJ/mol
# Density = 2.015353 g / cm^3
# Si number density = 20.199503 Si / 1000 Ang^3
#
#
#
# Elastic Constant Matrix: (Units=GPa)
#
#
# Indices 1 2 3 4 5 6 
#
# 1 82.5241 16.4851 26.7510 0.0000 0.0000 0.0000
# 2 16.4851 103.8023 39.0883 0.0000 0.0000 0.0000
# 3 26.7510 39.0883 106.9495 0.0000 0.0000 0.0000
# 4 0.0000 0.0000 0.0000 34.0105 0.0000 0.0000
# 5 0.0000 0.0000 0.0000 0.0000 29.0516 0.0000
# 6 0.0000 0.0000 0.0000 0.0000 0.0000 26.8672
#
#
#
# Elastic Compliance Matrix: (Units=1/GPa)
#
#
# Indices 1 2 3 4 5 6 
#
# 1 0.013275 -0.000995 -0.002957 0.000000 0.000000 0.000000
# 2 -0.000995 0.011246 -0.003861 0.000000 0.000000 0.000000
# 3 -0.002957 -0.003861 0.011501 0.000000 0.000000 0.000000
# 4 0.000000 0.000000 0.000000 0.029403 0.000000 0.000000
# 5 0.000000 0.000000 0.000000 0.000000 0.034422 0.000000
# 6 0.000000 0.000000 0.000000 0.000000 0.000000 0.037220
#
#
# Mechanical properties :
#
#
# Convention : Reuss Voigt Hill
#
# Bulk Modulus (GPa) = 49.02972 50.88053 49.95512
# Shear Modulus (GPa) = 31.34987 32.04931 31.69959
#
# Velocity S-wave (km/s) = 3.94383 3.98758 3.96577
# Velocity P-wave (km/s) = 6.71296 6.81504 6.76419
#
# Compressibility (1/GPa) = 0.02039579
#
# Stress axis : x y z
#
# Youngs Moduli (GPa) = 75.33021 88.92282 86.94869
#
# Poissons Ratio (x) = 0.08846 0.25709
# Poissons Ratio (y) = 0.07494 0.33574
# Poissons Ratio (z) = 0.22274 0.34336
#
# Static dielectric constant tensor:
#      x y z
#    x 3.779060 0.000000 0.000000 
#    y 0.000000 3.585800 0.000000 
#    z 0.000000 0.000000 3.800720 
# 
# 
# High freq. dielectric constant tensor:
#      x y z
#    x 1.795250 0.000000 0.000000 
#    y 0.000000 1.790000 0.000000 
#    z 0.000000 0.000000 1.802640 
# 
# From -- ./inp_files/24620.got.cif
#   From: 2010.03.12/outbox.cif.g09.slc.cpg/sg69_13_cif.got.tgz:24620.got - 2010.04.10 23:52:46.
