data_PCOD8285410
_publ_section_title
;
Structure prediction by ZEFSAII (Michael W. Deem and Ramdas Pophale) SiO2 
 PCOD8285410
Probable space group: F M M M
;
_chemical_formula_sum "Si O2"
_cell_formula_units_Z 176
_cell_length_a 27.025098
_cell_length_b 17.381071
_cell_length_c 17.403285
_cell_angle_alpha 90.000000
_cell_angle_beta 90.000000
_cell_angle_gamma 90.000000
_cell_volume 8174.760607
_symmetry_space_group_name_H-M "F M M M"
_symmetry_group_IT_number 69
_symmetry_cell_setting 'orthorhombic'
loop_
_space_group_symop_operation_xyz
x,y,z
-x,-y,z
x,-y,-z
-x,y,-z
-x,-y,-z
x,y,-z
-x,y,z
x,-y,z
x,1/2+y,1/2+z
-x,1/2-y,1/2+z
x,1/2-y,1/2-z
-x,1/2+y,1/2-z
-x,1/2-y,1/2-z
x,1/2+y,1/2-z
-x,1/2+y,1/2+z
x,1/2-y,1/2+z
1/2+x,y,1/2+z
1/2-x,-y,1/2+z
1/2+x,-y,1/2-z
1/2-x,y,1/2-z
1/2-x,-y,1/2-z
1/2+x,y,1/2-z
1/2-x,y,1/2+z
1/2+x,-y,1/2+z
1/2+x,1/2+y,z
1/2-x,1/2-y,z
1/2+x,1/2-y,-z
1/2-x,1/2+y,-z
1/2-x,1/2-y,-z
1/2+x,1/2+y,-z
1/2-x,1/2+y,z
1/2+x,1/2-y,z
loop_
_atom_site_type_symbol
_atom_site_label
_atom_site_fract_x
_atom_site_fract_y
_atom_site_fract_z
Si Si1 0.400607 0.416032 0.764501
Si Si2 0.557553 0.909074 0.000000
Si Si3 0.597575 0.691346 0.630453
Si Si4 0.206790 0.914665 0.803640
Si Si5 0.805425 0.222710 0.088749
Si Si6 0.943352 0.849991 0.086915
O O1 0.423405 0.500000 0.741312
O O2 0.418623 0.344102 0.713027
O O3 0.341963 0.420749 0.751728
O O4 0.412658 0.401586 0.853969
O O5 0.587933 0.878195 0.072551
O O6 0.500000 0.882298 0.000000
O O7 0.561235 0.000000 0.000000
O O8 0.654772 0.720938 0.629868
O O9 0.561402 0.760642 0.608932
O O10 0.250000 0.879129 0.750000
O O11 0.193341 0.862168 0.876196
O O12 0.222625 0.000000 0.832916
O O13 0.750000 0.250000 0.101353
O O14 0.820606 0.217961 0.000000
O O15 0.000000 0.874651 0.092747
O O16 0.923469 0.863403 0.000000
#
# Coordination Sequence:
#
# PCOD8285410 Si02
#       6
#    32  16  32  32  32  32
#     4  11  25  41  64  96 129 172 219 270 333 399
#     4  11  24  42  67  96 133 181 222 275 350 422
#     4  12  22  42  66  96 134 170 222 281 335 406
#     4  10  22  41  63  92 132 175 218 271 338 401
#     4  11  23  39  65  98 130 171 226 279 336 408
#     4  11  24  43  68  97 131 174 224 279 341 406
#
# _framework density 21.529682000000001
#
# number of rings (size 3 to 8) (size 9 to 14) (size 15 to 20)
#    0.000    1.000    3.636    2.727    0.000    5.091 
#    0.000    3.636    0.000    0.000    0.000    0.000 
#    0.000    0.000    0.000    0.000    0.000    0.000 
#
# Total GULP energy -545444.409440 kJ/mol
# GULP energy per Si atom -12396.463851 kJ/mol
# Density = 2.148068 g / cm^3
# Si number density = 21.529682 Si / 1000 Ang^3
#
#
#
# Elastic Constant Matrix: (Units=GPa)
#
#
# Indices 1 2 3 4 5 6 
#
# 1 98.1895 23.6763 24.8016 0.0000 0.0000 0.0000
# 2 23.6763 115.7134 53.2740 0.0000 0.0000 0.0000
# 3 24.8016 53.2740 124.4796 0.0000 0.0000 0.0000
# 4 0.0000 0.0000 0.0000 41.8040 0.0000 0.0000
# 5 0.0000 0.0000 0.0000 0.0000 24.0624 0.0000
# 6 0.0000 0.0000 0.0000 0.0000 0.0000 25.9486
#
#
#
# Elastic Compliance Matrix: (Units=1/GPa)
#
#
# Indices 1 2 3 4 5 6 
#
# 1 0.010940 -0.001538 -0.001521 0.000000 0.000000 0.000000
# 2 -0.001538 0.010979 -0.004392 0.000000 0.000000 0.000000
# 3 -0.001521 -0.004392 0.010216 0.000000 0.000000 0.000000
# 4 0.000000 0.000000 0.000000 0.023921 0.000000 0.000000
# 5 0.000000 0.000000 0.000000 0.000000 0.041559 0.000000
# 6 0.000000 0.000000 0.000000 0.000000 0.000000 0.038538
#
#
# Mechanical properties :
#
#
# Convention : Reuss Voigt Hill
#
# Bulk Modulus (GPa) = 58.03296 60.20957 59.12126
# Shear Modulus (GPa) = 31.88790 34.13837 33.01313
#
# Velocity S-wave (km/s) = 3.85270 3.98633 3.92008
# Velocity P-wave (km/s) = 6.84138 7.01529 6.92888
#
# Compressibility (1/GPa) = 0.01723159
#
# Stress axis : x y z
#
# Youngs Moduli (GPa) = 91.41169 91.08394 97.88231
#
# Poissons Ratio (x) = 0.14008 0.14892
# Poissons Ratio (y) = 0.14058 0.42992
# Poissons Ratio (z) = 0.13908 0.40006
#
# Static dielectric constant tensor:
#      x y z
#    x 3.971240 0.000000 0.000000 
#    y 0.000000 3.935020 0.000000 
#    z 0.000000 0.000000 3.853080 
# 
# 
# High freq. dielectric constant tensor:
#      x y z
#    x 1.849510 0.000000 0.000000 
#    y 0.000000 1.850180 0.000000 
#    z 0.000000 0.000000 1.840230 
# 
# From -- ./inp_files/26756.got.cif
#   From: 2010.03.12/outbox.cif.g09.slc.cpg/sg69_14_cif.got.tgz:26756.got - 2010.04.10 23:52:46.
