data_PCOD8285079
_publ_section_title
;
Structure prediction by ZEFSAII (Michael W. Deem and Ramdas Pophale) SiO2 
 PCOD8285079
Probable space group: F M M M
;
_chemical_formula_sum "Si O2"
_cell_formula_units_Z 160
_cell_length_a 21.677943
_cell_length_b 15.958823
_cell_length_c 23.101983
_cell_angle_alpha 90.000000
_cell_angle_beta 90.000000
_cell_angle_gamma 90.000000
_cell_volume 7992.233946
_symmetry_space_group_name_H-M "F M M M"
_symmetry_group_IT_number 69
_symmetry_cell_setting 'orthorhombic'
loop_
_space_group_symop_operation_xyz
x,y,z
-x,-y,z
x,-y,-z
-x,y,-z
-x,-y,-z
x,y,-z
-x,y,z
x,-y,z
x,1/2+y,1/2+z
-x,1/2-y,1/2+z
x,1/2-y,1/2-z
-x,1/2+y,1/2-z
-x,1/2-y,1/2-z
x,1/2+y,1/2-z
-x,1/2+y,1/2+z
x,1/2-y,1/2+z
1/2+x,y,1/2+z
1/2-x,-y,1/2+z
1/2+x,-y,1/2-z
1/2-x,y,1/2-z
1/2-x,-y,1/2-z
1/2+x,y,1/2-z
1/2-x,y,1/2+z
1/2+x,-y,1/2+z
1/2+x,1/2+y,z
1/2-x,1/2-y,z
1/2+x,1/2-y,-z
1/2-x,1/2+y,-z
1/2-x,1/2-y,-z
1/2+x,1/2+y,-z
1/2-x,1/2+y,z
1/2+x,1/2-y,z
loop_
_atom_site_type_symbol
_atom_site_label
_atom_site_fract_x
_atom_site_fract_y
_atom_site_fract_z
Si Si1 0.255788 0.848988 0.063304
Si Si2 0.000000 0.598995 0.066622
Si Si3 0.180409 0.348883 0.754153
Si Si4 0.876514 0.663536 0.875405
Si Si5 0.928003 0.000000 0.935393
Si Si6 0.361476 0.639590 0.132367
O O1 0.250000 0.750000 0.062310
O O2 0.324617 0.873401 0.082004
O O3 0.206055 0.884417 0.108053
O O4 0.243177 0.887466 0.000000
O O5 0.058520 0.629951 0.102901
O O6 0.000000 0.500000 0.065049
O O7 0.000000 0.633594 0.000000
O O8 0.187785 0.250000 0.750000
O O9 0.250000 0.387187 0.750000
O O10 0.142303 0.371523 0.811963
O O11 0.139882 0.382627 0.700432
O O12 0.878986 0.764007 0.877630
O O13 0.910781 0.083298 0.900387
O O14 0.000000 0.000000 0.942148
O O15 0.898155 0.000000 0.000000
#
# Coordination Sequence:
#
# PCOD8285079 Si02
#       6
#    32  16  32  32  16  32
#     4   9  16  29  56  90 117 146 199 257 303 359
#     4  11  26  46  61  85 127 167 210 260 305 363
#     4   9  16  34  63  94 126 154 194 257 311 365
#     4  10  20  38  65  92 120 163 208 249 309 373
#     4  11  26  44  57  82 128 169 206 257 311 371
#     4  10  20  38  62  92 122 157 204 253 311 371
#
# _framework density 20.019432999999999
#
# number of rings (size 3 to 8) (size 9 to 14) (size 15 to 20)
#    0.000    2.200    2.000    1.200    1.400    2.400 
#    5.400    2.000    0.000    0.000    0.000    0.000 
#    0.000    0.000    0.000    0.000    0.000    0.000 
#
# Total GULP energy -495819.626042 kJ/mol
# GULP energy per Si atom -12395.490651 kJ/mol
# Density = 1.997387 g / cm^3
# Si number density = 20.019433 Si / 1000 Ang^3
#
#
#
# Elastic Constant Matrix: (Units=GPa)
#
#
# Indices 1 2 3 4 5 6 
#
# 1 139.0867 25.7586 70.4188 0.0000 0.0000 0.0000
# 2 25.7586 48.9479 34.4355 0.0000 0.0000 0.0000
# 3 70.4188 34.4355 184.4046 0.0000 0.0000 0.0000
# 4 0.0000 0.0000 0.0000 11.3899 0.0000 0.0000
# 5 0.0000 0.0000 0.0000 0.0000 29.9127 0.0000
# 6 0.0000 0.0000 0.0000 0.0000 0.0000 10.0070
#
#
#
# Elastic Compliance Matrix: (Units=1/GPa)
#
#
# Indices 1 2 3 4 5 6 
#
# 1 0.009220 -0.002734 -0.003010 0.000000 0.000000 0.000000
# 2 -0.002734 0.024331 -0.003499 0.000000 0.000000 0.000000
# 3 -0.003010 -0.003499 0.007226 0.000000 0.000000 0.000000
# 4 0.000000 0.000000 0.000000 0.087797 0.000000 0.000000
# 5 0.000000 0.000000 0.000000 0.000000 0.033431 0.000000
# 6 0.000000 0.000000 0.000000 0.000000 0.000000 0.099930
#
#
# Mechanical properties :
#
#
# Convention : Reuss Voigt Hill
#
# Bulk Modulus (GPa) = 44.86556 70.40724 57.63640
# Shear Modulus (GPa) = 17.37003 26.38367 21.87685
#
# Velocity S-wave (km/s) = 2.94880 3.63423 3.30931
# Velocity P-wave (km/s) = 5.83554 7.27021 6.59202
#
# Compressibility (1/GPa) = 0.02228881
#
# Stress axis : x y z
#
# Youngs Moduli (GPa) = 108.45671 41.10050 138.39133
#
# Poissons Ratio (x) = 0.11238 0.41661
# Poissons Ratio (y) = 0.29655 0.48428
# Poissons Ratio (z) = 0.32649 0.14382
#
# Static dielectric constant tensor:
#      x y z
#    x 3.511320 0.000000 0.000000 
#    y 0.000000 3.358630 0.000000 
#    z 0.000000 0.000000 4.129990 
# 
# 
# High freq. dielectric constant tensor:
#      x y z
#    x 1.771870 0.000000 0.000000 
#    y 0.000000 1.749190 0.000000 
#    z 0.000000 0.000000 1.802330 
# 
# From -- ./inp_files/31763.got.cif
#   From: 2010.03.12/outbox.cif.g09.slc.cpg/sg69_16_cif.got.tgz:31763.got - 2010.04.10 23:52:46.
