data_PCOD8285648
_publ_section_title
;
Structure prediction by ZEFSAII (Michael W. Deem and Ramdas Pophale) SiO2 
 PCOD8285648
Probable space group: F M M M
;
_chemical_formula_sum "Si O2"
_cell_formula_units_Z 112
_cell_length_a 14.460519
_cell_length_b 28.196370
_cell_length_c 12.526048
_cell_angle_alpha 90.000000
_cell_angle_beta 90.000000
_cell_angle_gamma 90.000000
_cell_volume 5107.297460
_symmetry_space_group_name_H-M "F M M M"
_symmetry_group_IT_number 69
_symmetry_cell_setting 'orthorhombic'
loop_
_space_group_symop_operation_xyz
x,y,z
-x,-y,z
x,-y,-z
-x,y,-z
-x,-y,-z
x,y,-z
-x,y,z
x,-y,z
x,1/2+y,1/2+z
-x,1/2-y,1/2+z
x,1/2-y,1/2-z
-x,1/2+y,1/2-z
-x,1/2-y,1/2-z
x,1/2+y,1/2-z
-x,1/2+y,1/2+z
x,1/2-y,1/2+z
1/2+x,y,1/2+z
1/2-x,-y,1/2+z
1/2+x,-y,1/2-z
1/2-x,y,1/2-z
1/2-x,-y,1/2-z
1/2+x,y,1/2-z
1/2-x,y,1/2+z
1/2+x,-y,1/2+z
1/2+x,1/2+y,z
1/2-x,1/2-y,z
1/2+x,1/2-y,-z
1/2-x,1/2+y,-z
1/2-x,1/2-y,-z
1/2+x,1/2+y,-z
1/2-x,1/2+y,z
1/2+x,1/2-y,z
loop_
_atom_site_type_symbol
_atom_site_label
_atom_site_fract_x
_atom_site_fract_y
_atom_site_fract_z
Si Si1 0.500000 0.056102 0.123568
Si Si2 0.644293 0.896531 0.724848
Si Si3 0.730510 0.304958 0.500000
Si Si4 0.104650 0.378948 0.500000
Si Si5 0.394660 0.701365 0.697426
O O1 0.589720 0.075485 0.183971
O O2 0.500000 0.000000 0.129009
O O3 0.500000 0.073519 0.000000
O O4 0.750000 0.905122 0.750000
O O5 0.621571 0.912820 0.603655
O O6 0.613472 0.841139 0.718193
O O7 0.750000 0.250000 0.500000
O O8 0.823978 0.334930 0.500000
O O9 0.669603 0.317158 0.602649
O O10 0.000000 0.358982 0.500000
O O11 0.500000 0.708799 0.657995
O O12 0.357224 0.750000 0.750000
#
# Coordination Sequence:
#
# PCOD8285648 Si02
#       5
#    16  32  16  16  32
#     4  11  28  53  80 109 143 180 233 305 372 443
#     4  12  25  44  75 104 143 190 238 293 360 432
#     4  12  25  37  62  93 143 192 251 301 353 404
#     4  12  24  43  66 105 140 190 240 297 354 420
#     4  11  24  41  63  99 141 193 248 296 349 422
#
# _framework density 21.929404999999999
#
# number of rings (size 3 to 8) (size 9 to 14) (size 15 to 20)
#    0.000    0.429    5.714    2.143    4.000    4.000 
#    0.000    1.429    0.000    0.857    0.000    0.000 
#    0.000    0.000    0.000    0.000    0.000    0.000 
#
# Total GULP energy -347223.805684 kJ/mol
# GULP energy per Si atom -12400.850203 kJ/mol
# Density = 2.187949 g / cm^3
# Si number density = 21.929405 Si / 1000 Ang^3
#
#
#
# Elastic Constant Matrix: (Units=GPa)
#
#
# Indices 1 2 3 4 5 6 
#
# 1 196.9846 30.1931 77.8517 0.0000 0.0000 0.0000
# 2 30.1931 76.8407 45.6428 0.0000 0.0000 0.0000
# 3 77.8517 45.6428 192.7514 0.0000 0.0000 0.0000
# 4 0.0000 0.0000 0.0000 25.4052 0.0000 0.0000
# 5 0.0000 0.0000 0.0000 0.0000 56.6827 0.0000
# 6 0.0000 0.0000 0.0000 0.0000 0.0000 3.1568
#
#
#
# Elastic Compliance Matrix: (Units=1/GPa)
#
#
# Indices 1 2 3 4 5 6 
#
# 1 0.006118 -0.001089 -0.002213 0.000000 0.000000 0.000000
# 2 -0.001089 0.015338 -0.003192 0.000000 0.000000 0.000000
# 3 -0.002213 -0.003192 0.006838 0.000000 0.000000 0.000000
# 4 0.000000 0.000000 0.000000 0.039362 0.000000 0.000000
# 5 0.000000 0.000000 0.000000 0.000000 0.017642 0.000000
# 6 0.000000 0.000000 0.000000 0.000000 0.000000 0.316777
#
#
# Mechanical properties :
#
#
# Convention : Reuss Voigt Hill
#
# Bulk Modulus (GPa) = 65.33866 85.99463 75.66665
# Shear Modulus (GPa) = 11.90007 37.90822 24.90414
#
# Velocity S-wave (km/s) = 2.33202 4.16221 3.37360
# Velocity P-wave (km/s) = 6.09186 7.89925 7.05368
#
# Compressibility (1/GPa) = 0.01530487
#
# Stress axis : x y z
#
# Youngs Moduli (GPa) = 163.44681 65.19754 146.24681
#
# Poissons Ratio (x) = 0.07103 0.32367
# Poissons Ratio (y) = 0.17806 0.46681
# Poissons Ratio (z) = 0.36173 0.20811
#
# Static dielectric constant tensor:
#      x y z
#    x 4.160620 0.000000 0.000000 
#    y 0.000000 3.598810 0.000000 
#    z 0.000000 0.000000 4.605100 
# 
# 
# High freq. dielectric constant tensor:
#      x y z
#    x 1.885680 0.000000 0.000000 
#    y 0.000000 1.819100 0.000000 
#    z 0.000000 0.000000 1.886680 
# 
# From -- ./inp_files/7446.got.cif
#   From: 2010.03.12/outbox.cif.g09.slc.cpg/sg69_4_cif.got.tgz:7446.got - 2010.04.10 23:52:46.
