data_PCOD8285311
_publ_section_title
;
Structure prediction by ZEFSAII (Michael W. Deem and Ramdas Pophale) SiO2 
 PCOD8285311
Probable space group: F M M M
;
_chemical_formula_sum "Si O2"
_cell_formula_units_Z 112
_cell_length_a 15.391704
_cell_length_b 16.662815
_cell_length_c 17.629348
_cell_angle_alpha 90.000000
_cell_angle_beta 90.000000
_cell_angle_gamma 90.000000
_cell_volume 4521.383302
_symmetry_space_group_name_H-M "F M M M"
_symmetry_group_IT_number 69
_symmetry_cell_setting 'orthorhombic'
loop_
_space_group_symop_operation_xyz
x,y,z
-x,-y,z
x,-y,-z
-x,y,-z
-x,-y,-z
x,y,-z
-x,y,z
x,-y,z
x,1/2+y,1/2+z
-x,1/2-y,1/2+z
x,1/2-y,1/2-z
-x,1/2+y,1/2-z
-x,1/2-y,1/2-z
x,1/2+y,1/2-z
-x,1/2+y,1/2+z
x,1/2-y,1/2+z
1/2+x,y,1/2+z
1/2-x,-y,1/2+z
1/2+x,-y,1/2-z
1/2-x,y,1/2-z
1/2-x,-y,1/2-z
1/2+x,y,1/2-z
1/2-x,y,1/2+z
1/2+x,-y,1/2+z
1/2+x,1/2+y,z
1/2-x,1/2-y,z
1/2+x,1/2-y,-z
1/2-x,1/2+y,-z
1/2-x,1/2-y,-z
1/2+x,1/2+y,-z
1/2-x,1/2+y,z
1/2+x,1/2-y,z
loop_
_atom_site_type_symbol
_atom_site_label
_atom_site_fract_x
_atom_site_fract_y
_atom_site_fract_z
Si Si1 0.838465 0.199434 0.631536
Si Si2 0.898263 0.405516 0.000000
Si Si3 0.096491 0.856948 0.082649
Si Si4 0.103231 0.589102 0.260644
O O1 0.750000 0.250000 0.624967
O O2 0.846821 0.126462 0.573143
O O3 0.911415 0.263911 0.608272
O O4 0.850273 0.160116 0.714365
O O5 0.889868 0.500000 0.000000
O O6 0.000000 0.380246 0.000000
O O7 0.140431 0.905292 0.152688
O O8 0.000000 0.890609 0.072442
O O9 0.144506 0.867021 0.000000
O O10 0.125563 0.500000 0.229489
O O11 0.000000 0.603971 0.258062
#
# Coordination Sequence:
#
# PCOD8285311 Si02
#       4
#    32  16  32  32
#     4  12  24  40  64 100 139 179 225 279 340 416
#     4  11  23  42  72 104 137 179 228 288 348 403
#     4  10  21  39  66  97 132 179 233 283 338 407
#     4  10  22  42  69 100 134 177 233 292 341 394
#
# _framework density 24.771179
#
# number of rings (size 3 to 8) (size 9 to 14) (size 15 to 20)
#    0.000    1.286    1.429    4.714    0.000    7.429 
#    0.000    7.143    0.000    0.000    0.000    0.000 
#    0.000    0.000    0.000    0.000    0.000    0.000 
#
# Total GULP energy -346912.831583 kJ/mol
# GULP energy per Si atom -12389.743985 kJ/mol
# Density = 2.471480 g / cm^3
# Si number density = 24.771179 Si / 1000 Ang^3
#
#
#
# Elastic Constant Matrix: (Units=GPa)
#
#
# Indices 1 2 3 4 5 6 
#
# 1 79.6827 51.4826 55.2611 0.0000 0.0000 0.0000
# 2 51.4826 131.7431 57.4671 0.0000 0.0000 0.0000
# 3 55.2611 57.4671 191.4024 0.0000 0.0000 0.0000
# 4 0.0000 0.0000 0.0000 47.7129 0.0000 0.0000
# 5 0.0000 0.0000 0.0000 0.0000 17.9757 0.0000
# 6 0.0000 0.0000 0.0000 0.0000 0.0000 32.5699
#
#
#
# Elastic Compliance Matrix: (Units=1/GPa)
#
#
# Indices 1 2 3 4 5 6 
#
# 1 0.018834 -0.005740 -0.003714 0.000000 0.000000 0.000000
# 2 -0.005740 0.010484 -0.001490 0.000000 0.000000 0.000000
# 3 -0.003714 -0.001490 0.006745 0.000000 0.000000 0.000000
# 4 0.000000 0.000000 0.000000 0.020959 0.000000 0.000000
# 5 0.000000 0.000000 0.000000 0.000000 0.055631 0.000000
# 6 0.000000 0.000000 0.000000 0.000000 0.000000 0.030703
#
#
# Mechanical properties :
#
#
# Convention : Reuss Voigt Hill
#
# Bulk Modulus (GPa) = 70.55648 81.24998 75.90323
# Shear Modulus (GPa) = 29.41720 35.55952 32.48836
#
# Velocity S-wave (km/s) = 3.44983 3.79294 3.62545
# Velocity P-wave (km/s) = 6.66435 7.21479 6.94503
#
# Compressibility (1/GPa) = 0.01417304
#
# Stress axis : x y z
#
# Youngs Moduli (GPa) = 53.09486 95.38641 148.26851
#
# Poissons Ratio (x) = 0.54750 0.55073
# Poissons Ratio (y) = 0.30475 0.22099
# Poissons Ratio (z) = 0.19722 0.14217
#
# Static dielectric constant tensor:
#      x y z
#    x 4.198990 0.000000 0.000000 
#    y 0.000000 4.552640 0.000000 
#    z 0.000000 0.000000 4.939810 
# 
# 
# High freq. dielectric constant tensor:
#      x y z
#    x 1.957420 0.000000 0.000000 
#    y 0.000000 1.986950 0.000000 
#    z 0.000000 0.000000 2.004060 
# 
# From -- ./inp_files/22334.got.cif
#   From: 2010.03.12/outbox.cif.g09.slc.cpg/sg69_12_cif.got.tgz:22334.got - 2010.04.10 23:52:46.
