data_PCOD8285147
_publ_section_title
;
Structure prediction by ZEFSAII (Michael W. Deem and Ramdas Pophale) SiO2 
 PCOD8285147
Probable space group: F M M M
;
_chemical_formula_sum "Si O2"
_cell_formula_units_Z 176
_cell_length_a 28.832559
_cell_length_b 16.204748
_cell_length_c 19.479844
_cell_angle_alpha 90.000000
_cell_angle_beta 90.000000
_cell_angle_gamma 90.000000
_cell_volume 9101.457505
_symmetry_space_group_name_H-M "F M M M"
_symmetry_group_IT_number 69
_symmetry_cell_setting 'orthorhombic'
loop_
_space_group_symop_operation_xyz
x,y,z
-x,-y,z
x,-y,-z
-x,y,-z
-x,-y,-z
x,y,-z
-x,y,z
x,-y,z
x,1/2+y,1/2+z
-x,1/2-y,1/2+z
x,1/2-y,1/2-z
-x,1/2+y,1/2-z
-x,1/2-y,1/2-z
x,1/2+y,1/2-z
-x,1/2+y,1/2+z
x,1/2-y,1/2+z
1/2+x,y,1/2+z
1/2-x,-y,1/2+z
1/2+x,-y,1/2-z
1/2-x,y,1/2-z
1/2-x,-y,1/2-z
1/2+x,y,1/2-z
1/2-x,y,1/2+z
1/2+x,-y,1/2+z
1/2+x,1/2+y,z
1/2-x,1/2-y,z
1/2+x,1/2-y,-z
1/2-x,1/2+y,-z
1/2-x,1/2-y,-z
1/2+x,1/2+y,-z
1/2-x,1/2+y,z
1/2+x,1/2-y,z
loop_
_atom_site_type_symbol
_atom_site_label
_atom_site_fract_x
_atom_site_fract_y
_atom_site_fract_z
Si Si1 0.154146 0.193831 0.925281
Si Si2 0.750000 0.750000 0.371413
Si Si3 0.051141 0.904169 0.305719
Si Si4 0.371084 0.094931 0.293162
Si Si5 0.799615 0.592528 0.823524
Si Si6 0.381396 0.870048 0.077542
O O1 0.206802 0.224742 0.917853
O O2 0.136651 0.133257 0.867095
O O3 0.120395 0.271620 0.922792
O O4 0.150318 0.150274 0.000000
O O5 0.762558 0.832828 0.327881
O O6 0.085224 0.864515 0.247775
O O7 0.072327 0.894412 0.381688
O O8 0.000000 0.862682 0.302353
O O9 0.046717 0.000000 0.289560
O O10 0.325335 0.109043 0.248107
O O11 0.381304 0.000000 0.305503
O O12 0.776363 0.500000 0.822996
O O13 0.836056 0.592144 0.885987
O O14 0.384013 0.905220 0.000000
#
# Coordination Sequence:
#
# PCOD8285147 Si02
#       6
#    32  16  32  32  32  32
#     4  10  21  36  52  72 102 139 176 216 261 306
#     4  10  21  35  54  78 105 139 176 220 265 309
#     4   9  18  33  54  79 104 131 166 209 256 309
#     4   9  19  36  55  76 103 135 174 216 260 313
#     4   9  19  34  52  77 107 139 176 216 261 314
#     4   9  18  32  50  75 108 141 170 203 253 317
#
# _framework density 19.337561999999998
#
# number of rings (size 3 to 8) (size 9 to 14) (size 15 to 20)
#    0.000    2.727    0.000    1.909    0.000   11.636 
#    0.000    4.545    0.000    1.636    0.000    2.545 
#    0.000    0.000    0.000    0.000    0.000    0.000 
#
# Total GULP energy -545268.852939 kJ/mol
# GULP energy per Si atom -12392.473930 kJ/mol
# Density = 1.929355 g / cm^3
# Si number density = 19.337562 Si / 1000 Ang^3
#
#
#
# Elastic Constant Matrix: (Units=GPa)
#
#
# Indices 1 2 3 4 5 6 
#
# 1 85.1071 36.0774 46.4209 0.0000 0.0000 0.0000
# 2 36.0774 85.6289 41.5669 0.0000 0.0000 0.0000
# 3 46.4209 41.5669 155.3573 0.0000 0.0000 0.0000
# 4 0.0000 0.0000 0.0000 29.2914 0.0000 0.0000
# 5 0.0000 0.0000 0.0000 0.0000 14.7415 0.0000
# 6 0.0000 0.0000 0.0000 0.0000 0.0000 21.0903
#
#
#
# Elastic Compliance Matrix: (Units=1/GPa)
#
#
# Indices 1 2 3 4 5 6 
#
# 1 0.015692 -0.004983 -0.003356 0.000000 0.000000 0.000000
# 2 -0.004983 0.015004 -0.002526 0.000000 0.000000 0.000000
# 3 -0.003356 -0.002526 0.008115 0.000000 0.000000 0.000000
# 4 0.000000 0.000000 0.000000 0.034140 0.000000 0.000000
# 5 0.000000 0.000000 0.000000 0.000000 0.067836 0.000000
# 6 0.000000 0.000000 0.000000 0.000000 0.000000 0.047415
#
#
# Mechanical properties :
#
#
# Convention : Reuss Voigt Hill
#
# Bulk Modulus (GPa) = 58.53623 63.80263 61.16943
# Shear Modulus (GPa) = 23.18854 26.49320 24.84087
#
# Velocity S-wave (km/s) = 3.46662 3.70542 3.58801
# Velocity P-wave (km/s) = 6.80880 7.16747 6.99044
#
# Compressibility (1/GPa) = 0.01708344
#
# Stress axis : x y z
#
# Youngs Moduli (GPa) = 63.72507 66.65098 123.22554
#
# Poissons Ratio (x) = 0.33209 0.41352
# Poissons Ratio (y) = 0.31751 0.31121
# Poissons Ratio (z) = 0.21385 0.16833
#
# Static dielectric constant tensor:
#      x y z
#    x 3.616020 0.000000 0.000000 
#    y 0.000000 3.467430 0.000000 
#    z 0.000000 0.000000 3.581570 
# 
# 
# High freq. dielectric constant tensor:
#      x y z
#    x 1.735690 0.000000 0.000000 
#    y 0.000000 1.742950 0.000000 
#    z 0.000000 0.000000 1.753490 
# 
# From -- ./inp_files/27713.got.cif
#   From: 2010.03.12/outbox.cif.g09.slc.cpg/sg69_14_cif.got.tgz:27713.got - 2010.04.10 23:52:46.
