data_PCOD8285183
_publ_section_title
;
Structure prediction by ZEFSAII (Michael W. Deem and Ramdas Pophale) SiO2 
 PCOD8285183
Probable space group: F M M M
;
_chemical_formula_sum "Si O2"
_cell_formula_units_Z 160
_cell_length_a 14.703496
_cell_length_b 28.463739
_cell_length_c 19.218044
_cell_angle_alpha 90.000000
_cell_angle_beta 90.000000
_cell_angle_gamma 90.000000
_cell_volume 8043.067984
_symmetry_space_group_name_H-M "F M M M"
_symmetry_group_IT_number 69
_symmetry_cell_setting 'orthorhombic'
loop_
_space_group_symop_operation_xyz
x,y,z
-x,-y,z
x,-y,-z
-x,y,-z
-x,-y,-z
x,y,-z
-x,y,z
x,-y,z
x,1/2+y,1/2+z
-x,1/2-y,1/2+z
x,1/2-y,1/2-z
-x,1/2+y,1/2-z
-x,1/2-y,1/2-z
x,1/2+y,1/2-z
-x,1/2+y,1/2+z
x,1/2-y,1/2+z
1/2+x,y,1/2+z
1/2-x,-y,1/2+z
1/2+x,-y,1/2-z
1/2-x,y,1/2-z
1/2-x,-y,1/2-z
1/2+x,y,1/2-z
1/2-x,y,1/2+z
1/2+x,-y,1/2+z
1/2+x,1/2+y,z
1/2-x,1/2-y,z
1/2+x,1/2-y,-z
1/2-x,1/2+y,-z
1/2-x,1/2-y,-z
1/2+x,1/2+y,-z
1/2-x,1/2+y,z
1/2+x,1/2-y,z
loop_
_atom_site_type_symbol
_atom_site_label
_atom_site_fract_x
_atom_site_fract_y
_atom_site_fract_z
Si Si1 0.316697 0.292132 0.923913
Si Si2 0.107051 0.102098 0.203987
Si Si3 0.898326 0.704948 0.715050
Si Si4 0.604730 0.945473 0.845824
Si Si5 0.236064 0.896063 0.079249
O O1 0.250000 0.250000 0.907250
O O2 0.397843 0.290136 0.868528
O O3 0.258261 0.339774 0.917848
O O4 0.361491 0.287481 0.000000
O O5 0.143144 0.153362 0.231755
O O6 0.128858 0.065729 0.265412
O O7 0.159135 0.085873 0.133752
O O8 0.000000 0.104496 0.185738
O O9 0.846355 0.750000 0.750000
O O10 0.000000 0.705403 0.744233
O O11 0.500000 0.932128 0.860918
O O12 0.666010 0.916128 0.899044
O O13 0.623384 0.000000 0.858584
O O14 0.212793 0.912636 0.000000
#
# Coordination Sequence:
#
# PCOD8285183 Si02
#       5
#    32  32  32  32  32
#     4   9  19  34  49  71 107 146 181 219 270 331
#     4   9  19  36  57  82 113 147 187 233 281 338
#     4   9  18  31  50  77 105 137 180 228 273 320
#     4  10  22  40  61  83 111 149 191 238 289 341
#     4  10  21  36  56  83 113 147 189 235 284 339
#
# _framework density 19.892906
#
# number of rings (size 3 to 8) (size 9 to 14) (size 15 to 20)
#    0.000    2.600    0.000    0.600    2.800    3.600 
#    0.000    5.000    0.000    3.600    0.000    4.200 
#    0.000    0.000    0.000    0.000    0.000    0.000 
#
# Total GULP energy -495666.156363 kJ/mol
# GULP energy per Si atom -12391.653909 kJ/mol
# Density = 1.984763 g / cm^3
# Si number density = 19.892906 Si / 1000 Ang^3
#
#
#
# Elastic Constant Matrix: (Units=GPa)
#
#
# Indices 1 2 3 4 5 6 
#
# 1 63.9788 29.6484 39.7671 0.0000 0.0000 0.0000
# 2 29.6484 65.0254 34.9086 0.0000 0.0000 0.0000
# 3 39.7671 34.9086 104.3879 0.0000 0.0000 0.0000
# 4 0.0000 0.0000 0.0000 26.4388 0.0000 0.0000
# 5 0.0000 0.0000 0.0000 0.0000 31.3292 0.0000
# 6 0.0000 0.0000 0.0000 0.0000 0.0000 17.9543
#
#
#
# Elastic Compliance Matrix: (Units=1/GPa)
#
#
# Indices 1 2 3 4 5 6 
#
# 1 0.022821 -0.006994 -0.006355 0.000000 0.000000 0.000000
# 2 -0.006994 0.020887 -0.004321 0.000000 0.000000 0.000000
# 3 -0.006355 -0.004321 0.013446 0.000000 0.000000 0.000000
# 4 0.000000 0.000000 0.000000 0.037823 0.000000 0.000000
# 5 0.000000 0.000000 0.000000 0.000000 0.031919 0.000000
# 6 0.000000 0.000000 0.000000 0.000000 0.000000 0.055697
#
#
# Mechanical properties :
#
#
# Convention : Reuss Voigt Hill
#
# Bulk Modulus (GPa) = 45.84011 49.11561 47.47786
# Shear Modulus (GPa) = 22.20218 23.74898 22.97558
#
# Velocity S-wave (km/s) = 3.34441 3.45895 3.40216
# Velocity P-wave (km/s) = 6.16497 6.37935 6.27308
#
# Compressibility (1/GPa) = 0.02181495
#
# Stress axis : x y z
#
# Youngs Moduli (GPa) = 43.81885 47.87703 74.37430
#
# Poissons Ratio (x) = 0.33484 0.47266
# Poissons Ratio (y) = 0.30645 0.32134
# Poissons Ratio (z) = 0.27847 0.20686
#
# Static dielectric constant tensor:
#      x y z
#    x 3.432220 0.000000 0.000000 
#    y 0.000000 3.743070 0.000000 
#    z 0.000000 0.000000 3.736190 
# 
# 
# High freq. dielectric constant tensor:
#      x y z
#    x 1.755020 0.000000 0.000000 
#    y 0.000000 1.777110 0.000000 
#    z 0.000000 0.000000 1.776410 
# 
# From -- ./inp_files/23429.got.cif
#   From: 2010.03.12/outbox.cif.g09.slc.cpg/sg69_12_cif.got.tgz:23429.got - 2010.04.10 23:52:46.
