data_PCOD8285614
_publ_section_title
;
Structure prediction by ZEFSAII (Michael W. Deem and Ramdas Pophale) SiO2 
 PCOD8285614
Probable space group: F M M M
;
_chemical_formula_sum "Si O2"
_cell_formula_units_Z 176
_cell_length_a 16.952520
_cell_length_b 25.572127
_cell_length_c 20.226461
_cell_angle_alpha 90.000000
_cell_angle_beta 90.000000
_cell_angle_gamma 90.000000
_cell_volume 8768.413448
_symmetry_space_group_name_H-M "F M M M"
_symmetry_group_IT_number 69
_symmetry_cell_setting 'orthorhombic'
loop_
_space_group_symop_operation_xyz
x,y,z
-x,-y,z
x,-y,-z
-x,y,-z
-x,-y,-z
x,y,-z
-x,y,z
x,-y,z
x,1/2+y,1/2+z
-x,1/2-y,1/2+z
x,1/2-y,1/2-z
-x,1/2+y,1/2-z
-x,1/2-y,1/2-z
x,1/2+y,1/2-z
-x,1/2+y,1/2+z
x,1/2-y,1/2+z
1/2+x,y,1/2+z
1/2-x,-y,1/2+z
1/2+x,-y,1/2-z
1/2-x,y,1/2-z
1/2-x,-y,1/2-z
1/2+x,y,1/2-z
1/2-x,y,1/2+z
1/2+x,-y,1/2+z
1/2+x,1/2+y,z
1/2-x,1/2-y,z
1/2+x,1/2-y,-z
1/2-x,1/2+y,-z
1/2-x,1/2-y,-z
1/2+x,1/2+y,-z
1/2-x,1/2+y,z
1/2+x,1/2-y,z
loop_
_atom_site_type_symbol
_atom_site_label
_atom_site_fract_x
_atom_site_fract_y
_atom_site_fract_z
Si Si1 0.000000 0.061513 0.075713
Si Si2 0.272640 0.440105 0.673034
Si Si3 0.658948 0.311361 0.749228
Si Si4 0.136541 0.627807 0.375651
Si Si5 0.592609 0.870584 0.131194
Si Si6 0.839675 0.196453 0.000000
Si Si7 0.153007 0.184588 0.500000
O O1 0.924990 0.081487 0.115571
O O2 0.000000 0.000000 0.079037
O O3 0.000000 0.081300 0.000000
O O4 0.261127 0.500000 0.650921
O O5 0.250000 0.433453 0.750000
O O6 0.220354 0.401281 0.628480
O O7 0.362328 0.423124 0.656138
O O8 0.654522 0.250000 0.750000
O O9 0.750000 0.330428 0.750000
O O10 0.616202 0.338326 0.811014
O O11 0.612177 0.325975 0.683744
O O12 0.128923 0.667868 0.435427
O O13 0.500000 0.883455 0.127792
O O14 0.622362 0.848351 0.061783
O O15 0.876398 0.255064 0.000000
O O16 0.746154 0.191640 0.000000
#
# Coordination Sequence:
#
# PCOD8285614 Si02
#       7
#    16  32  32  32  32  16  16
#     4  11  26  44  63  94 134 171 208 265 327 377
#     4  11  23  43  69  95 125 168 220 272 325 383
#     4  11  22  41  67  92 126 167 214 264 318 385
#     4  12  21  43  65  97 127 165 215 268 321 387
#     4  12  24  42  62  95 134 169 214 269 321 382
#     4  11  22  39  73  92 125 171 220 257 322 388
#     4  11  23  44  63  96 128 174 216 262 318 389
#
# _framework density 20.072047000000001
#
# number of rings (size 3 to 8) (size 9 to 14) (size 15 to 20)
#    0.000    0.636    6.364    1.909    1.273    3.636 
#    6.545    1.364    0.000    1.091    0.000    0.000 
#    0.000    0.000    0.000    0.000    0.000    0.000 
#
# Total GULP energy -545560.088063 kJ/mol
# GULP energy per Si atom -12399.092911 kJ/mol
# Density = 2.002636 g / cm^3
# Si number density = 20.072047 Si / 1000 Ang^3
#
#
#
# Elastic Constant Matrix: (Units=GPa)
#
#
# Indices 1 2 3 4 5 6 
#
# 1 100.8138 31.2916 36.2057 0.0000 0.0000 0.0000
# 2 31.2916 119.1843 51.4985 0.0000 0.0000 0.0000
# 3 36.2057 51.4985 149.7469 0.0000 0.0000 0.0000
# 4 0.0000 0.0000 0.0000 25.2540 0.0000 0.0000
# 5 0.0000 0.0000 0.0000 0.0000 29.5521 0.0000
# 6 0.0000 0.0000 0.0000 0.0000 0.0000 -150.4589
#
#
#
# Elastic Compliance Matrix: (Units=1/GPa)
#
#
# Indices 1 2 3 4 5 6 
#
# 1 0.011292 -0.002096 -0.002009 0.000000 0.000000 0.000000
# 2 -0.002096 0.010244 -0.003016 0.000000 0.000000 0.000000
# 3 -0.002009 -0.003016 0.008201 0.000000 0.000000 0.000000
# 4 0.000000 0.000000 0.000000 0.039598 0.000000 0.000000
# 5 0.000000 0.000000 0.000000 0.000000 0.033839 0.000000
# 6 0.000000 0.000000 0.000000 0.000000 0.000000 -0.006646
#
#
# Mechanical properties :
#
#
# Convention : Reuss Voigt Hill
#
# Bulk Modulus (GPa) = 64.54428 67.52630 66.03529
# Shear Modulus (GPa) = 43.12795 -2.41398 20.35699
#
# Velocity S-wave (km/s) = 4.64039 -1.09785 3.18810
# Velocity P-wave (km/s) = 7.80622 5.66639 6.82074
#
# Compressibility (1/GPa) = 0.01549324
#
# Stress axis : x y z
#
# Youngs Moduli (GPa) = 88.56197 97.61800 121.93744
#
# Poissons Ratio (x) = 0.20465 0.24498
# Poissons Ratio (y) = 0.18567 0.36777
# Poissons Ratio (z) = 0.17793 0.29442
#
# Static dielectric constant tensor:
#      x y z
#    x 3.675710 0.000000 0.000000 
#    y 0.000000 3.749750 0.000000 
#    z 0.000000 0.000000 3.756610 
# 
# 
# High freq. dielectric constant tensor:
#      x y z
#    x 1.774140 0.000000 0.000000 
#    y 0.000000 1.795920 0.000000 
#    z 0.000000 0.000000 1.792840 
# 
# From -- ./inp_files/23320.got.cif
#   From: 2010.03.12/outbox.cif.g09.slc.cpg/sg69_12_cif.got.tgz:23320.got - 2010.04.10 23:52:46.
