data_PCOD8285093
_publ_section_title
;
Structure prediction by ZEFSAII (Michael W. Deem and Ramdas Pophale) SiO2 
 PCOD8285093
Probable space group: F M M M
;
_chemical_formula_sum "Si O2"
_cell_formula_units_Z 160
_cell_length_a 27.528428
_cell_length_b 20.266864
_cell_length_c 14.294167
_cell_angle_alpha 90.000000
_cell_angle_beta 90.000000
_cell_angle_gamma 90.000000
_cell_volume 7974.928844
_symmetry_space_group_name_H-M "F M M M"
_symmetry_group_IT_number 69
_symmetry_cell_setting 'orthorhombic'
loop_
_space_group_symop_operation_xyz
x,y,z
-x,-y,z
x,-y,-z
-x,y,-z
-x,-y,-z
x,y,-z
-x,y,z
x,-y,z
x,1/2+y,1/2+z
-x,1/2-y,1/2+z
x,1/2-y,1/2-z
-x,1/2+y,1/2-z
-x,1/2-y,1/2-z
x,1/2+y,1/2-z
-x,1/2+y,1/2+z
x,1/2-y,1/2+z
1/2+x,y,1/2+z
1/2-x,-y,1/2+z
1/2+x,-y,1/2-z
1/2-x,y,1/2-z
1/2-x,-y,1/2-z
1/2+x,y,1/2-z
1/2-x,y,1/2+z
1/2+x,-y,1/2+z
1/2+x,1/2+y,z
1/2-x,1/2-y,z
1/2+x,1/2-y,-z
1/2-x,1/2+y,-z
1/2-x,1/2-y,-z
1/2+x,1/2+y,-z
1/2-x,1/2+y,z
1/2+x,1/2-y,z
loop_
_atom_site_type_symbol
_atom_site_label
_atom_site_fract_x
_atom_site_fract_y
_atom_site_fract_z
Si Si1 0.553379 0.246079 0.890664
Si Si2 0.445292 0.000000 0.690554
Si Si3 0.194079 0.328134 0.744941
Si Si4 0.113394 0.376070 0.389559
Si Si5 0.875239 0.862333 0.396440
Si Si6 0.924705 0.000000 0.601418
O O1 0.500000 0.246308 0.843833
O O2 0.579392 0.314238 0.868298
O O3 0.583866 0.184707 0.848340
O O4 0.547677 0.234550 0.000000
O O5 0.413854 0.062617 0.658224
O O6 0.455414 0.000000 0.802951
O O7 0.500000 0.000000 0.645644
O O8 0.186882 0.250000 0.750000
O O9 0.250000 0.348595 0.750000
O O10 0.166185 0.360996 0.656179
O O11 0.173858 0.359149 0.839370
O O12 0.120699 0.389034 0.500000
O O13 0.864057 0.835215 0.500000
O O14 0.890786 0.937133 0.397678
O O15 0.953953 0.000000 0.500000
#
# Coordination Sequence:
#
# PCOD8285093 Si02
#       6
#    32  16  32  32  32  16
#     4   9  18  34  59  87 118 160 207 252 303 371
#     4  12  25  41  66  97 132 172 212 255 311 379
#     4  11  23  40  65  97 126 159 211 268 325 380
#     4  11  23  42  63  91 129 167 213 263 315 373
#     4  10  20  39  62  88 123 161 206 258 315 375
#     4  10  22  40  63  90 128 167 204 255 312 372
#
# _framework density 20.062874999999998
#
# number of rings (size 3 to 8) (size 9 to 14) (size 15 to 20)
#    0.000    1.600    4.000    0.900    0.000    3.400 
#    0.000    7.000    0.000    2.400    0.000    0.000 
#    0.000    0.000    0.000    0.000    0.000    0.000 
#
# Total GULP energy -495705.525336 kJ/mol
# GULP energy per Si atom -12392.638133 kJ/mol
# Density = 2.001721 g / cm^3
# Si number density = 20.062875 Si / 1000 Ang^3
#
#
#
# Elastic Constant Matrix: (Units=GPa)
#
#
# Indices 1 2 3 4 5 6 
#
# 1 165.3347 61.7370 58.8924 0.0000 0.0000 0.0000
# 2 61.7370 135.8788 31.4538 0.0000 0.0000 0.0000
# 3 58.8924 31.4538 128.7553 0.0000 0.0000 0.0000
# 4 0.0000 0.0000 0.0000 -8.7394 0.0000 0.0000
# 5 0.0000 0.0000 0.0000 0.0000 -1.4573 0.0000
# 6 0.0000 0.0000 0.0000 0.0000 0.0000 -31.1214
#
#
#
# Elastic Compliance Matrix: (Units=1/GPa)
#
#
# Indices 1 2 3 4 5 6 
#
# 1 0.008271 -0.003055 -0.003037 0.000000 0.000000 0.000000
# 2 -0.003055 0.008929 -0.000784 0.000000 0.000000 0.000000
# 3 -0.003037 -0.000784 0.009347 0.000000 0.000000 0.000000
# 4 0.000000 0.000000 0.000000 -0.114425 0.000000 0.000000
# 5 0.000000 0.000000 0.000000 0.000000 -0.686195 0.000000
# 6 0.000000 0.000000 0.000000 0.000000 0.000000 -0.032132
#
#
# Mechanical properties :
#
#
# Convention : Reuss Voigt Hill
#
# Bulk Modulus (GPa) = 78.15117 81.57056 79.86086
# Shear Modulus (GPa) = -6.34366 10.26208 1.95921
#
# Velocity S-wave (km/s) = -1.78010 2.26408 0.98927
# Velocity P-wave (km/s) = 5.90023 6.89786 6.41846
#
# Compressibility (1/GPa) = 0.01279571
#
# Stress axis : x y z
#
# Youngs Moduli (GPa) = 120.90819 111.99494 106.98402
#
# Poissons Ratio (x) = 0.34213 0.32488
# Poissons Ratio (y) = 0.36936 0.08387
# Poissons Ratio (z) = 0.36717 0.08780
#
# Static dielectric constant tensor:
#      x y z
#    x 3.616630 0.000000 0.000000 
#    y 0.000000 3.801890 0.000000 
#    z 0.000000 0.000000 3.983680 
# 
# 
# High freq. dielectric constant tensor:
#      x y z
#    x 1.768240 0.000000 0.000000 
#    y 0.000000 1.790830 0.000000 
#    z 0.000000 0.000000 1.796070 
# 
# From -- ./inp_files/19571.got.cif
#   From: 2010.03.12/outbox.cif.g09.slc.cpg/sg69_10_cif.got.tgz:19571.got - 2010.04.10 23:52:46.
