data_PCOD8285947
_publ_section_title
;
Structure prediction by ZEFSAII (Michael W. Deem and Ramdas Pophale) SiO2 
 PCOD8285947
Probable space group: F D D D
;
_chemical_formula_sum "Si O2"
_cell_formula_units_Z 112
_cell_length_a 25.951498
_cell_length_b 8.717108
_cell_length_c 22.740428
_cell_angle_alpha 90.000000
_cell_angle_beta 90.000000
_cell_angle_gamma 90.000000
_cell_volume 5144.385349
_symmetry_space_group_name_H-M "F D D D"
_symmetry_group_IT_number 70
_space_group.IT_coordinate_system_code '2'
_symmetry_cell_setting 'orthorhombic'
loop_
_space_group_symop_operation_xyz
x,y,z
1/4-x,1/4-y,z
x,1/4-y,1/4-z
1/4-x,y,1/4-z
-x,-y,-z
3/4+x,3/4+y,-z
-x,3/4+y,3/4+z
3/4+x,-y,3/4+z
x,1/2+y,1/2+z
1/4-x,3/4-y,1/2+z
x,3/4-y,3/4-z
1/4-x,1/2+y,3/4-z
-x,1/2-y,1/2-z
3/4+x,1/4+y,1/2-z
-x,1/4+y,1/4+z
3/4+x,1/2-y,1/4+z
1/2+x,y,1/2+z
3/4-x,1/4-y,1/2+z
1/2+x,1/4-y,3/4-z
3/4-x,y,3/4-z
1/2-x,-y,1/2-z
1/4+x,3/4+y,1/2-z
1/2-x,3/4+y,1/4+z
1/4+x,-y,1/4+z
1/2+x,1/2+y,z
3/4-x,3/4-y,z
1/2+x,3/4-y,1/4-z
3/4-x,1/2+y,1/4-z
1/2-x,1/2-y,-z
1/4+x,1/4+y,-z
1/2-x,1/4+y,3/4+z
1/4+x,1/2-y,3/4+z
loop_
_atom_site_type_symbol
_atom_site_label
_atom_site_fract_x
_atom_site_fract_y
_atom_site_fract_z
Si Si1 0.050061 0.440271 0.467832
Si Si2 0.066840 0.604233 0.351374
Si Si3 0.845871 0.025479 0.432959
Si Si4 0.002018 0.125000 0.625000
O O1 0.069514 0.564888 0.421011
O O2 0.038532 0.279849 0.434734
O O3 0.093992 0.407604 0.517559
O O4 0.000000 0.500000 0.500000
O O5 0.125000 0.625000 0.328528
O O6 0.034896 0.758968 0.339370
O O7 0.875000 0.089544 0.375000
O O8 0.875000 0.875000 0.457056
O O9 0.787201 0.975265 0.418784
#
# Coordination Sequence:
#
# PCOD8285947 Si02
#       4
#    32  32  32  16
#     4  11  22  43  64  95 131 171 217 282 325 393
#     4  11  24  41  65  94 137 171 223 269 341 399
#     4   9  20  39  66  93 129 166 224 261 324 390
#     4  10  19  40  64  94 122 176 217 262 326 396
#
# _framework density 21.771308000000001
#
# number of rings (size 3 to 8) (size 9 to 14) (size 15 to 20)
#    0.000    2.000    2.857    2.571    0.000    1.143 
#   10.286    0.000    0.000    0.000    0.000    0.000 
#    0.000    0.000    0.000    0.000    0.000    0.000 
#
# Total GULP energy -347108.427481 kJ/mol
# GULP energy per Si atom -12396.729553 kJ/mol
# Density = 2.172176 g / cm^3
# Si number density = 21.771308 Si / 1000 Ang^3
#
#
#
# Elastic Constant Matrix: (Units=GPa)
#
#
# Indices 1 2 3 4 5 6 
#
# 1 126.0008 41.5714 32.1087 0.0000 0.0000 0.0000
# 2 41.5714 75.8062 34.1843 0.0000 0.0000 0.0000
# 3 32.1087 34.1843 129.6082 0.0000 0.0000 0.0000
# 4 0.0000 0.0000 0.0000 29.5786 0.0000 0.0000
# 5 0.0000 0.0000 0.0000 0.0000 28.2580 0.0000
# 6 0.0000 0.0000 0.0000 0.0000 0.0000 37.6881
#
#
#
# Elastic Compliance Matrix: (Units=1/GPa)
#
#
# Indices 1 2 3 4 5 6 
#
# 1 0.009839 -0.004876 -0.001151 0.000000 0.000000 0.000000
# 2 -0.004876 0.017389 -0.003378 0.000000 0.000000 0.000000
# 3 -0.001151 -0.003378 0.008892 0.000000 0.000000 0.000000
# 4 0.000000 0.000000 0.000000 0.033808 0.000000 0.000000
# 5 0.000000 0.000000 0.000000 0.000000 0.035388 0.000000
# 6 0.000000 0.000000 0.000000 0.000000 0.000000 0.026534
#
#
# Mechanical properties :
#
#
# Convention : Reuss Voigt Hill
#
# Bulk Modulus (GPa) = 57.77756 60.79378 59.28567
# Shear Modulus (GPa) = 31.96304 34.00832 32.98568
#
# Velocity S-wave (km/s) = 3.83577 3.95659 3.89665
# Velocity P-wave (km/s) = 6.79805 6.98980 6.89459
#
# Compressibility (1/GPa) = 0.01730776
#
# Stress axis : x y z
#
# Youngs Moduli (GPa) = 101.63992 57.50735 112.46284
#
# Poissons Ratio (x) = 0.28042 0.12948
# Poissons Ratio (y) = 0.49562 0.37994
# Poissons Ratio (z) = 0.11702 0.19428
#
# Static dielectric constant tensor:
#      x y z
#    x 3.909330 0.000000 0.000000 
#    y 0.000000 3.963170 0.000000 
#    z 0.000000 0.000000 4.062200 
# 
# 
# High freq. dielectric constant tensor:
#      x y z
#    x 1.847940 0.000000 0.000000 
#    y 0.000000 1.843720 0.000000 
#    z 0.000000 0.000000 1.860770 
# 
# From -- ./inp_files/54041.got.cif
#   From: 2010.03.12/outbox.cif.g09.slc.cpg/sg70_28_cif.got.tgz:54041.got - 2010.04.16 13:46:32.
