data_PCOD8285432
_publ_section_title
;
Structure prediction by ZEFSAII (Michael W. Deem and Ramdas Pophale) SiO2 
 PCOD8285432
Probable space group: F M M M
;
_chemical_formula_sum "Si O2"
_cell_formula_units_Z 88
_cell_length_a 13.272673
_cell_length_b 9.952929
_cell_length_c 35.681562
_cell_angle_alpha 90.000000
_cell_angle_beta 90.000000
_cell_angle_gamma 90.000000
_cell_volume 4713.604705
_symmetry_space_group_name_H-M "F M M M"
_symmetry_group_IT_number 69
_symmetry_cell_setting 'orthorhombic'
loop_
_space_group_symop_operation_xyz
x,y,z
-x,-y,z
x,-y,-z
-x,y,-z
-x,-y,-z
x,y,-z
-x,y,z
x,-y,z
x,1/2+y,1/2+z
-x,1/2-y,1/2+z
x,1/2-y,1/2-z
-x,1/2+y,1/2-z
-x,1/2-y,1/2-z
x,1/2+y,1/2-z
-x,1/2+y,1/2+z
x,1/2-y,1/2+z
1/2+x,y,1/2+z
1/2-x,-y,1/2+z
1/2+x,-y,1/2-z
1/2-x,y,1/2-z
1/2-x,-y,1/2-z
1/2+x,y,1/2-z
1/2-x,y,1/2+z
1/2+x,-y,1/2+z
1/2+x,1/2+y,z
1/2-x,1/2-y,z
1/2+x,1/2-y,-z
1/2-x,1/2+y,-z
1/2-x,1/2-y,-z
1/2+x,1/2+y,-z
1/2-x,1/2+y,z
1/2+x,1/2-y,z
loop_
_atom_site_type_symbol
_atom_site_label
_atom_site_fract_x
_atom_site_fract_y
_atom_site_fract_z
Si Si1 0.881812 0.849441 0.000000
Si Si2 0.206169 0.000000 0.615524
Si Si3 0.000000 0.500000 0.839545
Si Si4 0.000000 0.225255 0.793702
Si Si5 0.250000 0.750000 0.935896
Si Si6 0.106422 0.500000 0.669952
O O1 0.845377 0.778259 0.962231
O O2 0.000000 0.845076 0.000000
O O3 0.838639 0.000000 0.000000
O O4 0.217728 0.871018 0.590091
O O5 0.293149 0.000000 0.646493
O O6 0.097930 0.000000 0.634511
O O7 0.000000 0.367762 0.814245
O O8 0.000000 0.250000 0.750000
O O9 0.900318 0.136381 0.804663
O O10 0.000000 0.500000 0.645365
#
# Coordination Sequence:
#
# PCOD8285432 Si02
#       6
#    16  16   8  16  16  16
#     4  10  22  43  62  89 116 155 215 246 301 375
#     4  12  24  40  59  91 129 161 201 243 320 349
#     4  12  24  36  60  95 126 150 208 262 284 357
#     4   9  19  41  65  89 121 157 204 250 302 349
#     4  11  24  40  62  88 119 164 198 256 301 368
#     4   8  21  40  60  84 124 163 197 242 297 383
#
# _framework density 18.669364000000002
#
# number of rings (size 3 to 8) (size 9 to 14) (size 15 to 20)
#    1.091    0.545    1.818    3.273    2.545    1.455 
#    0.000    6.364    0.000    0.000    0.000    0.000 
#    0.000    0.000    0.000    0.000    0.000    0.000 
#
# Total GULP energy -272604.653642 kJ/mol
# GULP energy per Si atom -12391.120620 kJ/mol
# Density = 1.862687 g / cm^3
# Si number density = 18.669364 Si / 1000 Ang^3
#
#
#
# Elastic Constant Matrix: (Units=GPa)
#
#
# Indices 1 2 3 4 5 6 
#
# 1 127.4500 52.7542 80.5263 0.0000 0.0000 0.0000
# 2 52.7542 189.9709 99.3535 0.0000 0.0000 0.0000
# 3 80.5263 99.3535 166.0227 0.0000 0.0000 0.0000
# 4 0.0000 0.0000 0.0000 46.2633 0.0000 0.0000
# 5 0.0000 0.0000 0.0000 0.0000 11.7536 0.0000
# 6 0.0000 0.0000 0.0000 0.0000 0.0000 74.0128
#
#
#
# Elastic Compliance Matrix: (Units=1/GPa)
#
#
# Indices 1 2 3 4 5 6 
#
# 1 0.011334 -0.000396 -0.005260 0.000000 0.000000 0.000000
# 2 -0.000396 0.007676 -0.004401 0.000000 0.000000 0.000000
# 3 -0.005260 -0.004401 0.011208 0.000000 0.000000 0.000000
# 4 0.000000 0.000000 0.000000 0.021615 0.000000 0.000000
# 5 0.000000 0.000000 0.000000 0.000000 0.085080 0.000000
# 6 0.000000 0.000000 0.000000 0.000000 0.000000 0.013511
#
#
# Mechanical properties :
#
#
# Convention : Reuss Voigt Hill
#
# Bulk Modulus (GPa) = 98.98330 105.41240 102.19785
# Shear Modulus (GPa) = 28.75091 43.12658 35.93875
#
# Velocity S-wave (km/s) = 3.92855 4.81148 4.39226
# Velocity P-wave (km/s) = 8.58558 9.35160 8.97677
#
# Compressibility (1/GPa) = 0.01010271
#
# Stress axis : x y z
#
# Youngs Moduli (GPa) = 88.23256 130.27882 89.21907
#
# Poissons Ratio (x) = 0.05164 0.46929
# Poissons Ratio (y) = 0.03497 0.39267
# Poissons Ratio (z) = 0.46410 0.57339
#
# Static dielectric constant tensor:
#      x y z
#    x 3.290380 0.000000 0.000000 
#    y 0.000000 3.925570 0.000000 
#    z 0.000000 0.000000 3.438120 
# 
# 
# High freq. dielectric constant tensor:
#      x y z
#    x 1.713120 0.000000 0.000000 
#    y 0.000000 1.750690 0.000000 
#    z 0.000000 0.000000 1.726440 
# 
# From -- ./inp_files/35414.got.cif
#   From: 2010.03.12/outbox.cif.g09.slc.cpg/sg69_18_cif.got.tgz:35414.got - 2010.04.10 23:52:46.
