data_PCOD8285482
_publ_section_title
;
Structure prediction by ZEFSAII (Michael W. Deem and Ramdas Pophale) SiO2 
 PCOD8285482
Probable space group: F M M M
;
_chemical_formula_sum "Si O2"
_cell_formula_units_Z 160
_cell_length_a 27.383786
_cell_length_b 20.978524
_cell_length_c 15.978901
_cell_angle_alpha 90.000000
_cell_angle_beta 90.000000
_cell_angle_gamma 90.000000
_cell_volume 9179.421817
_symmetry_space_group_name_H-M "F M M M"
_symmetry_group_IT_number 69
_symmetry_cell_setting 'orthorhombic'
loop_
_space_group_symop_operation_xyz
x,y,z
-x,-y,z
x,-y,-z
-x,y,-z
-x,-y,-z
x,y,-z
-x,y,z
x,-y,z
x,1/2+y,1/2+z
-x,1/2-y,1/2+z
x,1/2-y,1/2-z
-x,1/2+y,1/2-z
-x,1/2-y,1/2-z
x,1/2+y,1/2-z
-x,1/2+y,1/2+z
x,1/2-y,1/2+z
1/2+x,y,1/2+z
1/2-x,-y,1/2+z
1/2+x,-y,1/2-z
1/2-x,y,1/2-z
1/2-x,-y,1/2-z
1/2+x,y,1/2-z
1/2-x,y,1/2+z
1/2+x,-y,1/2+z
1/2+x,1/2+y,z
1/2-x,1/2-y,z
1/2+x,1/2-y,-z
1/2-x,1/2+y,-z
1/2-x,1/2-y,-z
1/2+x,1/2+y,-z
1/2-x,1/2+y,z
1/2+x,1/2-y,z
loop_
_atom_site_type_symbol
_atom_site_label
_atom_site_fract_x
_atom_site_fract_y
_atom_site_fract_z
Si Si1 0.760821 0.070710 0.845338
Si Si2 0.553661 0.250451 0.000000
Si Si3 0.445789 0.098269 0.500000
Si Si4 0.618369 0.749967 0.656606
Si Si5 0.358350 0.114104 0.593606
Si Si6 0.287490 0.195938 0.095571
O O1 0.750000 0.086529 0.750000
O O2 0.819420 0.069557 0.859982
O O3 0.734906 0.125102 0.899563
O O4 0.741126 0.000000 0.869451
O O5 0.549405 0.326143 0.000000
O O6 0.579937 0.228396 0.085550
O O7 0.500000 0.219236 0.000000
O O8 0.500000 0.066139 0.500000
O O9 0.412581 0.080294 0.582323
O O10 0.595007 0.750000 0.750000
O O11 0.638364 0.820582 0.643125
O O12 0.663959 0.701138 0.652171
O O13 0.338588 0.130053 0.500000
O O14 0.250000 0.250000 0.127328
O O15 0.302308 0.209805 0.000000
#
# Coordination Sequence:
#
# PCOD8285482 Si02
#       6
#    32  16  16  32  32  32
#     4  11  23  35  48  74 108 145 184 223 268 323
#     4   9  18  34  48  72 109 137 173 221 271 325
#     4   7  14  28  52  74  96 130 171 222 264 311
#     4  11  19  31  52  78 105 138 180 220 267 315
#     4   9  17  32  52  71 103 140 176 214 266 322
#     4  11  21  32  52  76 105 139 183 220 254 317
#
# _framework density 17.430291
#
# number of rings (size 3 to 8) (size 9 to 14) (size 15 to 20)
#    0.600    1.400    4.000    1.800    0.000    2.000 
#    0.000    0.000    0.000    1.200    0.000    0.000 
#    0.000    3.200    0.000    0.000    0.000    0.000 
#
# Total GULP energy -495522.843612 kJ/mol
# GULP energy per Si atom -12388.071090 kJ/mol
# Density = 1.739062 g / cm^3
# Si number density = 17.430291 Si / 1000 Ang^3
#
#
#
# Elastic Constant Matrix: (Units=GPa)
#
#
# Indices 1 2 3 4 5 6 
#
# 1 130.0145 19.5040 51.7523 0.0000 0.0000 0.0000
# 2 19.5040 69.7484 14.5589 0.0000 0.0000 0.0000
# 3 51.7523 14.5589 111.5717 0.0000 0.0000 0.0000
# 4 0.0000 0.0000 0.0000 -14.7749 0.0000 0.0000
# 5 0.0000 0.0000 0.0000 0.0000 16.7726 0.0000
# 6 0.0000 0.0000 0.0000 0.0000 0.0000 5.3660
#
#
#
# Elastic Compliance Matrix: (Units=1/GPa)
#
#
# Indices 1 2 3 4 5 6 
#
# 1 0.009651 -0.001814 -0.004240 0.000000 0.000000 0.000000
# 2 -0.001814 0.015080 -0.001126 0.000000 0.000000 0.000000
# 3 -0.004240 -0.001126 0.011077 0.000000 0.000000 0.000000
# 4 0.000000 0.000000 0.000000 -0.067682 0.000000 0.000000
# 5 0.000000 0.000000 0.000000 0.000000 0.059621 0.000000
# 6 0.000000 0.000000 0.000000 0.000000 0.000000 0.186357
#
#
# Mechanical properties :
#
#
# Convention : Reuss Voigt Hill
#
# Bulk Modulus (GPa) = 46.62669 53.66279 50.14474
# Shear Modulus (GPa) = 21.22123 16.50737 18.86430
#
# Velocity S-wave (km/s) = 3.49304 3.08076 3.29336
# Velocity P-wave (km/s) = 6.56330 6.59611 6.57973
#
# Compressibility (1/GPa) = 0.02144695
#
# Stress axis : x y z
#
# Youngs Moduli (GPa) = 103.61302 66.31493 90.28069
#
# Poissons Ratio (x) = 0.12028 0.38279
# Poissons Ratio (y) = 0.18793 0.10169
# Poissons Ratio (z) = 0.43932 0.07470
#
# Static dielectric constant tensor:
#      x y z
#    x 3.559550 0.000000 0.000000 
#    y 0.000000 2.932280 0.000000 
#    z 0.000000 0.000000 3.190720 
# 
# 
# High freq. dielectric constant tensor:
#      x y z
#    x 1.664390 0.000000 0.000000 
#    y 0.000000 1.645490 0.000000 
#    z 0.000000 0.000000 1.665090 
# 
# From -- ./inp_files/18919.got.cif
#   From: 2010.03.12/outbox.cif.g09.slc.cpg/sg69_10_cif.got.tgz:18919.got - 2010.04.10 23:52:46.
