data_PCOD8285566
_publ_section_title
;
Structure prediction by ZEFSAII (Michael W. Deem and Ramdas Pophale) SiO2 
 PCOD8285566
Probable space group: F M M M
;
_chemical_formula_sum "Si O2"
_cell_formula_units_Z 144
_cell_length_a 19.027068
_cell_length_b 18.432628
_cell_length_c 21.327386
_cell_angle_alpha 90.000000
_cell_angle_beta 90.000000
_cell_angle_gamma 90.000000
_cell_volume 7479.916641
_symmetry_space_group_name_H-M "F M M M"
_symmetry_group_IT_number 69
_symmetry_cell_setting 'orthorhombic'
loop_
_space_group_symop_operation_xyz
x,y,z
-x,-y,z
x,-y,-z
-x,y,-z
-x,-y,-z
x,y,-z
-x,y,z
x,-y,z
x,1/2+y,1/2+z
-x,1/2-y,1/2+z
x,1/2-y,1/2-z
-x,1/2+y,1/2-z
-x,1/2-y,1/2-z
x,1/2+y,1/2-z
-x,1/2+y,1/2+z
x,1/2-y,1/2+z
1/2+x,y,1/2+z
1/2-x,-y,1/2+z
1/2+x,-y,1/2-z
1/2-x,y,1/2-z
1/2-x,-y,1/2-z
1/2+x,y,1/2-z
1/2-x,y,1/2+z
1/2+x,-y,1/2+z
1/2+x,1/2+y,z
1/2-x,1/2-y,z
1/2+x,1/2-y,-z
1/2-x,1/2+y,-z
1/2-x,1/2-y,-z
1/2+x,1/2+y,-z
1/2-x,1/2+y,z
1/2+x,1/2-y,z
loop_
_atom_site_type_symbol
_atom_site_label
_atom_site_fract_x
_atom_site_fract_y
_atom_site_fract_z
Si Si1 0.316731 0.324384 0.073689
Si Si2 0.838585 0.664338 0.110569
Si Si3 0.417019 0.915277 0.000000
Si Si4 0.417688 0.084086 0.215867
Si Si5 0.576797 0.915652 0.641781
O O1 0.243847 0.352490 0.103100
O O2 0.346489 0.250793 0.104314
O O3 0.372802 0.385518 0.088349
O O4 0.306257 0.312217 0.000000
O O5 0.884812 0.621693 0.060628
O O6 0.867139 0.637650 0.177442
O O7 0.500000 0.902708 0.000000
O O8 0.397933 0.000000 0.000000
O O9 0.500000 0.101207 0.203661
O O10 0.396866 0.099865 0.287744
O O11 0.402858 0.000000 0.198367
O O12 0.500000 0.880313 0.632679
O O13 0.571657 0.000000 0.630099
#
# Coordination Sequence:
#
# PCOD8285566 Si02
#       5
#    32  32  16  32  32
#     4  11  23  41  58  79 119 162 197 236 283 337
#     4  11  21  39  58  82 120 155 187 235 290 348
#     4  11  22  35  56  88 118 147 186 231 284 348
#     4   9  19  38  62  88 119 149 184 241 302 351
#     4   9  21  41  61  84 114 149 197 250 291 336
#
# _framework density 19.251550000000002
#
# number of rings (size 3 to 8) (size 9 to 14) (size 15 to 20)
#    0.000    1.889    2.222    3.333    0.000    8.000 
#    0.000    7.778    0.000    0.000    0.000    0.000 
#    0.000    0.000    0.000    0.000    0.000    0.000 
#
# Total GULP energy -446362.049565 kJ/mol
# GULP energy per Si atom -12398.945821 kJ/mol
# Density = 1.920773 g / cm^3
# Si number density = 19.251550 Si / 1000 Ang^3
#
#
#
# Elastic Constant Matrix: (Units=GPa)
#
#
# Indices 1 2 3 4 5 6 
#
# 1 106.5017 57.6531 39.1903 0.0000 0.0000 0.0000
# 2 57.6531 57.7877 32.8602 0.0000 0.0000 0.0000
# 3 39.1903 32.8602 47.2312 0.0000 0.0000 0.0000
# 4 0.0000 0.0000 0.0000 53.1253 0.0000 0.0000
# 5 0.0000 0.0000 0.0000 0.0000 25.1489 0.0000
# 6 0.0000 0.0000 0.0000 0.0000 0.0000 40.0004
#
#
#
# Elastic Compliance Matrix: (Units=1/GPa)
#
#
# Indices 1 2 3 4 5 6 
#
# 1 0.021033 -0.018300 -0.004720 0.000000 0.000000 0.000000
# 2 -0.018300 0.044554 -0.015813 0.000000 0.000000 0.000000
# 3 -0.004720 -0.015813 0.036091 0.000000 0.000000 0.000000
# 4 0.000000 0.000000 0.000000 0.018823 0.000000 0.000000
# 5 0.000000 0.000000 0.000000 0.000000 0.039763 0.000000
# 6 0.000000 0.000000 0.000000 0.000000 0.000000 0.025000
#
#
# Mechanical properties :
#
#
# Convention : Reuss Voigt Hill
#
# Bulk Modulus (GPa) = 41.64765 52.32531 46.98648
# Shear Modulus (GPa) = 18.45472 29.10939 23.78206
#
# Velocity S-wave (km/s) = 3.09950 3.89273 3.51854
# Velocity P-wave (km/s) = 5.87278 6.88791 6.40050
#
# Compressibility (1/GPa) = 0.02401096
#
# Stress axis : x y z
#
# Youngs Moduli (GPa) = 47.54492 22.44492 27.70782
#
# Poissons Ratio (x) = 0.41073 0.13079
# Poissons Ratio (y) = 0.87005 0.43815
# Poissons Ratio (z) = 0.22443 0.35492
#
# Static dielectric constant tensor:
#      x y z
#    x 3.634930 0.000000 0.000000 
#    y 0.000000 3.456970 0.000000 
#    z 0.000000 0.000000 3.536650 
# 
# 
# High freq. dielectric constant tensor:
#      x y z
#    x 1.755160 0.000000 0.000000 
#    y 0.000000 1.747020 0.000000 
#    z 0.000000 0.000000 1.750170 
# 
# From -- ./inp_files/30726.got.cif
#   From: 2010.03.12/outbox.cif.g09.slc.cpg/sg69_16_cif.got.tgz:30726.got - 2010.04.10 23:52:46.
