data_PCOD8285696
_publ_section_title
;
Structure prediction by ZEFSAII (Michael W. Deem and Ramdas Pophale) SiO2 
 PCOD8285696
Probable space group: F M M M
;
_chemical_formula_sum "Si O2"
_cell_formula_units_Z 88
_cell_length_a 9.624549
_cell_length_b 21.123654
_cell_length_c 25.712071
_cell_angle_alpha 90.000000
_cell_angle_beta 90.000000
_cell_angle_gamma 90.000000
_cell_volume 5227.409127
_symmetry_space_group_name_H-M "F M M M"
_symmetry_group_IT_number 69
_symmetry_cell_setting 'orthorhombic'
loop_
_space_group_symop_operation_xyz
x,y,z
-x,-y,z
x,-y,-z
-x,y,-z
-x,-y,-z
x,y,-z
-x,y,z
x,-y,z
x,1/2+y,1/2+z
-x,1/2-y,1/2+z
x,1/2-y,1/2-z
-x,1/2+y,1/2-z
-x,1/2-y,1/2-z
x,1/2+y,1/2-z
-x,1/2+y,1/2+z
x,1/2-y,1/2+z
1/2+x,y,1/2+z
1/2-x,-y,1/2+z
1/2+x,-y,1/2-z
1/2-x,y,1/2-z
1/2-x,-y,1/2-z
1/2+x,y,1/2-z
1/2-x,y,1/2+z
1/2+x,-y,1/2+z
1/2+x,1/2+y,z
1/2-x,1/2-y,z
1/2+x,1/2-y,-z
1/2-x,1/2+y,-z
1/2-x,1/2-y,-z
1/2+x,1/2+y,-z
1/2-x,1/2+y,z
1/2+x,1/2-y,z
loop_
_atom_site_type_symbol
_atom_site_label
_atom_site_fract_x
_atom_site_fract_y
_atom_site_fract_z
Si Si1 0.155263 0.371819 0.705198
Si Si2 0.750000 0.750000 0.250000
Si Si3 0.160167 0.425608 0.596398
Si Si4 0.158002 0.924730 0.500000
O O1 0.250000 0.404334 0.750000
O O2 0.157216 0.295315 0.712736
O O3 0.211132 0.389921 0.648321
O O4 0.000000 0.398268 0.711682
O O5 0.178887 0.500000 0.605201
O O6 0.259271 0.400185 0.550559
O O7 0.000000 0.409476 0.582681
O O8 0.000000 0.898327 0.500000
O O9 0.157484 0.000000 0.500000
#
# Coordination Sequence:
#
# PCOD8285696 Si02
#       4
#    32   8  32  16
#     4   9  18  30  47  68  91 121 154 188 226 269
#     4   8  18  32  48  66  90 120 158 190 224 268
#     4   9  17  30  47  68  94 124 153 182 222 274
#     4   9  17  29  45  68  95 122 151 184 224 269
#
# _framework density 16.834344000000002
#
# number of rings (size 3 to 8) (size 9 to 14) (size 15 to 20)
#    1.091    2.000    0.000    1.091    0.000    4.364 
#    0.000    0.000    0.000    1.091    0.000    0.000 
#    0.000    0.000    0.000    0.000    0.000    0.000 
#
# Total GULP energy -272597.819085 kJ/mol
# GULP energy per Si atom -12390.809958 kJ/mol
# Density = 1.679603 g / cm^3
# Si number density = 16.834344 Si / 1000 Ang^3
#
#
#
# Elastic Constant Matrix: (Units=GPa)
#
#
# Indices 1 2 3 4 5 6 
#
# 1 105.7732 15.2828 89.0870 0.0000 0.0000 0.0000
# 2 15.2828 32.2883 38.5308 0.0000 0.0000 0.0000
# 3 89.0870 38.5308 183.2379 0.0000 0.0000 0.0000
# 4 0.0000 0.0000 0.0000 6.4440 0.0000 0.0000
# 5 0.0000 0.0000 0.0000 0.0000 35.6213 0.0000
# 6 0.0000 0.0000 0.0000 0.0000 0.0000 14.9614
#
#
#
# Elastic Compliance Matrix: (Units=1/GPa)
#
#
# Indices 1 2 3 4 5 6 
#
# 1 0.016137 0.002302 -0.008330 0.000000 0.000000 0.000000
# 2 0.002302 0.041674 -0.009882 0.000000 0.000000 0.000000
# 3 -0.008330 -0.009882 0.011585 0.000000 0.000000 0.000000
# 4 0.000000 0.000000 0.000000 0.155183 0.000000 0.000000
# 5 0.000000 0.000000 0.000000 0.000000 0.028073 0.000000
# 6 0.000000 0.000000 0.000000 0.000000 0.000000 0.066839
#
#
# Mechanical properties :
#
#
# Convention : Reuss Voigt Hill
#
# Bulk Modulus (GPa) = 26.61227 67.45564 47.03395
# Shear Modulus (GPa) = 13.74240 23.29859 18.52049
#
# Velocity S-wave (km/s) = 2.86025 3.72424 3.32047
# Velocity P-wave (km/s) = 5.17211 7.65836 6.53457
#
# Compressibility (1/GPa) = 0.03757666
#
# Stress axis : x y z
#
# Youngs Moduli (GPa) = 61.96861 23.99552 86.31730
#
# Poissons Ratio (x) = -0.05524 0.71899
# Poissons Ratio (y) = -0.14265 0.85302
# Poissons Ratio (z) = 0.51618 0.23713
#
# Static dielectric constant tensor:
#      x y z
#    x 3.158210 0.000000 0.000000 
#    y 0.000000 2.725290 0.000000 
#    z 0.000000 0.000000 3.216260 
# 
# 
# High freq. dielectric constant tensor:
#      x y z
#    x 1.650010 0.000000 0.000000 
#    y 0.000000 1.601830 0.000000 
#    z 0.000000 0.000000 1.653900 
# 
# From -- ./inp_files/3066.got.cif
#   From: 2010.03.12/outbox.cif.g09.slc.cpg/sg69_2_cif.got.tgz:3066.got - 2010.04.10 23:52:46.
