data_PCOD8285485
_publ_section_title
;
Structure prediction by ZEFSAII (Michael W. Deem and Ramdas Pophale) SiO2 
 PCOD8285485
Probable space group: F M M M
;
_chemical_formula_sum "Si O2"
_cell_formula_units_Z 176
_cell_length_a 14.268128
_cell_length_b 22.468182
_cell_length_c 31.651078
_cell_angle_alpha 90.000000
_cell_angle_beta 90.000000
_cell_angle_gamma 90.000000
_cell_volume 10146.667665
_symmetry_space_group_name_H-M "F M M M"
_symmetry_group_IT_number 69
_symmetry_cell_setting 'orthorhombic'
loop_
_space_group_symop_operation_xyz
x,y,z
-x,-y,z
x,-y,-z
-x,y,-z
-x,-y,-z
x,y,-z
-x,y,z
x,-y,z
x,1/2+y,1/2+z
-x,1/2-y,1/2+z
x,1/2-y,1/2-z
-x,1/2+y,1/2-z
-x,1/2-y,1/2-z
x,1/2+y,1/2-z
-x,1/2+y,1/2+z
x,1/2-y,1/2+z
1/2+x,y,1/2+z
1/2-x,-y,1/2+z
1/2+x,-y,1/2-z
1/2-x,y,1/2-z
1/2-x,-y,1/2-z
1/2+x,y,1/2-z
1/2-x,y,1/2+z
1/2+x,-y,1/2+z
1/2+x,1/2+y,z
1/2-x,1/2-y,z
1/2+x,1/2-y,-z
1/2-x,1/2+y,-z
1/2-x,1/2-y,-z
1/2+x,1/2+y,-z
1/2-x,1/2+y,z
1/2+x,1/2-y,z
loop_
_atom_site_type_symbol
_atom_site_label
_atom_site_fract_x
_atom_site_fract_y
_atom_site_fract_z
Si Si1 0.601993 0.351743 0.549485
Si Si2 0.647518 0.725295 0.954002
Si Si3 0.791428 0.112010 0.909950
Si Si4 0.104015 0.570451 0.239504
Si Si5 0.391899 0.000000 0.450047
Si Si6 0.227816 0.070464 0.817438
O O1 0.628187 0.355328 0.500000
O O2 0.500000 0.381901 0.558362
O O3 0.589874 0.282153 0.563067
O O4 0.683264 0.385150 0.575036
O O5 0.750000 0.750000 0.960641
O O6 0.647852 0.670509 0.921433
O O7 0.609250 0.703365 0.000000
O O8 0.792257 0.106493 0.859737
O O9 0.840899 0.057151 0.931847
O O10 0.098371 0.500000 0.239163
O O11 0.147913 0.589951 0.284257
O O12 0.170952 0.590466 0.200985
O O13 0.000000 0.598474 0.234160
O O14 0.500000 0.000000 0.435548
O O15 0.382271 0.000000 0.500000
O O16 0.225435 0.000000 0.826389
#
# Coordination Sequence:
#
# PCOD8285485 Si02
#       6
#    32  32  32  32  16  32
#     4   9  18  33  53  74  95 126 171 218 258 289
#     4   8  15  29  49  69  91 125 167 209 248 276
#     4  11  19  32  50  73 104 133 162 206 247 292
#     4   8  15  29  48  64  89 125 160 200 242 284
#     4  11  24  36  45  64 101 147 178 192 227 295
#     4   9  17  29  44  71  98 125 162 194 237 296
#
# _framework density 17.345597000000001
#
# number of rings (size 3 to 8) (size 9 to 14) (size 15 to 20)
#    0.000    2.818    0.909    3.818    0.000    2.182 
#    0.000    2.273    0.000    1.636    0.000   22.909 
#    0.000   18.909    0.000    0.000    0.000    0.000 
#
# Total GULP energy -545208.053667 kJ/mol
# GULP energy per Si atom -12391.092129 kJ/mol
# Density = 1.730612 g / cm^3
# Si number density = 17.345597 Si / 1000 Ang^3
#
#
#
# Elastic Constant Matrix: (Units=GPa)
#
#
# Indices 1 2 3 4 5 6 
#
# 1 106.7404 29.6598 36.3221 0.0000 0.0000 0.0000
# 2 29.6598 67.9366 43.7434 0.0000 0.0000 0.0000
# 3 36.3221 43.7434 110.4015 0.0000 0.0000 0.0000
# 4 0.0000 0.0000 0.0000 17.8820 0.0000 0.0000
# 5 0.0000 0.0000 0.0000 0.0000 13.9441 0.0000
# 6 0.0000 0.0000 0.0000 0.0000 0.0000 15.3460
#
#
#
# Elastic Compliance Matrix: (Units=1/GPa)
#
#
# Indices 1 2 3 4 5 6 
#
# 1 0.011088 -0.003346 -0.002323 0.000000 0.000000 0.000000
# 2 -0.003346 0.020770 -0.007129 0.000000 0.000000 0.000000
# 3 -0.002323 -0.007129 0.012647 0.000000 0.000000 0.000000
# 4 0.000000 0.000000 0.000000 0.055922 0.000000 0.000000
# 5 0.000000 0.000000 0.000000 0.000000 0.071715 0.000000
# 6 0.000000 0.000000 0.000000 0.000000 0.000000 0.065164
#
#
# Mechanical properties :
#
#
# Convention : Reuss Voigt Hill
#
# Bulk Modulus (GPa) = 52.87825 56.05880 54.46853
# Shear Modulus (GPa) = 18.57327 21.12464 19.84895
#
# Velocity S-wave (km/s) = 3.27582 3.49358 3.38645
# Velocity P-wave (km/s) = 6.69771 6.97584 6.83819
#
# Compressibility (1/GPa) = 0.01891137
#
# Stress axis : x y z
#
# Youngs Moduli (GPa) = 90.18368 48.14523 79.07252
#
# Poissons Ratio (x) = 0.16107 0.18365
# Poissons Ratio (y) = 0.30172 0.56371
# Poissons Ratio (z) = 0.20945 0.34323
#
# Static dielectric constant tensor:
#      x y z
#    x 3.080380 0.000000 0.000000 
#    y 0.000000 2.631100 0.000000 
#    z 0.000000 0.000000 3.109560 
# 
# 
# High freq. dielectric constant tensor:
#      x y z
#    x 1.682360 0.000000 0.000000 
#    y 0.000000 1.632010 0.000000 
#    z 0.000000 0.000000 1.655820 
# 
# From -- ./inp_files/41100.got.cif
#   From: 2010.03.12/outbox.cif.g09.slc.cpg/sg69_21_cif.got.tgz:41100.got - 2010.04.10 23:52:46.
