data_PCOD8285541
_publ_section_title
;
Structure prediction by ZEFSAII (Michael W. Deem and Ramdas Pophale) SiO2 
 PCOD8285541
Probable space group: F M M M
;
_chemical_formula_sum "Si O2"
_cell_formula_units_Z 112
_cell_length_a 20.871868
_cell_length_b 19.739867
_cell_length_c 13.085920
_cell_angle_alpha 90.000000
_cell_angle_beta 90.000000
_cell_angle_gamma 90.000000
_cell_volume 5391.502397
_symmetry_space_group_name_H-M "F M M M"
_symmetry_group_IT_number 69
_symmetry_cell_setting 'orthorhombic'
loop_
_space_group_symop_operation_xyz
x,y,z
-x,-y,z
x,-y,-z
-x,y,-z
-x,-y,-z
x,y,-z
-x,y,z
x,-y,z
x,1/2+y,1/2+z
-x,1/2-y,1/2+z
x,1/2-y,1/2-z
-x,1/2+y,1/2-z
-x,1/2-y,1/2-z
x,1/2+y,1/2-z
-x,1/2+y,1/2+z
x,1/2-y,1/2+z
1/2+x,y,1/2+z
1/2-x,-y,1/2+z
1/2+x,-y,1/2-z
1/2-x,y,1/2-z
1/2-x,-y,1/2-z
1/2+x,y,1/2-z
1/2-x,y,1/2+z
1/2+x,-y,1/2+z
1/2+x,1/2+y,z
1/2-x,1/2-y,z
1/2+x,1/2-y,-z
1/2-x,1/2+y,-z
1/2-x,1/2-y,-z
1/2+x,1/2+y,-z
1/2-x,1/2+y,z
1/2+x,1/2-y,z
loop_
_atom_site_type_symbol
_atom_site_label
_atom_site_fract_x
_atom_site_fract_y
_atom_site_fract_z
Si Si1 0.929721 0.744303 0.500000
Si Si2 0.112055 0.389787 0.000000
Si Si3 0.246421 0.669867 0.500000
Si Si4 0.426310 0.574915 0.714881
Si Si5 0.155351 0.811353 0.823872
O O1 0.933500 0.824716 0.500000
O O2 0.896084 0.721437 0.397546
O O3 0.000000 0.712258 0.500000
O O4 0.094330 0.434034 0.902372
O O5 0.186553 0.367864 0.000000
O O6 0.250000 0.750000 0.500000
O O7 0.210456 0.652861 0.607064
O O8 0.500000 0.599420 0.726225
O O9 0.418561 0.500000 0.765159
O O10 0.378117 0.628717 0.762808
O O11 0.180602 0.750000 0.750000
#
# Coordination Sequence:
#
# PCOD8285541 Si02
#       5
#    16  16  16  32  32
#     4  11  21  35  59  94 125 150 199 259 303 354
#     4  12  22  38  61  93 124 161 202 251 308 359
#     4  11  22  41  59  92 128 162 202 255 305 358
#     4  11  24  42  63  91 126 162 202 253 313 366
#     4  11  22  39  64  91 122 162 208 251 302 364
#
# _framework density 20.773430000000001
#
# number of rings (size 3 to 8) (size 9 to 14) (size 15 to 20)
#    0.000    0.857    5.714    2.571    0.000    6.286 
#    0.000    7.143    0.000    7.714    0.000    0.000 
#    0.000    0.000    0.000    0.000    0.000    0.000 
#
# Total GULP energy -347059.903425 kJ/mol
# GULP energy per Si atom -12394.996551 kJ/mol
# Density = 2.072615 g / cm^3
# Si number density = 20.773430 Si / 1000 Ang^3
#
#
#
# Elastic Constant Matrix: (Units=GPa)
#
#
# Indices 1 2 3 4 5 6 
#
# 1 95.2659 13.8776 15.3375 0.0000 0.0000 0.0000
# 2 13.8776 88.2283 20.6669 0.0000 0.0000 0.0000
# 3 15.3375 20.6669 103.1550 0.0000 0.0000 0.0000
# 4 0.0000 0.0000 0.0000 18.9277 0.0000 0.0000
# 5 0.0000 0.0000 0.0000 0.0000 27.5972 0.0000
# 6 0.0000 0.0000 0.0000 0.0000 0.0000 15.6521
#
#
#
# Elastic Compliance Matrix: (Units=1/GPa)
#
#
# Indices 1 2 3 4 5 6 
#
# 1 0.010917 -0.001403 -0.001342 0.000000 0.000000 0.000000
# 2 -0.001403 0.012073 -0.002210 0.000000 0.000000 0.000000
# 3 -0.001342 -0.002210 0.010337 0.000000 0.000000 0.000000
# 4 0.000000 0.000000 0.000000 0.052833 0.000000 0.000000
# 5 0.000000 0.000000 0.000000 0.000000 0.036236 0.000000
# 6 0.000000 0.000000 0.000000 0.000000 0.000000 0.063889
#
#
# Mechanical properties :
#
#
# Convention : Reuss Voigt Hill
#
# Bulk Modulus (GPa) = 42.70551 42.93480 42.82015
# Shear Modulus (GPa) = 24.50987 28.21987 26.36487
#
# Velocity S-wave (km/s) = 3.43864 3.68973 3.56640
# Velocity P-wave (km/s) = 6.03060 6.23419 6.13324
#
# Compressibility (1/GPa) = 0.02341618
#
# Stress axis : x y z
#
# Youngs Moduli (GPa) = 91.59713 82.83216 96.74440
#
# Poissons Ratio (x) = 0.11620 0.12985
# Poissons Ratio (y) = 0.12849 0.21382
# Poissons Ratio (z) = 0.12294 0.18307
#
# Static dielectric constant tensor:
#      x y z
#    x 2.961970 0.000000 0.000000 
#    y 0.000000 3.302020 0.000000 
#    z 0.000000 0.000000 4.038640 
# 
# 
# High freq. dielectric constant tensor:
#      x y z
#    x 1.824610 0.000000 0.000000 
#    y 0.000000 1.794990 0.000000 
#    z 0.000000 0.000000 1.822990 
# 
# From -- ./inp_files/9921.got.cif
#   From: 2010.03.12/outbox.cif.g09.slc.cpg/sg69_5_cif.got.tgz:9921.got - 2010.04.10 23:52:46.
