data_PCOD8285697
_publ_section_title
;
Structure prediction by ZEFSAII (Michael W. Deem and Ramdas Pophale) SiO2 
 PCOD8285697
Probable space group: F M M M
;
_chemical_formula_sum "Si O2"
_cell_formula_units_Z 176
_cell_length_a 19.223328
_cell_length_b 17.433850
_cell_length_c 27.907512
_cell_angle_alpha 90.000000
_cell_angle_beta 90.000000
_cell_angle_gamma 90.000000
_cell_volume 9352.829156
_symmetry_space_group_name_H-M "F M M M"
_symmetry_group_IT_number 69
_symmetry_cell_setting 'orthorhombic'
loop_
_space_group_symop_operation_xyz
x,y,z
-x,-y,z
x,-y,-z
-x,y,-z
-x,-y,-z
x,y,-z
-x,y,z
x,-y,z
x,1/2+y,1/2+z
-x,1/2-y,1/2+z
x,1/2-y,1/2-z
-x,1/2+y,1/2-z
-x,1/2-y,1/2-z
x,1/2+y,1/2-z
-x,1/2+y,1/2+z
x,1/2-y,1/2+z
1/2+x,y,1/2+z
1/2-x,-y,1/2+z
1/2+x,-y,1/2-z
1/2-x,y,1/2-z
1/2-x,-y,1/2-z
1/2+x,y,1/2-z
1/2-x,y,1/2+z
1/2+x,-y,1/2+z
1/2+x,1/2+y,z
1/2-x,1/2-y,z
1/2+x,1/2-y,-z
1/2-x,1/2+y,-z
1/2-x,1/2-y,-z
1/2+x,1/2+y,-z
1/2-x,1/2+y,z
1/2+x,1/2-y,z
loop_
_atom_site_type_symbol
_atom_site_label
_atom_site_fract_x
_atom_site_fract_y
_atom_site_fract_z
Si Si1 0.081258 0.410579 0.636350
Si Si2 0.081846 0.668914 0.267888
Si Si3 0.816176 0.408948 0.445935
Si Si4 0.332098 0.591415 0.412393
Si Si5 0.422603 0.408649 0.500000
Si Si6 0.077437 0.589763 0.173267
O O1 0.095922 0.500000 0.647355
O O2 0.111324 0.361189 0.681226
O O3 0.120345 0.383328 0.588121
O O4 0.000000 0.395959 0.627807
O O5 0.113854 0.750000 0.250000
O O6 0.101018 0.607018 0.227319
O O7 0.000000 0.677046 0.274584
O O8 0.826355 0.375986 0.500000
O O9 0.811832 0.500000 0.449174
O O10 0.745143 0.376303 0.422216
O O11 0.329614 0.500000 0.411698
O O12 0.382621 0.622117 0.453723
O O13 0.364895 0.624116 0.362987
O O14 0.424949 0.500000 0.500000
O O15 0.500000 0.374156 0.500000
O O16 0.072796 0.500000 0.165525
O O17 0.000000 0.625220 0.163407
#
# Coordination Sequence:
#
# PCOD8285697 Si02
#       6
#    32  32  32  32  16  32
#     4   9  17  29  47  71  95 118 151 196 239 278
#     4   9  17  30  48  69  91 120 154 190 234 281
#     4   9  16  27  43  65  95 126 153 187 233 280
#     4   9  15  24  38  61  92 124 151 178 221 272
#     4   9  14  20  34  58  89 120 151 185 219 262
#     4   9  16  26  43  68  95 120 149 187 228 270
#
# _framework density 18.817836
#
# number of rings (size 3 to 8) (size 9 to 14) (size 15 to 20)
#    0.000    3.000    0.909    1.091    0.000    4.727 
#    0.000    2.727    0.000    6.545    2.364    1.273 
#    0.000    0.000    0.000    0.000    0.000    0.000 
#
# Total GULP energy -545260.261251 kJ/mol
# GULP energy per Si atom -12392.278665 kJ/mol
# Density = 1.877501 g / cm^3
# Si number density = 18.817836 Si / 1000 Ang^3
#
#
#
# Elastic Constant Matrix: (Units=GPa)
#
#
# Indices 1 2 3 4 5 6 
#
# 1 100.0861 19.0769 79.2465 0.0000 0.0000 0.0000
# 2 19.0769 23.2209 25.8243 0.0000 0.0000 0.0000
# 3 79.2465 25.8243 179.3374 0.0000 0.0000 0.0000
# 4 0.0000 0.0000 0.0000 8.4645 0.0000 0.0000
# 5 0.0000 0.0000 0.0000 0.0000 12.0325 0.0000
# 6 0.0000 0.0000 0.0000 0.0000 0.0000 5.6702
#
#
#
# Elastic Compliance Matrix: (Units=1/GPa)
#
#
# Indices 1 2 3 4 5 6 
#
# 1 0.016115 -0.006334 -0.006209 0.000000 0.000000 0.000000
# 2 -0.006334 0.053766 -0.004943 0.000000 0.000000 0.000000
# 3 -0.006209 -0.004943 0.009031 0.000000 0.000000 0.000000
# 4 0.000000 0.000000 0.000000 0.118141 0.000000 0.000000
# 5 0.000000 0.000000 0.000000 0.000000 0.083108 0.000000
# 6 0.000000 0.000000 0.000000 0.000000 0.000000 0.176360
#
#
# Mechanical properties :
#
#
# Convention : Reuss Voigt Hill
#
# Bulk Modulus (GPa) = 22.75839 61.21551 41.98695
# Shear Modulus (GPa) = 9.87869 17.13321 13.50595
#
# Velocity S-wave (km/s) = 2.29370 3.02069 2.68194
# Velocity P-wave (km/s) = 4.37436 6.69083 5.65253
#
# Compressibility (1/GPa) = 0.04393984
#
# Stress axis : x y z
#
# Youngs Moduli (GPa) = 62.05526 18.59920 110.72409
#
# Poissons Ratio (x) = 0.11781 0.68746
# Poissons Ratio (y) = 0.39306 0.54734
# Poissons Ratio (z) = 0.38529 0.09194
#
# Static dielectric constant tensor:
#      x y z
#    x 3.439680 0.000000 0.000000 
#    y 0.000000 2.962050 0.000000 
#    z 0.000000 0.000000 3.732310 
# 
# 
# High freq. dielectric constant tensor:
#      x y z
#    x 1.710700 0.000000 0.000000 
#    y 0.000000 1.670390 0.000000 
#    z 0.000000 0.000000 1.745440 
# 
# From -- ./inp_files/23543.got.cif
#   From: 2010.03.12/outbox.cif.g09.slc.cpg/sg69_12_cif.got.tgz:23543.got - 2010.04.10 23:52:46.
