data_PCOD8285239
_publ_section_title
;
Structure prediction by ZEFSAII (Michael W. Deem and Ramdas Pophale) SiO2 
 PCOD8285239
Probable space group: F M M M
;
_chemical_formula_sum "Si O2"
_cell_formula_units_Z 176
_cell_length_a 21.702095
_cell_length_b 25.335467
_cell_length_c 14.538111
_cell_angle_alpha 90.000000
_cell_angle_beta 90.000000
_cell_angle_gamma 90.000000
_cell_volume 7993.528994
_symmetry_space_group_name_H-M "F M M M"
_symmetry_group_IT_number 69
_symmetry_cell_setting 'orthorhombic'
loop_
_space_group_symop_operation_xyz
x,y,z
-x,-y,z
x,-y,-z
-x,y,-z
-x,-y,-z
x,y,-z
-x,y,z
x,-y,z
x,1/2+y,1/2+z
-x,1/2-y,1/2+z
x,1/2-y,1/2-z
-x,1/2+y,1/2-z
-x,1/2-y,1/2-z
x,1/2+y,1/2-z
-x,1/2+y,1/2+z
x,1/2-y,1/2+z
1/2+x,y,1/2+z
1/2-x,-y,1/2+z
1/2+x,-y,1/2-z
1/2-x,y,1/2-z
1/2-x,-y,1/2-z
1/2+x,y,1/2-z
1/2-x,y,1/2+z
1/2+x,-y,1/2+z
1/2+x,1/2+y,z
1/2-x,1/2-y,z
1/2+x,1/2-y,-z
1/2-x,1/2+y,-z
1/2-x,1/2-y,-z
1/2+x,1/2+y,-z
1/2-x,1/2+y,z
1/2+x,1/2-y,z
loop_
_atom_site_type_symbol
_atom_site_label
_atom_site_fract_x
_atom_site_fract_y
_atom_site_fract_z
Si Si1 0.431103 0.300133 0.101447
Si Si2 0.887937 0.100702 0.206368
Si Si3 0.279968 0.938857 0.603225
Si Si4 0.654335 0.386107 0.396258
Si Si5 0.069170 0.500000 0.599699
Si Si6 0.315502 0.732288 0.645259
O O1 0.500000 0.275982 0.121105
O O2 0.418912 0.344895 0.176349
O O3 0.377684 0.256009 0.101148
O O4 0.430794 0.326010 0.000000
O O5 0.816222 0.099067 0.174299
O O6 0.894966 0.098062 0.317630
O O7 0.919820 0.051440 0.159792
O O8 0.301447 0.924471 0.500000
O O9 0.207514 0.929821 0.611473
O O10 0.295561 0.000000 0.626867
O O11 0.625898 0.386153 0.500000
O O12 0.682649 0.329913 0.369703
O O13 0.105412 0.500000 0.500000
O O14 0.000000 0.500000 0.570667
O O15 0.315447 0.750000 0.750000
O O16 0.250000 0.750000 0.599728
#
# Coordination Sequence:
#
# PCOD8285239 Si02
#       6
#    32  32  32  32  16  32
#     4  11  24  42  68 100 132 170 220 279 342 407
#     4  12  22  39  64  93 130 173 214 268 333 398
#     4  10  21  37  62  96 131 168 214 273 338 399
#     4  11  25  41  60  93 133 175 218 267 326 395
#     4  11  24  42  66  95 125 159 210 274 334 391
#     4  11  23  43  68  98 132 176 227 277 338 400
#
# _framework density 22.017809
#
# number of rings (size 3 to 8) (size 9 to 14) (size 15 to 20)
#    0.000    1.000    2.727    4.364    3.818    5.455 
#    0.000    0.000    0.000    3.818    0.000    0.000 
#    0.000    0.000    0.000    0.000    0.000    0.000 
#
# Total GULP energy -545289.917577 kJ/mol
# GULP energy per Si atom -12392.952672 kJ/mol
# Density = 2.196770 g / cm^3
# Si number density = 22.017809 Si / 1000 Ang^3
#
#
#
# Elastic Constant Matrix: (Units=GPa)
#
#
# Indices 1 2 3 4 5 6 
#
# 1 119.3346 26.8632 37.2576 0.0000 0.0000 0.0000
# 2 26.8632 73.1416 23.5179 0.0000 0.0000 0.0000
# 3 37.2576 23.5179 169.9130 0.0000 0.0000 0.0000
# 4 0.0000 0.0000 0.0000 31.7334 0.0000 0.0000
# 5 0.0000 0.0000 0.0000 0.0000 22.3104 0.0000
# 6 0.0000 0.0000 0.0000 0.0000 0.0000 6.5727
#
#
#
# Elastic Compliance Matrix: (Units=1/GPa)
#
#
# Indices 1 2 3 4 5 6 
#
# 1 0.009576 -0.002974 -0.001688 0.000000 0.000000 0.000000
# 2 -0.002974 0.015233 -0.001456 0.000000 0.000000 0.000000
# 3 -0.001688 -0.001456 0.006457 0.000000 0.000000 0.000000
# 4 0.000000 0.000000 0.000000 0.031513 0.000000 0.000000
# 5 0.000000 0.000000 0.000000 0.000000 0.044822 0.000000
# 6 0.000000 0.000000 0.000000 0.000000 0.000000 0.152144
#
#
# Mechanical properties :
#
#
# Convention : Reuss Voigt Hill
#
# Bulk Modulus (GPa) = 52.55194 59.74072 56.14633
# Shear Modulus (GPa) = 17.96459 30.44001 24.20230
#
# Velocity S-wave (km/s) = 2.85952 3.72226 3.31904
# Velocity P-wave (km/s) = 5.90103 6.75762 6.34380
#
# Compressibility (1/GPa) = 0.01902879
#
# Stress axis : x y z
#
# Youngs Moduli (GPa) = 104.42312 65.64797 154.86854
#
# Poissons Ratio (x) = 0.19526 0.26145
# Poissons Ratio (y) = 0.31059 0.22552
# Poissons Ratio (z) = 0.17628 0.09560
#
# Static dielectric constant tensor:
#      x y z
#    x 4.155410 0.000000 0.000000 
#    y 0.000000 4.485740 0.000000 
#    z 0.000000 0.000000 4.220440 
# 
# 
# High freq. dielectric constant tensor:
#      x y z
#    x 1.852570 0.000000 0.000000 
#    y 0.000000 1.858480 0.000000 
#    z 0.000000 0.000000 1.877280 
# 
# From -- ./inp_files/18095.got.cif
#   From: 2010.03.12/outbox.cif.g09.slc.cpg/sg69_10_cif.got.tgz:18095.got - 2010.04.10 23:52:46.
