data_PCOD8285427
_publ_section_title
;
Structure prediction by ZEFSAII (Michael W. Deem and Ramdas Pophale) SiO2 
 PCOD8285427
Probable space group: F M M M
;
_chemical_formula_sum "Si O2"
_cell_formula_units_Z 160
_cell_length_a 18.065544
_cell_length_b 15.441783
_cell_length_c 28.991729
_cell_angle_alpha 90.000000
_cell_angle_beta 90.000000
_cell_angle_gamma 90.000000
_cell_volume 8087.654784
_symmetry_space_group_name_H-M "F M M M"
_symmetry_group_IT_number 69
_symmetry_cell_setting 'orthorhombic'
loop_
_space_group_symop_operation_xyz
x,y,z
-x,-y,z
x,-y,-z
-x,y,-z
-x,-y,-z
x,y,-z
-x,y,z
x,-y,z
x,1/2+y,1/2+z
-x,1/2-y,1/2+z
x,1/2-y,1/2-z
-x,1/2+y,1/2-z
-x,1/2-y,1/2-z
x,1/2+y,1/2-z
-x,1/2+y,1/2+z
x,1/2-y,1/2+z
1/2+x,y,1/2+z
1/2-x,-y,1/2+z
1/2+x,-y,1/2-z
1/2-x,y,1/2-z
1/2-x,-y,1/2-z
1/2+x,y,1/2-z
1/2-x,y,1/2+z
1/2+x,-y,1/2+z
1/2+x,1/2+y,z
1/2-x,1/2-y,z
1/2+x,1/2-y,-z
1/2-x,1/2+y,-z
1/2-x,1/2-y,-z
1/2+x,1/2+y,-z
1/2-x,1/2+y,z
1/2+x,1/2-y,z
loop_
_atom_site_type_symbol
_atom_site_label
_atom_site_fract_x
_atom_site_fract_y
_atom_site_fract_z
Si Si1 0.335853 0.152669 0.802239
Si Si2 0.587878 0.000000 0.639130
Si Si3 0.789449 0.663165 0.946549
Si Si4 0.917015 0.097847 0.612505
Si Si5 0.312691 0.500000 0.053285
Si Si6 0.665534 0.146501 0.303278
O O1 0.389670 0.097978 0.834694
O O2 0.350254 0.123289 0.749977
O O3 0.354259 0.253380 0.810649
O O4 0.251311 0.131225 0.815654
O O5 0.616317 0.000000 0.586381
O O6 0.615533 0.086221 0.664795
O O7 0.500000 0.000000 0.637963
O O8 0.750000 0.750000 0.929241
O O9 0.865967 0.657600 0.919182
O O10 0.736516 0.583301 0.935287
O O11 0.810003 0.668163 0.000000
O O12 0.000000 0.134970 0.609768
O O13 0.914450 0.000000 0.593813
O O14 0.339410 0.500000 0.000000
#
# Coordination Sequence:
#
# PCOD8285427 Si02
#       6
#    32  16  32  32  16  32
#     4   9  20  40  62  86 117 155 208 254 297 351
#     4  12  26  38  57  91 126 162 200 243 303 365
#     4  10  22  42  68  92 116 156 207 254 300 359
#     4  11  24  37  58  93 128 159 190 245 316 367
#     4  10  22  43  66  90 119 157 210 260 303 357
#     4   9  21  39  62  87 113 160 209 253 293 346
#
# _framework density 19.783238000000001
#
# number of rings (size 3 to 8) (size 9 to 14) (size 15 to 20)
#    0.000    2.000    1.000    2.400    8.400    3.000 
#    0.000    3.000    0.000    3.600    0.000    0.000 
#    0.000    0.000    0.000    0.000    0.000    0.000 
#
# Total GULP energy -496118.912506 kJ/mol
# GULP energy per Si atom -12402.972813 kJ/mol
# Density = 1.973821 g / cm^3
# Si number density = 19.783238 Si / 1000 Ang^3
#
#
#
# Elastic Constant Matrix: (Units=GPa)
#
#
# Indices 1 2 3 4 5 6 
#
# 1 160.6950 63.2683 81.3057 0.0000 0.0000 0.0000
# 2 63.2683 103.8707 43.7663 0.0000 0.0000 0.0000
# 3 81.3057 43.7663 102.7011 0.0000 0.0000 0.0000
# 4 0.0000 0.0000 0.0000 -40.4303 0.0000 0.0000
# 5 0.0000 0.0000 0.0000 0.0000 14.4365 0.0000
# 6 0.0000 0.0000 0.0000 0.0000 0.0000 28.6036
#
#
#
# Elastic Compliance Matrix: (Units=1/GPa)
#
#
# Indices 1 2 3 4 5 6 
#
# 1 0.011532 -0.003873 -0.007479 0.000000 0.000000 0.000000
# 2 -0.003873 0.013035 -0.002489 0.000000 0.000000 0.000000
# 3 -0.007479 -0.002489 0.016719 0.000000 0.000000 0.000000
# 4 0.000000 0.000000 0.000000 -0.024734 0.000000 0.000000
# 5 0.000000 0.000000 0.000000 0.000000 0.069269 0.000000
# 6 0.000000 0.000000 0.000000 0.000000 0.000000 0.034961
#
#
# Mechanical properties :
#
#
# Convention : Reuss Voigt Hill
#
# Bulk Modulus (GPa) = 73.50805 82.66084 78.08444
# Shear Modulus (GPa) = 32.68032 12.45040 22.56536
#
# Velocity S-wave (km/s) = 4.06879 2.51139 3.38099
# Velocity P-wave (km/s) = 7.70135 7.09108 7.40251
#
# Compressibility (1/GPa) = 0.01360395
#
# Stress axis : x y z
#
# Youngs Moduli (GPa) = 86.71586 76.71641 59.81349
#
# Poissons Ratio (x) = 0.29711 0.44735
# Poissons Ratio (y) = 0.33584 0.14887
# Poissons Ratio (z) = 0.64856 0.19094
#
# Static dielectric constant tensor:
#      x y z
#    x 3.412130 0.000000 0.000000 
#    y 0.000000 3.611090 0.000000 
#    z 0.000000 0.000000 3.642080 
# 
# 
# High freq. dielectric constant tensor:
#      x y z
#    x 1.752570 0.000000 0.000000 
#    y 0.000000 1.776540 0.000000 
#    z 0.000000 0.000000 1.780600 
# 
# From -- ./inp_files/46286.got.cif
#   From: 2010.03.12/outbox.cif.g09.slc.cpg/sg69_24_cif.got.tgz:46286.got - 2010.04.10 23:52:46.
