data_PCOD8285977
_publ_section_title
;
Structure prediction by ZEFSAII (Michael W. Deem and Ramdas Pophale) SiO2 
 PCOD8285977
Probable space group: F D D D
;
_chemical_formula_sum "Si O2"
_cell_formula_units_Z 208
_cell_length_a 22.599340
_cell_length_b 31.302322
_cell_length_c 17.526830
_cell_angle_alpha 90.000000
_cell_angle_beta 90.000000
_cell_angle_gamma 90.000000
_cell_volume 12398.686668
_symmetry_space_group_name_H-M "F D D D"
_symmetry_group_IT_number 70
_space_group.IT_coordinate_system_code '2'
_symmetry_cell_setting 'orthorhombic'
loop_
_space_group_symop_operation_xyz
x,y,z
1/4-x,1/4-y,z
x,1/4-y,1/4-z
1/4-x,y,1/4-z
-x,-y,-z
3/4+x,3/4+y,-z
-x,3/4+y,3/4+z
3/4+x,-y,3/4+z
x,1/2+y,1/2+z
1/4-x,3/4-y,1/2+z
x,3/4-y,3/4-z
1/4-x,1/2+y,3/4-z
-x,1/2-y,1/2-z
3/4+x,1/4+y,1/2-z
-x,1/4+y,1/4+z
3/4+x,1/2-y,1/4+z
1/2+x,y,1/2+z
3/4-x,1/4-y,1/2+z
1/2+x,1/4-y,3/4-z
3/4-x,y,3/4-z
1/2-x,-y,1/2-z
1/4+x,3/4+y,1/2-z
1/2-x,3/4+y,1/4+z
1/4+x,-y,1/4+z
1/2+x,1/2+y,z
3/4-x,3/4-y,z
1/2+x,3/4-y,1/4-z
3/4-x,1/2+y,1/4-z
1/2-x,1/2-y,-z
1/4+x,1/4+y,-z
1/2-x,1/4+y,3/4+z
1/4+x,1/2-y,3/4+z
loop_
_atom_site_type_symbol
_atom_site_label
_atom_site_fract_x
_atom_site_fract_y
_atom_site_fract_z
Si Si1 0.198533 0.502915 0.811502
Si Si2 0.731418 0.234874 0.710883
Si Si3 0.408790 0.693051 0.516979
Si Si4 0.630249 0.875000 0.875000
Si Si5 0.961909 0.151333 0.986426
Si Si6 0.425624 0.844211 0.232417
Si Si7 0.125000 0.863277 0.625000
Si Si8 0.375000 0.944373 0.375000
O O1 0.250000 0.500000 0.750000
O O2 0.220316 0.492507 0.895999
O O3 0.149868 0.470013 0.783314
O O4 0.172930 0.550728 0.815672
O O5 0.717523 0.277082 0.761810
O O6 0.755776 0.197230 0.764865
O O7 0.667820 0.223769 0.675016
O O8 0.413648 0.659892 0.587258
O O9 0.403661 0.667248 0.438272
O O10 0.672418 0.853714 0.811808
O O11 0.922858 0.145567 0.910891
O O12 0.009964 0.114188 0.980961
O O13 0.375000 0.875000 0.198094
O O14 0.414155 0.835519 0.321514
#
# Coordination Sequence:
#
# PCOD8285977 Si02
#       8
#    32  32  32  16  32  32  16  16
#     4  12  20  31  50  75 109 146 178 206 264 330
#     4  12  21  33  53  79 110 143 182 218 271 327
#     4  11  20  35  50  78 106 142 179 226 262 325
#     4  10  20  34  53  72 106 147 190 214 264 320
#     4  11  21  36  51  76 107 151 186 224 265 321
#     4  12  22  30  47  77 114 144 171 214 265 327
#     4  10  23  36  53  74 113 147 194 222 265 318
#     4  12  20  28  47  78 116 144 170 200 261 346
#
# _framework density 16.775970000000001
#
# number of rings (size 3 to 8) (size 9 to 14) (size 15 to 20)
#    0.000    0.615    6.154    5.308    0.000    0.000 
#    0.000    0.000    0.000    3.692    4.000    0.000 
#    0.000    0.000    0.000    0.000    0.000    0.000 
#
# Total GULP energy -644791.456068 kJ/mol
# GULP energy per Si atom -12399.835694 kJ/mol
# Density = 1.673779 g / cm^3
# Si number density = 16.775970 Si / 1000 Ang^3
#
#
#
# Elastic Constant Matrix: (Units=GPa)
#
#
# Indices 1 2 3 4 5 6 
#
# 1 63.5947 41.4791 45.8650 0.0000 0.0000 0.0000
# 2 41.4791 121.6427 52.5416 0.0000 0.0000 0.0000
# 3 45.8650 52.5416 82.0042 0.0000 0.0000 0.0000
# 4 0.0000 0.0000 0.0000 28.9835 0.0000 0.0000
# 5 0.0000 0.0000 0.0000 0.0000 28.2358 0.0000
# 6 0.0000 0.0000 0.0000 0.0000 0.0000 20.9103
#
#
#
# Elastic Compliance Matrix: (Units=1/GPa)
#
#
# Indices 1 2 3 4 5 6 
#
# 1 0.027563 -0.003789 -0.012989 0.000000 0.000000 0.000000
# 2 -0.003789 0.011887 -0.005497 0.000000 0.000000 0.000000
# 3 -0.012989 -0.005497 0.022981 0.000000 0.000000 0.000000
# 4 0.000000 0.000000 0.000000 0.034502 0.000000 0.000000
# 5 0.000000 0.000000 0.000000 0.000000 0.035416 0.000000
# 6 0.000000 0.000000 0.000000 0.000000 0.000000 0.047823
#
#
# Mechanical properties :
#
#
# Convention : Reuss Voigt Hill
#
# Bulk Modulus (GPa) = 55.92086 60.77925 58.35005
# Shear Modulus (GPa) = 21.67470 24.11631 22.89551
#
# Velocity S-wave (km/s) = 3.59835 3.79562 3.69830
# Velocity P-wave (km/s) = 7.11832 7.45101 7.28656
#
# Compressibility (1/GPa) = 0.01788241
#
# Stress axis : x y z
#
# Youngs Moduli (GPa) = 36.28028 84.12428 43.51349
#
# Poissons Ratio (x) = 0.31871 0.56518
# Poissons Ratio (y) = 0.13745 0.23921
# Poissons Ratio (z) = 0.47123 0.46246
#
# Static dielectric constant tensor:
#      x y z
#    x 3.115860 0.000000 0.000000 
#    y 0.000000 3.547770 0.000000 
#    z 0.000000 0.000000 3.081640 
# 
# 
# High freq. dielectric constant tensor:
#      x y z
#    x 1.629510 0.000000 0.000000 
#    y 0.000000 1.662460 0.000000 
#    z 0.000000 0.000000 1.617220 
# 
# From -- ./inp_files/37842.got.cif
#   From: 2010.03.12/outbox.cif.g09.slc.cpg/sg70_19_cif.got.tgz:37842.got - 2010.04.16 13:46:32.
