data_PCOD8285958
_publ_section_title
;
Structure prediction by ZEFSAII (Michael W. Deem and Ramdas Pophale) SiO2 
 PCOD8285958
Probable space group: F D D D
;
_chemical_formula_sum "Si O2"
_cell_formula_units_Z 192
_cell_length_a 15.767046
_cell_length_b 26.278413
_cell_length_c 22.479268
_cell_angle_alpha 90.000000
_cell_angle_beta 90.000000
_cell_angle_gamma 90.000000
_cell_volume 9313.901347
_symmetry_space_group_name_H-M "F D D D"
_symmetry_group_IT_number 70
_space_group.IT_coordinate_system_code '2'
_symmetry_cell_setting 'orthorhombic'
loop_
_space_group_symop_operation_xyz
x,y,z
1/4-x,1/4-y,z
x,1/4-y,1/4-z
1/4-x,y,1/4-z
-x,-y,-z
3/4+x,3/4+y,-z
-x,3/4+y,3/4+z
3/4+x,-y,3/4+z
x,1/2+y,1/2+z
1/4-x,3/4-y,1/2+z
x,3/4-y,3/4-z
1/4-x,1/2+y,3/4-z
-x,1/2-y,1/2-z
3/4+x,1/4+y,1/2-z
-x,1/4+y,1/4+z
3/4+x,1/2-y,1/4+z
1/2+x,y,1/2+z
3/4-x,1/4-y,1/2+z
1/2+x,1/4-y,3/4-z
3/4-x,y,3/4-z
1/2-x,-y,1/2-z
1/4+x,3/4+y,1/2-z
1/2-x,3/4+y,1/4+z
1/4+x,-y,1/4+z
1/2+x,1/2+y,z
3/4-x,3/4-y,z
1/2+x,3/4-y,1/4-z
3/4-x,1/2+y,1/4-z
1/2-x,1/2-y,-z
1/4+x,1/4+y,-z
1/2-x,1/4+y,3/4+z
1/4+x,1/2-y,3/4+z
loop_
_atom_site_type_symbol
_atom_site_label
_atom_site_fract_x
_atom_site_fract_y
_atom_site_fract_z
Si Si1 0.710546 0.512289 0.960565
Si Si2 0.606742 0.299344 0.225305
Si Si3 0.920361 0.625000 0.625000
Si Si4 0.197447 0.399701 0.476391
Si Si5 0.317914 0.975182 0.672509
Si Si6 0.875000 0.375000 0.735839
Si Si7 0.674118 0.176842 0.678206
O O1 0.805567 0.531275 0.947142
O O2 0.707793 0.458235 0.995103
O O3 0.662569 0.515094 0.897235
O O4 0.664390 0.547395 0.008329
O O5 0.603051 0.361352 0.229475
O O6 0.532738 0.280472 0.181953
O O7 0.597739 0.275023 0.291287
O O8 0.855762 0.594798 0.583478
O O9 0.977872 0.584162 0.661004
O O10 0.293181 0.377358 0.470883
O O11 0.368559 0.924908 0.694015
O O12 0.625000 0.125000 0.686179
O O13 0.625000 0.207637 0.625000
#
# Coordination Sequence:
#
# PCOD8285958 Si02
#       7
#    32  32  16  32  32  16  32
#     4  12  22  38  68  91 121 168 217 259 322 377
#     4  10  21  42  58  90 135 165 208 264 309 385
#     4  10  19  41  66  86 124 162 212 263 313 380
#     4  11  22  36  65  94 124 173 210 253 312 382
#     4  10  22  38  62  89 132 171 204 259 322 373
#     4  10  22  41  54  94 139 164 206 256 314 388
#     4   9  22  44  66  87 121 160 208 275 329 372
#
# _framework density 20.614348
#
# number of rings (size 3 to 8) (size 9 to 14) (size 15 to 20)
#    0.000    1.833    3.333    1.500    1.167    0.333 
#    3.000    6.667    0.000    0.000    0.000    0.000 
#    0.000    0.000    0.000    0.000    0.000    0.000 
#
# Total GULP energy -594744.242960 kJ/mol
# GULP energy per Si atom -12390.505062 kJ/mol
# Density = 2.056743 g / cm^3
# Si number density = 20.614348 Si / 1000 Ang^3
#
#
#
# Elastic Constant Matrix: (Units=GPa)
#
#
# Indices 1 2 3 4 5 6 
#
# 1 85.5842 28.3738 27.6704 0.0000 0.0000 0.0000
# 2 28.3738 102.8895 26.5966 0.0000 0.0000 0.0000
# 3 27.6704 26.5966 123.9662 0.0000 0.0000 0.0000
# 4 0.0000 0.0000 0.0000 25.0930 0.0000 0.0000
# 5 0.0000 0.0000 0.0000 0.0000 22.5155 0.0000
# 6 0.0000 0.0000 0.0000 0.0000 0.0000 24.3268
#
#
#
# Elastic Compliance Matrix: (Units=1/GPa)
#
#
# Indices 1 2 3 4 5 6 
#
# 1 0.013472 -0.003110 -0.002340 0.000000 0.000000 0.000000
# 2 -0.003110 0.011008 -0.001667 0.000000 0.000000 0.000000
# 3 -0.002340 -0.001667 0.008947 0.000000 0.000000 0.000000
# 4 0.000000 0.000000 0.000000 0.039852 0.000000 0.000000
# 5 0.000000 0.000000 0.000000 0.000000 0.044414 0.000000
# 6 0.000000 0.000000 0.000000 0.000000 0.000000 0.041107
#
#
# Mechanical properties :
#
#
# Convention : Reuss Voigt Hill
#
# Bulk Modulus (GPa) = 52.10628 53.08015 52.59321
# Shear Modulus (GPa) = 27.86576 29.70699 28.78638
#
# Velocity S-wave (km/s) = 3.68062 3.80028 3.74093
# Velocity P-wave (km/s) = 6.58743 6.71276 6.65039
#
# Compressibility (1/GPa) = 0.01919154
#
# Stress axis : x y z
#
# Youngs Moduli (GPa) = 74.22769 90.84353 111.77281
#
# Poissons Ratio (x) = 0.28256 0.26152
# Poissons Ratio (y) = 0.23087 0.18638
# Poissons Ratio (z) = 0.17368 0.15148
#
# Static dielectric constant tensor:
#      x y z
#    x 3.848050 0.000000 0.000000 
#    y 0.000000 3.776820 0.000000 
#    z 0.000000 0.000000 3.654770 
# 
# 
# High freq. dielectric constant tensor:
#      x y z
#    x 1.807480 0.000000 0.000000 
#    y 0.000000 1.806960 0.000000 
#    z 0.000000 0.000000 1.788000 
# 
# From -- ./inp_files/51576.got.cif
#   From: 2010.03.12/outbox.cif.g09.slc.cpg/sg70_26_cif.got.tgz:51576.got - 2010.04.16 13:46:32.
