data_PCOD8285022
_publ_section_title
;
Structure prediction by ZEFSAII (Michael W. Deem and Ramdas Pophale) SiO2 
 PCOD8285022
Probable space group: F M M M
;
_chemical_formula_sum "Si O2"
_cell_formula_units_Z 176
_cell_length_a 27.820457
_cell_length_b 17.466300
_cell_length_c 17.913708
_cell_angle_alpha 90.000000
_cell_angle_beta 90.000000
_cell_angle_gamma 90.000000
_cell_volume 8704.637018
_symmetry_space_group_name_H-M "F M M M"
_symmetry_group_IT_number 69
_symmetry_cell_setting 'orthorhombic'
loop_
_space_group_symop_operation_xyz
x,y,z
-x,-y,z
x,-y,-z
-x,y,-z
-x,-y,-z
x,y,-z
-x,y,z
x,-y,z
x,1/2+y,1/2+z
-x,1/2-y,1/2+z
x,1/2-y,1/2-z
-x,1/2+y,1/2-z
-x,1/2-y,1/2-z
x,1/2+y,1/2-z
-x,1/2+y,1/2+z
x,1/2-y,1/2+z
1/2+x,y,1/2+z
1/2-x,-y,1/2+z
1/2+x,-y,1/2-z
1/2-x,y,1/2-z
1/2-x,-y,1/2-z
1/2+x,y,1/2-z
1/2-x,y,1/2+z
1/2+x,-y,1/2+z
1/2+x,1/2+y,z
1/2-x,1/2-y,z
1/2+x,1/2-y,-z
1/2-x,1/2+y,-z
1/2-x,1/2-y,-z
1/2+x,1/2+y,-z
1/2-x,1/2+y,z
1/2+x,1/2-y,z
loop_
_atom_site_type_symbol
_atom_site_label
_atom_site_fract_x
_atom_site_fract_y
_atom_site_fract_z
Si Si1 0.445084 0.000000 0.730554
Si Si2 0.685804 0.354753 0.086439
Si Si3 0.274366 0.587281 0.330208
Si Si4 0.056310 0.917212 0.500000
Si Si5 0.555884 0.358223 0.338284
Si Si6 0.650962 0.784903 0.825359
Si Si7 0.378026 0.500000 0.088961
O O1 0.432833 0.072486 0.782161
O O2 0.500000 0.000000 0.708462
O O3 0.420972 0.000000 0.648781
O O4 0.739133 0.366649 0.116166
O O5 0.663171 0.273951 0.109336
O O6 0.652372 0.425414 0.110619
O O7 0.691159 0.352619 0.000000
O O8 0.283308 0.500000 0.356768
O O9 0.250000 0.587944 0.250000
O O10 0.325172 0.631430 0.335002
O O11 0.070622 0.874688 0.424095
O O12 0.000000 0.929934 0.500000
O O13 0.081855 0.000000 0.500000
O O14 0.500000 0.332044 0.331989
O O15 0.592991 0.291246 0.317385
O O16 0.672756 0.750000 0.750000
O O17 0.393737 0.500000 0.000000
#
# Coordination Sequence:
#
# PCOD8285022 Si02
#       7
#    16  32  32  16  32  32  16
#     4  10  20  36  63  97 125 163 217 266 319 378
#     4  11  24  44  66  92 128 168 210 262 320 377
#     4  11  24  41  66  94 124 166 208 256 316 385
#     4   9  16  34  60  88 125 167 209 257 318 375
#     4  10  22  38  62  92 131 175 213 263 320 379
#     4  12  25  40  64  97 131 167 215 262 318 376
#     4  10  22  43  69  89 121 171 216 261 324 380
#
# _framework density 20.219107999999999
#
# number of rings (size 3 to 8) (size 9 to 14) (size 15 to 20)
#    0.000    1.364    3.636    1.636    2.545    2.000 
#    0.000    0.909    0.000    1.091    0.000    0.000 
#    0.000    0.000    0.000    0.000    0.000    0.000 
#
# Total GULP energy -545394.058215 kJ/mol
# GULP energy per Si atom -12395.319505 kJ/mol
# Density = 2.017309 g / cm^3
# Si number density = 20.219108 Si / 1000 Ang^3
#
#
#
# Elastic Constant Matrix: (Units=GPa)
#
#
# Indices 1 2 3 4 5 6 
#
# 1 116.9246 56.5897 34.3395 0.0000 0.0000 0.0000
# 2 56.5897 104.7947 13.3462 0.0000 0.0000 0.0000
# 3 34.3395 13.3462 66.4041 0.0000 0.0000 0.0000
# 4 0.0000 0.0000 0.0000 28.7568 0.0000 0.0000
# 5 0.0000 0.0000 0.0000 0.0000 26.8671 0.0000
# 6 0.0000 0.0000 0.0000 0.0000 0.0000 -219.5879
#
#
#
# Elastic Compliance Matrix: (Units=1/GPa)
#
#
# Indices 1 2 3 4 5 6 
#
# 1 0.013335 -0.006489 -0.005592 0.000000 0.000000 0.000000
# 2 -0.006489 0.012951 0.000753 0.000000 0.000000 0.000000
# 3 -0.005592 0.000753 0.017800 0.000000 0.000000 0.000000
# 4 0.000000 0.000000 0.000000 0.034774 0.000000 0.000000
# 5 0.000000 0.000000 0.000000 0.000000 0.037220 0.000000
# 6 0.000000 0.000000 0.000000 0.000000 0.000000 -0.004554
#
#
# Mechanical properties :
#
#
# Convention : Reuss Voigt Hill
#
# Bulk Modulus (GPa) = 46.66462 55.18602 50.92532
# Shear Modulus (GPa) = 35.37920 -20.53626 7.42147
#
# Velocity S-wave (km/s) = 4.18759 -3.19044 1.91794
# Velocity P-wave (km/s) = 6.81988 3.71233 5.49054
#
# Compressibility (1/GPa) = 0.02142951
#
# Stress axis : x y z
#
# Youngs Moduli (GPa) = 74.98846 77.21592 56.18051
#
# Poissons Ratio (x) = 0.50106 0.31416
# Poissons Ratio (y) = 0.48660 -0.04229
# Poissons Ratio (z) = 0.41933 -0.05813
#
# Static dielectric constant tensor:
#      x y z
#    x 3.314530 0.000000 0.000000 
#    y 0.000000 3.222870 0.000000 
#    z 0.000000 0.000000 3.980920 
# 
# 
# High freq. dielectric constant tensor:
#      x y z
#    x 1.785320 0.000000 0.000000 
#    y 0.000000 1.788840 0.000000 
#    z 0.000000 0.000000 1.799640 
# 
# From -- ./inp_files/23303.got.cif
#   From: 2010.03.12/outbox.cif.g09.slc.cpg/sg69_12_cif.got.tgz:23303.got - 2010.04.10 23:52:46.
