data_PCOD8285683
_publ_section_title
;
Structure prediction by ZEFSAII (Michael W. Deem and Ramdas Pophale) SiO2 
 PCOD8285683
Probable space group: F M M M
;
_chemical_formula_sum "Si O2"
_cell_formula_units_Z 192
_cell_length_a 31.665465
_cell_length_b 18.367309
_cell_length_c 20.730979
_cell_angle_alpha 90.000000
_cell_angle_beta 90.000000
_cell_angle_gamma 90.000000
_cell_volume 12057.331849
_symmetry_space_group_name_H-M "F M M M"
_symmetry_group_IT_number 69
_symmetry_cell_setting 'orthorhombic'
loop_
_space_group_symop_operation_xyz
x,y,z
-x,-y,z
x,-y,-z
-x,y,-z
-x,-y,-z
x,y,-z
-x,y,z
x,-y,z
x,1/2+y,1/2+z
-x,1/2-y,1/2+z
x,1/2-y,1/2-z
-x,1/2+y,1/2-z
-x,1/2-y,1/2-z
x,1/2+y,1/2-z
-x,1/2+y,1/2+z
x,1/2-y,1/2+z
1/2+x,y,1/2+z
1/2-x,-y,1/2+z
1/2+x,-y,1/2-z
1/2-x,y,1/2-z
1/2-x,-y,1/2-z
1/2+x,y,1/2-z
1/2-x,y,1/2+z
1/2+x,-y,1/2+z
1/2+x,1/2+y,z
1/2-x,1/2-y,z
1/2+x,1/2-y,-z
1/2-x,1/2+y,-z
1/2-x,1/2-y,-z
1/2+x,1/2+y,-z
1/2-x,1/2+y,z
1/2+x,1/2-y,z
loop_
_atom_site_type_symbol
_atom_site_label
_atom_site_fract_x
_atom_site_fract_y
_atom_site_fract_z
Si Si1 0.168652 0.855636 0.338236
Si Si2 0.390173 0.725586 0.180223
Si Si3 0.344175 0.916328 0.699025
Si Si4 0.048808 0.216927 0.574384
Si Si5 0.252533 0.580649 0.173668
Si Si6 0.099375 0.920472 0.425640
O O1 0.153041 0.772498 0.329096
O O2 0.162266 0.904102 0.274828
O O3 0.218879 0.860787 0.355462
O O4 0.142019 0.891384 0.394628
O O5 0.409389 0.750000 0.250000
O O6 0.379808 0.640026 0.175719
O O7 0.423951 0.735261 0.123510
O O8 0.301322 0.899628 0.658040
O O9 0.358755 0.000000 0.687802
O O10 0.059474 0.237898 0.500000
O O11 0.059802 0.132435 0.587615
O O12 0.000000 0.229913 0.589591
O O13 0.241678 0.500000 0.146468
O O14 0.250000 0.579699 0.250000
O O15 0.110249 0.924948 0.500000
O O16 0.086958 0.000000 0.398291
#
# Coordination Sequence:
#
# PCOD8285683 Si02
#       6
#    32  32  32  32  32  32
#     4   9  15  25  40  60  89 117 141 170 204 244
#     4   9  18  29  44  67  88 109 140 177 214 252
#     4   9  16  26  41  61  85 113 143 177 217 249
#     4   9  18  32  48  64  84 112 141 170 210 258
#     4   8  13  21  36  58  83 113 144 171 203 243
#     4   9  16  25  40  63  88 114 141 165 195 244
#
# _framework density 15.923921
#
# number of rings (size 3 to 8) (size 9 to 14) (size 15 to 20)
#    0.000    3.167    0.000    2.500    0.000    1.333 
#    0.000    5.000    0.000    2.000    0.000    8.167 
#    0.000    0.000    0.000    0.000    0.000    0.000 
#
# Total GULP energy -594668.772285 kJ/mol
# GULP energy per Si atom -12388.932756 kJ/mol
# Density = 1.588768 g / cm^3
# Si number density = 15.923921 Si / 1000 Ang^3
#
#
#
# Elastic Constant Matrix: (Units=GPa)
#
#
# Indices 1 2 3 4 5 6 
#
# 1 83.1314 46.3614 36.8943 0.0000 0.0000 0.0000
# 2 46.3614 104.6787 32.8606 0.0000 0.0000 0.0000
# 3 36.8943 32.8606 43.2999 0.0000 0.0000 0.0000
# 4 0.0000 0.0000 0.0000 16.5019 0.0000 0.0000
# 5 0.0000 0.0000 0.0000 0.0000 19.2105 0.0000
# 6 0.0000 0.0000 0.0000 0.0000 0.0000 15.3468
#
#
#
# Elastic Compliance Matrix: (Units=1/GPa)
#
#
# Indices 1 2 3 4 5 6 
#
# 1 0.021067 -0.004851 -0.014269 0.000000 0.000000 0.000000
# 2 -0.004851 0.013658 -0.006231 0.000000 0.000000 0.000000
# 3 -0.014269 -0.006231 0.039982 0.000000 0.000000 0.000000
# 4 0.000000 0.000000 0.000000 0.060599 0.000000 0.000000
# 5 0.000000 0.000000 0.000000 0.000000 0.052055 0.000000
# 6 0.000000 0.000000 0.000000 0.000000 0.000000 0.065160
#
#
# Mechanical properties :
#
#
# Convention : Reuss Voigt Hill
#
# Bulk Modulus (GPa) = 41.66038 51.48255 46.57146
# Shear Modulus (GPa) = 16.06549 17.87809 16.97179
#
# Velocity S-wave (km/s) = 3.17975 3.35433 3.26821
# Velocity P-wave (km/s) = 6.30079 6.88495 6.59934
#
# Compressibility (1/GPa) = 0.02400362
#
# Stress axis : x y z
#
# Youngs Moduli (GPa) = 47.46676 73.21836 25.01118
#
# Poissons Ratio (x) = 0.35520 0.35689
# Poissons Ratio (y) = 0.23027 0.15586
# Poissons Ratio (z) = 0.67731 0.45626
#
# Static dielectric constant tensor:
#      x y z
#    x 3.063740 0.000000 0.000000 
#    y 0.000000 3.074440 0.000000 
#    z 0.000000 0.000000 2.810150 
# 
# 
# High freq. dielectric constant tensor:
#      x y z
#    x 1.598800 0.000000 0.000000 
#    y 0.000000 1.606350 0.000000 
#    z 0.000000 0.000000 1.579310 
# 
# From -- ./inp_files/32821.got.cif
#   From: 2010.03.12/outbox.cif.g09.slc.cpg/sg69_17_cif.got.tgz:32821.got - 2010.04.10 23:52:46.
