data_PCOD8285678
_publ_section_title
;
Structure prediction by ZEFSAII (Michael W. Deem and Ramdas Pophale) SiO2 
 PCOD8285678
Probable space group: F M M M
;
_chemical_formula_sum "Si O2"
_cell_formula_units_Z 208
_cell_length_a 24.415242
_cell_length_b 17.422845
_cell_length_c 28.450631
_cell_angle_alpha 90.000000
_cell_angle_beta 90.000000
_cell_angle_gamma 90.000000
_cell_volume 12102.414112
_symmetry_space_group_name_H-M "F M M M"
_symmetry_group_IT_number 69
_symmetry_cell_setting 'orthorhombic'
loop_
_space_group_symop_operation_xyz
x,y,z
-x,-y,z
x,-y,-z
-x,y,-z
-x,-y,-z
x,y,-z
-x,y,z
x,-y,z
x,1/2+y,1/2+z
-x,1/2-y,1/2+z
x,1/2-y,1/2-z
-x,1/2+y,1/2-z
-x,1/2-y,1/2-z
x,1/2+y,1/2-z
-x,1/2+y,1/2+z
x,1/2-y,1/2+z
1/2+x,y,1/2+z
1/2-x,-y,1/2+z
1/2+x,-y,1/2-z
1/2-x,y,1/2-z
1/2-x,-y,1/2-z
1/2+x,y,1/2-z
1/2-x,y,1/2+z
1/2+x,-y,1/2+z
1/2+x,1/2+y,z
1/2-x,1/2-y,z
1/2+x,1/2-y,-z
1/2-x,1/2+y,-z
1/2-x,1/2-y,-z
1/2+x,1/2+y,-z
1/2-x,1/2+y,z
1/2+x,1/2-y,z
loop_
_atom_site_type_symbol
_atom_site_label
_atom_site_fract_x
_atom_site_fract_y
_atom_site_fract_z
Si Si1 0.061891 0.591412 0.500000
Si Si2 0.637310 0.091280 0.052795
Si Si3 0.935299 0.168291 0.732840
Si Si4 0.939150 0.910139 0.825271
Si Si5 0.435808 0.910294 0.861589
Si Si6 0.370518 0.408311 0.089169
Si Si7 0.258287 0.408920 0.052698
O O1 0.061063 0.500000 0.500000
O O2 0.093418 0.622472 0.545784
O O3 0.000000 0.623731 0.500000
O O4 0.594171 0.120981 0.091465
O O5 0.698103 0.120669 0.068186
O O6 0.636390 0.000000 0.051424
O O7 0.622778 0.121644 0.000000
O O8 0.911008 0.250000 0.750000
O O9 0.918244 0.107643 0.772918
O O10 0.912369 0.138356 0.682805
O O11 0.000000 0.173579 0.727335
O O12 0.897276 0.874630 0.863252
O O13 0.000000 0.874274 0.833133
O O14 0.942539 0.000000 0.832413
O O15 0.500000 0.896999 0.869172
O O16 0.423200 0.000000 0.852377
O O17 0.370844 0.500000 0.089267
O O18 0.307750 0.377601 0.085489
O O19 0.258394 0.500000 0.053965
O O20 0.270804 0.380658 0.000000
#
# Coordination Sequence:
#
# PCOD8285678 Si02
#       7
#    16  32  32  32  32  32  32
#     4   9  14  18  26  46  78 110 136 163 200 244
#     4   8  14  23  37  60  88 113 135 164 205 253
#     4   9  17  29  44  61  80 108 143 173 202 247
#     4   9  16  25  38  59  85 108 133 170 212 246
#     4   9  16  26  42  65  90 111 132 166 213 256
#     4   9  14  20  32  52  79 110 139 167 199 237
#     4   8  12  20  33  51  79 112 142 168 197 237
#
# _framework density 17.186654000000001
#
# number of rings (size 3 to 8) (size 9 to 14) (size 15 to 20)
#    0.000    3.308    0.769    1.846    0.000    4.000 
#    0.000    1.538    0.000    0.923    2.000    7.538 
#    0.000    2.462    0.000    0.000    0.000    0.000 
#
# Total GULP energy -644235.115746 kJ/mol
# GULP energy per Si atom -12389.136841 kJ/mol
# Density = 1.714754 g / cm^3
# Si number density = 17.186654 Si / 1000 Ang^3
#
#
#
# Elastic Constant Matrix: (Units=GPa)
#
#
# Indices 1 2 3 4 5 6 
#
# 1 96.0705 16.8977 76.8564 0.0000 0.0000 0.0000
# 2 16.8977 18.0228 22.1709 0.0000 0.0000 0.0000
# 3 76.8564 22.1709 155.4061 0.0000 0.0000 0.0000
# 4 0.0000 0.0000 0.0000 6.4347 0.0000 0.0000
# 5 0.0000 0.0000 0.0000 0.0000 12.5793 0.0000
# 6 0.0000 0.0000 0.0000 0.0000 0.0000 4.2129
#
#
#
# Elastic Compliance Matrix: (Units=1/GPa)
#
#
# Indices 1 2 3 4 5 6 
#
# 1 0.017956 -0.007169 -0.007857 0.000000 0.000000 0.000000
# 2 -0.007169 0.070158 -0.006464 0.000000 0.000000 0.000000
# 3 -0.007857 -0.006464 0.011243 0.000000 0.000000 0.000000
# 4 0.000000 0.000000 0.000000 0.155407 0.000000 0.000000
# 5 0.000000 0.000000 0.000000 0.000000 0.079495 0.000000
# 6 0.000000 0.000000 0.000000 0.000000 0.000000 0.237367
#
#
# Mechanical properties :
#
#
# Convention : Reuss Voigt Hill
#
# Bulk Modulus (GPa) = 17.73782 55.70548 36.72165
# Shear Modulus (GPa) = 7.89392 14.88368 11.38880
#
# Velocity S-wave (km/s) = 2.14547 2.94598 2.57700
# Velocity P-wave (km/s) = 4.05961 6.63733 5.50157
#
# Compressibility (1/GPa) = 0.05637673
#
# Stress axis : x y z
#
# Youngs Moduli (GPa) = 55.69211 14.25348 88.94645
#
# Poissons Ratio (x) = 0.10219 0.69888
# Poissons Ratio (y) = 0.39927 0.57491
# Poissons Ratio (z) = 0.43759 0.09213
#
# Static dielectric constant tensor:
#      x y z
#    x 3.373970 0.000000 0.000000 
#    y 0.000000 2.692730 0.000000 
#    z 0.000000 0.000000 3.434290 
# 
# 
# High freq. dielectric constant tensor:
#      x y z
#    x 1.644720 0.000000 0.000000 
#    y 0.000000 1.604440 0.000000 
#    z 0.000000 0.000000 1.664800 
# 
# From -- ./inp_files/38472.got.cif
#   From: 2010.03.12/outbox.cif.g09.slc.cpg/sg69_20_cif.got.tgz:38472.got - 2010.04.10 23:52:46.
