data_PCOD8285045
_publ_section_title
;
Structure prediction by ZEFSAII (Michael W. Deem and Ramdas Pophale) SiO2 
 PCOD8285045
Probable space group: F M M M
;
_chemical_formula_sum "Si O2"
_cell_formula_units_Z 160
_cell_length_a 14.209240
_cell_length_b 34.658049
_cell_length_c 17.505379
_cell_angle_alpha 90.000000
_cell_angle_beta 90.000000
_cell_angle_gamma 90.000000
_cell_volume 8620.778350
_symmetry_space_group_name_H-M "F M M M"
_symmetry_group_IT_number 69
_symmetry_cell_setting 'orthorhombic'
loop_
_space_group_symop_operation_xyz
x,y,z
-x,-y,z
x,-y,-z
-x,y,-z
-x,-y,-z
x,y,-z
-x,y,z
x,-y,z
x,1/2+y,1/2+z
-x,1/2-y,1/2+z
x,1/2-y,1/2-z
-x,1/2+y,1/2-z
-x,1/2-y,1/2-z
x,1/2+y,1/2-z
-x,1/2+y,1/2+z
x,1/2-y,1/2+z
1/2+x,y,1/2+z
1/2-x,-y,1/2+z
1/2+x,-y,1/2-z
1/2-x,y,1/2-z
1/2-x,-y,1/2-z
1/2+x,y,1/2-z
1/2-x,y,1/2+z
1/2+x,-y,1/2+z
1/2+x,1/2+y,z
1/2-x,1/2-y,z
1/2+x,1/2-y,-z
1/2-x,1/2+y,-z
1/2-x,1/2-y,-z
1/2+x,1/2+y,-z
1/2-x,1/2+y,z
1/2+x,1/2-y,z
loop_
_atom_site_type_symbol
_atom_site_label
_atom_site_fract_x
_atom_site_fract_y
_atom_site_fract_z
Si Si1 0.104145 0.250444 0.340984
Si Si2 0.500000 0.917639 0.912895
Si Si3 0.811778 0.542865 0.323750
Si Si4 0.707399 0.891613 0.912990
Si Si5 0.000000 0.954703 0.251124
Si Si6 0.249054 0.811869 0.340225
O O1 0.100516 0.250000 0.250000
O O2 0.157884 0.211950 0.369238
O O3 0.158358 0.288903 0.368862
O O4 0.000000 0.250592 0.376928
O O5 0.594244 0.892303 0.902774
O O6 0.500000 0.947554 0.842634
O O7 0.500000 0.936191 0.000000
O O8 0.826356 0.500000 0.360717
O O9 0.750000 0.537593 0.250000
O O10 0.758415 0.569976 0.383259
O O11 0.909581 0.562005 0.294124
O O12 0.749668 0.854846 0.871064
O O13 0.736138 0.887931 0.000000
O O14 0.000000 0.000000 0.242448
O O15 0.250000 0.814423 0.250000
#
# Coordination Sequence:
#
# PCOD8285045 Si02
#       6
#    32  16  32  32  16  32
#     4   8  15  31  53  80 108 137 178 230 280 325
#     4  10  22  35  52  83 119 148 181 228 287 343
#     4  10  20  37  60  84 111 145 189 236 280 331
#     4  11  23  38  54  81 118 153 188 229 282 339
#     4  10  20  37  61  86 109 140 191 240 282 337
#     4   9  18  32  54  81 108 140 184 230 275 329
#
# _framework density 18.559808
#
# number of rings (size 3 to 8) (size 9 to 14) (size 15 to 20)
#    0.000    2.400    2.000    1.800    1.400    0.600 
#    1.800    4.500    0.000    3.000    0.000    0.000 
#    0.000    0.000    0.000    0.000    0.000    0.000 
#
# Total GULP energy -495680.097291 kJ/mol
# GULP energy per Si atom -12392.002432 kJ/mol
# Density = 1.851757 g / cm^3
# Si number density = 18.559808 Si / 1000 Ang^3
#
#
#
# Elastic Constant Matrix: (Units=GPa)
#
#
# Indices 1 2 3 4 5 6 
#
# 1 148.6069 52.0720 36.8626 0.0000 0.0000 0.0000
# 2 52.0720 106.5372 28.4348 0.0000 0.0000 0.0000
# 3 36.8626 28.4348 44.4125 0.0000 0.0000 0.0000
# 4 0.0000 0.0000 0.0000 -1.4366 0.0000 0.0000
# 5 0.0000 0.0000 0.0000 0.0000 21.3554 0.0000
# 6 0.0000 0.0000 0.0000 0.0000 0.0000 19.4137
#
#
#
# Elastic Compliance Matrix: (Units=1/GPa)
#
#
# Indices 1 2 3 4 5 6 
#
# 1 0.009188 -0.002962 -0.005730 0.000000 0.000000 0.000000
# 2 -0.002962 0.012275 -0.005401 0.000000 0.000000 0.000000
# 3 -0.005730 -0.005401 0.030730 0.000000 0.000000 0.000000
# 4 0.000000 0.000000 0.000000 -0.696069 0.000000 0.000000
# 5 0.000000 0.000000 0.000000 0.000000 0.046826 0.000000
# 6 0.000000 0.000000 0.000000 0.000000 0.000000 0.051510
#
#
# Mechanical properties :
#
#
# Convention : Reuss Voigt Hill
#
# Bulk Modulus (GPa) = 41.65239 59.36614 50.50926
# Shear Modulus (GPa) = -9.81644 20.01231 5.09794
#
# Velocity S-wave (km/s) = -2.30230 3.28725 1.65913
# Velocity P-wave (km/s) = 3.92728 6.81644 5.56271
#
# Compressibility (1/GPa) = 0.02400823
#
# Stress axis : x y z
#
# Youngs Moduli (GPa) = 108.83412 81.46319 32.54108
#
# Poissons Ratio (x) = 0.24126 0.18647
# Poissons Ratio (y) = 0.32232 0.17576
# Poissons Ratio (z) = 0.62364 0.44000
#
# Static dielectric constant tensor:
#      x y z
#    x 3.826530 0.000000 0.000000 
#    y 0.000000 3.608550 0.000000 
#    z 0.000000 0.000000 3.152340 
# 
# 
# High freq. dielectric constant tensor:
#      x y z
#    x 1.733100 0.000000 0.000000 
#    y 0.000000 1.710930 0.000000 
#    z 0.000000 0.000000 1.690860 
# 
# From -- ./inp_files/15667.got.cif
#   From: 2010.03.12/outbox.cif.g09.slc.cpg/sg69_8_cif.got.tgz:15667.got - 2010.04.10 23:52:46.
