data_PCOD8285101
_publ_section_title
;
Structure prediction by ZEFSAII (Michael W. Deem and Ramdas Pophale) SiO2 
 PCOD8285101
Probable space group: F M M M
;
_chemical_formula_sum "Si O2"
_cell_formula_units_Z 160
_cell_length_a 11.672517
_cell_length_b 27.329964
_cell_length_c 26.254713
_cell_angle_alpha 90.000000
_cell_angle_beta 90.000000
_cell_angle_gamma 90.000000
_cell_volume 8375.502063
_symmetry_space_group_name_H-M "F M M M"
_symmetry_group_IT_number 69
_symmetry_cell_setting 'orthorhombic'
loop_
_space_group_symop_operation_xyz
x,y,z
-x,-y,z
x,-y,-z
-x,y,-z
-x,-y,-z
x,y,-z
-x,y,z
x,-y,z
x,1/2+y,1/2+z
-x,1/2-y,1/2+z
x,1/2-y,1/2-z
-x,1/2+y,1/2-z
-x,1/2-y,1/2-z
x,1/2+y,1/2-z
-x,1/2+y,1/2+z
x,1/2-y,1/2+z
1/2+x,y,1/2+z
1/2-x,-y,1/2+z
1/2+x,-y,1/2-z
1/2-x,y,1/2-z
1/2-x,-y,1/2-z
1/2+x,y,1/2-z
1/2-x,y,1/2+z
1/2+x,-y,1/2+z
1/2+x,1/2+y,z
1/2-x,1/2-y,z
1/2+x,1/2-y,-z
1/2-x,1/2+y,-z
1/2-x,1/2-y,-z
1/2+x,1/2+y,-z
1/2-x,1/2+y,z
1/2+x,1/2-y,z
loop_
_atom_site_type_symbol
_atom_site_label
_atom_site_fract_x
_atom_site_fract_y
_atom_site_fract_z
Si Si1 0.266133 0.055968 0.692555
Si Si2 0.000000 0.944810 0.861869
Si Si3 0.127184 0.636194 0.140201
Si Si4 0.627922 0.767375 0.192412
Si Si5 0.500000 0.357355 0.059353
Si Si6 0.735080 0.193285 0.558748
O O1 0.250000 0.075038 0.750000
O O2 0.395943 0.063584 0.676263
O O3 0.192177 0.086941 0.653426
O O4 0.225438 0.000000 0.688108
O O5 0.000000 0.907462 0.908798
O O6 0.000000 0.000000 0.884743
O O7 0.131545 0.673949 0.187780
O O8 0.174790 0.661847 0.089955
O O9 0.000000 0.619757 0.127109
O O10 0.500000 0.749973 0.170098
O O11 0.632656 0.750000 0.250000
O O12 0.750000 0.750000 0.165683
O O13 0.392067 0.323878 0.073788
O O14 0.500000 0.372185 0.000000
O O15 0.761413 0.183042 0.500000
O O16 0.750000 0.250000 0.571994
#
# Coordination Sequence:
#
# PCOD8285101 Si02
#       6
#    32  16  32  32  16  32
#     4  10  23  41  61  86 118 158 203 249 300 361
#     4  10  20  41  66  91 121 155 202 260 314 366
#     4  11  23  38  59  86 116 153 198 246 299 355
#     4   9  19  36  52  77 114 151 191 235 288 350
#     4  10  20  39  66  95 121 155 202 254 314 370
#     4  10  22  40  62  88 121 160 201 244 294 359
#
# _framework density 19.103332000000002
#
# number of rings (size 3 to 8) (size 9 to 14) (size 15 to 20)
#    0.000    2.000    2.000    0.600    5.600    1.000 
#    3.600    0.000    0.000    0.600    0.000    1.400 
#    0.000    0.000    0.000    0.000    0.000    0.000 
#
# Total GULP energy -495670.553644 kJ/mol
# GULP energy per Si atom -12391.763841 kJ/mol
# Density = 1.905985 g / cm^3
# Si number density = 19.103332 Si / 1000 Ang^3
#
#
#
# Elastic Constant Matrix: (Units=GPa)
#
#
# Indices 1 2 3 4 5 6 
#
# 1 180.3266 72.0066 43.8848 0.0000 0.0000 0.0000
# 2 72.0066 111.2093 56.7294 0.0000 0.0000 0.0000
# 3 43.8848 56.7294 83.8300 0.0000 0.0000 0.0000
# 4 0.0000 0.0000 0.0000 8.0233 0.0000 0.0000
# 5 0.0000 0.0000 0.0000 0.0000 630.7997 0.0000
# 6 0.0000 0.0000 0.0000 0.0000 0.0000 33.1019
#
#
#
# Elastic Compliance Matrix: (Units=1/GPa)
#
#
# Indices 1 2 3 4 5 6 
#
# 1 0.007532 -0.004376 -0.000982 0.000000 0.000000 0.000000
# 2 -0.004376 0.016275 -0.008723 0.000000 0.000000 0.000000
# 3 -0.000982 -0.008723 0.018346 0.000000 0.000000 0.000000
# 4 0.000000 0.000000 0.000000 0.124636 0.000000 0.000000
# 5 0.000000 0.000000 0.000000 0.000000 0.001585 0.000000
# 6 0.000000 0.000000 0.000000 0.000000 0.000000 0.030210
#
#
# Mechanical properties :
#
#
# Convention : Reuss Voigt Hill
#
# Bulk Modulus (GPa) = 71.47073 80.06749 75.76911
# Shear Modulus (GPa) = 21.60679 147.90134 84.75406
#
# Velocity S-wave (km/s) = 3.36675 8.80851 6.66802
# Velocity P-wave (km/s) = 7.25309 12.06055 9.95149
#
# Compressibility (1/GPa) = 0.01399174
#
# Stress axis : x y z
#
# Youngs Moduli (GPa) = 132.77104 61.44338 54.50879
#
# Poissons Ratio (x) = 0.26888 0.05350
# Poissons Ratio (y) = 0.58101 0.47547
# Poissons Ratio (z) = 0.13032 0.53596
#
# Static dielectric constant tensor:
#      x y z
#    x 4.124690 0.000000 0.000000 
#    y 0.000000 3.498870 0.000000 
#    z 0.000000 0.000000 3.413140 
# 
# 
# High freq. dielectric constant tensor:
#      x y z
#    x 1.765390 0.000000 0.000000 
#    y 0.000000 1.735020 0.000000 
#    z 0.000000 0.000000 1.734620 
# 
# From -- ./inp_files/11512.got.cif
#   From: 2010.03.12/outbox.cif.g09.slc.cpg/sg69_6_cif.got.tgz:11512.got - 2010.04.10 23:52:46.
