data_PCOD8285935
_publ_section_title
;
Structure prediction by ZEFSAII (Michael W. Deem and Ramdas Pophale) SiO2 
 PCOD8285935
Probable space group: F D D D
;
_chemical_formula_sum "Si O2"
_cell_formula_units_Z 144
_cell_length_a 17.053591
_cell_length_b 18.612602
_cell_length_c 23.027211
_cell_angle_alpha 90.000000
_cell_angle_beta 90.000000
_cell_angle_gamma 90.000000
_cell_volume 7309.106235
_symmetry_space_group_name_H-M "F D D D"
_symmetry_group_IT_number 70
_space_group.IT_coordinate_system_code '2'
_symmetry_cell_setting 'orthorhombic'
loop_
_space_group_symop_operation_xyz
x,y,z
1/4-x,1/4-y,z
x,1/4-y,1/4-z
1/4-x,y,1/4-z
-x,-y,-z
3/4+x,3/4+y,-z
-x,3/4+y,3/4+z
3/4+x,-y,3/4+z
x,1/2+y,1/2+z
1/4-x,3/4-y,1/2+z
x,3/4-y,3/4-z
1/4-x,1/2+y,3/4-z
-x,1/2-y,1/2-z
3/4+x,1/4+y,1/2-z
-x,1/4+y,1/4+z
3/4+x,1/2-y,1/4+z
1/2+x,y,1/2+z
3/4-x,1/4-y,1/2+z
1/2+x,1/4-y,3/4-z
3/4-x,y,3/4-z
1/2-x,-y,1/2-z
1/4+x,3/4+y,1/2-z
1/2-x,3/4+y,1/4+z
1/4+x,-y,1/4+z
1/2+x,1/2+y,z
3/4-x,3/4-y,z
1/2+x,3/4-y,1/4-z
3/4-x,1/2+y,1/4-z
1/2-x,1/2-y,-z
1/4+x,1/4+y,-z
1/2-x,1/4+y,3/4+z
1/4+x,1/2-y,3/4+z
loop_
_atom_site_type_symbol
_atom_site_label
_atom_site_fract_x
_atom_site_fract_y
_atom_site_fract_z
Si Si1 0.375000 0.875000 0.638448
Si Si2 0.227537 0.502879 0.315940
Si Si3 0.999452 0.923923 0.927283
Si Si4 0.733138 0.414185 0.193227
Si Si5 0.148224 0.375000 0.375000
Si Si6 0.125000 0.819689 0.125000
O O1 0.344108 0.940679 0.677775
O O2 0.446401 0.899295 0.599505
O O3 0.250000 0.500000 0.250000
O O4 0.201756 0.423525 0.334295
O O5 0.303484 0.521265 0.353867
O O6 0.960081 0.875000 0.875000
O O7 0.093027 0.927606 0.914047
O O8 0.960973 0.002253 0.933328
O O9 0.990726 0.890472 0.991812
O O10 0.655466 0.369461 0.177629
#
# Coordination Sequence:
#
# PCOD8285935 Si02
#       6
#    16  32  32  32  16  16
#     4  10  20  40  61  87 122 168 202 254 320 380
#     4  11  23  40  64  91 127 170 212 262 319 378
#     4   9  19  37  59  87 117 153 203 255 315 372
#     4  10  19  39  58  85 124 157 204 255 312 380
#     4  10  20  39  60  93 124 160 216 258 316 381
#     4  10  24  37  57  90 124 158 214 254 310 375
#
# _framework density 19.701452
#
# number of rings (size 3 to 8) (size 9 to 14) (size 15 to 20)
#    0.667    1.333    2.222    1.333    0.000    2.222 
#    8.000    4.444    0.000    0.000    0.000    0.000 
#    0.000    0.000    0.000    0.000    0.000    0.000 
#
# Total GULP energy -446153.522226 kJ/mol
# GULP energy per Si atom -12393.153395 kJ/mol
# Density = 1.965661 g / cm^3
# Si number density = 19.701452 Si / 1000 Ang^3
#
#
#
# Elastic Constant Matrix: (Units=GPa)
#
#
# Indices 1 2 3 4 5 6 
#
# 1 68.8819 16.4028 10.4109 0.0000 0.0000 0.0000
# 2 16.4028 76.9526 38.8498 0.0000 0.0000 0.0000
# 3 10.4109 38.8498 130.9227 0.0000 0.0000 0.0000
# 4 0.0000 0.0000 0.0000 32.8311 0.0000 0.0000
# 5 0.0000 0.0000 0.0000 0.0000 90.9201 0.0000
# 6 0.0000 0.0000 0.0000 0.0000 0.0000 20.0406
#
#
#
# Elastic Compliance Matrix: (Units=1/GPa)
#
#
# Indices 1 2 3 4 5 6 
#
# 1 0.015303 -0.003114 -0.000293 0.000000 0.000000 0.000000
# 2 -0.003114 0.015919 -0.004476 0.000000 0.000000 0.000000
# 3 -0.000293 -0.004476 0.008990 0.000000 0.000000 0.000000
# 4 0.000000 0.000000 0.000000 0.030459 0.000000 0.000000
# 5 0.000000 0.000000 0.000000 0.000000 0.010999 0.000000
# 6 0.000000 0.000000 0.000000 0.000000 0.000000 0.049899
#
#
# Mechanical properties :
#
#
# Convention : Reuss Voigt Hill
#
# Bulk Modulus (GPa) = 40.90724 45.34271 43.12497
# Shear Modulus (GPa) = 32.15801 42.83128 37.49464
#
# Velocity S-wave (km/s) = 4.04451 4.66769 4.36723
# Velocity P-wave (km/s) = 6.52836 7.21905 6.88237
#
# Compressibility (1/GPa) = 0.02444555
#
# Stress axis : x y z
#
# Youngs Moduli (GPa) = 65.34486 62.81987 111.23988
#
# Poissons Ratio (x) = 0.19563 0.03257
# Poissons Ratio (y) = 0.20349 0.49791
# Poissons Ratio (z) = 0.01914 0.28118
#
# Static dielectric constant tensor:
#      x y z
#    x 3.446910 0.000000 0.000000 
#    y 0.000000 4.897200 0.000000 
#    z 0.000000 0.000000 3.615590 
# 
# 
# High freq. dielectric constant tensor:
#      x y z
#    x 1.761190 0.000000 0.000000 
#    y 0.000000 1.765790 0.000000 
#    z 0.000000 0.000000 1.772040 
# 
# From -- ./inp_files/34971.got.cif
#   From: 2010.03.12/outbox.cif.g09.slc.cpg/sg70_18_cif.got.tgz:34971.got - 2010.04.16 13:46:32.
