data_PCOD8285384
_publ_section_title
;
Structure prediction by ZEFSAII (Michael W. Deem and Ramdas Pophale) SiO2 
 PCOD8285384
Probable space group: F M M M
;
_chemical_formula_sum "Si O2"
_cell_formula_units_Z 144
_cell_length_a 18.261521
_cell_length_b 13.889554
_cell_length_c 31.064487
_cell_angle_alpha 90.000000
_cell_angle_beta 90.000000
_cell_angle_gamma 90.000000
_cell_volume 7879.332609
_symmetry_space_group_name_H-M "F M M M"
_symmetry_group_IT_number 69
_symmetry_cell_setting 'orthorhombic'
loop_
_space_group_symop_operation_xyz
x,y,z
-x,-y,z
x,-y,-z
-x,y,-z
-x,-y,-z
x,y,-z
-x,y,z
x,-y,z
x,1/2+y,1/2+z
-x,1/2-y,1/2+z
x,1/2-y,1/2-z
-x,1/2+y,1/2-z
-x,1/2-y,1/2-z
x,1/2+y,1/2-z
-x,1/2+y,1/2+z
x,1/2-y,1/2+z
1/2+x,y,1/2+z
1/2-x,-y,1/2+z
1/2+x,-y,1/2-z
1/2-x,y,1/2-z
1/2-x,-y,1/2-z
1/2+x,y,1/2-z
1/2-x,y,1/2+z
1/2+x,-y,1/2+z
1/2+x,1/2+y,z
1/2-x,1/2-y,z
1/2+x,1/2-y,-z
1/2-x,1/2+y,-z
1/2-x,1/2-y,-z
1/2+x,1/2+y,-z
1/2-x,1/2+y,z
1/2+x,1/2-y,z
loop_
_atom_site_type_symbol
_atom_site_label
_atom_site_fract_x
_atom_site_fract_y
_atom_site_fract_z
Si Si1 0.500000 0.392063 0.449437
Si Si2 0.413260 0.394784 0.757811
Si Si3 0.913330 0.768214 0.320970
Si Si4 0.141447 0.287998 0.914769
Si Si5 0.281880 0.889428 0.550551
O O1 0.500000 0.500000 0.429087
O O2 0.500000 0.401334 0.500000
O O3 0.570162 0.333584 0.435092
O O4 0.500000 0.398794 0.757241
O O5 0.377774 0.500000 0.762879
O O6 0.389520 0.331993 0.798830
O O7 0.388676 0.351305 0.712106
O O8 0.866297 0.780189 0.363670
O O9 0.000000 0.772007 0.331344
O O10 0.208853 0.358272 0.924592
O O11 0.152569 0.181048 0.934621
O O12 0.267695 0.876756 0.500000
O O13 0.301959 0.000000 0.561820
#
# Coordination Sequence:
#
# PCOD8285384 Si02
#       5
#    16  32  32  32  32
#     4  11  22  34  53  84 115 139 168 220 289 335
#     4   8  15  28  47  69 105 147 173 204 257 322
#     4   9  17  30  47  79 111 134 172 217 267 321
#     4  11  20  35  57  82 111 140 177 232 275 317
#     4  10  22  40  58  75 102 149 196 223 261 327
#
# _framework density 18.275659999999998
#
# number of rings (size 3 to 8) (size 9 to 14) (size 15 to 20)
#    0.000    2.333    1.111    4.667    0.000    4.444 
#    0.000    0.556    0.000   12.667    0.000   12.444 
#    0.000    0.000    0.000    0.000    0.000    0.000 
#
# Total GULP energy -446303.346175 kJ/mol
# GULP energy per Si atom -12397.315172 kJ/mol
# Density = 1.823406 g / cm^3
# Si number density = 18.275660 Si / 1000 Ang^3
#
#
#
# Elastic Constant Matrix: (Units=GPa)
#
#
# Indices 1 2 3 4 5 6 
#
# 1 78.9835 59.4089 41.2955 0.0000 0.0000 0.0000
# 2 59.4089 169.5586 60.7951 0.0000 0.0000 0.0000
# 3 41.2955 60.7951 138.9850 0.0000 0.0000 0.0000
# 4 0.0000 0.0000 0.0000 17.1613 0.0000 0.0000
# 5 0.0000 0.0000 0.0000 0.0000 32.4428 0.0000
# 6 0.0000 0.0000 0.0000 0.0000 0.0000 19.3464
#
#
#
# Elastic Compliance Matrix: (Units=1/GPa)
#
#
# Indices 1 2 3 4 5 6 
#
# 1 0.018263 -0.005282 -0.003116 0.000000 0.000000 0.000000
# 2 -0.005282 0.008522 -0.002159 0.000000 0.000000 0.000000
# 3 -0.003116 -0.002159 0.009065 0.000000 0.000000 0.000000
# 4 0.000000 0.000000 0.000000 0.058271 0.000000 0.000000
# 5 0.000000 0.000000 0.000000 0.000000 0.030823 0.000000
# 6 0.000000 0.000000 0.000000 0.000000 0.000000 0.051689
#
#
# Mechanical properties :
#
#
# Convention : Reuss Voigt Hill
#
# Bulk Modulus (GPa) = 67.85292 78.94733 73.40013
# Shear Modulus (GPa) = 24.67216 28.85861 26.76539
#
# Velocity S-wave (km/s) = 3.67822 3.97807 3.83108
# Velocity P-wave (km/s) = 7.43284 8.02446 7.73431
#
# Compressibility (1/GPa) = 0.01473776
#
# Stress axis : x y z
#
# Youngs Moduli (GPa) = 54.75672 117.34203 110.31413
#
# Poissons Ratio (x) = 0.61974 0.34374
# Poissons Ratio (y) = 0.28920 0.23811
# Poissons Ratio (z) = 0.17062 0.25328
#
# Static dielectric constant tensor:
#      x y z
#    x 3.064120 0.000000 0.000000 
#    y 0.000000 4.146710 0.000000 
#    z 0.000000 0.000000 3.409940 
# 
# 
# High freq. dielectric constant tensor:
#      x y z
#    x 1.674240 0.000000 0.000000 
#    y 0.000000 1.722340 0.000000 
#    z 0.000000 0.000000 1.716930 
# 
# From -- ./inp_files/15530.got.cif
#   From: 2010.03.12/outbox.cif.g09.slc.cpg/sg69_8_cif.got.tgz:15530.got - 2010.04.10 23:52:46.
