data_PCOD8285439
_publ_section_title
;
Structure prediction by ZEFSAII (Michael W. Deem and Ramdas Pophale) SiO2 
 PCOD8285439
Probable space group: F M M M
;
_chemical_formula_sum "Si O2"
_cell_formula_units_Z 112
_cell_length_a 23.533221
_cell_length_b 13.891396
_cell_length_c 17.447701
_cell_angle_alpha 90.000000
_cell_angle_beta 90.000000
_cell_angle_gamma 90.000000
_cell_volume 5703.815582
_symmetry_space_group_name_H-M "F M M M"
_symmetry_group_IT_number 69
_symmetry_cell_setting 'orthorhombic'
loop_
_space_group_symop_operation_xyz
x,y,z
-x,-y,z
x,-y,-z
-x,y,-z
-x,-y,-z
x,y,-z
-x,y,z
x,-y,z
x,1/2+y,1/2+z
-x,1/2-y,1/2+z
x,1/2-y,1/2-z
-x,1/2+y,1/2-z
-x,1/2-y,1/2-z
x,1/2+y,1/2-z
-x,1/2+y,1/2+z
x,1/2-y,1/2+z
1/2+x,y,1/2+z
1/2-x,-y,1/2+z
1/2+x,-y,1/2-z
1/2-x,y,1/2-z
1/2-x,-y,1/2-z
1/2+x,y,1/2-z
1/2-x,y,1/2+z
1/2+x,-y,1/2+z
1/2+x,1/2+y,z
1/2-x,1/2-y,z
1/2+x,1/2-y,-z
1/2-x,1/2+y,-z
1/2-x,1/2-y,-z
1/2+x,1/2+y,-z
1/2-x,1/2+y,z
1/2+x,1/2-y,z
loop_
_atom_site_type_symbol
_atom_site_label
_atom_site_fract_x
_atom_site_fract_y
_atom_site_fract_z
Si Si1 0.569444 0.000000 0.272233
Si Si2 0.645877 0.500000 0.912541
Si Si3 0.000000 0.107503 0.411343
Si Si4 0.312894 0.788942 0.412742
Si Si5 0.094711 0.316057 0.815597
O O1 0.588912 0.000000 0.360887
O O2 0.601843 0.084611 0.228331
O O3 0.500000 0.000000 0.268831
O O4 0.683458 0.596040 0.896434
O O5 0.624194 0.500000 0.000000
O O6 0.053804 0.169934 0.387614
O O7 0.000000 0.092602 0.500000
O O8 0.000000 0.000000 0.372424
O O9 0.333491 0.767667 0.500000
O O10 0.250000 0.750000 0.401268
O O11 0.348409 0.729948 0.349730
O O12 0.066668 0.250000 0.750000
#
# Coordination Sequence:
#
# PCOD8285439 Si02
#       5
#    16  16  16  32  32
#     4  12  24  42  61  95 133 163 210 263 319 370
#     4  10  22  44  65  91 127 166 213 261 309 376
#     4  11  23  40  60  89 128 166 208 260 315 381
#     4  10  23  43  66  93 126 168 214 260 313 375
#     4  12  22  39  63  90 127 162 209 260 315 373
#
# _framework density 19.635978000000001
#
# number of rings (size 3 to 8) (size 9 to 14) (size 15 to 20)
#    0.000    1.000    5.714    1.286    0.000    2.000 
#    0.000    2.857    0.000    0.000    0.000    0.000 
#    0.000    0.000    0.000    0.000    0.000    0.000 
#
# Total GULP energy -346911.174633 kJ/mol
# GULP energy per Si atom -12389.684808 kJ/mol
# Density = 1.959129 g / cm^3
# Si number density = 19.635978 Si / 1000 Ang^3
#
#
#
# Elastic Constant Matrix: (Units=GPa)
#
#
# Indices 1 2 3 4 5 6 
#
# 1 100.5722 68.2371 61.4485 0.0000 0.0000 0.0000
# 2 68.2371 163.7245 68.6430 0.0000 0.0000 0.0000
# 3 61.4485 68.6430 117.2438 0.0000 0.0000 0.0000
# 4 0.0000 0.0000 0.0000 37.0974 0.0000 0.0000
# 5 0.0000 0.0000 0.0000 0.0000 43.4261 0.0000
# 6 0.0000 0.0000 0.0000 0.0000 0.0000 28.5404
#
#
#
# Elastic Compliance Matrix: (Units=1/GPa)
#
#
# Indices 1 2 3 4 5 6 
#
# 1 0.016683 -0.004357 -0.006193 0.000000 0.000000 0.000000
# 2 -0.004357 0.009233 -0.003122 0.000000 0.000000 0.000000
# 3 -0.006193 -0.003122 0.013603 0.000000 0.000000 0.000000
# 4 0.000000 0.000000 0.000000 0.026956 0.000000 0.000000
# 5 0.000000 0.000000 0.000000 0.000000 0.023028 0.000000
# 6 0.000000 0.000000 0.000000 0.000000 0.000000 0.035038
#
#
# Mechanical properties :
#
#
# Convention : Reuss Voigt Hill
#
# Bulk Modulus (GPa) = 82.13533 86.46642 84.30087
# Shear Modulus (GPa) = 32.06331 34.02692 33.04511
#
# Velocity S-wave (km/s) = 4.04528 4.16731 4.10675
# Velocity P-wave (km/s) = 7.98366 8.20278 8.09396
#
# Compressibility (1/GPa) = 0.01217503
#
# Stress axis : x y z
#
# Youngs Moduli (GPa) = 59.94179 108.31276 73.51391
#
# Poissons Ratio (x) = 0.47188 0.45527
# Poissons Ratio (y) = 0.26114 0.22951
# Poissons Ratio (z) = 0.37122 0.33816
#
# Static dielectric constant tensor:
#      x y z
#    x 3.246250 0.000000 0.000000 
#    y 0.000000 3.664920 0.000000 
#    z 0.000000 0.000000 3.805610 
# 
# 
# High freq. dielectric constant tensor:
#      x y z
#    x 1.736650 0.000000 0.000000 
#    y 0.000000 1.784730 0.000000 
#    z 0.000000 0.000000 1.788110 
# 
# From -- ./inp_files/8339.got.cif
#   From: 2010.03.12/outbox.cif.g09.slc.cpg/sg69_5_cif.got.tgz:8339.got - 2010.04.10 23:52:46.
