data_PCOD8285994
_publ_section_title
;
Structure prediction by ZEFSAII (Michael W. Deem and Ramdas Pophale) SiO2 
 PCOD8285994
Probable space group: F D D D
;
_chemical_formula_sum "Si O2"
_cell_formula_units_Z 232
_cell_length_a 16.461056
_cell_length_b 29.033159
_cell_length_c 24.079409
_cell_angle_alpha 90.000000
_cell_angle_beta 90.000000
_cell_angle_gamma 90.000000
_cell_volume 11507.945816
_symmetry_space_group_name_H-M "F D D D"
_symmetry_group_IT_number 70
_space_group.IT_coordinate_system_code '2'
_symmetry_cell_setting 'orthorhombic'
loop_
_space_group_symop_operation_xyz
x,y,z
1/4-x,1/4-y,z
x,1/4-y,1/4-z
1/4-x,y,1/4-z
-x,-y,-z
3/4+x,3/4+y,-z
-x,3/4+y,3/4+z
3/4+x,-y,3/4+z
x,1/2+y,1/2+z
1/4-x,3/4-y,1/2+z
x,3/4-y,3/4-z
1/4-x,1/2+y,3/4-z
-x,1/2-y,1/2-z
3/4+x,1/4+y,1/2-z
-x,1/4+y,1/4+z
3/4+x,1/2-y,1/4+z
1/2+x,y,1/2+z
3/4-x,1/4-y,1/2+z
1/2+x,1/4-y,3/4-z
3/4-x,y,3/4-z
1/2-x,-y,1/2-z
1/4+x,3/4+y,1/2-z
1/2-x,3/4+y,1/4+z
1/4+x,-y,1/4+z
1/2+x,1/2+y,z
3/4-x,3/4-y,z
1/2+x,3/4-y,1/4-z
3/4-x,1/2+y,1/4-z
1/2-x,1/2-y,-z
1/4+x,1/4+y,-z
1/2-x,1/4+y,3/4+z
1/4+x,1/2-y,3/4+z
loop_
_atom_site_type_symbol
_atom_site_label
_atom_site_fract_x
_atom_site_fract_y
_atom_site_fract_z
Si Si1 0.415544 0.921423 0.584658
Si Si2 0.591950 0.830194 0.338809
Si Si3 0.763503 0.454913 0.531797
Si Si4 0.928741 0.110305 0.962905
Si Si5 0.293667 0.281713 0.844873
Si Si6 0.267467 0.178774 0.815502
Si Si7 0.625000 0.125000 0.125000
Si Si8 0.236748 0.555632 0.058250
O O1 0.375000 0.875000 0.562122
O O2 0.350181 0.959617 0.565004
O O3 0.504953 0.927023 0.558214
O O4 0.434899 0.917508 0.650460
O O5 0.582270 0.875000 0.375000
O O6 0.578253 0.846620 0.276536
O O7 0.529391 0.792409 0.362466
O O8 0.680851 0.808196 0.343992
O O9 0.708079 0.412144 0.550071
O O10 0.780775 0.446721 0.466265
O O11 0.714154 0.501404 0.548830
O O12 0.844864 0.105357 0.928116
O O13 0.375000 0.300507 0.875000
O O14 0.300302 0.227911 0.834464
O O15 0.243633 0.173387 0.752227
O O16 0.673350 0.088689 0.087884
#
# Coordination Sequence:
#
# PCOD8285994 Si02
#       8
#    32  32  32  32  32  32   8  32
#     4  10  20  35  56  82 124 159 197 242 299 369
#     4  11  20  37  61  88 126 163 205 255 313 359
#     4  10  21  39  57  94 128 159 207 257 310 377
#     4  10  20  37  60  88 128 169 202 248 309 375
#     4  11  21  34  61  93 129 165 206 245 301 385
#     4  10  22  39  59  86 120 162 206 251 313 371
#     4  12  24  48  68  84 114 148 228 268 334 368
#     4  10  24  41  67  87 114 158 209 272 318 374
#
# _framework density 20.159984000000001
#
# number of rings (size 3 to 8) (size 9 to 14) (size 15 to 20)
#    0.000    1.655    2.069    2.897    0.966    0.276 
#    4.966    5.517    0.000    5.793    0.000    0.000 
#    0.000    0.000    0.000    0.000    0.000    0.000 
#
# Total GULP energy -718522.207824 kJ/mol
# GULP energy per Si atom -12388.313928 kJ/mol
# Density = 2.011410 g / cm^3
# Si number density = 20.159984 Si / 1000 Ang^3
#
#
#
# Elastic Constant Matrix: (Units=GPa)
#
#
# Indices 1 2 3 4 5 6 
#
# 1 108.2609 41.7897 47.5918 0.0000 0.0000 0.0000
# 2 41.7897 75.2534 21.3449 0.0000 0.0000 0.0000
# 3 47.5918 21.3449 85.6286 0.0000 0.0000 0.0000
# 4 0.0000 0.0000 0.0000 18.4281 0.0000 0.0000
# 5 0.0000 0.0000 0.0000 0.0000 37.5012 0.0000
# 6 0.0000 0.0000 0.0000 0.0000 0.0000 33.8253
#
#
#
# Elastic Compliance Matrix: (Units=1/GPa)
#
#
# Indices 1 2 3 4 5 6 
#
# 1 0.014492 -0.006202 -0.006509 0.000000 0.000000 0.000000
# 2 -0.006202 0.016953 -0.000779 0.000000 0.000000 0.000000
# 3 -0.006509 -0.000779 0.015490 0.000000 0.000000 0.000000
# 4 0.000000 0.000000 0.000000 0.054265 0.000000 0.000000
# 5 0.000000 0.000000 0.000000 0.000000 0.026666 0.000000
# 6 0.000000 0.000000 0.000000 0.000000 0.000000 0.029564
#
#
# Mechanical properties :
#
#
# Convention : Reuss Voigt Hill
#
# Bulk Modulus (GPa) = 50.10910 54.51062 52.30986
# Shear Modulus (GPa) = 26.16965 28.51202 27.34083
#
# Velocity S-wave (km/s) = 3.60682 3.76478 3.68665
# Velocity P-wave (km/s) = 6.50040 6.78202 6.64271
#
# Compressibility (1/GPa) = 0.01995645
#
# Stress axis : x y z
#
# Youngs Moduli (GPa) = 69.00331 58.98547 64.55755
#
# Poissons Ratio (x) = 0.36580 0.42018
# Poissons Ratio (y) = 0.42793 0.05030
# Poissons Ratio (z) = 0.44912 0.04596
#
# Static dielectric constant tensor:
#      x y z
#    x 3.802720 0.000000 0.000000 
#    y 0.000000 3.582410 0.000000 
#    z 0.000000 0.000000 4.746940 
# 
# 
# High freq. dielectric constant tensor:
#      x y z
#    x 1.781050 0.000000 0.000000 
#    y 0.000000 1.783820 0.000000 
#    z 0.000000 0.000000 1.797320 
# 
# From -- ./inp_files/52453.got.cif
#   From: 2010.03.12/outbox.cif.g09.slc.cpg/sg70_27_cif.got.tgz:52453.got - 2010.04.16 13:46:32.
