data_PCOD8285464
_publ_section_title
;
Structure prediction by ZEFSAII (Michael W. Deem and Ramdas Pophale) SiO2 
 PCOD8285464
Probable space group: F M M M
;
_chemical_formula_sum "Si O2"
_cell_formula_units_Z 80
_cell_length_a 10.132934
_cell_length_b 15.793534
_cell_length_c 21.915877
_cell_angle_alpha 90.000000
_cell_angle_beta 90.000000
_cell_angle_gamma 90.000000
_cell_volume 3507.303818
_symmetry_space_group_name_H-M "F M M M"
_symmetry_group_IT_number 69
_symmetry_cell_setting 'orthorhombic'
loop_
_space_group_symop_operation_xyz
x,y,z
-x,-y,z
x,-y,-z
-x,y,-z
-x,-y,-z
x,y,-z
-x,y,z
x,-y,z
x,1/2+y,1/2+z
-x,1/2-y,1/2+z
x,1/2-y,1/2-z
-x,1/2+y,1/2-z
-x,1/2-y,1/2-z
x,1/2+y,1/2-z
-x,1/2+y,1/2+z
x,1/2-y,1/2+z
1/2+x,y,1/2+z
1/2-x,-y,1/2+z
1/2+x,-y,1/2-z
1/2-x,y,1/2-z
1/2-x,-y,1/2-z
1/2+x,y,1/2-z
1/2-x,y,1/2+z
1/2+x,-y,1/2+z
1/2+x,1/2+y,z
1/2-x,1/2-y,z
1/2+x,1/2-y,-z
1/2-x,1/2+y,-z
1/2-x,1/2-y,-z
1/2+x,1/2+y,-z
1/2-x,1/2+y,z
1/2+x,1/2-y,z
loop_
_atom_site_type_symbol
_atom_site_label
_atom_site_fract_x
_atom_site_fract_y
_atom_site_fract_z
Si Si1 0.500000 0.160718 0.284435
Si Si2 0.351801 0.173786 0.500000
Si Si3 0.782494 0.099677 0.126289
Si Si4 0.500000 0.594173 0.658140
O O1 0.500000 0.250000 0.250000
O O2 0.629089 0.150951 0.325877
O O3 0.500000 0.090490 0.231575
O O4 0.500000 0.210898 0.500000
O O5 0.250000 0.250000 0.500000
O O6 0.332070 0.114090 0.558192
O O7 0.633761 0.137787 0.132931
O O8 0.789227 0.000000 0.141991
O O9 0.500000 0.500000 0.631716
#
# Coordination Sequence:
#
# PCOD8285464 Si02
#       4
#    16  16  32  16
#     4  12  26  41  70 104 145 187 242 300 357 417
#     4  12  29  47  74 104 144 183 240 299 368 424
#     4  11  25  47  75 104 142 193 244 292 358 438
#     4  10  24  43  68 104 144 185 236 292 354 427
#
# _framework density 22.809542
#
# number of rings (size 3 to 8) (size 9 to 14) (size 15 to 20)
#    0.000    0.800    2.000    3.600    8.400    5.600 
#    0.000    3.000    0.000    0.000    0.000    0.000 
#    0.000    0.000    0.000    0.000    0.000    0.000 
#
# Total GULP energy -248035.045953 kJ/mol
# GULP energy per Si atom -12401.752298 kJ/mol
# Density = 2.275763 g / cm^3
# Si number density = 22.809542 Si / 1000 Ang^3
#
#
#
# Elastic Constant Matrix: (Units=GPa)
#
#
# Indices 1 2 3 4 5 6 
#
# 1 247.0488 49.6084 76.4447 0.0000 0.0000 0.0000
# 2 49.6084 93.5338 30.0342 0.0000 0.0000 0.0000
# 3 76.4447 30.0342 155.3971 0.0000 0.0000 0.0000
# 4 0.0000 0.0000 0.0000 36.0134 0.0000 0.0000
# 5 0.0000 0.0000 0.0000 0.0000 26.3222 0.0000
# 6 0.0000 0.0000 0.0000 0.0000 0.0000 27.5144
#
#
#
# Elastic Compliance Matrix: (Units=1/GPa)
#
#
# Indices 1 2 3 4 5 6 
#
# 1 0.005112 -0.002030 -0.002123 0.000000 0.000000 0.000000
# 2 -0.002030 0.012205 -0.001360 0.000000 0.000000 0.000000
# 3 -0.002123 -0.001360 0.007742 0.000000 0.000000 0.000000
# 4 0.000000 0.000000 0.000000 0.027767 0.000000 0.000000
# 5 0.000000 0.000000 0.000000 0.000000 0.037991 0.000000
# 6 0.000000 0.000000 0.000000 0.000000 0.000000 0.036345
#
#
# Mechanical properties :
#
#
# Convention : Reuss Voigt Hill
#
# Bulk Modulus (GPa) = 71.25698 89.79491 80.52594
# Shear Modulus (GPa) = 34.99809 40.62952 37.81381
#
# Velocity S-wave (km/s) = 3.92134 4.22507 4.07603
# Velocity P-wave (km/s) = 7.19794 7.95326 7.58501
#
# Compressibility (1/GPa) = 0.01403371
#
# Stress axis : x y z
#
# Youngs Moduli (GPa) = 195.61221 81.93564 129.16275
#
# Poissons Ratio (x) = 0.16632 0.27415
# Poissons Ratio (y) = 0.39706 0.17570
# Poissons Ratio (z) = 0.41519 0.11146
#
# Static dielectric constant tensor:
#      x y z
#    x 4.630230 0.000000 0.000000 
#    y 0.000000 3.817100 0.000000 
#    z 0.000000 0.000000 4.260540 
# 
# 
# High freq. dielectric constant tensor:
#      x y z
#    x 1.926380 0.000000 0.000000 
#    y 0.000000 1.889090 0.000000 
#    z 0.000000 0.000000 1.908170 
# 
# From -- ./inp_files/8801.got.cif
#   From: 2010.03.12/outbox.cif.g09.slc.cpg/sg69_5_cif.got.tgz:8801.got - 2010.04.10 23:52:46.
