data_PCOD8285415
_publ_section_title
;
Structure prediction by ZEFSAII (Michael W. Deem and Ramdas Pophale) SiO2 
 PCOD8285415
Probable space group: F M M M
;
_chemical_formula_sum "Si O2"
_cell_formula_units_Z 192
_cell_length_a 17.489975
_cell_length_b 31.320836
_cell_length_c 16.715557
_cell_angle_alpha 90.000000
_cell_angle_beta 90.000000
_cell_angle_gamma 90.000000
_cell_volume 9156.792799
_symmetry_space_group_name_H-M "F M M M"
_symmetry_group_IT_number 69
_symmetry_cell_setting 'orthorhombic'
loop_
_space_group_symop_operation_xyz
x,y,z
-x,-y,z
x,-y,-z
-x,y,-z
-x,-y,-z
x,y,-z
-x,y,z
x,-y,z
x,1/2+y,1/2+z
-x,1/2-y,1/2+z
x,1/2-y,1/2-z
-x,1/2+y,1/2-z
-x,1/2-y,1/2-z
x,1/2+y,1/2-z
-x,1/2+y,1/2+z
x,1/2-y,1/2+z
1/2+x,y,1/2+z
1/2-x,-y,1/2+z
1/2+x,-y,1/2-z
1/2-x,y,1/2-z
1/2-x,-y,1/2-z
1/2+x,y,1/2-z
1/2-x,y,1/2+z
1/2+x,-y,1/2+z
1/2+x,1/2+y,z
1/2-x,1/2-y,z
1/2+x,1/2-y,-z
1/2-x,1/2+y,-z
1/2-x,1/2-y,-z
1/2+x,1/2+y,-z
1/2-x,1/2+y,z
1/2+x,1/2-y,z
loop_
_atom_site_type_symbol
_atom_site_label
_atom_site_fract_x
_atom_site_fract_y
_atom_site_fract_z
Si Si1 0.339955 0.452593 0.262013
Si Si2 0.218372 0.653450 0.090677
Si Si3 0.364783 0.869310 0.322395
Si Si4 0.088898 0.914329 0.590437
Si Si5 0.640145 0.291951 0.699088
Si Si6 0.500000 0.668901 0.091260
Si Si7 0.000000 0.764471 0.597038
O O1 0.361960 0.500000 0.230881
O O2 0.250000 0.445150 0.250000
O O3 0.384525 0.415568 0.214222
O O4 0.368893 0.449043 0.353683
O O5 0.283143 0.625957 0.134571
O O6 0.136723 0.629666 0.096254
O O7 0.212334 0.697596 0.141260
O O8 0.242529 0.663507 0.000000
O O9 0.371436 0.832942 0.255392
O O10 0.426245 0.858784 0.389301
O O11 0.093031 0.932107 0.500000
O O12 0.000000 0.906140 0.614949
O O13 0.657336 0.250000 0.750000
O O14 0.571954 0.287067 0.636408
O O15 0.500000 0.715853 0.131151
O O16 0.500000 0.680209 0.000000
O O17 0.000000 0.769691 0.500000
#
# Coordination Sequence:
#
# PCOD8285415 Si02
#       7
#    32  32  32  32  32  16  16
#     4  11  23  43  68  98 134 177 227 276 331 400
#     4  11  24  42  66  97 135 177 220 271 336 406
#     4  12  23  44  68  94 134 171 229 278 332 397
#     4  10  22  41  67 100 137 175 218 275 342 407
#     4  12  23  40  64  96 131 173 213 275 325 396
#     4  11  25  45  68  92 127 176 223 279 335 390
#     4  11  24  44  64  98 137 173 226 271 332 409
#
# _framework density 20.968039000000001
#
# number of rings (size 3 to 8) (size 9 to 14) (size 15 to 20)
#    0.000    0.833    5.000    2.250    2.333    2.000 
#    0.000    1.667    0.000    2.500    0.000    0.000 
#    0.000    0.000    0.000    0.000    0.000    0.000 
#
# Total GULP energy -594949.760918 kJ/mol
# GULP energy per Si atom -12394.786686 kJ/mol
# Density = 2.092032 g / cm^3
# Si number density = 20.968039 Si / 1000 Ang^3
#
#
#
# Elastic Constant Matrix: (Units=GPa)
#
#
# Indices 1 2 3 4 5 6 
#
# 1 113.3891 34.5405 47.9114 0.0000 0.0000 0.0000
# 2 34.5405 139.5220 54.5119 0.0000 0.0000 0.0000
# 3 47.9114 54.5119 117.8359 0.0000 0.0000 0.0000
# 4 0.0000 0.0000 0.0000 24.1817 0.0000 0.0000
# 5 0.0000 0.0000 0.0000 0.0000 39.4582 0.0000
# 6 0.0000 0.0000 0.0000 0.0000 0.0000 3.8944
#
#
#
# Elastic Compliance Matrix: (Units=1/GPa)
#
#
# Indices 1 2 3 4 5 6 
#
# 1 0.010803 -0.001170 -0.003851 0.000000 0.000000 0.000000
# 2 -0.001170 0.008875 -0.003630 0.000000 0.000000 0.000000
# 3 -0.003851 -0.003630 0.011732 0.000000 0.000000 0.000000
# 4 0.000000 0.000000 0.000000 0.041354 0.000000 0.000000
# 5 0.000000 0.000000 0.000000 0.000000 0.025343 0.000000
# 6 0.000000 0.000000 0.000000 0.000000 0.000000 0.256777
#
#
# Mechanical properties :
#
#
# Convention : Reuss Voigt Hill
#
# Bulk Modulus (GPa) = 70.88455 71.63052 71.25753
# Shear Modulus (GPa) = 13.26652 29.09241 21.17946
#
# Velocity S-wave (km/s) = 2.51809 3.72891 3.18163
# Velocity P-wave (km/s) = 6.50644 7.26468 6.89599
#
# Compressibility (1/GPa) = 0.01410745
#
# Stress axis : x y z
#
# Youngs Moduli (GPa) = 92.56859 112.67320 85.23966
#
# Poissons Ratio (x) = 0.13179 0.32828
# Poissons Ratio (y) = 0.10827 0.30944
# Poissons Ratio (z) = 0.35651 0.40902
#
# Static dielectric constant tensor:
#      x y z
#    x 3.930430 0.000000 0.000000 
#    y 0.000000 3.760370 0.000000 
#    z 0.000000 0.000000 4.035100 
# 
# 
# High freq. dielectric constant tensor:
#      x y z
#    x 1.822150 0.000000 0.000000 
#    y 0.000000 1.809260 0.000000 
#    z 0.000000 0.000000 1.831910 
# 
# From -- ./inp_files/23736.got.cif
#   From: 2010.03.12/outbox.cif.g09.slc.cpg/sg69_12_cif.got.tgz:23736.got - 2010.04.10 23:52:46.
