data_PCOD8285881
_publ_section_title
;
Structure prediction by ZEFSAII (Michael W. Deem and Ramdas Pophale) SiO2 
 PCOD8285881
Probable space group: F D D D
;
_chemical_formula_sum "Si O2"
_cell_formula_units_Z 160
_cell_length_a 21.574834
_cell_length_b 15.416757
_cell_length_c 22.760475
_cell_angle_alpha 90.000000
_cell_angle_beta 90.000000
_cell_angle_gamma 90.000000
_cell_volume 7570.452019
_symmetry_space_group_name_H-M "F D D D"
_symmetry_group_IT_number 70
_space_group.IT_coordinate_system_code '2'
_symmetry_cell_setting 'orthorhombic'
loop_
_space_group_symop_operation_xyz
x,y,z
1/4-x,1/4-y,z
x,1/4-y,1/4-z
1/4-x,y,1/4-z
-x,-y,-z
3/4+x,3/4+y,-z
-x,3/4+y,3/4+z
3/4+x,-y,3/4+z
x,1/2+y,1/2+z
1/4-x,3/4-y,1/2+z
x,3/4-y,3/4-z
1/4-x,1/2+y,3/4-z
-x,1/2-y,1/2-z
3/4+x,1/4+y,1/2-z
-x,1/4+y,1/4+z
3/4+x,1/2-y,1/4+z
1/2+x,y,1/2+z
3/4-x,1/4-y,1/2+z
1/2+x,1/4-y,3/4-z
3/4-x,y,3/4-z
1/2-x,-y,1/2-z
1/4+x,3/4+y,1/2-z
1/2-x,3/4+y,1/4+z
1/4+x,-y,1/4+z
1/2+x,1/2+y,z
3/4-x,3/4-y,z
1/2+x,3/4-y,1/4-z
3/4-x,1/2+y,1/4-z
1/2-x,1/2-y,-z
1/4+x,1/4+y,-z
1/2-x,1/4+y,3/4+z
1/4+x,1/2-y,3/4+z
loop_
_atom_site_type_symbol
_atom_site_label
_atom_site_fract_x
_atom_site_fract_y
_atom_site_fract_z
Si Si1 0.823724 0.993864 0.325908
Si Si2 0.546578 0.494592 0.836236
Si Si3 0.642033 0.322029 0.448033
Si Si4 0.625000 0.125000 0.272325
Si Si5 0.336097 0.555411 0.932059
Si Si6 0.279996 0.125000 0.625000
O O1 0.875000 0.975357 0.375000
O O2 0.844605 0.950780 0.265600
O O3 0.759806 0.951437 0.346361
O O4 0.813680 0.095213 0.314632
O O5 0.576678 0.416649 0.798899
O O6 0.563994 0.486326 0.905743
O O7 0.572338 0.585661 0.813699
O O8 0.473371 0.492997 0.823069
O O9 0.631615 0.282595 0.512933
O O10 0.572531 0.328521 0.423089
O O11 0.375000 0.535889 0.875000
#
# Coordination Sequence:
#
# PCOD8285881 Si02
#       6
#    32  32  32  16  32  16
#     4  11  21  34  59 104 139 166 209 256 328 411
#     4  10  24  41  65  92 136 173 218 268 328 391
#     4  10  24  45  60  95 132 171 220 282 323 387
#     4  12  19  36  64 100 131 178 196 266 330 410
#     4  11  25  41  68  94 127 178 223 274 326 388
#     4  10  19  34  60  88 139 178 192 250 340 394
#
# _framework density 21.134802000000001
#
# number of rings (size 3 to 8) (size 9 to 14) (size 15 to 20)
#    0.000    1.600    4.000    1.200    5.600    2.400 
#    0.000    2.000    0.000    0.000    0.000    0.000 
#    0.000    0.000    0.000    0.000    0.000    0.000 
#
# Total GULP energy -495987.818281 kJ/mol
# GULP energy per Si atom -12399.695457 kJ/mol
# Density = 2.108670 g / cm^3
# Si number density = 21.134802 Si / 1000 Ang^3
#
#
#
# Elastic Constant Matrix: (Units=GPa)
#
#
# Indices 1 2 3 4 5 6 
#
# 1 115.1254 32.7755 55.2431 0.0000 0.0000 0.0000
# 2 32.7755 45.1131 28.5324 0.0000 0.0000 0.0000
# 3 55.2431 28.5324 158.9516 0.0000 0.0000 0.0000
# 4 0.0000 0.0000 0.0000 55.0168 0.0000 0.0000
# 5 0.0000 0.0000 0.0000 0.0000 17.7389 0.0000
# 6 0.0000 0.0000 0.0000 0.0000 0.0000 27.1904
#
#
#
# Elastic Compliance Matrix: (Units=1/GPa)
#
#
# Indices 1 2 3 4 5 6 
#
# 1 0.012069 -0.006898 -0.002956 0.000000 0.000000 0.000000
# 2 -0.006898 0.028949 -0.002799 0.000000 0.000000 0.000000
# 3 -0.002956 -0.002799 0.007821 0.000000 0.000000 0.000000
# 4 0.000000 0.000000 0.000000 0.018176 0.000000 0.000000
# 5 0.000000 0.000000 0.000000 0.000000 0.056373 0.000000
# 6 0.000000 0.000000 0.000000 0.000000 0.000000 0.036778
#
#
# Mechanical properties :
#
#
# Convention : Reuss Voigt Hill
#
# Bulk Modulus (GPa) = 42.49648 61.36581 51.93115
# Shear Modulus (GPa) = 25.86438 33.49849 29.68144
#
# Velocity S-wave (km/s) = 3.50205 3.98551 3.75158
# Velocity P-wave (km/s) = 6.04181 7.09067 6.58715
#
# Compressibility (1/GPa) = 0.02353136
#
# Stress axis : x y z
#
# Youngs Moduli (GPa) = 82.85950 34.54408 127.86065
#
# Poissons Ratio (x) = 0.23830 0.37797
# Poissons Ratio (y) = 0.57160 0.35786
# Poissons Ratio (z) = 0.24494 0.09668
#
# Static dielectric constant tensor:
#      x y z
#    x 3.762340 0.000000 0.000000 
#    y 0.000000 3.613620 0.000000 
#    z 0.000000 0.000000 3.648100 
# 
# 
# High freq. dielectric constant tensor:
#      x y z
#    x 1.833410 0.000000 0.000000 
#    y 0.000000 1.808170 0.000000 
#    z 0.000000 0.000000 1.833490 
# 
# From -- ./inp_files/37475.got.cif
#   From: 2010.03.12/outbox.cif.g09.slc.cpg/sg70_19_cif.got.tgz:37475.got - 2010.04.16 13:46:32.
