data_PCOD8285361
_publ_section_title
;
Structure prediction by ZEFSAII (Michael W. Deem and Ramdas Pophale) SiO2 
 PCOD8285361
Probable space group: F M M M
;
_chemical_formula_sum "Si O2"
_cell_formula_units_Z 160
_cell_length_a 16.775936
_cell_length_b 22.160596
_cell_length_c 21.125532
_cell_angle_alpha 90.000000
_cell_angle_beta 90.000000
_cell_angle_gamma 90.000000
_cell_volume 7853.727916
_symmetry_space_group_name_H-M "F M M M"
_symmetry_group_IT_number 69
_symmetry_cell_setting 'orthorhombic'
loop_
_space_group_symop_operation_xyz
x,y,z
-x,-y,z
x,-y,-z
-x,y,-z
-x,-y,-z
x,y,-z
-x,y,z
x,-y,z
x,1/2+y,1/2+z
-x,1/2-y,1/2+z
x,1/2-y,1/2-z
-x,1/2+y,1/2-z
-x,1/2-y,1/2-z
x,1/2+y,1/2-z
-x,1/2+y,1/2+z
x,1/2-y,1/2+z
1/2+x,y,1/2+z
1/2-x,-y,1/2+z
1/2+x,-y,1/2-z
1/2-x,y,1/2-z
1/2-x,-y,1/2-z
1/2+x,y,1/2-z
1/2-x,y,1/2+z
1/2+x,-y,1/2+z
1/2+x,1/2+y,z
1/2-x,1/2-y,z
1/2+x,1/2-y,-z
1/2-x,1/2+y,-z
1/2-x,1/2-y,-z
1/2+x,1/2+y,-z
1/2-x,1/2+y,z
1/2+x,1/2-y,z
loop_
_atom_site_type_symbol
_atom_site_label
_atom_site_fract_x
_atom_site_fract_y
_atom_site_fract_z
Si Si1 0.407926 0.614304 0.752271
Si Si2 0.226183 0.500000 0.928729
Si Si3 0.337446 0.619021 0.380028
Si Si4 0.909960 0.261482 0.072279
Si Si5 0.678128 0.500000 0.198955
Si Si6 0.303277 0.694042 0.168313
O O1 0.500000 0.625487 0.767626
O O2 0.396208 0.603920 0.677887
O O3 0.377593 0.557587 0.791988
O O4 0.357588 0.673450 0.772720
O O5 0.170912 0.440839 0.921992
O O6 0.292041 0.500000 0.873422
O O7 0.263540 0.500000 0.000000
O O8 0.374007 0.671704 0.422573
O O9 0.250896 0.637914 0.353275
O O10 0.858935 0.212859 0.110136
O O11 0.000000 0.261546 0.098421
O O12 0.906878 0.240842 0.000000
O O13 0.750000 0.500000 0.250000
O O14 0.250000 0.750000 0.191201
#
# Coordination Sequence:
#
# PCOD8285361 Si02
#       6
#    32  16  32  32  16  32
#     4  12  23  39  65  97 128 165 209 268 330 381
#     4  12  24  40  68  96 124 160 212 260 310 374
#     4  11  22  40  63  91 125 162 213 261 317 373
#     4  10  22  40  59  86 127 170 212 262 319 379
#     4  12  21  44  67  93 129 165 211 264 317 381
#     4  10  22  38  62  89 123 165 212 261 311 372
#
# _framework density 20.372489999999999
#
# number of rings (size 3 to 8) (size 9 to 14) (size 15 to 20)
#    0.000    1.000    4.000    2.700    0.000   10.000 
#    0.000    6.500    0.000    4.800    0.000    0.000 
#    0.000    0.000    0.000    0.000    0.000    0.000 
#
# Total GULP energy -496170.731072 kJ/mol
# GULP energy per Si atom -12404.268277 kJ/mol
# Density = 2.032612 g / cm^3
# Si number density = 20.372490 Si / 1000 Ang^3
#
#
#
# Elastic Constant Matrix: (Units=GPa)
#
#
# Indices 1 2 3 4 5 6 
#
# 1 130.8098 33.6103 33.0833 0.0000 0.0000 0.0000
# 2 33.6103 89.5846 24.8259 0.0000 0.0000 0.0000
# 3 33.0833 24.8259 113.4496 0.0000 0.0000 0.0000
# 4 0.0000 0.0000 0.0000 30.1938 0.0000 0.0000
# 5 0.0000 0.0000 0.0000 0.0000 32.8816 0.0000
# 6 0.0000 0.0000 0.0000 0.0000 0.0000 24.4115
#
#
#
# Elastic Compliance Matrix: (Units=1/GPa)
#
#
# Indices 1 2 3 4 5 6 
#
# 1 0.008858 -0.002776 -0.001976 0.000000 0.000000 0.000000
# 2 -0.002776 0.012753 -0.001981 0.000000 0.000000 0.000000
# 3 -0.001976 -0.001981 0.009824 0.000000 0.000000 0.000000
# 4 0.000000 0.000000 0.000000 0.033119 0.000000 0.000000
# 5 0.000000 0.000000 0.000000 0.000000 0.030412 0.000000
# 6 0.000000 0.000000 0.000000 0.000000 0.000000 0.040964
#
#
# Mechanical properties :
#
#
# Convention : Reuss Voigt Hill
#
# Bulk Modulus (GPa) = 55.64941 57.43144 56.54042
# Shear Modulus (GPa) = 32.17802 33.65234 32.91518
#
# Velocity S-wave (km/s) = 3.97858 4.06871 4.02390
# Velocity P-wave (km/s) = 6.96281 7.09397 7.02870
#
# Compressibility (1/GPa) = 0.01796964
#
# Stress axis : x y z
#
# Youngs Moduli (GPa) = 112.89848 78.41246 101.79002
#
# Poissons Ratio (x) = 0.21765 0.20109
# Poissons Ratio (y) = 0.31337 0.20168
# Poissons Ratio (z) = 0.22304 0.15536
#
# Static dielectric constant tensor:
#      x y z
#    x 3.754370 0.000000 0.000000 
#    y 0.000000 3.779300 0.000000 
#    z 0.000000 0.000000 3.557930 
# 
# 
# High freq. dielectric constant tensor:
#      x y z
#    x 1.792940 0.000000 0.000000 
#    y 0.000000 1.805420 0.000000 
#    z 0.000000 0.000000 1.793880 
# 
# From -- ./inp_files/24650.got.cif
#   From: 2010.03.12/outbox.cif.g09.slc.cpg/sg69_13_cif.got.tgz:24650.got - 2010.04.10 23:52:46.
