data_PCOD8285579
_publ_section_title
;
Structure prediction by ZEFSAII (Michael W. Deem and Ramdas Pophale) SiO2 
 PCOD8285579
Probable space group: F M M M
;
_chemical_formula_sum "Si O2"
_cell_formula_units_Z 208
_cell_length_a 18.176419
_cell_length_b 20.810615
_cell_length_c 29.420709
_cell_angle_alpha 90.000000
_cell_angle_beta 90.000000
_cell_angle_gamma 90.000000
_cell_volume 11128.749699
_symmetry_space_group_name_H-M "F M M M"
_symmetry_group_IT_number 69
_symmetry_cell_setting 'orthorhombic'
loop_
_space_group_symop_operation_xyz
x,y,z
-x,-y,z
x,-y,-z
-x,y,-z
-x,-y,-z
x,y,-z
-x,y,z
x,-y,z
x,1/2+y,1/2+z
-x,1/2-y,1/2+z
x,1/2-y,1/2-z
-x,1/2+y,1/2-z
-x,1/2-y,1/2-z
x,1/2+y,1/2-z
-x,1/2+y,1/2+z
x,1/2-y,1/2+z
1/2+x,y,1/2+z
1/2-x,-y,1/2+z
1/2+x,-y,1/2-z
1/2-x,y,1/2-z
1/2-x,-y,1/2-z
1/2+x,y,1/2-z
1/2-x,y,1/2+z
1/2+x,-y,1/2+z
1/2+x,1/2+y,z
1/2-x,1/2-y,z
1/2+x,1/2-y,-z
1/2-x,1/2+y,-z
1/2-x,1/2-y,-z
1/2+x,1/2+y,-z
1/2-x,1/2+y,z
1/2+x,1/2-y,z
loop_
_atom_site_type_symbol
_atom_site_label
_atom_site_fract_x
_atom_site_fract_y
_atom_site_fract_z
Si Si1 0.584455 0.227401 0.552536
Si Si2 0.082157 0.076552 0.295996
Si Si3 0.086558 0.927813 0.195033
Si Si4 0.413416 0.500000 0.053760
Si Si5 0.814597 0.426424 0.875597
Si Si6 0.344309 0.618298 0.107137
Si Si7 0.415556 0.125167 0.948566
O O1 0.605528 0.216601 0.500000
O O2 0.500000 0.206329 0.560421
O O3 0.637867 0.185919 0.583977
O O4 0.595820 0.301188 0.566593
O O5 0.106459 0.098364 0.245351
O O6 0.142417 0.102404 0.331718
O O7 0.000000 0.103330 0.307569
O O8 0.078634 0.000000 0.297599
O O9 0.121768 0.881927 0.157527
O O10 0.000000 0.928653 0.188467
O O11 0.117955 0.000000 0.188139
O O12 0.500000 0.500000 0.064830
O O13 0.376629 0.562370 0.075530
O O14 0.398658 0.500000 0.000000
O O15 0.791516 0.500000 0.867071
O O16 0.743055 0.385204 0.886995
O O17 0.868805 0.422997 0.918221
O O18 0.500000 0.105139 0.943505
O O19 0.388803 0.116182 0.000000
#
# Coordination Sequence:
#
# PCOD8285579 Si02
#       7
#    32  32  32  16  32  32  32
#     4   9  19  37  58  77  99 135 185 227 258 306
#     4   8  16  31  52  74  99 138 180 218 262 312
#     4   9  16  29  50  75 103 137 180 223 258 303
#     4  11  22  34  48  69 103 147 183 212 251 300
#     4  11  22  35  50  79 115 142 170 211 270 326
#     4  12  21  32  49  79 112 143 173 211 264 315
#     4   9  20  39  60  78  97 132 183 230 268 310
#
# _framework density 18.690329999999999
#
# number of rings (size 3 to 8) (size 9 to 14) (size 15 to 20)
#    0.000    2.231    1.538    4.154    0.000    4.923 
#    0.000    4.615    0.000    0.923    0.000    6.462 
#    0.000    0.000    0.000    0.000    0.000    0.000 
#
# Total GULP energy -644792.685066 kJ/mol
# GULP energy per Si atom -12399.859328 kJ/mol
# Density = 1.864779 g / cm^3
# Si number density = 18.690330 Si / 1000 Ang^3
#
#
#
# Elastic Constant Matrix: (Units=GPa)
#
#
# Indices 1 2 3 4 5 6 
#
# 1 82.2260 12.2825 55.6557 0.0000 0.0000 0.0000
# 2 12.2825 17.9343 13.2248 0.0000 0.0000 0.0000
# 3 55.6557 13.2248 112.8908 0.0000 0.0000 0.0000
# 4 0.0000 0.0000 0.0000 14.9068 0.0000 0.0000
# 5 0.0000 0.0000 0.0000 0.0000 8.4536 0.0000
# 6 0.0000 0.0000 0.0000 0.0000 0.0000 21.3342
#
#
#
# Elastic Compliance Matrix: (Units=1/GPa)
#
#
# Indices 1 2 3 4 5 6 
#
# 1 0.018953 -0.006666 -0.008563 0.000000 0.000000 0.000000
# 2 -0.006666 0.063375 -0.004138 0.000000 0.000000 0.000000
# 3 -0.008563 -0.004138 0.013565 0.000000 0.000000 0.000000
# 4 0.000000 0.000000 0.000000 0.067083 0.000000 0.000000
# 5 0.000000 0.000000 0.000000 0.000000 0.118292 0.000000
# 6 0.000000 0.000000 0.000000 0.000000 0.000000 0.046873
#
#
# Mechanical properties :
#
#
# Convention : Reuss Voigt Hill
#
# Bulk Modulus (GPa) = 17.49493 41.70856 29.60174
# Shear Modulus (GPa) = 12.95573 17.73147 15.34360
#
# Velocity S-wave (km/s) = 2.63568 3.08344 2.86831
# Velocity P-wave (km/s) = 4.31777 5.91953 5.18093
#
# Compressibility (1/GPa) = 0.05715943
#
# Stress axis : x y z
#
# Youngs Moduli (GPa) = 52.76073 15.77897 73.72135
#
# Poissons Ratio (x) = 0.10518 0.63130
# Poissons Ratio (y) = 0.35170 0.30505
# Poissons Ratio (z) = 0.45180 0.06529
#
# Static dielectric constant tensor:
#      x y z
#    x 3.399670 0.000000 0.000000 
#    y 0.000000 3.055350 0.000000 
#    z 0.000000 0.000000 3.674270 
# 
# 
# High freq. dielectric constant tensor:
#      x y z
#    x 1.723100 0.000000 0.000000 
#    y 0.000000 1.684600 0.000000 
#    z 0.000000 0.000000 1.737760 
# 
# From -- ./inp_files/38498.got.cif
#   From: 2010.03.12/outbox.cif.g09.slc.cpg/sg69_20_cif.got.tgz:38498.got - 2010.04.10 23:52:46.
