data_PCOD8285868
_publ_section_title
;
Structure prediction by ZEFSAII (Michael W. Deem and Ramdas Pophale) SiO2 
 PCOD8285868
Probable space group: F D D D
;
_chemical_formula_sum "Si O2"
_cell_formula_units_Z 160
_cell_length_a 27.808870
_cell_length_b 19.107652
_cell_length_c 14.655090
_cell_angle_alpha 90.000000
_cell_angle_beta 90.000000
_cell_angle_gamma 90.000000
_cell_volume 7787.161017
_symmetry_space_group_name_H-M "F D D D"
_symmetry_group_IT_number 70
_space_group.IT_coordinate_system_code '2'
_symmetry_cell_setting 'orthorhombic'
loop_
_space_group_symop_operation_xyz
x,y,z
1/4-x,1/4-y,z
x,1/4-y,1/4-z
1/4-x,y,1/4-z
-x,-y,-z
3/4+x,3/4+y,-z
-x,3/4+y,3/4+z
3/4+x,-y,3/4+z
x,1/2+y,1/2+z
1/4-x,3/4-y,1/2+z
x,3/4-y,3/4-z
1/4-x,1/2+y,3/4-z
-x,1/2-y,1/2-z
3/4+x,1/4+y,1/2-z
-x,1/4+y,1/4+z
3/4+x,1/2-y,1/4+z
1/2+x,y,1/2+z
3/4-x,1/4-y,1/2+z
1/2+x,1/4-y,3/4-z
3/4-x,y,3/4-z
1/2-x,-y,1/2-z
1/4+x,3/4+y,1/2-z
1/2-x,3/4+y,1/4+z
1/4+x,-y,1/4+z
1/2+x,1/2+y,z
3/4-x,3/4-y,z
1/2+x,3/4-y,1/4-z
3/4-x,1/2+y,1/4-z
1/2-x,1/2-y,-z
1/4+x,1/4+y,-z
1/2-x,1/4+y,3/4+z
1/4+x,1/2-y,3/4+z
loop_
_atom_site_type_symbol
_atom_site_label
_atom_site_fract_x
_atom_site_fract_y
_atom_site_fract_z
Si Si1 0.675557 0.877718 0.675825
Si Si2 0.245631 0.735213 0.853745
Si Si3 0.791107 0.375000 0.875000
Si Si4 0.428615 0.373524 0.178720
Si Si5 0.703694 0.875000 0.875000
Si Si6 0.004652 0.486195 0.645249
O O1 0.625000 0.871899 0.625000
O O2 0.709099 0.816610 0.636269
O O3 0.670279 0.865056 0.785359
O O4 0.698963 0.953829 0.655485
O O5 0.257798 0.808840 0.901182
O O6 0.200120 0.702624 0.905767
O O7 0.231371 0.751114 0.749897
O O8 0.823646 0.359830 0.786911
O O9 0.375000 0.375000 0.139022
O O10 0.460006 0.433458 0.130988
O O11 0.738954 0.810005 0.897479
#
# Coordination Sequence:
#
# PCOD8285868 Si02
#       6
#    32  32  16  32  16  32
#     4  10  21  38  59  85 115 149 192 236 281 344
#     4   9  20  37  54  78 112 146 183 234 287 337
#     4  10  19  34  53  75 108 149 188 230 282 340
#     4  10  20  34  53  78 110 147 188 233 283 342
#     4  10  20  38  62  83 114 155 185 234 299 336
#     4   9  20  38  57  81 112 146 190 236 284 342
#
# _framework density 20.54664
#
# number of rings (size 3 to 8) (size 9 to 14) (size 15 to 20)
#    0.000    2.400    0.000    1.500    0.000    6.400 
#    0.000   10.500    0.000    0.000    0.000    0.000 
#    0.000    0.000    0.000    0.000    0.000    0.000 
#
# Total GULP energy -495977.426770 kJ/mol
# GULP energy per Si atom -12399.435669 kJ/mol
# Density = 2.049987 g / cm^3
# Si number density = 20.546640 Si / 1000 Ang^3
#
#
#
# Elastic Constant Matrix: (Units=GPa)
#
#
# Indices 1 2 3 4 5 6 
#
# 1 135.1818 50.1085 44.1195 0.0000 0.0000 0.0000
# 2 50.1085 134.0457 15.1826 0.0000 0.0000 0.0000
# 3 44.1195 15.1826 71.0510 0.0000 0.0000 0.0000
# 4 0.0000 0.0000 0.0000 31.4379 0.0000 0.0000
# 5 0.0000 0.0000 0.0000 0.0000 18.4949 0.0000
# 6 0.0000 0.0000 0.0000 0.0000 0.0000 10.0940
#
#
#
# Elastic Compliance Matrix: (Units=1/GPa)
#
#
# Indices 1 2 3 4 5 6 
#
# 1 0.010512 -0.003269 -0.005829 0.000000 0.000000 0.000000
# 2 -0.003269 0.008662 0.000179 0.000000 0.000000 0.000000
# 3 -0.005829 0.000179 0.017655 0.000000 0.000000 0.000000
# 4 0.000000 0.000000 0.000000 0.031809 0.000000 0.000000
# 5 0.000000 0.000000 0.000000 0.000000 0.054069 0.000000
# 6 0.000000 0.000000 0.000000 0.000000 0.000000 0.099069
#
#
# Mechanical properties :
#
#
# Convention : Reuss Voigt Hill
#
# Bulk Modulus (GPa) = 52.65521 62.12218 57.38869
# Shear Modulus (GPa) = 20.32988 27.39656 23.86322
#
# Velocity S-wave (km/s) = 3.14897 3.65551 3.41165
# Velocity P-wave (km/s) = 6.23732 6.93667 6.59627
#
# Compressibility (1/GPa) = 0.01899147
#
# Stress axis : x y z
#
# Youngs Moduli (GPa) = 95.13342 115.44751 56.63977
#
# Poissons Ratio (x) = 0.37742 0.33013
# Poissons Ratio (y) = 0.31101 -0.01014
# Poissons Ratio (z) = 0.55450 -0.02068
#
# Static dielectric constant tensor:
#      x y z
#    x 3.348570 0.000000 0.000000 
#    y 0.000000 3.982320 0.000000 
#    z 0.000000 0.000000 3.715760 
# 
# 
# High freq. dielectric constant tensor:
#      x y z
#    x 1.769500 0.000000 0.000000 
#    y 0.000000 1.816720 0.000000 
#    z 0.000000 0.000000 1.806120 
# 
# From -- ./inp_files/30917.got.cif
#   From: 2010.03.12/outbox.cif.g09.slc.cpg/sg70_16_cif.got.tgz:30917.got - 2010.04.16 13:46:32.
