data_PCOD8285816
_publ_section_title
;
Structure prediction by ZEFSAII (Michael W. Deem and Ramdas Pophale) SiO2 
 PCOD8285816
Probable space group: F D D D
;
_chemical_formula_sum "Si O2"
_cell_formula_units_Z 136
_cell_length_a 28.120981
_cell_length_b 10.224267
_cell_length_c 22.734294
_cell_angle_alpha 90.000000
_cell_angle_beta 90.000000
_cell_angle_gamma 90.000000
_cell_volume 6536.482778
_symmetry_space_group_name_H-M "F D D D"
_symmetry_group_IT_number 70
_space_group.IT_coordinate_system_code '2'
_symmetry_cell_setting 'orthorhombic'
loop_
_space_group_symop_operation_xyz
x,y,z
1/4-x,1/4-y,z
x,1/4-y,1/4-z
1/4-x,y,1/4-z
-x,-y,-z
3/4+x,3/4+y,-z
-x,3/4+y,3/4+z
3/4+x,-y,3/4+z
x,1/2+y,1/2+z
1/4-x,3/4-y,1/2+z
x,3/4-y,3/4-z
1/4-x,1/2+y,3/4-z
-x,1/2-y,1/2-z
3/4+x,1/4+y,1/2-z
-x,1/4+y,1/4+z
3/4+x,1/2-y,1/4+z
1/2+x,y,1/2+z
3/4-x,1/4-y,1/2+z
1/2+x,1/4-y,3/4-z
3/4-x,y,3/4-z
1/2-x,-y,1/2-z
1/4+x,3/4+y,1/2-z
1/2-x,3/4+y,1/4+z
1/4+x,-y,1/4+z
1/2+x,1/2+y,z
3/4-x,3/4-y,z
1/2+x,3/4-y,1/4-z
3/4-x,1/2+y,1/4-z
1/2-x,1/2-y,-z
1/4+x,1/4+y,-z
1/2-x,1/4+y,3/4+z
1/4+x,1/2-y,3/4+z
loop_
_atom_site_type_symbol
_atom_site_label
_atom_site_fract_x
_atom_site_fract_y
_atom_site_fract_z
Si Si1 0.625000 0.625000 0.826492
Si Si2 0.875000 0.875000 0.375000
Si Si3 0.584730 0.375000 0.375000
Si Si4 0.820331 0.744603 0.271425
Si Si5 0.116486 0.975365 0.193881
Si Si6 0.224758 0.889760 0.990991
O O1 0.616668 0.746308 0.869447
O O2 0.581875 0.592041 0.782498
O O3 0.839774 0.792773 0.334200
O O4 0.553141 0.362632 0.431403
O O5 0.845360 0.602864 0.265072
O O6 0.763170 0.743066 0.268122
O O7 0.125000 0.951486 0.125000
O O8 0.062593 0.925717 0.207166
O O9 0.125000 0.125000 0.211125
O O10 0.250000 0.750000 0.000000
#
# Coordination Sequence:
#
# PCOD8285816 Si02
#       6
#    16   8  16  32  32  32
#     4  11  24  43  64 102 143 186 221 294 362 414
#     4  10  18  36  70 104 140 180 222 310 352 404
#     4  12  25  42  70 105 148 178 237 298 359 426
#     4  11  21  41  70 102 137 183 245 287 353 430
#     4  11  26  47  69 101 150 191 236 302 367 427
#     4  12  25  43  73 107 135 186 251 294 354 437
#
# _framework density 20.806297000000001
#
# number of rings (size 3 to 8) (size 9 to 14) (size 15 to 20)
#    0.000    0.706    5.882    2.118    4.941    0.941 
#    0.000    2.353    0.000    0.000    0.000    0.000 
#    0.000    0.000    0.000    0.000    0.000    0.000 
#
# Total GULP energy -421384.391854 kJ/mol
# GULP energy per Si atom -12393.658584 kJ/mol
# Density = 2.075894 g / cm^3
# Si number density = 20.806297 Si / 1000 Ang^3
#
#
#
# Elastic Constant Matrix: (Units=GPa)
#
#
# Indices 1 2 3 4 5 6 
#
# 1 155.4575 72.7102 50.6458 0.0000 0.0000 0.0000
# 2 72.7102 155.8972 49.6895 0.0000 0.0000 0.0000
# 3 50.6458 49.6895 114.1565 0.0000 0.0000 0.0000
# 4 0.0000 0.0000 0.0000 35.4538 0.0000 0.0000
# 5 0.0000 0.0000 0.0000 0.0000 42.2899 0.0000
# 6 0.0000 0.0000 0.0000 0.0000 0.0000 36.1948
#
#
#
# Elastic Compliance Matrix: (Units=1/GPa)
#
#
# Indices 1 2 3 4 5 6 
#
# 1 0.008782 -0.003314 -0.002454 0.000000 0.000000 0.000000
# 2 -0.003314 0.008698 -0.002316 0.000000 0.000000 0.000000
# 3 -0.002454 -0.002316 0.010857 0.000000 0.000000 0.000000
# 4 0.000000 0.000000 0.000000 0.028206 0.000000 0.000000
# 5 0.000000 0.000000 0.000000 0.000000 0.023646 0.000000
# 6 0.000000 0.000000 0.000000 0.000000 0.000000 0.027628
#
#
# Mechanical properties :
#
#
# Convention : Reuss Voigt Hill
#
# Bulk Modulus (GPa) = 82.17055 85.73356 83.95206
# Shear Modulus (GPa) = 39.05015 39.61875 39.33445
#
# Velocity S-wave (km/s) = 4.33695 4.36842 4.35271
# Velocity P-wave (km/s) = 8.04100 8.16940 8.10546
#
# Compressibility (1/GPa) = 0.01216981
#
# Stress axis : x y z
#
# Youngs Moduli (GPa) = 113.87012 114.96638 92.11012
#
# Poissons Ratio (x) = 0.38098 0.22601
# Poissons Ratio (y) = 0.37734 0.21332
# Poissons Ratio (z) = 0.27940 0.26625
#
# Static dielectric constant tensor:
#      x y z
#    x 4.013930 0.000000 0.000000 
#    y 0.000000 2.703000 0.000000 
#    z 0.000000 0.000000 4.011100 
# 
# 
# High freq. dielectric constant tensor:
#      x y z
#    x 1.811330 0.000000 0.000000 
#    y 0.000000 1.817040 0.000000 
#    z 0.000000 0.000000 1.820300 
# 
# From -- ./inp_files/19443.got.cif
#   From: 2010.03.12/outbox.cif.g09.slc.cpg/sg70_10_cif.got.tgz:19443.got - 2010.04.16 13:46:32.
