data_PCOD8285836
_publ_section_title
;
Structure prediction by ZEFSAII (Michael W. Deem and Ramdas Pophale) SiO2 
 PCOD8285836
Probable space group: F D D D
;
_chemical_formula_sum "Si O2"
_cell_formula_units_Z 216
_cell_length_a 10.889076
_cell_length_b 28.140606
_cell_length_c 34.056880
_cell_angle_alpha 90.000000
_cell_angle_beta 90.000000
_cell_angle_gamma 90.000000
_cell_volume 10435.886178
_symmetry_space_group_name_H-M "F D D D"
_symmetry_group_IT_number 70
_space_group.IT_coordinate_system_code '2'
_symmetry_cell_setting 'orthorhombic'
loop_
_space_group_symop_operation_xyz
x,y,z
1/4-x,1/4-y,z
x,1/4-y,1/4-z
1/4-x,y,1/4-z
-x,-y,-z
3/4+x,3/4+y,-z
-x,3/4+y,3/4+z
3/4+x,-y,3/4+z
x,1/2+y,1/2+z
1/4-x,3/4-y,1/2+z
x,3/4-y,3/4-z
1/4-x,1/2+y,3/4-z
-x,1/2-y,1/2-z
3/4+x,1/4+y,1/2-z
-x,1/4+y,1/4+z
3/4+x,1/2-y,1/4+z
1/2+x,y,1/2+z
3/4-x,1/4-y,1/2+z
1/2+x,1/4-y,3/4-z
3/4-x,y,3/4-z
1/2-x,-y,1/2-z
1/4+x,3/4+y,1/2-z
1/2-x,3/4+y,1/4+z
1/4+x,-y,1/4+z
1/2+x,1/2+y,z
3/4-x,3/4-y,z
1/2+x,3/4-y,1/4-z
3/4-x,1/2+y,1/4-z
1/2-x,1/2-y,-z
1/4+x,1/4+y,-z
1/2-x,1/4+y,3/4+z
1/4+x,1/2-y,3/4+z
loop_
_atom_site_type_symbol
_atom_site_label
_atom_site_fract_x
_atom_site_fract_y
_atom_site_fract_z
Si Si1 0.375000 0.375000 0.140609
Si Si2 0.232847 0.373976 0.288347
Si Si3 0.773446 0.192439 0.842392
Si Si4 0.316255 0.557712 0.584868
Si Si5 0.865338 0.532667 0.581161
Si Si6 0.618956 0.484787 0.079131
Si Si7 0.625000 0.125000 0.625000
Si Si8 0.338170 0.613267 0.950374
O O1 0.345342 0.420338 0.113681
O O2 0.261233 0.359517 0.166314
O O3 0.375000 0.375000 0.301303
O O4 0.160784 0.420579 0.303432
O O5 0.168658 0.327757 0.305506
O O6 0.224971 0.373080 0.241592
O O7 0.875000 0.203950 0.875000
O O8 0.730028 0.240485 0.821101
O O9 0.819095 0.156084 0.808987
O O10 0.397385 0.544512 0.622769
O O11 0.246295 0.511579 0.567071
O O12 0.209430 0.594062 0.596688
O O13 0.004898 0.519469 0.570615
O O14 0.625000 0.471041 0.125000
O O15 0.597603 0.438368 0.051872
#
# Coordination Sequence:
#
# PCOD8285836 Si02
#       8
#    16  32  32  32  32  32   8  32
#     4  10  18  42  65  88 123 168 213 268 314 387
#     4  12  27  43  60  91 142 178 206 260 329 404
#     4  10  22  37  65  94 122 165 225 273 315 377
#     4  11  21  40  71  97 126 171 228 270 325 378
#     4  11  22  40  64  97 124 164 225 273 316 380
#     4  10  20  40  71  98 120 162 223 281 324 374
#     4  12  16  44  68 100 120 164 220 282 312 374
#     4  11  23  42  62  94 134 173 208 261 338 392
#
# _framework density 20.697811000000002
#
# number of rings (size 3 to 8) (size 9 to 14) (size 15 to 20)
#    0.000    1.185    4.444    4.000    2.074    2.370 
#    0.000    6.667    0.000    0.000    0.000    0.000 
#    0.000    0.000    0.000    0.000    0.000    0.000 
#
# Total GULP energy -669733.284416 kJ/mol
# GULP energy per Si atom -12402.468230 kJ/mol
# Density = 2.065070 g / cm^3
# Si number density = 20.697811 Si / 1000 Ang^3
#
#
#
# Elastic Constant Matrix: (Units=GPa)
#
#
# Indices 1 2 3 4 5 6 
#
# 1 97.4374 37.6075 29.9421 0.0000 0.0000 0.0000
# 2 37.6075 109.4116 27.9766 0.0000 0.0000 0.0000
# 3 29.9421 27.9766 49.7252 0.0000 0.0000 0.0000
# 4 0.0000 0.0000 0.0000 15.1208 0.0000 0.0000
# 5 0.0000 0.0000 0.0000 0.0000 22.4825 0.0000
# 6 0.0000 0.0000 0.0000 0.0000 0.0000 40.2854
#
#
#
# Elastic Compliance Matrix: (Units=1/GPa)
#
#
# Indices 1 2 3 4 5 6 
#
# 1 0.013368 -0.002963 -0.006383 0.000000 0.000000 0.000000
# 2 -0.002963 0.011332 -0.004592 0.000000 0.000000 0.000000
# 3 -0.006383 -0.004592 0.026537 0.000000 0.000000 0.000000
# 4 0.000000 0.000000 0.000000 0.066134 0.000000 0.000000
# 5 0.000000 0.000000 0.000000 0.000000 0.044479 0.000000
# 6 0.000000 0.000000 0.000000 0.000000 0.000000 0.024823
#
#
# Mechanical properties :
#
#
# Convention : Reuss Voigt Hill
#
# Bulk Modulus (GPa) = 42.80243 49.73629 46.26936
# Shear Modulus (GPa) = 22.48856 26.31428 24.40142
#
# Velocity S-wave (km/s) = 3.29981 3.56948 3.43729
# Velocity P-wave (km/s) = 5.93658 6.40860 6.17710
#
# Compressibility (1/GPa) = 0.02336316
#
# Stress axis : x y z
#
# Youngs Moduli (GPa) = 74.80613 88.24318 37.68290
#
# Poissons Ratio (x) = 0.26145 0.24051
# Poissons Ratio (y) = 0.22164 0.17303
# Poissons Ratio (z) = 0.47745 0.40519
#
# Static dielectric constant tensor:
#      x y z
#    x 3.883530 0.000000 0.000000 
#    y 0.000000 3.996090 0.000000 
#    z 0.000000 0.000000 3.460400 
# 
# 
# High freq. dielectric constant tensor:
#      x y z
#    x 1.818630 0.000000 0.000000 
#    y 0.000000 1.824400 0.000000 
#    z 0.000000 0.000000 1.776200 
# 
# From -- ./inp_files/65184.got.cif
#   From: 2010.03.12/outbox.cif.g09.slc.cpg/sg70_33_cif.got.tgz:65184.got - 2010.04.16 13:46:32.
