data_PCOD8285490
_publ_section_title
;
Structure prediction by ZEFSAII (Michael W. Deem and Ramdas Pophale) SiO2 
 PCOD8285490
Probable space group: F M M M
;
_chemical_formula_sum "Si O2"
_cell_formula_units_Z 104
_cell_length_a 22.780093
_cell_length_b 16.433424
_cell_length_c 13.235061
_cell_angle_alpha 90.000000
_cell_angle_beta 90.000000
_cell_angle_gamma 90.000000
_cell_volume 4954.610295
_symmetry_space_group_name_H-M "F M M M"
_symmetry_group_IT_number 69
_symmetry_cell_setting 'orthorhombic'
loop_
_space_group_symop_operation_xyz
x,y,z
-x,-y,z
x,-y,-z
-x,y,-z
-x,-y,-z
x,y,-z
-x,y,z
x,-y,z
x,1/2+y,1/2+z
-x,1/2-y,1/2+z
x,1/2-y,1/2-z
-x,1/2+y,1/2-z
-x,1/2-y,1/2-z
x,1/2+y,1/2-z
-x,1/2+y,1/2+z
x,1/2-y,1/2+z
1/2+x,y,1/2+z
1/2-x,-y,1/2+z
1/2+x,-y,1/2-z
1/2-x,y,1/2-z
1/2-x,-y,1/2-z
1/2+x,y,1/2-z
1/2-x,y,1/2+z
1/2+x,-y,1/2+z
1/2+x,1/2+y,z
1/2-x,1/2-y,z
1/2+x,1/2-y,-z
1/2-x,1/2+y,-z
1/2-x,1/2-y,-z
1/2+x,1/2+y,-z
1/2-x,1/2+y,z
1/2+x,1/2-y,z
loop_
_atom_site_type_symbol
_atom_site_label
_atom_site_fract_x
_atom_site_fract_y
_atom_site_fract_z
Si Si1 0.591187 0.785352 0.000000
Si Si2 0.799110 0.000000 0.666418
Si Si3 0.624610 0.500000 0.845052
Si Si4 0.713297 0.131975 0.000000
Si Si5 0.000000 0.676126 0.831147
Si Si6 0.500000 0.000000 0.723400
Si Si7 0.843798 0.131344 0.000000
O O1 0.659775 0.806444 0.000000
O O2 0.558030 0.815394 0.100044
O O3 0.598529 0.688233 0.000000
O O4 0.750000 0.000000 0.750000
O O5 0.861007 0.000000 0.725634
O O6 0.793908 0.079658 0.600228
O O7 0.554590 0.500000 0.852685
O O8 0.652197 0.421771 0.898811
O O9 0.778490 0.172808 0.000000
O O10 0.000000 0.750000 0.750000
O O11 0.000000 0.584387 0.787707
#
# Coordination Sequence:
#
# PCOD8285490 Si02
#       7
#    16  16  16  16  16   8  16
#     4  11  25  41  65  89 136 170 213 268 326 384
#     4  11  19  39  64  88 126 166 207 276 318 382
#     4  11  22  39  65  95 122 164 218 268 328 388
#     4  11  22  38  63  96 124 168 214 257 328 391
#     4  11  25  48  66  96 131 173 218 276 326 387
#     4  12  24  40  70  92 128 168 230 260 318 402
#     4  11  22  39  62  93 129 165 211 266 326 393
#
# _framework density 20.990551
#
# number of rings (size 3 to 8) (size 9 to 14) (size 15 to 20)
#    0.000    0.923    3.077    5.077    0.000    4.923 
#    0.000    0.000    0.000    0.000    0.000    0.000 
#    0.000    0.000    0.000    0.000    0.000    0.000 
#
# Total GULP energy -322248.604588 kJ/mol
# GULP energy per Si atom -12394.177100 kJ/mol
# Density = 2.094278 g / cm^3
# Si number density = 20.990551 Si / 1000 Ang^3
#
#
#
# Elastic Constant Matrix: (Units=GPa)
#
#
# Indices 1 2 3 4 5 6 
#
# 1 161.5556 31.9153 40.0773 0.0000 0.0000 0.0000
# 2 31.9153 103.1153 31.9750 0.0000 0.0000 0.0000
# 3 40.0773 31.9750 121.9063 0.0000 0.0000 0.0000
# 4 0.0000 0.0000 0.0000 -7.4749 0.0000 0.0000
# 5 0.0000 0.0000 0.0000 0.0000 39.2300 0.0000
# 6 0.0000 0.0000 0.0000 0.0000 0.0000 37.0266
#
#
#
# Elastic Compliance Matrix: (Units=1/GPa)
#
#
# Indices 1 2 3 4 5 6 
#
# 1 0.006967 -0.001574 -0.001877 0.000000 0.000000 0.000000
# 2 -0.001574 0.010912 -0.002345 0.000000 0.000000 0.000000
# 3 -0.001877 -0.002345 0.009435 0.000000 0.000000 0.000000
# 4 0.000000 0.000000 0.000000 -0.133781 0.000000 0.000000
# 5 0.000000 0.000000 0.000000 0.000000 0.025491 0.000000
# 6 0.000000 0.000000 0.000000 0.000000 0.000000 0.027008
#
#
# Mechanical properties :
#
#
# Convention : Reuss Voigt Hill
#
# Bulk Modulus (GPa) = 63.60686 66.05692 64.83189
# Shear Modulus (GPa) = -134.63994 32.59697 -51.02148
#
# Velocity S-wave (km/s) = -8.01763 3.94501 -4.93555
# Velocity P-wave (km/s) = 7.43918 7.23111 1.23542
#
# Compressibility (1/GPa) = 0.01572157
#
# Stress axis : x y z
#
# Youngs Moduli (GPa) = 143.54403 91.64119 105.98584
#
# Poissons Ratio (x) = 0.14425 0.19898
# Poissons Ratio (y) = 0.22594 0.24850
# Poissons Ratio (z) = 0.26949 0.21487
#
# Static dielectric constant tensor:
#      x y z
#    x 4.146190 0.000000 0.000000 
#    y 0.000000 4.158990 0.000000 
#    z 0.000000 0.000000 -2.117780 
# 
# 
# High freq. dielectric constant tensor:
#      x y z
#    x 1.846600 0.000000 0.000000 
#    y 0.000000 1.819440 0.000000 
#    z 0.000000 0.000000 1.825560 
# 
# From -- ./inp_files/8278.got.cif
#   From: 2010.03.12/outbox.cif.g09.slc.cpg/sg69_5_cif.got.tgz:8278.got - 2010.04.10 23:52:46.
