data_PCOD8285497
_publ_section_title
;
Structure prediction by ZEFSAII (Michael W. Deem and Ramdas Pophale) SiO2 
 PCOD8285497
Probable space group: F M M M
;
_chemical_formula_sum "Si O2"
_cell_formula_units_Z 232
_cell_length_a 29.736867
_cell_length_b 23.374972
_cell_length_c 18.936487
_cell_angle_alpha 90.000000
_cell_angle_beta 90.000000
_cell_angle_gamma 90.000000
_cell_volume 13162.722450
_symmetry_space_group_name_H-M "F M M M"
_symmetry_group_IT_number 69
_symmetry_cell_setting 'orthorhombic'
loop_
_space_group_symop_operation_xyz
x,y,z
-x,-y,z
x,-y,-z
-x,y,-z
-x,-y,-z
x,y,-z
-x,y,z
x,-y,z
x,1/2+y,1/2+z
-x,1/2-y,1/2+z
x,1/2-y,1/2-z
-x,1/2+y,1/2-z
-x,1/2-y,1/2-z
x,1/2+y,1/2-z
-x,1/2+y,1/2+z
x,1/2-y,1/2+z
1/2+x,y,1/2+z
1/2-x,-y,1/2+z
1/2+x,-y,1/2-z
1/2-x,y,1/2-z
1/2-x,-y,1/2-z
1/2+x,y,1/2-z
1/2-x,y,1/2+z
1/2+x,-y,1/2+z
1/2+x,1/2+y,z
1/2-x,1/2-y,z
1/2+x,1/2-y,-z
1/2-x,1/2+y,-z
1/2-x,1/2-y,-z
1/2+x,1/2+y,-z
1/2-x,1/2+y,z
1/2+x,1/2-y,z
loop_
_atom_site_type_symbol
_atom_site_label
_atom_site_fract_x
_atom_site_fract_y
_atom_site_fract_z
Si Si1 0.448979 0.067102 0.307037
Si Si2 0.253582 0.662109 0.646189
Si Si3 0.376666 0.066166 0.193502
Si Si4 0.117248 0.108210 0.918273
Si Si5 0.832748 0.779225 0.080238
Si Si6 0.156348 0.152733 0.419474
Si Si7 0.191313 0.935619 0.182929
Si Si8 0.750000 0.750000 0.250000
O O1 0.500000 0.087813 0.296882
O O2 0.421899 0.082784 0.235911
O O3 0.428835 0.097216 0.376496
O O4 0.445339 0.000000 0.321074
O O5 0.211823 0.700586 0.620505
O O6 0.289610 0.643447 0.587525
O O7 0.234901 0.604188 0.680438
O O8 0.278913 0.704506 0.702583
O O9 0.372212 0.108169 0.126951
O O10 0.334514 0.077143 0.244489
O O11 0.378317 0.000000 0.168206
O O12 0.127257 0.175524 0.911109
O O13 0.158295 0.072955 0.883905
O O14 0.112191 0.089591 0.000000
O O15 0.852947 0.718158 0.105097
O O16 0.816734 0.773065 0.000000
O O17 0.142143 0.141464 0.500000
O O18 0.209393 0.000000 0.180766
#
# Coordination Sequence:
#
# PCOD8285497 Si02
#       8
#    32  32  32  32  32  32  32   8
#     4   9  18  34  56  79 103 132 162 198 249 303
#     4  11  20  31  47  71  99 132 176 219 250 285
#     4   9  19  36  53  72 100 132 165 206 257 312
#     4   9  17  30  50  77 107 138 168 200 241 297
#     4   9  18  33  49  67  98 138 173 207 251 294
#     4  11  21  34  52  72  97 131 173 222 264 294
#     4   9  19  33  48  68 102 144 173 200 250 307
#     4  12  20  28  44  68  92 120 170 220 256 280
#
# _framework density 17.625533000000001
#
# number of rings (size 3 to 8) (size 9 to 14) (size 15 to 20)
#    0.000    2.345    1.379    2.483    0.000    3.862 
#    0.000    2.414    0.000    2.069    0.000    3.862 
#    0.000    0.000    0.000    0.000    0.000    0.000 
#
# Total GULP energy -718792.788181 kJ/mol
# GULP energy per Si atom -12392.979107 kJ/mol
# Density = 1.758542 g / cm^3
# Si number density = 17.625533 Si / 1000 Ang^3
#
#
#
# Elastic Constant Matrix: (Units=GPa)
#
#
# Indices 1 2 3 4 5 6 
#
# 1 75.8300 36.6855 35.3934 0.0000 0.0000 0.0000
# 2 36.6855 107.6220 52.5578 0.0000 0.0000 0.0000
# 3 35.3934 52.5578 100.3235 0.0000 0.0000 0.0000
# 4 0.0000 0.0000 0.0000 31.7394 0.0000 0.0000
# 5 0.0000 0.0000 0.0000 0.0000 13.7338 0.0000
# 6 0.0000 0.0000 0.0000 0.0000 0.0000 19.3779
#
#
#
# Elastic Compliance Matrix: (Units=1/GPa)
#
#
# Indices 1 2 3 4 5 6 
#
# 1 0.016882 -0.003825 -0.003952 0.000000 0.000000 0.000000
# 2 -0.003825 0.013353 -0.005646 0.000000 0.000000 0.000000
# 3 -0.003952 -0.005646 0.014320 0.000000 0.000000 0.000000
# 4 0.000000 0.000000 0.000000 0.031507 0.000000 0.000000
# 5 0.000000 0.000000 0.000000 0.000000 0.072813 0.000000
# 6 0.000000 0.000000 0.000000 0.000000 0.000000 0.051605
#
#
# Mechanical properties :
#
#
# Convention : Reuss Voigt Hill
#
# Bulk Modulus (GPa) = 56.46774 59.22767 57.84771
# Shear Modulus (GPa) = 21.43815 23.57947 22.50881
#
# Velocity S-wave (km/s) = 3.49135 3.66157 3.57747
# Velocity P-wave (km/s) = 6.95412 7.18000 7.06796
#
# Compressibility (1/GPa) = 0.01770923
#
# Stress axis : x y z
#
# Youngs Moduli (GPa) = 59.23313 74.89100 69.83266
#
# Poissons Ratio (x) = 0.28643 0.27600
# Poissons Ratio (y) = 0.22654 0.39427
# Poissons Ratio (z) = 0.23411 0.42283
#
# Static dielectric constant tensor:
#      x y z
#    x 3.012790 0.000000 0.000000 
#    y 0.000000 3.458410 0.000000 
#    z 0.000000 0.000000 3.331570 
# 
# 
# High freq. dielectric constant tensor:
#      x y z
#    x 1.637500 0.000000 0.000000 
#    y 0.000000 1.691550 0.000000 
#    z 0.000000 0.000000 1.683320 
# 
# From -- ./inp_files/28095.got.cif
#   From: 2010.03.12/outbox.cif.g09.slc.cpg/sg69_15_cif.got.tgz:28095.got - 2010.04.10 23:52:46.
