data_PCOD8285299
_publ_section_title
;
Structure prediction by ZEFSAII (Michael W. Deem and Ramdas Pophale) SiO2 
 PCOD8285299
Probable space group: F M M M
;
_chemical_formula_sum "Si O2"
_cell_formula_units_Z 176
_cell_length_a 23.087079
_cell_length_b 23.160439
_cell_length_c 17.012878
_cell_angle_alpha 90.000000
_cell_angle_beta 90.000000
_cell_angle_gamma 90.000000
_cell_volume 9096.902998
_symmetry_space_group_name_H-M "F M M M"
_symmetry_group_IT_number 69
_symmetry_cell_setting 'orthorhombic'
loop_
_space_group_symop_operation_xyz
x,y,z
-x,-y,z
x,-y,-z
-x,y,-z
-x,-y,-z
x,y,-z
-x,y,z
x,-y,z
x,1/2+y,1/2+z
-x,1/2-y,1/2+z
x,1/2-y,1/2-z
-x,1/2+y,1/2-z
-x,1/2-y,1/2-z
x,1/2+y,1/2-z
-x,1/2+y,1/2+z
x,1/2-y,1/2+z
1/2+x,y,1/2+z
1/2-x,-y,1/2+z
1/2+x,-y,1/2-z
1/2-x,y,1/2-z
1/2-x,-y,1/2-z
1/2+x,y,1/2-z
1/2-x,y,1/2+z
1/2+x,-y,1/2+z
1/2+x,1/2+y,z
1/2-x,1/2-y,z
1/2+x,1/2-y,-z
1/2-x,1/2+y,-z
1/2-x,1/2-y,-z
1/2+x,1/2+y,-z
1/2-x,1/2+y,z
1/2+x,1/2-y,z
loop_
_atom_site_type_symbol
_atom_site_label
_atom_site_fract_x
_atom_site_fract_y
_atom_site_fract_z
Si Si1 0.068272 0.845464 0.412852
Si Si2 0.568079 0.436585 0.000000
Si Si3 0.749754 0.066174 0.910512
Si Si4 0.137163 0.566398 0.813018
Si Si5 0.065083 0.228141 0.837484
Si Si6 0.634026 0.114831 0.358168
O O1 0.091496 0.859587 0.500000
O O2 0.090027 0.893223 0.352741
O O3 0.087947 0.780719 0.391120
O O4 0.000000 0.848479 0.408213
O O5 0.587313 0.406339 0.079541
O O6 0.596061 0.500000 0.000000
O O7 0.500000 0.438690 0.000000
O O8 0.699669 0.082246 0.848935
O O9 0.802232 0.110555 0.895886
O O10 0.770436 0.000000 0.896981
O O11 0.727379 0.074152 0.000000
O O12 0.121850 0.500000 0.831277
O O13 0.134916 0.576381 0.720114
O O14 0.059971 0.250000 0.750000
O O15 0.114997 0.180051 0.840643
O O16 0.000000 0.207050 0.863917
#
# Coordination Sequence:
#
# PCOD8285299 Si02
#       6
#    32  16  32  32  32  32
#     4  10  22  40  62  89 122 158 201 258 313 362
#     4  11  24  38  56  92 135 164 196 254 321 382
#     4  10  21  39  62  89 124 162 202 252 308 368
#     4  11  23  39  63  91 120 161 209 253 306 373
#     4  10  21  40  63  88 119 160 208 252 301 366
#     4  12  22  38  63  89 121 162 206 253 305 370
#
# _framework density 19.347242999999999
#
# number of rings (size 3 to 8) (size 9 to 14) (size 15 to 20)
#    0.000    1.364    2.727    3.273    1.273    3.636 
#    0.000    1.818    0.000    2.182    0.000    0.000 
#    0.000    0.000    0.000    0.000    0.000    0.000 
#
# Total GULP energy -545600.596679 kJ/mol
# GULP energy per Si atom -12400.013561 kJ/mol
# Density = 1.930321 g / cm^3
# Si number density = 19.347243 Si / 1000 Ang^3
#
#
#
# Elastic Constant Matrix: (Units=GPa)
#
#
# Indices 1 2 3 4 5 6 
#
# 1 63.9157 47.5872 32.7097 0.0000 0.0000 0.0000
# 2 47.5872 99.1945 27.1609 0.0000 0.0000 0.0000
# 3 32.7097 27.1609 120.7506 0.0000 0.0000 0.0000
# 4 0.0000 0.0000 0.0000 30.3859 0.0000 0.0000
# 5 0.0000 0.0000 0.0000 0.0000 19.5712 0.0000
# 6 0.0000 0.0000 0.0000 0.0000 0.0000 34.7699
#
#
#
# Elastic Compliance Matrix: (Units=1/GPa)
#
#
# Indices 1 2 3 4 5 6 
#
# 1 0.026547 -0.011473 -0.004611 0.000000 0.000000 0.000000
# 2 -0.011473 0.015701 -0.000424 0.000000 0.000000 0.000000
# 3 -0.004611 -0.000424 0.009626 0.000000 0.000000 0.000000
# 4 0.000000 0.000000 0.000000 0.032910 0.000000 0.000000
# 5 0.000000 0.000000 0.000000 0.000000 0.051095 0.000000
# 6 0.000000 0.000000 0.000000 0.000000 0.000000 0.028761
#
#
# Mechanical properties :
#
#
# Convention : Reuss Voigt Hill
#
# Bulk Modulus (GPa) = 53.02459 55.41962 54.22210
# Shear Modulus (GPa) = 24.51674 28.70560 26.61117
#
# Velocity S-wave (km/s) = 3.56363 3.85607 3.71273
# Velocity P-wave (km/s) = 6.66325 6.96653 6.81658
#
# Compressibility (1/GPa) = 0.01885917
#
# Stress axis : x y z
#
# Youngs Moduli (GPa) = 37.66853 63.68857 103.88735
#
# Poissons Ratio (x) = 0.73072 0.47898
# Poissons Ratio (y) = 0.43218 0.04403
# Poissons Ratio (z) = 0.17367 0.02699
#
# Static dielectric constant tensor:
#      x y z
#    x 3.414490 0.000000 0.000000 
#    y 0.000000 2.684400 0.000000 
#    z 0.000000 0.000000 3.826390 
# 
# 
# High freq. dielectric constant tensor:
#      x y z
#    x 1.744270 0.000000 0.000000 
#    y 0.000000 1.745980 0.000000 
#    z 0.000000 0.000000 1.774850 
# 
# From -- ./inp_files/17877.got.cif
#   From: 2010.03.12/outbox.cif.g09.slc.cpg/sg69_9_cif.got.tgz:17877.got - 2010.04.10 23:52:46.
