data_PCOD8285892
_publ_section_title
;
Structure prediction by ZEFSAII (Michael W. Deem and Ramdas Pophale) SiO2 
 PCOD8285892
Probable space group: F D D D
;
_chemical_formula_sum "Si O2"
_cell_formula_units_Z 240
_cell_length_a 28.693922
_cell_length_b 21.634770
_cell_length_c 21.130547
_cell_angle_alpha 90.000000
_cell_angle_beta 90.000000
_cell_angle_gamma 90.000000
_cell_volume 13117.556263
_symmetry_space_group_name_H-M "F D D D"
_symmetry_group_IT_number 70
_space_group.IT_coordinate_system_code '2'
_symmetry_cell_setting 'orthorhombic'
loop_
_space_group_symop_operation_xyz
x,y,z
1/4-x,1/4-y,z
x,1/4-y,1/4-z
1/4-x,y,1/4-z
-x,-y,-z
3/4+x,3/4+y,-z
-x,3/4+y,3/4+z
3/4+x,-y,3/4+z
x,1/2+y,1/2+z
1/4-x,3/4-y,1/2+z
x,3/4-y,3/4-z
1/4-x,1/2+y,3/4-z
-x,1/2-y,1/2-z
3/4+x,1/4+y,1/2-z
-x,1/4+y,1/4+z
3/4+x,1/2-y,1/4+z
1/2+x,y,1/2+z
3/4-x,1/4-y,1/2+z
1/2+x,1/4-y,3/4-z
3/4-x,y,3/4-z
1/2-x,-y,1/2-z
1/4+x,3/4+y,1/2-z
1/2-x,3/4+y,1/4+z
1/4+x,-y,1/4+z
1/2+x,1/2+y,z
3/4-x,3/4-y,z
1/2+x,3/4-y,1/4-z
3/4-x,1/2+y,1/4-z
1/2-x,1/2-y,-z
1/4+x,1/4+y,-z
1/2-x,1/4+y,3/4+z
1/4+x,1/2-y,3/4+z
loop_
_atom_site_type_symbol
_atom_site_label
_atom_site_fract_x
_atom_site_fract_y
_atom_site_fract_z
Si Si1 0.397471 0.808379 0.634608
Si Si2 0.750100 0.296975 0.059538
Si Si3 0.022070 0.938820 0.190859
Si Si4 0.643307 0.781670 0.278628
Si Si5 0.082468 0.823699 0.670556
Si Si6 0.679433 0.763382 0.797261
Si Si7 0.398429 0.125000 0.625000
Si Si8 0.575840 0.290318 0.091111
O O1 0.375000 0.875000 0.637094
O O2 0.449768 0.805335 0.659448
O O3 0.394021 0.784697 0.562353
O O4 0.368674 0.764064 0.679227
O O5 0.732232 0.365917 0.043084
O O6 0.714675 0.268574 0.111097
O O7 0.750000 0.250000 0.000000
O O8 0.056898 0.963111 0.244603
O O9 0.041952 0.956584 0.121221
O O10 0.973922 0.973829 0.184240
O O11 0.599183 0.782923 0.230144
O O12 0.636018 0.836074 0.329630
O O13 0.125000 0.837179 0.625000
O O14 0.065854 0.892074 0.689015
O O15 0.681355 0.831728 0.829972
O O16 0.676266 0.751476 0.722446
O O17 0.625000 0.281415 0.125000
#
# Coordination Sequence:
#
# PCOD8285892 Si02
#       8
#    32  32  32  32  32  32  16  32
#     4  11  23  40  56  83 125 162 193 244 316 367
#     4  11  23  38  60  87 119 162 203 241 305 372
#     4  10  21  37  60  85 118 153 197 254 298 360
#     4  10  20  37  61  86 109 153 201 246 292 365
#     4   8  16  33  57  83 108 138 191 237 293 340
#     4  11  21  39  58  85 122 153 198 247 306 350
#     4  10  22  34  62  88 115 149 198 254 286 356
#     4  10  19  35  60  86 112 151 196 250 291 346
#
# _framework density 18.29609
#
# number of rings (size 3 to 8) (size 9 to 14) (size 15 to 20)
#    0.000    1.867    2.667    2.400    3.733    0.000 
#    0.000    5.333    0.000    2.800    0.000    0.000 
#    0.000    0.000    0.000    0.000    0.000    0.000 
#
# Total GULP energy -743346.894945 kJ/mol
# GULP energy per Si atom -12389.114916 kJ/mol
# Density = 1.825445 g / cm^3
# Si number density = 18.296090 Si / 1000 Ang^3
#
#
#
# Elastic Constant Matrix: (Units=GPa)
#
#
# Indices 1 2 3 4 5 6 
#
# 1 119.6389 23.5653 54.3433 0.0000 0.0000 0.0000
# 2 23.5653 61.5114 33.9500 0.0000 0.0000 0.0000
# 3 54.3433 33.9500 119.5953 0.0000 0.0000 0.0000
# 4 0.0000 0.0000 0.0000 21.3484 0.0000 0.0000
# 5 0.0000 0.0000 0.0000 0.0000 36.3038 0.0000
# 6 0.0000 0.0000 0.0000 0.0000 0.0000 15.2959
#
#
#
# Elastic Compliance Matrix: (Units=1/GPa)
#
#
# Indices 1 2 3 4 5 6 
#
# 1 0.010676 -0.001675 -0.004376 0.000000 0.000000 0.000000
# 2 -0.001675 0.019540 -0.004786 0.000000 0.000000 0.000000
# 3 -0.004376 -0.004786 0.011708 0.000000 0.000000 0.000000
# 4 0.000000 0.000000 0.000000 0.046842 0.000000 0.000000
# 5 0.000000 0.000000 0.000000 0.000000 0.027545 0.000000
# 6 0.000000 0.000000 0.000000 0.000000 0.000000 0.065377
#
#
# Mechanical properties :
#
#
# Convention : Reuss Voigt Hill
#
# Bulk Modulus (GPa) = 49.37859 58.27364 53.82612
# Shear Modulus (GPa) = 23.79679 27.18208 25.48944
#
# Velocity S-wave (km/s) = 3.61036 3.85863 3.73656
# Velocity P-wave (km/s) = 6.66535 7.19524 6.93536
#
# Compressibility (1/GPa) = 0.02025169
#
# Stress axis : x y z
#
# Youngs Moduli (GPa) = 93.66872 51.17628 85.40912
#
# Poissons Ratio (x) = 0.08572 0.37371
# Poissons Ratio (y) = 0.15689 0.40876
# Poissons Ratio (z) = 0.40986 0.24492
#
# Static dielectric constant tensor:
#      x y z
#    x 3.131600 0.000000 0.000000 
#    y 0.000000 3.349550 0.000000 
#    z 0.000000 0.000000 0.770190 
# 
# 
# High freq. dielectric constant tensor:
#      x y z
#    x 1.715220 0.000000 0.000000 
#    y 0.000000 1.690770 0.000000 
#    z 0.000000 0.000000 1.720950 
# 
# From -- ./inp_files/47819.got.cif
#   From: 2010.03.12/outbox.cif.g09.slc.cpg/sg70_24_cif.got.tgz:47819.got - 2010.04.16 13:46:32.
