data_PCOD8285143
_publ_section_title
;
Structure prediction by ZEFSAII (Michael W. Deem and Ramdas Pophale) SiO2 
 PCOD8285143
Probable space group: F M M M
;
_chemical_formula_sum "Si O2"
_cell_formula_units_Z 96
_cell_length_a 13.993029
_cell_length_b 26.790768
_cell_length_c 12.994828
_cell_angle_alpha 90.000000
_cell_angle_beta 90.000000
_cell_angle_gamma 90.000000
_cell_volume 4871.553016
_symmetry_space_group_name_H-M "F M M M"
_symmetry_group_IT_number 69
_symmetry_cell_setting 'orthorhombic'
loop_
_space_group_symop_operation_xyz
x,y,z
-x,-y,z
x,-y,-z
-x,y,-z
-x,-y,-z
x,y,-z
-x,y,z
x,-y,z
x,1/2+y,1/2+z
-x,1/2-y,1/2+z
x,1/2-y,1/2-z
-x,1/2+y,1/2-z
-x,1/2-y,1/2-z
x,1/2+y,1/2-z
-x,1/2+y,1/2+z
x,1/2-y,1/2+z
1/2+x,y,1/2+z
1/2-x,-y,1/2+z
1/2+x,-y,1/2-z
1/2-x,y,1/2-z
1/2-x,-y,1/2-z
1/2+x,y,1/2-z
1/2-x,y,1/2+z
1/2+x,-y,1/2+z
1/2+x,1/2+y,z
1/2-x,1/2-y,z
1/2+x,1/2-y,-z
1/2-x,1/2+y,-z
1/2-x,1/2-y,-z
1/2+x,1/2+y,-z
1/2-x,1/2+y,z
1/2+x,1/2-y,z
loop_
_atom_site_type_symbol
_atom_site_label
_atom_site_fract_x
_atom_site_fract_y
_atom_site_fract_z
Si Si1 0.113584 0.555779 0.703312
Si Si2 0.612211 0.612853 0.000000
Si Si3 0.391702 0.623823 0.386940
Si Si4 0.733711 0.691722 0.500000
O O1 0.156361 0.500000 0.707669
O O2 0.147396 0.582005 0.598791
O O3 0.152347 0.586659 0.801769
O O4 0.000000 0.553376 0.707069
O O5 0.500000 0.622702 0.000000
O O6 0.662252 0.666473 0.000000
O O7 0.390550 0.596925 0.500000
O O8 0.500000 0.639543 0.356598
O O9 0.326133 0.673840 0.398070
O O10 0.750000 0.750000 0.500000
#
# Coordination Sequence:
#
# PCOD8285143 Si02
#       4
#    32  16  32  16
#     4   9  17  33  57  81 111 148 175 210 266 323
#     4  10  21  35  52  80 114 144 180 215 257 328
#     4   8  17  35  57  80 107 133 177 229 265 312
#     4  10  21  38  57  76 104 143 179 230 281 317
#
# _framework density 19.706240999999999
#
# number of rings (size 3 to 8) (size 9 to 14) (size 15 to 20)
#    1.000    2.000    0.000    0.500    0.000    5.333 
#    0.000   11.667    0.000    6.000    0.000    0.000 
#    0.000    0.000    0.000    0.000    0.000    0.000 
#
# Total GULP energy -297366.807254 kJ/mol
# GULP energy per Si atom -12390.283636 kJ/mol
# Density = 1.966139 g / cm^3
# Si number density = 19.706241 Si / 1000 Ang^3
#
#
#
# Elastic Constant Matrix: (Units=GPa)
#
#
# Indices 1 2 3 4 5 6 
#
# 1 58.1650 53.6970 35.3102 0.0000 0.0000 0.0000
# 2 53.6970 200.5479 87.5278 0.0000 0.0000 0.0000
# 3 35.3102 87.5278 144.0198 0.0000 0.0000 0.0000
# 4 0.0000 0.0000 0.0000 17.0266 0.0000 0.0000
# 5 0.0000 0.0000 0.0000 0.0000 13.8821 0.0000
# 6 0.0000 0.0000 0.0000 0.0000 0.0000 26.1528
#
#
#
# Elastic Compliance Matrix: (Units=1/GPa)
#
#
# Indices 1 2 3 4 5 6 
#
# 1 0.023554 -0.005153 -0.002643 0.000000 0.000000 0.000000
# 2 -0.005153 0.007914 -0.003546 0.000000 0.000000 0.000000
# 3 -0.002643 -0.003546 0.009747 0.000000 0.000000 0.000000
# 4 0.000000 0.000000 0.000000 0.058731 0.000000 0.000000
# 5 0.000000 0.000000 0.000000 0.000000 0.072035 0.000000
# 6 0.000000 0.000000 0.000000 0.000000 0.000000 0.038237
#
#
# Mechanical properties :
#
#
# Convention : Reuss Voigt Hill
#
# Bulk Modulus (GPa) = 53.96676 83.97810 68.97243
# Shear Modulus (GPa) = 20.91348 26.49213 23.70281
#
# Velocity S-wave (km/s) = 3.26124 3.67052 3.47191
# Velocity P-wave (km/s) = 6.45182 7.78917 7.15182
#
# Compressibility (1/GPa) = 0.01852992
#
# Stress axis : x y z
#
# Youngs Moduli (GPa) = 42.45505 126.36142 102.59871
#
# Poissons Ratio (x) = 0.65116 0.27118
# Poissons Ratio (y) = 0.21878 0.36383
# Poissons Ratio (z) = 0.11222 0.44810
#
# Static dielectric constant tensor:
#      x y z
#    x 3.516970 0.000000 0.000000 
#    y 0.000000 3.217790 0.000000 
#    z 0.000000 0.000000 3.672120 
# 
# 
# High freq. dielectric constant tensor:
#      x y z
#    x 1.779090 0.000000 0.000000 
#    y 0.000000 1.728240 0.000000 
#    z 0.000000 0.000000 1.765470 
# 
# From -- ./inp_files/11871.got.cif
#   From: 2010.03.12/outbox.cif.g09.slc.cpg/sg69_6_cif.got.tgz:11871.got - 2010.04.10 23:52:46.
