data_PCOD8285035
_publ_section_title
;
Structure prediction by ZEFSAII (Michael W. Deem and Ramdas Pophale) SiO2 
 PCOD8285035
Probable space group: F M M M
;
_chemical_formula_sum "Si O2"
_cell_formula_units_Z 120
_cell_length_a 14.665424
_cell_length_b 15.772102
_cell_length_c 24.845543
_cell_angle_alpha 90.000000
_cell_angle_beta 90.000000
_cell_angle_gamma 90.000000
_cell_volume 5746.887471
_symmetry_space_group_name_H-M "F M M M"
_symmetry_group_IT_number 69
_symmetry_cell_setting 'orthorhombic'
loop_
_space_group_symop_operation_xyz
x,y,z
-x,-y,z
x,-y,-z
-x,y,-z
-x,-y,-z
x,y,-z
-x,y,z
x,-y,z
x,1/2+y,1/2+z
-x,1/2-y,1/2+z
x,1/2-y,1/2-z
-x,1/2+y,1/2-z
-x,1/2-y,1/2-z
x,1/2+y,1/2-z
-x,1/2+y,1/2+z
x,1/2-y,1/2+z
1/2+x,y,1/2+z
1/2-x,-y,1/2+z
1/2+x,-y,1/2-z
1/2-x,y,1/2-z
1/2-x,-y,1/2-z
1/2+x,y,1/2-z
1/2-x,y,1/2+z
1/2+x,-y,1/2+z
1/2+x,1/2+y,z
1/2-x,1/2-y,z
1/2+x,1/2-y,-z
1/2-x,1/2+y,-z
1/2-x,1/2-y,-z
1/2+x,1/2+y,-z
1/2-x,1/2+y,z
1/2+x,1/2-y,z
loop_
_atom_site_type_symbol
_atom_site_label
_atom_site_fract_x
_atom_site_fract_y
_atom_site_fract_z
Si Si1 0.895578 0.356572 0.000000
Si Si2 0.891342 0.500000 0.720516
Si Si3 0.323065 0.676361 0.389299
Si Si4 0.280713 0.000000 0.613813
Si Si5 0.245096 0.500000 0.500000
Si Si6 0.896163 0.332217 0.223769
O O1 0.878585 0.304726 0.055342
O O2 0.815564 0.423579 0.000000
O O3 0.000000 0.391561 0.000000
O O4 0.858751 0.500000 0.658566
O O5 0.851018 0.581519 0.752586
O O6 0.000000 0.500000 0.720003
O O7 0.250000 0.750000 0.382287
O O8 0.280240 0.583591 0.383316
O O9 0.393611 0.678187 0.340276
O O10 0.320836 0.000000 0.552388
O O11 0.847121 0.250000 0.250000
O O12 0.000000 0.334858 0.242962
#
# Coordination Sequence:
#
# PCOD8285035 Si02
#       6
#    16  16  32  16   8  32
#     4  10  20  37  59  82 110 144 181 222 275 330
#     4  10  21  37  56  79 111 149 186 224 269 323
#     4  11  22  36  57  83 111 143 182 228 275 324
#     4  10  21  37  57  80 111 143 179 228 275 320
#     4   8  19  36  57  86 112 138 176 228 275 324
#     4  10  21  36  54  79 111 145 182 224 271 326
#
# _framework density 20.880869000000001
#
# number of rings (size 3 to 8) (size 9 to 14) (size 15 to 20)
#    0.000    1.867    0.000    3.800    0.000    4.800 
#    0.000    5.667    0.000    0.000    0.000    0.000 
#    0.000    0.000    0.000    0.000    0.000    0.000 
#
# Total GULP energy -371647.335102 kJ/mol
# GULP energy per Si atom -12388.244503 kJ/mol
# Density = 2.083334 g / cm^3
# Si number density = 20.880869 Si / 1000 Ang^3
#
#
#
# Elastic Constant Matrix: (Units=GPa)
#
#
# Indices 1 2 3 4 5 6 
#
# 1 41.6167 22.0975 33.0964 0.0000 0.0000 0.0000
# 2 22.0975 159.9309 52.9319 0.0000 0.0000 0.0000
# 3 33.0964 52.9319 205.2180 0.0000 0.0000 0.0000
# 4 0.0000 0.0000 0.0000 28.4796 0.0000 0.0000
# 5 0.0000 0.0000 0.0000 0.0000 36.1878 0.0000
# 6 0.0000 0.0000 0.0000 0.0000 0.0000 12.3591
#
#
#
# Elastic Compliance Matrix: (Units=1/GPa)
#
#
# Indices 1 2 3 4 5 6 
#
# 1 0.028554 -0.002647 -0.003922 0.000000 0.000000 0.000000
# 2 -0.002647 0.007082 -0.001400 0.000000 0.000000 0.000000
# 3 -0.003922 -0.001400 0.005866 0.000000 0.000000 0.000000
# 4 0.000000 0.000000 0.000000 0.035113 0.000000 0.000000
# 5 0.000000 0.000000 0.000000 0.000000 0.027634 0.000000
# 6 0.000000 0.000000 0.000000 0.000000 0.000000 0.080912
#
#
# Mechanical properties :
#
#
# Convention : Reuss Voigt Hill
#
# Bulk Modulus (GPa) = 39.11791 69.22414 54.17102
# Shear Modulus (GPa) = 23.85275 35.31461 29.58368
#
# Velocity S-wave (km/s) = 3.38350 4.11693 3.76810
# Velocity P-wave (km/s) = 5.83426 7.47146 6.70304
#
# Compressibility (1/GPa) = 0.02556374
#
# Stress axis : x y z
#
# Youngs Moduli (GPa) = 35.02195 141.20919 170.46127
#
# Poissons Ratio (x) = 0.37379 0.66858
# Poissons Ratio (y) = 0.09271 0.23859
# Poissons Ratio (z) = 0.13736 0.19765
#
# Static dielectric constant tensor:
#      x y z
#    x 3.288550 0.000000 0.000000 
#    y 0.000000 4.144200 0.000000 
#    z 0.000000 0.000000 4.445590 
# 
# 
# High freq. dielectric constant tensor:
#      x y z
#    x 1.785230 0.000000 0.000000 
#    y 0.000000 1.823130 0.000000 
#    z 0.000000 0.000000 1.843410 
# 
# From -- ./inp_files/30509.got.cif
#   From: 2010.03.12/outbox.cif.g09.slc.cpg/sg69_16_cif.got.tgz:30509.got - 2010.04.10 23:52:46.
