data_PCOD8285132
_publ_section_title
;
Structure prediction by ZEFSAII (Michael W. Deem and Ramdas Pophale) SiO2 
 PCOD8285132
Probable space group: F M M M
;
_chemical_formula_sum "Si O2"
_cell_formula_units_Z 128
_cell_length_a 18.561737
_cell_length_b 27.251876
_cell_length_c 14.178222
_cell_angle_alpha 90.000000
_cell_angle_beta 90.000000
_cell_angle_gamma 90.000000
_cell_volume 7171.942372
_symmetry_space_group_name_H-M "F M M M"
_symmetry_group_IT_number 69
_symmetry_cell_setting 'orthorhombic'
loop_
_space_group_symop_operation_xyz
x,y,z
-x,-y,z
x,-y,-z
-x,y,-z
-x,-y,-z
x,y,-z
-x,y,z
x,-y,z
x,1/2+y,1/2+z
-x,1/2-y,1/2+z
x,1/2-y,1/2-z
-x,1/2+y,1/2-z
-x,1/2-y,1/2-z
x,1/2+y,1/2-z
-x,1/2+y,1/2+z
x,1/2-y,1/2+z
1/2+x,y,1/2+z
1/2-x,-y,1/2+z
1/2+x,-y,1/2-z
1/2-x,y,1/2-z
1/2-x,-y,1/2-z
1/2+x,y,1/2-z
1/2-x,y,1/2+z
1/2+x,-y,1/2+z
1/2+x,1/2+y,z
1/2-x,1/2-y,z
1/2+x,1/2-y,-z
1/2-x,1/2+y,-z
1/2-x,1/2-y,-z
1/2+x,1/2+y,-z
1/2-x,1/2+y,z
1/2+x,1/2-y,z
loop_
_atom_site_type_symbol
_atom_site_label
_atom_site_fract_x
_atom_site_fract_y
_atom_site_fract_z
Si Si1 0.082216 0.321313 0.604864
Si Si2 0.825185 0.734745 0.143200
Si Si3 0.917493 0.442871 0.892310
Si Si4 0.832248 0.133822 0.276109
O O1 0.088812 0.344724 0.500000
O O2 0.109309 0.264752 0.597340
O O3 0.127858 0.352693 0.678790
O O4 0.000000 0.320452 0.639336
O O5 0.817524 0.750000 0.250000
O O6 0.750000 0.750000 0.091813
O O7 0.839123 0.676276 0.143431
O O8 0.907922 0.500000 0.870410
O O9 0.866398 0.414629 0.819936
O O10 0.000000 0.426821 0.875443
O O11 0.895113 0.431517 0.000000
O O12 0.750000 0.123416 0.250000
#
# Coordination Sequence:
#
# PCOD8285132 Si02
#       4
#    32  32  32  32
#     4  10  21  34  50  76 110 147 183 220 261 311
#     4   9  16  33  48  72 105 140 177 213 257 301
#     4   9  20  39  60  82 106 133 174 230 282 322
#     4  11  20  34  56  81 107 142 180 217 270 324
#
# _framework density 17.847327
#
# number of rings (size 3 to 8) (size 9 to 14) (size 15 to 20)
#    0.000    2.250    5.000    1.500    0.000    8.500 
#    0.000    2.500    0.000    0.750    0.000    3.500 
#    0.000    0.000    0.000    0.000    0.000    0.000 
#
# Total GULP energy -396591.519549 kJ/mol
# GULP energy per Si atom -12393.484986 kJ/mol
# Density = 1.780671 g / cm^3
# Si number density = 17.847327 Si / 1000 Ang^3
#
#
#
# Elastic Constant Matrix: (Units=GPa)
#
#
# Indices 1 2 3 4 5 6 
#
# 1 148.1778 51.1786 59.9147 0.0000 0.0000 0.0000
# 2 51.1786 84.6977 44.3818 0.0000 0.0000 0.0000
# 3 59.9147 44.3818 87.1192 0.0000 0.0000 0.0000
# 4 0.0000 0.0000 0.0000 -26.4872 0.0000 0.0000
# 5 0.0000 0.0000 0.0000 0.0000 86.5458 0.0000
# 6 0.0000 0.0000 0.0000 0.0000 0.0000 25.0423
#
#
#
# Elastic Compliance Matrix: (Units=1/GPa)
#
#
# Indices 1 2 3 4 5 6 
#
# 1 0.009990 -0.003324 -0.005177 0.000000 0.000000 0.000000
# 2 -0.003324 0.017212 -0.006483 0.000000 0.000000 0.000000
# 3 -0.005177 -0.006483 0.018342 0.000000 0.000000 0.000000
# 4 0.000000 0.000000 0.000000 -0.037754 0.000000 0.000000
# 5 0.000000 0.000000 0.000000 0.000000 0.011555 0.000000
# 6 0.000000 0.000000 0.000000 0.000000 0.000000 0.039932
#
#
# Mechanical properties :
#
#
# Convention : Reuss Voigt Hill
#
# Bulk Modulus (GPa) = 64.19934 70.10500 67.15217
# Shear Modulus (GPa) = 52.94614 27.98814 40.46714
#
# Velocity S-wave (km/s) = 5.45257 3.96434 4.76689
# Velocity P-wave (km/s) = 8.70001 7.76662 8.24653
#
# Compressibility (1/GPa) = 0.01557648
#
# Stress axis : x y z
#
# Youngs Moduli (GPa) = 100.10061 58.09942 54.52073
#
# Poissons Ratio (x) = 0.19309 0.28227
# Poissons Ratio (y) = 0.33269 0.35344
# Poissons Ratio (z) = 0.51825 0.37664
#
# Static dielectric constant tensor:
#      x y z
#    x 3.497440 0.000000 0.000000 
#    y 0.000000 3.342700 0.000000 
#    z 0.000000 0.000000 3.606840 
# 
# 
# High freq. dielectric constant tensor:
#      x y z
#    x 1.700010 0.000000 0.000000 
#    y 0.000000 1.664620 0.000000 
#    z 0.000000 0.000000 1.687410 
# 
# From -- ./inp_files/24345.got.cif
#   From: 2010.03.12/outbox.cif.g09.slc.cpg/sg69_13_cif.got.tgz:24345.got - 2010.04.10 23:52:46.
