data_PCOD8285122
_publ_section_title
;
Structure prediction by ZEFSAII (Michael W. Deem and Ramdas Pophale) SiO2 
 PCOD8285122
Probable space group: F M M M
;
_chemical_formula_sum "Si O2"
_cell_formula_units_Z 128
_cell_length_a 20.622911
_cell_length_b 12.824516
_cell_length_c 27.217756
_cell_angle_alpha 90.000000
_cell_angle_beta 90.000000
_cell_angle_gamma 90.000000
_cell_volume 7198.520863
_symmetry_space_group_name_H-M "F M M M"
_symmetry_group_IT_number 69
_symmetry_cell_setting 'orthorhombic'
loop_
_space_group_symop_operation_xyz
x,y,z
-x,-y,z
x,-y,-z
-x,y,-z
-x,-y,-z
x,y,-z
-x,y,z
x,-y,z
x,1/2+y,1/2+z
-x,1/2-y,1/2+z
x,1/2-y,1/2-z
-x,1/2+y,1/2-z
-x,1/2-y,1/2-z
x,1/2+y,1/2-z
-x,1/2+y,1/2+z
x,1/2-y,1/2+z
1/2+x,y,1/2+z
1/2-x,-y,1/2+z
1/2+x,-y,1/2-z
1/2-x,y,1/2-z
1/2-x,-y,1/2-z
1/2+x,y,1/2-z
1/2-x,y,1/2+z
1/2+x,-y,1/2+z
1/2+x,1/2+y,z
1/2-x,1/2-y,z
1/2+x,1/2-y,-z
1/2-x,1/2+y,-z
1/2-x,1/2-y,-z
1/2+x,1/2+y,-z
1/2-x,1/2+y,z
1/2+x,1/2-y,z
loop_
_atom_site_type_symbol
_atom_site_label
_atom_site_fract_x
_atom_site_fract_y
_atom_site_fract_z
Si Si1 0.750000 0.750000 0.884261
Si Si2 0.500000 0.382746 0.918765
Si Si3 0.204524 0.619248 0.202994
Si Si4 0.398171 0.250000 0.250000
Si Si5 0.500000 0.116991 0.303268
Si Si6 0.857306 0.621620 0.443392
O O1 0.766098 0.652561 0.849031
O O2 0.809243 0.796309 0.916497
O O3 0.500000 0.500000 0.938514
O O4 0.500000 0.374279 0.860906
O O5 0.568328 0.334525 0.937906
O O6 0.185167 0.500000 0.199637
O O7 0.250000 0.641379 0.250000
O O8 0.140709 0.686360 0.209633
O O9 0.436674 0.169592 0.282608
O O10 0.500000 0.000000 0.284348
O O11 0.837111 0.623792 0.500000
O O12 0.851995 0.500000 0.423800
#
# Coordination Sequence:
#
# PCOD8285122 Si02
#       6
#    16  16  32  16  16  32
#     4  12  20  36  54  82 112 146 184 228 278 340
#     4   9  18  33  54  77 104 138 178 224 277 327
#     4  11  22  35  53  77 109 146 182 222 265 327
#     4  11  19  36  50  74 111 147 186 216 272 326
#     4  10  21  32  52  79 106 141 183 232 271 321
#     4  10  21  36  56  82 111 143 183 234 287 336
#
# _framework density 17.781431000000001
#
# number of rings (size 3 to 8) (size 9 to 14) (size 15 to 20)
#    0.000    1.500    2.500    3.750    0.000    1.500 
#    0.000    0.000    0.000    0.000    0.000    2.625 
#    0.000   12.000    0.000    0.000    0.000    0.000 
#
# Total GULP energy -396529.247114 kJ/mol
# GULP energy per Si atom -12391.538972 kJ/mol
# Density = 1.774096 g / cm^3
# Si number density = 17.781431 Si / 1000 Ang^3
#
#
#
# Elastic Constant Matrix: (Units=GPa)
#
#
# Indices 1 2 3 4 5 6 
#
# 1 118.5829 48.7409 51.0576 0.0000 0.0000 0.0000
# 2 48.7409 104.6497 46.0233 0.0000 0.0000 0.0000
# 3 51.0576 46.0233 80.6259 0.0000 0.0000 0.0000
# 4 0.0000 0.0000 0.0000 -19.9540 0.0000 0.0000
# 5 0.0000 0.0000 0.0000 0.0000 39.3110 0.0000
# 6 0.0000 0.0000 0.0000 0.0000 0.0000 47.5148
#
#
#
# Elastic Compliance Matrix: (Units=1/GPa)
#
#
# Indices 1 2 3 4 5 6 
#
# 1 0.012292 -0.003073 -0.006030 0.000000 0.000000 0.000000
# 2 -0.003073 0.013527 -0.005775 0.000000 0.000000 0.000000
# 3 -0.006030 -0.005775 0.019518 0.000000 0.000000 0.000000
# 4 0.000000 0.000000 0.000000 -0.050115 0.000000 0.000000
# 5 0.000000 0.000000 0.000000 0.000000 0.025438 0.000000
# 6 0.000000 0.000000 0.000000 0.000000 0.000000 0.021046
#
#
# Mechanical properties :
#
#
# Convention : Reuss Voigt Hill
#
# Bulk Modulus (GPa) = 64.18345 66.16688 65.17516
# Shear Modulus (GPa) = 65.22503 23.91012 44.56757
#
# Velocity S-wave (km/s) = 6.06310 3.67095 5.01184
# Velocity P-wave (km/s) = 9.22979 7.43370 8.38000
#
# Compressibility (1/GPa) = 0.01558034
#
# Stress axis : x y z
#
# Youngs Moduli (GPa) = 81.35059 73.92623 51.23399
#
# Poissons Ratio (x) = 0.22720 0.30894
# Poissons Ratio (y) = 0.25002 0.29589
# Poissons Ratio (z) = 0.49055 0.42695
#
# Static dielectric constant tensor:
#      x y z
#    x 3.424380 0.000000 0.000000 
#    y 0.000000 3.316740 0.000000 
#    z 0.000000 0.000000 3.628150 
# 
# 
# High freq. dielectric constant tensor:
#      x y z
#    x 1.696370 0.000000 0.000000 
#    y 0.000000 1.678060 0.000000 
#    z 0.000000 0.000000 1.692470 
# 
# From -- ./inp_files/41643.got.cif
#   From: 2010.03.12/outbox.cif.g09.slc.cpg/sg69_21_cif.got.tgz:41643.got - 2010.04.10 23:52:46.
