data_PCOD8285487
_publ_section_title
;
Structure prediction by ZEFSAII (Michael W. Deem and Ramdas Pophale) SiO2 
 PCOD8285487
Probable space group: F M M M
;
_chemical_formula_sum "Si O2"
_cell_formula_units_Z 176
_cell_length_a 22.181124
_cell_length_b 26.542621
_cell_length_c 14.769053
_cell_angle_alpha 90.000000
_cell_angle_beta 90.000000
_cell_angle_gamma 90.000000
_cell_volume 8695.208585
_symmetry_space_group_name_H-M "F M M M"
_symmetry_group_IT_number 69
_symmetry_cell_setting 'orthorhombic'
loop_
_space_group_symop_operation_xyz
x,y,z
-x,-y,z
x,-y,-z
-x,y,-z
-x,-y,-z
x,y,-z
-x,y,z
x,-y,z
x,1/2+y,1/2+z
-x,1/2-y,1/2+z
x,1/2-y,1/2-z
-x,1/2+y,1/2-z
-x,1/2-y,1/2-z
x,1/2+y,1/2-z
-x,1/2+y,1/2+z
x,1/2-y,1/2+z
1/2+x,y,1/2+z
1/2-x,-y,1/2+z
1/2+x,-y,1/2-z
1/2-x,y,1/2-z
1/2-x,-y,1/2-z
1/2+x,y,1/2-z
1/2-x,y,1/2+z
1/2+x,-y,1/2+z
1/2+x,1/2+y,z
1/2-x,1/2-y,z
1/2+x,1/2-y,-z
1/2-x,1/2+y,-z
1/2-x,1/2-y,-z
1/2+x,1/2+y,-z
1/2-x,1/2+y,z
1/2+x,1/2-y,z
loop_
_atom_site_type_symbol
_atom_site_label
_atom_site_fract_x
_atom_site_fract_y
_atom_site_fract_z
Si Si1 0.265597 0.867559 0.146088
Si Si2 0.364660 0.833206 0.402526
Si Si3 0.071359 0.593176 0.723098
Si Si4 0.138029 0.941475 0.601894
Si Si5 0.071587 0.000000 0.102450
Si Si6 0.313738 0.735721 0.353873
O O1 0.250000 0.875455 0.250000
O O2 0.203658 0.853930 0.096994
O O3 0.294572 0.918348 0.106406
O O4 0.318457 0.824624 0.133138
O O5 0.393482 0.848006 0.500000
O O6 0.403637 0.855102 0.319785
O O7 0.364979 0.771591 0.397541
O O8 0.095244 0.585478 0.824758
O O9 0.094578 0.548890 0.656697
O O10 0.000000 0.595659 0.728430
O O11 0.111912 0.934024 0.500000
O O12 0.142787 0.000000 0.626111
O O13 0.000000 0.000000 0.099045
O O14 0.097957 0.000000 0.000000
O O15 0.311804 0.750000 0.250000
O O16 0.250000 0.750000 0.398907
#
# Coordination Sequence:
#
# PCOD8285487 Si02
#       6
#    32  32  32  32  16  32
#     4  11  19  37  63  89 123 163 201 247 301 366
#     4  11  22  35  58  93 126 161 202 248 305 366
#     4  11  22  40  62  86 119 160 207 258 308 357
#     4  11  24  41  62  90 123 160 205 258 314 371
#     4   9  18  34  57  82 111 151 201 249 294 353
#     4   9  15  31  55  84 117 156 196 239 285 349
#
# _framework density 20.241033000000002
#
# number of rings (size 3 to 8) (size 9 to 14) (size 15 to 20)
#    0.000    1.545    6.364    1.091    0.000    5.818 
#    1.636    0.909    0.000    4.909    0.000    5.091 
#    0.000    0.000    0.000    0.000    0.000    0.000 
#
# Total GULP energy -545166.305700 kJ/mol
# GULP energy per Si atom -12390.143311 kJ/mol
# Density = 2.019496 g / cm^3
# Si number density = 20.241033 Si / 1000 Ang^3
#
#
#
# Elastic Constant Matrix: (Units=GPa)
#
#
# Indices 1 2 3 4 5 6 
#
# 1 57.6247 28.4360 26.1287 0.0000 0.0000 0.0000
# 2 28.4360 84.7660 41.6594 0.0000 0.0000 0.0000
# 3 26.1287 41.6594 139.0025 0.0000 0.0000 0.0000
# 4 0.0000 0.0000 0.0000 22.8602 0.0000 0.0000
# 5 0.0000 0.0000 0.0000 0.0000 8.9857 0.0000
# 6 0.0000 0.0000 0.0000 0.0000 0.0000 29.3549
#
#
#
# Elastic Compliance Matrix: (Units=1/GPa)
#
#
# Indices 1 2 3 4 5 6 
#
# 1 0.021350 -0.006086 -0.002189 0.000000 0.000000 0.000000
# 2 -0.006086 0.015570 -0.003522 0.000000 0.000000 0.000000
# 3 -0.002189 -0.003522 0.008661 0.000000 0.000000 0.000000
# 4 0.000000 0.000000 0.000000 0.043744 0.000000 0.000000
# 5 0.000000 0.000000 0.000000 0.000000 0.111288 0.000000
# 6 0.000000 0.000000 0.000000 0.000000 0.000000 0.034066
#
#
# Mechanical properties :
#
#
# Convention : Reuss Voigt Hill
#
# Bulk Modulus (GPa) = 45.48427 52.64905 49.06666
# Shear Modulus (GPa) = 18.82512 24.58476 21.70494
#
# Velocity S-wave (km/s) = 3.05298 3.48889 3.27819
# Velocity P-wave (km/s) = 5.91165 6.50364 6.21470
#
# Compressibility (1/GPa) = 0.02198562
#
# Stress axis : x y z
#
# Youngs Moduli (GPa) = 46.83923 64.22616 115.45665
#
# Poissons Ratio (x) = 0.39089 0.25275
# Poissons Ratio (y) = 0.28507 0.40668
# Poissons Ratio (z) = 0.10254 0.22623
#
# Static dielectric constant tensor:
#      x y z
#    x 3.254450 0.000000 0.000000 
#    y 0.000000 3.966950 0.000000 
#    z 0.000000 0.000000 3.677710 
# 
# 
# High freq. dielectric constant tensor:
#      x y z
#    x 1.734970 0.000000 0.000000 
#    y 0.000000 1.794500 0.000000 
#    z 0.000000 0.000000 1.807450 
# 
# From -- ./inp_files/17912.got.cif
#   From: 2010.03.12/outbox.cif.g09.slc.cpg/sg69_9_cif.got.tgz:17912.got - 2010.04.10 23:52:46.
