data_PCOD8285386
_publ_section_title
;
Structure prediction by ZEFSAII (Michael W. Deem and Ramdas Pophale) SiO2 
 PCOD8285386
Probable space group: F M M M
;
_chemical_formula_sum "Si O2"
_cell_formula_units_Z 176
_cell_length_a 10.791254
_cell_length_b 25.976949
_cell_length_c 34.383862
_cell_angle_alpha 90.000000
_cell_angle_beta 90.000000
_cell_angle_gamma 90.000000
_cell_volume 9638.616739
_symmetry_space_group_name_H-M "F M M M"
_symmetry_group_IT_number 69
_symmetry_cell_setting 'orthorhombic'
loop_
_space_group_symop_operation_xyz
x,y,z
-x,-y,z
x,-y,-z
-x,y,-z
-x,-y,-z
x,y,-z
-x,y,z
x,-y,z
x,1/2+y,1/2+z
-x,1/2-y,1/2+z
x,1/2-y,1/2-z
-x,1/2+y,1/2-z
-x,1/2-y,1/2-z
x,1/2+y,1/2-z
-x,1/2+y,1/2+z
x,1/2-y,1/2+z
1/2+x,y,1/2+z
1/2-x,-y,1/2+z
1/2+x,-y,1/2-z
1/2-x,y,1/2-z
1/2-x,-y,1/2-z
1/2+x,y,1/2-z
1/2-x,y,1/2+z
1/2+x,-y,1/2+z
1/2+x,1/2+y,z
1/2-x,1/2-y,z
1/2+x,1/2-y,-z
1/2-x,1/2+y,-z
1/2-x,1/2-y,-z
1/2+x,1/2+y,-z
1/2-x,1/2+y,z
1/2+x,1/2-y,z
loop_
_atom_site_type_symbol
_atom_site_label
_atom_site_fract_x
_atom_site_fract_y
_atom_site_fract_z
Si Si1 0.857076 0.557552 0.323175
Si Si2 0.000000 0.060625 0.956200
Si Si3 0.703866 0.106059 0.599085
Si Si4 0.140933 0.290419 0.638527
Si Si5 0.643777 0.557177 0.542370
Si Si6 0.141049 0.343307 0.278741
O O1 0.819824 0.500000 0.309780
O O2 0.781239 0.574161 0.361032
O O3 0.833066 0.596468 0.287521
O O4 0.000000 0.561131 0.335948
O O5 0.117305 0.079635 0.932508
O O6 0.000000 0.000000 0.957584
O O7 0.000000 0.083435 0.000000
O O8 0.661772 0.163957 0.607789
O O9 0.832557 0.100445 0.575883
O O10 0.250000 0.250000 0.630444
O O11 0.153880 0.310674 0.682225
O O12 0.000000 0.268402 0.632648
O O13 0.703369 0.571479 0.500000
O O14 0.500000 0.554988 0.536551
O O15 0.692447 0.500000 0.554810
O O16 0.250000 0.323788 0.250000
O O17 0.000000 0.336269 0.261607
#
# Coordination Sequence:
#
# PCOD8285386 Si02
#       6
#    32  16  32  32  32  32
#     4   9  16  28  48  73 106 145 176 206 257 325
#     4  11  20  28  50  88 118 137 164 212 273 324
#     4  11  18  32  52  77 106 137 178 225 271 319
#     4  10  22  40  59  80 105 139 185 234 287 337
#     4   9  18  31  47  72 109 148 179 210 258 322
#     4   9  19  35  54  79 109 137 173 224 274 328
#
# _framework density 18.259882000000001
#
# number of rings (size 3 to 8) (size 9 to 14) (size 15 to 20)
#    0.000    2.273    1.818    3.818    0.000    3.636 
#    0.000    4.545    0.000    3.273    0.000    0.000 
#    0.000    0.000    0.000    0.000    0.000    0.000 
#
# Total GULP energy -545108.359729 kJ/mol
# GULP energy per Si atom -12388.826357 kJ/mol
# Density = 1.821832 g / cm^3
# Si number density = 18.259882 Si / 1000 Ang^3
#
#
#
# Elastic Constant Matrix: (Units=GPa)
#
#
# Indices 1 2 3 4 5 6 
#
# 1 91.2939 35.3055 41.9704 0.0000 0.0000 0.0000
# 2 35.3055 67.6745 18.0531 0.0000 0.0000 0.0000
# 3 41.9704 18.0531 73.1934 0.0000 0.0000 0.0000
# 4 0.0000 0.0000 0.0000 16.7760 0.0000 0.0000
# 5 0.0000 0.0000 0.0000 0.0000 379.0389 0.0000
# 6 0.0000 0.0000 0.0000 0.0000 0.0000 21.8560
#
#
#
# Elastic Compliance Matrix: (Units=1/GPa)
#
#
# Indices 1 2 3 4 5 6 
#
# 1 0.017428 -0.006879 -0.008297 0.000000 0.000000 0.000000
# 2 -0.006879 0.018532 -0.000627 0.000000 0.000000 0.000000
# 3 -0.008297 -0.000627 0.018575 0.000000 0.000000 0.000000
# 4 0.000000 0.000000 0.000000 0.059609 0.000000 0.000000
# 5 0.000000 0.000000 0.000000 0.000000 0.002638 0.000000
# 6 0.000000 0.000000 0.000000 0.000000 0.000000 0.045754
#
#
# Mechanical properties :
#
#
# Convention : Reuss Voigt Hill
#
# Bulk Modulus (GPa) = 43.61014 46.97998 45.29506
# Shear Modulus (GPa) = 24.77888 92.65638 58.71763
#
# Velocity S-wave (km/s) = 3.68776 7.13115 5.67683
# Velocity P-wave (km/s) = 6.48596 9.67413 8.23579
#
# Compressibility (1/GPa) = 0.02293045
#
# Stress axis : x y z
#
# Youngs Moduli (GPa) = 57.37825 53.95946 53.83700
#
# Poissons Ratio (x) = 0.37118 0.44668
# Poissons Ratio (y) = 0.39470 0.03373
# Poissons Ratio (z) = 0.47607 0.03381
#
# Static dielectric constant tensor:
#      x y z
#    x 3.881170 0.000000 0.000000 
#    y 0.000000 3.290560 0.000000 
#    z 0.000000 0.000000 3.287810 
# 
# 
# High freq. dielectric constant tensor:
#      x y z
#    x 1.706730 0.000000 0.000000 
#    y 0.000000 1.684850 0.000000 
#    z 0.000000 0.000000 1.702290 
# 
# From -- ./inp_files/45235.got.cif
#   From: 2010.03.12/outbox.cif.g09.slc.cpg/sg69_23_cif.got.tgz:45235.got - 2010.04.10 23:52:46.
