data_PCOD8285199
_publ_section_title
;
Structure prediction by ZEFSAII (Michael W. Deem and Ramdas Pophale) SiO2 
 PCOD8285199
Probable space group: F M M M
;
_chemical_formula_sum "Si O2"
_cell_formula_units_Z 192
_cell_length_a 16.675999
_cell_length_b 20.108912
_cell_length_c 26.659504
_cell_angle_alpha 90.000000
_cell_angle_beta 90.000000
_cell_angle_gamma 90.000000
_cell_volume 8939.896669
_symmetry_space_group_name_H-M "F M M M"
_symmetry_group_IT_number 69
_symmetry_cell_setting 'orthorhombic'
loop_
_space_group_symop_operation_xyz
x,y,z
-x,-y,z
x,-y,-z
-x,y,-z
-x,-y,-z
x,y,-z
-x,y,z
x,-y,z
x,1/2+y,1/2+z
-x,1/2-y,1/2+z
x,1/2-y,1/2-z
-x,1/2+y,1/2-z
-x,1/2-y,1/2-z
x,1/2+y,1/2-z
-x,1/2+y,1/2+z
x,1/2-y,1/2+z
1/2+x,y,1/2+z
1/2-x,-y,1/2+z
1/2+x,-y,1/2-z
1/2-x,y,1/2-z
1/2-x,-y,1/2-z
1/2+x,y,1/2-z
1/2-x,y,1/2+z
1/2+x,-y,1/2+z
1/2+x,1/2+y,z
1/2-x,1/2-y,z
1/2+x,1/2-y,-z
1/2-x,1/2+y,-z
1/2-x,1/2-y,-z
1/2+x,1/2+y,-z
1/2-x,1/2+y,z
1/2+x,1/2-y,z
loop_
_atom_site_type_symbol
_atom_site_label
_atom_site_fract_x
_atom_site_fract_y
_atom_site_fract_z
Si Si1 0.323823 0.421267 0.675018
Si Si2 0.909343 0.370665 0.092123
Si Si3 0.652583 0.117537 0.628284
Si Si4 0.170476 0.500000 0.946686
Si Si5 0.410886 0.075702 0.726298
Si Si6 0.142416 0.500000 0.443897
Si Si7 0.594172 0.226073 0.557489
O O1 0.335702 0.500000 0.662272
O O2 0.392799 0.372341 0.651708
O O3 0.238649 0.398298 0.652893
O O4 0.339051 0.409219 0.734205
O O5 0.851668 0.431178 0.078474
O O6 0.882837 0.303205 0.065109
O O7 0.000000 0.387627 0.078151
O O8 0.595161 0.121581 0.676826
O O9 0.649010 0.186264 0.597147
O O10 0.618243 0.064285 0.588397
O O11 0.264167 0.500000 0.952412
O O12 0.126399 0.500000 0.000000
O O13 0.500000 0.085366 0.749888
O O14 0.398756 0.000000 0.707909
O O15 0.101508 0.500000 0.500000
O O16 0.614553 0.206264 0.500000
O O17 0.500000 0.214999 0.569070
#
# Coordination Sequence:
#
# PCOD8285199 Si02
#       7
#    32  32  32  16  32  16  32
#     4  11  21  38  60  97 128 159 195 258 319 370
#     4  11  21  38  61  88 124 164 207 255 313 375
#     4  12  20  40  62  88 124 170 211 254 306 367
#     4  11  21  36  58  89 122 156 204 258 311 371
#     4  10  21  36  62  95 126 160 206 257 315 379
#     4  11  22  37  57  90 128 160 208 267 311 352
#     4  10  24  43  61  86 124 169 214 261 312 364
#
# _framework density 21.476759000000001
#
# number of rings (size 3 to 8) (size 9 to 14) (size 15 to 20)
#    0.000    1.167    4.167    2.750    0.000    4.000 
#    0.000    1.667    0.000    7.000    0.000    0.000 
#    0.000    0.000    0.000    0.000    0.000    0.000 
#
# Total GULP energy -594661.895705 kJ/mol
# GULP energy per Si atom -12388.789494 kJ/mol
# Density = 2.142788 g / cm^3
# Si number density = 21.476759 Si / 1000 Ang^3
#
#
#
# Elastic Constant Matrix: (Units=GPa)
#
#
# Indices 1 2 3 4 5 6 
#
# 1 57.5980 26.6372 41.4547 0.0000 0.0000 0.0000
# 2 26.6372 88.7922 52.8469 0.0000 0.0000 0.0000
# 3 41.4547 52.8469 149.2597 0.0000 0.0000 0.0000
# 4 0.0000 0.0000 0.0000 32.1066 0.0000 0.0000
# 5 0.0000 0.0000 0.0000 0.0000 27.8310 0.0000
# 6 0.0000 0.0000 0.0000 0.0000 0.0000 13.1754
#
#
#
# Elastic Compliance Matrix: (Units=1/GPa)
#
#
# Indices 1 2 3 4 5 6 
#
# 1 0.022705 -0.003875 -0.004934 0.000000 0.000000 0.000000
# 2 -0.003875 0.014930 -0.004210 0.000000 0.000000 0.000000
# 3 -0.004934 -0.004210 0.009561 0.000000 0.000000 0.000000
# 4 0.000000 0.000000 0.000000 0.031146 0.000000 0.000000
# 5 0.000000 0.000000 0.000000 0.000000 0.035931 0.000000
# 6 0.000000 0.000000 0.000000 0.000000 0.000000 0.075899
#
#
# Mechanical properties :
#
#
# Convention : Reuss Voigt Hill
#
# Bulk Modulus (GPa) = 47.26304 59.72527 53.49416
# Shear Modulus (GPa) = 22.39515 26.27000 24.33258
#
# Velocity S-wave (km/s) = 3.23269 3.50120 3.36962
# Velocity P-wave (km/s) = 5.99900 6.64937 6.33254
#
# Compressibility (1/GPa) = 0.02115818
#
# Stress axis : x y z
#
# Youngs Moduli (GPa) = 44.04358 66.97742 104.59466
#
# Poissons Ratio (x) = 0.25952 0.51607
# Poissons Ratio (y) = 0.17066 0.44036
# Poissons Ratio (z) = 0.21731 0.28198
#
# Static dielectric constant tensor:
#      x y z
#    x 3.722220 0.000000 0.000000 
#    y 0.000000 5.097870 0.000000 
#    z 0.000000 0.000000 4.461330 
# 
# 
# High freq. dielectric constant tensor:
#      x y z
#    x 1.835330 0.000000 0.000000 
#    y 0.000000 1.813710 0.000000 
#    z 0.000000 0.000000 1.865860 
# 
# From -- ./inp_files/46423.got.cif
#   From: 2010.03.12/outbox.cif.g09.slc.cpg/sg69_24_cif.got.tgz:46423.got - 2010.04.10 23:52:46.
