data_PCOD8285170
_publ_section_title
;
Structure prediction by ZEFSAII (Michael W. Deem and Ramdas Pophale) SiO2 
 PCOD8285170
Probable space group: F M M M
;
_chemical_formula_sum "Si O2"
_cell_formula_units_Z 144
_cell_length_a 32.034628
_cell_length_b 8.775393
_cell_length_c 26.704839
_cell_angle_alpha 90.000000
_cell_angle_beta 90.000000
_cell_angle_gamma 90.000000
_cell_volume 7507.169546
_symmetry_space_group_name_H-M "F M M M"
_symmetry_group_IT_number 69
_symmetry_cell_setting 'orthorhombic'
loop_
_space_group_symop_operation_xyz
x,y,z
-x,-y,z
x,-y,-z
-x,y,-z
-x,-y,-z
x,y,-z
-x,y,z
x,-y,z
x,1/2+y,1/2+z
-x,1/2-y,1/2+z
x,1/2-y,1/2-z
-x,1/2+y,1/2-z
-x,1/2-y,1/2-z
x,1/2+y,1/2-z
-x,1/2+y,1/2+z
x,1/2-y,1/2+z
1/2+x,y,1/2+z
1/2-x,-y,1/2+z
1/2+x,-y,1/2-z
1/2-x,y,1/2-z
1/2-x,-y,1/2-z
1/2+x,y,1/2-z
1/2-x,y,1/2+z
1/2+x,-y,1/2+z
1/2+x,1/2+y,z
1/2-x,1/2-y,z
1/2+x,1/2-y,-z
1/2-x,1/2+y,-z
1/2-x,1/2-y,-z
1/2+x,1/2+y,-z
1/2-x,1/2+y,z
1/2+x,1/2-y,z
loop_
_atom_site_type_symbol
_atom_site_label
_atom_site_fract_x
_atom_site_fract_y
_atom_site_fract_z
Si Si1 0.793964 0.180703 0.903314
Si Si2 0.334826 0.322716 0.801691
Si Si3 0.000000 0.179862 0.695221
Si Si4 0.124997 0.175565 0.557051
Si Si5 0.919466 0.680030 0.646688
O O1 0.750000 0.250000 0.919825
O O2 0.803453 0.227307 0.845789
O O3 0.829112 0.251849 0.938746
O O4 0.794123 0.000000 0.910511
O O5 0.332937 0.500000 0.793547
O O6 0.320109 0.250000 0.750000
O O7 0.381757 0.273497 0.816295
O O8 0.000000 0.250000 0.750000
O O9 0.959917 0.231874 0.664583
O O10 0.000000 0.000000 0.700760
O O11 0.109777 0.190050 0.500000
O O12 0.091874 0.267239 0.590676
O O13 0.126708 0.000000 0.574353
O O14 0.927603 0.500000 0.646748
#
# Coordination Sequence:
#
# PCOD8285170 Si02
#       5
#    32  32  16  32  32
#     4  10  21  36  53  77 108 142 184 231 278 330
#     4   9  19  33  51  75 104 141 181 221 268 324
#     4  12  24  38  59  88 121 154 188 227 271 321
#     4  10  21  38  60  84 110 143 182 226 280 337
#     4  10  21  38  58  83 114 147 186 229 275 327
#
# _framework density 19.181663
#
# number of rings (size 3 to 8) (size 9 to 14) (size 15 to 20)
#    0.000    2.000    0.000    5.000    0.000    9.778 
#    0.000    2.778    0.000    3.333    0.000    0.000 
#    0.000    0.000    0.000    0.000    0.000    0.000 
#
# Total GULP energy -446496.439441 kJ/mol
# GULP energy per Si atom -12402.678873 kJ/mol
# Density = 1.913800 g / cm^3
# Si number density = 19.181663 Si / 1000 Ang^3
#
#
#
# Elastic Constant Matrix: (Units=GPa)
#
#
# Indices 1 2 3 4 5 6 
#
# 1 104.5049 38.2012 24.7905 0.0000 -0.0001 0.0001
# 2 38.2012 98.4774 32.2217 0.0000 0.0000 0.0003
# 3 24.7905 32.2217 90.7664 0.0000 0.0000 0.0000
# 4 0.0000 0.0000 0.0000 34.8224 0.0000 0.0000
# 5 -0.0001 0.0000 0.0000 0.0000 25.2532 0.0001
# 6 0.0001 0.0003 0.0000 0.0000 0.0001 32.7179
#
#
#
# Elastic Compliance Matrix: (Units=1/GPa)
#
#
# Indices 1 2 3 4 5 6 
#
# 1 0.011389 -0.003847 -0.001745 0.000000 0.000000 0.000000
# 2 -0.003847 0.012789 -0.003489 0.000000 0.000000 0.000000
# 3 -0.001745 -0.003489 0.012733 0.000000 0.000000 0.000000
# 4 0.000000 0.000000 0.000000 0.028717 0.000000 0.000000
# 5 0.000000 0.000000 0.000000 0.000000 0.039599 0.000000
# 6 0.000000 0.000000 0.000000 0.000000 0.000000 0.030564
#
#
# Mechanical properties :
#
#
# Convention : Reuss Voigt Hill
#
# Bulk Modulus (GPa) = 53.33947 53.79728 53.56837
# Shear Modulus (GPa) = 31.21050 31.79438 31.50244
#
# Velocity S-wave (km/s) = 4.03811 4.07571 4.05695
# Velocity P-wave (km/s) = 7.04341 7.08912 7.06630
#
# Compressibility (1/GPa) = 0.01874784
#
# Stress axis : x y z
#
# Youngs Moduli (GPa) = 87.80282 78.19448 78.53902
#
# Poissons Ratio (x) = 0.30082 0.13705
# Poissons Ratio (y) = 0.33779 0.27404
# Poissons Ratio (z) = 0.15321 0.27283
#
# Static dielectric constant tensor:
#      x y z
#    x 3.449410 0.000000 0.000000 
#    y 0.000000 3.589510 0.000000 
#    z 0.000000 0.000000 3.686390 
# 
# 
# High freq. dielectric constant tensor:
#      x y z
#    x 1.738050 0.000000 0.000000 
#    y 0.000000 1.759280 0.000000 
#    z 0.000000 0.000000 1.747350 
# 
# From -- ./inp_files/47381.got.cif
#   From: 2010.03.12/outbox.cif.g09.slc.cpg/sg69_24_cif.got.tgz:47381.got - 2010.04.10 23:52:46.
