data_PCOD8285747
_publ_section_title
;
Structure prediction by ZEFSAII (Michael W. Deem and Ramdas Pophale) SiO2 
 PCOD8285747
Probable space group: F D D D
;
_chemical_formula_sum "Si O2"
_cell_formula_units_Z 80
_cell_length_a 4.918324
_cell_length_b 24.004867
_cell_length_c 37.021156
_cell_angle_alpha 90.000000
_cell_angle_beta 90.000000
_cell_angle_gamma 90.000000
_cell_volume 4370.855155
_symmetry_space_group_name_H-M "F D D D"
_symmetry_group_IT_number 70
_space_group.IT_coordinate_system_code '2'
_symmetry_cell_setting 'orthorhombic'
loop_
_space_group_symop_operation_xyz
x,y,z
1/4-x,1/4-y,z
x,1/4-y,1/4-z
1/4-x,y,1/4-z
-x,-y,-z
3/4+x,3/4+y,-z
-x,3/4+y,3/4+z
3/4+x,-y,3/4+z
x,1/2+y,1/2+z
1/4-x,3/4-y,1/2+z
x,3/4-y,3/4-z
1/4-x,1/2+y,3/4-z
-x,1/2-y,1/2-z
3/4+x,1/4+y,1/2-z
-x,1/4+y,1/4+z
3/4+x,1/2-y,1/4+z
1/2+x,y,1/2+z
3/4-x,1/4-y,1/2+z
1/2+x,1/4-y,3/4-z
3/4-x,y,3/4-z
1/2-x,-y,1/2-z
1/4+x,3/4+y,1/2-z
1/2-x,3/4+y,1/4+z
1/4+x,-y,1/4+z
1/2+x,1/2+y,z
3/4-x,3/4-y,z
1/2+x,3/4-y,1/4-z
3/4-x,1/2+y,1/4-z
1/2-x,1/2-y,-z
1/4+x,1/4+y,-z
1/2-x,1/4+y,3/4+z
1/4+x,1/2-y,3/4+z
loop_
_atom_site_type_symbol
_atom_site_label
_atom_site_fract_x
_atom_site_fract_y
_atom_site_fract_z
Si Si1 0.247508 0.453301 0.037348
Si Si2 0.625000 0.625000 0.899427
Si Si3 0.755699 0.569809 0.509171
O O1 0.286149 0.428386 0.076997
O O2 0.451395 0.422060 0.009500
O O3 0.940502 0.444475 0.024376
O O4 0.289269 0.520338 0.038346
O O5 0.375000 0.605456 0.875000
O O6 0.625000 0.625000 0.528097
#
# Coordination Sequence:
#
# PCOD8285747 Si02
#       3
#    32  16  32
#     4  10  20  31  49  79 101 134 176 206 274 310
#     4  12  22  34  50  72 114 146 173 212 251 336
#     4  10  17  32  54  74 105 126 165 237 263 306
#
# _framework density 18.303053999999999
#
# number of rings (size 3 to 8) (size 9 to 14) (size 15 to 20)
#    0.000    1.600    4.000    2.400    0.000    0.000 
#    0.000    0.000    0.000    1.200    0.000    2.800 
#    0.000    0.000    0.000    0.000    0.000    0.000 
#
# Total GULP energy -247864.400439 kJ/mol
# GULP energy per Si atom -12393.220022 kJ/mol
# Density = 1.826140 g / cm^3
# Si number density = 18.303054 Si / 1000 Ang^3
#
#
#
# Elastic Constant Matrix: (Units=GPa)
#
#
# Indices 1 2 3 4 5 6 
#
# 1 64.5187 24.1740 19.7358 0.0000 0.0000 0.0000
# 2 24.1740 138.8057 48.9162 0.0000 0.0000 0.0000
# 3 19.7358 48.9162 85.0704 0.0000 0.0000 0.0000
# 4 0.0000 0.0000 0.0000 1.7395 0.0000 0.0000
# 5 0.0000 0.0000 0.0000 0.0000 23.7516 0.0000
# 6 0.0000 0.0000 0.0000 0.0000 0.0000 32.8067
#
#
#
# Elastic Compliance Matrix: (Units=1/GPa)
#
#
# Indices 1 2 3 4 5 6 
#
# 1 0.017108 -0.001982 -0.002829 0.000000 0.000000 0.000000
# 2 -0.001982 0.009265 -0.004867 0.000000 0.000000 0.000000
# 3 -0.002829 -0.004867 0.015210 0.000000 0.000000 0.000000
# 4 0.000000 0.000000 0.000000 0.574867 0.000000 0.000000
# 5 0.000000 0.000000 0.000000 0.000000 0.042102 0.000000
# 6 0.000000 0.000000 0.000000 0.000000 0.000000 0.030482
#
#
# Mechanical properties :
#
#
# Convention : Reuss Voigt Hill
#
# Bulk Modulus (GPa) = 44.99473 52.67187 48.83330
# Shear Modulus (GPa) = 6.98520 24.69748 15.84134
#
# Velocity S-wave (km/s) = 1.95568 3.67735 2.94513
# Velocity P-wave (km/s) = 5.45309 6.84622 6.18898
#
# Compressibility (1/GPa) = 0.02222482
#
# Stress axis : x y z
#
# Youngs Moduli (GPa) = 58.45382 107.93405 65.74573
#
# Poissons Ratio (x) = 0.21398 0.18599
# Poissons Ratio (y) = 0.11588 0.32002
# Poissons Ratio (z) = 0.16536 0.52537
#
# Static dielectric constant tensor:
#      x y z
#    x 3.669910 0.000000 0.000000 
#    y 0.000000 3.819450 0.000000 
#    z 0.000000 0.000000 2.872680 
# 
# 
# High freq. dielectric constant tensor:
#      x y z
#    x 1.740500 0.000000 0.000000 
#    y 0.000000 1.724380 0.000000 
#    z 0.000000 0.000000 1.639800 
# 
# From -- ./inp_files/2445.got.cif
#   From: 2010.03.12/outbox.cif.g09.slc.cpg/sg70_2_cif.got.tgz:2445.got - 2010.04.16 13:46:32.
