data_PCOD8285254
_publ_section_title
;
Structure prediction by ZEFSAII (Michael W. Deem and Ramdas Pophale) SiO2 
 PCOD8285254
Probable space group: F M M M
;
_chemical_formula_sum "Si O2"
_cell_formula_units_Z 192
_cell_length_a 18.523252
_cell_length_b 16.105103
_cell_length_c 32.249742
_cell_angle_alpha 90.000000
_cell_angle_beta 90.000000
_cell_angle_gamma 90.000000
_cell_volume 9620.706957
_symmetry_space_group_name_H-M "F M M M"
_symmetry_group_IT_number 69
_symmetry_cell_setting 'orthorhombic'
loop_
_space_group_symop_operation_xyz
x,y,z
-x,-y,z
x,-y,-z
-x,y,-z
-x,-y,-z
x,y,-z
-x,y,z
x,-y,z
x,1/2+y,1/2+z
-x,1/2-y,1/2+z
x,1/2-y,1/2-z
-x,1/2+y,1/2-z
-x,1/2-y,1/2-z
x,1/2+y,1/2-z
-x,1/2+y,1/2+z
x,1/2-y,1/2+z
1/2+x,y,1/2+z
1/2-x,-y,1/2+z
1/2+x,-y,1/2-z
1/2-x,y,1/2-z
1/2-x,-y,1/2-z
1/2+x,y,1/2-z
1/2-x,y,1/2+z
1/2+x,-y,1/2+z
1/2+x,1/2+y,z
1/2-x,1/2-y,z
1/2+x,1/2-y,-z
1/2-x,1/2+y,-z
1/2-x,1/2-y,-z
1/2+x,1/2+y,-z
1/2-x,1/2+y,z
1/2+x,1/2-y,z
loop_
_atom_site_type_symbol
_atom_site_label
_atom_site_fract_x
_atom_site_fract_y
_atom_site_fract_z
Si Si1 0.830628 0.338403 0.266034
Si Si2 0.284771 0.904420 0.914153
Si Si3 0.081537 0.000000 0.235304
Si Si4 0.082618 0.302562 0.913254
Si Si5 0.712474 0.595079 0.000000
Si Si6 0.580136 0.214278 0.500000
Si Si7 0.161387 0.162465 0.135753
Si Si8 0.080572 0.500000 0.636745
O O1 0.861854 0.250000 0.250000
O O2 0.750000 0.352866 0.250000
O O3 0.878363 0.415863 0.249334
O O4 0.830798 0.334058 0.315292
O O5 0.369904 0.886065 0.909777
O O6 0.260090 0.881502 0.960393
O O7 0.241648 0.842744 0.883319
O O8 0.271026 0.000000 0.902420
O O9 0.080105 0.000000 0.186109
O O10 0.000000 0.000000 0.253190
O O11 0.090808 0.270205 0.959711
O O12 0.114024 0.238490 0.879935
O O13 0.000000 0.323318 0.901895
O O14 0.690686 0.500000 0.000000
O O15 0.637000 0.641253 0.000000
O O16 0.500000 0.174779 0.500000
O O17 0.120493 0.080590 0.119481
O O18 0.000000 0.500000 0.618755
#
# Coordination Sequence:
#
# PCOD8285254 Si02
#       8
#    32  32  16  32  16  16  32  16
#     4  10  23  39  63  91 122 157 207 258 315 379
#     4  11  23  39  63  91 123 164 208 251 302 363
#     4   9  19  39  63  89 120 158 194 249 315 375
#     4  11  24  39  61  90 125 165 207 251 304 363
#     4  10  21  38  58  92 128 161 204 251 304 358
#     4  10  21  38  58  90 128 165 204 251 304 359
#     4  11  21  38  63  91 118 158 205 256 306 372
#     4   9  18  35  59  88 124 153 192 248 312 374
#
# _framework density 19.956952999999999
#
# number of rings (size 3 to 8) (size 9 to 14) (size 15 to 20)
#    0.000    1.667    2.500    1.750    4.667    2.167 
#    0.000    0.000    0.000    3.000    0.000    0.000 
#    0.000    0.000    0.000    0.000    0.000    0.000 
#
# Total GULP energy -595240.785612 kJ/mol
# GULP energy per Si atom -12400.849700 kJ/mol
# Density = 1.991153 g / cm^3
# Si number density = 19.956953 Si / 1000 Ang^3
#
#
#
# Elastic Constant Matrix: (Units=GPa)
#
#
# Indices 1 2 3 4 5 6 
#
# 1 155.5999 58.7127 31.2976 0.0000 0.0000 0.0000
# 2 58.7127 102.4640 27.3138 0.0000 0.0000 0.0000
# 3 31.2976 27.3138 83.7452 0.0000 0.0000 0.0000
# 4 0.0000 0.0000 0.0000 28.6283 0.0000 0.0000
# 5 0.0000 0.0000 0.0000 0.0000 22.1858 0.0000
# 6 0.0000 0.0000 0.0000 0.0000 0.0000 26.1372
#
#
#
# Elastic Compliance Matrix: (Units=1/GPa)
#
#
# Indices 1 2 3 4 5 6 
#
# 1 0.008421 -0.004366 -0.001723 0.000000 0.000000 0.000000
# 2 -0.004366 0.012952 -0.002593 0.000000 0.000000 0.000000
# 3 -0.001723 -0.002593 0.013431 0.000000 0.000000 0.000000
# 4 0.000000 0.000000 0.000000 0.034930 0.000000 0.000000
# 5 0.000000 0.000000 0.000000 0.000000 0.045074 0.000000
# 6 0.000000 0.000000 0.000000 0.000000 0.000000 0.038260
#
#
# Mechanical properties :
#
#
# Convention : Reuss Voigt Hill
#
# Bulk Modulus (GPa) = 57.33893 64.05082 60.69488
# Shear Modulus (GPa) = 28.36970 30.35594 29.36282
#
# Velocity S-wave (km/s) = 3.77443 3.90432 3.83992
# Velocity P-wave (km/s) = 6.91294 7.24494 7.08089
#
# Compressibility (1/GPa) = 0.01744016
#
# Stress axis : x y z
#
# Youngs Moduli (GPa) = 118.75535 77.20619 74.45676
#
# Poissons Ratio (x) = 0.33707 0.12830
# Poissons Ratio (y) = 0.51846 0.19305
# Poissons Ratio (z) = 0.20463 0.20018
#
# Static dielectric constant tensor:
#      x y z
#    x 3.819560 0.000000 0.000000 
#    y 0.000000 3.689780 0.000000 
#    z 0.000000 0.000000 3.479310 
# 
# 
# High freq. dielectric constant tensor:
#      x y z
#    x 1.786320 0.000000 0.000000 
#    y 0.000000 1.779900 0.000000 
#    z 0.000000 0.000000 1.769750 
# 
# From -- ./inp_files/46456.got.cif
#   From: 2010.03.12/outbox.cif.g09.slc.cpg/sg69_24_cif.got.tgz:46456.got - 2010.04.10 23:52:46.
