data_PCOD8285459
_publ_section_title
;
Structure prediction by ZEFSAII (Michael W. Deem and Ramdas Pophale) SiO2 
 PCOD8285459
Probable space group: F M M M
;
_chemical_formula_sum "Si O2"
_cell_formula_units_Z 64
_cell_length_a 16.033138
_cell_length_b 8.325040
_cell_length_c 19.481044
_cell_angle_alpha 90.000000
_cell_angle_beta 90.000000
_cell_angle_gamma 90.000000
_cell_volume 2600.261865
_symmetry_space_group_name_H-M "F M M M"
_symmetry_group_IT_number 69
_symmetry_cell_setting 'orthorhombic'
loop_
_space_group_symop_operation_xyz
x,y,z
-x,-y,z
x,-y,-z
-x,y,-z
-x,-y,-z
x,y,-z
-x,y,z
x,-y,z
x,1/2+y,1/2+z
-x,1/2-y,1/2+z
x,1/2-y,1/2-z
-x,1/2+y,1/2-z
-x,1/2-y,1/2-z
x,1/2+y,1/2-z
-x,1/2+y,1/2+z
x,1/2-y,1/2+z
1/2+x,y,1/2+z
1/2-x,-y,1/2+z
1/2+x,-y,1/2-z
1/2-x,y,1/2-z
1/2-x,-y,1/2-z
1/2+x,y,1/2-z
1/2-x,y,1/2+z
1/2+x,-y,1/2+z
1/2+x,1/2+y,z
1/2-x,1/2-y,z
1/2+x,1/2-y,-z
1/2-x,1/2+y,-z
1/2-x,1/2-y,-z
1/2+x,1/2+y,-z
1/2-x,1/2+y,z
1/2+x,1/2-y,z
loop_
_atom_site_type_symbol
_atom_site_label
_atom_site_fract_x
_atom_site_fract_y
_atom_site_fract_z
Si Si1 0.712895 0.000000 0.420683
Si Si2 0.905009 0.178408 0.836114
Si Si3 0.829931 0.500000 0.200862
O O1 0.656711 0.159106 0.401585
O O2 0.735900 0.000000 0.500000
O O3 0.798167 0.000000 0.377815
O O4 0.883017 0.334100 0.790735
O O5 0.000000 0.192382 0.861343
O O6 0.893874 0.000000 0.795811
O O7 0.750000 0.500000 0.250000
#
# Coordination Sequence:
#
# PCOD8285459 Si02
#       3
#    16  32  16
#     4  10  23  45  71 103 140 183 242 301 357 423
#     4   9  22  44  69  98 137 187 235 292 357 426
#     4  12  25  42  69 108 142 187 239 299 356 429
#
# _framework density 24.612907
#
# number of rings (size 3 to 8) (size 9 to 14) (size 15 to 20)
#    1.500    0.500    0.000    2.250    0.000   11.000 
#    0.000    7.500    0.000    4.500    0.000    0.000 
#    0.000    0.000    0.000    0.000    0.000    0.000 
#
# Total GULP energy -198255.404042 kJ/mol
# GULP energy per Si atom -12390.962753 kJ/mol
# Density = 2.455689 g / cm^3
# Si number density = 24.612907 Si / 1000 Ang^3
#
#
#
# Elastic Constant Matrix: (Units=GPa)
#
#
# Indices 1 2 3 4 5 6 
#
# 1 118.8482 43.4839 20.7445 0.0000 0.0000 0.0000
# 2 43.4839 149.6879 74.5915 0.0000 0.0000 0.0000
# 3 20.7445 74.5915 148.4783 0.0000 0.0000 0.0000
# 4 0.0000 0.0000 0.0000 21.6659 0.0000 0.0000
# 5 0.0000 0.0000 0.0000 0.0000 23.3427 0.0000
# 6 0.0000 0.0000 0.0000 0.0000 0.0000 43.4796
#
#
#
# Elastic Compliance Matrix: (Units=1/GPa)
#
#
# Indices 1 2 3 4 5 6 
#
# 1 0.009415 -0.002774 0.000078 0.000000 0.000000 0.000000
# 2 -0.002774 0.009729 -0.004500 0.000000 0.000000 0.000000
# 3 0.000078 -0.004500 0.008985 0.000000 0.000000 0.000000
# 4 0.000000 0.000000 0.000000 0.046156 0.000000 0.000000
# 5 0.000000 0.000000 0.000000 0.000000 0.042840 0.000000
# 6 0.000000 0.000000 0.000000 0.000000 0.000000 0.022999
#
#
# Mechanical properties :
#
#
# Convention : Reuss Voigt Hill
#
# Bulk Modulus (GPa) = 72.79478 77.18378 74.98928
# Shear Modulus (GPa) = 31.42787 36.24395 33.83591
#
# Velocity S-wave (km/s) = 3.57723 3.84156 3.71175
# Velocity P-wave (km/s) = 6.83390 7.14870 6.99307
#
# Compressibility (1/GPa) = 0.01373725
#
# Stress axis : x y z
#
# Youngs Moduli (GPa) = 106.20860 102.78767 111.30040
#
# Poissons Ratio (x) = 0.28514 -0.00870
# Poissons Ratio (y) = 0.29463 0.50084
# Poissons Ratio (z) = -0.00830 0.46253
#
# Static dielectric constant tensor:
#      x y z
#    x 4.751440 0.000000 0.000000 
#    y 0.000000 5.143890 0.000000 
#    z 0.000000 0.000000 4.122130 
# 
# 
# High freq. dielectric constant tensor:
#      x y z
#    x 1.979800 0.000000 0.000000 
#    y 0.000000 2.013630 0.000000 
#    z 0.000000 0.000000 1.957800 
# 
# From -- ./inp_files/23797.got.cif
#   From: 2010.03.12/outbox.cif.g09.slc.cpg/sg69_12_cif.got.tgz:23797.got - 2010.04.10 23:52:46.
