data_PCOD8285924
_publ_section_title
;
Structure prediction by ZEFSAII (Michael W. Deem and Ramdas Pophale) SiO2 
 PCOD8285924
Probable space group: F D D D
;
_chemical_formula_sum "Si O2"
_cell_formula_units_Z 96
_cell_length_a 25.769194
_cell_length_b 18.032738
_cell_length_c 7.743280
_cell_angle_alpha 90.000000
_cell_angle_beta 90.000000
_cell_angle_gamma 90.000000
_cell_volume 3598.217999
_symmetry_space_group_name_H-M "F D D D"
_symmetry_group_IT_number 70
_space_group.IT_coordinate_system_code '2'
_symmetry_cell_setting 'orthorhombic'
loop_
_space_group_symop_operation_xyz
x,y,z
1/4-x,1/4-y,z
x,1/4-y,1/4-z
1/4-x,y,1/4-z
-x,-y,-z
3/4+x,3/4+y,-z
-x,3/4+y,3/4+z
3/4+x,-y,3/4+z
x,1/2+y,1/2+z
1/4-x,3/4-y,1/2+z
x,3/4-y,3/4-z
1/4-x,1/2+y,3/4-z
-x,1/2-y,1/2-z
3/4+x,1/4+y,1/2-z
-x,1/4+y,1/4+z
3/4+x,1/2-y,1/4+z
1/2+x,y,1/2+z
3/4-x,1/4-y,1/2+z
1/2+x,1/4-y,3/4-z
3/4-x,y,3/4-z
1/2-x,-y,1/2-z
1/4+x,3/4+y,1/2-z
1/2-x,3/4+y,1/4+z
1/4+x,-y,1/4+z
1/2+x,1/2+y,z
3/4-x,3/4-y,z
1/2+x,3/4-y,1/4-z
3/4-x,1/2+y,1/4-z
1/2-x,1/2-y,-z
1/4+x,1/4+y,-z
1/2-x,1/4+y,3/4+z
1/4+x,1/2-y,3/4+z
loop_
_atom_site_type_symbol
_atom_site_label
_atom_site_fract_x
_atom_site_fract_y
_atom_site_fract_z
Si Si1 0.558938 0.751584 0.449926
Si Si2 0.630071 0.875000 0.375000
Si Si3 0.057323 0.505136 0.710568
Si Si4 0.875000 0.375000 0.653532
O O1 0.591759 0.825285 0.496567
O O2 0.557689 0.739531 0.244344
O O3 0.501815 0.757817 0.531177
O O4 0.588838 0.678735 0.523181
O O5 0.666126 0.822045 0.261132
O O6 0.087794 0.574597 0.785352
#
# Coordination Sequence:
#
# PCOD8285924 Si02
#       4
#    32  16  32  16
#     4  10  21  35  63  83 116 156 202 245 302 358
#     4  10  20  38  58  90 118 146 200 256 302 344
#     4  10  21  36  61  87 115 155 199 252 299 357
#     4  10  19  38  58  85 110 147 202 248 286 357
#
# _framework density 26.679873000000001
#
# number of rings (size 3 to 8) (size 9 to 14) (size 15 to 20)
#    0.000    2.000    0.000    6.000    9.333    0.000 
#    0.000    6.667    0.000    0.000    0.000    0.000 
#    0.000    0.000    0.000    0.000    0.000    0.000 
#
# Total GULP energy -297530.130105 kJ/mol
# GULP energy per Si atom -12397.088754 kJ/mol
# Density = 2.661915 g / cm^3
# Si number density = 26.679873 Si / 1000 Ang^3
#
#
#
# Elastic Constant Matrix: (Units=GPa)
#
#
# Indices 1 2 3 4 5 6 
#
# 1 284.9541 126.2154 19.9693 -0.0010 0.0000 0.0005
# 2 126.2154 232.8821 9.5332 -0.0030 0.0002 0.0012
# 3 19.9693 9.5332 32.9752 -0.0058 0.0007 0.0020
# 4 -0.0010 -0.0030 -0.0058 22.8405 0.0003 0.0013
# 5 0.0000 0.0002 0.0007 0.0003 14.7984 -0.0002
# 6 0.0005 0.0012 0.0020 0.0013 -0.0002 10.1659
#
#
#
# Elastic Compliance Matrix: (Units=1/GPa)
#
#
# Indices 1 2 3 4 5 6 
#
# 1 0.004766 -0.002494 -0.002165 -0.000001 0.000000 0.000000
# 2 -0.002494 0.005651 -0.000123 0.000001 0.000000 0.000000
# 3 -0.002165 -0.000123 0.031673 0.000008 -0.000002 -0.000006
# 4 -0.000001 0.000001 0.000008 0.043782 -0.000001 -0.000006
# 5 0.000000 0.000000 -0.000002 -0.000001 0.067575 0.000001
# 6 0.000000 0.000000 -0.000006 -0.000006 0.000001 0.098368
#
#
# Mechanical properties :
#
#
# Convention : Reuss Voigt Hill
#
# Bulk Modulus (GPa) = 30.74623 95.80525 63.27574
# Shear Modulus (GPa) = 18.36748 35.90054 27.13401
#
# Velocity S-wave (km/s) = 2.62666 3.67223 3.19254
# Velocity P-wave (km/s) = 4.55503 7.34626 6.11211
#
# Compressibility (1/GPa) = 0.03252431
#
# Stress axis : x y z
#
# Youngs Moduli (GPa) = 209.82453 176.96228 31.57307
#
# Poissons Ratio (x) = 0.44141 0.06836
# Poissons Ratio (y) = 0.52337 0.00389
# Poissons Ratio (z) = 0.45428 0.02179
#
# Static dielectric constant tensor:
#      x y z
#    x 6.013370 0.000000 0.000000 
#    y 0.000000 5.433200 0.000000 
#    z 0.000000 0.000000 4.276140 
# 
# 
# High freq. dielectric constant tensor:
#      x y z
#    x 2.095450 0.000000 0.000000 
#    y 0.000000 2.099320 0.000000 
#    z 0.000000 0.000000 2.047230 
# 
# From -- ./inp_files/10350.got.cif
#   From: 2010.03.12/outbox.cif.g09.slc.cpg/sg70_6_cif.got.tgz:10350.got - 2010.04.16 13:46:32.
