data_PCOD8285365
_publ_section_title
;
Structure prediction by ZEFSAII (Michael W. Deem and Ramdas Pophale) SiO2 
 PCOD8285365
Probable space group: F M M M
;
_chemical_formula_sum "Si O2"
_cell_formula_units_Z 192
_cell_length_a 17.860955
_cell_length_b 19.909466
_cell_length_c 26.260715
_cell_angle_alpha 90.000000
_cell_angle_beta 90.000000
_cell_angle_gamma 90.000000
_cell_volume 9338.364779
_symmetry_space_group_name_H-M "F M M M"
_symmetry_group_IT_number 69
_symmetry_cell_setting 'orthorhombic'
loop_
_space_group_symop_operation_xyz
x,y,z
-x,-y,z
x,-y,-z
-x,y,-z
-x,-y,-z
x,y,-z
-x,y,z
x,-y,z
x,1/2+y,1/2+z
-x,1/2-y,1/2+z
x,1/2-y,1/2-z
-x,1/2+y,1/2-z
-x,1/2-y,1/2-z
x,1/2+y,1/2-z
-x,1/2+y,1/2+z
x,1/2-y,1/2+z
1/2+x,y,1/2+z
1/2-x,-y,1/2+z
1/2+x,-y,1/2-z
1/2-x,y,1/2-z
1/2-x,-y,1/2-z
1/2+x,y,1/2-z
1/2-x,y,1/2+z
1/2+x,-y,1/2+z
1/2+x,1/2+y,z
1/2-x,1/2-y,z
1/2+x,1/2-y,-z
1/2-x,1/2+y,-z
1/2-x,1/2-y,-z
1/2+x,1/2+y,-z
1/2-x,1/2+y,z
1/2+x,1/2-y,z
loop_
_atom_site_type_symbol
_atom_site_label
_atom_site_fract_x
_atom_site_fract_y
_atom_site_fract_z
Si Si1 0.315418 0.420770 0.683615
Si Si2 0.917655 0.369799 0.098264
Si Si3 0.667261 0.119435 0.629414
Si Si4 0.127019 0.500000 0.944815
Si Si5 0.416167 0.079596 0.724655
Si Si6 0.208467 0.500000 0.438889
Si Si7 0.663142 0.241239 0.556356
O O1 0.296372 0.500000 0.684991
O O2 0.385733 0.402836 0.648966
O O3 0.243542 0.379441 0.663350
O O4 0.347234 0.396629 0.738766
O O5 0.922591 0.433615 0.060953
O O6 0.867747 0.312708 0.073685
O O7 0.000000 0.340437 0.108362
O O8 0.599267 0.106088 0.667828
O O9 0.669213 0.065497 0.584034
O O10 0.647489 0.188679 0.601207
O O11 0.206640 0.500000 0.914326
O O12 0.162357 0.500000 0.000000
O O13 0.500000 0.104954 0.740837
O O14 0.415907 0.000000 0.724551
O O15 0.199492 0.500000 0.500000
O O16 0.629822 0.221835 0.500000
O O17 0.750000 0.250000 0.549343
#
# Coordination Sequence:
#
# PCOD8285365 Si02
#       7
#    32  32  32  16  32  16  32
#     4  11  20  38  64 100 127 162 205 259 320 384
#     4  12  23  38  61  92 129 166 208 259 319 384
#     4  12  20  39  66  92 121 168 218 262 310 373
#     4  11  21  36  58  89 130 164 200 254 319 381
#     4  10  22  38  62  95 132 166 204 261 326 380
#     4  11  20  35  61  96 126 158 214 271 311 360
#     4  11  24  42  62  86 124 172 216 258 313 378
#
# _framework density 20.560344000000001
#
# number of rings (size 3 to 8) (size 9 to 14) (size 15 to 20)
#    0.000    0.833    5.833    2.250    0.000    7.000 
#    0.000    0.833    0.000    4.000    0.000    0.000 
#    0.000    0.000    0.000    0.000    0.000    0.000 
#
# Total GULP energy -594771.691301 kJ/mol
# GULP energy per Si atom -12391.076902 kJ/mol
# Density = 2.051355 g / cm^3
# Si number density = 20.560344 Si / 1000 Ang^3
#
#
#
# Elastic Constant Matrix: (Units=GPa)
#
#
# Indices 1 2 3 4 5 6 
#
# 1 64.4628 35.7340 18.8900 0.0000 0.0000 0.0000
# 2 35.7340 93.1586 32.3986 0.0000 0.0000 0.0000
# 3 18.8900 32.3986 104.7383 0.0000 0.0000 0.0000
# 4 0.0000 0.0000 0.0000 -13.4671 0.0000 0.0000
# 5 0.0000 0.0000 0.0000 0.0000 1097.2027 0.0000
# 6 0.0000 0.0000 0.0000 0.0000 0.0000 42.3491
#
#
#
# Elastic Compliance Matrix: (Units=1/GPa)
#
#
# Indices 1 2 3 4 5 6 
#
# 1 0.019877 -0.007147 -0.001374 0.000000 0.000000 0.000000
# 2 -0.007147 0.014598 -0.003227 0.000000 0.000000 0.000000
# 3 -0.001374 -0.003227 0.010794 0.000000 0.000000 0.000000
# 4 0.000000 0.000000 0.000000 -0.074255 0.000000 0.000000
# 5 0.000000 0.000000 0.000000 0.000000 0.000911 0.000000
# 6 0.000000 0.000000 0.000000 0.000000 0.000000 0.023613
#
#
# Mechanical properties :
#
#
# Convention : Reuss Voigt Hill
#
# Bulk Modulus (GPa) = 45.92726 48.48944 47.20835
# Shear Modulus (GPa) = 190.17891 236.90607 213.54249
#
# Velocity S-wave (km/s) = 9.62802 10.74592 10.20229
# Velocity P-wave (km/s) = 12.08241 13.32673 12.71979
#
# Compressibility (1/GPa) = 0.02177356
#
# Stress axis : x y z
#
# Youngs Moduli (GPa) = 50.30909 68.50338 92.64789
#
# Poissons Ratio (x) = 0.48956 0.12733
# Poissons Ratio (y) = 0.35954 0.29894
# Poissons Ratio (z) = 0.06914 0.22103
#
# Static dielectric constant tensor:
#      x y z
#    x 188.144320 0.000000 0.000000 
#    y 0.000000 3.656320 0.000000 
#    z 0.000000 0.000000 4.066040 
# 
# 
# High freq. dielectric constant tensor:
#      x y z
#    x 1.794830 0.000000 0.000000 
#    y 0.000000 1.776140 0.000000 
#    z 0.000000 0.000000 1.823800 
# 
# From -- ./inp_files/46424.got.cif
#   From: 2010.03.12/outbox.cif.g09.slc.cpg/sg69_24_cif.got.tgz:46424.got - 2010.04.10 23:52:46.
