data_PCOD8285192
_publ_section_title
;
Structure prediction by ZEFSAII (Michael W. Deem and Ramdas Pophale) SiO2 
 PCOD8285192
Probable space group: F M M M
;
_chemical_formula_sum "Si O2"
_cell_formula_units_Z 208
_cell_length_a 23.429734
_cell_length_b 25.249041
_cell_length_c 16.703849
_cell_angle_alpha 90.000000
_cell_angle_beta 90.000000
_cell_angle_gamma 90.000000
_cell_volume 9881.634835
_symmetry_space_group_name_H-M "F M M M"
_symmetry_group_IT_number 69
_symmetry_cell_setting 'orthorhombic'
loop_
_space_group_symop_operation_xyz
x,y,z
-x,-y,z
x,-y,-z
-x,y,-z
-x,-y,-z
x,y,-z
-x,y,z
x,-y,z
x,1/2+y,1/2+z
-x,1/2-y,1/2+z
x,1/2-y,1/2-z
-x,1/2+y,1/2-z
-x,1/2-y,1/2-z
x,1/2+y,1/2-z
-x,1/2+y,1/2+z
x,1/2-y,1/2+z
1/2+x,y,1/2+z
1/2-x,-y,1/2+z
1/2+x,-y,1/2-z
1/2-x,y,1/2-z
1/2-x,-y,1/2-z
1/2+x,y,1/2-z
1/2-x,y,1/2+z
1/2+x,-y,1/2+z
1/2+x,1/2+y,z
1/2-x,1/2-y,z
1/2+x,1/2-y,-z
1/2-x,1/2+y,-z
1/2-x,1/2-y,-z
1/2+x,1/2+y,-z
1/2-x,1/2+y,z
1/2+x,1/2-y,z
loop_
_atom_site_type_symbol
_atom_site_label
_atom_site_fract_x
_atom_site_fract_y
_atom_site_fract_z
Si Si1 0.067529 0.440423 0.000000
Si Si2 0.934767 0.102980 0.668182
Si Si3 0.062959 0.688388 0.407337
Si Si4 0.387758 0.284706 0.670890
Si Si5 0.775472 0.841954 0.670247
Si Si6 0.166128 0.440667 0.748390
Si Si7 0.831228 0.881556 0.092703
O O1 0.088419 0.408500 0.078193
O O2 0.093453 0.500000 0.000000
O O3 0.000000 0.443793 0.000000
O O4 0.927073 0.164719 0.689717
O O5 0.900348 0.066176 0.729752
O O6 0.000000 0.086192 0.677353
O O7 0.057285 0.677531 0.500000
O O8 0.080991 0.749416 0.395469
O O9 0.113400 0.650684 0.374868
O O10 0.000000 0.677174 0.367879
O O11 0.380794 0.250000 0.750000
O O12 0.326449 0.304978 0.638106
O O13 0.750000 0.814619 0.750000
O O14 0.797872 0.900284 0.696742
O O15 0.726318 0.846209 0.602722
O O16 0.186920 0.500000 0.767048
O O17 0.174026 0.430865 0.653051
O O18 0.836921 0.899309 0.000000
#
# Coordination Sequence:
#
# PCOD8285192 Si02
#       7
#    16  32  32  32  32  32  32
#     4   9  18  34  56  82 116 157 202 252 302 355
#     4  10  21  36  58  87 123 164 204 245 297 361
#     4  10  22  38  56  79 113 153 189 230 285 340
#     4  11  22  35  56  87 118 153 198 241 287 349
#     4   9  20  38  58  82 113 151 190 240 293 348
#     4  10  21  38  60  87 118 152 194 245 302 359
#     4  10  22  40  61  86 116 153 198 247 295 352
#
# _framework density 21.049147999999999
#
# number of rings (size 3 to 8) (size 9 to 14) (size 15 to 20)
#    0.000    2.077    0.000    3.692    1.077    9.846 
#    4.154    1.538    0.000    0.000    0.000    3.231 
#    0.000    0.000    0.000    0.000    0.000    0.000 
#
# Total GULP energy -644537.216130 kJ/mol
# GULP energy per Si atom -12394.946464 kJ/mol
# Density = 2.100124 g / cm^3
# Si number density = 21.049148 Si / 1000 Ang^3
#
#
#
# Elastic Constant Matrix: (Units=GPa)
#
#
# Indices 1 2 3 4 5 6 
#
# 1 140.0835 28.9874 31.2421 0.0000 0.0000 0.0000
# 2 28.9874 97.7614 20.9575 0.0000 0.0000 0.0000
# 3 31.2421 20.9575 77.3113 0.0000 0.0000 0.0000
# 4 0.0000 0.0000 0.0000 26.4034 0.0000 0.0000
# 5 0.0000 0.0000 0.0000 0.0000 31.5960 0.0000
# 6 0.0000 0.0000 0.0000 0.0000 0.0000 2.2493
#
#
#
# Elastic Compliance Matrix: (Units=1/GPa)
#
#
# Indices 1 2 3 4 5 6 
#
# 1 0.008138 -0.001813 -0.002797 0.000000 0.000000 0.000000
# 2 -0.001813 0.011264 -0.002321 0.000000 0.000000 0.000000
# 3 -0.002797 -0.002321 0.014694 0.000000 0.000000 0.000000
# 4 0.000000 0.000000 0.000000 0.037874 0.000000 0.000000
# 5 0.000000 0.000000 0.000000 0.000000 0.031650 0.000000
# 6 0.000000 0.000000 0.000000 0.000000 0.000000 0.444580
#
#
# Mechanical properties :
#
#
# Convention : Reuss Voigt Hill
#
# Bulk Modulus (GPa) = 49.42186 53.05890 51.24038
# Shear Modulus (GPa) = 8.79035 27.64770 18.21902
#
# Velocity S-wave (km/s) = 2.04577 3.62813 2.94521
# Velocity P-wave (km/s) = 5.39541 6.54316 5.99681
#
# Compressibility (1/GPa) = 0.02023396
#
# Stress axis : x y z
#
# Youngs Moduli (GPa) = 122.88627 88.77723 68.05470
#
# Poissons Ratio (x) = 0.16098 0.19034
# Poissons Ratio (y) = 0.22283 0.15794
# Poissons Ratio (z) = 0.34370 0.20603
#
# Static dielectric constant tensor:
#      x y z
#    x 4.306190 0.000000 0.000000 
#    y 0.000000 3.680300 0.000000 
#    z 0.000000 0.000000 3.666160 
# 
# 
# High freq. dielectric constant tensor:
#      x y z
#    x 1.840070 0.000000 0.000000 
#    y 0.000000 1.806220 0.000000 
#    z 0.000000 0.000000 1.809160 
# 
# From -- ./inp_files/26109.got.cif
#   From: 2010.03.12/outbox.cif.g09.slc.cpg/sg69_14_cif.got.tgz:26109.got - 2010.04.10 23:52:46.
