data_PCOD8285357
_publ_section_title
;
Structure prediction by ZEFSAII (Michael W. Deem and Ramdas Pophale) SiO2 
 PCOD8285357
Probable space group: F M M M
;
_chemical_formula_sum "Si O2"
_cell_formula_units_Z 192
_cell_length_a 27.804159
_cell_length_b 14.235099
_cell_length_c 24.229775
_cell_angle_alpha 90.000000
_cell_angle_beta 90.000000
_cell_angle_gamma 90.000000
_cell_volume 9590.022729
_symmetry_space_group_name_H-M "F M M M"
_symmetry_group_IT_number 69
_symmetry_cell_setting 'orthorhombic'
loop_
_space_group_symop_operation_xyz
x,y,z
-x,-y,z
x,-y,-z
-x,y,-z
-x,-y,-z
x,y,-z
-x,y,z
x,-y,z
x,1/2+y,1/2+z
-x,1/2-y,1/2+z
x,1/2-y,1/2-z
-x,1/2+y,1/2-z
-x,1/2-y,1/2-z
x,1/2+y,1/2-z
-x,1/2+y,1/2+z
x,1/2-y,1/2+z
1/2+x,y,1/2+z
1/2-x,-y,1/2+z
1/2+x,-y,1/2-z
1/2-x,y,1/2-z
1/2-x,-y,1/2-z
1/2+x,y,1/2-z
1/2-x,y,1/2+z
1/2+x,-y,1/2+z
1/2+x,1/2+y,z
1/2-x,1/2-y,z
1/2+x,1/2-y,-z
1/2-x,1/2+y,-z
1/2-x,1/2-y,-z
1/2+x,1/2+y,-z
1/2-x,1/2+y,z
1/2+x,1/2-y,z
loop_
_atom_site_type_symbol
_atom_site_label
_atom_site_fract_x
_atom_site_fract_y
_atom_site_fract_z
Si Si1 0.346941 0.000000 0.934734
Si Si2 0.097687 0.107797 0.248200
Si Si3 0.612329 0.802405 0.063890
Si Si4 0.703402 0.190836 0.398583
Si Si5 0.556496 0.749485 0.333533
Si Si6 0.202897 0.392843 0.283694
Si Si7 0.240917 0.000000 0.063109
O O1 0.375920 0.907964 0.915707
O O2 0.293502 0.000000 0.906614
O O3 0.342405 0.000000 0.000000
O O4 0.081258 0.157316 0.191303
O O5 0.073865 0.157872 0.300386
O O6 0.155580 0.114596 0.254458
O O7 0.080614 0.000000 0.246446
O O8 0.659084 0.739263 0.071657
O O9 0.569823 0.762064 0.102142
O O10 0.595735 0.799349 0.000000
O O11 0.750000 0.250000 0.413738
O O12 0.696304 0.181357 0.332982
O O13 0.708396 0.088161 0.423098
O O14 0.500000 0.760472 0.327377
O O15 0.209040 0.500000 0.306173
O O16 0.250000 0.362779 0.250000
O O17 0.254355 0.000000 0.000000
#
# Coordination Sequence:
#
# PCOD8285357 Si02
#       7
#    16  32  32  32  32  32  16
#     4   9  20  38  59  87 123 162 207 251 300 366
#     4  10  22  42  67  94 127 166 207 256 316 380
#     4  11  24  43  65  92 126 166 209 260 319 375
#     4  12  23  36  61  89 125 167 208 249 298 364
#     4  11  25  43  66  94 120 158 215 270 324 380
#     4  10  22  38  59  91 129 166 201 243 302 368
#     4  11  22  36  57  86 123 166 211 248 287 358
#
# _framework density 20.020807000000001
#
# number of rings (size 3 to 8) (size 9 to 14) (size 15 to 20)
#    0.000    1.333    4.167    1.500    3.500    2.667 
#    0.000    0.000    0.000    1.500    0.000    1.167 
#    0.000    0.000    0.000    0.000    0.000    0.000 
#
# Total GULP energy -595305.934704 kJ/mol
# GULP energy per Si atom -12402.206973 kJ/mol
# Density = 1.997524 g / cm^3
# Si number density = 20.020807 Si / 1000 Ang^3
#
#
#
# Elastic Constant Matrix: (Units=GPa)
#
#
# Indices 1 2 3 4 5 6 
#
# 1 114.8642 33.8034 29.8786 0.0000 0.0000 0.0000
# 2 33.8034 128.9539 30.8432 0.0000 0.0000 0.0000
# 3 29.8786 30.8432 88.0800 0.0000 0.0000 0.0000
# 4 0.0000 0.0000 0.0000 18.1785 0.0000 0.0000
# 5 0.0000 0.0000 0.0000 0.0000 24.5611 0.0000
# 6 0.0000 0.0000 0.0000 0.0000 0.0000 17.8989
#
#
#
# Elastic Compliance Matrix: (Units=1/GPa)
#
#
# Indices 1 2 3 4 5 6 
#
# 1 0.009988 -0.001973 -0.002697 0.000000 0.000000 0.000000
# 2 -0.001973 0.008853 -0.002431 0.000000 0.000000 0.000000
# 3 -0.002697 -0.002431 0.013120 0.000000 0.000000 0.000000
# 4 0.000000 0.000000 0.000000 0.055010 0.000000 0.000000
# 5 0.000000 0.000000 0.000000 0.000000 0.040715 0.000000
# 6 0.000000 0.000000 0.000000 0.000000 0.000000 0.055869
#
#
# Mechanical properties :
#
#
# Convention : Reuss Voigt Hill
#
# Bulk Modulus (GPa) = 56.31099 57.88316 57.09707
# Shear Modulus (GPa) = 24.54862 27.95256 26.25059
#
# Velocity S-wave (km/s) = 3.50545 3.74060 3.62493
# Velocity P-wave (km/s) = 6.67619 6.90147 6.78977
#
# Compressibility (1/GPa) = 0.01775852
#
# Stress axis : x y z
#
# Youngs Moduli (GPa) = 100.11791 112.95150 76.22239
#
# Poissons Ratio (x) = 0.22287 0.20559
# Poissons Ratio (y) = 0.19755 0.18529
# Poissons Ratio (z) = 0.27005 0.27457
#
# Static dielectric constant tensor:
#      x y z
#    x 3.215910 0.000000 0.000000 
#    y 0.000000 3.798680 0.000000 
#    z 0.000000 0.000000 3.599420 
# 
# 
# High freq. dielectric constant tensor:
#      x y z
#    x 1.768600 0.000000 0.000000 
#    y 0.000000 1.793200 0.000000 
#    z 0.000000 0.000000 1.774250 
# 
# From -- ./inp_files/38392.got.cif
#   From: 2010.03.12/outbox.cif.g09.slc.cpg/sg69_20_cif.got.tgz:38392.got - 2010.04.10 23:52:46.
