data_PCOD8285209
_publ_section_title
;
Structure prediction by ZEFSAII (Michael W. Deem and Ramdas Pophale) SiO2 
 PCOD8285209
Probable space group: F M M M
;
_chemical_formula_sum "Si O2"
_cell_formula_units_Z 112
_cell_length_a 13.901391
_cell_length_b 24.261710
_cell_length_c 17.341108
_cell_angle_alpha 90.000000
_cell_angle_beta 90.000000
_cell_angle_gamma 90.000000
_cell_volume 5848.661802
_symmetry_space_group_name_H-M "F M M M"
_symmetry_group_IT_number 69
_symmetry_cell_setting 'orthorhombic'
loop_
_space_group_symop_operation_xyz
x,y,z
-x,-y,z
x,-y,-z
-x,y,-z
-x,-y,-z
x,y,-z
-x,y,z
x,-y,z
x,1/2+y,1/2+z
-x,1/2-y,1/2+z
x,1/2-y,1/2-z
-x,1/2+y,1/2-z
-x,1/2-y,1/2-z
x,1/2+y,1/2-z
-x,1/2+y,1/2+z
x,1/2-y,1/2+z
1/2+x,y,1/2+z
1/2-x,-y,1/2+z
1/2+x,-y,1/2-z
1/2-x,y,1/2-z
1/2-x,-y,1/2-z
1/2+x,y,1/2-z
1/2-x,y,1/2+z
1/2+x,-y,1/2+z
1/2+x,1/2+y,z
1/2-x,1/2-y,z
1/2+x,1/2-y,-z
1/2-x,1/2+y,-z
1/2-x,1/2-y,-z
1/2+x,1/2+y,-z
1/2-x,1/2+y,z
1/2+x,1/2-y,z
loop_
_atom_site_type_symbol
_atom_site_label
_atom_site_fract_x
_atom_site_fract_y
_atom_site_fract_z
Si Si1 0.389278 0.765735 0.338428
Si Si2 0.106115 0.500000 0.408985
Si Si3 0.235739 0.939382 0.662468
Si Si4 0.720200 0.330009 0.590241
O O1 0.500000 0.783033 0.352346
O O2 0.370235 0.750000 0.250000
O O3 0.364261 0.712911 0.390996
O O4 0.318472 0.815316 0.363446
O O5 0.106650 0.500000 0.500000
O O6 0.159468 0.445420 0.377415
O O7 0.000000 0.500000 0.374409
O O8 0.250000 0.921279 0.750000
O O9 0.181987 0.890362 0.617195
O O10 0.182350 0.000000 0.656977
O O11 0.742200 0.329394 0.500000
#
# Coordination Sequence:
#
# PCOD8285209 Si02
#       4
#    32  16  32  32
#     4  10  21  37  57  80 108 144 185 226 268 323
#     4   9  17  30  50  78 107 131 164 216 270 313
#     4   9  19  35  54  74 106 146 180 212 259 323
#     4  11  21  34  57  82 111 145 177 226 277 322
#
# _framework density 19.14968
#
# number of rings (size 3 to 8) (size 9 to 14) (size 15 to 20)
#    0.857    1.286    0.000    6.000    0.000    3.429 
#    0.000    1.429    0.000    0.000    0.000    2.000 
#    0.000    0.000    0.000    0.000    0.000    0.000 
#
# Total GULP energy -346937.904498 kJ/mol
# GULP energy per Si atom -12390.639446 kJ/mol
# Density = 1.910609 g / cm^3
# Si number density = 19.149680 Si / 1000 Ang^3
#
#
#
# Elastic Constant Matrix: (Units=GPa)
#
#
# Indices 1 2 3 4 5 6 
#
# 1 48.7080 -3.2108 19.6121 0.0000 0.0000 0.0000
# 2 -3.2108 105.5098 29.9093 0.0000 0.0000 0.0000
# 3 19.6121 29.9093 121.5104 0.0000 0.0000 0.0000
# 4 0.0000 0.0000 0.0000 25.9595 0.0000 0.0000
# 5 0.0000 0.0000 0.0000 0.0000 24.6601 0.0000
# 6 0.0000 0.0000 0.0000 0.0000 0.0000 13.7584
#
#
#
# Elastic Compliance Matrix: (Units=1/GPa)
#
#
# Indices 1 2 3 4 5 6 
#
# 1 0.022280 0.001825 -0.004045 0.000000 0.000000 0.000000
# 2 0.001825 0.010338 -0.002839 0.000000 0.000000 0.000000
# 3 -0.004045 -0.002839 0.009582 0.000000 0.000000 0.000000
# 4 0.000000 0.000000 0.000000 0.038521 0.000000 0.000000
# 5 0.000000 0.000000 0.000000 0.000000 0.040551 0.000000
# 6 0.000000 0.000000 0.000000 0.000000 0.000000 0.072683
#
#
# Mechanical properties :
#
#
# Convention : Reuss Voigt Hill
#
# Bulk Modulus (GPa) = 31.17216 40.92772 36.04994
# Shear Modulus (GPa) = 23.28101 28.17011 25.72556
#
# Velocity S-wave (km/s) = 3.49053 3.83959 3.66921
# Velocity P-wave (km/s) = 5.70601 6.40902 6.06770
#
# Compressibility (1/GPa) = 0.03207991
#
# Stress axis : x y z
#
# Youngs Moduli (GPa) = 44.88423 96.72898 104.36779
#
# Poissons Ratio (x) = -0.17650 0.42218
# Poissons Ratio (y) = -0.08190 0.29632
# Poissons Ratio (z) = 0.18156 0.27463
#
# Static dielectric constant tensor:
#      x y z
#    x 3.292080 0.000000 0.000000 
#    y 0.000000 3.529750 0.000000 
#    z 0.000000 0.000000 3.536650 
# 
# 
# High freq. dielectric constant tensor:
#      x y z
#    x 1.701920 0.000000 0.000000 
#    y 0.000000 1.746640 0.000000 
#    z 0.000000 0.000000 1.761950 
# 
# From -- ./inp_files/14289.got.cif
#   From: 2010.03.12/outbox.cif.g09.slc.cpg/sg69_8_cif.got.tgz:14289.got - 2010.04.10 23:52:46.
