data_PCOD8285066
_publ_section_title
;
Structure prediction by ZEFSAII (Michael W. Deem and Ramdas Pophale) SiO2 
 PCOD8285066
Probable space group: F M M M
;
_chemical_formula_sum "Si O2"
_cell_formula_units_Z 128
_cell_length_a 28.632104
_cell_length_b 7.429422
_cell_length_c 29.800563
_cell_angle_alpha 90.000000
_cell_angle_beta 90.000000
_cell_angle_gamma 90.000000
_cell_volume 6339.175266
_symmetry_space_group_name_H-M "F M M M"
_symmetry_group_IT_number 69
_symmetry_cell_setting 'orthorhombic'
loop_
_space_group_symop_operation_xyz
x,y,z
-x,-y,z
x,-y,-z
-x,y,-z
-x,-y,-z
x,y,-z
-x,y,z
x,-y,z
x,1/2+y,1/2+z
-x,1/2-y,1/2+z
x,1/2-y,1/2-z
-x,1/2+y,1/2-z
-x,1/2-y,1/2-z
x,1/2+y,1/2-z
-x,1/2+y,1/2+z
x,1/2-y,1/2+z
1/2+x,y,1/2+z
1/2-x,-y,1/2+z
1/2+x,-y,1/2-z
1/2-x,y,1/2-z
1/2-x,-y,1/2-z
1/2+x,y,1/2-z
1/2-x,y,1/2+z
1/2+x,-y,1/2+z
1/2+x,1/2+y,z
1/2-x,1/2-y,z
1/2+x,1/2-y,-z
1/2-x,1/2+y,-z
1/2-x,1/2-y,-z
1/2+x,1/2+y,-z
1/2-x,1/2+y,z
1/2+x,1/2-y,z
loop_
_atom_site_type_symbol
_atom_site_label
_atom_site_fract_x
_atom_site_fract_y
_atom_site_fract_z
Si Si1 0.948697 0.290953 0.661163
Si Si2 0.051545 0.500000 0.913641
Si Si3 0.149910 0.500000 0.051016
Si Si4 0.645561 0.207749 0.299472
Si Si5 0.804266 0.711368 0.612895
O O1 0.942481 0.500000 0.648349
O O2 0.908301 0.225664 0.695643
O O3 0.000000 0.255156 0.682875
O O4 0.943193 0.179267 0.615914
O O5 0.093325 0.500000 0.949315
O O6 0.000000 0.500000 0.936823
O O7 0.169005 0.680173 0.074377
O O8 0.167487 0.500000 0.000000
O O9 0.664993 0.250000 0.250000
O O10 0.677945 0.289422 0.338792
O O11 0.647783 0.000000 0.307583
O O12 0.814780 0.500000 0.606203
O O13 0.750000 0.750000 0.609361
#
# Coordination Sequence:
#
# PCOD8285066 Si02
#       5
#    32  16  16  32  32
#     4   9  18  34  55  83 121 164 207 255 310 364
#     4  10  20  37  66  91 121 166 206 254 312 369
#     4  12  26  43  70  96 126 167 204 262 326 374
#     4  10  22  35  58  89 122 167 211 254 308 370
#     4  11  24  45  66  91 128 165 208 265 317 372
#
# _framework density 20.191901000000001
#
# number of rings (size 3 to 8) (size 9 to 14) (size 15 to 20)
#    0.000    1.750    3.750    0.000    3.500    2.250 
#    0.000    2.500    0.000    0.000    0.000    5.250 
#    0.000    0.000    0.000    0.000    0.000    0.000 
#
# Total GULP energy -396583.515616 kJ/mol
# GULP energy per Si atom -12393.234863 kJ/mol
# Density = 2.014594 g / cm^3
# Si number density = 20.191901 Si / 1000 Ang^3
#
#
#
# Elastic Constant Matrix: (Units=GPa)
#
#
# Indices 1 2 3 4 5 6 
#
# 1 136.0134 29.7166 58.4960 -0.0008 0.0001 0.0003
# 2 29.7166 87.7446 34.7691 -0.0017 0.0002 -0.0023
# 3 58.4960 34.7691 137.4026 0.0001 -0.0001 -0.0003
# 4 -0.0008 -0.0017 0.0001 21.1864 -0.0001 0.0003
# 5 0.0001 0.0002 -0.0001 -0.0001 13.6767 0.0000
# 6 0.0003 -0.0023 -0.0003 0.0003 0.0000 6.4169
#
#
#
# Elastic Compliance Matrix: (Units=1/GPa)
#
#
# Indices 1 2 3 4 5 6 
#
# 1 0.009234 -0.001745 -0.003490 0.000000 0.000000 -0.000001
# 2 -0.001745 0.012996 -0.002546 0.000001 0.000000 0.000005
# 3 -0.003490 -0.002546 0.009408 0.000000 0.000000 0.000000
# 4 0.000000 0.000001 0.000000 0.047200 0.000000 -0.000002
# 5 0.000000 0.000000 0.000000 0.000000 0.073117 0.000000
# 6 -0.000001 0.000005 0.000000 -0.000002 0.000000 0.155837
#
#
# Mechanical properties :
#
#
# Convention : Reuss Voigt Hill
#
# Bulk Modulus (GPa) = 62.19749 67.45821 64.82785
# Shear Modulus (GPa) = 15.21084 24.13460 19.67272
#
# Velocity S-wave (km/s) = 2.74763 3.46101 3.12474
# Velocity P-wave (km/s) = 6.39813 7.03225 6.72267
#
# Compressibility (1/GPa) = 0.01607782
#
# Stress axis : x y z
#
# Youngs Moduli (GPa) = 108.29243 76.94444 106.29422
#
# Poissons Ratio (x) = 0.13423 0.37095
# Poissons Ratio (y) = 0.18892 0.27062
# Poissons Ratio (z) = 0.37792 0.19590
#
# Static dielectric constant tensor:
#      x y z
#    x 4.182350 0.000000 -0.000010 
#    y 0.000000 3.777220 0.000010 
#    z -0.000010 0.000010 -0.734370 
# 
# 
# High freq. dielectric constant tensor:
#      x y z
#    x 1.805330 0.000000 0.000000 
#    y 0.000000 1.798440 0.000000 
#    z 0.000000 0.000000 1.750530 
# 
# From -- ./inp_files/5352.got.cif
#   From: 2010.03.12/outbox.cif.g09.slc.cpg/sg69_3_cif.got.tgz:5352.got - 2010.04.10 23:52:46.
