data_PCOD8285583
_publ_section_title
;
Structure prediction by ZEFSAII (Michael W. Deem and Ramdas Pophale) SiO2 
 PCOD8285583
Probable space group: F M M M
;
_chemical_formula_sum "Si O2"
_cell_formula_units_Z 160
_cell_length_a 24.936399
_cell_length_b 19.757456
_cell_length_c 19.605662
_cell_angle_alpha 90.000000
_cell_angle_beta 90.000000
_cell_angle_gamma 90.000000
_cell_volume 9659.313751
_symmetry_space_group_name_H-M "F M M M"
_symmetry_group_IT_number 69
_symmetry_cell_setting 'orthorhombic'
loop_
_space_group_symop_operation_xyz
x,y,z
-x,-y,z
x,-y,-z
-x,y,-z
-x,-y,-z
x,y,-z
-x,y,z
x,-y,z
x,1/2+y,1/2+z
-x,1/2-y,1/2+z
x,1/2-y,1/2-z
-x,1/2+y,1/2-z
-x,1/2-y,1/2-z
x,1/2+y,1/2-z
-x,1/2+y,1/2+z
x,1/2-y,1/2+z
1/2+x,y,1/2+z
1/2-x,-y,1/2+z
1/2+x,-y,1/2-z
1/2-x,y,1/2-z
1/2-x,-y,1/2-z
1/2+x,y,1/2-z
1/2-x,y,1/2+z
1/2+x,-y,1/2+z
1/2+x,1/2+y,z
1/2-x,1/2-y,z
1/2+x,1/2-y,-z
1/2-x,1/2+y,-z
1/2-x,1/2-y,-z
1/2+x,1/2+y,-z
1/2-x,1/2+y,z
1/2+x,1/2-y,z
loop_
_atom_site_type_symbol
_atom_site_label
_atom_site_fract_x
_atom_site_fract_y
_atom_site_fract_z
Si Si1 0.500000 0.702988 0.650360
Si Si2 0.000000 0.648112 0.710567
Si Si3 0.223948 0.820319 0.579466
Si Si4 0.115804 0.292520 0.854276
Si Si5 0.722463 0.421483 0.180380
Si Si6 0.615432 0.352466 0.796292
O O1 0.500000 0.644564 0.707461
O O2 0.500000 0.774301 0.688328
O O3 0.556737 0.696970 0.609732
O O4 0.056380 0.615636 0.685106
O O5 0.233501 0.831823 0.500000
O O6 0.250000 0.750000 0.604558
O O7 0.160552 0.821050 0.594988
O O8 0.252495 0.881612 0.617563
O O9 0.117801 0.332494 0.783053
O O10 0.126979 0.213338 0.842084
O O11 0.733544 0.500000 0.167602
O O12 0.750000 0.395854 0.250000
O O13 0.658924 0.408968 0.185733
#
# Coordination Sequence:
#
# PCOD8285583 Si02
#       6
#    16  16  32  32  32  32
#     4   7  12  22  41  72 100 123 154 198 250 293
#     4   7  12  22  41  72 100 123 154 198 250 293
#     4  11  22  34  50  74 101 130 169 209 248 297
#     4   9  15  27  49  73  99 128 161 204 250 292
#     4  11  22  34  50  74 101 130 169 209 248 297
#     4   9  15  27  49  73  99 128 161 204 250 292
#
# _framework density 16.564323999999999
#
# number of rings (size 3 to 8) (size 9 to 14) (size 15 to 20)
#    0.000    2.600    4.000    2.400    0.000    0.800 
#    0.000    1.000    0.000    0.000    0.000    1.400 
#    0.000    3.200    0.000    0.000    0.000    0.000 
#
# Total GULP energy -495569.387853 kJ/mol
# GULP energy per Si atom -12389.234696 kJ/mol
# Density = 1.652662 g / cm^3
# Si number density = 16.564324 Si / 1000 Ang^3
#
#
#
# Elastic Constant Matrix: (Units=GPa)
#
#
# Indices 1 2 3 4 5 6 
#
# 1 160.8294 33.5102 32.8520 0.0000 0.0000 0.0000
# 2 33.5102 51.4514 28.0807 0.0000 0.0000 0.0000
# 3 32.8520 28.0807 48.1731 0.0000 0.0000 0.0000
# 4 0.0000 0.0000 0.0000 16.4458 0.0000 0.0000
# 5 0.0000 0.0000 0.0000 0.0000 15.5028 0.0000
# 6 0.0000 0.0000 0.0000 0.0000 0.0000 17.6234
#
#
#
# Elastic Compliance Matrix: (Units=1/GPa)
#
#
# Indices 1 2 3 4 5 6 
#
# 1 0.007544 -0.003088 -0.003345 0.000000 0.000000 0.000000
# 2 -0.003088 0.029768 -0.015246 0.000000 0.000000 0.000000
# 3 -0.003345 -0.015246 0.031927 0.000000 0.000000 0.000000
# 4 0.000000 0.000000 0.000000 0.060806 0.000000 0.000000
# 5 0.000000 0.000000 0.000000 0.000000 0.064504 0.000000
# 6 0.000000 0.000000 0.000000 0.000000 0.000000 0.056743
#
#
# Mechanical properties :
#
#
# Convention : Reuss Voigt Hill
#
# Bulk Modulus (GPa) = 38.63865 49.92661 44.28263
# Shear Modulus (GPa) = 16.48655 20.98180 18.73418
#
# Velocity S-wave (km/s) = 3.15827 3.56291 3.36668
# Velocity P-wave (km/s) = 6.05612 6.86530 6.47337
#
# Compressibility (1/GPa) = 0.02588082
#
# Stress axis : x y z
#
# Youngs Moduli (GPa) = 132.54768 33.59309 31.32177
#
# Poissons Ratio (x) = 0.10374 0.10477
# Poissons Ratio (y) = 0.40933 0.47754
# Poissons Ratio (z) = 0.44335 0.51217
#
# Static dielectric constant tensor:
#      x y z
#    x 3.656330 0.000000 0.000000 
#    y 0.000000 2.704560 0.000000 
#    z 0.000000 0.000000 2.692140 
# 
# 
# High freq. dielectric constant tensor:
#      x y z
#    x 1.669170 0.000000 0.000000 
#    y 0.000000 1.595820 0.000000 
#    z 0.000000 0.000000 1.593540 
# 
# From -- ./inp_files/25008.got.cif
#   From: 2010.03.12/outbox.cif.g09.slc.cpg/sg69_13_cif.got.tgz:25008.got - 2010.04.10 23:52:46.
