data_PCOD8285830
_publ_section_title
;
Structure prediction by ZEFSAII (Michael W. Deem and Ramdas Pophale) SiO2 
 PCOD8285830
Probable space group: F D D D
;
_chemical_formula_sum "Si O2"
_cell_formula_units_Z 160
_cell_length_a 18.824835
_cell_length_b 19.306254
_cell_length_c 20.900320
_cell_angle_alpha 90.000000
_cell_angle_beta 90.000000
_cell_angle_gamma 90.000000
_cell_volume 7595.950562
_symmetry_space_group_name_H-M "F D D D"
_symmetry_group_IT_number 70
_space_group.IT_coordinate_system_code '2'
_symmetry_cell_setting 'orthorhombic'
loop_
_space_group_symop_operation_xyz
x,y,z
1/4-x,1/4-y,z
x,1/4-y,1/4-z
1/4-x,y,1/4-z
-x,-y,-z
3/4+x,3/4+y,-z
-x,3/4+y,3/4+z
3/4+x,-y,3/4+z
x,1/2+y,1/2+z
1/4-x,3/4-y,1/2+z
x,3/4-y,3/4-z
1/4-x,1/2+y,3/4-z
-x,1/2-y,1/2-z
3/4+x,1/4+y,1/2-z
-x,1/4+y,1/4+z
3/4+x,1/2-y,1/4+z
1/2+x,y,1/2+z
3/4-x,1/4-y,1/2+z
1/2+x,1/4-y,3/4-z
3/4-x,y,3/4-z
1/2-x,-y,1/2-z
1/4+x,3/4+y,1/2-z
1/2-x,3/4+y,1/4+z
1/4+x,-y,1/4+z
1/2+x,1/2+y,z
3/4-x,3/4-y,z
1/2+x,3/4-y,1/4-z
3/4-x,1/2+y,1/4-z
1/2-x,1/2-y,-z
1/4+x,1/4+y,-z
1/2-x,1/4+y,3/4+z
1/4+x,1/2-y,3/4+z
loop_
_atom_site_type_symbol
_atom_site_label
_atom_site_fract_x
_atom_site_fract_y
_atom_site_fract_z
Si Si1 0.490769 0.154802 0.193608
Si Si2 0.195630 0.259307 0.852039
Si Si3 0.192381 0.689288 0.930423
Si Si4 0.453510 0.653020 0.356653
Si Si5 0.837788 0.607107 0.217693
O O1 0.518003 0.125000 0.125000
O O2 0.468709 0.232760 0.182671
O O3 0.549478 0.151433 0.250088
O O4 0.423063 0.113215 0.221621
O O5 0.141527 0.194147 0.837671
O O6 0.273349 0.224969 0.859042
O O7 0.196043 0.317427 0.797523
O O8 0.175134 0.297432 0.916933
O O9 0.239993 0.655715 0.874806
O O10 0.375000 0.628617 0.375000
O O11 0.451939 0.666483 0.281230
#
# Coordination Sequence:
#
# PCOD8285830 Si02
#       5
#    32  32  32  32  32
#     4  10  18  38  69  92 126 163 210 257 327 385
#     4  10  22  42  65  89 128 168 212 262 321 375
#     4  10  21  37  64  95 125 164 211 264 317 386
#     4  12  24  37  60  95 128 164 215 259 312 381
#     4  10  20  41  64  90 124 173 206 258 321 377
#
# _framework density 21.063856000000001
#
# number of rings (size 3 to 8) (size 9 to 14) (size 15 to 20)
#    0.000    1.600    6.000    1.200    0.000    3.200 
#    0.000    4.000    0.000    0.000    0.000    0.000 
#    0.000    0.000    0.000    0.000    0.000    0.000 
#
# Total GULP energy -495781.698037 kJ/mol
# GULP energy per Si atom -12394.542451 kJ/mol
# Density = 2.101591 g / cm^3
# Si number density = 21.063856 Si / 1000 Ang^3
#
#
#
# Elastic Constant Matrix: (Units=GPa)
#
#
# Indices 1 2 3 4 5 6 
#
# 1 86.3546 36.3157 30.8707 0.0000 0.0000 0.0000
# 2 36.3157 31.7619 11.4213 0.0000 0.0000 0.0000
# 3 30.8707 11.4213 105.2921 0.0000 0.0000 0.0000
# 4 0.0000 0.0000 0.0000 27.1505 0.0000 0.0000
# 5 0.0000 0.0000 0.0000 0.0000 25.1394 0.0000
# 6 0.0000 0.0000 0.0000 0.0000 0.0000 18.3500
#
#
#
# Elastic Compliance Matrix: (Units=1/GPa)
#
#
# Indices 1 2 3 4 5 6 
#
# 1 0.023983 -0.025903 -0.004222 0.000000 0.000000 0.000000
# 2 -0.025903 0.060740 0.001006 0.000000 0.000000 0.000000
# 3 -0.004222 0.001006 0.010626 0.000000 0.000000 0.000000
# 4 0.000000 0.000000 0.000000 0.036832 0.000000 0.000000
# 5 0.000000 0.000000 0.000000 0.000000 0.039778 0.000000
# 6 0.000000 0.000000 0.000000 0.000000 0.000000 0.054496
#
#
# Mechanical properties :
#
#
# Convention : Reuss Voigt Hill
#
# Bulk Modulus (GPa) = 26.94650 42.29154 34.61902
# Shear Modulus (GPa) = 16.83149 23.78138 20.30644
#
# Velocity S-wave (km/s) = 2.82985 3.36373 3.10827
# Velocity P-wave (km/s) = 4.84747 5.93360 5.41782
#
# Compressibility (1/GPa) = 0.03711057
#
# Stress axis : x y z
#
# Youngs Moduli (GPa) = 41.69664 16.46372 94.10841
#
# Poissons Ratio (x) = 0.42646 0.39730
# Poissons Ratio (y) = 1.08008 -0.09467
# Poissons Ratio (z) = 0.17603 -0.01656
#
# Static dielectric constant tensor:
#      x y z
#    x 3.928560 0.000000 0.000000 
#    y 0.000000 3.984300 0.000000 
#    z 0.000000 0.000000 3.992620 
# 
# 
# High freq. dielectric constant tensor:
#      x y z
#    x 1.810880 0.000000 0.000000 
#    y 0.000000 1.835610 0.000000 
#    z 0.000000 0.000000 1.830360 
# 
# From -- ./inp_files/36299.got.cif
#   From: 2010.03.12/outbox.cif.g09.slc.cpg/sg70_19_cif.got.tgz:36299.got - 2010.04.16 13:46:32.
