data_PCOD8285460
_publ_section_title
;
Structure prediction by ZEFSAII (Michael W. Deem and Ramdas Pophale) SiO2 
 PCOD8285460
Probable space group: F M M M
;
_chemical_formula_sum "Si O2"
_cell_formula_units_Z 192
_cell_length_a 16.268073
_cell_length_b 22.482413
_cell_length_c 25.080000
_cell_angle_alpha 90.000000
_cell_angle_beta 90.000000
_cell_angle_gamma 90.000000
_cell_volume 9172.898040
_symmetry_space_group_name_H-M "F M M M"
_symmetry_group_IT_number 69
_symmetry_cell_setting 'orthorhombic'
loop_
_space_group_symop_operation_xyz
x,y,z
-x,-y,z
x,-y,-z
-x,y,-z
-x,-y,-z
x,y,-z
-x,y,z
x,-y,z
x,1/2+y,1/2+z
-x,1/2-y,1/2+z
x,1/2-y,1/2-z
-x,1/2+y,1/2-z
-x,1/2-y,1/2-z
x,1/2+y,1/2-z
-x,1/2+y,1/2+z
x,1/2-y,1/2+z
1/2+x,y,1/2+z
1/2-x,-y,1/2+z
1/2+x,-y,1/2-z
1/2-x,y,1/2-z
1/2-x,-y,1/2-z
1/2+x,y,1/2-z
1/2-x,y,1/2+z
1/2+x,-y,1/2+z
1/2+x,1/2+y,z
1/2-x,1/2-y,z
1/2+x,1/2-y,-z
1/2-x,1/2+y,-z
1/2-x,1/2-y,-z
1/2+x,1/2+y,-z
1/2-x,1/2+y,z
1/2+x,1/2-y,z
loop_
_atom_site_type_symbol
_atom_site_label
_atom_site_fract_x
_atom_site_fract_y
_atom_site_fract_z
Si Si1 0.843609 0.365133 0.748532
Si Si2 0.907001 0.164340 0.640525
Si Si3 0.168050 0.877111 0.058940
Si Si4 0.500000 0.430638 0.212750
Si Si5 0.832797 0.782297 0.850354
Si Si6 0.000000 0.929791 0.093678
Si Si7 0.664128 0.066920 0.061165
O O1 0.750000 0.391414 0.750000
O O2 0.851636 0.338155 0.806914
O O3 0.862040 0.315873 0.703254
O O4 0.915049 0.414257 0.742544
O O5 0.897790 0.234235 0.625273
O O6 0.879472 0.117972 0.595496
O O7 0.000000 0.149208 0.654573
O O8 0.185217 0.827555 0.102420
O O9 0.237538 0.927463 0.066621
O O10 0.079799 0.907066 0.063472
O O11 0.175622 0.848450 0.000000
O O12 0.500000 0.500000 0.207572
O O13 0.500000 0.402754 0.153389
O O14 0.750000 0.750000 0.834213
O O15 0.000000 0.000000 0.093423
O O16 0.640185 0.000000 0.080604
O O17 0.635839 0.075786 0.000000
#
# Coordination Sequence:
#
# PCOD8285460 Si02
#       7
#    32  32  32  16  32  16  32
#     4  12  24  45  70  99 136 179 228 279 335 403
#     4  12  27  42  67 103 132 176 224 276 337 401
#     4  11  23  41  67  99 132 175 223 274 334 400
#     4  11  26  45  68 100 139 180 221 279 346 403
#     4  12  24  43  68  98 137 174 225 274 339 401
#     4  11  23  42  64  94 137 176 217 270 332 404
#     4  10  23  46  72  96 129 175 227 282 341 405
#
# _framework density 20.931225000000001
#
# number of rings (size 3 to 8) (size 9 to 14) (size 15 to 20)
#    0.000    0.667    5.833    1.250    2.333    4.667 
#    0.000    0.833    0.000    0.000    0.000    0.000 
#    0.000    0.000    0.000    0.000    0.000    0.000 
#
# Total GULP energy -595003.046233 kJ/mol
# GULP energy per Si atom -12395.896797 kJ/mol
# Density = 2.088358 g / cm^3
# Si number density = 20.931225 Si / 1000 Ang^3
#
#
#
# Elastic Constant Matrix: (Units=GPa)
#
#
# Indices 1 2 3 4 5 6 
#
# 1 127.3449 22.3015 16.8589 0.0000 0.0000 0.0000
# 2 22.3015 95.6785 54.1885 0.0000 0.0000 0.0000
# 3 16.8589 54.1885 118.7455 0.0000 0.0000 0.0000
# 4 0.0000 0.0000 0.0000 21.5805 0.0000 0.0000
# 5 0.0000 0.0000 0.0000 0.0000 35.2996 0.0000
# 6 0.0000 0.0000 0.0000 0.0000 0.0000 25.7905
#
#
#
# Elastic Compliance Matrix: (Units=1/GPa)
#
#
# Indices 1 2 3 4 5 6 
#
# 1 0.008201 -0.001688 -0.000394 0.000000 0.000000 0.000000
# 2 -0.001688 0.014442 -0.006351 0.000000 0.000000 0.000000
# 3 -0.000394 -0.006351 0.011375 0.000000 0.000000 0.000000
# 4 0.000000 0.000000 0.000000 0.046338 0.000000 0.000000
# 5 0.000000 0.000000 0.000000 0.000000 0.028329 0.000000
# 6 0.000000 0.000000 0.000000 0.000000 0.000000 0.038774
#
#
# Mechanical properties :
#
#
# Convention : Reuss Voigt Hill
#
# Bulk Modulus (GPa) = 58.30227 58.71854 58.51041
# Shear Modulus (GPa) = 29.40445 33.09546 31.24996
#
# Velocity S-wave (km/s) = 3.75215 3.98068 3.86811
# Velocity P-wave (km/s) = 6.83273 7.01725 6.92560
#
# Compressibility (1/GPa) = 0.01715199
#
# Stress axis : x y z
#
# Youngs Moduli (GPa) = 121.94367 69.24218 87.90893
#
# Poissons Ratio (x) = 0.11691 0.03462
# Poissons Ratio (y) = 0.20589 0.55829
# Poissons Ratio (z) = 0.04802 0.43974
#
# Static dielectric constant tensor:
#      x y z
#    x 3.890570 0.000000 0.000000 
#    y 0.000000 3.945120 0.000000 
#    z 0.000000 0.000000 3.935310 
# 
# 
# High freq. dielectric constant tensor:
#      x y z
#    x 1.830230 0.000000 0.000000 
#    y 0.000000 1.813310 0.000000 
#    z 0.000000 0.000000 1.826400 
# 
# From -- ./inp_files/41145.got.cif
#   From: 2010.03.12/outbox.cif.g09.slc.cpg/sg69_21_cif.got.tgz:41145.got - 2010.04.10 23:52:46.
