data_PCOD8285589
_publ_section_title
;
Structure prediction by ZEFSAII (Michael W. Deem and Ramdas Pophale) SiO2 
 PCOD8285589
Probable space group: F M M M
;
_chemical_formula_sum "Si O2"
_cell_formula_units_Z 144
_cell_length_a 27.213611
_cell_length_b 14.426194
_cell_length_c 17.245340
_cell_angle_alpha 90.000000
_cell_angle_beta 90.000000
_cell_angle_gamma 90.000000
_cell_volume 6770.327883
_symmetry_space_group_name_H-M "F M M M"
_symmetry_group_IT_number 69
_symmetry_cell_setting 'orthorhombic'
loop_
_space_group_symop_operation_xyz
x,y,z
-x,-y,z
x,-y,-z
-x,y,-z
-x,-y,-z
x,y,-z
-x,y,z
x,-y,z
x,1/2+y,1/2+z
-x,1/2-y,1/2+z
x,1/2-y,1/2-z
-x,1/2+y,1/2-z
-x,1/2-y,1/2-z
x,1/2+y,1/2-z
-x,1/2+y,1/2+z
x,1/2-y,1/2+z
1/2+x,y,1/2+z
1/2-x,-y,1/2+z
1/2+x,-y,1/2-z
1/2-x,y,1/2-z
1/2-x,-y,1/2-z
1/2+x,y,1/2-z
1/2-x,y,1/2+z
1/2+x,-y,1/2+z
1/2+x,1/2+y,z
1/2-x,1/2-y,z
1/2+x,1/2-y,-z
1/2-x,1/2+y,-z
1/2-x,1/2-y,-z
1/2+x,1/2+y,-z
1/2-x,1/2+y,z
1/2+x,1/2-y,z
loop_
_atom_site_type_symbol
_atom_site_label
_atom_site_fract_x
_atom_site_fract_y
_atom_site_fract_z
Si Si1 0.335669 0.101459 0.838199
Si Si2 0.760327 0.857247 0.912464
Si Si3 0.500000 0.393973 0.592308
Si Si4 0.090531 0.770285 0.589725
Si Si5 0.138061 0.394143 0.665434
O O1 0.277597 0.092579 0.854580
O O2 0.358952 0.173227 0.899130
O O3 0.345585 0.136585 0.751237
O O4 0.359560 0.000000 0.849794
O O5 0.750000 0.750000 0.903802
O O6 0.815561 0.883302 0.890659
O O7 0.751422 0.891801 0.000000
O O8 0.500000 0.500000 0.625538
O O9 0.500000 0.399195 0.500000
O O10 0.547076 0.336012 0.622368
O O11 0.082488 0.746474 0.500000
O O12 0.094045 0.673298 0.636544
O O13 0.118912 0.500000 0.662979
#
# Coordination Sequence:
#
# PCOD8285589 Si02
#       5
#    32  32  16  32  32
#     4  11  23  38  59  87 119 159 204 249 299 355
#     4  11  22  36  57  87 120 160 209 255 298 346
#     4   9  20  40  66  95 123 149 187 248 312 360
#     4  11  22  39  64  91 117 151 196 248 304 359
#     4  11  24  40  58  85 125 168 202 242 298 358
#
# _framework density 21.269279999999998
#
# number of rings (size 3 to 8) (size 9 to 14) (size 15 to 20)
#    0.000    1.222    2.222    4.000    0.000    8.000 
#    0.000    2.778    0.000    4.667    0.000    0.000 
#    0.000    0.000    0.000    0.000    0.000    0.000 
#
# Total GULP energy -446435.567655 kJ/mol
# GULP energy per Si atom -12400.987990 kJ/mol
# Density = 2.122087 g / cm^3
# Si number density = 21.269280 Si / 1000 Ang^3
#
#
#
# Elastic Constant Matrix: (Units=GPa)
#
#
# Indices 1 2 3 4 5 6 
#
# 1 91.5761 49.9955 20.1502 0.0000 0.0000 0.0000
# 2 49.9955 142.8064 42.2318 0.0000 0.0000 0.0000
# 3 20.1502 42.2318 96.3645 0.0000 0.0000 0.0000
# 4 0.0000 0.0000 0.0000 20.7124 0.0000 0.0000
# 5 0.0000 0.0000 0.0000 0.0000 20.1402 0.0000
# 6 0.0000 0.0000 0.0000 0.0000 0.0000 35.2464
#
#
#
# Elastic Compliance Matrix: (Units=1/GPa)
#
#
# Indices 1 2 3 4 5 6 
#
# 1 0.013563 -0.004492 -0.000868 0.000000 0.000000 0.000000
# 2 -0.004492 0.009533 -0.003238 0.000000 0.000000 0.000000
# 3 -0.000868 -0.003238 0.011978 0.000000 0.000000 0.000000
# 4 0.000000 0.000000 0.000000 0.048280 0.000000 0.000000
# 5 0.000000 0.000000 0.000000 0.000000 0.049652 0.000000
# 6 0.000000 0.000000 0.000000 0.000000 0.000000 0.028372
#
#
# Mechanical properties :
#
#
# Convention : Reuss Voigt Hill
#
# Bulk Modulus (GPa) = 55.93435 61.72242 58.82839
# Shear Modulus (GPa) = 27.09546 29.77775 28.43660
#
# Velocity S-wave (km/s) = 3.57308 3.74576 3.66044
# Velocity P-wave (km/s) = 6.58618 6.91304 6.75159
#
# Compressibility (1/GPa) = 0.01787810
#
# Stress axis : x y z
#
# Youngs Moduli (GPa) = 73.72983 104.90178 83.48677
#
# Poissons Ratio (x) = 0.47119 0.07243
# Poissons Ratio (y) = 0.33118 0.27037
# Poissons Ratio (z) = 0.06397 0.33972
#
# Static dielectric constant tensor:
#      x y z
#    x 3.689910 0.000000 0.000000 
#    y 0.000000 4.166160 0.000000 
#    z 0.000000 0.000000 3.715470 
# 
# 
# High freq. dielectric constant tensor:
#      x y z
#    x 1.806420 0.000000 0.000000 
#    y 0.000000 1.852880 0.000000 
#    z 0.000000 0.000000 1.824760 
# 
# From -- ./inp_files/27373.got.cif
#   From: 2010.03.12/outbox.cif.g09.slc.cpg/sg69_14_cif.got.tgz:27373.got - 2010.04.10 23:52:46.
