data_PCOD8285501
_publ_section_title
;
Structure prediction by ZEFSAII (Michael W. Deem and Ramdas Pophale) SiO2 
 PCOD8285501
Probable space group: F M M M
;
_chemical_formula_sum "Si O2"
_cell_formula_units_Z 176
_cell_length_a 25.587813
_cell_length_b 24.768525
_cell_length_c 13.963669
_cell_angle_alpha 90.000000
_cell_angle_beta 90.000000
_cell_angle_gamma 90.000000
_cell_volume 8849.787819
_symmetry_space_group_name_H-M "F M M M"
_symmetry_group_IT_number 69
_symmetry_cell_setting 'orthorhombic'
loop_
_space_group_symop_operation_xyz
x,y,z
-x,-y,z
x,-y,-z
-x,y,-z
-x,-y,-z
x,y,-z
-x,y,z
x,-y,z
x,1/2+y,1/2+z
-x,1/2-y,1/2+z
x,1/2-y,1/2-z
-x,1/2+y,1/2-z
-x,1/2-y,1/2-z
x,1/2+y,1/2-z
-x,1/2+y,1/2+z
x,1/2-y,1/2+z
1/2+x,y,1/2+z
1/2-x,-y,1/2+z
1/2+x,-y,1/2-z
1/2-x,y,1/2-z
1/2-x,-y,1/2-z
1/2+x,y,1/2-z
1/2-x,y,1/2+z
1/2+x,-y,1/2+z
1/2+x,1/2+y,z
1/2-x,1/2-y,z
1/2+x,1/2-y,-z
1/2-x,1/2+y,-z
1/2-x,1/2-y,-z
1/2+x,1/2+y,-z
1/2-x,1/2+y,z
1/2+x,1/2-y,z
loop_
_atom_site_type_symbol
_atom_site_label
_atom_site_fract_x
_atom_site_fract_y
_atom_site_fract_z
Si Si1 0.601973 0.710154 0.319978
Si Si2 0.699038 0.937376 0.807655
Si Si3 0.224982 0.379052 0.000000
Si Si4 0.000000 0.231701 0.890955
Si Si5 0.500000 0.602672 0.890200
Si Si6 0.161469 0.349245 0.500000
Si Si7 0.606211 0.389275 0.809280
Si Si8 0.332382 0.777553 0.000000
O O1 0.635106 0.750000 0.250000
O O2 0.549914 0.743324 0.341314
O O3 0.589398 0.654058 0.269533
O O4 0.635652 0.699360 0.411787
O O5 0.750000 0.917793 0.750000
O O6 0.648584 0.928285 0.739949
O O7 0.702635 0.000000 0.834052
O O8 0.697428 0.904642 0.906805
O O9 0.220116 0.313478 0.000000
O O10 0.287543 0.387845 0.000000
O O11 0.000000 0.167383 0.882073
O O12 0.000000 0.250341 0.000000
O O13 0.447391 0.579597 0.838802
O O14 0.500000 0.583279 0.000000
O O15 0.128030 0.361191 0.405547
O O16 0.176858 0.286101 0.500000
#
# Coordination Sequence:
#
# PCOD8285501 Si02
#       8
#    32  32  16  16  16  16  32  16
#     4  12  21  34  55  82 129 176 214 254 304 373
#     4  11  25  46  71  94 118 162 223 280 326 371
#     4  12  24  42  66  96 127 164 217 270 322 379
#     4  11  20  32  52  88 123 172 231 260 292 369
#     4  11  21  35  62  96 130 172 211 261 322 388
#     4  12  23  38  61  97 136 168 208 255 308 397
#     4  12  23  40  64  92 131 171 214 264 322 381
#     4  12  23  36  55  93 133 170 205 253 314 397
#
# _framework density 19.887481999999999
#
# number of rings (size 3 to 8) (size 9 to 14) (size 15 to 20)
#    0.000    0.364    9.091    1.364    0.000    0.000 
#    0.000    0.909    0.000    0.545    0.000    1.273 
#    0.000    0.000    0.000    0.000    0.000    0.000 
#
# Total GULP energy -545434.524487 kJ/mol
# GULP energy per Si atom -12396.239193 kJ/mol
# Density = 1.984222 g / cm^3
# Si number density = 19.887482 Si / 1000 Ang^3
#
#
#
# Elastic Constant Matrix: (Units=GPa)
#
#
# Indices 1 2 3 4 5 6 
#
# 1 127.3847 14.2242 47.2898 0.0000 0.0000 0.0000
# 2 14.2242 49.8239 21.4004 0.0000 0.0000 0.0000
# 3 47.2898 21.4004 138.2394 0.0000 0.0000 0.0000
# 4 0.0000 0.0000 0.0000 18.3979 0.0000 0.0000
# 5 0.0000 0.0000 0.0000 0.0000 25.7566 0.0000
# 6 0.0000 0.0000 0.0000 0.0000 0.0000 22.3949
#
#
#
# Elastic Compliance Matrix: (Units=1/GPa)
#
#
# Indices 1 2 3 4 5 6 
#
# 1 0.009076 -0.001347 -0.002896 0.000000 0.000000 0.000000
# 2 -0.001347 0.021700 -0.002899 0.000000 0.000000 0.000000
# 3 -0.002896 -0.002899 0.008673 0.000000 0.000000 0.000000
# 4 0.000000 0.000000 0.000000 0.054354 0.000000 0.000000
# 5 0.000000 0.000000 0.000000 0.000000 0.038825 0.000000
# 6 0.000000 0.000000 0.000000 0.000000 0.000000 0.044653
#
#
# Mechanical properties :
#
#
# Convention : Reuss Voigt Hill
#
# Bulk Modulus (GPa) = 39.73652 53.47520 46.60586
# Shear Modulus (GPa) = 25.00583 28.81214 26.90898
#
# Velocity S-wave (km/s) = 3.54978 3.81038 3.68239
# Velocity P-wave (km/s) = 6.06839 6.80485 6.44714
#
# Compressibility (1/GPa) = 0.02516577
#
# Stress axis : x y z
#
# Youngs Moduli (GPa) = 110.18284 46.08246 115.29667
#
# Poissons Ratio (x) = 0.06208 0.33392
# Poissons Ratio (y) = 0.14843 0.33419
# Poissons Ratio (z) = 0.31911 0.13357
#
# Static dielectric constant tensor:
#      x y z
#    x 3.802010 0.000000 0.000000 
#    y 0.000000 3.280930 0.000000 
#    z 0.000000 0.000000 3.879290 
# 
# 
# High freq. dielectric constant tensor:
#      x y z
#    x 1.779160 0.000000 0.000000 
#    y 0.000000 1.746140 0.000000 
#    z 0.000000 0.000000 1.799770 
# 
# From -- ./inp_files/18183.got.cif
#   From: 2010.03.12/outbox.cif.g09.slc.cpg/sg69_10_cif.got.tgz:18183.got - 2010.04.10 23:52:46.
