data_PCOD8285855
_publ_section_title
;
Structure prediction by ZEFSAII (Michael W. Deem and Ramdas Pophale) SiO2 
 PCOD8285855
Probable space group: F D D D
;
_chemical_formula_sum "Si O2"
_cell_formula_units_Z 240
_cell_length_a 23.628000
_cell_length_b 30.375000
_cell_length_c 18.749484
_cell_angle_alpha 90.000000
_cell_angle_beta 90.000000
_cell_angle_gamma 90.000000
_cell_volume 13456.514042
_symmetry_space_group_name_H-M "F D D D"
_symmetry_group_IT_number 70
_space_group.IT_coordinate_system_code '2'
_symmetry_cell_setting 'orthorhombic'
loop_
_space_group_symop_operation_xyz
x,y,z
1/4-x,1/4-y,z
x,1/4-y,1/4-z
1/4-x,y,1/4-z
-x,-y,-z
3/4+x,3/4+y,-z
-x,3/4+y,3/4+z
3/4+x,-y,3/4+z
x,1/2+y,1/2+z
1/4-x,3/4-y,1/2+z
x,3/4-y,3/4-z
1/4-x,1/2+y,3/4-z
-x,1/2-y,1/2-z
3/4+x,1/4+y,1/2-z
-x,1/4+y,1/4+z
3/4+x,1/2-y,1/4+z
1/2+x,y,1/2+z
3/4-x,1/4-y,1/2+z
1/2+x,1/4-y,3/4-z
3/4-x,y,3/4-z
1/2-x,-y,1/2-z
1/4+x,3/4+y,1/2-z
1/2-x,3/4+y,1/4+z
1/4+x,-y,1/4+z
1/2+x,1/2+y,z
3/4-x,3/4-y,z
1/2+x,3/4-y,1/4-z
3/4-x,1/2+y,1/4-z
1/2-x,1/2-y,-z
1/4+x,1/4+y,-z
1/2-x,1/4+y,3/4+z
1/4+x,1/2-y,3/4+z
loop_
_atom_site_type_symbol
_atom_site_label
_atom_site_fract_x
_atom_site_fract_y
_atom_site_fract_z
Si Si1 0.733544 0.260831 0.182478
Si Si2 0.364186 0.620277 0.768110
Si Si3 0.313014 0.390710 0.236680
Si Si4 0.084105 0.799189 0.418374
Si Si5 0.034361 0.356743 0.633532
Si Si6 0.852210 0.038867 0.535635
Si Si7 0.995018 0.625000 0.125000
Si Si8 0.556512 0.236337 0.211620
O O1 0.795812 0.240929 0.198058
O O2 0.730818 0.308776 0.146655
O O3 0.704648 0.263415 0.260566
O O4 0.701626 0.229761 0.124029
O O5 0.382972 0.574643 0.731488
O O6 0.417550 0.643316 0.806198
O O7 0.310457 0.611816 0.821119
O O8 0.344158 0.658051 0.713152
O O9 0.375000 0.375000 0.218850
O O10 0.273898 0.376899 0.169227
O O11 0.284251 0.369258 0.306056
O O12 0.323718 0.441708 0.250298
O O13 0.129858 0.776187 0.365915
O O14 0.045660 0.832360 0.370965
O O15 0.897680 0.023903 0.476472
O O16 0.500000 0.250000 0.250000
#
# Coordination Sequence:
#
# PCOD8285855 Si02
#       8
#    32  32  32  32  32  32  16  32
#     4  11  22  32  52  73 111 148 188 224 273 341
#     4  10  19  32  58  73 103 141 199 245 274 322
#     4  12  24  33  48  76 119 154 179 216 274 351
#     4  12  20  35  52  78 110 151 187 240 281 325
#     4  10  19  37  51  80 102 146 192 237 276 335
#     4  11  20  31  48  73 103 147 186 224 269 330
#     4  12  21  32  46  74 118 152 179 218 264 332
#     4  12  19  33  48  70 106 153 179 217 262 330
#
# _framework density 17.835228000000001
#
# number of rings (size 3 to 8) (size 9 to 14) (size 15 to 20)
#    0.000    0.800    8.000    0.600    1.867    1.067 
#    0.000    0.000    0.000    0.000    0.000   14.933 
#    0.000    7.467    0.000    0.000    0.000    0.000 
#
# Total GULP energy -743361.898376 kJ/mol
# GULP energy per Si atom -12389.364973 kJ/mol
# Density = 1.779463 g / cm^3
# Si number density = 17.835228 Si / 1000 Ang^3
#
#
#
# Elastic Constant Matrix: (Units=GPa)
#
#
# Indices 1 2 3 4 5 6 
#
# 1 112.9318 41.2552 72.4538 0.0000 0.0000 0.0000
# 2 41.2552 63.4613 44.9635 0.0000 0.0000 0.0000
# 3 72.4538 44.9635 91.2172 0.0000 0.0000 0.0000
# 4 0.0000 0.0000 0.0000 26.8489 0.0000 0.0000
# 5 0.0000 0.0000 0.0000 0.0000 38.3165 0.0000
# 6 0.0000 0.0000 0.0000 0.0000 0.0000 23.5070
#
#
#
# Elastic Compliance Matrix: (Units=1/GPa)
#
#
# Indices 1 2 3 4 5 6 
#
# 1 0.018302 -0.002456 -0.013327 0.000000 0.000000 0.000000
# 2 -0.002456 0.024544 -0.010148 0.000000 0.000000 0.000000
# 3 -0.013327 -0.010148 0.026551 0.000000 0.000000 0.000000
# 4 0.000000 0.000000 0.000000 0.037245 0.000000 0.000000
# 5 0.000000 0.000000 0.000000 0.000000 0.026098 0.000000
# 6 0.000000 0.000000 0.000000 0.000000 0.000000 0.042541
#
#
# Mechanical properties :
#
#
# Convention : Reuss Voigt Hill
#
# Bulk Modulus (GPa) = 57.02616 64.99504 61.01060
# Shear Modulus (GPa) = 21.46036 24.99698 23.22867
#
# Velocity S-wave (km/s) = 3.47256 3.74779 3.61280
# Velocity P-wave (km/s) = 6.93697 7.43297 7.18925
#
# Compressibility (1/GPa) = 0.01753581
#
# Stress axis : x y z
#
# Youngs Moduli (GPa) = 54.63832 40.74317 37.66378
#
# Poissons Ratio (x) = 0.10005 0.50195
# Poissons Ratio (y) = 0.13417 0.38221
# Poissons Ratio (z) = 0.72817 0.41346
#
# Static dielectric constant tensor:
#      x y z
#    x 3.815310 0.000000 0.000000 
#    y 0.000000 3.361610 0.000000 
#    z 0.000000 0.000000 3.352420 
# 
# 
# High freq. dielectric constant tensor:
#      x y z
#    x 1.669250 0.000000 0.000000 
#    y 0.000000 1.673020 0.000000 
#    z 0.000000 0.000000 1.667830 
# 
# From -- ./inp_files/46199.got.cif
#   From: 2010.03.12/outbox.cif.g09.slc.cpg/sg70_24_cif.got.tgz:46199.got - 2010.04.16 13:46:32.
