data_PCOD8285429
_publ_section_title
;
Structure prediction by ZEFSAII (Michael W. Deem and Ramdas Pophale) SiO2 
 PCOD8285429
Probable space group: F M M M
;
_chemical_formula_sum "Si O2"
_cell_formula_units_Z 96
_cell_length_a 27.404697
_cell_length_b 17.508136
_cell_length_c 10.017466
_cell_angle_alpha 90.000000
_cell_angle_beta 90.000000
_cell_angle_gamma 90.000000
_cell_volume 4806.431898
_symmetry_space_group_name_H-M "F M M M"
_symmetry_group_IT_number 69
_symmetry_cell_setting 'orthorhombic'
loop_
_space_group_symop_operation_xyz
x,y,z
-x,-y,z
x,-y,-z
-x,y,-z
-x,-y,-z
x,y,-z
-x,y,z
x,-y,z
x,1/2+y,1/2+z
-x,1/2-y,1/2+z
x,1/2-y,1/2-z
-x,1/2+y,1/2-z
-x,1/2-y,1/2-z
x,1/2+y,1/2-z
-x,1/2+y,1/2+z
x,1/2-y,1/2+z
1/2+x,y,1/2+z
1/2-x,-y,1/2+z
1/2+x,-y,1/2-z
1/2-x,y,1/2-z
1/2-x,-y,1/2-z
1/2+x,y,1/2-z
1/2-x,y,1/2+z
1/2+x,-y,1/2+z
1/2+x,1/2+y,z
1/2-x,1/2-y,z
1/2+x,1/2-y,-z
1/2-x,1/2+y,-z
1/2-x,1/2-y,-z
1/2+x,1/2+y,-z
1/2-x,1/2+y,z
1/2+x,1/2-y,z
loop_
_atom_site_type_symbol
_atom_site_label
_atom_site_fract_x
_atom_site_fract_y
_atom_site_fract_z
Si Si1 0.894733 0.659926 0.742259
Si Si2 0.056381 0.909252 0.500000
Si Si3 0.794664 0.911056 0.844895
Si Si4 0.056467 0.916242 0.000000
O O1 0.898231 0.750000 0.750000
O O2 0.913633 0.621551 0.875779
O O3 0.839762 0.637128 0.708532
O O4 0.930326 0.631918 0.628007
O O5 0.000000 0.880554 0.500000
O O6 0.057704 0.000000 0.500000
O O7 0.750000 0.887497 0.750000
O O8 0.806951 0.000000 0.829363
O O9 0.783156 0.890996 0.000000
O O10 0.000000 0.931153 0.000000
O O11 0.082897 0.000000 0.000000
#
# Coordination Sequence:
#
# PCOD8285429 Si02
#       4
#    32  16  32  16
#     4  12  25  41  64  98 134 169 208 264 329 381
#     4  11  25  43  64  93 130 173 219 264 312 373
#     4  10  22  42  68  95 124 165 216 264 314 381
#     4  11  23  43  70  93 122 173 227 268 312 379
#
# _framework density 19.973236
#
# number of rings (size 3 to 8) (size 9 to 14) (size 15 to 20)
#    0.000    1.000    1.667    5.000    2.333    7.333 
#    0.000    1.667    0.000    0.000    0.000    0.000 
#    0.000    0.000    0.000    0.000    0.000    0.000 
#
# Total GULP energy -297655.487944 kJ/mol
# GULP energy per Si atom -12402.311998 kJ/mol
# Density = 1.992778 g / cm^3
# Si number density = 19.973236 Si / 1000 Ang^3
#
#
#
# Elastic Constant Matrix: (Units=GPa)
#
#
# Indices 1 2 3 4 5 6 
#
# 1 109.9186 54.0080 67.5950 0.0000 0.0000 0.0000
# 2 54.0080 134.4727 65.4954 0.0000 0.0000 0.0000
# 3 67.5950 65.4954 193.3803 0.0000 0.0000 0.0000
# 4 0.0000 0.0000 0.0000 48.8578 0.0000 0.0000
# 5 0.0000 0.0000 0.0000 0.0000 49.0681 0.0000
# 6 0.0000 0.0000 0.0000 0.0000 0.0000 -8.8783
#
#
#
# Elastic Compliance Matrix: (Units=1/GPa)
#
#
# Indices 1 2 3 4 5 6 
#
# 1 0.012875 -0.003568 -0.003292 0.000000 0.000000 0.000000
# 2 -0.003568 0.009894 -0.002104 0.000000 0.000000 0.000000
# 3 -0.003292 -0.002104 0.007034 0.000000 0.000000 0.000000
# 4 0.000000 0.000000 0.000000 0.020468 0.000000 0.000000
# 5 0.000000 0.000000 0.000000 0.000000 0.020380 0.000000
# 6 0.000000 0.000000 0.000000 0.000000 0.000000 -0.112634
#
#
# Mechanical properties :
#
#
# Convention : Reuss Voigt Hill
#
# Bulk Modulus (GPa) = 84.20128 90.21870 87.20999
# Shear Modulus (GPa) = -248.78686 34.52109 -107.13289
#
# Velocity S-wave (km/s) = -11.17276 4.16187 -7.33176
# Velocity P-wave (km/s) = 11.14415 8.26818 5.28343
#
# Compressibility (1/GPa) = 0.01187630
#
# Stress axis : x y z
#
# Youngs Moduli (GPa) = 77.66967 101.07114 142.15683
#
# Poissons Ratio (x) = 0.36058 0.46800
# Poissons Ratio (y) = 0.27709 0.29909
# Poissons Ratio (z) = 0.25570 0.21265
#
# Static dielectric constant tensor:
#      x y z
#    x 3.763610 0.000000 0.000000 
#    y 0.000000 3.715380 0.000000 
#    z 0.000000 0.000000 5.036760 
# 
# 
# High freq. dielectric constant tensor:
#      x y z
#    x 1.791710 0.000000 0.000000 
#    y 0.000000 1.784260 0.000000 
#    z 0.000000 0.000000 1.800890 
# 
# From -- ./inp_files/9790.got.cif
#   From: 2010.03.12/outbox.cif.g09.slc.cpg/sg69_5_cif.got.tgz:9790.got - 2010.04.10 23:52:46.
