data_PCOD8285279
_publ_section_title
;
Structure prediction by ZEFSAII (Michael W. Deem and Ramdas Pophale) SiO2 
 PCOD8285279
Probable space group: F M M M
;
_chemical_formula_sum "Si O2"
_cell_formula_units_Z 104
_cell_length_a 18.713798
_cell_length_b 29.417089
_cell_length_c 9.343555
_cell_angle_alpha 90.000000
_cell_angle_beta 90.000000
_cell_angle_gamma 90.000000
_cell_volume 5143.678055
_symmetry_space_group_name_H-M "F M M M"
_symmetry_group_IT_number 69
_symmetry_cell_setting 'orthorhombic'
loop_
_space_group_symop_operation_xyz
x,y,z
-x,-y,z
x,-y,-z
-x,y,-z
-x,-y,-z
x,y,-z
-x,y,z
x,-y,z
x,1/2+y,1/2+z
-x,1/2-y,1/2+z
x,1/2-y,1/2-z
-x,1/2+y,1/2-z
-x,1/2-y,1/2-z
x,1/2+y,1/2-z
-x,1/2+y,1/2+z
x,1/2-y,1/2+z
1/2+x,y,1/2+z
1/2-x,-y,1/2+z
1/2+x,-y,1/2-z
1/2-x,y,1/2-z
1/2-x,-y,1/2-z
1/2+x,y,1/2-z
1/2-x,y,1/2+z
1/2+x,-y,1/2+z
1/2+x,1/2+y,z
1/2-x,1/2-y,z
1/2+x,1/2-y,-z
1/2-x,1/2+y,-z
1/2-x,1/2-y,-z
1/2+x,1/2+y,-z
1/2-x,1/2+y,z
1/2+x,1/2-y,z
loop_
_atom_site_type_symbol
_atom_site_label
_atom_site_fract_x
_atom_site_fract_y
_atom_site_fract_z
Si Si1 0.250000 0.750000 0.750000
Si Si2 0.000000 0.202776 0.671770
Si Si3 0.577780 0.000000 0.330488
Si Si4 0.817548 0.076462 0.165354
Si Si5 0.863356 0.822833 0.839435
O O1 0.196354 0.782808 0.837750
O O2 0.000000 0.250000 0.750000
O O3 0.926766 0.179590 0.723415
O O4 0.000000 0.206750 0.500000
O O5 0.616211 0.953708 0.279840
O O6 0.500000 0.000000 0.257988
O O7 0.570932 0.000000 0.500000
O O8 0.750000 0.058088 0.250000
O O9 0.827329 0.129519 0.197328
O O10 0.803164 0.067217 0.000000
O O11 0.895999 0.822868 0.000000
#
# Coordination Sequence:
#
# PCOD8285279 Si02
#       5
#     8  16  16  32  32
#     4  12  22  38  64  88 130 158 206 248 310 352
#     4  12  26  42  62  87 122 165 209 254 311 367
#     4   9  19  36  61  89 120 157 204 254 307 362
#     4  10  21  38  62  91 120 159 203 252 305 367
#     4  11  24  40  62  91 124 162 208 254 305 364
#
# _framework density 20.218995
#
# number of rings (size 3 to 8) (size 9 to 14) (size 15 to 20)
#    0.000    1.385    3.077    2.308    2.154    2.462 
#    0.000    0.000    0.000    0.923    0.000    0.000 
#    0.000    0.000    0.000    0.000    0.000    0.000 
#
# Total GULP energy -322226.096172 kJ/mol
# GULP energy per Si atom -12393.311391 kJ/mol
# Density = 2.017298 g / cm^3
# Si number density = 20.218995 Si / 1000 Ang^3
#
#
#
# Elastic Constant Matrix: (Units=GPa)
#
#
# Indices 1 2 3 4 5 6 
#
# 1 169.4457 63.6185 59.5497 0.0000 0.0002 0.0000
# 2 63.6185 135.9000 27.4748 0.0000 0.0000 0.0000
# 3 59.5497 27.4748 98.2947 0.0000 0.0003 0.0000
# 4 0.0000 0.0000 0.0000 12.8719 0.0000 0.0000
# 5 0.0002 0.0000 0.0003 0.0000 35.0867 0.0000
# 6 0.0000 0.0000 0.0000 0.0000 0.0000 26.7901
#
#
#
# Elastic Compliance Matrix: (Units=1/GPa)
#
#
# Indices 1 2 3 4 5 6 
#
# 1 0.008609 -0.003154 -0.004334 0.000000 0.000000 0.000000
# 2 -0.003154 0.008954 -0.000592 0.000000 0.000000 0.000000
# 3 -0.004334 -0.000592 0.012965 0.000000 0.000000 0.000000
# 4 0.000000 0.000000 0.000000 0.077689 0.000000 0.000000
# 5 0.000000 0.000000 0.000000 0.000000 0.028501 0.000000
# 6 0.000000 0.000000 0.000000 0.000000 0.000000 0.037327
#
#
# Mechanical properties :
#
#
# Convention : Reuss Voigt Hill
#
# Bulk Modulus (GPa) = 69.59926 78.32516 73.96221
# Shear Modulus (GPa) = 25.64184 31.81623 28.72904
#
# Velocity S-wave (km/s) = 3.56505 3.97114 3.77356
# Velocity P-wave (km/s) = 7.17242 7.73622 7.45965
#
# Compressibility (1/GPa) = 0.01436797
#
# Stress axis : x y z
#
# Youngs Moduli (GPa) = 116.16007 111.67598 77.13290
#
# Poissons Ratio (x) = 0.35221 0.33429
# Poissons Ratio (y) = 0.36635 0.04568
# Poissons Ratio (z) = 0.50343 0.06614
#
# Static dielectric constant tensor:
#      x y z
#    x 3.742650 0.000000 0.000000 
#    y 0.000000 3.815040 0.000000 
#    z 0.000000 0.000000 3.524190 
# 
# 
# High freq. dielectric constant tensor:
#      x y z
#    x 1.800700 0.000000 0.000000 
#    y 0.000000 1.803440 0.000000 
#    z 0.000000 0.000000 1.765080 
# 
# From -- ./inp_files/2988.got.cif
#   From: 2010.03.12/outbox.cif.g09.slc.cpg/sg69_2_cif.got.tgz:2988.got - 2010.04.10 23:52:46.
