data_PCOD8285568
_publ_section_title
;
Structure prediction by ZEFSAII (Michael W. Deem and Ramdas Pophale) SiO2 
 PCOD8285568
Probable space group: F M M M
;
_chemical_formula_sum "Si O2"
_cell_formula_units_Z 192
_cell_length_a 20.123040
_cell_length_b 27.627442
_cell_length_c 17.057591
_cell_angle_alpha 90.000000
_cell_angle_beta 90.000000
_cell_angle_gamma 90.000000
_cell_volume 9483.135656
_symmetry_space_group_name_H-M "F M M M"
_symmetry_group_IT_number 69
_symmetry_cell_setting 'orthorhombic'
loop_
_space_group_symop_operation_xyz
x,y,z
-x,-y,z
x,-y,-z
-x,y,-z
-x,-y,-z
x,y,-z
-x,y,z
x,-y,z
x,1/2+y,1/2+z
-x,1/2-y,1/2+z
x,1/2-y,1/2-z
-x,1/2+y,1/2-z
-x,1/2-y,1/2-z
x,1/2+y,1/2-z
-x,1/2+y,1/2+z
x,1/2-y,1/2+z
1/2+x,y,1/2+z
1/2-x,-y,1/2+z
1/2+x,-y,1/2-z
1/2-x,y,1/2-z
1/2-x,-y,1/2-z
1/2+x,y,1/2-z
1/2-x,y,1/2+z
1/2+x,-y,1/2+z
1/2+x,1/2+y,z
1/2-x,1/2-y,z
1/2+x,1/2-y,-z
1/2-x,1/2+y,-z
1/2-x,1/2-y,-z
1/2+x,1/2+y,-z
1/2-x,1/2+y,z
1/2+x,1/2-y,z
loop_
_atom_site_type_symbol
_atom_site_label
_atom_site_fract_x
_atom_site_fract_y
_atom_site_fract_z
Si Si1 0.000000 0.945386 0.407902
Si Si2 0.141395 0.942736 0.912519
Si Si3 0.076197 0.732664 0.837534
Si Si4 0.306522 0.285044 0.909568
Si Si5 0.243964 0.120010 0.158845
Si Si6 0.500000 0.053097 0.593330
Si Si7 0.611135 0.369396 0.593062
O O1 0.934490 0.915193 0.382793
O O2 0.000000 0.951616 0.500000
O O3 0.000000 0.000000 0.370308
O O4 0.202237 0.928450 0.857143
O O5 0.069670 0.920854 0.882118
O O6 0.134940 0.000000 0.913069
O O7 0.156365 0.923235 0.000000
O O8 0.095636 0.750000 0.750000
O O9 0.120779 0.762923 0.897545
O O10 0.088988 0.675891 0.853480
O O11 0.000000 0.745176 0.855229
O O12 0.250000 0.250000 0.872839
O O13 0.302338 0.336556 0.869241
O O14 0.291673 0.292398 0.000000
O O15 0.250000 0.126251 0.250000
O O16 0.313384 0.117393 0.113164
O O17 0.500000 0.048049 0.500000
O O18 0.500000 0.000000 0.632274
O O19 0.604217 0.357315 0.500000
#
# Coordination Sequence:
#
# PCOD8285568 Si02
#       7
#    16  32  32  32  32  16  32
#     4   9  20  38  64  98 126 154 206 267 308 356
#     4   9  18  36  62  88 116 155 205 255 306 370
#     4  11  23  39  62  94 127 164 201 249 311 380
#     4  11  23  39  62  88 117 158 210 253 294 360
#     4  12  25  39  58  88 125 166 202 257 317 375
#     4   7  12  28  57  86 110 145 191 239 293 351
#     4  11  21  39  67  91 121 169 216 253 312 378
#
# _framework density 20.246468
#
# number of rings (size 3 to 8) (size 9 to 14) (size 15 to 20)
#    0.000    1.667    2.500    4.000    0.000    2.000 
#    1.500    2.500    0.000    1.000    0.000    0.000 
#    0.000    0.000    0.000    0.000    0.000    0.667 
#
# Total GULP energy -594980.879329 kJ/mol
# GULP energy per Si atom -12395.434986 kJ/mol
# Density = 2.020039 g / cm^3
# Si number density = 20.246468 Si / 1000 Ang^3
#
#
#
# Elastic Constant Matrix: (Units=GPa)
#
#
# Indices 1 2 3 4 5 6 
#
# 1 147.1214 55.4622 33.5607 0.0000 0.0000 0.0000
# 2 55.4622 99.9662 36.3011 0.0000 0.0000 0.0000
# 3 33.5607 36.3011 76.0921 0.0000 0.0000 0.0000
# 4 0.0000 0.0000 0.0000 -2.4434 0.0000 0.0000
# 5 0.0000 0.0000 0.0000 0.0000 21.1003 0.0000
# 6 0.0000 0.0000 0.0000 0.0000 0.0000 33.5844
#
#
#
# Elastic Compliance Matrix: (Units=1/GPa)
#
#
# Indices 1 2 3 4 5 6 
#
# 1 0.008812 -0.004206 -0.001880 0.000000 0.000000 0.000000
# 2 -0.004206 0.014107 -0.004875 0.000000 0.000000 0.000000
# 3 -0.001880 -0.004875 0.016297 0.000000 0.000000 0.000000
# 4 0.000000 0.000000 0.000000 -0.409269 0.000000 0.000000
# 5 0.000000 0.000000 0.000000 0.000000 0.047393 0.000000
# 6 0.000000 0.000000 0.000000 0.000000 0.000000 0.029776
#
#
# Mechanical properties :
#
#
# Convention : Reuss Voigt Hill
#
# Bulk Modulus (GPa) = 57.82422 63.75866 60.79144
# Shear Modulus (GPa) = -18.85376 23.63864 2.39244
#
# Velocity S-wave (km/s) = -3.05489 3.42064 1.08822
# Velocity P-wave (km/s) = 4.02232 6.86736 5.62760
#
# Compressibility (1/GPa) = 0.01729379
#
# Stress axis : x y z
#
# Youngs Moduli (GPa) = 113.48746 70.88550 61.36189
#
# Poissons Ratio (x) = 0.29815 0.11535
# Poissons Ratio (y) = 0.47734 0.29914
# Poissons Ratio (z) = 0.21333 0.34557
#
# Static dielectric constant tensor:
#      x y z
#    x 4.029810 0.000000 0.000000 
#    y 0.000000 3.674180 0.000000 
#    z 0.000000 0.000000 3.473680 
# 
# 
# High freq. dielectric constant tensor:
#      x y z
#    x 1.812060 0.000000 0.000000 
#    y 0.000000 1.780160 0.000000 
#    z 0.000000 0.000000 1.770390 
# 
# From -- ./inp_files/23733.got.cif
#   From: 2010.03.12/outbox.cif.g09.slc.cpg/sg69_12_cif.got.tgz:23733.got - 2010.04.10 23:52:46.
