data_PCOD8285358
_publ_section_title
;
Structure prediction by ZEFSAII (Michael W. Deem and Ramdas Pophale) SiO2 
 PCOD8285358
Probable space group: F M M M
;
_chemical_formula_sum "Si O2"
_cell_formula_units_Z 176
_cell_length_a 15.822359
_cell_length_b 19.742761
_cell_length_c 25.292496
_cell_angle_alpha 90.000000
_cell_angle_beta 90.000000
_cell_angle_gamma 90.000000
_cell_volume 7900.795343
_symmetry_space_group_name_H-M "F M M M"
_symmetry_group_IT_number 69
_symmetry_cell_setting 'orthorhombic'
loop_
_space_group_symop_operation_xyz
x,y,z
-x,-y,z
x,-y,-z
-x,y,-z
-x,-y,-z
x,y,-z
-x,y,z
x,-y,z
x,1/2+y,1/2+z
-x,1/2-y,1/2+z
x,1/2-y,1/2-z
-x,1/2+y,1/2-z
-x,1/2-y,1/2-z
x,1/2+y,1/2-z
-x,1/2+y,1/2+z
x,1/2-y,1/2+z
1/2+x,y,1/2+z
1/2-x,-y,1/2+z
1/2+x,-y,1/2-z
1/2-x,y,1/2-z
1/2-x,-y,1/2-z
1/2+x,y,1/2-z
1/2-x,y,1/2+z
1/2+x,-y,1/2+z
1/2+x,1/2+y,z
1/2-x,1/2-y,z
1/2+x,1/2-y,-z
1/2-x,1/2+y,-z
1/2-x,1/2-y,-z
1/2+x,1/2+y,-z
1/2-x,1/2+y,z
1/2+x,1/2-y,z
loop_
_atom_site_type_symbol
_atom_site_label
_atom_site_fract_x
_atom_site_fract_y
_atom_site_fract_z
Si Si1 0.900071 0.663220 0.703206
Si Si2 0.096395 0.074014 0.299228
Si Si3 0.678400 0.630951 0.394904
Si Si4 0.250000 0.750000 0.829326
Si Si5 0.848248 0.423748 0.396550
Si Si6 0.161329 0.709404 0.000000
Si Si7 0.093578 0.649258 0.500000
O O1 0.865366 0.623512 0.754877
O O2 0.836261 0.728159 0.702033
O O3 0.890973 0.613392 0.653208
O O4 0.000000 0.686010 0.707104
O O5 0.101977 0.105859 0.358038
O O6 0.000000 0.064559 0.284590
O O7 0.140974 0.000000 0.296514
O O8 0.730840 0.688718 0.366824
O O9 0.746339 0.569988 0.396167
O O10 0.646279 0.659109 0.450756
O O11 0.885604 0.500000 0.400331
O O12 0.862696 0.378682 0.448109
O O13 0.250000 0.750000 0.000000
O O14 0.092052 0.768686 0.000000
O O15 0.000000 0.621057 0.500000
#
# Coordination Sequence:
#
# PCOD8285358 Si02
#       7
#    32  32  32  16  32  16  16
#     4  10  22  41  65  92 130 177 217 264 326 386
#     4  10  23  43  64  91 127 166 214 269 320 375
#     4  11  22  39  65  89 124 166 210 264 319 377
#     4  10  22  38  60  96 130 159 216 267 312 384
#     4  11  22  37  61  94 129 171 219 262 317 389
#     4  12  20  44  66  86 123 167 210 255 315 387
#     4  12  25  39  60  94 131 163 205 269 330 382
#
# _framework density 22.276239
#
# number of rings (size 3 to 8) (size 9 to 14) (size 15 to 20)
#    0.000    1.273    2.727    3.000    0.000    8.364 
#    0.000    7.727    0.000    1.091    0.000    0.000 
#    0.000    0.000    0.000    0.000    0.000    0.000 
#
# Total GULP energy -545207.104036 kJ/mol
# GULP energy per Si atom -12391.070546 kJ/mol
# Density = 2.222554 g / cm^3
# Si number density = 22.276239 Si / 1000 Ang^3
#
#
#
# Elastic Constant Matrix: (Units=GPa)
#
#
# Indices 1 2 3 4 5 6 
#
# 1 84.4135 33.8528 26.7615 0.0000 0.0000 0.0000
# 2 33.8528 99.2349 45.8078 0.0000 0.0000 0.0000
# 3 26.7615 45.8078 169.6193 0.0000 0.0000 0.0000
# 4 0.0000 0.0000 0.0000 41.2204 0.0000 0.0000
# 5 0.0000 0.0000 0.0000 0.0000 42.7220 0.0000
# 6 0.0000 0.0000 0.0000 0.0000 0.0000 26.2805
#
#
#
# Elastic Compliance Matrix: (Units=1/GPa)
#
#
# Indices 1 2 3 4 5 6 
#
# 1 0.013883 -0.004255 -0.001041 0.000000 0.000000 0.000000
# 2 -0.004255 0.012817 -0.002790 0.000000 0.000000 0.000000
# 3 -0.001041 -0.002790 0.006813 0.000000 0.000000 0.000000
# 4 0.000000 0.000000 0.000000 0.024260 0.000000 0.000000
# 5 0.000000 0.000000 0.000000 0.000000 0.023407 0.000000
# 6 0.000000 0.000000 0.000000 0.000000 0.000000 0.038051
#
#
# Mechanical properties :
#
#
# Convention : Reuss Voigt Hill
#
# Bulk Modulus (GPa) = 57.67007 62.90132 60.28569
# Shear Modulus (GPa) = 35.41477 38.50094 36.95786
#
# Velocity S-wave (km/s) = 3.99156 4.16184 4.07759
# Velocity P-wave (km/s) = 6.86936 7.16888 7.02072
#
# Compressibility (1/GPa) = 0.01734002
#
# Stress axis : x y z
#
# Youngs Moduli (GPa) = 72.03000 78.02357 146.77239
#
# Poissons Ratio (x) = 0.33202 0.15281
# Poissons Ratio (y) = 0.30652 0.40948
# Poissons Ratio (z) = 0.07499 0.21768
#
# Static dielectric constant tensor:
#      x y z
#    x 6.832280 0.000000 0.000000 
#    y 0.000000 5.901900 0.000000 
#    z 0.000000 0.000000 4.166090 
# 
# 
# High freq. dielectric constant tensor:
#      x y z
#    x 1.863280 0.000000 0.000000 
#    y 0.000000 1.884000 0.000000 
#    z 0.000000 0.000000 1.888000 
# 
# From -- ./inp_files/41880.got.cif
#   From: 2010.03.12/outbox.cif.g09.slc.cpg/sg69_21_cif.got.tgz:41880.got - 2010.04.10 23:52:46.
