data_PCOD8285478
_publ_section_title
;
Structure prediction by ZEFSAII (Michael W. Deem and Ramdas Pophale) SiO2 
 PCOD8285478
Probable space group: F M M M
;
_chemical_formula_sum "Si O2"
_cell_formula_units_Z 176
_cell_length_a 26.806736
_cell_length_b 14.074924
_cell_length_c 27.891536
_cell_angle_alpha 90.000000
_cell_angle_beta 90.000000
_cell_angle_gamma 90.000000
_cell_volume 10523.553845
_symmetry_space_group_name_H-M "F M M M"
_symmetry_group_IT_number 69
_symmetry_cell_setting 'orthorhombic'
loop_
_space_group_symop_operation_xyz
x,y,z
-x,-y,z
x,-y,-z
-x,y,-z
-x,-y,-z
x,y,-z
-x,y,z
x,-y,z
x,1/2+y,1/2+z
-x,1/2-y,1/2+z
x,1/2-y,1/2-z
-x,1/2+y,1/2-z
-x,1/2-y,1/2-z
x,1/2+y,1/2-z
-x,1/2+y,1/2+z
x,1/2-y,1/2+z
1/2+x,y,1/2+z
1/2-x,-y,1/2+z
1/2+x,-y,1/2-z
1/2-x,y,1/2-z
1/2-x,-y,1/2-z
1/2+x,y,1/2-z
1/2-x,y,1/2+z
1/2+x,-y,1/2+z
1/2+x,1/2+y,z
1/2-x,1/2-y,z
1/2+x,1/2-y,-z
1/2-x,1/2+y,-z
1/2-x,1/2-y,-z
1/2+x,1/2+y,-z
1/2-x,1/2+y,z
1/2+x,1/2-y,z
loop_
_atom_site_type_symbol
_atom_site_label
_atom_site_fract_x
_atom_site_fract_y
_atom_site_fract_z
Si Si1 0.348637 0.297031 0.365135
Si Si2 0.556654 0.386500 0.396093
Si Si3 0.806086 0.605317 0.381780
Si Si4 0.717251 0.111798 0.945692
Si Si5 0.441713 0.102232 0.000000
Si Si6 0.273950 0.606731 0.298556
O O1 0.405397 0.334417 0.359913
O O2 0.348993 0.182642 0.371475
O O3 0.324206 0.341761 0.412326
O O4 0.318914 0.326561 0.316986
O O5 0.500000 0.358917 0.381993
O O6 0.563293 0.500000 0.394286
O O7 0.570850 0.346007 0.449694
O O8 0.829937 0.500000 0.388760
O O9 0.773436 0.636932 0.428130
O O10 0.768868 0.604321 0.337564
O O11 0.709313 0.000000 0.941439
O O12 0.710565 0.148314 0.000000
O O13 0.500000 0.081564 0.000000
O O14 0.413765 0.000000 0.000000
O O15 0.294738 0.500000 0.289636
O O16 0.250000 0.648951 0.250000
#
# Coordination Sequence:
#
# PCOD8285478 Si02
#       6
#    32  32  32  32  16  32
#     4  11  19  27  45  68  90 120 158 185 219 276
#     4   9  17  29  44  65  93 119 146 186 233 277
#     4   9  19  32  42  59  89 121 155 193 224 258
#     4   9  17  28  42  63  92 120 146 182 226 273
#     4   7  12  24  40  58  84 115 141 173 220 266
#     4   9  17  30  48  71  97 119 142 180 229 279
#
# _framework density 16.724388000000001
#
# number of rings (size 3 to 8) (size 9 to 14) (size 15 to 20)
#    0.000    2.818    0.000    6.000    1.273    2.909 
#    0.000    0.000    0.000    0.545    0.000    2.545 
#    0.000    6.545    0.000    0.000    0.000    0.000 
#
# Total GULP energy -545176.541552 kJ/mol
# GULP energy per Si atom -12390.375944 kJ/mol
# Density = 1.668632 g / cm^3
# Si number density = 16.724388 Si / 1000 Ang^3
#
#
#
# Elastic Constant Matrix: (Units=GPa)
#
#
# Indices 1 2 3 4 5 6 
#
# 1 88.7545 50.3603 29.6608 0.0000 0.0000 0.0000
# 2 50.3603 66.5987 12.4221 0.0000 0.0000 0.0000
# 3 29.6608 12.4221 83.5225 0.0000 0.0000 0.0000
# 4 0.0000 0.0000 0.0000 7.5046 0.0000 0.0000
# 5 0.0000 0.0000 0.0000 0.0000 17.4157 0.0000
# 6 0.0000 0.0000 0.0000 0.0000 0.0000 19.5790
#
#
#
# Elastic Compliance Matrix: (Units=1/GPa)
#
#
# Indices 1 2 3 4 5 6 
#
# 1 0.021923 -0.015557 -0.005472 0.000000 0.000000 0.000000
# 2 -0.015557 0.026483 0.001586 0.000000 0.000000 0.000000
# 3 -0.005472 0.001586 0.013680 0.000000 0.000000 0.000000
# 4 0.000000 0.000000 0.000000 0.133252 0.000000 0.000000
# 5 0.000000 0.000000 0.000000 0.000000 0.057420 0.000000
# 6 0.000000 0.000000 0.000000 0.000000 0.000000 0.051075
#
#
# Mechanical properties :
#
#
# Convention : Reuss Voigt Hill
#
# Bulk Modulus (GPa) = 43.10190 47.08468 45.09329
# Shear Modulus (GPa) = 14.26730 18.66202 16.46466
#
# Velocity S-wave (km/s) = 2.92393 3.34407 3.14103
# Velocity P-wave (km/s) = 6.10139 6.56695 6.33845
#
# Compressibility (1/GPa) = 0.02320083
#
# Stress axis : x y z
#
# Youngs Moduli (GPa) = 45.61481 37.75977 73.09922
#
# Poissons Ratio (x) = 0.58742 0.39997
# Poissons Ratio (y) = 0.70962 -0.11592
# Poissons Ratio (z) = 0.24958 -0.05988
#
# Static dielectric constant tensor:
#      x y z
#    x 2.881950 0.000000 0.000000 
#    y 0.000000 3.209490 0.000000 
#    z 0.000000 0.000000 3.303810 
# 
# 
# High freq. dielectric constant tensor:
#      x y z
#    x 1.601790 0.000000 0.000000 
#    y 0.000000 1.630800 0.000000 
#    z 0.000000 0.000000 1.635520 
# 
# From -- ./inp_files/18287.got.cif
#   From: 2010.03.12/outbox.cif.g09.slc.cpg/sg69_10_cif.got.tgz:18287.got - 2010.04.10 23:52:46.
