data_PCOD8285264
_publ_section_title
;
Structure prediction by ZEFSAII (Michael W. Deem and Ramdas Pophale) SiO2 
 PCOD8285264
Probable space group: F M M M
;
_chemical_formula_sum "Si O2"
_cell_formula_units_Z 160
_cell_length_a 8.566243
_cell_length_b 32.846810
_cell_length_c 29.059283
_cell_angle_alpha 90.000000
_cell_angle_beta 90.000000
_cell_angle_gamma 90.000000
_cell_volume 8176.519611
_symmetry_space_group_name_H-M "F M M M"
_symmetry_group_IT_number 69
_symmetry_cell_setting 'orthorhombic'
loop_
_space_group_symop_operation_xyz
x,y,z
-x,-y,z
x,-y,-z
-x,y,-z
-x,-y,-z
x,y,-z
-x,y,z
x,-y,z
x,1/2+y,1/2+z
-x,1/2-y,1/2+z
x,1/2-y,1/2-z
-x,1/2+y,1/2-z
-x,1/2-y,1/2-z
x,1/2+y,1/2-z
-x,1/2+y,1/2+z
x,1/2-y,1/2+z
1/2+x,y,1/2+z
1/2-x,-y,1/2+z
1/2+x,-y,1/2-z
1/2-x,y,1/2-z
1/2-x,-y,1/2-z
1/2+x,y,1/2-z
1/2-x,y,1/2+z
1/2+x,-y,1/2+z
1/2+x,1/2+y,z
1/2-x,1/2-y,z
1/2+x,1/2-y,-z
1/2-x,1/2+y,-z
1/2-x,1/2-y,-z
1/2+x,1/2+y,-z
1/2-x,1/2+y,z
1/2+x,1/2-y,z
loop_
_atom_site_type_symbol
_atom_site_label
_atom_site_fract_x
_atom_site_fract_y
_atom_site_fract_z
Si Si1 0.183058 0.089049 0.700822
Si Si2 0.182976 0.000000 0.335395
Si Si3 0.321000 0.138513 0.382294
Si Si4 0.815714 0.206154 0.551994
Si Si5 0.317597 0.500000 0.066427
Si Si6 0.174837 0.917773 0.549965
O O1 0.250000 0.101285 0.750000
O O2 0.248936 0.122738 0.665449
O O3 0.000000 0.094278 0.700926
O O4 0.227666 0.041629 0.691324
O O5 0.293258 0.000000 0.379216
O O6 0.000000 0.000000 0.348798
O O7 0.500000 0.149909 0.374143
O O8 0.235971 0.176208 0.407002
O O9 0.304485 0.101427 0.417511
O O10 0.757620 0.193724 0.500000
O O11 0.750000 0.250000 0.565213
O O12 0.000000 0.207711 0.552333
O O13 0.500000 0.500000 0.054288
O O14 0.228539 0.463304 0.042568
O O15 0.171275 0.896040 0.500000
O O16 0.000000 0.914963 0.572063
#
# Coordination Sequence:
#
# PCOD8285264 Si02
#       6
#    32  16  32  32  16  32
#     4  11  23  40  62  87 117 155 200 251 306 360
#     4  10  21  38  60  81 112 155 198 246 304 359
#     4  12  24  38  59  88 120 154 196 245 295 350
#     4  10  21  39  64  94 127 162 198 238 289 349
#     4  12  23  34  53  78 109 148 194 244 292 349
#     4  11  23  38  55  76 109 154 198 240 292 351
#
# _framework density 19.56823
#
# number of rings (size 3 to 8) (size 9 to 14) (size 15 to 20)
#    0.000    1.000    2.000    5.700    0.000    7.200 
#    0.000    0.000    0.000    0.600    0.000    4.200 
#    0.000    0.000    0.000    0.000    0.000    0.000 
#
# Total GULP energy -495753.575766 kJ/mol
# GULP energy per Si atom -12393.839394 kJ/mol
# Density = 1.952369 g / cm^3
# Si number density = 19.568230 Si / 1000 Ang^3
#
#
#
# Elastic Constant Matrix: (Units=GPa)
#
#
# Indices 1 2 3 4 5 6 
#
# 1 95.6350 28.0465 42.7218 0.0000 0.0000 0.0000
# 2 28.0465 116.9110 59.9191 0.0000 0.0000 0.0000
# 3 42.7218 59.9191 148.7206 0.0000 0.0000 0.0000
# 4 0.0000 0.0000 0.0000 11.1754 0.0000 0.0000
# 5 0.0000 0.0000 0.0000 0.0000 30.0384 0.0000
# 6 0.0000 0.0000 0.0000 0.0000 0.0000 32.2244
#
#
#
# Elastic Compliance Matrix: (Units=1/GPa)
#
#
# Indices 1 2 3 4 5 6 
#
# 1 0.012181 -0.001423 -0.002926 0.000000 0.000000 0.000000
# 2 -0.001423 0.010945 -0.004001 0.000000 0.000000 0.000000
# 3 -0.002926 -0.004001 0.009177 0.000000 0.000000 0.000000
# 4 0.000000 0.000000 0.000000 0.089482 0.000000 0.000000
# 5 0.000000 0.000000 0.000000 0.000000 0.033291 0.000000
# 6 0.000000 0.000000 0.000000 0.000000 0.000000 0.031032
#
#
# Mechanical properties :
#
#
# Convention : Reuss Voigt Hill
#
# Bulk Modulus (GPa) = 64.08867 69.18237 66.63552
# Shear Modulus (GPa) = 24.03748 30.05961 27.04854
#
# Velocity S-wave (km/s) = 3.50865 3.92362 3.72192
# Velocity P-wave (km/s) = 7.01688 7.48048 7.25239
#
# Compressibility (1/GPa) = 0.01560338
#
# Stress axis : x y z
#
# Youngs Moduli (GPa) = 82.09744 91.36175 108.97255
#
# Poissons Ratio (x) = 0.12996 0.31884
# Poissons Ratio (y) = 0.11678 0.43603
# Poissons Ratio (z) = 0.24021 0.36556
#
# Static dielectric constant tensor:
#      x y z
#    x 3.560310 0.000000 0.000000 
#    y 0.000000 3.617790 0.000000 
#    z 0.000000 0.000000 3.502460 
# 
# 
# High freq. dielectric constant tensor:
#      x y z
#    x 1.770730 0.000000 0.000000 
#    y 0.000000 1.751320 0.000000 
#    z 0.000000 0.000000 1.760580 
# 
# From -- ./inp_files/44610.got.cif
#   From: 2010.03.12/outbox.cif.g09.slc.cpg/sg69_23_cif.got.tgz:44610.got - 2010.04.10 23:52:46.
