data_PCOD8285675
_publ_section_title
;
Structure prediction by ZEFSAII (Michael W. Deem and Ramdas Pophale) SiO2 
 PCOD8285675
Probable space group: F M M M
;
_chemical_formula_sum "Si O2"
_cell_formula_units_Z 144
_cell_length_a 27.304650
_cell_length_b 9.089958
_cell_length_c 31.911382
_cell_angle_alpha 90.000000
_cell_angle_beta 90.000000
_cell_angle_gamma 90.000000
_cell_volume 7920.345073
_symmetry_space_group_name_H-M "F M M M"
_symmetry_group_IT_number 69
_symmetry_cell_setting 'orthorhombic'
loop_
_space_group_symop_operation_xyz
x,y,z
-x,-y,z
x,-y,-z
-x,y,-z
-x,-y,-z
x,y,-z
-x,y,z
x,-y,z
x,1/2+y,1/2+z
-x,1/2-y,1/2+z
x,1/2-y,1/2-z
-x,1/2+y,1/2-z
-x,1/2-y,1/2-z
x,1/2+y,1/2-z
-x,1/2+y,1/2+z
x,1/2-y,1/2+z
1/2+x,y,1/2+z
1/2-x,-y,1/2+z
1/2+x,-y,1/2-z
1/2-x,y,1/2-z
1/2-x,-y,1/2-z
1/2+x,y,1/2-z
1/2-x,y,1/2+z
1/2+x,-y,1/2+z
1/2+x,1/2+y,z
1/2-x,1/2-y,z
1/2+x,1/2-y,-z
1/2-x,1/2+y,-z
1/2-x,1/2-y,-z
1/2+x,1/2+y,-z
1/2-x,1/2+y,z
1/2+x,1/2-y,z
loop_
_atom_site_type_symbol
_atom_site_label
_atom_site_fract_x
_atom_site_fract_y
_atom_site_fract_z
Si Si1 0.945999 0.325384 0.623416
Si Si2 0.102416 0.326154 0.292579
Si Si3 0.197293 0.324948 0.000000
Si Si4 0.299442 0.669783 0.835554
Si Si5 0.649779 0.327874 0.077656
O O1 0.944852 0.500000 0.625035
O O2 0.932623 0.268955 0.669998
O O3 0.905461 0.276058 0.589479
O O4 0.000000 0.266163 0.610674
O O5 0.098272 0.500000 0.287149
O O6 0.085267 0.250000 0.250000
O O7 0.157788 0.278759 0.304131
O O8 0.250000 0.250000 0.000000
O O9 0.167069 0.275040 0.040327
O O10 0.203802 0.500000 0.000000
O O11 0.289134 0.500000 0.829518
O O12 0.250000 0.750000 0.823068
O O13 0.314707 0.702504 0.883285
O O14 0.651228 0.500000 0.064743
#
# Coordination Sequence:
#
# PCOD8285675 Si02
#       5
#    32  32  16  32  32
#     4   8  15  31  55  77  98 129 168 208 247 289
#     4   9  18  31  46  69  99 127 161 205 249 292
#     4  12  24  36  53  78 107 135 162 197 243 292
#     4   9  18  31  47  67  93 127 164 203 245 291
#     4   9  18  34  54  76 101 129 166 207 245 290
#
# _framework density 18.181025999999999
#
# number of rings (size 3 to 8) (size 9 to 14) (size 15 to 20)
#    0.000    2.889    0.000    4.333    0.000    4.444 
#    0.000    6.111    0.000    5.333    0.000    0.000 
#    0.000    0.000    0.000    0.000    0.000    0.000 
#
# Total GULP energy -446254.651278 kJ/mol
# GULP energy per Si atom -12395.962536 kJ/mol
# Density = 1.813965 g / cm^3
# Si number density = 18.181026 Si / 1000 Ang^3
#
#
#
# Elastic Constant Matrix: (Units=GPa)
#
#
# Indices 1 2 3 4 5 6 
#
# 1 136.3550 33.4447 42.4595 0.0000 0.0000 0.0004
# 2 33.4447 52.8793 36.9989 0.0000 0.0000 0.0004
# 3 42.4595 36.9989 96.6319 0.0000 0.0000 0.0001
# 4 0.0000 0.0000 0.0000 30.7866 0.0000 0.0000
# 5 0.0000 0.0000 0.0000 0.0000 16.5329 0.0000
# 6 0.0004 0.0004 0.0001 0.0000 0.0000 18.0858
#
#
#
# Elastic Compliance Matrix: (Units=1/GPa)
#
#
# Indices 1 2 3 4 5 6 
#
# 1 0.009085 -0.004034 -0.002448 0.000000 0.000000 0.000000
# 2 -0.004034 0.027622 -0.008804 0.000000 0.000000 0.000000
# 3 -0.002448 -0.008804 0.014795 0.000000 0.000000 0.000000
# 4 0.000000 0.000000 0.000000 0.032482 0.000000 0.000000
# 5 0.000000 0.000000 0.000000 0.000000 0.060485 0.000000
# 6 0.000000 0.000000 0.000000 0.000000 0.000000 0.055292
#
#
# Mechanical properties :
#
#
# Convention : Reuss Voigt Hill
#
# Bulk Modulus (GPa) = 47.77324 56.85249 52.31286
# Shear Modulus (GPa) = 21.06963 24.61194 22.84079
#
# Velocity S-wave (km/s) = 3.40793 3.68328 3.54827
# Velocity P-wave (km/s) = 6.46674 7.03042 6.75447
#
# Compressibility (1/GPa) = 0.02093222
#
# Stress axis : x y z
#
# Youngs Moduli (GPa) = 110.06765 36.20306 67.59126
#
# Poissons Ratio (x) = 0.14603 0.16544
# Poissons Ratio (y) = 0.44397 0.59505
# Poissons Ratio (z) = 0.26940 0.31872
#
# Static dielectric constant tensor:
#      x y z
#    x 3.726630 0.000000 0.000000 
#    y 0.000000 3.003060 0.000000 
#    z 0.000000 0.000000 3.298550 
# 
# 
# High freq. dielectric constant tensor:
#      x y z
#    x 1.712090 0.000000 0.000000 
#    y 0.000000 1.672270 0.000000 
#    z 0.000000 0.000000 1.699370 
# 
# From -- ./inp_files/5532.got.cif
#   From: 2010.03.12/outbox.cif.g09.slc.cpg/sg69_3_cif.got.tgz:5532.got - 2010.04.10 23:52:46.
