data_PCOD8285649
_publ_section_title
;
Structure prediction by ZEFSAII (Michael W. Deem and Ramdas Pophale) SiO2 
 PCOD8285649
Probable space group: F M M M
;
_chemical_formula_sum "Si O2"
_cell_formula_units_Z 112
_cell_length_a 15.134220
_cell_length_b 13.619255
_cell_length_c 24.657756
_cell_angle_alpha 90.000000
_cell_angle_beta 90.000000
_cell_angle_gamma 90.000000
_cell_volume 5082.377797
_symmetry_space_group_name_H-M "F M M M"
_symmetry_group_IT_number 69
_symmetry_cell_setting 'orthorhombic'
loop_
_space_group_symop_operation_xyz
x,y,z
-x,-y,z
x,-y,-z
-x,y,-z
-x,-y,-z
x,y,-z
-x,y,z
x,-y,z
x,1/2+y,1/2+z
-x,1/2-y,1/2+z
x,1/2-y,1/2-z
-x,1/2+y,1/2-z
-x,1/2-y,1/2-z
x,1/2+y,1/2-z
-x,1/2+y,1/2+z
x,1/2-y,1/2+z
1/2+x,y,1/2+z
1/2-x,-y,1/2+z
1/2+x,-y,1/2-z
1/2-x,y,1/2-z
1/2-x,-y,1/2-z
1/2+x,y,1/2-z
1/2-x,y,1/2+z
1/2+x,-y,1/2+z
1/2+x,1/2+y,z
1/2-x,1/2-y,z
1/2+x,1/2-y,-z
1/2-x,1/2+y,-z
1/2-x,1/2-y,-z
1/2+x,1/2+y,-z
1/2-x,1/2+y,z
1/2+x,1/2-y,z
loop_
_atom_site_type_symbol
_atom_site_label
_atom_site_fract_x
_atom_site_fract_y
_atom_site_fract_z
Si Si1 0.400528 0.103124 0.000000
Si Si2 0.679276 0.107840 0.205688
Si Si3 0.500000 0.364305 0.240607
Si Si4 0.847561 0.232344 0.598344
Si Si5 0.000000 0.612634 0.615534
O O1 0.387579 0.158791 0.944179
O O2 0.500000 0.072300 0.000000
O O3 0.345480 0.000000 0.000000
O O4 0.750000 0.148353 0.250000
O O5 0.586039 0.089109 0.233391
O O6 0.664521 0.186024 0.157986
O O7 0.711364 0.000000 0.184062
O O8 0.500000 0.250000 0.250000
O O9 0.500000 0.395730 0.179115
O O10 0.750000 0.250000 0.575393
O O11 0.910363 0.328980 0.598522
O O12 0.000000 0.500000 0.591459
#
# Coordination Sequence:
#
# PCOD8285649 Si02
#       5
#    16  32  16  32  16
#     4  11  25  48  76 103 132 172 236 304 356 416
#     4  11  24  41  67 103 140 179 230 288 352 424
#     4  12  22  39  63  92 133 187 228 275 344 414
#     4  12  25  45  73 100 140 186 234 289 360 422
#     4  12  26  44  66 101 146 190 238 291 354 427
#
# _framework density 22.036930000000002
#
# number of rings (size 3 to 8) (size 9 to 14) (size 15 to 20)
#    0.000    0.429    4.286    4.286    0.000    4.571 
#    0.000    1.429    0.000    0.857    0.000    0.000 
#    0.000    0.000    0.000    0.000    0.000    0.000 
#
# Total GULP energy -346923.269708 kJ/mol
# GULP energy per Si atom -12390.116775 kJ/mol
# Density = 2.198677 g / cm^3
# Si number density = 22.036930 Si / 1000 Ang^3
#
#
#
# Elastic Constant Matrix: (Units=GPa)
#
#
# Indices 1 2 3 4 5 6 
#
# 1 145.9606 45.9673 31.8180 0.0000 0.0000 0.0000
# 2 45.9673 185.0927 51.0897 0.0000 0.0000 0.0000
# 3 31.8180 51.0897 106.9952 0.0000 0.0000 0.0000
# 4 0.0000 0.0000 0.0000 25.8178 0.0000 0.0000
# 5 0.0000 0.0000 0.0000 0.0000 -423.6049 0.0000
# 6 0.0000 0.0000 0.0000 0.0000 0.0000 63.5002
#
#
#
# Elastic Compliance Matrix: (Units=1/GPa)
#
#
# Indices 1 2 3 4 5 6 
#
# 1 0.007657 -0.001466 -0.001577 0.000000 0.000000 0.000000
# 2 -0.001466 0.006504 -0.002669 0.000000 0.000000 0.000000
# 3 -0.001577 -0.002669 0.011090 0.000000 0.000000 0.000000
# 4 0.000000 0.000000 0.000000 0.038733 0.000000 0.000000
# 5 0.000000 0.000000 0.000000 0.000000 -0.002361 0.000000
# 6 0.000000 0.000000 0.000000 0.000000 0.000000 0.015748
#
#
# Mechanical properties :
#
#
# Convention : Reuss Voigt Hill
#
# Bulk Modulus (GPa) = 72.33223 77.31096 74.82159
# Shear Modulus (GPa) = 53.53104 -46.24583 3.64261
#
# Velocity S-wave (km/s) = 4.93399 -4.58597 1.28707
# Velocity P-wave (km/s) = 8.08415 2.66778 6.01957
#
# Compressibility (1/GPa) = 0.01382510
#
# Stress axis : x y z
#
# Youngs Moduli (GPa) = 130.60524 153.75932 90.17328
#
# Poissons Ratio (x) = 0.22546 0.14218
# Poissons Ratio (y) = 0.19150 0.24071
# Poissons Ratio (z) = 0.20594 0.41045
#
# Static dielectric constant tensor:
#      x y z
#    x 4.303600 0.000000 0.000000 
#    y 0.000000 4.261460 0.000000 
#    z 0.000000 0.000000 3.789360 
# 
# 
# High freq. dielectric constant tensor:
#      x y z
#    x 1.880140 0.000000 0.000000 
#    y 0.000000 1.890690 0.000000 
#    z 0.000000 0.000000 1.852010 
# 
# From -- ./inp_files/17242.got.cif
#   From: 2010.03.12/outbox.cif.g09.slc.cpg/sg69_9_cif.got.tgz:17242.got - 2010.04.10 23:52:46.
