data_PCOD8285350
_publ_section_title
;
Structure prediction by ZEFSAII (Michael W. Deem and Ramdas Pophale) SiO2 
 PCOD8285350
Probable space group: F M M M
;
_chemical_formula_sum "Si O2"
_cell_formula_units_Z 224
_cell_length_a 29.775301
_cell_length_b 22.713298
_cell_length_c 16.891873
_cell_angle_alpha 90.000000
_cell_angle_beta 90.000000
_cell_angle_gamma 90.000000
_cell_volume 11423.894059
_symmetry_space_group_name_H-M "F M M M"
_symmetry_group_IT_number 69
_symmetry_cell_setting 'orthorhombic'
loop_
_space_group_symop_operation_xyz
x,y,z
-x,-y,z
x,-y,-z
-x,y,-z
-x,-y,-z
x,y,-z
-x,y,z
x,-y,z
x,1/2+y,1/2+z
-x,1/2-y,1/2+z
x,1/2-y,1/2-z
-x,1/2+y,1/2-z
-x,1/2-y,1/2-z
x,1/2+y,1/2-z
-x,1/2+y,1/2+z
x,1/2-y,1/2+z
1/2+x,y,1/2+z
1/2-x,-y,1/2+z
1/2+x,-y,1/2-z
1/2-x,y,1/2-z
1/2-x,-y,1/2-z
1/2+x,y,1/2-z
1/2-x,y,1/2+z
1/2+x,-y,1/2+z
1/2+x,1/2+y,z
1/2-x,1/2-y,z
1/2+x,1/2-y,-z
1/2-x,1/2+y,-z
1/2-x,1/2-y,-z
1/2+x,1/2+y,-z
1/2-x,1/2+y,z
1/2+x,1/2-y,z
loop_
_atom_site_type_symbol
_atom_site_label
_atom_site_fract_x
_atom_site_fract_y
_atom_site_fract_z
Si Si1 0.294844 0.217244 0.088947
Si Si2 0.376889 0.400032 0.816392
Si Si3 0.886216 0.717428 0.590198
Si Si4 0.794635 0.892513 0.697826
Si Si5 0.551721 0.934292 0.196732
Si Si6 0.333173 0.000000 0.408492
Si Si7 0.551948 0.175488 0.908297
Si Si8 0.231534 0.000000 0.595429
O O1 0.250000 0.250000 0.114762
O O2 0.334669 0.263923 0.093582
O O3 0.303254 0.166744 0.150937
O O4 0.290477 0.191368 0.000000
O O5 0.391343 0.337394 0.851536
O O6 0.337557 0.399347 0.752598
O O7 0.420962 0.427633 0.777502
O O8 0.360504 0.441769 0.886666
O O9 0.899885 0.700757 0.500000
O O10 0.918290 0.769800 0.622255
O O11 0.750000 0.889838 0.750000
O O12 0.792850 0.943625 0.632497
O O13 0.500000 0.925275 0.219007
O O14 0.567285 0.884617 0.134431
O O15 0.559710 0.000000 0.160936
O O16 0.325709 0.000000 0.500000
O O17 0.282912 0.000000 0.372385
O O18 0.500000 0.190524 0.891939
O O19 0.561667 0.164250 0.000000
O O20 0.227054 0.000000 0.500000
#
# Coordination Sequence:
#
# PCOD8285350 Si02
#       8
#    32  32  32  32  32  16  32  16
#     4  10  22  38  55  78 116 158 194 232 284 352
#     4  12  23  39  63  88 122 156 197 251 305 357
#     4  10  22  40  60  87 118 156 203 248 296 358
#     4  12  23  37  58  88 119 149 194 247 297 353
#     4  10  22  39  61  89 124 163 200 246 303 358
#     4  11  23  41  64  86 113 158 207 245 295 364
#     4   9  19  38  63  90 121 158 203 250 296 354
#     4  11  24  42  62  84 115 157 202 249 300 355
#
# _framework density 19.608025000000001
#
# number of rings (size 3 to 8) (size 9 to 14) (size 15 to 20)
#    0.000    1.429    2.143    3.214    0.000    4.571 
#    0.000    3.571    0.000    1.714    0.000    0.000 
#    0.000    0.000    0.000    0.000    0.000    0.000 
#
# Total GULP energy -694509.511251 kJ/mol
# GULP energy per Si atom -12401.955558 kJ/mol
# Density = 1.956340 g / cm^3
# Si number density = 19.608025 Si / 1000 Ang^3
#
#
#
# Elastic Constant Matrix: (Units=GPa)
#
#
# Indices 1 2 3 4 5 6 
#
# 1 83.9877 46.3136 24.6158 0.0000 0.0000 0.0000
# 2 46.3136 132.4073 46.0406 0.0000 0.0000 0.0000
# 3 24.6158 46.0406 60.3603 0.0000 0.0000 0.0000
# 4 0.0000 0.0000 0.0000 46.1102 0.0000 0.0000
# 5 0.0000 0.0000 0.0000 0.0000 19.9863 0.0000
# 6 0.0000 0.0000 0.0000 0.0000 0.0000 32.0023
#
#
#
# Elastic Compliance Matrix: (Units=1/GPa)
#
#
# Indices 1 2 3 4 5 6 
#
# 1 0.015116 -0.004279 -0.002901 0.000000 0.000000 0.000000
# 2 -0.004279 0.011490 -0.007019 0.000000 0.000000 0.000000
# 3 -0.002901 -0.007019 0.023104 0.000000 0.000000 0.000000
# 4 0.000000 0.000000 0.000000 0.021687 0.000000 0.000000
# 5 0.000000 0.000000 0.000000 0.000000 0.050034 0.000000
# 6 0.000000 0.000000 0.000000 0.000000 0.000000 0.031248
#
#
# Mechanical properties :
#
#
# Convention : Reuss Voigt Hill
#
# Bulk Modulus (GPa) = 46.92055 56.74394 51.83224
# Shear Modulus (GPa) = 26.57021 30.27211 28.42116
#
# Velocity S-wave (km/s) = 3.68512 3.93347 3.81132
# Velocity P-wave (km/s) = 6.48753 7.04496 6.77198
#
# Compressibility (1/GPa) = 0.02131262
#
# Stress axis : x y z
#
# Youngs Moduli (GPa) = 66.15458 87.03455 43.28231
#
# Poissons Ratio (x) = 0.37239 0.12556
# Poissons Ratio (y) = 0.28305 0.30380
# Poissons Ratio (z) = 0.19192 0.61090
#
# Static dielectric constant tensor:
#      x y z
#    x 3.824930 0.000000 0.000000 
#    y 0.000000 3.367730 0.000000 
#    z 0.000000 0.000000 3.574350 
# 
# 
# High freq. dielectric constant tensor:
#      x y z
#    x 1.769790 0.000000 0.000000 
#    y 0.000000 1.772640 0.000000 
#    z 0.000000 0.000000 1.762930 
# 
# From -- ./inp_files/27995.got.cif
#   From: 2010.03.12/outbox.cif.g09.slc.cpg/sg69_14_cif.got.tgz:27995.got - 2010.04.10 23:52:46.
