data_PCOD8285900
_publ_section_title
;
Structure prediction by ZEFSAII (Michael W. Deem and Ramdas Pophale) SiO2 
 PCOD8285900
Probable space group: F D D D
;
_chemical_formula_sum "Si O2"
_cell_formula_units_Z 192
_cell_length_a 30.232390
_cell_length_b 15.171048
_cell_length_c 20.695440
_cell_angle_alpha 90.000000
_cell_angle_beta 90.000000
_cell_angle_gamma 90.000000
_cell_volume 9492.109249
_symmetry_space_group_name_H-M "F D D D"
_symmetry_group_IT_number 70
_space_group.IT_coordinate_system_code '2'
_symmetry_cell_setting 'orthorhombic'
loop_
_space_group_symop_operation_xyz
x,y,z
1/4-x,1/4-y,z
x,1/4-y,1/4-z
1/4-x,y,1/4-z
-x,-y,-z
3/4+x,3/4+y,-z
-x,3/4+y,3/4+z
3/4+x,-y,3/4+z
x,1/2+y,1/2+z
1/4-x,3/4-y,1/2+z
x,3/4-y,3/4-z
1/4-x,1/2+y,3/4-z
-x,1/2-y,1/2-z
3/4+x,1/4+y,1/2-z
-x,1/4+y,1/4+z
3/4+x,1/2-y,1/4+z
1/2+x,y,1/2+z
3/4-x,1/4-y,1/2+z
1/2+x,1/4-y,3/4-z
3/4-x,y,3/4-z
1/2-x,-y,1/2-z
1/4+x,3/4+y,1/2-z
1/2-x,3/4+y,1/4+z
1/4+x,-y,1/4+z
1/2+x,1/2+y,z
3/4-x,3/4-y,z
1/2+x,3/4-y,1/4-z
3/4-x,1/2+y,1/4-z
1/2-x,1/2-y,-z
1/4+x,1/4+y,-z
1/2-x,1/4+y,3/4+z
1/4+x,1/2-y,3/4+z
loop_
_atom_site_type_symbol
_atom_site_label
_atom_site_fract_x
_atom_site_fract_y
_atom_site_fract_z
Si Si1 0.020058 0.908520 0.941475
Si Si2 0.875000 0.647302 0.375000
Si Si3 0.794302 0.272959 0.237338
Si Si4 0.625000 0.125000 0.720728
Si Si5 0.307907 0.175039 0.473048
Si Si6 0.811614 0.229600 0.439264
Si Si7 0.983135 0.220126 0.649543
O O1 0.041957 0.875000 0.875000
O O2 0.059768 0.943933 0.986656
O O3 0.987853 0.989877 0.921413
O O4 0.992100 0.832595 0.977035
O O5 0.893629 0.696243 0.310431
O O6 0.829973 0.595399 0.357510
O O7 0.842879 0.315067 0.236700
O O8 0.796344 0.178953 0.273183
O O9 0.783809 0.272599 0.161916
O O10 0.594799 0.189110 0.677631
O O11 0.306099 0.211002 0.546807
O O12 0.273051 0.226324 0.429748
O O13 0.000338 0.125000 0.625000
#
# Coordination Sequence:
#
# PCOD8285900 Si02
#       7
#    32  16  32  16  32  32  32
#     4  10  21  37  55  84 119 157 188 242 289 359
#     4  12  20  35  59  90 114 152 192 252 291 357
#     4  10  19  36  59  82 115 154 194 237 293 362
#     4  10  20  35  50  86 116 153 188 236 290 352
#     4  10  20  36  61  87 110 149 200 244 301 352
#     4  10  22  35  54  85 118 155 196 228 294 358
#     4   9  20  39  63  81 110 155 202 247 292 360
#
# _framework density 20.227326999999999
#
# number of rings (size 3 to 8) (size 9 to 14) (size 15 to 20)
#    0.000    2.000    1.667    2.000    2.333    2.667 
#    3.000    0.417   11.000    0.000    0.000    0.000 
#    0.000    0.000    0.000    0.000    0.000    0.000 
#
# Total GULP energy -594712.668421 kJ/mol
# GULP energy per Si atom -12389.847259 kJ/mol
# Density = 2.018129 g / cm^3
# Si number density = 20.227327 Si / 1000 Ang^3
#
#
#
# Elastic Constant Matrix: (Units=GPa)
#
#
# Indices 1 2 3 4 5 6 
#
# 1 53.8383 17.4856 29.2499 0.0000 0.0000 0.0000
# 2 17.4856 62.6185 29.6844 0.0000 0.0000 0.0000
# 3 29.2499 29.6844 118.6826 0.0000 0.0000 0.0000
# 4 0.0000 0.0000 0.0000 27.5133 0.0000 0.0000
# 5 0.0000 0.0000 0.0000 0.0000 34.1854 0.0000
# 6 0.0000 0.0000 0.0000 0.0000 0.0000 23.5053
#
#
#
# Elastic Compliance Matrix: (Units=1/GPa)
#
#
# Indices 1 2 3 4 5 6 
#
# 1 0.022344 -0.004117 -0.004477 0.000000 0.000000 0.000000
# 2 -0.004117 0.018876 -0.003707 0.000000 0.000000 0.000000
# 3 -0.004477 -0.003707 0.010456 0.000000 0.000000 0.000000
# 4 0.000000 0.000000 0.000000 0.036346 0.000000 0.000000
# 5 0.000000 0.000000 0.000000 0.000000 0.029252 0.000000
# 6 0.000000 0.000000 0.000000 0.000000 0.000000 0.042544
#
#
# Mechanical properties :
#
#
# Convention : Reuss Voigt Hill
#
# Bulk Modulus (GPa) = 36.93413 43.10879 40.02146
# Shear Modulus (GPa) = 25.84722 27.62209 26.73466
#
# Velocity S-wave (km/s) = 3.57856 3.69939 3.63948
# Velocity P-wave (km/s) = 5.94760 6.29331 6.12290
#
# Compressibility (1/GPa) = 0.02707523
#
# Stress axis : x y z
#
# Youngs Moduli (GPa) = 44.75567 52.97596 95.63607
#
# Poissons Ratio (x) = 0.21810 0.42816
# Poissons Ratio (y) = 0.18425 0.35449
# Poissons Ratio (z) = 0.20037 0.19636
#
# Static dielectric constant tensor:
#      x y z
#    x 3.545820 0.000000 0.000000 
#    y 0.000000 3.819430 0.000000 
#    z 0.000000 0.000000 4.016670 
# 
# 
# High freq. dielectric constant tensor:
#      x y z
#    x 1.763830 0.000000 0.000000 
#    y 0.000000 1.784430 0.000000 
#    z 0.000000 0.000000 1.806890 
# 
# From -- ./inp_files/54353.got.cif
#   From: 2010.03.12/outbox.cif.g09.slc.cpg/sg70_28_cif.got.tgz:54353.got - 2010.04.16 13:46:32.
