data_PCOD8285582
_publ_section_title
;
Structure prediction by ZEFSAII (Michael W. Deem and Ramdas Pophale) SiO2 
 PCOD8285582
Probable space group: F M M M
;
_chemical_formula_sum "Si O2"
_cell_formula_units_Z 176
_cell_length_a 18.706444
_cell_length_b 19.190159
_cell_length_c 29.463452
_cell_angle_alpha 90.000000
_cell_angle_beta 90.000000
_cell_angle_gamma 90.000000
_cell_volume 10576.779236
_symmetry_space_group_name_H-M "F M M M"
_symmetry_group_IT_number 69
_symmetry_cell_setting 'orthorhombic'
loop_
_space_group_symop_operation_xyz
x,y,z
-x,-y,z
x,-y,-z
-x,y,-z
-x,-y,-z
x,y,-z
-x,y,z
x,-y,z
x,1/2+y,1/2+z
-x,1/2-y,1/2+z
x,1/2-y,1/2-z
-x,1/2+y,1/2-z
-x,1/2-y,1/2-z
x,1/2+y,1/2-z
-x,1/2+y,1/2+z
x,1/2-y,1/2+z
1/2+x,y,1/2+z
1/2-x,-y,1/2+z
1/2+x,-y,1/2-z
1/2-x,y,1/2-z
1/2-x,-y,1/2-z
1/2+x,y,1/2-z
1/2-x,y,1/2+z
1/2+x,-y,1/2+z
1/2+x,1/2+y,z
1/2-x,1/2-y,z
1/2+x,1/2-y,-z
1/2-x,1/2+y,-z
1/2-x,1/2-y,-z
1/2+x,1/2+y,-z
1/2-x,1/2+y,z
1/2+x,1/2-y,z
loop_
_atom_site_type_symbol
_atom_site_label
_atom_site_fract_x
_atom_site_fract_y
_atom_site_fract_z
Si Si1 0.294352 0.422144 0.681245
Si Si2 0.176432 0.288251 0.126325
Si Si3 0.640350 0.577585 0.775782
Si Si4 0.581149 0.718173 0.797779
Si Si5 0.415888 0.500000 0.450711
Si Si6 0.082778 0.348584 0.053544
O O1 0.300340 0.500000 0.660320
O O2 0.309595 0.366559 0.642565
O O3 0.351847 0.413826 0.721597
O O4 0.216129 0.409325 0.700985
O O5 0.250000 0.250000 0.114794
O O6 0.133696 0.245052 0.163716
O O7 0.130284 0.292199 0.080203
O O8 0.611557 0.500000 0.787195
O O9 0.584947 0.634249 0.794744
O O10 0.500000 0.740467 0.808909
O O11 0.607023 0.750000 0.750000
O O12 0.500000 0.500000 0.458396
O O13 0.378446 0.500000 0.500000
O O14 0.396175 0.426311 0.426977
O O15 0.000000 0.332268 0.063552
O O16 0.098648 0.343032 0.000000
#
# Coordination Sequence:
#
# PCOD8285582 Si02
#       6
#    32  32  32  32  16  32
#     4   9  18  31  50  74  99 130 170 210 250 296
#     4  12  22  32  53  77 100 136 169 208 253 304
#     4   9  17  33  52  69  95 137 179 210 246 293
#     4  11  22  34  48  71 105 137 170 210 251 300
#     4   7  12  28  54  76  94 125 159 189 243 308
#     4   9  19  36  54  74 103 132 162 204 253 307
#
# _framework density 16.640226999999999
#
# number of rings (size 3 to 8) (size 9 to 14) (size 15 to 20)
#    0.000    2.273    3.636    2.727    1.273    1.091 
#    0.000    0.000    0.000    0.000    0.000    0.000 
#    0.000    0.000    0.000    6.182    0.000    0.000 
#
# Total GULP energy -545320.171350 kJ/mol
# GULP energy per Si atom -12393.640258 kJ/mol
# Density = 1.660235 g / cm^3
# Si number density = 16.640227 Si / 1000 Ang^3
#
#
#
# Elastic Constant Matrix: (Units=GPa)
#
#
# Indices 1 2 3 4 5 6 
#
# 1 76.3649 41.7005 44.6503 0.0000 0.0000 0.0000
# 2 41.7005 104.6429 44.0950 0.0000 0.0000 0.0000
# 3 44.6503 44.0950 71.7187 0.0000 0.0000 0.0000
# 4 0.0000 0.0000 0.0000 17.5580 0.0000 0.0000
# 5 0.0000 0.0000 0.0000 0.0000 -48.5606 0.0000
# 6 0.0000 0.0000 0.0000 0.0000 0.0000 26.0274
#
#
#
# Elastic Compliance Matrix: (Units=1/GPa)
#
#
# Indices 1 2 3 4 5 6 
#
# 1 0.021764 -0.003999 -0.011090 0.000000 0.000000 0.000000
# 2 -0.003999 0.013633 -0.005892 0.000000 0.000000 0.000000
# 3 -0.011090 -0.005892 0.024471 0.000000 0.000000 0.000000
# 4 0.000000 0.000000 0.000000 0.056954 0.000000 0.000000
# 5 0.000000 0.000000 0.000000 0.000000 -0.020593 0.000000
# 6 0.000000 0.000000 0.000000 0.000000 0.000000 0.038421
#
#
# Mechanical properties :
#
#
# Convention : Reuss Voigt Hill
#
# Bulk Modulus (GPa) = 55.85582 57.06868 56.46225
# Shear Modulus (GPa) = 27.38509 7.15700 17.27105
#
# Velocity S-wave (km/s) = 4.06114 2.07614 3.22516
# Velocity P-wave (km/s) = 7.45856 6.33381 6.91908
#
# Compressibility (1/GPa) = 0.01790324
#
# Stress axis : x y z
#
# Youngs Moduli (GPa) = 45.94833 73.35196 40.86544
#
# Poissons Ratio (x) = 0.29337 0.45322
# Poissons Ratio (y) = 0.18377 0.24078
# Poissons Ratio (z) = 0.50959 0.43219
#
# Static dielectric constant tensor:
#      x y z
#    x 2.906050 0.000000 0.000000 
#    y 0.000000 3.288430 0.000000 
#    z 0.000000 0.000000 2.848550 
# 
# 
# High freq. dielectric constant tensor:
#      x y z
#    x 1.623360 0.000000 0.000000 
#    y 0.000000 1.649220 0.000000 
#    z 0.000000 0.000000 1.614560 
# 
# From -- ./inp_files/23618.got.cif
#   From: 2010.03.12/outbox.cif.g09.slc.cpg/sg69_12_cif.got.tgz:23618.got - 2010.04.10 23:52:46.
