data_PCOD8285769
_publ_section_title
;
Structure prediction by ZEFSAII (Michael W. Deem and Ramdas Pophale) SiO2 
 PCOD8285769
Probable space group: F D D D
;
_chemical_formula_sum "Si O2"
_cell_formula_units_Z 128
_cell_length_a 29.121944
_cell_length_b 24.984782
_cell_length_c 9.409664
_cell_angle_alpha 90.000000
_cell_angle_beta 90.000000
_cell_angle_gamma 90.000000
_cell_volume 6846.522548
_symmetry_space_group_name_H-M "F D D D"
_symmetry_group_IT_number 70
_space_group.IT_coordinate_system_code '2'
_symmetry_cell_setting 'orthorhombic'
loop_
_space_group_symop_operation_xyz
x,y,z
1/4-x,1/4-y,z
x,1/4-y,1/4-z
1/4-x,y,1/4-z
-x,-y,-z
3/4+x,3/4+y,-z
-x,3/4+y,3/4+z
3/4+x,-y,3/4+z
x,1/2+y,1/2+z
1/4-x,3/4-y,1/2+z
x,3/4-y,3/4-z
1/4-x,1/2+y,3/4-z
-x,1/2-y,1/2-z
3/4+x,1/4+y,1/2-z
-x,1/4+y,1/4+z
3/4+x,1/2-y,1/4+z
1/2+x,y,1/2+z
3/4-x,1/4-y,1/2+z
1/2+x,1/4-y,3/4-z
3/4-x,y,3/4-z
1/2-x,-y,1/2-z
1/4+x,3/4+y,1/2-z
1/2-x,3/4+y,1/4+z
1/4+x,-y,1/4+z
1/2+x,1/2+y,z
3/4-x,3/4-y,z
1/2+x,3/4-y,1/4-z
3/4-x,1/2+y,1/4-z
1/2-x,1/2-y,-z
1/4+x,1/4+y,-z
1/2-x,1/4+y,3/4+z
1/4+x,1/2-y,3/4+z
loop_
_atom_site_type_symbol
_atom_site_label
_atom_site_fract_x
_atom_site_fract_y
_atom_site_fract_z
Si Si1 0.940829 0.127453 0.779525
Si Si2 0.625000 0.787290 0.125000
Si Si3 0.496788 0.837616 0.257027
Si Si4 0.066270 0.749604 0.865635
Si Si5 0.375000 0.033903 0.875000
O O1 0.964684 0.125000 0.625000
O O2 0.912683 0.073088 0.797942
O O3 0.907753 0.178812 0.780493
O O4 0.978227 0.129915 0.903341
O O5 0.603959 0.748542 0.242663
O O6 0.471601 0.875000 0.375000
O O7 0.533211 0.800852 0.343272
O O8 0.462697 0.804493 0.156246
O O9 0.092383 0.749313 0.018628
#
# Coordination Sequence:
#
# PCOD8285769 Si02
#       5
#    32  16  32  32  16
#     4  10  18  30  54  83 114 145 189 242 296 333
#     4   9  18  30  51  82 109 143 190 237 284 347
#     4  10  20  36  54  82 118 155 189 238 299 355
#     4  10  20  34  56  84 115 148 196 241 293 348
#     4  11  18  32  56  88 114 147 193 254 286 341
#
# _framework density 18.695622
#
# number of rings (size 3 to 8) (size 9 to 14) (size 15 to 20)
#    0.000    2.000    5.000    0.000    0.000    0.000 
#    0.000    4.375    0.000    0.000    0.000    0.000 
#    0.000    0.000    0.000    0.000    0.000    0.000 
#
# Total GULP energy -396555.670123 kJ/mol
# GULP energy per Si atom -12392.364691 kJ/mol
# Density = 1.865307 g / cm^3
# Si number density = 18.695622 Si / 1000 Ang^3
#
#
#
# Elastic Constant Matrix: (Units=GPa)
#
#
# Indices 1 2 3 4 5 6 
#
# 1 63.9416 25.3767 48.8894 -0.0015 0.0010 0.0011
# 2 25.3767 46.6956 45.8760 -0.0053 0.0016 0.0029
# 3 48.8894 45.8760 131.8119 -0.0035 -0.0004 0.0020
# 4 -0.0015 -0.0053 -0.0035 35.5720 0.0010 0.0034
# 5 0.0010 0.0016 -0.0004 0.0010 38.8876 -0.0014
# 6 0.0011 0.0029 0.0020 0.0034 -0.0014 10.1117
#
#
#
# Elastic Compliance Matrix: (Units=1/GPa)
#
#
# Indices 1 2 3 4 5 6 
#
# 1 0.022971 -0.006250 -0.006345 -0.000001 0.000000 0.000001
# 2 -0.006250 0.034243 -0.009600 0.000004 -0.000001 -0.000007
# 3 -0.006345 -0.009600 0.013281 0.000000 0.000001 0.000001
# 4 -0.000001 0.000004 0.000000 0.028112 -0.000001 -0.000009
# 5 0.000000 -0.000001 0.000001 -0.000001 0.025715 0.000004
# 6 0.000001 -0.000007 0.000001 -0.000009 0.000004 0.098895
#
#
# Mechanical properties :
#
#
# Convention : Reuss Voigt Hill
#
# Bulk Modulus (GPa) = 38.30578 53.63702 45.97140
# Shear Modulus (GPa) = 18.09571 25.06806 21.58189
#
# Velocity S-wave (km/s) = 3.11450 3.66574 3.40131
# Velocity P-wave (km/s) = 5.78508 6.83145 6.32992
#
# Compressibility (1/GPa) = 0.02610572
#
# Stress axis : x y z
#
# Youngs Moduli (GPa) = 43.53334 29.20281 75.29584
#
# Poissons Ratio (x) = 0.18252 0.47772
# Poissons Ratio (y) = 0.27209 0.72283
# Poissons Ratio (z) = 0.27620 0.28034
#
# Static dielectric constant tensor:
#      x y z
#    x 3.342020 0.000000 0.000000 
#    y 0.000000 3.062150 0.000000 
#    z 0.000000 0.000000 3.470120 
# 
# 
# High freq. dielectric constant tensor:
#      x y z
#    x 1.699820 0.000000 0.000000 
#    y 0.000000 1.688100 0.000000 
#    z 0.000000 0.000000 1.738890 
# 
# From -- ./inp_files/11056.got.cif
#   From: 2010.03.12/outbox.cif.g09.slc.cpg/sg70_6_cif.got.tgz:11056.got - 2010.04.16 13:46:32.
