data_PCOD8285674
_publ_section_title
;
Structure prediction by ZEFSAII (Michael W. Deem and Ramdas Pophale) SiO2 
 PCOD8285674
Probable space group: F M M M
;
_chemical_formula_sum "Si O2"
_cell_formula_units_Z 144
_cell_length_a 25.999594
_cell_length_b 19.486493
_cell_length_c 14.292250
_cell_angle_alpha 90.000000
_cell_angle_beta 90.000000
_cell_angle_gamma 90.000000
_cell_volume 7241.038496
_symmetry_space_group_name_H-M "F M M M"
_symmetry_group_IT_number 69
_symmetry_cell_setting 'orthorhombic'
loop_
_space_group_symop_operation_xyz
x,y,z
-x,-y,z
x,-y,-z
-x,y,-z
-x,-y,-z
x,y,-z
-x,y,z
x,-y,z
x,1/2+y,1/2+z
-x,1/2-y,1/2+z
x,1/2-y,1/2-z
-x,1/2+y,1/2-z
-x,1/2-y,1/2-z
x,1/2+y,1/2-z
-x,1/2+y,1/2+z
x,1/2-y,1/2+z
1/2+x,y,1/2+z
1/2-x,-y,1/2+z
1/2+x,-y,1/2-z
1/2-x,y,1/2-z
1/2-x,-y,1/2-z
1/2+x,y,1/2-z
1/2-x,y,1/2+z
1/2+x,-y,1/2+z
1/2+x,1/2+y,z
1/2-x,1/2-y,z
1/2+x,1/2-y,-z
1/2-x,1/2+y,-z
1/2-x,1/2-y,-z
1/2+x,1/2+y,-z
1/2-x,1/2+y,z
1/2+x,1/2-y,z
loop_
_atom_site_type_symbol
_atom_site_label
_atom_site_fract_x
_atom_site_fract_y
_atom_site_fract_z
Si Si1 0.055453 0.500000 0.609069
Si Si2 0.939641 0.648766 0.391850
Si Si3 0.851748 0.175471 0.768141
Si Si4 0.663755 0.922175 0.106728
Si Si5 0.285049 0.577051 0.107166
O O1 0.043791 0.500000 0.500000
O O2 0.083370 0.571814 0.632069
O O3 0.000000 0.500000 0.660526
O O4 0.930547 0.668276 0.500000
O O5 0.904754 0.694227 0.323812
O O6 0.000000 0.654930 0.367449
O O7 0.826666 0.250000 0.750000
O O8 0.864205 0.132913 0.673561
O O9 0.811971 0.133373 0.830167
O O10 0.724486 0.915354 0.121390
O O11 0.646152 0.000000 0.130954
O O12 0.648660 0.904730 0.000000
O O13 0.302286 0.500000 0.136642
O O14 0.300615 0.590223 0.000000
#
# Coordination Sequence:
#
# PCOD8285674 Si02
#       5
#    16  32  32  32  32
#     4   7  12  26  50  78 100 119 155 213 274 316
#     4   9  19  36  56  80 110 140 175 225 282 330
#     4  12  24  33  51  84 116 145 180 219 272 334
#     4   9  20  39  58  76 106 150 192 225 260 313
#     4   9  19  37  60  83 106 138 184 234 279 319
#
# _framework density 19.886651000000001
#
# number of rings (size 3 to 8) (size 9 to 14) (size 15 to 20)
#    0.000    2.556    0.000    4.667    3.111    5.778 
#    0.000    2.222    0.000    0.667    0.000    1.556 
#    0.000    0.000    0.000    0.000    0.000    0.000 
#
# Total GULP energy -446105.035814 kJ/mol
# GULP energy per Si atom -12391.806550 kJ/mol
# Density = 1.984139 g / cm^3
# Si number density = 19.886651 Si / 1000 Ang^3
#
#
#
# Elastic Constant Matrix: (Units=GPa)
#
#
# Indices 1 2 3 4 5 6 
#
# 1 38.5280 26.7179 38.2353 0.0000 0.0000 0.0000
# 2 26.7179 116.8870 61.6166 0.0000 0.0000 0.0000
# 3 38.2353 61.6166 109.5657 0.0000 0.0000 0.0000
# 4 0.0000 0.0000 0.0000 15.0302 0.0000 0.0000
# 5 0.0000 0.0000 0.0000 0.0000 30.2458 0.0000
# 6 0.0000 0.0000 0.0000 0.0000 0.0000 13.5859
#
#
#
# Elastic Compliance Matrix: (Units=1/GPa)
#
#
# Indices 1 2 3 4 5 6 
#
# 1 0.040235 -0.002552 -0.012606 0.000000 0.000000 0.000000
# 2 -0.002552 0.012322 -0.006039 0.000000 0.000000 0.000000
# 3 -0.012606 -0.006039 0.016922 0.000000 0.000000 0.000000
# 4 0.000000 0.000000 0.000000 0.066533 0.000000 0.000000
# 5 0.000000 0.000000 0.000000 0.000000 0.033062 0.000000
# 6 0.000000 0.000000 0.000000 0.000000 0.000000 0.073606
#
#
# Mechanical properties :
#
#
# Convention : Reuss Voigt Hill
#
# Bulk Modulus (GPa) = 36.91972 57.56894 47.24433
# Shear Modulus (GPa) = 17.00093 20.99977 19.00035
#
# Velocity S-wave (km/s) = 2.92702 3.25310 3.09436
# Velocity P-wave (km/s) = 5.47984 6.56670 6.04774
#
# Compressibility (1/GPa) = 0.02708579
#
# Stress axis : x y z
#
# Youngs Moduli (GPa) = 24.85421 81.15560 59.09408
#
# Poissons Ratio (x) = 0.20709 0.74492
# Poissons Ratio (y) = 0.06342 0.35687
# Poissons Ratio (z) = 0.31331 0.49010
#
# Static dielectric constant tensor:
#      x y z
#    x 3.342540 0.000000 0.000000 
#    y 0.000000 3.710360 0.000000 
#    z 0.000000 0.000000 3.711710 
# 
# 
# High freq. dielectric constant tensor:
#      x y z
#    x 1.751550 0.000000 0.000000 
#    y 0.000000 1.763950 0.000000 
#    z 0.000000 0.000000 1.771880 
# 
# From -- ./inp_files/19437.got.cif
#   From: 2010.03.12/outbox.cif.g09.slc.cpg/sg69_10_cif.got.tgz:19437.got - 2010.04.10 23:52:46.
