data_PCOD8285952
_publ_section_title
;
Structure prediction by ZEFSAII (Michael W. Deem and Ramdas Pophale) SiO2 
 PCOD8285952
Probable space group: F D D D
;
_chemical_formula_sum "Si O2"
_cell_formula_units_Z 160
_cell_length_a 28.949596
_cell_length_b 11.876616
_cell_length_c 23.066927
_cell_angle_alpha 90.000000
_cell_angle_beta 90.000000
_cell_angle_gamma 90.000000
_cell_volume 7930.945464
_symmetry_space_group_name_H-M "F D D D"
_symmetry_group_IT_number 70
_space_group.IT_coordinate_system_code '2'
_symmetry_cell_setting 'orthorhombic'
loop_
_space_group_symop_operation_xyz
x,y,z
1/4-x,1/4-y,z
x,1/4-y,1/4-z
1/4-x,y,1/4-z
-x,-y,-z
3/4+x,3/4+y,-z
-x,3/4+y,3/4+z
3/4+x,-y,3/4+z
x,1/2+y,1/2+z
1/4-x,3/4-y,1/2+z
x,3/4-y,3/4-z
1/4-x,1/2+y,3/4-z
-x,1/2-y,1/2-z
3/4+x,1/4+y,1/2-z
-x,1/4+y,1/4+z
3/4+x,1/2-y,1/4+z
1/2+x,y,1/2+z
3/4-x,1/4-y,1/2+z
1/2+x,1/4-y,3/4-z
3/4-x,y,3/4-z
1/2-x,-y,1/2-z
1/4+x,3/4+y,1/2-z
1/2-x,3/4+y,1/4+z
1/4+x,-y,1/4+z
1/2+x,1/2+y,z
3/4-x,3/4-y,z
1/2+x,3/4-y,1/4-z
3/4-x,1/2+y,1/4-z
1/2-x,1/2-y,-z
1/4+x,1/4+y,-z
1/2-x,1/4+y,3/4+z
1/4+x,1/2-y,3/4+z
loop_
_atom_site_type_symbol
_atom_site_label
_atom_site_fract_x
_atom_site_fract_y
_atom_site_fract_z
Si Si1 0.515586 0.625000 0.125000
Si Si2 0.264032 0.479403 0.340873
Si Si3 0.875000 0.375000 0.675784
Si Si4 0.671694 0.185545 0.729181
Si Si5 0.927894 0.064098 0.511608
Si Si6 0.711086 0.663500 0.906250
O O1 0.545829 0.559181 0.172850
O O2 0.483037 0.536643 0.092430
O O3 0.285739 0.375000 0.375000
O O4 0.304584 0.521042 0.299884
O O5 0.219628 0.433222 0.306815
O O6 0.249968 0.576995 0.385018
O O7 0.887400 0.267534 0.715710
O O8 0.832444 0.337747 0.636518
O O9 0.625000 0.125000 0.710015
O O10 0.659281 0.309391 0.753663
O O11 0.696438 0.114107 0.778861
#
# Coordination Sequence:
#
# PCOD8285952 Si02
#       6
#    16  32  16  32  32  32
#     4  12  27  46  62  98 136 180 226 268 331 406
#     4  10  19  40  70  92 125 165 217 272 330 390
#     4  10  24  40  67 105 124 166 220 282 328 390
#     4  12  25  45  67  95 135 180 220 276 333 394
#     4  10  22  41  64  97 131 165 217 278 329 382
#     4  11  23  41  70  97 128 172 223 268 327 398
#
# _framework density 20.174140000000001
#
# number of rings (size 3 to 8) (size 9 to 14) (size 15 to 20)
#    0.000    1.200    5.000    0.900    2.800    0.000 
#    3.600    0.500    0.000    0.000    0.000    0.000 
#    0.000    0.000    0.000    0.000    0.000    0.000 
#
# Total GULP energy -496205.540615 kJ/mol
# GULP energy per Si atom -12405.138515 kJ/mol
# Density = 2.012822 g / cm^3
# Si number density = 20.174140 Si / 1000 Ang^3
#
#
#
# Elastic Constant Matrix: (Units=GPa)
#
#
# Indices 1 2 3 4 5 6 
#
# 1 62.2434 33.9628 35.4272 0.0000 0.0000 0.0000
# 2 33.9628 132.7686 31.0992 0.0000 0.0000 0.0000
# 3 35.4272 31.0992 75.1658 0.0000 0.0000 0.0000
# 4 0.0000 0.0000 0.0000 35.3031 0.0000 0.0000
# 5 0.0000 0.0000 0.0000 0.0000 8.0046 0.0000
# 6 0.0000 0.0000 0.0000 0.0000 0.0000 28.9579
#
#
#
# Elastic Compliance Matrix: (Units=1/GPa)
#
#
# Indices 1 2 3 4 5 6 
#
# 1 0.023564 -0.003794 -0.009537 0.000000 0.000000 0.000000
# 2 -0.003794 0.008951 -0.001915 0.000000 0.000000 0.000000
# 3 -0.009537 -0.001915 0.018591 0.000000 0.000000 0.000000
# 4 0.000000 0.000000 0.000000 0.028326 0.000000 0.000000
# 5 0.000000 0.000000 0.000000 0.000000 0.124928 0.000000
# 6 0.000000 0.000000 0.000000 0.000000 0.000000 0.034533
#
#
# Mechanical properties :
#
#
# Convention : Reuss Voigt Hill
#
# Bulk Modulus (GPa) = 48.50901 52.35071 50.42986
# Shear Modulus (GPa) = 18.09916 25.76569 21.93243
#
# Velocity S-wave (km/s) = 2.99849 3.57762 3.30078
# Velocity P-wave (km/s) = 6.00710 6.56289 6.29114
#
# Compressibility (1/GPa) = 0.02061473
#
# Stress axis : x y z
#
# Youngs Moduli (GPa) = 42.43747 111.71884 53.78917
#
# Poissons Ratio (x) = 0.42386 0.51296
# Poissons Ratio (y) = 0.16101 0.10302
# Poissons Ratio (z) = 0.40471 0.21397
#
# Static dielectric constant tensor:
#      x y z
#    x 3.514910 0.000000 0.000000 
#    y 0.000000 3.754150 0.000000 
#    z 0.000000 0.000000 3.707310 
# 
# 
# High freq. dielectric constant tensor:
#      x y z
#    x 1.772210 0.000000 0.000000 
#    y 0.000000 1.801450 0.000000 
#    z 0.000000 0.000000 1.796120 
# 
# From -- ./inp_files/19537.got.cif
#   From: 2010.03.12/outbox.cif.g09.slc.cpg/sg70_10_cif.got.tgz:19537.got - 2010.04.16 13:46:32.
