data_PCOD8285791
_publ_section_title
;
Structure prediction by ZEFSAII (Michael W. Deem and Ramdas Pophale) SiO2 
 PCOD8285791
Probable space group: F D D D
;
_chemical_formula_sum "Si O2"
_cell_formula_units_Z 176
_cell_length_a 16.988175
_cell_length_b 26.403155
_cell_length_c 20.871886
_cell_angle_alpha 90.000000
_cell_angle_beta 90.000000
_cell_angle_gamma 90.000000
_cell_volume 9361.905336
_symmetry_space_group_name_H-M "F D D D"
_symmetry_group_IT_number 70
_space_group.IT_coordinate_system_code '2'
_symmetry_cell_setting 'orthorhombic'
loop_
_space_group_symop_operation_xyz
x,y,z
1/4-x,1/4-y,z
x,1/4-y,1/4-z
1/4-x,y,1/4-z
-x,-y,-z
3/4+x,3/4+y,-z
-x,3/4+y,3/4+z
3/4+x,-y,3/4+z
x,1/2+y,1/2+z
1/4-x,3/4-y,1/2+z
x,3/4-y,3/4-z
1/4-x,1/2+y,3/4-z
-x,1/2-y,1/2-z
3/4+x,1/4+y,1/2-z
-x,1/4+y,1/4+z
3/4+x,1/2-y,1/4+z
1/2+x,y,1/2+z
3/4-x,1/4-y,1/2+z
1/2+x,1/4-y,3/4-z
3/4-x,y,3/4-z
1/2-x,-y,1/2-z
1/4+x,3/4+y,1/2-z
1/2-x,3/4+y,1/4+z
1/4+x,-y,1/4+z
1/2+x,1/2+y,z
3/4-x,3/4-y,z
1/2+x,3/4-y,1/4-z
3/4-x,1/2+y,1/4-z
1/2-x,1/2-y,-z
1/4+x,1/4+y,-z
1/2-x,1/4+y,3/4+z
1/4+x,1/2-y,3/4+z
loop_
_atom_site_type_symbol
_atom_site_label
_atom_site_fract_x
_atom_site_fract_y
_atom_site_fract_z
Si Si1 0.122823 0.875000 0.375000
Si Si2 0.363864 0.752485 0.948891
Si Si3 0.225558 0.921936 0.778691
Si Si4 0.260778 0.055165 0.491303
Si Si5 0.537591 0.773601 0.146500
Si Si6 0.068728 0.804618 0.779239
O O1 0.067639 0.920358 0.401859
O O2 0.175954 0.858334 0.435080
O O3 0.375000 0.740873 0.875000
O O4 0.306418 0.799123 0.962265
O O5 0.331280 0.700594 0.979074
O O6 0.446422 0.769208 0.977706
O O7 0.245203 0.864777 0.756637
O O8 0.249109 0.050449 0.414530
O O9 0.343060 0.032461 0.518495
O O10 0.625000 0.755226 0.125000
O O11 0.536297 0.812591 0.207024
O O12 0.485746 0.727491 0.173178
#
# Coordination Sequence:
#
# PCOD8285791 Si02
#       6
#    16  32  32  32  32  32
#     4  10  18  34  56  78 106 136 172 220 269 316
#     4  11  22  36  54  79 111 144 182 227 275 327
#     4  10  22  35  53  81 108 143 184 221 271 339
#     4  10  20  35  56  78 108 146 181 227 278 328
#     4   9  18  34  55  77 103 137 176 219 271 328
#     4   9  18  32  54  79 102 135 178 218 268 332
#
# _framework density 18.799593000000002
#
# number of rings (size 3 to 8) (size 9 to 14) (size 15 to 20)
#    0.000    2.182    0.000    3.818    0.000    5.818 
#    0.000    0.455    0.000    6.545    0.000    0.000 
#    0.000    0.000    0.000    0.000    0.000    0.000 
#
# Total GULP energy -545094.042049 kJ/mol
# GULP energy per Si atom -12388.500956 kJ/mol
# Density = 1.875680 g / cm^3
# Si number density = 18.799593 Si / 1000 Ang^3
#
#
#
# Elastic Constant Matrix: (Units=GPa)
#
#
# Indices 1 2 3 4 5 6 
#
# 1 69.9075 20.0674 41.8162 0.0000 0.0000 0.0000
# 2 20.0674 33.9792 34.7580 0.0000 0.0000 0.0000
# 3 41.8162 34.7580 143.9518 0.0000 0.0000 0.0000
# 4 0.0000 0.0000 0.0000 26.2907 0.0000 0.0000
# 5 0.0000 0.0000 0.0000 0.0000 31.0733 0.0000
# 6 0.0000 0.0000 0.0000 0.0000 0.0000 10.1288
#
#
#
# Elastic Compliance Matrix: (Units=1/GPa)
#
#
# Indices 1 2 3 4 5 6 
#
# 1 0.018561 -0.007233 -0.003645 0.000000 0.000000 0.000000
# 2 -0.007233 0.041902 -0.008016 0.000000 0.000000 0.000000
# 3 -0.003645 -0.008016 0.009941 0.000000 0.000000 0.000000
# 4 0.000000 0.000000 0.000000 0.038036 0.000000 0.000000
# 5 0.000000 0.000000 0.000000 0.000000 0.032182 0.000000
# 6 0.000000 0.000000 0.000000 0.000000 0.000000 0.098728
#
#
# Mechanical properties :
#
#
# Convention : Reuss Voigt Hill
#
# Bulk Modulus (GPa) = 30.66092 49.01352 39.83722
# Shear Modulus (GPa) = 17.36039 23.57836 20.46938
#
# Velocity S-wave (km/s) = 3.04212 3.54530 3.30331
# Velocity P-wave (km/s) = 5.35575 6.54882 5.98211
#
# Compressibility (1/GPa) = 0.03261481
#
# Stress axis : x y z
#
# Youngs Moduli (GPa) = 53.87505 23.86549 100.59063
#
# Poissons Ratio (x) = 0.17262 0.36669
# Poissons Ratio (y) = 0.38968 0.80636
# Poissons Ratio (z) = 0.19640 0.19131
#
# Static dielectric constant tensor:
#      x y z
#    x 3.618120 0.000000 0.000000 
#    y 0.000000 3.195210 0.000000 
#    z 0.000000 0.000000 3.893830 
# 
# 
# High freq. dielectric constant tensor:
#      x y z
#    x 1.733400 0.000000 0.000000 
#    y 0.000000 1.701450 0.000000 
#    z 0.000000 0.000000 1.759130 
# 
# From -- ./inp_files/35232.got.cif
#   From: 2010.03.12/outbox.cif.g09.slc.cpg/sg70_18_cif.got.tgz:35232.got - 2010.04.16 13:46:32.
