data_PCOD8285792
_publ_section_title
;
Structure prediction by ZEFSAII (Michael W. Deem and Ramdas Pophale) SiO2 
 PCOD8285792
Probable space group: F D D D
;
_chemical_formula_sum "Si O2"
_cell_formula_units_Z 208
_cell_length_a 21.506921
_cell_length_b 29.519899
_cell_length_c 17.163881
_cell_angle_alpha 90.000000
_cell_angle_beta 90.000000
_cell_angle_gamma 90.000000
_cell_volume 10897.041427
_symmetry_space_group_name_H-M "F D D D"
_symmetry_group_IT_number 70
_space_group.IT_coordinate_system_code '2'
_symmetry_cell_setting 'orthorhombic'
loop_
_space_group_symop_operation_xyz
x,y,z
1/4-x,1/4-y,z
x,1/4-y,1/4-z
1/4-x,y,1/4-z
-x,-y,-z
3/4+x,3/4+y,-z
-x,3/4+y,3/4+z
3/4+x,-y,3/4+z
x,1/2+y,1/2+z
1/4-x,3/4-y,1/2+z
x,3/4-y,3/4-z
1/4-x,1/2+y,3/4-z
-x,1/2-y,1/2-z
3/4+x,1/4+y,1/2-z
-x,1/4+y,1/4+z
3/4+x,1/2-y,1/4+z
1/2+x,y,1/2+z
3/4-x,1/4-y,1/2+z
1/2+x,1/4-y,3/4-z
3/4-x,y,3/4-z
1/2-x,-y,1/2-z
1/4+x,3/4+y,1/2-z
1/2-x,3/4+y,1/4+z
1/4+x,-y,1/4+z
1/2+x,1/2+y,z
3/4-x,3/4-y,z
1/2+x,3/4-y,1/4-z
3/4-x,1/2+y,1/4-z
1/2-x,1/2-y,-z
1/4+x,1/4+y,-z
1/2-x,1/4+y,3/4+z
1/4+x,1/2-y,3/4+z
loop_
_atom_site_type_symbol
_atom_site_label
_atom_site_fract_x
_atom_site_fract_y
_atom_site_fract_z
Si Si1 0.936279 0.853426 0.225269
Si Si2 0.561089 0.458082 0.946688
Si Si3 0.865482 0.270931 0.086497
Si Si4 0.376780 0.625000 0.625000
Si Si5 0.277150 0.193658 0.584717
Si Si6 0.057053 0.751625 0.639658
Si Si7 0.513851 0.196996 0.986695
O O1 0.875000 0.875000 0.265777
O O2 0.914014 0.821765 0.151617
O O3 0.980547 0.895424 0.202900
O O4 0.966563 0.818636 0.285984
O O5 0.606271 0.498400 0.914611
O O6 0.585003 0.407934 0.927784
O O7 0.492782 0.462344 0.907824
O O8 0.557180 0.462798 0.039125
O O9 0.808967 0.239907 0.055021
O O10 0.921156 0.275617 0.023153
O O11 0.421102 0.595050 0.570047
O O12 0.257298 0.196964 0.674511
O O13 0.125000 0.729924 0.625000
O O14 0.040075 0.779295 0.562270
#
# Coordination Sequence:
#
# PCOD8285792 Si02
#       7
#    32  32  32  16  32  32  32
#     4  10  20  34  53  83 113 145 188 230 279 352
#     4   9  20  36  55  81 106 146 183 235 285 327
#     4   9  20  34  53  78 115 146 186 230 282 343
#     4  10  18  34  56  80 110 138 184 222 276 344
#     4  11  19  34  57  81 112 155 183 227 294 340
#     4  10  19  35  58  78 105 142 193 233 278 337
#     4  10  20  35  55  83 108 149 192 234 283 344
#
# _framework density 19.08775
#
# number of rings (size 3 to 8) (size 9 to 14) (size 15 to 20)
#    0.000    2.154    1.538    2.308    0.000    4.308 
#    0.000    6.538    0.000    3.692    0.000    0.000 
#    0.000    0.000    0.000    0.000    0.000    0.000 
#
# Total GULP energy -644283.783069 kJ/mol
# GULP energy per Si atom -12390.072751 kJ/mol
# Density = 1.904431 g / cm^3
# Si number density = 19.087750 Si / 1000 Ang^3
#
#
#
# Elastic Constant Matrix: (Units=GPa)
#
#
# Indices 1 2 3 4 5 6 
#
# 1 101.0763 44.2320 13.8462 0.0000 0.0000 0.0000
# 2 44.2320 102.8656 24.1667 0.0000 0.0000 0.0000
# 3 13.8462 24.1667 55.5079 0.0000 0.0000 0.0000
# 4 0.0000 0.0000 0.0000 18.0719 0.0000 0.0000
# 5 0.0000 0.0000 0.0000 0.0000 21.1031 0.0000
# 6 0.0000 0.0000 0.0000 0.0000 0.0000 40.6838
#
#
#
# Elastic Compliance Matrix: (Units=1/GPa)
#
#
# Indices 1 2 3 4 5 6 
#
# 1 0.012222 -0.005057 -0.000847 0.000000 0.000000 0.000000
# 2 -0.005057 0.012921 -0.004364 0.000000 0.000000 0.000000
# 3 -0.000847 -0.004364 0.020127 0.000000 0.000000 0.000000
# 4 0.000000 0.000000 0.000000 0.055335 0.000000 0.000000
# 5 0.000000 0.000000 0.000000 0.000000 0.047386 0.000000
# 6 0.000000 0.000000 0.000000 0.000000 0.000000 0.024580
#
#
# Mechanical properties :
#
#
# Convention : Reuss Voigt Hill
#
# Bulk Modulus (GPa) = 40.42980 47.10441 43.76710
# Shear Modulus (GPa) = 24.83216 27.78542 26.30879
#
# Velocity S-wave (km/s) = 3.61078 3.81946 3.71658
# Velocity P-wave (km/s) = 6.21374 6.64699 6.43401
#
# Compressibility (1/GPa) = 0.02473423
#
# Stress axis : x y z
#
# Youngs Moduli (GPa) = 81.81715 77.39328 49.68483
#
# Poissons Ratio (x) = 0.39134 0.04210
# Poissons Ratio (y) = 0.41371 0.21683
# Poissons Ratio (z) = 0.06933 0.33776
#
# Static dielectric constant tensor:
#      x y z
#    x 3.888440 0.000000 0.000000 
#    y 0.000000 3.675340 0.000000 
#    z 0.000000 0.000000 3.154600 
# 
# 
# High freq. dielectric constant tensor:
#      x y z
#    x 1.765740 0.000000 0.000000 
#    y 0.000000 1.737430 0.000000 
#    z 0.000000 0.000000 1.704920 
# 
# From -- ./inp_files/37806.got.cif
#   From: 2010.03.12/outbox.cif.g09.slc.cpg/sg70_19_cif.got.tgz:37806.got - 2010.04.16 13:46:32.
