data_PCOD8285498
_publ_section_title
;
Structure prediction by ZEFSAII (Michael W. Deem and Ramdas Pophale) SiO2 
 PCOD8285498
Probable space group: F M M M
;
_chemical_formula_sum "Si O2"
_cell_formula_units_Z 192
_cell_length_a 30.337352
_cell_length_b 14.385354
_cell_length_c 23.900469
_cell_angle_alpha 90.000000
_cell_angle_beta 90.000000
_cell_angle_gamma 90.000000
_cell_volume 10430.488474
_symmetry_space_group_name_H-M "F M M M"
_symmetry_group_IT_number 69
_symmetry_cell_setting 'orthorhombic'
loop_
_space_group_symop_operation_xyz
x,y,z
-x,-y,z
x,-y,-z
-x,y,-z
-x,-y,-z
x,y,-z
-x,y,z
x,-y,z
x,1/2+y,1/2+z
-x,1/2-y,1/2+z
x,1/2-y,1/2-z
-x,1/2+y,1/2-z
-x,1/2-y,1/2-z
x,1/2+y,1/2-z
-x,1/2+y,1/2+z
x,1/2-y,1/2+z
1/2+x,y,1/2+z
1/2-x,-y,1/2+z
1/2+x,-y,1/2-z
1/2-x,y,1/2-z
1/2-x,-y,1/2-z
1/2+x,y,1/2-z
1/2-x,y,1/2+z
1/2+x,-y,1/2+z
1/2+x,1/2+y,z
1/2-x,1/2-y,z
1/2+x,1/2-y,-z
1/2-x,1/2+y,-z
1/2-x,1/2-y,-z
1/2+x,1/2+y,-z
1/2-x,1/2+y,z
1/2+x,1/2-y,z
loop_
_atom_site_type_symbol
_atom_site_label
_atom_site_fract_x
_atom_site_fract_y
_atom_site_fract_z
Si Si1 0.284994 0.610152 0.564999
Si Si2 0.607677 0.105928 0.773715
Si Si3 0.949111 0.701866 0.130494
Si Si4 0.750000 0.750000 0.652540
Si Si5 0.181585 0.750000 0.250000
Si Si6 0.548886 0.600181 0.833005
Si Si7 0.617427 0.100027 0.064502
O O1 0.274835 0.639179 0.500000
O O2 0.278032 0.500000 0.571371
O O3 0.254643 0.662056 0.610489
O O4 0.334919 0.639269 0.583132
O O5 0.576030 0.159548 0.816496
O O6 0.653368 0.159413 0.766022
O O7 0.584164 0.107875 0.714908
O O8 0.616842 0.000000 0.793282
O O9 0.944894 0.813341 0.125673
O O10 0.923479 0.667265 0.076044
O O11 0.000000 0.669220 0.130760
O O12 0.790590 0.727989 0.694034
O O13 0.500000 0.606269 0.806047
O O14 0.554538 0.500000 0.864367
O O15 0.608850 0.000000 0.094079
O O16 0.620748 0.082258 0.000000
#
# Coordination Sequence:
#
# PCOD8285498 Si02
#       7
#    32  32  32  16  16  32  32
#     4   9  19  38  63  85 104 135 180 228 279 330
#     4  11  21  35  53  73 106 143 179 217 256 308
#     4  11  20  31  52  79 107 141 183 222 258 306
#     4  11  23  36  58  80 111 143 176 226 274 333
#     4  11  24  38  49  80 114 148 185 214 270 333
#     4   9  18  32  51  75 104 138 176 220 261 297
#     4   9  19  35  54  78 108 139 171 215 274 330
#
# _framework density 18.407575999999999
#
# number of rings (size 3 to 8) (size 9 to 14) (size 15 to 20)
#    0.000    2.000    1.667    3.250    0.000    6.333 
#    0.000    2.500    0.000    0.500    0.000    2.333 
#    0.000    0.000    0.000    0.000    0.000    0.000 
#
# Total GULP energy -594669.756925 kJ/mol
# GULP energy per Si atom -12388.953269 kJ/mol
# Density = 1.836568 g / cm^3
# Si number density = 18.407576 Si / 1000 Ang^3
#
#
#
# Elastic Constant Matrix: (Units=GPa)
#
#
# Indices 1 2 3 4 5 6 
#
# 1 111.1745 59.6546 44.5245 0.0000 0.0000 0.0000
# 2 59.6546 116.3861 37.7337 0.0000 0.0000 0.0000
# 3 44.5245 37.7337 67.1783 0.0000 0.0000 0.0000
# 4 0.0000 0.0000 0.0000 21.5417 0.0000 0.0000
# 5 0.0000 0.0000 0.0000 0.0000 32.9148 0.0000
# 6 0.0000 0.0000 0.0000 0.0000 0.0000 27.7598
#
#
#
# Elastic Compliance Matrix: (Units=1/GPa)
#
#
# Indices 1 2 3 4 5 6 
#
# 1 0.014481 -0.005271 -0.006637 0.000000 0.000000 0.000000
# 2 -0.005271 0.012423 -0.003485 0.000000 0.000000 0.000000
# 3 -0.006637 -0.003485 0.021242 0.000000 0.000000 0.000000
# 4 0.000000 0.000000 0.000000 0.046422 0.000000 0.000000
# 5 0.000000 0.000000 0.000000 0.000000 0.030381 0.000000
# 6 0.000000 0.000000 0.000000 0.000000 0.000000 0.036023
#
#
# Mechanical properties :
#
#
# Convention : Reuss Voigt Hill
#
# Bulk Modulus (GPa) = 57.59980 64.28495 60.94237
# Shear Modulus (GPa) = 25.31054 26.63168 25.97111
#
# Velocity S-wave (km/s) = 3.71213 3.80778 3.76026
# Velocity P-wave (km/s) = 7.05213 7.37097 7.21331
#
# Compressibility (1/GPa) = 0.01736117
#
# Stress axis : x y z
#
# Youngs Moduli (GPa) = 69.05510 80.49329 47.07564
#
# Poissons Ratio (x) = 0.42424 0.31246
# Poissons Ratio (y) = 0.36396 0.16406
# Poissons Ratio (z) = 0.45835 0.28052
#
# Static dielectric constant tensor:
#      x y z
#    x 3.779850 0.000000 0.000000 
#    y 0.000000 3.729150 0.000000 
#    z 0.000000 0.000000 3.237520 
# 
# 
# High freq. dielectric constant tensor:
#      x y z
#    x 1.715050 0.000000 0.000000 
#    y 0.000000 1.720760 0.000000 
#    z 0.000000 0.000000 1.697270 
# 
# From -- ./inp_files/43992.got.cif
#   From: 2010.03.12/outbox.cif.g09.slc.cpg/sg69_22_cif.got.tgz:43992.got - 2010.04.10 23:52:46.
