data_PCOD8285905
_publ_section_title
;
Structure prediction by ZEFSAII (Michael W. Deem and Ramdas Pophale) SiO2 
 PCOD8285905
Probable space group: F D D D
;
_chemical_formula_sum "Si O2"
_cell_formula_units_Z 168
_cell_length_a 20.441580
_cell_length_b 15.291145
_cell_length_c 23.848868
_cell_angle_alpha 90.000000
_cell_angle_beta 90.000000
_cell_angle_gamma 90.000000
_cell_volume 7454.563822
_symmetry_space_group_name_H-M "F D D D"
_symmetry_group_IT_number 70
_space_group.IT_coordinate_system_code '2'
_symmetry_cell_setting 'orthorhombic'
loop_
_space_group_symop_operation_xyz
x,y,z
1/4-x,1/4-y,z
x,1/4-y,1/4-z
1/4-x,y,1/4-z
-x,-y,-z
3/4+x,3/4+y,-z
-x,3/4+y,3/4+z
3/4+x,-y,3/4+z
x,1/2+y,1/2+z
1/4-x,3/4-y,1/2+z
x,3/4-y,3/4-z
1/4-x,1/2+y,3/4-z
-x,1/2-y,1/2-z
3/4+x,1/4+y,1/2-z
-x,1/4+y,1/4+z
3/4+x,1/2-y,1/4+z
1/2+x,y,1/2+z
3/4-x,1/4-y,1/2+z
1/2+x,1/4-y,3/4-z
3/4-x,y,3/4-z
1/2-x,-y,1/2-z
1/4+x,3/4+y,1/2-z
1/2-x,3/4+y,1/4+z
1/4+x,-y,1/4+z
1/2+x,1/2+y,z
3/4-x,3/4-y,z
1/2+x,3/4-y,1/4-z
3/4-x,1/2+y,1/4-z
1/2-x,1/2-y,-z
1/4+x,1/4+y,-z
1/2-x,1/4+y,3/4+z
1/4+x,1/2-y,3/4+z
loop_
_atom_site_type_symbol
_atom_site_label
_atom_site_fract_x
_atom_site_fract_y
_atom_site_fract_z
Si Si1 0.197829 0.018345 0.448624
Si Si2 0.044168 0.017646 0.928529
Si Si3 0.875000 0.875000 0.375000
Si Si4 0.142153 0.867765 0.811105
Si Si5 0.470028 0.416486 0.469053
Si Si6 0.798836 0.374310 0.281685
O O1 0.192267 0.049823 0.384339
O O2 0.186544 0.104607 0.485225
O O3 0.139025 0.953693 0.468562
O O4 0.267842 0.971217 0.457497
O O5 0.107623 0.971794 0.958892
O O6 0.032077 0.102507 0.966712
O O7 0.984743 0.947858 0.928769
O O8 0.829481 0.815125 0.416519
O O9 0.118701 0.875000 0.875000
O O10 0.219317 0.861372 0.805395
O O11 0.500000 0.500000 0.500000
O O12 0.875000 0.375000 0.296620
#
# Coordination Sequence:
#
# PCOD8285905 Si02
#       6
#    32  32   8  32  32  32
#     4  10  22  39  62  93 124 169 222 261 334 419
#     4   9  20  37  61  93 123 163 213 262 330 424
#     4  12  28  48  68 104 132 168 248 288 330 428
#     4   9  18  40  63  82 121 162 200 262 325 387
#     4  12  25  44  66  92 130 176 218 284 341 390
#     4  10  19  36  61  94 130 163 211 276 341 401
#
# _framework density 22.536531
#
# number of rings (size 3 to 8) (size 9 to 14) (size 15 to 20)
#    0.000    1.905    0.952    4.000    0.000    3.048 
#    8.571    3.810    0.000    0.000    0.000    0.000 
#    0.000    0.000    0.000    0.000    0.000    0.000 
#
# Total GULP energy -520622.470527 kJ/mol
# GULP energy per Si atom -12395.773108 kJ/mol
# Density = 2.248524 g / cm^3
# Si number density = 22.536531 Si / 1000 Ang^3
#
#
#
# Elastic Constant Matrix: (Units=GPa)
#
#
# Indices 1 2 3 4 5 6 
#
# 1 133.7645 9.4993 32.9833 0.0000 0.0000 0.0000
# 2 9.4993 79.9779 42.2050 0.0000 0.0000 0.0000
# 3 32.9833 42.2050 122.0865 0.0000 0.0000 0.0000
# 4 0.0000 0.0000 0.0000 24.1483 0.0000 0.0000
# 5 0.0000 0.0000 0.0000 0.0000 34.7246 0.0000
# 6 0.0000 0.0000 0.0000 0.0000 0.0000 13.2359
#
#
#
# Elastic Compliance Matrix: (Units=1/GPa)
#
#
# Indices 1 2 3 4 5 6 
#
# 1 0.008013 0.000233 -0.002245 0.000000 0.000000 0.000000
# 2 0.000233 0.015300 -0.005352 0.000000 0.000000 0.000000
# 3 -0.002245 -0.005352 0.010648 0.000000 0.000000 0.000000
# 4 0.000000 0.000000 0.000000 0.041411 0.000000 0.000000
# 5 0.000000 0.000000 0.000000 0.000000 0.028798 0.000000
# 6 0.000000 0.000000 0.000000 0.000000 0.000000 0.075552
#
#
# Mechanical properties :
#
#
# Convention : Reuss Voigt Hill
#
# Bulk Modulus (GPa) = 51.99665 56.13378 54.06522
# Shear Modulus (GPa) = 24.89282 31.16452 28.02867
#
# Velocity S-wave (km/s) = 3.32709 3.72270 3.53044
# Velocity P-wave (km/s) = 6.15480 6.59090 6.37658
#
# Compressibility (1/GPa) = 0.01923201
#
# Stress axis : x y z
#
# Youngs Moduli (GPa) = 124.79821 65.35872 93.91620
#
# Poissons Ratio (x) = -0.01524 0.21088
# Poissons Ratio (y) = -0.02910 0.50266
# Poissons Ratio (z) = 0.28022 0.34981
#
# Static dielectric constant tensor:
#      x y z
#    x 4.204970 0.000000 0.000000 
#    y 0.000000 3.735060 0.000000 
#    z 0.000000 0.000000 3.975640 
# 
# 
# High freq. dielectric constant tensor:
#      x y z
#    x 1.902400 0.000000 0.000000 
#    y 0.000000 1.864740 0.000000 
#    z 0.000000 0.000000 1.882550 
# 
# From -- ./inp_files/60299.got.cif
#   From: 2010.03.12/outbox.cif.g09.slc.cpg/sg70_31_cif.got.tgz:60299.got - 2010.04.16 13:46:32.
