data_PCOD8285920
_publ_section_title
;
Structure prediction by ZEFSAII (Michael W. Deem and Ramdas Pophale) SiO2 
 PCOD8285920
Probable space group: F D D D
;
_chemical_formula_sum "Si O2"
_cell_formula_units_Z 176
_cell_length_a 14.246678
_cell_length_b 21.090920
_cell_length_c 28.397553
_cell_angle_alpha 90.000000
_cell_angle_beta 90.000000
_cell_angle_gamma 90.000000
_cell_volume 8532.770242
_symmetry_space_group_name_H-M "F D D D"
_symmetry_group_IT_number 70
_space_group.IT_coordinate_system_code '2'
_symmetry_cell_setting 'orthorhombic'
loop_
_space_group_symop_operation_xyz
x,y,z
1/4-x,1/4-y,z
x,1/4-y,1/4-z
1/4-x,y,1/4-z
-x,-y,-z
3/4+x,3/4+y,-z
-x,3/4+y,3/4+z
3/4+x,-y,3/4+z
x,1/2+y,1/2+z
1/4-x,3/4-y,1/2+z
x,3/4-y,3/4-z
1/4-x,1/2+y,3/4-z
-x,1/2-y,1/2-z
3/4+x,1/4+y,1/2-z
-x,1/4+y,1/4+z
3/4+x,1/2-y,1/4+z
1/2+x,y,1/2+z
3/4-x,1/4-y,1/2+z
1/2+x,1/4-y,3/4-z
3/4-x,y,3/4-z
1/2-x,-y,1/2-z
1/4+x,3/4+y,1/2-z
1/2-x,3/4+y,1/4+z
1/4+x,-y,1/4+z
1/2+x,1/2+y,z
3/4-x,3/4-y,z
1/2+x,3/4-y,1/4-z
3/4-x,1/2+y,1/4-z
1/2-x,1/2-y,-z
1/4+x,1/4+y,-z
1/2-x,1/4+y,3/4+z
1/4+x,1/2-y,3/4+z
loop_
_atom_site_type_symbol
_atom_site_label
_atom_site_fract_x
_atom_site_fract_y
_atom_site_fract_z
Si Si1 0.576106 0.846453 0.483266
Si Si2 0.125000 0.125000 0.203347
Si Si3 0.808164 0.573967 0.588763
Si Si4 0.375000 0.375000 0.629619
Si Si5 0.934436 0.499027 0.655107
Si Si6 0.200151 0.442901 0.083391
Si Si7 0.125000 0.022934 0.125000
O O1 0.469177 0.872362 0.484634
O O2 0.652815 0.893964 0.459668
O O3 0.573238 0.779799 0.455928
O O4 0.605436 0.829029 0.536418
O O5 0.140670 0.064350 0.171171
O O6 0.759541 0.625000 0.625000
O O7 0.899035 0.549240 0.616474
O O8 0.738854 0.515279 0.577561
O O9 0.371345 0.434082 0.594153
O O10 0.284041 0.358634 0.661137
O O11 0.037452 0.478718 0.637184
O O12 0.125000 0.440698 0.125000
#
# Coordination Sequence:
#
# PCOD8285920 Si02
#       7
#    32  16  32  16  32  32  16
#     4  10  19  37  63  92 121 158 205 257 304 374
#     4   9  15  28  57  98 128 146 196 247 307 373
#     4   9  19  41  63  86 121 161 202 255 302 356
#     4  10  23  42  55  86 134 166 190 259 314 361
#     4   9  18  34  59  86 122 161 199 243 303 362
#     4  11  25  42  60  90 127 163 207 254 310 374
#     4   9  14  26  56  94 120 156 195 234 302 378
#
# _framework density 20.626360999999999
#
# number of rings (size 3 to 8) (size 9 to 14) (size 15 to 20)
#    0.000    2.364    1.818    0.545    1.273    1.818 
#    3.273   12.727    0.000    0.000    0.000    0.000 
#    0.000    0.000    0.000    0.000    0.000    0.000 
#
# Total GULP energy -545095.242276 kJ/mol
# GULP energy per Si atom -12388.528234 kJ/mol
# Density = 2.057941 g / cm^3
# Si number density = 20.626361 Si / 1000 Ang^3
#
#
#
# Elastic Constant Matrix: (Units=GPa)
#
#
# Indices 1 2 3 4 5 6 
#
# 1 62.9308 24.0085 56.0213 0.0000 0.0000 0.0000
# 2 24.0085 91.9300 41.6476 0.0000 0.0000 0.0000
# 3 56.0213 41.6476 143.3624 0.0000 0.0000 0.0000
# 4 0.0000 0.0000 0.0000 17.3210 0.0000 0.0000
# 5 0.0000 0.0000 0.0000 0.0000 22.4897 0.0000
# 6 0.0000 0.0000 0.0000 0.0000 0.0000 30.8907
#
#
#
# Elastic Compliance Matrix: (Units=1/GPa)
#
#
# Indices 1 2 3 4 5 6 
#
# 1 0.024820 -0.002405 -0.009000 0.000000 0.000000 0.000000
# 2 -0.002405 0.012759 -0.002767 0.000000 0.000000 0.000000
# 3 -0.009000 -0.002767 0.011296 0.000000 0.000000 0.000000
# 4 0.000000 0.000000 0.000000 0.057734 0.000000 0.000000
# 5 0.000000 0.000000 0.000000 0.000000 0.044465 0.000000
# 6 0.000000 0.000000 0.000000 0.000000 0.000000 0.032372
#
#
# Mechanical properties :
#
#
# Convention : Reuss Voigt Hill
#
# Bulk Modulus (GPa) = 48.70507 60.17533 54.44020
# Shear Modulus (GPa) = 22.86930 25.90999 24.38965
#
# Velocity S-wave (km/s) = 3.33339 3.54808 3.44241
# Velocity P-wave (km/s) = 6.20319 6.78399 6.50008
#
# Compressibility (1/GPa) = 0.02053174
#
# Stress axis : x y z
#
# Youngs Moduli (GPa) = 40.29029 78.37367 88.52558
#
# Poissons Ratio (x) = 0.18845 0.79675
# Poissons Ratio (y) = 0.09688 0.24496
# Poissons Ratio (z) = 0.36262 0.21686
#
# Static dielectric constant tensor:
#      x y z
#    x 3.619670 0.000000 0.000000 
#    y 0.000000 3.793530 0.000000 
#    z 0.000000 0.000000 3.468310 
# 
# 
# High freq. dielectric constant tensor:
#      x y z
#    x 1.792100 0.000000 0.000000 
#    y 0.000000 1.807370 0.000000 
#    z 0.000000 0.000000 1.791730 
# 
# From -- ./inp_files/54345.got.cif
#   From: 2010.03.12/outbox.cif.g09.slc.cpg/sg70_28_cif.got.tgz:54345.got - 2010.04.16 13:46:32.
