data_PCOD8285087
_publ_section_title
;
Structure prediction by ZEFSAII (Michael W. Deem and Ramdas Pophale) SiO2 
 PCOD8285087
Probable space group: F M M M
;
_chemical_formula_sum "Si O2"
_cell_formula_units_Z 160
_cell_length_a 21.145576
_cell_length_b 17.502999
_cell_length_c 19.573656
_cell_angle_alpha 90.000000
_cell_angle_beta 90.000000
_cell_angle_gamma 90.000000
_cell_volume 7244.425309
_symmetry_space_group_name_H-M "F M M M"
_symmetry_group_IT_number 69
_symmetry_cell_setting 'orthorhombic'
loop_
_space_group_symop_operation_xyz
x,y,z
-x,-y,z
x,-y,-z
-x,y,-z
-x,-y,-z
x,y,-z
-x,y,z
x,-y,z
x,1/2+y,1/2+z
-x,1/2-y,1/2+z
x,1/2-y,1/2-z
-x,1/2+y,1/2-z
-x,1/2-y,1/2-z
x,1/2+y,1/2-z
-x,1/2+y,1/2+z
x,1/2-y,1/2+z
1/2+x,y,1/2+z
1/2-x,-y,1/2+z
1/2+x,-y,1/2-z
1/2-x,y,1/2-z
1/2-x,-y,1/2-z
1/2+x,y,1/2-z
1/2-x,y,1/2+z
1/2+x,-y,1/2+z
1/2+x,1/2+y,z
1/2-x,1/2-y,z
1/2+x,1/2-y,-z
1/2-x,1/2+y,-z
1/2-x,1/2-y,-z
1/2+x,1/2+y,-z
1/2-x,1/2+y,z
1/2+x,1/2-y,z
loop_
_atom_site_type_symbol
_atom_site_label
_atom_site_fract_x
_atom_site_fract_y
_atom_site_fract_z
Si Si1 0.823640 0.340789 0.749033
Si Si2 0.240343 0.160101 0.500000
Si Si3 0.829790 0.590250 0.394563
Si Si4 0.572561 0.850597 0.140783
Si Si5 0.609497 0.587258 0.500000
Si Si6 0.431706 0.197230 0.425946
O O1 0.828670 0.250000 0.750000
O O2 0.750000 0.367055 0.750000
O O3 0.846589 0.377495 0.679327
O O4 0.871229 0.376688 0.806812
O O5 0.250000 0.250000 0.500000
O O6 0.266784 0.123573 0.429834
O O7 0.166694 0.146467 0.500000
O O8 0.826634 0.500000 0.396632
O O9 0.887969 0.623537 0.436858
O O10 0.500000 0.857152 0.170624
O O11 0.590646 0.762039 0.126943
O O12 0.571416 0.899063 0.070512
O O13 0.633193 0.500000 0.500000
O O14 0.435651 0.238396 0.500000
O O15 0.500000 0.166406 0.402963
#
# Coordination Sequence:
#
# PCOD8285087 Si02
#       6
#    32  16  32  32  16  32
#     4  11  25  42  67  97 136 182 232 281 347 423
#     4  12  26  43  74  99 136 183 232 287 348 435
#     4  12  25  42  65 100 137 174 226 288 351 417
#     4  11  23  43  70 101 135 183 243 291 346 429
#     4  12  25  42  68 105 141 174 224 299 368 416
#     4  10  20  38  65  95 130 174 224 282 346 416
#
# _framework density 22.085947999999998
#
# number of rings (size 3 to 8) (size 9 to 14) (size 15 to 20)
#    0.000    0.800    4.000    3.600    2.800    3.600 
#    0.000    1.000    0.000    0.000    0.000    0.000 
#    0.000    0.000    0.000    0.000    0.000    0.000 
#
# Total GULP energy -495533.874991 kJ/mol
# GULP energy per Si atom -12388.346875 kJ/mol
# Density = 2.203568 g / cm^3
# Si number density = 22.085948 Si / 1000 Ang^3
#
#
#
# Elastic Constant Matrix: (Units=GPa)
#
#
# Indices 1 2 3 4 5 6 
#
# 1 134.7721 25.8765 44.5485 0.0000 0.0000 0.0000
# 2 25.8765 115.5324 25.0705 0.0000 0.0000 0.0000
# 3 44.5485 25.0705 132.7165 0.0000 0.0000 0.0000
# 4 0.0000 0.0000 0.0000 23.2712 0.0000 0.0000
# 5 0.0000 0.0000 0.0000 0.0000 36.4277 0.0000
# 6 0.0000 0.0000 0.0000 0.0000 0.0000 19.1786
#
#
#
# Elastic Compliance Matrix: (Units=1/GPa)
#
#
# Indices 1 2 3 4 5 6 
#
# 1 0.008542 -0.001346 -0.002613 0.000000 0.000000 0.000000
# 2 -0.001346 0.009238 -0.001293 0.000000 0.000000 0.000000
# 3 -0.002613 -0.001293 0.008656 0.000000 0.000000 0.000000
# 4 0.000000 0.000000 0.000000 0.042972 0.000000 0.000000
# 5 0.000000 0.000000 0.000000 0.000000 0.027452 0.000000
# 6 0.000000 0.000000 0.000000 0.000000 0.000000 0.052141
#
#
# Mechanical properties :
#
#
# Convention : Reuss Voigt Hill
#
# Bulk Modulus (GPa) = 62.76933 63.77910 63.27421
# Shear Modulus (GPa) = 30.33686 34.94385 32.64036
#
# Velocity S-wave (km/s) = 3.71021 3.98197 3.84849
# Velocity P-wave (km/s) = 6.84371 7.07685 6.96126
#
# Compressibility (1/GPa) = 0.01593135
#
# Stress axis : x y z
#
# Youngs Moduli (GPa) = 117.06680 108.25187 115.52364
#
# Poissons Ratio (x) = 0.14573 0.30186
# Poissons Ratio (y) = 0.15760 0.14939
# Poissons Ratio (z) = 0.30590 0.13999
#
# Static dielectric constant tensor:
#      x y z
#    x 4.189960 0.000000 0.000000 
#    y 0.000000 3.664920 0.000000 
#    z 0.000000 0.000000 4.178260 
# 
# 
# High freq. dielectric constant tensor:
#      x y z
#    x 1.881060 0.000000 0.000000 
#    y 0.000000 1.844720 0.000000 
#    z 0.000000 0.000000 1.874700 
# 
# From -- ./inp_files/31747.got.cif
#   From: 2010.03.12/outbox.cif.g09.slc.cpg/sg69_16_cif.got.tgz:31747.got - 2010.04.10 23:52:46.
