data_PCOD8285475
_publ_section_title
;
Structure prediction by ZEFSAII (Michael W. Deem and Ramdas Pophale) SiO2 
 PCOD8285475
Probable space group: F M M M
;
_chemical_formula_sum "Si O2"
_cell_formula_units_Z 176
_cell_length_a 18.804909
_cell_length_b 27.454910
_cell_length_c 18.481918
_cell_angle_alpha 90.000000
_cell_angle_beta 90.000000
_cell_angle_gamma 90.000000
_cell_volume 9541.975554
_symmetry_space_group_name_H-M "F M M M"
_symmetry_group_IT_number 69
_symmetry_cell_setting 'orthorhombic'
loop_
_space_group_symop_operation_xyz
x,y,z
-x,-y,z
x,-y,-z
-x,y,-z
-x,-y,-z
x,y,-z
-x,y,z
x,-y,z
x,1/2+y,1/2+z
-x,1/2-y,1/2+z
x,1/2-y,1/2-z
-x,1/2+y,1/2-z
-x,1/2-y,1/2-z
x,1/2+y,1/2-z
-x,1/2+y,1/2+z
x,1/2-y,1/2+z
1/2+x,y,1/2+z
1/2-x,-y,1/2+z
1/2+x,-y,1/2-z
1/2-x,y,1/2-z
1/2-x,-y,1/2-z
1/2+x,y,1/2-z
1/2-x,y,1/2+z
1/2+x,-y,1/2+z
1/2+x,1/2+y,z
1/2-x,1/2-y,z
1/2+x,1/2-y,-z
1/2-x,1/2+y,-z
1/2-x,1/2-y,-z
1/2+x,1/2+y,-z
1/2-x,1/2+y,z
1/2+x,1/2-y,z
loop_
_atom_site_type_symbol
_atom_site_label
_atom_site_fract_x
_atom_site_fract_y
_atom_site_fract_z
Si Si1 0.581103 0.880079 0.084800
Si Si2 0.416127 0.500000 0.084288
Si Si3 0.823725 0.556965 0.824161
Si Si4 0.337865 0.702756 0.663779
Si Si5 0.332782 0.584929 0.161287
Si Si6 0.329508 0.808684 0.326233
O O1 0.500000 0.875409 0.109917
O O2 0.614388 0.928089 0.120996
O O3 0.622719 0.831946 0.108189
O O4 0.588032 0.886662 0.000000
O O5 0.500000 0.500000 0.096499
O O6 0.385151 0.548262 0.121168
O O7 0.395728 0.500000 0.000000
O O8 0.824250 0.500000 0.810109
O O9 0.748641 0.572817 0.859170
O O10 0.838984 0.582800 0.748002
O O11 0.354125 0.758148 0.635772
O O12 0.363031 0.694217 0.745864
O O13 0.255162 0.690499 0.668572
O O14 0.354658 0.640249 0.137448
#
# Coordination Sequence:
#
# PCOD8285475 Si02
#       6
#    32  16  32  32  32  32
#     4  11  24  39  53  77 122 162 182 223 288 339
#     4  11  26  43  56  80 120 153 178 225 296 348
#     4  11  20  36  62  89 111 142 195 239 274 328
#     4   9  16  34  55  87 115 141 179 232 291 328
#     4  11  18  38  63  89 112 143 185 240 283 324
#     4   9  16  30  64  87 106 137 186 246 278 318
#
# _framework density 18.444818000000001
#
# number of rings (size 3 to 8) (size 9 to 14) (size 15 to 20)
#    0.000    1.727    5.455    2.727    0.000    2.182 
#    0.000    6.364    0.000    2.182    0.000    0.000 
#    0.000    0.000    0.000    0.000    0.000    0.000 
#
# Total GULP energy -545279.903143 kJ/mol
# GULP energy per Si atom -12392.725071 kJ/mol
# Density = 1.840284 g / cm^3
# Si number density = 18.444818 Si / 1000 Ang^3
#
#
#
# Elastic Constant Matrix: (Units=GPa)
#
#
# Indices 1 2 3 4 5 6 
#
# 1 69.8028 25.5616 40.1203 0.0000 0.0000 0.0000
# 2 25.5616 149.2748 11.8542 0.0000 0.0000 0.0000
# 3 40.1203 11.8542 46.3878 0.0000 0.0000 0.0000
# 4 0.0000 0.0000 0.0000 21.6425 0.0000 0.0000
# 5 0.0000 0.0000 0.0000 0.0000 28.7815 0.0000
# 6 0.0000 0.0000 0.0000 0.0000 0.0000 21.3224
#
#
#
# Elastic Compliance Matrix: (Units=1/GPa)
#
#
# Indices 1 2 3 4 5 6 
#
# 1 0.029850 -0.003125 -0.025018 0.000000 0.000000 0.000000
# 2 -0.003125 0.007165 0.000872 0.000000 0.000000 0.000000
# 3 -0.025018 0.000872 0.042973 0.000000 0.000000 0.000000
# 4 0.000000 0.000000 0.000000 0.046205 0.000000 0.000000
# 5 0.000000 0.000000 0.000000 0.000000 0.034745 0.000000
# 6 0.000000 0.000000 0.000000 0.000000 0.000000 0.046899
#
#
# Mechanical properties :
#
#
# Convention : Reuss Voigt Hill
#
# Bulk Modulus (GPa) = 39.30111 46.72642 43.01376
# Shear Modulus (GPa) = 18.45960 26.87789 22.66875
#
# Velocity S-wave (km/s) = 3.16698 3.82148 3.50952
# Velocity P-wave (km/s) = 5.89293 6.69774 6.30818
#
# Compressibility (1/GPa) = 0.02544458
#
# Stress axis : x y z
#
# Youngs Moduli (GPa) = 33.50071 139.56898 23.27051
#
# Poissons Ratio (x) = 0.43611 0.58219
# Poissons Ratio (y) = 0.10468 -0.02028
# Poissons Ratio (z) = 0.83814 -0.12164
#
# Static dielectric constant tensor:
#      x y z
#    x 3.273990 0.000000 0.000000 
#    y 0.000000 3.787650 0.000000 
#    z 0.000000 0.000000 3.148830 
# 
# 
# High freq. dielectric constant tensor:
#      x y z
#    x 1.690140 0.000000 0.000000 
#    y 0.000000 1.743350 0.000000 
#    z 0.000000 0.000000 1.683420 
# 
# From -- ./inp_files/23585.got.cif
#   From: 2010.03.12/outbox.cif.g09.slc.cpg/sg69_12_cif.got.tgz:23585.got - 2010.04.10 23:52:46.
