data_PCOD8285612
_publ_section_title
;
Structure prediction by ZEFSAII (Michael W. Deem and Ramdas Pophale) SiO2 
 PCOD8285612
Probable space group: F M M M
;
_chemical_formula_sum "Si O2"
_cell_formula_units_Z 104
_cell_length_a 14.756000
_cell_length_b 14.748823
_cell_length_c 23.266549
_cell_angle_alpha 90.000000
_cell_angle_beta 90.000000
_cell_angle_gamma 90.000000
_cell_volume 5063.583567
_symmetry_space_group_name_H-M "F M M M"
_symmetry_group_IT_number 69
_symmetry_cell_setting 'orthorhombic'
loop_
_space_group_symop_operation_xyz
x,y,z
-x,-y,z
x,-y,-z
-x,y,-z
-x,-y,-z
x,y,-z
-x,y,z
x,-y,z
x,1/2+y,1/2+z
-x,1/2-y,1/2+z
x,1/2-y,1/2-z
-x,1/2+y,1/2-z
-x,1/2-y,1/2-z
x,1/2+y,1/2-z
-x,1/2+y,1/2+z
x,1/2-y,1/2+z
1/2+x,y,1/2+z
1/2-x,-y,1/2+z
1/2+x,-y,1/2-z
1/2-x,y,1/2-z
1/2-x,-y,1/2-z
1/2+x,y,1/2-z
1/2-x,y,1/2+z
1/2+x,-y,1/2+z
1/2+x,1/2+y,z
1/2-x,1/2-y,z
1/2+x,1/2-y,-z
1/2-x,1/2+y,-z
1/2-x,1/2-y,-z
1/2+x,1/2+y,-z
1/2-x,1/2+y,z
1/2+x,1/2-y,z
loop_
_atom_site_type_symbol
_atom_site_label
_atom_site_fract_x
_atom_site_fract_y
_atom_site_fract_z
Si Si1 0.901613 0.100560 0.393514
Si Si2 0.673522 0.000000 0.500000
Si Si3 0.190681 0.336035 0.000000
Si Si4 0.392378 0.500000 0.871445
Si Si5 0.757092 0.643484 0.682612
O O1 0.871815 0.167423 0.443960
O O2 0.833422 0.098103 0.340807
O O3 0.000000 0.131842 0.370599
O O4 0.906265 0.000000 0.420291
O O5 0.738912 0.083962 0.500000
O O6 0.614731 0.000000 0.441121
O O7 0.250000 0.250000 0.000000
O O8 0.500000 0.500000 0.855540
O O9 0.344393 0.408849 0.844878
O O10 0.750000 0.628141 0.750000
O O11 0.750000 0.750000 0.666276
#
# Coordination Sequence:
#
# PCOD8285612 Si02
#       5
#    32   8  16  16  32
#     4  11  22  39  66  96 127 165 217 274 328 390
#     4  12  23  44  63  92 132 168 217 262 321 400
#     4  12  21  39  66  89 129 175 210 265 337 388
#     4  12  26  45  69  98 135 178 220 272 334 398
#     4  11  24  45  69  95 132 176 222 274 330 390
#
# _framework density 20.538813000000001
#
# number of rings (size 3 to 8) (size 9 to 14) (size 15 to 20)
#    0.000    0.615    6.154    2.077    0.000    3.692 
#    0.000    4.615    0.000    0.000    0.000    0.000 
#    0.000    0.000    0.000    0.000    0.000    0.000 
#
# Total GULP energy -322220.209720 kJ/mol
# GULP energy per Si atom -12393.084989 kJ/mol
# Density = 2.049207 g / cm^3
# Si number density = 20.538813 Si / 1000 Ang^3
#
#
#
# Elastic Constant Matrix: (Units=GPa)
#
#
# Indices 1 2 3 4 5 6 
#
# 1 199.2531 59.6012 64.4206 0.0000 0.0000 0.0000
# 2 59.6012 127.5196 32.8427 0.0000 0.0000 0.0000
# 3 64.4206 32.8427 134.7295 0.0000 0.0000 0.0000
# 4 0.0000 0.0000 0.0000 36.7277 0.0000 0.0000
# 5 0.0000 0.0000 0.0000 0.0000 10.3961 0.0000
# 6 0.0000 0.0000 0.0000 0.0000 0.0000 23.7443
#
#
#
# Elastic Compliance Matrix: (Units=1/GPa)
#
#
# Indices 1 2 3 4 5 6 
#
# 1 0.006565 -0.002411 -0.002551 0.000000 0.000000 0.000000
# 2 -0.002411 0.009253 -0.001103 0.000000 0.000000 0.000000
# 3 -0.002551 -0.001103 0.008911 0.000000 0.000000 0.000000
# 4 0.000000 0.000000 0.000000 0.027227 0.000000 0.000000
# 5 0.000000 0.000000 0.000000 0.000000 0.096190 0.000000
# 6 0.000000 0.000000 0.000000 0.000000 0.000000 0.042115
#
#
# Mechanical properties :
#
#
# Convention : Reuss Voigt Hill
#
# Bulk Modulus (GPa) = 79.37440 86.13682 82.75561
# Shear Modulus (GPa) = 24.20247 34.48282 29.34264
#
# Velocity S-wave (km/s) = 3.43647 4.10190 3.78384
# Velocity P-wave (km/s) = 7.38077 8.02893 7.71166
#
# Compressibility (1/GPa) = 0.01259852
#
# Stress axis : x y z
#
# Youngs Moduli (GPa) = 152.32694 108.07413 112.22209
#
# Poissons Ratio (x) = 0.26060 0.28630
# Poissons Ratio (y) = 0.36730 0.12374
# Poissons Ratio (z) = 0.38861 0.11916
#
# Static dielectric constant tensor:
#      x y z
#    x 3.897190 0.000000 0.000000 
#    y 0.000000 4.263550 0.000000 
#    z 0.000000 0.000000 3.858300 
# 
# 
# High freq. dielectric constant tensor:
#      x y z
#    x 1.805800 0.000000 0.000000 
#    y 0.000000 1.808050 0.000000 
#    z 0.000000 0.000000 1.809590 
# 
# From -- ./inp_files/14129.got.cif
#   From: 2010.03.12/outbox.cif.g09.slc.cpg/sg69_8_cif.got.tgz:14129.got - 2010.04.10 23:52:46.
