data_PCOD8285512
_publ_section_title
;
Structure prediction by ZEFSAII (Michael W. Deem and Ramdas Pophale) SiO2 
 PCOD8285512
Probable space group: F M M M
;
_chemical_formula_sum "Si O2"
_cell_formula_units_Z 192
_cell_length_a 20.183767
_cell_length_b 28.291064
_cell_length_c 17.868872
_cell_angle_alpha 90.000000
_cell_angle_beta 90.000000
_cell_angle_gamma 90.000000
_cell_volume 10203.487649
_symmetry_space_group_name_H-M "F M M M"
_symmetry_group_IT_number 69
_symmetry_cell_setting 'orthorhombic'
loop_
_space_group_symop_operation_xyz
x,y,z
-x,-y,z
x,-y,-z
-x,y,-z
-x,-y,-z
x,y,-z
-x,y,z
x,-y,z
x,1/2+y,1/2+z
-x,1/2-y,1/2+z
x,1/2-y,1/2-z
-x,1/2+y,1/2-z
-x,1/2-y,1/2-z
x,1/2+y,1/2-z
-x,1/2+y,1/2+z
x,1/2-y,1/2+z
1/2+x,y,1/2+z
1/2-x,-y,1/2+z
1/2+x,-y,1/2-z
1/2-x,y,1/2-z
1/2-x,-y,1/2-z
1/2+x,y,1/2-z
1/2-x,y,1/2+z
1/2+x,-y,1/2+z
1/2+x,1/2+y,z
1/2-x,1/2-y,z
1/2+x,1/2-y,-z
1/2-x,1/2+y,-z
1/2-x,1/2-y,-z
1/2+x,1/2+y,-z
1/2-x,1/2+y,z
1/2+x,1/2-y,z
loop_
_atom_site_type_symbol
_atom_site_label
_atom_site_fract_x
_atom_site_fract_y
_atom_site_fract_z
Si Si1 0.000000 0.283104 0.676810
Si Si2 0.334623 0.551655 0.826006
Si Si3 0.872248 0.652027 0.314818
Si Si4 0.500000 0.807904 0.912206
Si Si5 0.187249 0.550890 0.849093
Si Si6 0.740700 0.696946 0.914514
Si Si7 0.865847 0.147166 0.641087
O O1 0.000000 0.250000 0.750000
O O2 0.062822 0.317145 0.671763
O O3 0.000000 0.247896 0.606164
O O4 0.363845 0.500000 0.852680
O O5 0.383140 0.596821 0.840383
O O6 0.264549 0.561478 0.867724
O O7 0.320956 0.548102 0.739012
O O8 0.812257 0.672257 0.362174
O O9 0.850370 0.654513 0.228562
O O10 0.437992 0.833840 0.876075
O O11 0.500000 0.814471 0.000000
O O12 0.166826 0.500000 0.884330
O O13 0.139950 0.591825 0.881602
O O14 0.750000 0.750000 0.886473
O O15 0.812691 0.674003 0.908701
O O16 0.715645 0.694653 0.000000
#
# Coordination Sequence:
#
# PCOD8285512 Si02
#       7
#    16  32  32  16  32  32  32
#     4  12  24  42  57  85 117 155 199 245 280 354
#     4   8  14  28  52  86 118 144 182 240 299 343
#     4  11  21  36  61  86 113 153 198 246 296 341
#     4  12  26  42  61  82 119 166 192 233 298 354
#     4   8  14  27  52  85 116 146 186 236 288 337
#     4  11  24  37  53  82 117 150 195 251 299 351
#     4  11  20  37  60  86 114 153 200 240 289 346
#
# _framework density 18.817094999999998
#
# number of rings (size 3 to 8) (size 9 to 14) (size 15 to 20)
#    0.000    1.833    3.333    3.000    0.000    2.667 
#    0.000    0.833    0.000    8.000    0.000    0.000 
#    0.000    2.000    0.000    0.000    0.000    0.000 
#
# Total GULP energy -594833.478148 kJ/mol
# GULP energy per Si atom -12392.364128 kJ/mol
# Density = 1.877427 g / cm^3
# Si number density = 18.817095 Si / 1000 Ang^3
#
#
#
# Elastic Constant Matrix: (Units=GPa)
#
#
# Indices 1 2 3 4 5 6 
#
# 1 103.0184 73.7680 15.9120 0.0000 0.0000 0.0000
# 2 73.7680 199.3511 32.5641 0.0000 0.0000 0.0000
# 3 15.9120 32.5641 56.3733 0.0000 0.0000 0.0000
# 4 0.0000 0.0000 0.0000 16.9553 0.0000 0.0000
# 5 0.0000 0.0000 0.0000 0.0000 15.6440 0.0000
# 6 0.0000 0.0000 0.0000 0.0000 0.0000 53.9138
#
#
#
# Elastic Compliance Matrix: (Units=1/GPa)
#
#
# Indices 1 2 3 4 5 6 
#
# 1 0.013257 -0.004742 -0.001003 0.000000 0.000000 0.000000
# 2 -0.004742 0.007235 -0.002841 0.000000 0.000000 0.000000
# 3 -0.001003 -0.002841 0.019663 0.000000 0.000000 0.000000
# 4 0.000000 0.000000 0.000000 0.058979 0.000000 0.000000
# 5 0.000000 0.000000 0.000000 0.000000 0.063922 0.000000
# 6 0.000000 0.000000 0.000000 0.000000 0.000000 0.018548
#
#
# Mechanical properties :
#
#
# Convention : Reuss Voigt Hill
#
# Bulk Modulus (GPa) = 43.50827 67.02566 55.26697
# Shear Modulus (GPa) = 24.22044 33.06920 28.64482
#
# Velocity S-wave (km/s) = 3.59158 4.19669 3.90587
# Velocity P-wave (km/s) = 6.35383 7.69284 7.05517
#
# Compressibility (1/GPa) = 0.02298413
#
# Stress axis : x y z
#
# Youngs Moduli (GPa) = 75.42908 138.21572 50.85692
#
# Poissons Ratio (x) = 0.65542 0.05100
# Poissons Ratio (y) = 0.35768 0.14448
# Poissons Ratio (z) = 0.07564 0.39265
#
# Static dielectric constant tensor:
#      x y z
#    x 3.344020 0.000000 0.000000 
#    y 0.000000 4.311920 0.000000 
#    z 0.000000 0.000000 3.182300 
# 
# 
# High freq. dielectric constant tensor:
#      x y z
#    x 1.706720 0.000000 0.000000 
#    y 0.000000 1.760550 0.000000 
#    z 0.000000 0.000000 1.698330 
# 
# From -- ./inp_files/23745.got.cif
#   From: 2010.03.12/outbox.cif.g09.slc.cpg/sg69_12_cif.got.tgz:23745.got - 2010.04.10 23:52:46.
