data_PCOD8285396
_publ_section_title
;
Structure prediction by ZEFSAII (Michael W. Deem and Ramdas Pophale) SiO2 
 PCOD8285396
Probable space group: F M M M
;
_chemical_formula_sum "Si O2"
_cell_formula_units_Z 152
_cell_length_a 22.269228
_cell_length_b 23.904965
_cell_length_c 14.768794
_cell_angle_alpha 90.000000
_cell_angle_beta 90.000000
_cell_angle_gamma 90.000000
_cell_volume 7862.095354
_symmetry_space_group_name_H-M "F M M M"
_symmetry_group_IT_number 69
_symmetry_cell_setting 'orthorhombic'
loop_
_space_group_symop_operation_xyz
x,y,z
-x,-y,z
x,-y,-z
-x,y,-z
-x,-y,-z
x,y,-z
-x,y,z
x,-y,z
x,1/2+y,1/2+z
-x,1/2-y,1/2+z
x,1/2-y,1/2-z
-x,1/2+y,1/2-z
-x,1/2-y,1/2-z
x,1/2+y,1/2-z
-x,1/2+y,1/2+z
x,1/2-y,1/2+z
1/2+x,y,1/2+z
1/2-x,-y,1/2+z
1/2+x,-y,1/2-z
1/2-x,y,1/2-z
1/2-x,-y,1/2-z
1/2+x,y,1/2-z
1/2-x,y,1/2+z
1/2+x,-y,1/2+z
1/2+x,1/2+y,z
1/2-x,1/2-y,z
1/2+x,1/2-y,-z
1/2-x,1/2+y,-z
1/2-x,1/2-y,-z
1/2+x,1/2+y,-z
1/2-x,1/2+y,z
1/2+x,1/2-y,z
loop_
_atom_site_type_symbol
_atom_site_label
_atom_site_fract_x
_atom_site_fract_y
_atom_site_fract_z
Si Si1 0.705903 0.937179 0.500000
Si Si2 0.500000 0.790109 0.500000
Si Si3 0.790064 0.935390 0.331282
Si Si4 0.886873 0.145582 0.602596
Si Si5 0.629875 0.831852 0.500000
Si Si6 0.679328 0.748680 0.853209
Si Si7 0.500000 0.707461 0.666484
O O1 0.749175 0.925829 0.417144
O O2 0.648869 0.896553 0.500000
O O3 0.679798 0.000000 0.500000
O O4 0.557893 0.829820 0.500000
O O5 0.500000 0.748542 0.582909
O O6 0.750000 0.909961 0.250000
O O7 0.853757 0.904320 0.343472
O O8 0.805812 0.000000 0.312758
O O9 0.905505 0.127148 0.500000
O O10 0.841305 0.196859 0.592853
O O11 0.943200 0.165808 0.662716
O O12 0.654968 0.804644 0.592293
O O13 0.654199 0.750000 0.750000
O O14 0.750000 0.750000 0.853001
O O15 0.500000 0.750000 0.750000
#
# Coordination Sequence:
#
# PCOD8285396 Si02
#       7
#    16   8  32  32  16  32  16
#     4  10  22  40  63  91 122 164 210 265 330 379
#     4  12  24  40  55  86 121 168 224 246 312 378
#     4  10  23  41  64  93 126 165 211 266 330 389
#     4  12  22  39  62  88 127 167 214 264 317 385
#     4  12  23  40  59  82 123 166 203 260 313 375
#     4  11  23  34  55  89 120 151 197 252 318 386
#     4  12  24  42  61  89 130 176 211 262 321 389
#
# _framework density 19.333269000000001
#
# number of rings (size 3 to 8) (size 9 to 14) (size 15 to 20)
#    0.000    0.842    5.263    2.211    5.895    0.000 
#    0.000    0.789    0.000    1.263    0.000    5.895 
#    0.000    0.000    0.000    0.000    0.000    0.000 
#
# Total GULP energy -471170.221928 kJ/mol
# GULP energy per Si atom -12399.216367 kJ/mol
# Density = 1.928927 g / cm^3
# Si number density = 19.333269 Si / 1000 Ang^3
#
#
#
# Elastic Constant Matrix: (Units=GPa)
#
#
# Indices 1 2 3 4 5 6 
#
# 1 140.7770 68.9340 51.4319 0.0000 0.0000 0.0000
# 2 68.9340 111.4333 37.7488 0.0000 0.0000 0.0000
# 3 51.4319 37.7488 145.5172 0.0000 0.0000 0.0000
# 4 0.0000 0.0000 0.0000 30.1225 0.0000 0.0000
# 5 0.0000 0.0000 0.0000 0.0000 12.8207 0.0000
# 6 0.0000 0.0000 0.0000 0.0000 0.0000 35.2994
#
#
#
# Elastic Compliance Matrix: (Units=1/GPa)
#
#
# Indices 1 2 3 4 5 6 
#
# 1 0.010847 -0.005933 -0.002295 0.000000 0.000000 0.000000
# 2 -0.005933 0.013083 -0.001297 0.000000 0.000000 0.000000
# 3 -0.002295 -0.001297 0.008020 0.000000 0.000000 0.000000
# 4 0.000000 0.000000 0.000000 0.033198 0.000000 0.000000
# 5 0.000000 0.000000 0.000000 0.000000 0.077999 0.000000
# 6 0.000000 0.000000 0.000000 0.000000 0.000000 0.028329
#
#
# Mechanical properties :
#
#
# Convention : Reuss Voigt Hill
#
# Bulk Modulus (GPa) = 77.51455 79.32855 78.42155
# Shear Modulus (GPa) = 25.66409 31.62271 28.64340
#
# Velocity S-wave (km/s) = 3.64738 4.04872 3.85328
# Velocity P-wave (km/s) = 7.61044 7.93583 7.77484
#
# Compressibility (1/GPa) = 0.01290080
#
# Stress axis : x y z
#
# Youngs Moduli (GPa) = 92.19301 76.43286 124.69472
#
# Poissons Ratio (x) = 0.45345 0.28614
# Poissons Ratio (y) = 0.54695 0.16175
# Poissons Ratio (z) = 0.21156 0.09914
#
# Static dielectric constant tensor:
#      x y z
#    x 3.656440 0.000000 0.000000 
#    y 0.000000 3.501560 0.000000 
#    z 0.000000 0.000000 3.695810 
# 
# 
# High freq. dielectric constant tensor:
#      x y z
#    x 1.747000 0.000000 0.000000 
#    y 0.000000 1.737000 0.000000 
#    z 0.000000 0.000000 1.770260 
# 
# From -- ./inp_files/17831.got.cif
#   From: 2010.03.12/outbox.cif.g09.slc.cpg/sg69_9_cif.got.tgz:17831.got - 2010.04.10 23:52:46.
