data_PCOD8285447
_publ_section_title
;
Structure prediction by ZEFSAII (Michael W. Deem and Ramdas Pophale) SiO2 
 PCOD8285447
Probable space group: F M M M
;
_chemical_formula_sum "Si O2"
_cell_formula_units_Z 192
_cell_length_a 16.855596
_cell_length_b 32.554235
_cell_length_c 17.703147
_cell_angle_alpha 90.000000
_cell_angle_beta 90.000000
_cell_angle_gamma 90.000000
_cell_volume 9714.089114
_symmetry_space_group_name_H-M "F M M M"
_symmetry_group_IT_number 69
_symmetry_cell_setting 'orthorhombic'
loop_
_space_group_symop_operation_xyz
x,y,z
-x,-y,z
x,-y,-z
-x,y,-z
-x,-y,-z
x,y,-z
-x,y,z
x,-y,z
x,1/2+y,1/2+z
-x,1/2-y,1/2+z
x,1/2-y,1/2-z
-x,1/2+y,1/2-z
-x,1/2-y,1/2-z
x,1/2+y,1/2-z
-x,1/2+y,1/2+z
x,1/2-y,1/2+z
1/2+x,y,1/2+z
1/2-x,-y,1/2+z
1/2+x,-y,1/2-z
1/2-x,y,1/2-z
1/2-x,-y,1/2-z
1/2+x,y,1/2-z
1/2-x,y,1/2+z
1/2+x,-y,1/2+z
1/2+x,1/2+y,z
1/2-x,1/2-y,z
1/2+x,1/2-y,-z
1/2-x,1/2+y,-z
1/2-x,1/2-y,-z
1/2+x,1/2+y,-z
1/2-x,1/2+y,z
1/2+x,1/2-y,z
loop_
_atom_site_type_symbol
_atom_site_label
_atom_site_fract_x
_atom_site_fract_y
_atom_site_fract_z
Si Si1 0.668849 0.579543 0.659450
Si Si2 0.850084 0.411350 0.663618
Si Si3 0.835673 0.829047 0.085600
Si Si4 0.593582 0.000000 0.086543
Si Si5 0.850281 0.837713 0.584416
Si Si6 0.590116 0.253388 0.411921
Si Si7 0.500000 0.451595 0.085505
O O1 0.761607 0.576808 0.634743
O O2 0.652244 0.581406 0.747751
O O3 0.626654 0.540086 0.626567
O O4 0.627881 0.620774 0.628007
O O5 0.869229 0.364388 0.640591
O O6 0.919264 0.438579 0.627529
O O7 0.742346 0.830291 0.083763
O O8 0.860486 0.785034 0.120764
O O9 0.869779 0.834835 0.000000
O O10 0.500000 0.000000 0.094561
O O11 0.621209 0.000000 0.000000
O O12 0.884365 0.842979 0.500000
O O13 0.888367 0.797531 0.625130
O O14 0.610670 0.257629 0.500000
O O15 0.500000 0.242640 0.395588
O O16 0.500000 0.500000 0.084030
O O17 0.500000 0.433914 0.000000
#
# Coordination Sequence:
#
# PCOD8285447 Si02
#       7
#    32  32  32  16  32  32  16
#     4  10  23  41  64  87 119 160 200 246 306 362
#     4  10  23  40  62  90 122 159 200 240 303 365
#     4   9  17  32  55  81 113 152 196 242 290 349
#     4  11  26  43  64  93 117 152 201 248 296 350
#     4   9  17  33  55  81 110 149 198 247 295 348
#     4   9  17  28  48  79 113 149 192 244 296 346
#     4  11  26  42  62  94 125 158 202 250 305 361
#
# _framework density 19.765105999999999
#
# number of rings (size 3 to 8) (size 9 to 14) (size 15 to 20)
#    0.000    2.333    0.000    1.500    4.667    5.333 
#    0.000    2.500    0.000    5.000    0.000    0.000 
#    0.000    0.000    0.000    0.000    0.000    0.000 
#
# Total GULP energy -594995.778273 kJ/mol
# GULP energy per Si atom -12395.745381 kJ/mol
# Density = 1.972012 g / cm^3
# Si number density = 19.765106 Si / 1000 Ang^3
#
#
#
# Elastic Constant Matrix: (Units=GPa)
#
#
# Indices 1 2 3 4 5 6 
#
# 1 52.6347 44.6588 34.3055 0.0000 0.0000 0.0000
# 2 44.6588 168.3794 51.8002 0.0000 0.0000 0.0000
# 3 34.3055 51.8002 74.6136 0.0000 0.0000 0.0000
# 4 0.0000 0.0000 0.0000 -229.2304 0.0000 0.0000
# 5 0.0000 0.0000 0.0000 0.0000 22.0952 0.0000
# 6 0.0000 0.0000 0.0000 0.0000 0.0000 27.3528
#
#
#
# Elastic Compliance Matrix: (Units=1/GPa)
#
#
# Indices 1 2 3 4 5 6 
#
# 1 0.029778 -0.004687 -0.010437 0.000000 0.000000 0.000000
# 2 -0.004687 0.008290 -0.003600 0.000000 0.000000 0.000000
# 3 -0.010437 -0.003600 0.020701 0.000000 0.000000 0.000000
# 4 0.000000 0.000000 0.000000 -0.004362 0.000000 0.000000
# 5 0.000000 0.000000 0.000000 0.000000 0.045259 0.000000
# 6 0.000000 0.000000 0.000000 0.000000 0.000000 0.036559
#
#
# Mechanical properties :
#
#
# Convention : Reuss Voigt Hill
#
# Bulk Modulus (GPa) = 46.90526 61.90628 54.40577
# Shear Modulus (GPa) = 27.65793 -24.96560 1.34617
#
# Velocity S-wave (km/s) = 3.74482 -3.55789 0.82617
# Velocity P-wave (km/s) = 6.51775 3.80932 5.33817
#
# Compressibility (1/GPa) = 0.02131957
#
# Stress axis : x y z
#
# Youngs Moduli (GPa) = 33.58129 120.63277 48.30783
#
# Poissons Ratio (x) = 0.56542 0.50421
# Poissons Ratio (y) = 0.15740 0.17391
# Poissons Ratio (z) = 0.35050 0.43428
#
# Static dielectric constant tensor:
#      x y z
#    x 3.576480 0.000000 0.000000 
#    y 0.000000 3.866750 0.000000 
#    z 0.000000 0.000000 3.508750 
# 
# 
# High freq. dielectric constant tensor:
#      x y z
#    x 1.768310 0.000000 0.000000 
#    y 0.000000 1.789290 0.000000 
#    z 0.000000 0.000000 1.744260 
# 
# From -- ./inp_files/23759.got.cif
#   From: 2010.03.12/outbox.cif.g09.slc.cpg/sg69_12_cif.got.tgz:23759.got - 2010.04.10 23:52:46.
