data_PCOD8285628
_publ_section_title
;
Structure prediction by ZEFSAII (Michael W. Deem and Ramdas Pophale) SiO2 
 PCOD8285628
Probable space group: F M M M
;
_chemical_formula_sum "Si O2"
_cell_formula_units_Z 160
_cell_length_a 18.873557
_cell_length_b 17.297906
_cell_length_c 25.087647
_cell_angle_alpha 90.000000
_cell_angle_beta 90.000000
_cell_angle_gamma 90.000000
_cell_volume 8190.439752
_symmetry_space_group_name_H-M "F M M M"
_symmetry_group_IT_number 69
_symmetry_cell_setting 'orthorhombic'
loop_
_space_group_symop_operation_xyz
x,y,z
-x,-y,z
x,-y,-z
-x,y,-z
-x,-y,-z
x,y,-z
-x,y,z
x,-y,z
x,1/2+y,1/2+z
-x,1/2-y,1/2+z
x,1/2-y,1/2-z
-x,1/2+y,1/2-z
-x,1/2-y,1/2-z
x,1/2+y,1/2-z
-x,1/2+y,1/2+z
x,1/2-y,1/2+z
1/2+x,y,1/2+z
1/2-x,-y,1/2+z
1/2+x,-y,1/2-z
1/2-x,y,1/2-z
1/2-x,-y,1/2-z
1/2+x,y,1/2-z
1/2-x,y,1/2+z
1/2+x,-y,1/2+z
1/2+x,1/2+y,z
1/2-x,1/2-y,z
1/2+x,1/2-y,-z
1/2-x,1/2+y,-z
1/2-x,1/2-y,-z
1/2+x,1/2+y,-z
1/2-x,1/2+y,z
1/2+x,1/2-y,z
loop_
_atom_site_type_symbol
_atom_site_label
_atom_site_fract_x
_atom_site_fract_y
_atom_site_fract_z
Si Si1 0.166769 0.914286 0.256186
Si Si2 0.578650 0.340138 0.162103
Si Si3 0.616802 0.090293 0.557395
Si Si4 0.278977 0.589090 0.438753
Si Si5 0.677474 0.201922 0.150220
O O1 0.250000 0.920870 0.250000
O O2 0.129483 0.886630 0.201931
O O3 0.153601 0.851911 0.301291
O O4 0.136988 0.000000 0.270570
O O5 0.500000 0.330113 0.187122
O O6 0.568509 0.384593 0.106331
O O7 0.611745 0.258840 0.145650
O O8 0.593109 0.126812 0.500000
O O9 0.697801 0.113672 0.569245
O O10 0.611566 0.000000 0.551026
O O11 0.302783 0.599231 0.500000
O O12 0.291408 0.500000 0.420509
O O13 0.321979 0.648867 0.402393
O O14 0.750000 0.250000 0.160826
#
# Coordination Sequence:
#
# PCOD8285628 Si02
#       5
#    32  32  32  32  32
#     4  11  23  40  63  86 113 155 207 249 288 353
#     4  12  26  40  58  89 126 160 198 251 310 368
#     4   9  18  35  59  87 122 161 199 242 297 363
#     4   9  18  35  62  95 124 155 205 258 295 343
#     4  12  22  37  62  89 119 159 200 246 305 357
#
# _framework density 19.534970000000001
#
# number of rings (size 3 to 8) (size 9 to 14) (size 15 to 20)
#    0.000    1.400    4.000    3.000    0.000    8.000 
#    0.000    1.000    0.000    1.800    0.000    1.400 
#    0.000    0.000    0.000    0.000    0.000    0.000 
#
# Total GULP energy -495773.397446 kJ/mol
# GULP energy per Si atom -12394.334936 kJ/mol
# Density = 1.949051 g / cm^3
# Si number density = 19.534970 Si / 1000 Ang^3
#
#
#
# Elastic Constant Matrix: (Units=GPa)
#
#
# Indices 1 2 3 4 5 6 
#
# 1 91.0443 37.0216 36.7648 0.0000 0.0000 0.0000
# 2 37.0216 53.4954 43.7761 0.0000 0.0000 0.0000
# 3 36.7648 43.7761 124.6127 0.0000 0.0000 0.0000
# 4 0.0000 0.0000 0.0000 24.9890 0.0000 0.0000
# 5 0.0000 0.0000 0.0000 0.0000 16.4047 0.0000
# 6 0.0000 0.0000 0.0000 0.0000 0.0000 -50.4986
#
#
#
# Elastic Compliance Matrix: (Units=1/GPa)
#
#
# Indices 1 2 3 4 5 6 
#
# 1 0.015396 -0.009737 -0.001122 0.000000 0.000000 0.000000
# 2 -0.009737 0.032393 -0.008507 0.000000 0.000000 0.000000
# 3 -0.001122 -0.008507 0.011344 0.000000 0.000000 0.000000
# 4 0.000000 0.000000 0.000000 0.040018 0.000000 0.000000
# 5 0.000000 0.000000 0.000000 0.000000 0.060958 0.000000
# 6 0.000000 0.000000 0.000000 0.000000 0.000000 -0.019803
#
#
# Mechanical properties :
#
#
# Convention : Reuss Voigt Hill
#
# Bulk Modulus (GPa) = 49.01442 56.03083 52.52263
# Shear Modulus (GPa) = 26.90517 8.28502 17.59510
#
# Velocity S-wave (km/s) = 3.71520 2.06163 3.00442
# Velocity P-wave (km/s) = 6.59914 5.86615 6.24341
#
# Compressibility (1/GPa) = 0.02040216
#
# Stress axis : x y z
#
# Youngs Moduli (GPa) = 64.95202 30.87100 88.15026
#
# Poissons Ratio (x) = 0.30059 0.09889
# Poissons Ratio (y) = 0.63243 0.74988
# Poissons Ratio (z) = 0.07286 0.26261
#
# Static dielectric constant tensor:
#      x y z
#    x 9.425630 0.000000 0.000000 
#    y 0.000000 3.808550 0.000000 
#    z 0.000000 0.000000 3.815010 
# 
# 
# High freq. dielectric constant tensor:
#      x y z
#    x 1.724470 0.000000 0.000000 
#    y 0.000000 1.769350 0.000000 
#    z 0.000000 0.000000 1.773710 
# 
# From -- ./inp_files/23170.got.cif
#   From: 2010.03.12/outbox.cif.g09.slc.cpg/sg69_12_cif.got.tgz:23170.got - 2010.04.10 23:52:46.
