data_PCOD8285325
_publ_section_title
;
Structure prediction by ZEFSAII (Michael W. Deem and Ramdas Pophale) SiO2 
 PCOD8285325
Probable space group: F M M M
;
_chemical_formula_sum "Si O2"
_cell_formula_units_Z 136
_cell_length_a 16.537974
_cell_length_b 15.695511
_cell_length_c 23.587038
_cell_angle_alpha 90.000000
_cell_angle_beta 90.000000
_cell_angle_gamma 90.000000
_cell_volume 6122.533515
_symmetry_space_group_name_H-M "F M M M"
_symmetry_group_IT_number 69
_symmetry_cell_setting 'orthorhombic'
loop_
_space_group_symop_operation_xyz
x,y,z
-x,-y,z
x,-y,-z
-x,y,-z
-x,-y,-z
x,y,-z
-x,y,z
x,-y,z
x,1/2+y,1/2+z
-x,1/2-y,1/2+z
x,1/2-y,1/2-z
-x,1/2+y,1/2-z
-x,1/2-y,1/2-z
x,1/2+y,1/2-z
-x,1/2+y,1/2+z
x,1/2-y,1/2+z
1/2+x,y,1/2+z
1/2-x,-y,1/2+z
1/2+x,-y,1/2-z
1/2-x,y,1/2-z
1/2-x,-y,1/2-z
1/2+x,y,1/2-z
1/2-x,y,1/2+z
1/2+x,-y,1/2+z
1/2+x,1/2+y,z
1/2-x,1/2-y,z
1/2+x,1/2-y,-z
1/2-x,1/2+y,-z
1/2-x,1/2-y,-z
1/2+x,1/2+y,-z
1/2-x,1/2+y,z
1/2+x,1/2-y,z
loop_
_atom_site_type_symbol
_atom_site_label
_atom_site_fract_x
_atom_site_fract_y
_atom_site_fract_z
Si Si1 0.500000 0.898059 0.113584
Si Si2 0.659478 0.904227 0.830289
Si Si3 0.823456 0.602133 0.618117
Si Si4 0.500000 0.700577 0.500000
Si Si5 0.167335 0.305526 0.500000
Si Si6 0.591444 0.656918 0.774997
O O1 0.421182 0.859331 0.144949
O O2 0.500000 0.864501 0.050938
O O3 0.500000 0.000000 0.114861
O O4 0.738981 0.861417 0.856660
O O5 0.653347 0.901429 0.761723
O O6 0.661987 0.000000 0.852241
O O7 0.831754 0.500000 0.620384
O O8 0.833813 0.633397 0.554341
O O9 0.890438 0.645951 0.658414
O O10 0.583309 0.753797 0.500000
O O11 0.250000 0.250000 0.500000
O O12 0.500000 0.626411 0.764757
O O13 0.606369 0.750000 0.750000
#
# Coordination Sequence:
#
# PCOD8285325 Si02
#       6
#    16  32  32   8  16  32
#     4  10  21  40  68  96 134 177 222 289 350 410
#     4  10  21  40  67  97 132 173 225 282 344 413
#     4  11  26  46  69 100 139 188 236 282 345 421
#     4  12  27  42  69 100 138 174 246 284 343 420
#     4  12  29  48  73 100 140 188 234 302 349 400
#     4  11  25  40  67 101 141 179 226 281 345 413
#
# _framework density 22.213028000000001
#
# number of rings (size 3 to 8) (size 9 to 14) (size 15 to 20)
#    0.000    1.176    1.176    3.353    8.235    4.235 
#    0.000    5.294    0.000    0.000    0.000    0.000 
#    0.000    0.000    0.000    0.000    0.000    0.000 
#
# Total GULP energy -421479.527260 kJ/mol
# GULP energy per Si atom -12396.456684 kJ/mol
# Density = 2.216247 g / cm^3
# Si number density = 22.213028 Si / 1000 Ang^3
#
#
#
# Elastic Constant Matrix: (Units=GPa)
#
#
# Indices 1 2 3 4 5 6 
#
# 1 115.2414 30.5291 33.9193 0.0000 0.0000 0.0000
# 2 30.5291 66.0919 37.4106 0.0000 0.0000 0.0000
# 3 33.9193 37.4106 176.3220 0.0000 0.0000 0.0000
# 4 0.0000 0.0000 0.0000 34.0670 0.0000 0.0000
# 5 0.0000 0.0000 0.0000 0.0000 32.1315 0.0000
# 6 0.0000 0.0000 0.0000 0.0000 0.0000 19.9967
#
#
#
# Elastic Compliance Matrix: (Units=1/GPa)
#
#
# Indices 1 2 3 4 5 6 
#
# 1 0.010065 -0.004038 -0.001079 0.000000 0.000000 0.000000
# 2 -0.004038 0.018816 -0.003215 0.000000 0.000000 0.000000
# 3 -0.001079 -0.003215 0.006561 0.000000 0.000000 0.000000
# 4 0.000000 0.000000 0.000000 0.029354 0.000000 0.000000
# 5 0.000000 0.000000 0.000000 0.000000 0.031122 0.000000
# 6 0.000000 0.000000 0.000000 0.000000 0.000000 0.050008
#
#
# Mechanical properties :
#
#
# Convention : Reuss Voigt Hill
#
# Bulk Modulus (GPa) = 53.25923 62.37479 57.81701
# Shear Modulus (GPa) = 29.61194 34.29212 31.95203
#
# Velocity S-wave (km/s) = 3.65511 3.93336 3.79679
# Velocity P-wave (km/s) = 6.46852 6.98353 6.73095
#
# Compressibility (1/GPa) = 0.01877609
#
# Stress axis : x y z
#
# Youngs Moduli (GPa) = 99.35501 53.14694 152.40890
#
# Poissons Ratio (x) = 0.21462 0.16451
# Poissons Ratio (y) = 0.40121 0.49005
# Poissons Ratio (z) = 0.10724 0.17089
#
# Static dielectric constant tensor:
#      x y z
#    x 4.398300 0.000000 0.000000 
#    y 0.000000 3.778670 0.000000 
#    z 0.000000 0.000000 4.099490 
# 
# 
# High freq. dielectric constant tensor:
#      x y z
#    x 1.889190 0.000000 0.000000 
#    y 0.000000 1.864920 0.000000 
#    z 0.000000 0.000000 1.885750 
# 
# From -- ./inp_files/30543.got.cif
#   From: 2010.03.12/outbox.cif.g09.slc.cpg/sg69_16_cif.got.tgz:30543.got - 2010.04.10 23:52:46.
