data_PCOD8285918
_publ_section_title
;
Structure prediction by ZEFSAII (Michael W. Deem and Ramdas Pophale) SiO2 
 PCOD8285918
Probable space group: F D D D
;
_chemical_formula_sum "Si O2"
_cell_formula_units_Z 208
_cell_length_a 19.383523
_cell_length_b 18.867834
_cell_length_c 28.287543
_cell_angle_alpha 90.000000
_cell_angle_beta 90.000000
_cell_angle_gamma 90.000000
_cell_volume 10345.464331
_symmetry_space_group_name_H-M "F D D D"
_symmetry_group_IT_number 70
_space_group.IT_coordinate_system_code '2'
_symmetry_cell_setting 'orthorhombic'
loop_
_space_group_symop_operation_xyz
x,y,z
1/4-x,1/4-y,z
x,1/4-y,1/4-z
1/4-x,y,1/4-z
-x,-y,-z
3/4+x,3/4+y,-z
-x,3/4+y,3/4+z
3/4+x,-y,3/4+z
x,1/2+y,1/2+z
1/4-x,3/4-y,1/2+z
x,3/4-y,3/4-z
1/4-x,1/2+y,3/4-z
-x,1/2-y,1/2-z
3/4+x,1/4+y,1/2-z
-x,1/4+y,1/4+z
3/4+x,1/2-y,1/4+z
1/2+x,y,1/2+z
3/4-x,1/4-y,1/2+z
1/2+x,1/4-y,3/4-z
3/4-x,y,3/4-z
1/2-x,-y,1/2-z
1/4+x,3/4+y,1/2-z
1/2-x,3/4+y,1/4+z
1/4+x,-y,1/4+z
1/2+x,1/2+y,z
3/4-x,3/4-y,z
1/2+x,3/4-y,1/4-z
3/4-x,1/2+y,1/4-z
1/2-x,1/2-y,-z
1/4+x,1/4+y,-z
1/2-x,1/4+y,3/4+z
1/4+x,1/2-y,3/4+z
loop_
_atom_site_type_symbol
_atom_site_label
_atom_site_fract_x
_atom_site_fract_y
_atom_site_fract_z
Si Si1 0.139953 0.289922 0.376544
Si Si2 0.269345 0.307016 0.148879
Si Si3 0.875000 0.098724 0.875000
Si Si4 0.310316 0.835307 0.178701
Si Si5 0.205662 0.444626 0.279903
Si Si6 0.306907 0.333484 0.254780
Si Si7 0.165785 0.434734 0.036641
O O1 0.139435 0.375000 0.375000
O O2 0.061867 0.262313 0.383197
O O3 0.172934 0.248135 0.331555
O O4 0.187660 0.267975 0.420918
O O5 0.190363 0.297226 0.131798
O O6 0.298092 0.376996 0.122268
O O7 0.270743 0.312657 0.205506
O O8 0.877995 0.152802 0.918458
O O9 0.375000 0.875000 0.203667
O O10 0.245165 0.843793 0.214309
O O11 0.250000 0.500000 0.250000
O O12 0.253668 0.376662 0.287105
O O13 0.132505 0.417154 0.258155
O O14 0.375000 0.375000 0.240082
O O15 0.329545 0.269470 0.288520
#
# Coordination Sequence:
#
# PCOD8285918 Si02
#       7
#    32  32  16  32  32  32  32
#     4  11  22  38  60  87 122 156 195 247 303 350
#     4  10  19  37  62  81 113 156 205 232 286 364
#     4  10  22  38  60  86 112 154 204 246 292 350
#     4   9  20  38  60  82 109 157 204 239 284 357
#     4  12  22  36  57  87 123 161 195 236 298 368
#     4  12  21  34  55  88 119 159 189 236 288 363
#     4  11  22  35  60  85 119 149 198 247 287 340
#
# _framework density 20.105429000000001
#
# number of rings (size 3 to 8) (size 9 to 14) (size 15 to 20)
#    0.000    1.231    4.615    3.231    2.154    0.000 
#    0.000    0.769    3.385    3.692    0.000    0.000 
#    0.000    0.000    0.000    0.000    0.000    0.000 
#
# Total GULP energy -644355.572208 kJ/mol
# GULP energy per Si atom -12391.453312 kJ/mol
# Density = 2.005967 g / cm^3
# Si number density = 20.105429 Si / 1000 Ang^3
#
#
#
# Elastic Constant Matrix: (Units=GPa)
#
#
# Indices 1 2 3 4 5 6 
#
# 1 145.2336 34.5322 21.9884 0.0000 0.0000 0.0000
# 2 34.5322 89.7523 4.6443 0.0000 0.0000 0.0000
# 3 21.9884 4.6443 33.5033 0.0000 0.0000 0.0000
# 4 0.0000 0.0000 0.0000 15.4084 0.0000 0.0000
# 5 0.0000 0.0000 0.0000 0.0000 22.3753 0.0000
# 6 0.0000 0.0000 0.0000 0.0000 0.0000 41.5898
#
#
#
# Elastic Compliance Matrix: (Units=1/GPa)
#
#
# Indices 1 2 3 4 5 6 
#
# 1 0.008356 -0.002952 -0.005075 0.000000 0.000000 0.000000
# 2 -0.002952 0.012265 0.000237 0.000000 0.000000 0.000000
# 3 -0.005075 0.000237 0.033145 0.000000 0.000000 0.000000
# 4 0.000000 0.000000 0.000000 0.064900 0.000000 0.000000
# 5 0.000000 0.000000 0.000000 0.000000 0.044692 0.000000
# 6 0.000000 0.000000 0.000000 0.000000 0.000000 0.024044
#
#
# Mechanical properties :
#
#
# Convention : Reuss Voigt Hill
#
# Bulk Modulus (GPa) = 26.18670 43.42434 34.80552
# Shear Modulus (GPa) = 23.17917 29.69632 26.43775
#
# Velocity S-wave (km/s) = 3.39909 3.84738 3.63017
# Velocity P-wave (km/s) = 5.33461 6.43286 5.90931
#
# Compressibility (1/GPa) = 0.03818732
#
# Stress axis : x y z
#
# Youngs Moduli (GPa) = 119.67841 81.53032 30.17008
#
# Poissons Ratio (x) = 0.24070 0.15310
# Poissons Ratio (y) = 0.35332 -0.00716
# Poissons Ratio (z) = 0.60733 -0.01935
#
# Static dielectric constant tensor:
#      x y z
#    x 4.266360 0.000000 0.000000 
#    y 0.000000 3.608620 0.000000 
#    z 0.000000 0.000000 3.427950 
# 
# 
# High freq. dielectric constant tensor:
#      x y z
#    x 1.806570 0.000000 0.000000 
#    y 0.000000 1.769560 0.000000 
#    z 0.000000 0.000000 1.754120 
# 
# From -- ./inp_files/36892.got.cif
#   From: 2010.03.12/outbox.cif.g09.slc.cpg/sg70_19_cif.got.tgz:36892.got - 2010.04.16 13:46:32.
