data_PCOD8285625
_publ_section_title
;
Structure prediction by ZEFSAII (Michael W. Deem and Ramdas Pophale) SiO2 
 PCOD8285625
Probable space group: F M M M
;
_chemical_formula_sum "Si O2"
_cell_formula_units_Z 144
_cell_length_a 17.652331
_cell_length_b 13.190138
_cell_length_c 29.578657
_cell_angle_alpha 90.000000
_cell_angle_beta 90.000000
_cell_angle_gamma 90.000000
_cell_volume 6886.996351
_symmetry_space_group_name_H-M "F M M M"
_symmetry_group_IT_number 69
_symmetry_cell_setting 'orthorhombic'
loop_
_space_group_symop_operation_xyz
x,y,z
-x,-y,z
x,-y,-z
-x,y,-z
-x,-y,-z
x,y,-z
-x,y,z
x,-y,z
x,1/2+y,1/2+z
-x,1/2-y,1/2+z
x,1/2-y,1/2-z
-x,1/2+y,1/2-z
-x,1/2-y,1/2-z
x,1/2+y,1/2-z
-x,1/2+y,1/2+z
x,1/2-y,1/2+z
1/2+x,y,1/2+z
1/2-x,-y,1/2+z
1/2+x,-y,1/2-z
1/2-x,y,1/2-z
1/2-x,-y,1/2-z
1/2+x,y,1/2-z
1/2-x,y,1/2+z
1/2+x,-y,1/2+z
1/2+x,1/2+y,z
1/2-x,1/2-y,z
1/2+x,1/2-y,-z
1/2-x,1/2+y,-z
1/2-x,1/2-y,-z
1/2+x,1/2+y,-z
1/2-x,1/2+y,z
1/2+x,1/2-y,z
loop_
_atom_site_type_symbol
_atom_site_label
_atom_site_fract_x
_atom_site_fract_y
_atom_site_fract_z
Si Si1 0.500000 0.107779 0.628388
Si Si2 0.500000 0.171759 0.869786
Si Si3 0.651890 0.612708 0.406996
Si Si4 0.750000 0.750000 0.842212
Si Si5 0.127299 0.387665 0.298691
Si Si6 0.500000 0.118630 0.228778
Si Si7 0.412726 0.621193 0.500000
O O1 0.500000 0.217898 0.603819
O O2 0.575782 0.105625 0.657327
O O3 0.500000 0.000000 0.599511
O O4 0.571730 0.105182 0.882155
O O5 0.500000 0.189442 0.815582
O O6 0.686042 0.500000 0.411632
O O7 0.708292 0.675829 0.376541
O O8 0.634709 0.660635 0.456525
O O9 0.805355 0.809146 0.808257
O O10 0.161407 0.500000 0.289017
O O11 0.075934 0.352954 0.256314
O O12 0.500000 0.000000 0.216280
O O13 0.416084 0.500000 0.500000
O O14 0.500000 0.662232 0.500000
#
# Coordination Sequence:
#
# PCOD8285625 Si02
#       7
#    16  16  32  16  32  16  16
#     4   9  18  36  59  81 106 148 201 240 280 337
#     4  12  20  38  66  92 107 146 207 258 284 327
#     4  11  23  38  61  92 120 148 191 243 294 348
#     4  12  22  37  57  86 120 162 194 233 279 354
#     4   9  19  37  56  79 114 157 196 237 292 340
#     4   9  20  38  62  83 110 152 200 250 288 329
#     4   9  18  37  62  88 120 148 178 240 308 346
#
# _framework density 20.908971000000001
#
# number of rings (size 3 to 8) (size 9 to 14) (size 15 to 20)
#    0.000    1.889    3.333    3.000    0.000    2.222 
#    0.000    2.222    0.000    5.333    0.000    3.111 
#    0.000    0.000    0.000    0.000    0.000    0.000 
#
# Total GULP energy -446046.672448 kJ/mol
# GULP energy per Si atom -12390.185346 kJ/mol
# Density = 2.086138 g / cm^3
# Si number density = 20.908971 Si / 1000 Ang^3
#
#
#
# Elastic Constant Matrix: (Units=GPa)
#
#
# Indices 1 2 3 4 5 6 
#
# 1 116.7340 40.5022 47.4597 0.0000 0.0000 0.0000
# 2 40.5022 103.3279 30.2975 0.0000 0.0000 0.0000
# 3 47.4597 30.2975 112.2330 0.0000 0.0000 0.0000
# 4 0.0000 0.0000 0.0000 10.9339 0.0000 0.0000
# 5 0.0000 0.0000 0.0000 0.0000 25.6213 0.0000
# 6 0.0000 0.0000 0.0000 0.0000 0.0000 22.8603
#
#
#
# Elastic Compliance Matrix: (Units=1/GPa)
#
#
# Indices 1 2 3 4 5 6 
#
# 1 0.011286 -0.003284 -0.003886 0.000000 0.000000 0.000000
# 2 -0.003284 0.011466 -0.001706 0.000000 0.000000 0.000000
# 3 -0.003886 -0.001706 0.011014 0.000000 0.000000 0.000000
# 4 0.000000 0.000000 0.000000 0.091458 0.000000 0.000000
# 5 0.000000 0.000000 0.000000 0.000000 0.039030 0.000000
# 6 0.000000 0.000000 0.000000 0.000000 0.000000 0.043744
#
#
# Mechanical properties :
#
#
# Convention : Reuss Voigt Hill
#
# Bulk Modulus (GPa) = 62.45187 63.20152 62.82670
# Shear Modulus (GPa) = 21.63675 26.15213 23.89444
#
# Velocity S-wave (km/s) = 3.22033 3.54045 3.38418
# Velocity P-wave (km/s) = 6.61519 6.85607 6.73670
#
# Compressibility (1/GPa) = 0.01601233
#
# Stress axis : x y z
#
# Youngs Moduli (GPa) = 88.60632 87.21689 90.79490
#
# Poissons Ratio (x) = 0.28646 0.35281
# Poissons Ratio (y) = 0.29102 0.15492
# Poissons Ratio (z) = 0.34431 0.14882
#
# Static dielectric constant tensor:
#      x y z
#    x 3.690110 0.000000 0.000000 
#    y 0.000000 4.134380 0.000000 
#    z 0.000000 0.000000 3.702330 
# 
# 
# High freq. dielectric constant tensor:
#      x y z
#    x 1.807730 0.000000 0.000000 
#    y 0.000000 1.828850 0.000000 
#    z 0.000000 0.000000 1.790520 
# 
# From -- ./inp_files/46219.got.cif
#   From: 2010.03.12/outbox.cif.g09.slc.cpg/sg69_24_cif.got.tgz:46219.got - 2010.04.10 23:52:46.
