data_PCOD8285341
_publ_section_title
;
Structure prediction by ZEFSAII (Michael W. Deem and Ramdas Pophale) SiO2 
 PCOD8285341
Probable space group: F M M M
;
_chemical_formula_sum "Si O2"
_cell_formula_units_Z 128
_cell_length_a 17.218336
_cell_length_b 23.776121
_cell_length_c 17.235305
_cell_angle_alpha 90.000000
_cell_angle_beta 90.000000
_cell_angle_gamma 90.000000
_cell_volume 7055.879477
_symmetry_space_group_name_H-M "F M M M"
_symmetry_group_IT_number 69
_symmetry_cell_setting 'orthorhombic'
loop_
_space_group_symop_operation_xyz
x,y,z
-x,-y,z
x,-y,-z
-x,y,-z
-x,-y,-z
x,y,-z
-x,y,z
x,-y,z
x,1/2+y,1/2+z
-x,1/2-y,1/2+z
x,1/2-y,1/2-z
-x,1/2+y,1/2-z
-x,1/2-y,1/2-z
x,1/2+y,1/2-z
-x,1/2+y,1/2+z
x,1/2-y,1/2+z
1/2+x,y,1/2+z
1/2-x,-y,1/2+z
1/2+x,-y,1/2-z
1/2-x,y,1/2-z
1/2-x,-y,1/2-z
1/2+x,y,1/2-z
1/2-x,y,1/2+z
1/2+x,-y,1/2+z
1/2+x,1/2+y,z
1/2-x,1/2-y,z
1/2+x,1/2-y,-z
1/2-x,1/2+y,-z
1/2-x,1/2-y,-z
1/2+x,1/2+y,-z
1/2-x,1/2+y,z
1/2+x,1/2-y,z
loop_
_atom_site_type_symbol
_atom_site_label
_atom_site_fract_x
_atom_site_fract_y
_atom_site_fract_z
Si Si1 0.194893 0.646641 0.180773
Si Si2 0.842099 0.129819 0.090069
Si Si3 0.841815 0.255001 0.084670
Si Si4 0.410364 0.935292 0.726143
O O1 0.250000 0.669686 0.250000
O O2 0.251070 0.623453 0.112805
O O3 0.139759 0.697245 0.148850
O O4 0.140240 0.596776 0.209744
O O5 0.873236 0.193279 0.108268
O O6 0.894616 0.087716 0.139788
O O7 0.851416 0.114536 0.000000
O O8 0.750000 0.250000 0.077502
O O9 0.876005 0.272189 0.000000
O O10 0.500000 0.927328 0.747163
O O11 0.385316 0.000000 0.728634
#
# Coordination Sequence:
#
# PCOD8285341 Si02
#       4
#    32  32  32  32
#     4   9  17  29  51  76  99 126 160 199 239 284
#     4   9  18  32  53  79 101 123 157 200 242 288
#     4   8  14  27  48  75 103 125 148 188 244 296
#     4  10  22  37  49  65  96 136 170 201 241 286
#
# _framework density 18.140899000000001
#
# number of rings (size 3 to 8) (size 9 to 14) (size 15 to 20)
#    0.000    3.000    0.000    2.250    0.000   17.000 
#    0.000    3.750    0.000    6.750    0.000    7.000 
#    0.000    0.000    0.000    0.000    0.000    0.000 
#
# Total GULP energy -396588.263103 kJ/mol
# GULP energy per Si atom -12393.383222 kJ/mol
# Density = 1.809961 g / cm^3
# Si number density = 18.140899 Si / 1000 Ang^3
#
#
#
# Elastic Constant Matrix: (Units=GPa)
#
#
# Indices 1 2 3 4 5 6 
#
# 1 41.3519 47.8603 27.6640 0.0000 0.0000 0.0000
# 2 47.8603 150.3266 80.4797 0.0000 0.0000 0.0000
# 3 27.6640 80.4797 96.0787 0.0000 0.0000 0.0000
# 4 0.0000 0.0000 0.0000 11.2492 0.0000 0.0000
# 5 0.0000 0.0000 0.0000 0.0000 11.4298 0.0000
# 6 0.0000 0.0000 0.0000 0.0000 0.0000 5.4187
#
#
#
# Elastic Compliance Matrix: (Units=1/GPa)
#
#
# Indices 1 2 3 4 5 6 
#
# 1 0.038409 -0.011436 -0.001479 0.000000 0.000000 0.000000
# 2 -0.011436 0.015466 -0.009662 0.000000 0.000000 0.000000
# 3 -0.001479 -0.009662 0.018928 0.000000 0.000000 0.000000
# 4 0.000000 0.000000 0.000000 0.088896 0.000000 0.000000
# 5 0.000000 0.000000 0.000000 0.000000 0.087491 0.000000
# 6 0.000000 0.000000 0.000000 0.000000 0.000000 0.184548
#
#
# Mechanical properties :
#
#
# Convention : Reuss Voigt Hill
#
# Bulk Modulus (GPa) = 36.17105 66.64057 51.40581
# Shear Modulus (GPa) = 10.24365 14.40307 12.32336
#
# Velocity S-wave (km/s) = 2.37886 2.82078 2.60919
# Velocity P-wave (km/s) = 5.24667 6.88649 6.12174
#
# Compressibility (1/GPa) = 0.02764642
#
# Stress axis : x y z
#
# Youngs Moduli (GPa) = 26.03571 64.65802 52.83316
#
# Poissons Ratio (x) = 0.73945 0.07817
# Poissons Ratio (y) = 0.29775 0.51048
# Poissons Ratio (z) = 0.03852 0.62473
#
# Static dielectric constant tensor:
#      x y z
#    x 2.974390 0.000000 0.000000 
#    y 0.000000 3.535510 0.000000 
#    z 0.000000 0.000000 3.551810 
# 
# 
# High freq. dielectric constant tensor:
#      x y z
#    x 1.658230 0.000000 0.000000 
#    y 0.000000 1.698860 0.000000 
#    z 0.000000 0.000000 1.708440 
# 
# From -- ./inp_files/22724.got.cif
#   From: 2010.03.12/outbox.cif.g09.slc.cpg/sg69_12_cif.got.tgz:22724.got - 2010.04.10 23:52:46.
