data_PCOD8285392
_publ_section_title
;
Structure prediction by ZEFSAII (Michael W. Deem and Ramdas Pophale) SiO2 
 PCOD8285392
Probable space group: F M M M
;
_chemical_formula_sum "Si O2"
_cell_formula_units_Z 160
_cell_length_a 19.060909
_cell_length_b 22.191809
_cell_length_c 18.601923
_cell_angle_alpha 90.000000
_cell_angle_beta 90.000000
_cell_angle_gamma 90.000000
_cell_volume 7868.539987
_symmetry_space_group_name_H-M "F M M M"
_symmetry_group_IT_number 69
_symmetry_cell_setting 'orthorhombic'
loop_
_space_group_symop_operation_xyz
x,y,z
-x,-y,z
x,-y,-z
-x,y,-z
-x,-y,-z
x,y,-z
-x,y,z
x,-y,z
x,1/2+y,1/2+z
-x,1/2-y,1/2+z
x,1/2-y,1/2-z
-x,1/2+y,1/2-z
-x,1/2-y,1/2-z
x,1/2+y,1/2-z
-x,1/2+y,1/2+z
x,1/2-y,1/2+z
1/2+x,y,1/2+z
1/2-x,-y,1/2+z
1/2+x,-y,1/2-z
1/2-x,y,1/2-z
1/2-x,-y,1/2-z
1/2+x,y,1/2-z
1/2-x,y,1/2+z
1/2+x,-y,1/2+z
1/2+x,1/2+y,z
1/2-x,1/2-y,z
1/2+x,1/2-y,-z
1/2-x,1/2+y,-z
1/2-x,1/2-y,-z
1/2+x,1/2+y,-z
1/2-x,1/2+y,z
1/2+x,1/2-y,z
loop_
_atom_site_type_symbol
_atom_site_label
_atom_site_fract_x
_atom_site_fract_y
_atom_site_fract_z
Si Si1 0.109788 0.356959 0.418924
Si Si2 0.420645 0.263795 0.333569
Si Si3 0.748624 0.568532 0.079223
Si Si4 0.816872 0.136817 0.298561
Si Si5 0.924000 0.432895 0.703366
O O1 0.081477 0.351236 0.500000
O O2 0.103184 0.292657 0.380728
O O3 0.189115 0.380814 0.417310
O O4 0.064406 0.406716 0.376790
O O5 0.500000 0.284855 0.357164
O O6 0.423506 0.250000 0.250000
O O7 0.357422 0.311628 0.343563
O O8 0.720800 0.500000 0.091486
O O9 0.800976 0.584653 0.143694
O O10 0.784644 0.572301 0.000000
O O11 0.750000 0.158696 0.250000
O O12 0.870945 0.110420 0.242246
O O13 0.893026 0.500000 0.700040
O O14 0.000000 0.432405 0.742006
#
# Coordination Sequence:
#
# PCOD8285392 Si02
#       5
#    32  32  32  32  32
#     4  11  23  40  64  92 125 162 207 253 307 379
#     4  11  23  41  62  86 123 168 208 256 311 364
#     4  10  22  40  62  92 130 166 203 259 323 372
#     4  12  23  39  66  93 124 161 218 260 310 369
#     4  11  23  39  62  94 128 164 207 258 316 372
#
# _framework density 20.334140000000001
#
# number of rings (size 3 to 8) (size 9 to 14) (size 15 to 20)
#    0.000    1.000    4.000    2.400    0.000    7.200 
#    0.000    3.000    0.000    1.800    0.000    7.000 
#    0.000    0.000    0.000    0.000    0.000    0.000 
#
# Total GULP energy -495574.227160 kJ/mol
# GULP energy per Si atom -12389.355679 kJ/mol
# Density = 2.028786 g / cm^3
# Si number density = 20.334140 Si / 1000 Ang^3
#
#
#
# Elastic Constant Matrix: (Units=GPa)
#
#
# Indices 1 2 3 4 5 6 
#
# 1 96.9732 41.9486 28.8201 0.0000 0.0000 0.0000
# 2 41.9486 106.9857 25.1870 0.0000 0.0000 0.0000
# 3 28.8201 25.1870 86.2831 0.0000 0.0000 0.0000
# 4 0.0000 0.0000 0.0000 35.0855 0.0000 0.0000
# 5 0.0000 0.0000 0.0000 0.0000 109.7284 0.0000
# 6 0.0000 0.0000 0.0000 0.0000 0.0000 29.8471
#
#
#
# Elastic Compliance Matrix: (Units=1/GPa)
#
#
# Indices 1 2 3 4 5 6 
#
# 1 0.013148 -0.004425 -0.003100 0.000000 0.000000 0.000000
# 2 -0.004425 0.011526 -0.001887 0.000000 0.000000 0.000000
# 3 -0.003100 -0.001887 0.013176 0.000000 0.000000 0.000000
# 4 0.000000 0.000000 0.000000 0.028502 0.000000 0.000000
# 5 0.000000 0.000000 0.000000 0.000000 0.009113 0.000000
# 6 0.000000 0.000000 0.000000 0.000000 0.000000 0.033504
#
#
# Mechanical properties :
#
#
# Convention : Reuss Voigt Hill
#
# Bulk Modulus (GPa) = 52.55810 53.57262 53.06536
# Shear Modulus (GPa) = 37.27598 47.88463 42.58030
#
# Velocity S-wave (km/s) = 4.28620 4.85798 4.58102
# Velocity P-wave (km/s) = 7.09920 7.60723 7.35760
#
# Compressibility (1/GPa) = 0.01902656
#
# Stress axis : x y z
#
# Youngs Moduli (GPa) = 76.05891 86.75771 75.89658
#
# Poissons Ratio (x) = 0.38394 0.23526
# Poissons Ratio (y) = 0.33659 0.14318
# Poissons Ratio (z) = 0.23576 0.16367
#
# Static dielectric constant tensor:
#      x y z
#    x 3.710510 0.000000 0.000000 
#    y 0.000000 3.832690 0.000000 
#    z 0.000000 0.000000 3.955150 
# 
# 
# High freq. dielectric constant tensor:
#      x y z
#    x 1.792660 0.000000 0.000000 
#    y 0.000000 1.796770 0.000000 
#    z 0.000000 0.000000 1.791650 
# 
# From -- ./inp_files/24560.got.cif
#   From: 2010.03.12/outbox.cif.g09.slc.cpg/sg69_13_cif.got.tgz:24560.got - 2010.04.10 23:52:46.
