data_PCOD8285315
_publ_section_title
;
Structure prediction by ZEFSAII (Michael W. Deem and Ramdas Pophale) SiO2 
 PCOD8285315
Probable space group: F M M M
;
_chemical_formula_sum "Si O2"
_cell_formula_units_Z 160
_cell_length_a 30.503179
_cell_length_b 10.187205
_cell_length_c 26.448373
_cell_angle_alpha 90.000000
_cell_angle_beta 90.000000
_cell_angle_gamma 90.000000
_cell_volume 8218.623963
_symmetry_space_group_name_H-M "F M M M"
_symmetry_group_IT_number 69
_symmetry_cell_setting 'orthorhombic'
loop_
_space_group_symop_operation_xyz
x,y,z
-x,-y,z
x,-y,-z
-x,y,-z
-x,-y,-z
x,y,-z
-x,y,z
x,-y,z
x,1/2+y,1/2+z
-x,1/2-y,1/2+z
x,1/2-y,1/2-z
-x,1/2+y,1/2-z
-x,1/2-y,1/2-z
x,1/2+y,1/2-z
-x,1/2+y,1/2+z
x,1/2-y,1/2+z
1/2+x,y,1/2+z
1/2-x,-y,1/2+z
1/2+x,-y,1/2-z
1/2-x,y,1/2-z
1/2-x,-y,1/2-z
1/2+x,y,1/2-z
1/2-x,y,1/2+z
1/2+x,-y,1/2+z
1/2+x,1/2+y,z
1/2-x,1/2-y,z
1/2+x,1/2-y,-z
1/2-x,1/2+y,-z
1/2-x,1/2-y,-z
1/2+x,1/2+y,-z
1/2-x,1/2+y,z
1/2+x,1/2-y,z
loop_
_atom_site_type_symbol
_atom_site_label
_atom_site_fract_x
_atom_site_fract_y
_atom_site_fract_z
Si Si1 0.916512 0.648437 0.361852
Si Si2 0.193840 0.148290 0.446223
Si Si3 0.330698 0.651966 0.797242
Si Si4 0.750000 0.250000 0.860068
Si Si5 0.402427 0.348553 0.557770
Si Si6 0.000000 0.856081 0.792358
O O1 0.913026 0.500000 0.383429
O O2 0.871322 0.686291 0.333365
O O3 0.929243 0.750902 0.406087
O O4 0.956251 0.661680 0.323886
O O5 0.213319 0.204593 0.500000
O O6 0.225880 0.152205 0.398580
O O7 0.146604 0.212425 0.435794
O O8 0.181201 0.000000 0.456183
O O9 0.332885 0.500000 0.778852
O O10 0.332089 0.750000 0.750000
O O11 0.284615 0.671415 0.826265
O O12 0.418736 0.335582 0.500000
O O13 0.407460 0.500000 0.575989
O O14 0.000000 0.750000 0.750000
O O15 0.000000 0.000000 0.767143
#
# Coordination Sequence:
#
# PCOD8285315 Si02
#       6
#    32  32  32  16  32  16
#     4  10  21  40  61  87 116 147 187 235 289 340
#     4   9  18  32  51  78 111 147 189 233 278 329
#     4  11  25  40  56  80 111 148 193 238 283 339
#     4  12  20  34  56  78 112 150 190 232 284 330
#     4   9  18  35  59  86 115 151 191 229 275 334
#     4  10  22  40  65  90 117 147 188 241 291 344
#
# _framework density 19.467977999999999
#
# number of rings (size 3 to 8) (size 9 to 14) (size 15 to 20)
#    0.000    2.000    2.000    3.000    0.000    4.400 
#    0.000    0.500    0.000    3.000    0.000    0.000 
#    0.000    0.000    0.000    0.000    0.000    0.000 
#
# Total GULP energy -495566.612346 kJ/mol
# GULP energy per Si atom -12389.165309 kJ/mol
# Density = 1.942367 g / cm^3
# Si number density = 19.467978 Si / 1000 Ang^3
#
#
#
# Elastic Constant Matrix: (Units=GPa)
#
#
# Indices 1 2 3 4 5 6 
#
# 1 69.3891 35.1122 24.9799 0.0000 0.0000 0.0000
# 2 35.1122 126.5284 86.4935 0.0000 0.0000 0.0000
# 3 24.9799 86.4935 117.5852 0.0000 0.0000 0.0000
# 4 0.0000 0.0000 0.0000 40.1437 0.0000 0.0000
# 5 0.0000 0.0000 0.0000 0.0000 1.2327 0.0000
# 6 0.0000 0.0000 0.0000 0.0000 0.0000 25.2192
#
#
#
# Elastic Compliance Matrix: (Units=1/GPa)
#
#
# Indices 1 2 3 4 5 6 
#
# 1 0.016770 -0.004462 -0.000280 0.000000 0.000000 0.000000
# 2 -0.004462 0.017084 -0.011619 0.000000 0.000000 0.000000
# 3 -0.000280 -0.011619 0.017111 0.000000 0.000000 0.000000
# 4 0.000000 0.000000 0.000000 0.024910 0.000000 0.000000
# 5 0.000000 0.000000 0.000000 0.000000 0.811234 0.000000
# 6 0.000000 0.000000 0.000000 0.000000 0.000000 0.039652
#
#
# Mechanical properties :
#
#
# Convention : Reuss Voigt Hill
#
# Bulk Modulus (GPa) = 54.81758 67.40822 61.11290
# Shear Modulus (GPa) = 5.17831 24.44694 14.81263
#
# Velocity S-wave (km/s) = 1.63269 3.54750 2.76138
# Velocity P-wave (km/s) = 5.63677 7.17496 6.45187
#
# Compressibility (1/GPa) = 0.01824232
#
# Stress axis : x y z
#
# Youngs Moduli (GPa) = 59.62892 58.53383 58.44316
#
# Poissons Ratio (x) = 0.26119 0.01639
# Poissons Ratio (y) = 0.26607 0.67904
# Poissons Ratio (z) = 0.01672 0.68009
#
# Static dielectric constant tensor:
#      x y z
#    x 3.543040 0.000000 0.000000 
#    y 0.000000 3.504110 0.000000 
#    z 0.000000 0.000000 3.523060 
# 
# 
# High freq. dielectric constant tensor:
#      x y z
#    x 1.754820 0.000000 0.000000 
#    y 0.000000 1.751950 0.000000 
#    z 0.000000 0.000000 1.759700 
# 
# From -- ./inp_files/47463.got.cif
#   From: 2010.03.12/outbox.cif.g09.slc.cpg/sg69_24_cif.got.tgz:47463.got - 2010.04.10 23:52:46.
