data_PCOD8285419
_publ_section_title
;
Structure prediction by ZEFSAII (Michael W. Deem and Ramdas Pophale) SiO2 
 PCOD8285419
Probable space group: F M M M
;
_chemical_formula_sum "Si O2"
_cell_formula_units_Z 176
_cell_length_a 24.732539
_cell_length_b 26.707481
_cell_length_c 14.623303
_cell_angle_alpha 90.000000
_cell_angle_beta 90.000000
_cell_angle_gamma 90.000000
_cell_volume 9659.332358
_symmetry_space_group_name_H-M "F M M M"
_symmetry_group_IT_number 69
_symmetry_cell_setting 'orthorhombic'
loop_
_space_group_symop_operation_xyz
x,y,z
-x,-y,z
x,-y,-z
-x,y,-z
-x,-y,-z
x,y,-z
-x,y,z
x,-y,z
x,1/2+y,1/2+z
-x,1/2-y,1/2+z
x,1/2-y,1/2-z
-x,1/2+y,1/2-z
-x,1/2-y,1/2-z
x,1/2+y,1/2-z
-x,1/2+y,1/2+z
x,1/2-y,1/2+z
1/2+x,y,1/2+z
1/2-x,-y,1/2+z
1/2+x,-y,1/2-z
1/2-x,y,1/2-z
1/2-x,-y,1/2-z
1/2+x,y,1/2-z
1/2-x,y,1/2+z
1/2+x,-y,1/2+z
1/2+x,1/2+y,z
1/2-x,1/2-y,z
1/2+x,1/2-y,-z
1/2-x,1/2+y,-z
1/2-x,1/2-y,-z
1/2+x,1/2+y,-z
1/2-x,1/2+y,z
1/2+x,1/2-y,z
loop_
_atom_site_type_symbol
_atom_site_label
_atom_site_fract_x
_atom_site_fract_y
_atom_site_fract_z
Si Si1 0.315080 0.807879 0.500000
Si Si2 0.141942 0.114931 0.865846
Si Si3 0.249936 0.057367 0.105708
Si Si4 0.812221 0.808614 0.500000
Si Si5 0.346127 0.621670 0.659394
Si Si6 0.057978 0.445970 0.894572
Si Si7 0.935595 0.440186 0.500000
O O1 0.342787 0.832801 0.412603
O O2 0.251464 0.819393 0.500000
O O3 0.327064 0.749395 0.500000
O O4 0.189323 0.074753 0.877346
O O5 0.134105 0.133084 0.761932
O O6 0.089525 0.087414 0.910023
O O7 0.291804 0.088762 0.166369
O O8 0.254667 0.000000 0.135421
O O9 0.266256 0.065039 0.000000
O O10 0.836449 0.830393 0.405432
O O11 0.394974 0.592828 0.615316
O O12 0.073196 0.500000 0.849314
O O13 0.000000 0.427287 0.853074
O O14 0.049468 0.454932 0.000000
O O15 0.922305 0.500000 0.500000
O O16 0.000000 0.431561 0.500000
#
# Coordination Sequence:
#
# PCOD8285419 Si02
#       7
#    16  32  32  16  32  32  16
#     4  10  22  42  57  79 113 150 193 240 295 349
#     4  11  22  37  58  83 115 148 189 245 290 340
#     4  11  20  33  53  79 117 156 186 222 281 350
#     4  11  22  38  61  82 112 150 189 239 296 362
#     4  12  21  34  56  87 116 148 191 234 291 349
#     4   9  18  33  52  77 115 156 187 219 264 326
#     4  10  22  42  64  86 117 162 207 241 277 329
#
# _framework density 18.220721000000001
#
# number of rings (size 3 to 8) (size 9 to 14) (size 15 to 20)
#    0.000    1.364    5.455    2.182    0.000    6.545 
#    0.000    3.636    0.000    4.364    0.000    6.364 
#    0.000    0.000    0.000    0.000    0.000    0.000 
#
# Total GULP energy -545285.810300 kJ/mol
# GULP energy per Si atom -12392.859325 kJ/mol
# Density = 1.817925 g / cm^3
# Si number density = 18.220721 Si / 1000 Ang^3
#
#
#
# Elastic Constant Matrix: (Units=GPa)
#
#
# Indices 1 2 3 4 5 6 
#
# 1 114.3635 51.4311 27.2264 0.0000 0.0000 0.0000
# 2 51.4311 119.0822 44.0503 0.0000 0.0000 0.0000
# 3 27.2264 44.0503 116.1663 0.0000 0.0000 0.0000
# 4 0.0000 0.0000 0.0000 4.5805 0.0000 0.0000
# 5 0.0000 0.0000 0.0000 0.0000 39.3586 0.0000
# 6 0.0000 0.0000 0.0000 0.0000 0.0000 26.0039
#
#
#
# Elastic Compliance Matrix: (Units=1/GPa)
#
#
# Indices 1 2 3 4 5 6 
#
# 1 0.010932 -0.004389 -0.000898 0.000000 0.000000 0.000000
# 2 -0.004389 0.011530 -0.003343 0.000000 0.000000 0.000000
# 3 -0.000898 -0.003343 0.010087 0.000000 0.000000 0.000000
# 4 0.000000 0.000000 0.000000 0.218315 0.000000 0.000000
# 5 0.000000 0.000000 0.000000 0.000000 0.025407 0.000000
# 6 0.000000 0.000000 0.000000 0.000000 0.000000 0.038456
#
#
# Mechanical properties :
#
#
# Convention : Reuss Voigt Hill
#
# Bulk Modulus (GPa) = 65.41307 66.11417 65.76362
# Shear Modulus (GPa) = 14.83315 29.11555 21.97435
#
# Velocity S-wave (km/s) = 2.85631 4.00176 3.47653
# Velocity P-wave (km/s) = 6.84517 7.59710 7.23092
#
# Compressibility (1/GPa) = 0.01528747
#
# Stress axis : x y z
#
# Youngs Moduli (GPa) = 91.47721 86.72974 99.14153
#
# Poissons Ratio (x) = 0.38068 0.08900
# Poissons Ratio (y) = 0.40152 0.33148
# Poissons Ratio (z) = 0.08212 0.28998
#
# Static dielectric constant tensor:
#      x y z
#    x 3.358480 0.000000 0.000000 
#    y 0.000000 3.240780 0.000000 
#    z 0.000000 0.000000 3.558990 
# 
# 
# High freq. dielectric constant tensor:
#      x y z
#    x 1.704430 0.000000 0.000000 
#    y 0.000000 1.691000 0.000000 
#    z 0.000000 0.000000 1.705420 
# 
# From -- ./inp_files/18160.got.cif
#   From: 2010.03.12/outbox.cif.g09.slc.cpg/sg69_10_cif.got.tgz:18160.got - 2010.04.10 23:52:46.
