data_PCOD8285854
_publ_section_title
;
Structure prediction by ZEFSAII (Michael W. Deem and Ramdas Pophale) SiO2 
 PCOD8285854
Probable space group: F D D D
;
_chemical_formula_sum "Si O2"
_cell_formula_units_Z 160
_cell_length_a 18.974612
_cell_length_b 25.106776
_cell_length_c 17.194591
_cell_angle_alpha 90.000000
_cell_angle_beta 90.000000
_cell_angle_gamma 90.000000
_cell_volume 8191.354130
_symmetry_space_group_name_H-M "F D D D"
_symmetry_group_IT_number 70
_space_group.IT_coordinate_system_code '2'
_symmetry_cell_setting 'orthorhombic'
loop_
_space_group_symop_operation_xyz
x,y,z
1/4-x,1/4-y,z
x,1/4-y,1/4-z
1/4-x,y,1/4-z
-x,-y,-z
3/4+x,3/4+y,-z
-x,3/4+y,3/4+z
3/4+x,-y,3/4+z
x,1/2+y,1/2+z
1/4-x,3/4-y,1/2+z
x,3/4-y,3/4-z
1/4-x,1/2+y,3/4-z
-x,1/2-y,1/2-z
3/4+x,1/4+y,1/2-z
-x,1/4+y,1/4+z
3/4+x,1/2-y,1/4+z
1/2+x,y,1/2+z
3/4-x,1/4-y,1/2+z
1/2+x,1/4-y,3/4-z
3/4-x,y,3/4-z
1/2-x,-y,1/2-z
1/4+x,3/4+y,1/2-z
1/2-x,3/4+y,1/4+z
1/4+x,-y,1/4+z
1/2+x,1/2+y,z
3/4-x,3/4-y,z
1/2+x,3/4-y,1/4-z
3/4-x,1/2+y,1/4-z
1/2-x,1/2-y,-z
1/4+x,1/4+y,-z
1/2-x,1/4+y,3/4+z
1/4+x,1/2-y,3/4+z
loop_
_atom_site_type_symbol
_atom_site_label
_atom_site_fract_x
_atom_site_fract_y
_atom_site_fract_z
Si Si1 0.569225 0.977837 0.319911
Si Si2 0.839527 0.930290 0.111460
Si Si3 0.049497 0.301345 0.263916
Si Si4 0.589170 0.515777 0.201947
Si Si5 0.440721 0.594971 0.321887
O O1 0.563372 0.938910 0.394717
O O2 0.491286 0.001805 0.308900
O O3 0.590024 0.945420 0.242938
O O4 0.626448 0.024165 0.334026
O O5 0.875000 0.875000 0.135897
O O6 0.754442 0.929662 0.123479
O O7 0.853029 0.941805 0.020408
O O8 0.123928 0.289793 0.222844
O O9 0.022392 0.354853 0.222411
O O10 0.000000 0.250000 0.250000
O O11 0.625000 0.541279 0.125000
O O12 0.375000 0.610870 0.375000
#
# Coordination Sequence:
#
# PCOD8285854 Si02
#       5
#    32  32  32  32  32
#     4  10  22  39  56  85 124 156 195 251 295 364
#     4  10  23  37  56  88 116 156 204 249 304 356
#     4  11  20  34  61  90 122 153 192 246 311 372
#     4  10  19  32  56  84 123 154 182 235 308 376
#     4  11  24  39  61  87 118 165 209 243 302 363
#
# _framework density 19.532789999999999
#
# number of rings (size 3 to 8) (size 9 to 14) (size 15 to 20)
#    0.000    1.600    2.000    3.600    2.800    1.200 
#    0.000    0.000    0.000    0.600    0.000    0.000 
#    0.000    0.000    0.000    0.000    0.000    0.000 
#
# Total GULP energy -495778.813884 kJ/mol
# GULP energy per Si atom -12394.470347 kJ/mol
# Density = 1.948833 g / cm^3
# Si number density = 19.532790 Si / 1000 Ang^3
#
#
#
# Elastic Constant Matrix: (Units=GPa)
#
#
# Indices 1 2 3 4 5 6 
#
# 1 111.6231 48.4567 40.5731 0.0000 0.0000 0.0000
# 2 48.4567 99.5416 34.2388 0.0000 0.0000 0.0000
# 3 40.5731 34.2388 71.4333 0.0000 0.0000 0.0000
# 4 0.0000 0.0000 0.0000 19.9686 0.0000 0.0000
# 5 0.0000 0.0000 0.0000 0.0000 33.1009 0.0000
# 6 0.0000 0.0000 0.0000 0.0000 0.0000 27.7359
#
#
#
# Elastic Compliance Matrix: (Units=1/GPa)
#
#
# Indices 1 2 3 4 5 6 
#
# 1 0.012746 -0.004448 -0.005108 0.000000 0.000000 0.000000
# 2 -0.004448 0.013581 -0.003983 0.000000 0.000000 0.000000
# 3 -0.005108 -0.003983 0.018809 0.000000 0.000000 0.000000
# 4 0.000000 0.000000 0.000000 0.050079 0.000000 0.000000
# 5 0.000000 0.000000 0.000000 0.000000 0.030211 0.000000
# 6 0.000000 0.000000 0.000000 0.000000 0.000000 0.036054
#
#
# Mechanical properties :
#
#
# Convention : Reuss Voigt Hill
#
# Bulk Modulus (GPa) = 55.37393 58.79281 57.08337
# Shear Modulus (GPa) = 25.69656 26.78302 26.23979
#
# Velocity S-wave (km/s) = 3.63100 3.70697 3.66918
# Velocity P-wave (km/s) = 6.78157 6.96326 6.87301
#
# Compressibility (1/GPa) = 0.01805904
#
# Stress axis : x y z
#
# Youngs Moduli (GPa) = 78.45483 73.62986 53.16475
#
# Poissons Ratio (x) = 0.32750 0.27155
# Poissons Ratio (y) = 0.34896 0.21177
# Poissons Ratio (z) = 0.40072 0.29329
#
# Static dielectric constant tensor:
#      x y z
#    x 3.806500 0.000000 0.000000 
#    y 0.000000 3.381900 0.000000 
#    z 0.000000 0.000000 3.593700 
# 
# 
# High freq. dielectric constant tensor:
#      x y z
#    x 1.766670 0.000000 0.000000 
#    y 0.000000 1.744420 0.000000 
#    z 0.000000 0.000000 1.749480 
# 
# From -- ./inp_files/35082.got.cif
#   From: 2010.03.12/outbox.cif.g09.slc.cpg/sg70_18_cif.got.tgz:35082.got - 2010.04.16 13:46:32.
