data_PCOD8285506
_publ_section_title
;
Structure prediction by ZEFSAII (Michael W. Deem and Ramdas Pophale) SiO2 
 PCOD8285506
Probable space group: F M M M
;
_chemical_formula_sum "Si O2"
_cell_formula_units_Z 128
_cell_length_a 23.637979
_cell_length_b 19.350509
_cell_length_c 14.467162
_cell_angle_alpha 90.000000
_cell_angle_beta 90.000000
_cell_angle_gamma 90.000000
_cell_volume 6617.380089
_symmetry_space_group_name_H-M "F M M M"
_symmetry_group_IT_number 69
_symmetry_cell_setting 'orthorhombic'
loop_
_space_group_symop_operation_xyz
x,y,z
-x,-y,z
x,-y,-z
-x,y,-z
-x,-y,-z
x,y,-z
-x,y,z
x,-y,z
x,1/2+y,1/2+z
-x,1/2-y,1/2+z
x,1/2-y,1/2-z
-x,1/2+y,1/2-z
-x,1/2-y,1/2-z
x,1/2+y,1/2-z
-x,1/2+y,1/2+z
x,1/2-y,1/2+z
1/2+x,y,1/2+z
1/2-x,-y,1/2+z
1/2+x,-y,1/2-z
1/2-x,y,1/2-z
1/2-x,-y,1/2-z
1/2+x,y,1/2-z
1/2-x,y,1/2+z
1/2+x,-y,1/2+z
1/2+x,1/2+y,z
1/2-x,1/2-y,z
1/2+x,1/2-y,-z
1/2-x,1/2+y,-z
1/2-x,1/2-y,-z
1/2+x,1/2+y,-z
1/2-x,1/2+y,z
1/2+x,1/2-y,z
loop_
_atom_site_type_symbol
_atom_site_label
_atom_site_fract_x
_atom_site_fract_y
_atom_site_fract_z
Si Si1 0.000000 0.120023 0.392577
Si Si2 0.806999 0.149119 0.500000
Si Si3 0.122189 0.921370 0.660334
Si Si4 0.313951 0.312169 0.000000
Si Si5 0.000000 0.224144 0.111013
Si Si6 0.381952 0.184098 0.685843
O O1 0.944021 0.078830 0.365057
O O2 0.000000 0.130749 0.500000
O O3 0.000000 0.197223 0.350506
O O4 0.839208 0.119991 0.588522
O O5 0.739713 0.134884 0.500000
O O6 0.804922 0.230926 0.500000
O O7 0.129824 0.885887 0.758758
O O8 0.143449 0.000000 0.664367
O O9 0.346264 0.326285 0.905780
O O10 0.053531 0.186480 0.153887
O O11 0.000000 0.219835 0.000000
O O12 0.365156 0.250000 0.750000
#
# Coordination Sequence:
#
# PCOD8285506 Si02
#       6
#    16  16  32  16  16  32
#     4  11  20  34  64 100 133 169 204 265 340 403
#     4  11  23  43  64  95 128 164 214 282 325 371
#     4  12  25  41  64  99 137 171 212 268 337 401
#     4  11  24  43  67  93 122 169 228 269 318 377
#     4  11  20  36  67 101 139 165 212 272 330 382
#     4  12  22  41  67  98 132 172 216 270 322 389
#
# _framework density 19.343001999999998
#
# number of rings (size 3 to 8) (size 9 to 14) (size 15 to 20)
#    0.000    0.500    7.500    1.875    0.000    1.500 
#    0.000    4.375    0.000    0.750    0.000    0.000 
#    0.000    0.000    0.000    0.000    0.000    0.000 
#
# Total GULP energy -396669.626246 kJ/mol
# GULP energy per Si atom -12395.925820 kJ/mol
# Density = 1.929898 g / cm^3
# Si number density = 19.343002 Si / 1000 Ang^3
#
#
#
# Elastic Constant Matrix: (Units=GPa)
#
#
# Indices 1 2 3 4 5 6 
#
# 1 134.7746 36.1197 72.0877 0.0000 0.0000 0.0000
# 2 36.1197 96.3194 48.3130 0.0000 0.0000 0.0000
# 3 72.0877 48.3130 140.1421 0.0000 0.0000 0.0000
# 4 0.0000 0.0000 0.0000 103.5471 0.0000 0.0000
# 5 0.0000 0.0000 0.0000 0.0000 -41.8053 0.0000
# 6 0.0000 0.0000 0.0000 0.0000 0.0000 14.4026
#
#
#
# Elastic Compliance Matrix: (Units=1/GPa)
#
#
# Indices 1 2 3 4 5 6 
#
# 1 0.010406 -0.001472 -0.004845 0.000000 0.000000 0.000000
# 2 -0.001472 0.012761 -0.003642 0.000000 0.000000 0.000000
# 3 -0.004845 -0.003642 0.010884 0.000000 0.000000 0.000000
# 4 0.000000 0.000000 0.000000 0.009657 0.000000 0.000000
# 5 0.000000 0.000000 0.000000 0.000000 -0.023920 0.000000
# 6 0.000000 0.000000 0.000000 0.000000 0.000000 0.069432
#
#
# Mechanical properties :
#
#
# Convention : Reuss Voigt Hill
#
# Bulk Modulus (GPa) = 70.76207 76.03078 73.39643
# Shear Modulus (GPa) = 43.91815 29.54329 36.73072
#
# Velocity S-wave (km/s) = 4.77014 3.91236 4.36238
# Velocity P-wave (km/s) = 8.18542 7.73309 7.96247
#
# Compressibility (1/GPa) = 0.01413186
#
# Stress axis : x y z
#
# Youngs Moduli (GPa) = 96.09970 78.36420 91.88163
#
# Poissons Ratio (x) = 0.11534 0.44519
# Poissons Ratio (y) = 0.14144 0.33465
# Poissons Ratio (z) = 0.46563 0.28541
#
# Static dielectric constant tensor:
#      x y z
#    x 3.617930 0.000000 0.000000 
#    y 0.000000 3.380180 0.000000 
#    z 0.000000 0.000000 3.731640 
# 
# 
# High freq. dielectric constant tensor:
#      x y z
#    x 1.756040 0.000000 0.000000 
#    y 0.000000 1.731820 0.000000 
#    z 0.000000 0.000000 1.772240 
# 
# From -- ./inp_files/16428.got.cif
#   From: 2010.03.12/outbox.cif.g09.slc.cpg/sg69_9_cif.got.tgz:16428.got - 2010.04.10 23:52:46.
