data_PCOD8285884
_publ_section_title
;
Structure prediction by ZEFSAII (Michael W. Deem and Ramdas Pophale) SiO2 
 PCOD8285884
Probable space group: F D D D
;
_chemical_formula_sum "Si O2"
_cell_formula_units_Z 208
_cell_length_a 20.499159
_cell_length_b 27.987219
_cell_length_c 18.951252
_cell_angle_alpha 90.000000
_cell_angle_beta 90.000000
_cell_angle_gamma 90.000000
_cell_volume 10872.607161
_symmetry_space_group_name_H-M "F D D D"
_symmetry_group_IT_number 70
_space_group.IT_coordinate_system_code '2'
_symmetry_cell_setting 'orthorhombic'
loop_
_space_group_symop_operation_xyz
x,y,z
1/4-x,1/4-y,z
x,1/4-y,1/4-z
1/4-x,y,1/4-z
-x,-y,-z
3/4+x,3/4+y,-z
-x,3/4+y,3/4+z
3/4+x,-y,3/4+z
x,1/2+y,1/2+z
1/4-x,3/4-y,1/2+z
x,3/4-y,3/4-z
1/4-x,1/2+y,3/4-z
-x,1/2-y,1/2-z
3/4+x,1/4+y,1/2-z
-x,1/4+y,1/4+z
3/4+x,1/2-y,1/4+z
1/2+x,y,1/2+z
3/4-x,1/4-y,1/2+z
1/2+x,1/4-y,3/4-z
3/4-x,y,3/4-z
1/2-x,-y,1/2-z
1/4+x,3/4+y,1/2-z
1/2-x,3/4+y,1/4+z
1/4+x,-y,1/4+z
1/2+x,1/2+y,z
3/4-x,3/4-y,z
1/2+x,3/4-y,1/4-z
3/4-x,1/2+y,1/4-z
1/2-x,1/2-y,-z
1/4+x,1/4+y,-z
1/2-x,1/4+y,3/4+z
1/4+x,1/2-y,3/4+z
loop_
_atom_site_type_symbol
_atom_site_label
_atom_site_fract_x
_atom_site_fract_y
_atom_site_fract_z
Si Si1 0.622408 0.804756 0.926241
Si Si2 0.991866 0.906098 0.936750
Si Si3 0.563417 0.158970 0.460710
Si Si4 0.443267 0.773892 0.663340
Si Si5 0.685336 0.208491 0.070802
Si Si6 0.268406 0.125000 0.625000
Si Si7 0.613521 0.233725 0.704268
O O1 0.687819 0.831953 0.904328
O O2 0.608465 0.762532 0.870714
O O3 0.562721 0.842552 0.927022
O O4 0.637910 0.783218 0.002989
O O5 0.955360 0.875000 0.875000
O O6 0.953837 0.954283 0.957514
O O7 0.995821 0.872342 0.006727
O O8 0.625000 0.125000 0.455683
O O9 0.547630 0.178462 0.383115
O O10 0.577247 0.202595 0.514325
O O11 0.413020 0.787704 0.739373
O O12 0.515380 0.751838 0.665411
O O13 0.625000 0.212213 0.125000
O O14 0.722192 0.158080 0.077663
O O15 0.625000 0.249667 0.625000
#
# Coordination Sequence:
#
# PCOD8285884 Si02
#       7
#    32  32  32  32  32  16  32
#     4  10  21  38  56  81 119 151 187 248 299 352
#     4  11  19  32  58  83 112 159 195 227 299 371
#     4   9  19  33  56  85 117 153 187 235 284 351
#     4   9  21  41  58  87 120 148 199 253 295 356
#     4  10  21  40  65  84 110 157 202 248 307 365
#     4  10  21  40  58  82 115 150 200 254 308 352
#     4  10  19  35  54  80 116 150 191 230 283 362
#
# _framework density 19.130647
#
# number of rings (size 3 to 8) (size 9 to 14) (size 15 to 20)
#    0.000    2.154    2.308    0.692    0.000    2.462 
#    8.308    0.000    0.000    0.000    0.000    0.000 
#    0.000    0.000    0.000    0.000    0.000    0.000 
#
# Total GULP energy -644586.677149 kJ/mol
# GULP energy per Si atom -12395.897637 kJ/mol
# Density = 1.908710 g / cm^3
# Si number density = 19.130647 Si / 1000 Ang^3
#
#
#
# Elastic Constant Matrix: (Units=GPa)
#
#
# Indices 1 2 3 4 5 6 
#
# 1 81.5039 29.7991 43.6401 0.0000 0.0000 0.0000
# 2 29.7991 94.2506 58.0838 0.0000 0.0000 0.0000
# 3 43.6401 58.0838 156.2027 0.0000 0.0000 0.0000
# 4 0.0000 0.0000 0.0000 30.3133 0.0000 0.0000
# 5 0.0000 0.0000 0.0000 0.0000 25.1982 0.0000
# 6 0.0000 0.0000 0.0000 0.0000 0.0000 18.0895
#
#
#
# Elastic Compliance Matrix: (Units=1/GPa)
#
#
# Indices 1 2 3 4 5 6 
#
# 1 0.014975 -0.002797 -0.003144 0.000000 0.000000 0.000000
# 2 -0.002797 0.014287 -0.004531 0.000000 0.000000 0.000000
# 3 -0.003144 -0.004531 0.008965 0.000000 0.000000 0.000000
# 4 0.000000 0.000000 0.000000 0.032989 0.000000 0.000000
# 5 0.000000 0.000000 0.000000 0.000000 0.039685 0.000000
# 6 0.000000 0.000000 0.000000 0.000000 0.000000 0.055281
#
#
# Mechanical properties :
#
#
# Convention : Reuss Voigt Hill
#
# Bulk Modulus (GPa) = 57.85987 66.11147 61.98567
# Shear Modulus (GPa) = 25.92188 28.08246 27.00217
#
# Velocity S-wave (km/s) = 3.68502 3.83551 3.76102
# Velocity P-wave (km/s) = 6.95816 7.36531 7.16463
#
# Compressibility (1/GPa) = 0.01728313
#
# Stress axis : x y z
#
# Youngs Moduli (GPa) = 66.77649 69.99479 111.54441
#
# Poissons Ratio (x) = 0.19581 0.35065
# Poissons Ratio (y) = 0.18680 0.50541
# Poissons Ratio (z) = 0.20992 0.31714
#
# Static dielectric constant tensor:
#      x y z
#    x 3.301320 0.000000 0.000000 
#    y 0.000000 3.678150 0.000000 
#    z 0.000000 0.000000 3.539580 
# 
# 
# High freq. dielectric constant tensor:
#      x y z
#    x 1.725010 0.000000 0.000000 
#    y 0.000000 1.753640 0.000000 
#    z 0.000000 0.000000 1.739760 
# 
# From -- ./inp_files/37814.got.cif
#   From: 2010.03.12/outbox.cif.g09.slc.cpg/sg70_19_cif.got.tgz:37814.got - 2010.04.16 13:46:32.
