data_PCOD8285663
_publ_section_title
;
Structure prediction by ZEFSAII (Michael W. Deem and Ramdas Pophale) SiO2 
 PCOD8285663
Probable space group: F M M M
;
_chemical_formula_sum "Si O2"
_cell_formula_units_Z 176
_cell_length_a 14.222190
_cell_length_b 28.012558
_cell_length_c 22.992817
_cell_angle_alpha 90.000000
_cell_angle_beta 90.000000
_cell_angle_gamma 90.000000
_cell_volume 9160.336505
_symmetry_space_group_name_H-M "F M M M"
_symmetry_group_IT_number 69
_symmetry_cell_setting 'orthorhombic'
loop_
_space_group_symop_operation_xyz
x,y,z
-x,-y,z
x,-y,-z
-x,y,-z
-x,-y,-z
x,y,-z
-x,y,z
x,-y,z
x,1/2+y,1/2+z
-x,1/2-y,1/2+z
x,1/2-y,1/2-z
-x,1/2+y,1/2-z
-x,1/2-y,1/2-z
x,1/2+y,1/2-z
-x,1/2+y,1/2+z
x,1/2-y,1/2+z
1/2+x,y,1/2+z
1/2-x,-y,1/2+z
1/2+x,-y,1/2-z
1/2-x,y,1/2-z
1/2-x,-y,1/2-z
1/2+x,y,1/2-z
1/2-x,y,1/2+z
1/2+x,-y,1/2+z
1/2+x,1/2+y,z
1/2-x,1/2-y,z
1/2+x,1/2-y,-z
1/2-x,1/2+y,-z
1/2-x,1/2-y,-z
1/2+x,1/2+y,-z
1/2-x,1/2+y,z
1/2+x,1/2-y,z
loop_
_atom_site_type_symbol
_atom_site_label
_atom_site_fract_x
_atom_site_fract_y
_atom_site_fract_z
Si Si1 0.102237 0.694420 0.246676
Si Si2 0.718085 0.400548 0.108413
Si Si3 0.748114 0.805237 0.345743
Si Si4 0.104315 0.556588 0.842974
Si Si5 0.389672 0.943624 0.500000
Si Si6 0.609605 0.445760 0.211772
O O1 0.085397 0.750000 0.250000
O O2 0.154078 0.681806 0.186254
O O3 0.164040 0.682022 0.302164
O O4 0.000000 0.668127 0.248688
O O5 0.732435 0.342922 0.101776
O O6 0.821706 0.423707 0.110204
O O7 0.665851 0.412094 0.168461
O O8 0.657817 0.420608 0.055902
O O9 0.750000 0.750000 0.367338
O O10 0.106774 0.500000 0.843081
O O11 0.128317 0.573784 0.777053
O O12 0.000000 0.574359 0.860771
O O13 0.500000 0.931541 0.500000
O O14 0.372315 0.000000 0.500000
O O15 0.500000 0.444098 0.196335
O O16 0.646795 0.500000 0.204783
#
# Coordination Sequence:
#
# PCOD8285663 Si02
#       6
#    32  32  32  32  16  32
#     4   8  15  30  50  74 112 154 183 219 274 325
#     4  12  22  35  58  81 107 154 192 229 281 341
#     4   9  20  34  49  80 116 147 189 231 268 327
#     4   9  19  34  53  82 115 142 177 228 282 343
#     4  11  26  46  64  85 111 139 185 244 293 347
#     4   9  18  32  52  82 116 145 180 232 290 346
#
# _framework density 19.213266999999998
#
# number of rings (size 3 to 8) (size 9 to 14) (size 15 to 20)
#    0.000    2.455    0.000    4.909    5.091    5.091 
#    0.000    0.909    0.000    1.636    0.000    0.000 
#    0.000    0.000    0.000    0.000    0.000    0.000 
#
# Total GULP energy -545306.538983 kJ/mol
# GULP energy per Si atom -12393.330431 kJ/mol
# Density = 1.916954 g / cm^3
# Si number density = 19.213267 Si / 1000 Ang^3
#
#
#
# Elastic Constant Matrix: (Units=GPa)
#
#
# Indices 1 2 3 4 5 6 
#
# 1 141.2266 46.1447 56.3233 0.0000 0.0000 0.0000
# 2 46.1447 98.7918 48.6429 0.0000 0.0000 0.0000
# 3 56.3233 48.6429 68.6936 0.0000 0.0000 0.0000
# 4 0.0000 0.0000 0.0000 24.3609 0.0000 0.0000
# 5 0.0000 0.0000 0.0000 0.0000 25.6440 0.0000
# 6 0.0000 0.0000 0.0000 0.0000 0.0000 -2.5163
#
#
#
# Elastic Compliance Matrix: (Units=1/GPa)
#
#
# Indices 1 2 3 4 5 6 
#
# 1 0.010589 -0.001030 -0.007953 0.000000 0.000000 0.000000
# 2 -0.001030 0.015641 -0.010231 0.000000 0.000000 0.000000
# 3 -0.007953 -0.010231 0.028322 0.000000 0.000000 0.000000
# 4 0.000000 0.000000 0.000000 0.041049 0.000000 0.000000
# 5 0.000000 0.000000 0.000000 0.000000 0.038996 0.000000
# 6 0.000000 0.000000 0.000000 0.000000 0.000000 -0.397407
#
#
# Mechanical properties :
#
#
# Convention : Reuss Voigt Hill
#
# Bulk Modulus (GPa) = 62.01538 67.88154 64.94846
# Shear Modulus (GPa) = -22.83035 20.00444 -1.41295
#
# Velocity S-wave (km/s) = -3.45085 3.23023 -0.85849
# Velocity P-wave (km/s) = 4.05827 7.02280 5.73539
#
# Compressibility (1/GPa) = 0.01612503
#
# Stress axis : x y z
#
# Youngs Moduli (GPa) = 94.43667 63.93454 35.30768
#
# Poissons Ratio (x) = 0.06588 0.28079
# Poissons Ratio (y) = 0.09731 0.36123
# Poissons Ratio (z) = 0.75102 0.65410
#
# Static dielectric constant tensor:
#      x y z
#    x 6.335280 0.000000 0.000000 
#    y 0.000000 3.543480 0.000000 
#    z 0.000000 0.000000 2.656780 
# 
# 
# High freq. dielectric constant tensor:
#      x y z
#    x 1.768160 0.000000 0.000000 
#    y 0.000000 1.758470 0.000000 
#    z 0.000000 0.000000 1.680250 
# 
# From -- ./inp_files/36155.got.cif
#   From: 2010.03.12/outbox.cif.g09.slc.cpg/sg69_19_cif.got.tgz:36155.got - 2010.04.10 23:52:46.
