data_PCOD8285753
_publ_section_title
;
Structure prediction by ZEFSAII (Michael W. Deem and Ramdas Pophale) SiO2 
 PCOD8285753
Probable space group: F D D D
;
_chemical_formula_sum "Si O2"
_cell_formula_units_Z 112
_cell_length_a 19.898300
_cell_length_b 9.243196
_cell_length_c 27.535362
_cell_angle_alpha 90.000000
_cell_angle_beta 90.000000
_cell_angle_gamma 90.000000
_cell_volume 5064.410808
_symmetry_space_group_name_H-M "F D D D"
_symmetry_group_IT_number 70
_space_group.IT_coordinate_system_code '2'
_symmetry_cell_setting 'orthorhombic'
loop_
_space_group_symop_operation_xyz
x,y,z
1/4-x,1/4-y,z
x,1/4-y,1/4-z
1/4-x,y,1/4-z
-x,-y,-z
3/4+x,3/4+y,-z
-x,3/4+y,3/4+z
3/4+x,-y,3/4+z
x,1/2+y,1/2+z
1/4-x,3/4-y,1/2+z
x,3/4-y,3/4-z
1/4-x,1/2+y,3/4-z
-x,1/2-y,1/2-z
3/4+x,1/4+y,1/2-z
-x,1/4+y,1/4+z
3/4+x,1/2-y,1/4+z
1/2+x,y,1/2+z
3/4-x,1/4-y,1/2+z
1/2+x,1/4-y,3/4-z
3/4-x,y,3/4-z
1/2-x,-y,1/2-z
1/4+x,3/4+y,1/2-z
1/2-x,3/4+y,1/4+z
1/4+x,-y,1/4+z
1/2+x,1/2+y,z
3/4-x,3/4-y,z
1/2+x,3/4-y,1/4-z
3/4-x,1/2+y,1/4-z
1/2-x,1/2-y,-z
1/4+x,1/4+y,-z
1/2-x,1/4+y,3/4+z
1/4+x,1/2-y,3/4+z
loop_
_atom_site_type_symbol
_atom_site_label
_atom_site_fract_x
_atom_site_fract_y
_atom_site_fract_z
Si Si1 0.503789 0.922660 0.248495
Si Si2 0.937040 0.479874 0.655291
Si Si3 0.875000 0.875000 0.956518
Si Si4 0.060317 0.882195 0.650836
O O1 0.500000 0.750000 0.250000
O O2 0.426580 0.970210 0.260122
O O3 0.529364 0.976959 0.195448
O O4 0.555879 0.983093 0.287924
O O5 0.925038 0.625000 0.625000
O O6 0.875000 0.375000 0.646719
O O7 0.003851 0.395094 0.639204
O O8 0.832339 0.772383 0.921835
O O9 0.125000 0.958291 0.625000
#
# Coordination Sequence:
#
# PCOD8285753 Si02
#       4
#    32  32  16  32
#     4  10  21  34  65 101 131 173 239 294 341 400
#     4  12  24  42  67 108 140 178 235 301 352 422
#     4  10  17  34  64 100 126 158 256 294 319 404
#     4  11  20  38  70  94 135 179 244 286 345 414
#
# _framework density 22.115109
#
# number of rings (size 3 to 8) (size 9 to 14) (size 15 to 20)
#    0.000    1.143    8.571    0.429    2.000    0.000 
#    0.000    1.429    0.000    0.000    0.000    0.000 
#    0.000    0.000    0.000    0.000    0.000    0.000 
#
# Total GULP energy -347012.963527 kJ/mol
# GULP energy per Si atom -12393.320126 kJ/mol
# Density = 2.206477 g / cm^3
# Si number density = 22.115109 Si / 1000 Ang^3
#
#
#
# Elastic Constant Matrix: (Units=GPa)
#
#
# Indices 1 2 3 4 5 6 
#
# 1 162.0526 28.3570 56.5172 0.0000 0.0000 0.0000
# 2 28.3570 30.9315 17.9824 0.0000 0.0000 0.0000
# 3 56.5172 17.9824 152.5175 0.0000 0.0000 0.0000
# 4 0.0000 0.0000 0.0000 21.5421 0.0000 0.0000
# 5 0.0000 0.0000 0.0000 0.0000 41.8210 0.0000
# 6 0.0000 0.0000 0.0000 0.0000 0.0000 26.6240
#
#
#
# Elastic Compliance Matrix: (Units=1/GPa)
#
#
# Indices 1 2 3 4 5 6 
#
# 1 0.008014 -0.006034 -0.002258 0.000000 0.000000 0.000000
# 2 -0.006034 0.039252 -0.002392 0.000000 0.000000 0.000000
# 3 -0.002258 -0.002392 0.007675 0.000000 0.000000 0.000000
# 4 0.000000 0.000000 0.000000 0.046421 0.000000 0.000000
# 5 0.000000 0.000000 0.000000 0.000000 0.023911 0.000000
# 6 0.000000 0.000000 0.000000 0.000000 0.000000 0.037560
#
#
# Mechanical properties :
#
#
# Convention : Reuss Voigt Hill
#
# Bulk Modulus (GPa) = 29.78597 61.24608 45.51602
# Shear Modulus (GPa) = 25.58925 34.17377 29.88151
#
# Velocity S-wave (km/s) = 3.40530 3.93525 3.67983
# Velocity P-wave (km/s) = 5.38138 6.95720 6.21940
#
# Compressibility (1/GPa) = 0.03357285
#
# Stress axis : x y z
#
# Youngs Moduli (GPa) = 124.77552 25.47627 130.28487
#
# Poissons Ratio (x) = 0.15373 0.29423
# Poissons Ratio (y) = 0.75295 0.31162
# Poissons Ratio (z) = 0.28179 0.06094
#
# Static dielectric constant tensor:
#      x y z
#    x 6.521510 0.000000 0.000000 
#    y 0.000000 3.350170 0.000000 
#    z 0.000000 0.000000 4.984390 
# 
# 
# High freq. dielectric constant tensor:
#      x y z
#    x 1.893160 0.000000 0.000000 
#    y 0.000000 1.797780 0.000000 
#    z 0.000000 0.000000 1.887980 
# 
# From -- ./inp_files/16510.got.cif
#   From: 2010.03.12/outbox.cif.g09.slc.cpg/sg70_9_cif.got.tgz:16510.got - 2010.04.16 13:46:32.
