data_PCOD8285640
_publ_section_title
;
Structure prediction by ZEFSAII (Michael W. Deem and Ramdas Pophale) SiO2 
 PCOD8285640
Probable space group: F M M M
;
_chemical_formula_sum "Si O2"
_cell_formula_units_Z 176
_cell_length_a 14.252256
_cell_length_b 22.134037
_cell_length_c 31.952976
_cell_angle_alpha 90.000000
_cell_angle_beta 90.000000
_cell_angle_gamma 90.000000
_cell_volume 10079.884583
_symmetry_space_group_name_H-M "F M M M"
_symmetry_group_IT_number 69
_symmetry_cell_setting 'orthorhombic'
loop_
_space_group_symop_operation_xyz
x,y,z
-x,-y,z
x,-y,-z
-x,y,-z
-x,-y,-z
x,y,-z
-x,y,z
x,-y,z
x,1/2+y,1/2+z
-x,1/2-y,1/2+z
x,1/2-y,1/2-z
-x,1/2+y,1/2-z
-x,1/2-y,1/2-z
x,1/2+y,1/2-z
-x,1/2+y,1/2+z
x,1/2-y,1/2+z
1/2+x,y,1/2+z
1/2-x,-y,1/2+z
1/2+x,-y,1/2-z
1/2-x,y,1/2-z
1/2-x,-y,1/2-z
1/2+x,y,1/2-z
1/2-x,y,1/2+z
1/2+x,-y,1/2+z
1/2+x,1/2+y,z
1/2-x,1/2-y,z
1/2+x,1/2-y,-z
1/2-x,1/2+y,-z
1/2-x,1/2-y,-z
1/2+x,1/2+y,-z
1/2-x,1/2+y,z
1/2+x,1/2-y,z
loop_
_atom_site_type_symbol
_atom_site_label
_atom_site_fract_x
_atom_site_fract_y
_atom_site_fract_z
Si Si1 0.605419 0.353979 0.548732
Si Si2 0.607740 0.713854 0.952301
Si Si3 0.785619 0.110749 0.909406
Si Si4 0.104060 0.571583 0.240801
Si Si5 0.389729 0.000000 0.451121
Si Si6 0.230246 0.071500 0.817008
O O1 0.620854 0.366964 0.500000
O O2 0.500000 0.372686 0.561982
O O3 0.622409 0.283707 0.558551
O O4 0.678144 0.394337 0.574949
O O5 0.500000 0.694839 0.946163
O O6 0.672465 0.675465 0.921630
O O7 0.638850 0.700746 0.000000
O O8 0.846987 0.059027 0.930301
O O9 0.787686 0.106701 0.859607
O O10 0.099029 0.500000 0.240335
O O11 0.148367 0.591424 0.285075
O O12 0.169852 0.592406 0.202383
O O13 0.000000 0.600024 0.235948
O O14 0.500000 0.000000 0.442633
O O15 0.366094 0.000000 0.500000
O O16 0.228957 0.000000 0.825406
#
# Coordination Sequence:
#
# PCOD8285640 Si02
#       6
#    32  32  32  32  16  32
#     4   9  19  35  53  72  94 127 177 226 256 280
#     4   9  18  33  52  73  96 127 173 222 258 286
#     4  12  20  31  50  74 104 136 163 203 250 297
#     4   8  15  30  51  65  87 126 161 199 244 284
#     4  11  24  36  45  66 105 147 174 190 229 303
#     4   9  18  31  43  71 102 123 161 198 234 297
#
# _framework density 17.460518
#
# number of rings (size 3 to 8) (size 9 to 14) (size 15 to 20)
#    0.000    2.455    0.909    4.909    0.000    5.091 
#    0.000    0.455    0.000    1.636    0.000   10.182 
#    0.000   17.455    0.000    0.000    0.000    0.000 
#
# Total GULP energy -545563.761851 kJ/mol
# GULP energy per Si atom -12399.176406 kJ/mol
# Density = 1.742078 g / cm^3
# Si number density = 17.460518 Si / 1000 Ang^3
#
#
#
# Elastic Constant Matrix: (Units=GPa)
#
#
# Indices 1 2 3 4 5 6 
#
# 1 125.4977 22.1493 61.0418 0.0000 0.0000 0.0000
# 2 22.1493 22.3711 24.9029 0.0000 0.0000 0.0000
# 3 61.0418 24.9029 120.7628 0.0000 0.0000 0.0000
# 4 0.0000 0.0000 0.0000 1.9183 0.0000 0.0000
# 5 0.0000 0.0000 0.0000 0.0000 10.2899 0.0000
# 6 0.0000 0.0000 0.0000 0.0000 0.0000 -9.2173
#
#
#
# Elastic Compliance Matrix: (Units=1/GPa)
#
#
# Indices 1 2 3 4 5 6 
#
# 1 0.011193 -0.006210 -0.004377 0.000000 0.000000 0.000000
# 2 -0.006210 0.061464 -0.009536 0.000000 0.000000 0.000000
# 3 -0.004377 -0.009536 0.012460 0.000000 0.000000 0.000000
# 4 0.000000 0.000000 0.000000 0.521298 0.000000 0.000000
# 5 0.000000 0.000000 0.000000 0.000000 0.097183 0.000000
# 6 0.000000 0.000000 0.000000 0.000000 0.000000 -0.108492
#
#
# Mechanical properties :
#
#
# Convention : Reuss Voigt Hill
#
# Bulk Modulus (GPa) = 22.28608 53.86884 38.07746
# Shear Modulus (GPa) = 7.68865 11.30068 9.49467
#
# Velocity S-wave (km/s) = 2.10072 2.54680 2.33444
# Velocity P-wave (km/s) = 4.32151 6.29023 5.39641
#
# Compressibility (1/GPa) = 0.04487106
#
# Stress axis : x y z
#
# Youngs Moduli (GPa) = 89.33867 16.26978 80.25839
#
# Poissons Ratio (x) = 0.10103 0.35132
# Poissons Ratio (y) = 0.55475 0.76533
# Poissons Ratio (z) = 0.39107 0.15515
#
# Static dielectric constant tensor:
#      x y z
#    x 3.727070 0.000000 0.000000 
#    y 0.000000 2.900950 0.000000 
#    z 0.000000 0.000000 3.128370 
# 
# 
# High freq. dielectric constant tensor:
#      x y z
#    x 1.695750 0.000000 0.000000 
#    y 0.000000 1.634910 0.000000 
#    z 0.000000 0.000000 1.662840 
# 
# From -- ./inp_files/41101.got.cif
#   From: 2010.03.12/outbox.cif.g09.slc.cpg/sg69_21_cif.got.tgz:41101.got - 2010.04.10 23:52:46.
