data_PCOD8285927
_publ_section_title
;
Structure prediction by ZEFSAII (Michael W. Deem and Ramdas Pophale) SiO2 
 PCOD8285927
Probable space group: F D D D
;
_chemical_formula_sum "Si O2"
_cell_formula_units_Z 144
_cell_length_a 18.465059
_cell_length_b 19.881632
_cell_length_c 21.189554
_cell_angle_alpha 90.000000
_cell_angle_beta 90.000000
_cell_angle_gamma 90.000000
_cell_volume 7779.013879
_symmetry_space_group_name_H-M "F D D D"
_symmetry_group_IT_number 70
_space_group.IT_coordinate_system_code '2'
_symmetry_cell_setting 'orthorhombic'
loop_
_space_group_symop_operation_xyz
x,y,z
1/4-x,1/4-y,z
x,1/4-y,1/4-z
1/4-x,y,1/4-z
-x,-y,-z
3/4+x,3/4+y,-z
-x,3/4+y,3/4+z
3/4+x,-y,3/4+z
x,1/2+y,1/2+z
1/4-x,3/4-y,1/2+z
x,3/4-y,3/4-z
1/4-x,1/2+y,3/4-z
-x,1/2-y,1/2-z
3/4+x,1/4+y,1/2-z
-x,1/4+y,1/4+z
3/4+x,1/2-y,1/4+z
1/2+x,y,1/2+z
3/4-x,1/4-y,1/2+z
1/2+x,1/4-y,3/4-z
3/4-x,y,3/4-z
1/2-x,-y,1/2-z
1/4+x,3/4+y,1/2-z
1/2-x,3/4+y,1/4+z
1/4+x,-y,1/4+z
1/2+x,1/2+y,z
3/4-x,3/4-y,z
1/2+x,3/4-y,1/4-z
3/4-x,1/2+y,1/4-z
1/2-x,1/2-y,-z
1/4+x,1/4+y,-z
1/2-x,1/4+y,3/4+z
1/4+x,1/2-y,3/4+z
loop_
_atom_site_type_symbol
_atom_site_label
_atom_site_fract_x
_atom_site_fract_y
_atom_site_fract_z
Si Si1 0.344563 0.052384 0.143199
Si Si2 0.125000 0.125000 0.442251
Si Si3 0.006657 0.320913 0.124207
Si Si4 0.330581 0.737626 0.022816
Si Si5 0.878853 0.099173 0.972016
O O1 0.312693 0.125000 0.125000
O O2 0.411799 0.032640 0.096997
O O3 0.373451 0.055156 0.214469
O O4 0.278300 0.001704 0.135096
O O5 0.195694 0.124382 0.397289
O O6 0.126681 0.191550 0.486349
O O7 0.042512 0.345049 0.189482
O O8 0.067403 0.315500 0.070558
O O9 0.250000 0.750000 0.000000
O O10 0.365385 0.678720 0.981219
#
# Coordination Sequence:
#
# PCOD8285927 Si02
#       5
#    32  16  32  32  32
#     4   9  20  38  58  84 119 155 186 244 294 342
#     4  10  20  38  56  87 113 154 194 244 292 352
#     4  10  20  37  61  85 116 151 198 237 291 353
#     4  10  19  38  60  83 121 151 196 238 294 348
#     4  10  20  38  61  84 118 154 189 246 291 346
#
# _framework density 18.511344000000001
#
# number of rings (size 3 to 8) (size 9 to 14) (size 15 to 20)
#    0.000    2.222    2.222    0.667    0.000    0.000 
#   24.000    2.222    0.000    1.333    0.000    0.000 
#    0.000    0.000    0.000    0.000    0.000    0.000 
#
# Total GULP energy -446241.182187 kJ/mol
# GULP energy per Si atom -12395.588394 kJ/mol
# Density = 1.846921 g / cm^3
# Si number density = 18.511344 Si / 1000 Ang^3
#
#
#
# Elastic Constant Matrix: (Units=GPa)
#
#
# Indices 1 2 3 4 5 6 
#
# 1 121.1940 52.8803 59.5247 0.0000 0.0000 0.0000
# 2 52.8803 147.5581 53.6672 0.0000 0.0000 0.0000
# 3 59.5247 53.6672 121.6162 0.0000 0.0000 0.0000
# 4 0.0000 0.0000 0.0000 18.7236 0.0000 0.0000
# 5 0.0000 0.0000 0.0000 0.0000 31.4328 0.0000
# 6 0.0000 0.0000 0.0000 0.0000 0.0000 31.4340
#
#
#
# Elastic Compliance Matrix: (Units=1/GPa)
#
#
# Indices 1 2 3 4 5 6 
#
# 1 0.011582 -0.002488 -0.004571 0.000000 0.000000 0.000000
# 2 -0.002488 0.008607 -0.002580 0.000000 0.000000 0.000000
# 3 -0.004571 -0.002580 0.011598 0.000000 0.000000 0.000000
# 4 0.000000 0.000000 0.000000 0.053409 0.000000 0.000000
# 5 0.000000 0.000000 0.000000 0.000000 0.031814 0.000000
# 6 0.000000 0.000000 0.000000 0.000000 0.000000 0.031813
#
#
# Mechanical properties :
#
#
# Convention : Reuss Voigt Hill
#
# Bulk Modulus (GPa) = 79.94331 80.27918 80.11125
# Shear Modulus (GPa) = 29.02412 31.27117 30.14764
#
# Velocity S-wave (km/s) = 3.96398 4.11457 4.03997
# Velocity P-wave (km/s) = 8.01441 8.12617 8.07048
#
# Compressibility (1/GPa) = 0.01250886
#
# Stress axis : x y z
#
# Youngs Moduli (GPa) = 86.34242 116.18223 86.21911
#
# Poissons Ratio (x) = 0.28908 0.39408
# Poissons Ratio (y) = 0.21484 0.22248
# Poissons Ratio (z) = 0.39464 0.29979
#
# Static dielectric constant tensor:
#      x y z
#    x 3.375830 0.000000 0.000000 
#    y 0.000000 3.622750 0.000000 
#    z 0.000000 0.000000 3.544210 
# 
# 
# High freq. dielectric constant tensor:
#      x y z
#    x 1.710070 0.000000 0.000000 
#    y 0.000000 1.730430 0.000000 
#    z 0.000000 0.000000 1.714150 
# 
# From -- ./inp_files/36212.got.cif
#   From: 2010.03.12/outbox.cif.g09.slc.cpg/sg70_19_cif.got.tgz:36212.got - 2010.04.16 13:46:32.
