data_PCOD8285090
_publ_section_title
;
Structure prediction by ZEFSAII (Michael W. Deem and Ramdas Pophale) SiO2 
 PCOD8285090
Probable space group: F M M M
;
_chemical_formula_sum "Si O2"
_cell_formula_units_Z 160
_cell_length_a 21.094211
_cell_length_b 22.265649
_cell_length_c 16.923957
_cell_angle_alpha 90.000000
_cell_angle_beta 90.000000
_cell_angle_gamma 90.000000
_cell_volume 7948.781472
_symmetry_space_group_name_H-M "F M M M"
_symmetry_group_IT_number 69
_symmetry_cell_setting 'orthorhombic'
loop_
_space_group_symop_operation_xyz
x,y,z
-x,-y,z
x,-y,-z
-x,y,-z
-x,-y,-z
x,y,-z
-x,y,z
x,-y,z
x,1/2+y,1/2+z
-x,1/2-y,1/2+z
x,1/2-y,1/2-z
-x,1/2+y,1/2-z
-x,1/2-y,1/2-z
x,1/2+y,1/2-z
-x,1/2+y,1/2+z
x,1/2-y,1/2+z
1/2+x,y,1/2+z
1/2-x,-y,1/2+z
1/2+x,-y,1/2-z
1/2-x,y,1/2-z
1/2-x,-y,1/2-z
1/2+x,y,1/2-z
1/2-x,y,1/2+z
1/2+x,-y,1/2+z
1/2+x,1/2+y,z
1/2-x,1/2-y,z
1/2+x,1/2-y,-z
1/2-x,1/2+y,-z
1/2-x,1/2-y,-z
1/2+x,1/2+y,-z
1/2-x,1/2+y,z
1/2+x,1/2-y,z
loop_
_atom_site_type_symbol
_atom_site_label
_atom_site_fract_x
_atom_site_fract_y
_atom_site_fract_z
Si Si1 0.610662 0.817334 0.087151
Si Si2 0.927425 0.000000 0.696142
Si Si3 0.668691 0.710742 0.824820
Si Si4 0.741947 0.623749 0.412814
Si Si5 0.280766 0.000000 0.836368
Si Si6 0.932267 0.130868 0.744474
O O1 0.633999 0.750559 0.109340
O O2 0.668108 0.863507 0.082274
O O3 0.565358 0.844567 0.154162
O O4 0.577821 0.814336 0.000000
O O5 0.924178 0.940674 0.749117
O O6 0.858453 0.000000 0.650775
O O7 0.000000 0.000000 0.653256
O O8 0.690277 0.750000 0.750000
O O9 0.729459 0.677504 0.860139
O O10 0.621799 0.658830 0.797075
O O11 0.773197 0.625032 0.500000
O O12 0.750260 0.558184 0.376557
O O13 0.250000 0.000000 0.750000
O O14 0.000000 0.148932 0.781498
#
# Coordination Sequence:
#
# PCOD8285090 Si02
#       6
#    32  16  32  32  16  32
#     4  10  21  36  56  81 117 156 192 234 293 362
#     4  10  20  39  60  82 116 154 192 238 300 356
#     4  10  22  36  59  85 117 156 201 242 296 358
#     4  11  23  39  58  86 124 156 192 245 306 364
#     4  12  23  37  66  94 120 156 204 258 305 350
#     4  10  21  38  59  85 114 150 199 250 289 345
#
# _framework density 20.128872000000001
#
# number of rings (size 3 to 8) (size 9 to 14) (size 15 to 20)
#    0.000    1.600    2.000    2.700    2.800    8.000 
#    0.000    0.500    0.000    4.800    0.000    0.000 
#    0.000   15.200    0.000    0.000    0.000    0.000 
#
# Total GULP energy -495560.224981 kJ/mol
# GULP energy per Si atom -12389.005625 kJ/mol
# Density = 2.008306 g / cm^3
# Si number density = 20.128872 Si / 1000 Ang^3
#
#
#
# Elastic Constant Matrix: (Units=GPa)
#
#
# Indices 1 2 3 4 5 6 
#
# 1 74.5235 16.9357 11.7820 0.0000 0.0000 0.0000
# 2 16.9357 131.6703 29.3982 0.0000 0.0000 0.0000
# 3 11.7820 29.3982 84.2102 0.0000 0.0000 0.0000
# 4 0.0000 0.0000 0.0000 25.0431 0.0000 0.0000
# 5 0.0000 0.0000 0.0000 0.0000 13.2032 0.0000
# 6 0.0000 0.0000 0.0000 0.0000 0.0000 171.9698
#
#
#
# Elastic Compliance Matrix: (Units=1/GPa)
#
#
# Indices 1 2 3 4 5 6 
#
# 1 0.013982 -0.001477 -0.001441 0.000000 0.000000 0.000000
# 2 -0.001477 0.008393 -0.002723 0.000000 0.000000 0.000000
# 3 -0.001441 -0.002723 0.013027 0.000000 0.000000 0.000000
# 4 0.000000 0.000000 0.000000 0.039931 0.000000 0.000000
# 5 0.000000 0.000000 0.000000 0.000000 0.075739 0.000000
# 6 0.000000 0.000000 0.000000 0.000000 0.000000 0.005815
#
#
# Mechanical properties :
#
#
# Convention : Reuss Voigt Hill
#
# Bulk Modulus (GPa) = 41.45854 45.18178 43.32016
# Shear Modulus (GPa) = 28.37536 57.52908 42.95222
#
# Velocity S-wave (km/s) = 3.75865 5.35186 4.62438
# Velocity P-wave (km/s) = 6.28314 7.79005 7.07682
#
# Compressibility (1/GPa) = 0.02412048
#
# Stress axis : x y z
#
# Youngs Moduli (GPa) = 71.52078 119.15107 76.76156
#
# Poissons Ratio (x) = 0.17595 0.11059
# Poissons Ratio (y) = 0.10562 0.20905
# Poissons Ratio (z) = 0.10304 0.32449
#
# Static dielectric constant tensor:
#      x y z
#    x 3.720320 0.000000 0.000000 
#    y 0.000000 3.798470 0.000000 
#    z 0.000000 0.000000 3.778550 
# 
# 
# High freq. dielectric constant tensor:
#      x y z
#    x 1.781050 0.000000 0.000000 
#    y 0.000000 1.806950 0.000000 
#    z 0.000000 0.000000 1.761520 
# 
# From -- ./inp_files/24628.got.cif
#   From: 2010.03.12/outbox.cif.g09.slc.cpg/sg69_13_cif.got.tgz:24628.got - 2010.04.10 23:52:46.
