data_PCOD8285241
_publ_section_title
;
Structure prediction by ZEFSAII (Michael W. Deem and Ramdas Pophale) SiO2 
 PCOD8285241
Probable space group: F M M M
;
_chemical_formula_sum "Si O2"
_cell_formula_units_Z 160
_cell_length_a 27.826090
_cell_length_b 15.131323
_cell_length_c 17.965530
_cell_angle_alpha 90.000000
_cell_angle_beta 90.000000
_cell_angle_gamma 90.000000
_cell_volume 7564.306561
_symmetry_space_group_name_H-M "F M M M"
_symmetry_group_IT_number 69
_symmetry_cell_setting 'orthorhombic'
loop_
_space_group_symop_operation_xyz
x,y,z
-x,-y,z
x,-y,-z
-x,y,-z
-x,-y,-z
x,y,-z
-x,y,z
x,-y,z
x,1/2+y,1/2+z
-x,1/2-y,1/2+z
x,1/2-y,1/2-z
-x,1/2+y,1/2-z
-x,1/2-y,1/2-z
x,1/2+y,1/2-z
-x,1/2+y,1/2+z
x,1/2-y,1/2+z
1/2+x,y,1/2+z
1/2-x,-y,1/2+z
1/2+x,-y,1/2-z
1/2-x,y,1/2-z
1/2-x,-y,1/2-z
1/2+x,y,1/2-z
1/2-x,y,1/2+z
1/2+x,-y,1/2+z
1/2+x,1/2+y,z
1/2-x,1/2-y,z
1/2+x,1/2-y,-z
1/2-x,1/2+y,-z
1/2-x,1/2-y,-z
1/2+x,1/2+y,-z
1/2-x,1/2+y,z
1/2+x,1/2-y,z
loop_
_atom_site_type_symbol
_atom_site_label
_atom_site_fract_x
_atom_site_fract_y
_atom_site_fract_z
Si Si1 0.500000 0.402164 0.914118
Si Si2 0.624928 0.642280 0.587334
Si Si3 0.882952 0.500000 0.313888
Si Si4 0.599898 0.837580 0.586678
Si Si5 0.264457 0.848879 0.087356
Si Si6 0.940681 0.500000 0.832153
Si Si7 0.280438 0.500000 0.821350
O O1 0.500000 0.500000 0.874178
O O2 0.456024 0.340733 0.892571
O O3 0.500000 0.424589 0.000000
O O4 0.614319 0.628923 0.500000
O O5 0.618953 0.743233 0.612456
O O6 0.680533 0.621365 0.606170
O O7 0.585099 0.584893 0.630970
O O8 0.877920 0.415564 0.366524
O O9 0.927145 0.500000 0.255677
O O10 0.831085 0.500000 0.277115
O O11 0.610868 0.854162 0.500000
O O12 0.250000 0.750000 0.112972
O O13 0.228126 0.913415 0.128845
O O14 0.255376 0.858143 0.000000
O O15 0.000000 0.500000 0.841491
O O16 0.250000 0.500000 0.750000
#
# Coordination Sequence:
#
# PCOD8285241 Si02
#       7
#    16  32  16  32  32  16  16
#     4   9  16  30  54  86 122 156 188 239 299 362
#     4  10  22  43  68  94 127 165 214 265 308 371
#     4  12  25  41  63  91 130 164 203 262 317 385
#     4  10  21  37  65  96 124 157 200 253 312 371
#     4  10  21  40  68 100 131 162 202 260 324 380
#     4  12  29  46  61  87 129 179 225 264 309 366
#     4  12  25  40  62  90 125 169 212 253 309 377
#
# _framework density 21.151971
#
# number of rings (size 3 to 8) (size 9 to 14) (size 15 to 20)
#    0.000    1.500    1.000    3.900    2.800    6.800 
#    0.000    5.000    0.000    0.000    0.000    0.000 
#    0.000    0.000    0.000    0.000    0.000    0.000 
#
# Total GULP energy -495528.124738 kJ/mol
# GULP energy per Si atom -12388.203118 kJ/mol
# Density = 2.110383 g / cm^3
# Si number density = 21.151971 Si / 1000 Ang^3
#
#
#
# Elastic Constant Matrix: (Units=GPa)
#
#
# Indices 1 2 3 4 5 6 
#
# 1 130.2707 22.7944 31.1893 0.0000 0.0000 0.0000
# 2 22.7944 126.3204 48.6767 0.0000 0.0000 0.0000
# 3 31.1893 48.6767 70.7011 0.0000 0.0000 0.0000
# 4 0.0000 0.0000 0.0000 1.6125 0.0000 0.0000
# 5 0.0000 0.0000 0.0000 0.0000 27.7497 0.0000
# 6 0.0000 0.0000 0.0000 0.0000 0.0000 -109.4227
#
#
#
# Elastic Compliance Matrix: (Units=1/GPa)
#
#
# Indices 1 2 3 4 5 6 
#
# 1 0.008584 -0.000122 -0.003703 0.000000 0.000000 0.000000
# 2 -0.000122 0.010777 -0.007366 0.000000 0.000000 0.000000
# 3 -0.003703 -0.007366 0.020849 0.000000 0.000000 0.000000
# 4 0.000000 0.000000 0.000000 0.620168 0.000000 0.000000
# 5 0.000000 0.000000 0.000000 0.000000 0.036036 0.000000
# 6 0.000000 0.000000 0.000000 0.000000 0.000000 -0.009139
#
#
# Mechanical properties :
#
#
# Convention : Reuss Voigt Hill
#
# Bulk Modulus (GPa) = 56.09052 59.17923 57.63487
# Shear Modulus (GPa) = 6.98715 -1.03668 2.97524
#
# Velocity S-wave (km/s) = 1.81947 -0.70084 1.18729
# Velocity P-wave (km/s) = 5.56681 5.23297 5.40247
#
# Compressibility (1/GPa) = 0.01782833
#
# Stress axis : x y z
#
# Youngs Moduli (GPa) = 116.49293 92.79215 47.96458
#
# Poissons Ratio (x) = 0.01134 0.17760
# Poissons Ratio (y) = 0.01423 0.35330
# Poissons Ratio (z) = 0.43134 0.68348
#
# Static dielectric constant tensor:
#      x y z
#    x 4.336250 0.000000 0.000000 
#    y 0.000000 3.863040 0.000000 
#    z 0.000000 0.000000 2.565930 
# 
# 
# High freq. dielectric constant tensor:
#      x y z
#    x 1.847320 0.000000 0.000000 
#    y 0.000000 1.837250 0.000000 
#    z 0.000000 0.000000 1.811240 
# 
# From -- ./inp_files/27559.got.cif
#   From: 2010.03.12/outbox.cif.g09.slc.cpg/sg69_14_cif.got.tgz:27559.got - 2010.04.10 23:52:46.
