data_PCOD8285013
_publ_section_title
;
Structure prediction by ZEFSAII (Michael W. Deem and Ramdas Pophale) SiO2 
 PCOD8285013
Probable space group: F M M M
;
_chemical_formula_sum "Si O2"
_cell_formula_units_Z 176
_cell_length_a 16.610949
_cell_length_b 18.716657
_cell_length_c 27.209757
_cell_angle_alpha 90.000000
_cell_angle_beta 90.000000
_cell_angle_gamma 90.000000
_cell_volume 8459.552494
_symmetry_space_group_name_H-M "F M M M"
_symmetry_group_IT_number 69
_symmetry_cell_setting 'orthorhombic'
loop_
_space_group_symop_operation_xyz
x,y,z
-x,-y,z
x,-y,-z
-x,y,-z
-x,-y,-z
x,y,-z
-x,y,z
x,-y,z
x,1/2+y,1/2+z
-x,1/2-y,1/2+z
x,1/2-y,1/2-z
-x,1/2+y,1/2-z
-x,1/2-y,1/2-z
x,1/2+y,1/2-z
-x,1/2+y,1/2+z
x,1/2-y,1/2+z
1/2+x,y,1/2+z
1/2-x,-y,1/2+z
1/2+x,-y,1/2-z
1/2-x,y,1/2-z
1/2-x,-y,1/2-z
1/2+x,y,1/2-z
1/2-x,y,1/2+z
1/2+x,-y,1/2+z
1/2+x,1/2+y,z
1/2-x,1/2-y,z
1/2+x,1/2-y,-z
1/2-x,1/2+y,-z
1/2-x,1/2-y,-z
1/2+x,1/2+y,-z
1/2-x,1/2+y,z
1/2+x,1/2-y,z
loop_
_atom_site_type_symbol
_atom_site_label
_atom_site_fract_x
_atom_site_fract_y
_atom_site_fract_z
Si Si1 0.410828 0.583116 0.302526
Si Si2 0.146447 0.837465 0.891176
Si Si3 0.093652 0.316362 0.717453
Si Si4 0.908176 0.298278 0.056648
Si Si5 0.500000 0.084664 0.442631
Si Si6 0.187144 0.584867 0.103049
O O1 0.500000 0.611327 0.318513
O O2 0.412864 0.500000 0.294826
O O3 0.387504 0.614172 0.249741
O O4 0.345579 0.604854 0.342964
O O5 0.141476 0.826459 0.832833
O O6 0.147028 0.758499 0.914433
O O7 0.225843 0.881392 0.904213
O O8 0.076236 0.884188 0.914663
O O9 0.125026 0.250000 0.750000
O O10 0.000000 0.306649 0.704403
O O11 0.873534 0.377995 0.064545
O O12 0.000000 0.294090 0.075889
O O13 0.904412 0.278290 0.000000
O O14 0.500000 0.108034 0.500000
O O15 0.500000 0.000000 0.437467
O O16 0.188325 0.500000 0.093204
#
# Coordination Sequence:
#
# PCOD8285013 Si02
#       6
#    32  32  32  32  16  32
#     4   9  19  37  60  86 122 169 211 254 312 378
#     4  12  23  42  66  96 131 171 215 271 327 390
#     4  10  20  36  61  93 126 168 219 268 311 373
#     4  11  24  44  70  94 122 166 219 271 328 395
#     4  11  24  42  65  92 127 173 220 267 325 392
#     4  11  25  42  63  97 136 170 212 268 331 390
#
# _framework density 20.804881999999999
#
# number of rings (size 3 to 8) (size 9 to 14) (size 15 to 20)
#    0.000    1.364    1.818    3.273    0.000    7.273 
#    0.000    3.636    0.000    0.000    0.000    0.000 
#    0.000    0.000    0.000    0.000    0.000    0.000 
#
# Total GULP energy -545659.059034 kJ/mol
# GULP energy per Si atom -12401.342251 kJ/mol
# Density = 2.075753 g / cm^3
# Si number density = 20.804882 Si / 1000 Ang^3
#
#
#
# Elastic Constant Matrix: (Units=GPa)
#
#
# Indices 1 2 3 4 5 6 
#
# 1 103.6856 57.4269 44.7015 0.0000 0.0000 0.0000
# 2 57.4269 103.3690 45.5964 0.0000 0.0000 0.0000
# 3 44.7015 45.5964 102.9613 0.0000 0.0000 0.0000
# 4 0.0000 0.0000 0.0000 38.2675 0.0000 0.0000
# 5 0.0000 0.0000 0.0000 0.0000 24.0933 0.0000
# 6 0.0000 0.0000 0.0000 0.0000 0.0000 19.4066
#
#
#
# Elastic Compliance Matrix: (Units=1/GPa)
#
#
# Indices 1 2 3 4 5 6 
#
# 1 0.014869 -0.006727 -0.003476 0.000000 0.000000 0.000000
# 2 -0.006727 0.015066 -0.003751 0.000000 0.000000 0.000000
# 3 -0.003476 -0.003751 0.012883 0.000000 0.000000 0.000000
# 4 0.000000 0.000000 0.000000 0.026132 0.000000 0.000000
# 5 0.000000 0.000000 0.000000 0.000000 0.041505 0.000000
# 6 0.000000 0.000000 0.000000 0.000000 0.000000 0.051529
#
#
# Mechanical properties :
#
#
# Convention : Reuss Voigt Hill
#
# Bulk Modulus (GPa) = 67.07650 67.27393 67.17522
# Shear Modulus (GPa) = 25.65894 27.17288 26.41591
#
# Velocity S-wave (km/s) = 3.51567 3.61790 3.56715
# Velocity P-wave (km/s) = 6.98503 7.06102 7.02313
#
# Compressibility (1/GPa) = 0.01490835
#
# Stress axis : x y z
#
# Youngs Moduli (GPa) = 67.25306 66.37415 77.62155
#
# Poissons Ratio (x) = 0.44651 0.26985
# Poissons Ratio (y) = 0.45242 0.29119
# Poissons Ratio (z) = 0.23380 0.24899
#
# Static dielectric constant tensor:
#      x y z
#    x 3.794470 0.000000 0.000000 
#    y 0.000000 3.925480 0.000000 
#    z 0.000000 0.000000 3.830390 
# 
# 
# High freq. dielectric constant tensor:
#      x y z
#    x 1.810760 0.000000 0.000000 
#    y 0.000000 1.828120 0.000000 
#    z 0.000000 0.000000 1.817440 
# 
# From -- ./inp_files/41818.got.cif
#   From: 2010.03.12/outbox.cif.g09.slc.cpg/sg69_21_cif.got.tgz:41818.got - 2010.04.10 23:52:46.
