data_PCOD8285752
_publ_section_title
;
Structure prediction by ZEFSAII (Michael W. Deem and Ramdas Pophale) SiO2 
 PCOD8285752
Probable space group: F D D D
;
_chemical_formula_sum "Si O2"
_cell_formula_units_Z 160
_cell_length_a 20.244983
_cell_length_b 13.849780
_cell_length_c 27.385566
_cell_angle_alpha 90.000000
_cell_angle_beta 90.000000
_cell_angle_gamma 90.000000
_cell_volume 7678.599433
_symmetry_space_group_name_H-M "F D D D"
_symmetry_group_IT_number 70
_space_group.IT_coordinate_system_code '2'
_symmetry_cell_setting 'orthorhombic'
loop_
_space_group_symop_operation_xyz
x,y,z
1/4-x,1/4-y,z
x,1/4-y,1/4-z
1/4-x,y,1/4-z
-x,-y,-z
3/4+x,3/4+y,-z
-x,3/4+y,3/4+z
3/4+x,-y,3/4+z
x,1/2+y,1/2+z
1/4-x,3/4-y,1/2+z
x,3/4-y,3/4-z
1/4-x,1/2+y,3/4-z
-x,1/2-y,1/2-z
3/4+x,1/4+y,1/2-z
-x,1/4+y,1/4+z
3/4+x,1/2-y,1/4+z
1/2+x,y,1/2+z
3/4-x,1/4-y,1/2+z
1/2+x,1/4-y,3/4-z
3/4-x,y,3/4-z
1/2-x,-y,1/2-z
1/4+x,3/4+y,1/2-z
1/2-x,3/4+y,1/4+z
1/4+x,-y,1/4+z
1/2+x,1/2+y,z
3/4-x,3/4-y,z
1/2+x,3/4-y,1/4-z
3/4-x,1/2+y,1/4-z
1/2-x,1/2-y,-z
1/4+x,1/4+y,-z
1/2-x,1/4+y,3/4+z
1/4+x,1/2-y,3/4+z
loop_
_atom_site_type_symbol
_atom_site_label
_atom_site_fract_x
_atom_site_fract_y
_atom_site_fract_z
Si Si1 0.265161 0.125000 0.625000
Si Si2 0.242857 0.863202 0.503630
Si Si3 0.125000 0.125000 0.046102
Si Si4 0.858736 0.086811 0.675718
Si Si5 0.625000 0.125000 0.849527
Si Si6 0.014687 0.420010 0.135480
Si Si7 0.375000 0.530047 0.875000
O O1 0.313283 0.134762 0.673029
O O2 0.218479 0.219206 0.621446
O O3 0.250000 0.750000 0.500000
O O4 0.312017 0.909386 0.485308
O O5 0.179958 0.890178 0.469350
O O6 0.228061 0.904888 0.556616
O O7 0.147434 0.215418 0.079378
O O8 0.824943 0.125000 0.625000
O O9 0.853413 0.969302 0.682239
O O10 0.688811 0.152209 0.882193
O O11 0.064133 0.347869 0.108151
#
# Coordination Sequence:
#
# PCOD8285752 Si02
#       7
#    16  32  16  32  16  32  16
#     4   8  22  39  64  77 116 170 226 232 290 375
#     4  12  22  34  60  92 126 152 198 250 317 368
#     4  11  25  34  55  96 128 154 186 256 322 383
#     4   9  20  34  58  87 116 155 202 246 294 364
#     4  10  17  34  61  78 119 154 204 227 298 365
#     4  11  22  39  61  88 116 169 199 257 302 373
#     4  11  24  37  58  90 132 155 194 257 328 356
#
# _framework density 20.837133999999999
#
# number of rings (size 3 to 8) (size 9 to 14) (size 15 to 20)
#    0.600    1.000    4.000    0.600    8.400    0.400 
#    0.000    0.000    0.000    9.600    0.000    0.000 
#    0.000    0.000    0.000    0.000    0.000    0.000 
#
# Total GULP energy -495632.463888 kJ/mol
# GULP energy per Si atom -12390.811597 kJ/mol
# Density = 2.078971 g / cm^3
# Si number density = 20.837134 Si / 1000 Ang^3
#
#
#
# Elastic Constant Matrix: (Units=GPa)
#
#
# Indices 1 2 3 4 5 6 
#
# 1 77.1981 27.6419 0.7684 0.0000 0.0000 0.0000
# 2 27.6419 134.4959 23.5600 0.0000 0.0000 0.0000
# 3 0.7684 23.5600 54.6015 0.0000 0.0000 0.0000
# 4 0.0000 0.0000 0.0000 14.7424 0.0000 0.0000
# 5 0.0000 0.0000 0.0000 0.0000 16.2959 0.0000
# 6 0.0000 0.0000 0.0000 0.0000 0.0000 34.1338
#
#
#
# Elastic Compliance Matrix: (Units=1/GPa)
#
#
# Indices 1 2 3 4 5 6 
#
# 1 0.014047 -0.003086 0.001134 0.000000 0.000000 0.000000
# 2 -0.003086 0.008721 -0.003720 0.000000 0.000000 0.000000
# 3 0.001134 -0.003720 0.019904 0.000000 0.000000 0.000000
# 4 0.000000 0.000000 0.000000 0.067832 0.000000 0.000000
# 5 0.000000 0.000000 0.000000 0.000000 0.061365 0.000000
# 6 0.000000 0.000000 0.000000 0.000000 0.000000 0.029297
#
#
# Mechanical properties :
#
#
# Convention : Reuss Voigt Hill
#
# Bulk Modulus (GPa) = 31.91954 41.13735 36.52844
# Shear Modulus (GPa) = 22.42646 27.32275 24.87461
#
# Velocity S-wave (km/s) = 3.28422 3.62505 3.45884
# Velocity P-wave (km/s) = 5.45283 6.10791 5.78964
#
# Compressibility (1/GPa) = 0.03132878
#
# Stress axis : x y z
#
# Youngs Moduli (GPa) = 71.18832 114.66706 50.24236
#
# Poissons Ratio (x) = 0.35382 -0.05696
# Poissons Ratio (y) = 0.21966 0.18688
# Poissons Ratio (z) = -0.08071 0.42651
#
# Static dielectric constant tensor:
#      x y z
#    x 3.961420 0.000000 0.000000 
#    y 0.000000 3.874150 0.000000 
#    z 0.000000 0.000000 3.556710 
# 
# 
# High freq. dielectric constant tensor:
#      x y z
#    x 1.814690 0.000000 0.000000 
#    y 0.000000 1.811740 0.000000 
#    z 0.000000 0.000000 1.772070 
# 
# From -- ./inp_files/61083.got.cif
#   From: 2010.03.12/outbox.cif.g09.slc.cpg/sg70_31_cif.got.tgz:61083.got - 2010.04.16 13:46:32.
