data_PCOD8285221
_publ_section_title
;
Structure prediction by ZEFSAII (Michael W. Deem and Ramdas Pophale) SiO2 
 PCOD8285221
Probable space group: F M M M
;
_chemical_formula_sum "Si O2"
_cell_formula_units_Z 160
_cell_length_a 17.798103
_cell_length_b 16.411249
_cell_length_c 25.698083
_cell_angle_alpha 90.000000
_cell_angle_beta 90.000000
_cell_angle_gamma 90.000000
_cell_volume 7506.129937
_symmetry_space_group_name_H-M "F M M M"
_symmetry_group_IT_number 69
_symmetry_cell_setting 'orthorhombic'
loop_
_space_group_symop_operation_xyz
x,y,z
-x,-y,z
x,-y,-z
-x,y,-z
-x,-y,-z
x,y,-z
-x,y,z
x,-y,z
x,1/2+y,1/2+z
-x,1/2-y,1/2+z
x,1/2-y,1/2-z
-x,1/2+y,1/2-z
-x,1/2-y,1/2-z
x,1/2+y,1/2-z
-x,1/2+y,1/2+z
x,1/2-y,1/2+z
1/2+x,y,1/2+z
1/2-x,-y,1/2+z
1/2+x,-y,1/2-z
1/2-x,y,1/2-z
1/2-x,-y,1/2-z
1/2+x,y,1/2-z
1/2-x,y,1/2+z
1/2+x,-y,1/2+z
1/2+x,1/2+y,z
1/2-x,1/2-y,z
1/2+x,1/2-y,-z
1/2-x,1/2+y,-z
1/2-x,1/2-y,-z
1/2+x,1/2+y,-z
1/2-x,1/2+y,z
1/2+x,1/2-y,z
loop_
_atom_site_type_symbol
_atom_site_label
_atom_site_fract_x
_atom_site_fract_y
_atom_site_fract_z
Si Si1 0.155871 0.907227 0.944251
Si Si2 0.418363 0.904783 0.656405
Si Si3 0.802169 0.327273 0.058994
Si Si4 0.088667 0.904328 0.639717
Si Si5 0.661296 0.342533 0.254492
O O1 0.114581 0.862550 0.896082
O O2 0.245809 0.903813 0.936917
O O3 0.130743 0.000000 0.946468
O O4 0.134088 0.865085 0.000000
O O5 0.500000 0.866439 0.667188
O O6 0.366312 0.891999 0.705219
O O7 0.423793 0.000000 0.645992
O O8 0.750000 0.250000 0.076394
O O9 0.872819 0.346471 0.096208
O O10 0.832256 0.314994 0.000000
O O11 0.128389 0.884258 0.694237
O O12 0.000000 0.883453 0.642490
O O13 0.100084 0.000000 0.626962
O O14 0.632828 0.250000 0.250000
O O15 0.750000 0.347914 0.250000
#
# Coordination Sequence:
#
# PCOD8285221 Si02
#       5
#    32  32  32  32  32
#     4   9  18  34  58  87 118 157 204 252 306 372
#     4  10  21  37  58  85 120 159 199 250 312 377
#     4  10  22  40  64  93 126 166 213 263 317 382
#     4  11  25  43  66  98 134 172 218 273 332 399
#     4  11  25  41  62  90 122 167 218 267 325 386
#
# _framework density 21.315911
#
# number of rings (size 3 to 8) (size 9 to 14) (size 15 to 20)
#    0.000    1.800    0.000    3.000    5.600    8.400 
#    0.000    3.000    0.000    3.600    0.000    0.000 
#    0.000    0.000    0.000    0.000    0.000    0.000 
#
# Total GULP energy -495674.277964 kJ/mol
# GULP energy per Si atom -12391.856949 kJ/mol
# Density = 2.126739 g / cm^3
# Si number density = 21.315911 Si / 1000 Ang^3
#
#
#
# Elastic Constant Matrix: (Units=GPa)
#
#
# Indices 1 2 3 4 5 6 
#
# 1 116.5389 37.8379 71.5600 0.0000 0.0000 0.0000
# 2 37.8379 63.3470 34.1490 0.0000 0.0000 0.0000
# 3 71.5600 34.1490 173.5612 0.0000 0.0000 0.0000
# 4 0.0000 0.0000 0.0000 18.5011 0.0000 0.0000
# 5 0.0000 0.0000 0.0000 0.0000 41.4294 0.0000
# 6 0.0000 0.0000 0.0000 0.0000 0.0000 28.2192
#
#
#
# Elastic Compliance Matrix: (Units=1/GPa)
#
#
# Indices 1 2 3 4 5 6 
#
# 1 0.012976 -0.005444 -0.004279 0.000000 0.000000 0.000000
# 2 -0.005444 0.019943 -0.001679 0.000000 0.000000 0.000000
# 3 -0.004279 -0.001679 0.007856 0.000000 0.000000 0.000000
# 4 0.000000 0.000000 0.000000 0.054051 0.000000 0.000000
# 5 0.000000 0.000000 0.000000 0.000000 0.024137 0.000000
# 6 0.000000 0.000000 0.000000 0.000000 0.000000 0.035437
#
#
# Mechanical properties :
#
#
# Convention : Reuss Voigt Hill
#
# Bulk Modulus (GPa) = 55.64561 71.17123 63.40842
# Shear Modulus (GPa) = 27.29335 31.62327 29.45831
#
# Velocity S-wave (km/s) = 3.58218 3.85587 3.72154
# Velocity P-wave (km/s) = 6.57809 7.29965 6.94824
#
# Compressibility (1/GPa) = 0.01797087
#
# Stress axis : x y z
#
# Youngs Moduli (GPa) = 77.06678 50.14263 127.28711
#
# Poissons Ratio (x) = 0.27297 0.54464
# Poissons Ratio (y) = 0.41955 0.21376
# Poissons Ratio (z) = 0.32976 0.08421
#
# Static dielectric constant tensor:
#      x y z
#    x 4.001450 0.000000 0.000000 
#    y 0.000000 3.851720 0.000000 
#    z 0.000000 0.000000 4.120060 
# 
# 
# High freq. dielectric constant tensor:
#      x y z
#    x 1.831300 0.000000 0.000000 
#    y 0.000000 1.828500 0.000000 
#    z 0.000000 0.000000 1.852940 
# 
# From -- ./inp_files/41752.got.cif
#   From: 2010.03.12/outbox.cif.g09.slc.cpg/sg69_21_cif.got.tgz:41752.got - 2010.04.10 23:52:46.
