data_PCOD8285367
_publ_section_title
;
Structure prediction by ZEFSAII (Michael W. Deem and Ramdas Pophale) SiO2 
 PCOD8285367
Probable space group: F M M M
;
_chemical_formula_sum "Si O2"
_cell_formula_units_Z 208
_cell_length_a 29.849534
_cell_length_b 18.504588
_cell_length_c 20.221425
_cell_angle_alpha 90.000000
_cell_angle_beta 90.000000
_cell_angle_gamma 90.000000
_cell_volume 11169.371409
_symmetry_space_group_name_H-M "F M M M"
_symmetry_group_IT_number 69
_symmetry_cell_setting 'orthorhombic'
loop_
_space_group_symop_operation_xyz
x,y,z
-x,-y,z
x,-y,-z
-x,y,-z
-x,-y,-z
x,y,-z
-x,y,z
x,-y,z
x,1/2+y,1/2+z
-x,1/2-y,1/2+z
x,1/2-y,1/2-z
-x,1/2+y,1/2-z
-x,1/2-y,1/2-z
x,1/2+y,1/2-z
-x,1/2+y,1/2+z
x,1/2-y,1/2+z
1/2+x,y,1/2+z
1/2-x,-y,1/2+z
1/2+x,-y,1/2-z
1/2-x,y,1/2-z
1/2-x,-y,1/2-z
1/2+x,y,1/2-z
1/2-x,y,1/2+z
1/2+x,-y,1/2+z
1/2+x,1/2+y,z
1/2-x,1/2-y,z
1/2+x,1/2-y,-z
1/2-x,1/2+y,-z
1/2-x,1/2-y,-z
1/2+x,1/2+y,-z
1/2-x,1/2+y,z
1/2+x,1/2-y,z
loop_
_atom_site_type_symbol
_atom_site_label
_atom_site_fract_x
_atom_site_fract_y
_atom_site_fract_z
Si Si1 0.140127 0.696021 0.190747
Si Si2 0.143412 0.804044 0.922008
Si Si3 0.216601 0.916048 0.307854
Si Si4 0.046961 0.793139 0.924136
Si Si5 0.949518 0.646538 0.858288
Si Si6 0.280903 0.082739 0.424671
Si Si7 0.447145 0.500000 0.426995
O O1 0.150134 0.750000 0.250000
O O2 0.154619 0.733411 0.121339
O O3 0.170365 0.625734 0.199355
O O4 0.087799 0.671879 0.194847
O O5 0.093112 0.829779 0.898820
O O6 0.176655 0.868829 0.904985
O O7 0.144618 0.783534 0.000000
O O8 0.250000 0.891271 0.250000
O O9 0.239220 0.897738 0.378324
O O10 0.204885 0.000000 0.301403
O O11 0.049998 0.706456 0.915909
O O12 0.000000 0.820776 0.889444
O O13 0.042522 0.811697 0.000000
O O14 0.931843 0.571270 0.888092
O O15 0.000000 0.639135 0.827156
O O16 0.265853 0.097518 0.500000
O O17 0.295976 0.000000 0.414169
O O18 0.500000 0.500000 0.434539
O O19 0.424970 0.500000 0.500000
#
# Coordination Sequence:
#
# PCOD8285367 Si02
#       7
#    32  32  32  32  32  32  16
#     4  11  23  36  54  79 109 140 182 223 267 319
#     4   9  18  32  52  78 105 135 176 221 268 321
#     4  10  22  39  57  75 101 137 176 217 267 325
#     4   8  13  24  43  68 101 137 171 209 253 305
#     4   9  18  31  49  74 107 143 177 214 258 312
#     4   9  18  34  55  77 103 135 172 218 276 335
#     4   9  16  28  50  80 111 146 185 219 260 317
#
# _framework density 18.622354999999999
#
# number of rings (size 3 to 8) (size 9 to 14) (size 15 to 20)
#    0.000    2.692    0.000    1.385    1.077    5.538 
#    0.000    1.538    0.000    0.462    0.000    3.231 
#    0.000    0.000    0.000    0.000    0.000    0.000 
#
# Total GULP energy -644269.975690 kJ/mol
# GULP energy per Si atom -12389.807225 kJ/mol
# Density = 1.857997 g / cm^3
# Si number density = 18.622355 Si / 1000 Ang^3
#
#
#
# Elastic Constant Matrix: (Units=GPa)
#
#
# Indices 1 2 3 4 5 6 
#
# 1 121.0283 54.0853 38.4834 0.0000 0.0000 0.0000
# 2 54.0853 65.7245 29.5933 0.0000 0.0000 0.0000
# 3 38.4834 29.5933 68.3409 0.0000 0.0000 0.0000
# 4 0.0000 0.0000 0.0000 19.2402 0.0000 0.0000
# 5 0.0000 0.0000 0.0000 0.0000 22.0575 0.0000
# 6 0.0000 0.0000 0.0000 0.0000 0.0000 29.7897
#
#
#
# Elastic Compliance Matrix: (Units=1/GPa)
#
#
# Indices 1 2 3 4 5 6 
#
# 1 0.013719 -0.009703 -0.003524 0.000000 0.000000 0.000000
# 2 -0.009703 0.025763 -0.005692 0.000000 0.000000 0.000000
# 3 -0.003524 -0.005692 0.019082 0.000000 0.000000 0.000000
# 4 0.000000 0.000000 0.000000 0.051975 0.000000 0.000000
# 5 0.000000 0.000000 0.000000 0.000000 0.045336 0.000000
# 6 0.000000 0.000000 0.000000 0.000000 0.000000 0.033569
#
#
# Mechanical properties :
#
#
# Convention : Reuss Voigt Hill
#
# Bulk Modulus (GPa) = 48.24897 55.49086 51.86991
# Shear Modulus (GPa) = 21.35035 23.07960 22.21498
#
# Velocity S-wave (km/s) = 3.38966 3.52426 3.45761
# Velocity P-wave (km/s) = 6.42535 6.81346 6.62225
#
# Compressibility (1/GPa) = 0.02072583
#
# Stress axis : x y z
#
# Youngs Moduli (GPa) = 72.89150 38.81598 52.40669
#
# Poissons Ratio (x) = 0.37663 0.18466
# Poissons Ratio (y) = 0.70726 0.29830
# Poissons Ratio (z) = 0.25685 0.22094
#
# Static dielectric constant tensor:
#      x y z
#    x 3.725010 0.000000 0.000000 
#    y 0.000000 3.273370 0.000000 
#    z 0.000000 0.000000 3.325030 
# 
# 
# High freq. dielectric constant tensor:
#      x y z
#    x 1.730000 0.000000 0.000000 
#    y 0.000000 1.703040 0.000000 
#    z 0.000000 0.000000 1.706150 
# 
# From -- ./inp_files/27899.got.cif
#   From: 2010.03.12/outbox.cif.g09.slc.cpg/sg69_14_cif.got.tgz:27899.got - 2010.04.10 23:52:46.
