data_PCOD8285351
_publ_section_title
;
Structure prediction by ZEFSAII (Michael W. Deem and Ramdas Pophale) SiO2 
 PCOD8285351
Probable space group: F M M M
;
_chemical_formula_sum "Si O2"
_cell_formula_units_Z 192
_cell_length_a 27.126912
_cell_length_b 19.652896
_cell_length_c 19.488534
_cell_angle_alpha 90.000000
_cell_angle_beta 90.000000
_cell_angle_gamma 90.000000
_cell_volume 10389.773635
_symmetry_space_group_name_H-M "F M M M"
_symmetry_group_IT_number 69
_symmetry_cell_setting 'orthorhombic'
loop_
_space_group_symop_operation_xyz
x,y,z
-x,-y,z
x,-y,-z
-x,y,-z
-x,-y,-z
x,y,-z
-x,y,z
x,-y,z
x,1/2+y,1/2+z
-x,1/2-y,1/2+z
x,1/2-y,1/2-z
-x,1/2+y,1/2-z
-x,1/2-y,1/2-z
x,1/2+y,1/2-z
-x,1/2+y,1/2+z
x,1/2-y,1/2+z
1/2+x,y,1/2+z
1/2-x,-y,1/2+z
1/2+x,-y,1/2-z
1/2-x,y,1/2-z
1/2-x,-y,1/2-z
1/2+x,y,1/2-z
1/2-x,y,1/2+z
1/2+x,-y,1/2+z
1/2+x,1/2+y,z
1/2-x,1/2-y,z
1/2+x,1/2-y,-z
1/2-x,1/2+y,-z
1/2-x,1/2-y,-z
1/2+x,1/2+y,-z
1/2-x,1/2+y,z
1/2+x,1/2-y,z
loop_
_atom_site_type_symbol
_atom_site_label
_atom_site_fract_x
_atom_site_fract_y
_atom_site_fract_z
Si Si1 0.600021 0.693781 0.576714
Si Si2 0.804127 0.361604 0.741386
Si Si3 0.100383 0.923951 0.194233
Si Si4 0.195794 0.255678 0.862888
Si Si5 0.556314 0.833918 0.578809
Si Si6 0.556134 0.077796 0.165165
O O1 0.592580 0.666437 0.500000
O O2 0.654246 0.728110 0.581211
O O3 0.561164 0.753440 0.594169
O O4 0.592081 0.629747 0.626196
O O5 0.750000 0.396167 0.750000
O O6 0.846604 0.417458 0.732503
O O7 0.810054 0.315261 0.807745
O O8 0.811317 0.316289 0.673693
O O9 0.091897 0.874558 0.130036
O O10 0.060013 0.909470 0.253184
O O11 0.095729 0.000000 0.165301
O O12 0.250000 0.250000 0.897571
O O13 0.572012 0.849254 0.500000
O O14 0.500000 0.855874 0.591522
O O15 0.500000 0.091245 0.142432
O O16 0.571744 0.000000 0.147668
#
# Coordination Sequence:
#
# PCOD8285351 Si02
#       6
#    32  32  32  32  32  32
#     4  11  21  35  57  82 109 146 187 229 279 331
#     4   9  17  32  55  81 109 139 177 224 280 334
#     4  11  21  35  57  82 109 146 187 229 279 331
#     4   9  17  32  55  81 109 139 177 224 280 334
#     4  10  22  38  55  80 113 147 187 232 275 329
#     4  10  22  38  55  80 113 147 187 232 275 329
#
# _framework density 18.479710000000001
#
# number of rings (size 3 to 8) (size 9 to 14) (size 15 to 20)
#    0.000    2.000    3.333    2.000    0.000    4.000 
#    0.000    3.333    0.000    0.000    0.000    0.000 
#    0.000    0.000    0.000    0.000    0.000    0.000 
#
# Total GULP energy -594908.942450 kJ/mol
# GULP energy per Si atom -12393.936301 kJ/mol
# Density = 1.843765 g / cm^3
# Si number density = 18.479710 Si / 1000 Ang^3
#
#
#
# Elastic Constant Matrix: (Units=GPa)
#
#
# Indices 1 2 3 4 5 6 
#
# 1 99.0915 28.1920 28.0481 0.0000 0.0000 0.0000
# 2 28.1920 79.2373 53.1586 0.0000 0.0000 0.0000
# 3 28.0481 53.1586 67.1105 0.0000 0.0000 0.0000
# 4 0.0000 0.0000 0.0000 23.3163 0.0000 0.0000
# 5 0.0000 0.0000 0.0000 0.0000 22.5535 0.0000
# 6 0.0000 0.0000 0.0000 0.0000 0.0000 21.4925
#
#
#
# Elastic Compliance Matrix: (Units=1/GPa)
#
#
# Indices 1 2 3 4 5 6 
#
# 1 0.011573 -0.001862 -0.003362 0.000000 0.000000 0.000000
# 2 -0.001862 0.027232 -0.020792 0.000000 0.000000 0.000000
# 3 -0.003362 -0.020792 0.032776 0.000000 0.000000 0.000000
# 4 0.000000 0.000000 0.000000 0.042888 0.000000 0.000000
# 5 0.000000 0.000000 0.000000 0.000000 0.044339 0.000000
# 6 0.000000 0.000000 0.000000 0.000000 0.000000 0.046528
#
#
# Mechanical properties :
#
#
# Convention : Reuss Voigt Hill
#
# Bulk Modulus (GPa) = 51.15626 51.58186 51.36906
# Shear Modulus (GPa) = 18.94768 22.54185 20.74476
#
# Velocity S-wave (km/s) = 3.20554 3.49638 3.35411
# Velocity P-wave (km/s) = 6.43764 6.65378 6.54660
#
# Compressibility (1/GPa) = 0.01954795
#
# Stress axis : x y z
#
# Youngs Moduli (GPa) = 86.40764 36.72145 30.51057
#
# Poissons Ratio (x) = 0.06839 0.10257
# Poissons Ratio (y) = 0.16092 0.63439
# Poissons Ratio (z) = 0.29048 0.76352
#
# Static dielectric constant tensor:
#      x y z
#    x 3.502940 0.000000 0.000000 
#    y 0.000000 3.185080 0.000000 
#    z 0.000000 0.000000 3.153290 
# 
# 
# High freq. dielectric constant tensor:
#      x y z
#    x 1.725750 0.000000 0.000000 
#    y 0.000000 1.701830 0.000000 
#    z 0.000000 0.000000 1.700090 
# 
# From -- ./inp_files/32811.got.cif
#   From: 2010.03.12/outbox.cif.g09.slc.cpg/sg69_17_cif.got.tgz:32811.got - 2010.04.10 23:52:46.
