data_PCOD8285610
_publ_section_title
;
Structure prediction by ZEFSAII (Michael W. Deem and Ramdas Pophale) SiO2 
 PCOD8285610
Probable space group: F M M M
;
_chemical_formula_sum "Si O2"
_cell_formula_units_Z 160
_cell_length_a 28.939117
_cell_length_b 31.914057
_cell_length_c 8.691016
_cell_angle_alpha 90.000000
_cell_angle_beta 90.000000
_cell_angle_gamma 90.000000
_cell_volume 8026.714972
_symmetry_space_group_name_H-M "F M M M"
_symmetry_group_IT_number 69
_symmetry_cell_setting 'orthorhombic'
loop_
_space_group_symop_operation_xyz
x,y,z
-x,-y,z
x,-y,-z
-x,y,-z
-x,-y,-z
x,y,-z
-x,y,z
x,-y,z
x,1/2+y,1/2+z
-x,1/2-y,1/2+z
x,1/2-y,1/2-z
-x,1/2+y,1/2-z
-x,1/2-y,1/2-z
x,1/2+y,1/2-z
-x,1/2+y,1/2+z
x,1/2-y,1/2+z
1/2+x,y,1/2+z
1/2-x,-y,1/2+z
1/2+x,-y,1/2-z
1/2-x,y,1/2-z
1/2-x,-y,1/2-z
1/2+x,y,1/2-z
1/2-x,y,1/2+z
1/2+x,-y,1/2+z
1/2+x,1/2+y,z
1/2-x,1/2-y,z
1/2+x,1/2-y,-z
1/2-x,1/2+y,-z
1/2-x,1/2-y,-z
1/2+x,1/2+y,-z
1/2-x,1/2+y,z
1/2+x,1/2-y,z
loop_
_atom_site_type_symbol
_atom_site_label
_atom_site_fract_x
_atom_site_fract_y
_atom_site_fract_z
Si Si1 0.922501 0.500000 0.179138
Si Si2 0.173960 0.000000 0.824688
Si Si3 0.370594 0.357652 0.327391
Si Si4 0.291546 0.422033 0.670626
Si Si5 0.552794 0.411712 0.175482
Si Si6 0.798697 0.204290 0.817227
O O1 0.868087 0.500000 0.205232
O O2 0.943532 0.457571 0.249238
O O3 0.933969 0.500000 0.000000
O O4 0.204765 0.040064 0.790353
O O5 0.156167 0.000000 0.000000
O O6 0.380135 0.340387 0.500000
O O7 0.339218 0.398291 0.335867
O O8 0.418114 0.374034 0.253175
O O9 0.343478 0.322965 0.228830
O O10 0.277903 0.436894 0.500000
O O11 0.250000 0.394811 0.750000
O O12 0.500000 0.396831 0.186732
O O13 0.569610 0.415976 0.000000
O O14 0.807879 0.250000 0.750000
O O15 0.750000 0.186631 0.750000
O O16 0.794468 0.205849 0.000000
#
# Coordination Sequence:
#
# PCOD8285610 Si02
#       6
#    16  16  32  32  32  32
#     4  12  23  38  59  84 114 153 202 254 306 358
#     4  12  23  36  55  75 107 150 195 244 292 346
#     4  11  23  39  61  88 120 155 196 244 297 354
#     4  11  23  37  54  78 111 151 195 239 287 347
#     4  11  24  41  62  88 118 155 201 252 305 359
#     4  11  22  39  64  94 129 163 201 242 289 350
#
# _framework density 19.933434999999999
#
# number of rings (size 3 to 8) (size 9 to 14) (size 15 to 20)
#    0.000    0.800    2.000    7.200    0.000    6.800 
#    0.000    0.000    0.000    0.600    0.000    0.000 
#    0.000    0.000    0.000    0.000    0.000    0.000 
#
# Total GULP energy -495867.026168 kJ/mol
# GULP energy per Si atom -12396.675654 kJ/mol
# Density = 1.988807 g / cm^3
# Si number density = 19.933435 Si / 1000 Ang^3
#
#
#
# Elastic Constant Matrix: (Units=GPa)
#
#
# Indices 1 2 3 4 5 6 
#
# 1 109.4298 35.6153 50.5112 -0.0144 0.0022 -0.0748
# 2 35.6153 88.6503 48.9675 0.0037 -0.0051 -0.0739
# 3 50.5112 48.9675 178.1174 0.0225 -0.0500 -0.1572
# 4 -0.0144 0.0037 0.0225 31.2393 -0.0065 -0.1075
# 5 0.0022 -0.0051 -0.0500 -0.0065 31.6230 0.0820
# 6 -0.0748 -0.0739 -0.1572 -0.1075 0.0820 12.2800
#
#
#
# Elastic Compliance Matrix: (Units=1/GPa)
#
#
# Indices 1 2 3 4 5 6 
#
# 1 0.011258 -0.003253 -0.002298 0.000007 -0.000005 0.000020
# 2 -0.003253 0.014240 -0.002992 -0.000001 -0.000002 0.000028
# 3 -0.002298 -0.002992 0.007089 -0.000006 0.000011 0.000059
# 4 0.000007 -0.000001 -0.000006 0.032012 0.000006 0.000280
# 5 -0.000005 -0.000002 0.000011 0.000006 0.031623 -0.000211
# 6 0.000020 0.000028 0.000059 0.000280 -0.000211 0.081438
#
#
# Mechanical properties :
#
#
# Convention : Reuss Voigt Hill
#
# Bulk Modulus (GPa) = 64.51954 71.82061 68.17008
# Shear Modulus (GPa) = 25.01077 31.10204 28.05640
#
# Velocity S-wave (km/s) = 3.54604 3.95434 3.75574
# Velocity P-wave (km/s) = 7.01453 7.54702 7.28564
#
# Compressibility (1/GPa) = 0.01549918
#
# Stress axis : x y z
#
# Youngs Moduli (GPa) = 88.82616 70.22387 141.07053
#
# Poissons Ratio (x) = 0.22847 0.32420
# Poissons Ratio (y) = 0.28899 0.42211
# Poissons Ratio (z) = 0.20413 0.21013
#
# Static dielectric constant tensor:
#      x y z
#    x 3.644140 0.000070 0.000110 
#    y 0.000070 3.439760 -0.000100 
#    z 0.000110 -0.000100 3.929730 
# 
# 
# High freq. dielectric constant tensor:
#      x y z
#    x 1.778650 0.000010 0.000010 
#    y 0.000010 1.756280 -0.000010 
#    z 0.000010 -0.000010 1.799920 
# 
# From -- ./inp_files/5758.got.cif
#   From: 2010.03.12/outbox.cif.g09.slc.cpg/sg69_3_cif.got.tgz:5758.got - 2010.04.10 23:52:46.
