data_PCOD8285876
_publ_section_title
;
Structure prediction by ZEFSAII (Michael W. Deem and Ramdas Pophale) SiO2 
 PCOD8285876
Probable space group: F D D D
;
_chemical_formula_sum "Si O2"
_cell_formula_units_Z 208
_cell_length_a 17.240864
_cell_length_b 32.779172
_cell_length_c 20.301326
_cell_angle_alpha 90.000000
_cell_angle_beta 90.000000
_cell_angle_gamma 90.000000
_cell_volume 11473.116681
_symmetry_space_group_name_H-M "F D D D"
_symmetry_group_IT_number 70
_space_group.IT_coordinate_system_code '2'
_symmetry_cell_setting 'orthorhombic'
loop_
_space_group_symop_operation_xyz
x,y,z
1/4-x,1/4-y,z
x,1/4-y,1/4-z
1/4-x,y,1/4-z
-x,-y,-z
3/4+x,3/4+y,-z
-x,3/4+y,3/4+z
3/4+x,-y,3/4+z
x,1/2+y,1/2+z
1/4-x,3/4-y,1/2+z
x,3/4-y,3/4-z
1/4-x,1/2+y,3/4-z
-x,1/2-y,1/2-z
3/4+x,1/4+y,1/2-z
-x,1/4+y,1/4+z
3/4+x,1/2-y,1/4+z
1/2+x,y,1/2+z
3/4-x,1/4-y,1/2+z
1/2+x,1/4-y,3/4-z
3/4-x,y,3/4-z
1/2-x,-y,1/2-z
1/4+x,3/4+y,1/2-z
1/2-x,3/4+y,1/4+z
1/4+x,-y,1/4+z
1/2+x,1/2+y,z
3/4-x,3/4-y,z
1/2+x,3/4-y,1/4-z
3/4-x,1/2+y,1/4-z
1/2-x,1/2-y,-z
1/4+x,1/4+y,-z
1/2-x,1/4+y,3/4+z
1/4+x,1/2-y,3/4+z
loop_
_atom_site_type_symbol
_atom_site_label
_atom_site_fract_x
_atom_site_fract_y
_atom_site_fract_z
Si Si1 0.375000 0.875000 0.737038
Si Si2 0.039632 0.171681 0.143959
Si Si3 0.531510 0.858430 0.802398
Si Si4 0.869011 0.539356 0.102515
Si Si5 0.081998 0.309866 0.997548
Si Si6 0.253500 0.204899 0.972448
Si Si7 0.937443 0.795674 0.579755
O O1 0.441419 0.855218 0.783062
O O2 0.351497 0.837755 0.690895
O O3 0.030761 0.125000 0.125000
O O4 0.125000 0.188911 0.125000
O O5 0.970976 0.196295 0.107177
O O6 0.030926 0.174472 0.222711
O O7 0.539078 0.875000 0.875000
O O8 0.579707 0.815999 0.800860
O O9 0.569978 0.891355 0.754067
O O10 0.907682 0.540595 0.174848
O O11 0.869621 0.493345 0.073863
O O12 0.157035 0.304356 0.042604
O O13 0.011005 0.287145 0.032925
O O14 0.207131 0.199265 0.906008
O O15 0.250000 0.250000 0.000000
#
# Coordination Sequence:
#
# PCOD8285876 Si02
#       7
#    16  32  32  32  32  32  32
#     4  10  23  38  54  84 111 148 186 226 296 328
#     4  10  21  34  53  84 116 145 186 232 279 333
#     4   9  18  37  62  80 107 139 189 239 275 334
#     4  10  19  34  58  82 106 147 189 233 274 332
#     4   9  19  35  54  80 108 145 183 225 283 329
#     4  11  20  34  55  81 111 147 191 227 274 337
#     4  11  22  35  55  80 114 147 181 234 280 339
#
# _framework density 18.129337
#
# number of rings (size 3 to 8) (size 9 to 14) (size 15 to 20)
#    0.000    2.000    3.077    3.000    2.154    1.846 
#    0.000    1.538    0.000    0.000    0.000    0.000 
#    0.000    0.000    0.000    0.000    0.000    0.000 
#
# Total GULP energy -644576.299582 kJ/mol
# GULP energy per Si atom -12395.698069 kJ/mol
# Density = 1.808807 g / cm^3
# Si number density = 18.129337 Si / 1000 Ang^3
#
#
#
# Elastic Constant Matrix: (Units=GPa)
#
#
# Indices 1 2 3 4 5 6 
#
# 1 113.0846 48.0155 22.6760 0.0000 0.0000 0.0000
# 2 48.0155 108.2090 30.8743 0.0000 0.0000 0.0000
# 3 22.6760 30.8743 32.0542 0.0000 0.0000 0.0000
# 4 0.0000 0.0000 0.0000 26.6161 0.0000 0.0000
# 5 0.0000 0.0000 0.0000 0.0000 28.1191 0.0000
# 6 0.0000 0.0000 0.0000 0.0000 0.0000 29.2384
#
#
#
# Elastic Compliance Matrix: (Units=1/GPa)
#
#
# Indices 1 2 3 4 5 6 
#
# 1 0.011323 -0.003777 -0.004373 0.000000 0.000000 0.000000
# 2 -0.003777 0.014003 -0.010816 0.000000 0.000000 0.000000
# 3 -0.004373 -0.010816 0.044708 0.000000 0.000000 0.000000
# 4 0.000000 0.000000 0.000000 0.037571 0.000000 0.000000
# 5 0.000000 0.000000 0.000000 0.000000 0.035563 0.000000
# 6 0.000000 0.000000 0.000000 0.000000 0.000000 0.034202
#
#
# Mechanical properties :
#
#
# Convention : Reuss Voigt Hill
#
# Bulk Modulus (GPa) = 31.14873 50.71994 40.93433
# Shear Modulus (GPa) = 22.12358 26.91352 24.51855
#
# Velocity S-wave (km/s) = 3.49710 3.85714 3.68152
# Velocity P-wave (km/s) = 5.79007 6.91911 6.37962
#
# Compressibility (1/GPa) = 0.03210404
#
# Stress axis : x y z
#
# Youngs Moduli (GPa) = 88.31255 71.41166 22.36724
#
# Poissons Ratio (x) = 0.26972 0.09780
# Poissons Ratio (y) = 0.33355 0.24192
# Poissons Ratio (z) = 0.38616 0.77238
#
# Static dielectric constant tensor:
#      x y z
#    x 3.550240 0.000000 0.000000 
#    y 0.000000 3.475400 0.000000 
#    z 0.000000 0.000000 3.684280 
# 
# 
# High freq. dielectric constant tensor:
#      x y z
#    x 1.707810 0.000000 0.000000 
#    y 0.000000 1.702060 0.000000 
#    z 0.000000 0.000000 1.688180 
# 
# From -- ./inp_files/44092.got.cif
#   From: 2010.03.12/outbox.cif.g09.slc.cpg/sg70_23_cif.got.tgz:44092.got - 2010.04.16 13:46:32.
