data_PCOD8285115
_publ_section_title
;
Structure prediction by ZEFSAII (Michael W. Deem and Ramdas Pophale) SiO2 
 PCOD8285115
Probable space group: F M M M
;
_chemical_formula_sum "Si O2"
_cell_formula_units_Z 160
_cell_length_a 17.267937
_cell_length_b 22.782746
_cell_length_c 19.508862
_cell_angle_alpha 90.000000
_cell_angle_beta 90.000000
_cell_angle_gamma 90.000000
_cell_volume 7675.001349
_symmetry_space_group_name_H-M "F M M M"
_symmetry_group_IT_number 69
_symmetry_cell_setting 'orthorhombic'
loop_
_space_group_symop_operation_xyz
x,y,z
-x,-y,z
x,-y,-z
-x,y,-z
-x,-y,-z
x,y,-z
-x,y,z
x,-y,z
x,1/2+y,1/2+z
-x,1/2-y,1/2+z
x,1/2-y,1/2-z
-x,1/2+y,1/2-z
-x,1/2-y,1/2-z
x,1/2+y,1/2-z
-x,1/2+y,1/2+z
x,1/2-y,1/2+z
1/2+x,y,1/2+z
1/2-x,-y,1/2+z
1/2+x,-y,1/2-z
1/2-x,y,1/2-z
1/2-x,-y,1/2-z
1/2+x,y,1/2-z
1/2-x,y,1/2+z
1/2+x,-y,1/2+z
1/2+x,1/2+y,z
1/2-x,1/2-y,z
1/2+x,1/2-y,-z
1/2-x,1/2+y,-z
1/2-x,1/2-y,-z
1/2+x,1/2+y,-z
1/2-x,1/2+y,z
1/2+x,1/2-y,z
loop_
_atom_site_type_symbol
_atom_site_label
_atom_site_fract_x
_atom_site_fract_y
_atom_site_fract_z
Si Si1 0.587597 0.816007 0.500000
Si Si2 0.587955 0.618305 0.273477
Si Si3 0.145709 0.881790 0.129984
Si Si4 0.179266 0.000000 0.696304
Si Si5 0.290221 0.185962 0.852519
Si Si6 0.676390 0.291659 0.500000
Si Si7 0.295078 0.500000 0.079369
O O1 0.500000 0.837106 0.500000
O O2 0.628093 0.837209 0.569057
O O3 0.596920 0.745891 0.500000
O O4 0.500000 0.622236 0.301251
O O5 0.583268 0.621466 0.190687
O O6 0.625956 0.556956 0.295404
O O7 0.636832 0.674213 0.302593
O O8 0.227124 0.863620 0.164668
O O9 0.149948 0.945937 0.098132
O O10 0.250000 0.000000 0.750000
O O11 0.214451 0.000000 0.620118
O O12 0.250000 0.250000 0.841979
O O13 0.319751 0.171574 0.929969
O O14 0.750000 0.250000 0.500000
O O15 0.272812 0.500000 0.000000
#
# Coordination Sequence:
#
# PCOD8285115 Si02
#       7
#    16  32  32  16  32  16  16
#     4  12  24  41  65  96 133 169 209 276 339 374
#     4  12  26  42  65 101 137 171 216 279 335 382
#     4  12  22  43  66  95 131 174 218 259 321 403
#     4  12  21  44  73  93 129 178 221 260 322 404
#     4  11  22  42  71  94 127 173 230 264 314 397
#     4  10  20  42  66  92 121 174 224 260 314 394
#     4  12  24  38  73 103 120 163 224 267 307 388
#
# _framework density 20.846900999999999
#
# number of rings (size 3 to 8) (size 9 to 14) (size 15 to 20)
#    0.000    0.400    9.000    1.500    0.000    2.400 
#    0.000    3.000    0.000    0.600    0.000    0.000 
#    0.000    0.000    0.000    0.000    0.000    0.000 
#
# Total GULP energy -495945.894850 kJ/mol
# GULP energy per Si atom -12398.647371 kJ/mol
# Density = 2.079945 g / cm^3
# Si number density = 20.846901 Si / 1000 Ang^3
#
#
#
# Elastic Constant Matrix: (Units=GPa)
#
#
# Indices 1 2 3 4 5 6 
#
# 1 127.4205 36.1452 39.2311 0.0000 0.0000 0.0000
# 2 36.1452 88.2867 20.8878 0.0000 0.0000 0.0000
# 3 39.2311 20.8878 136.7352 0.0000 0.0000 0.0000
# 4 0.0000 0.0000 0.0000 30.1361 0.0000 0.0000
# 5 0.0000 0.0000 0.0000 0.0000 23.8455 0.0000
# 6 0.0000 0.0000 0.0000 0.0000 0.0000 27.0988
#
#
#
# Elastic Compliance Matrix: (Units=1/GPa)
#
#
# Indices 1 2 3 4 5 6 
#
# 1 0.009480 -0.003359 -0.002207 0.000000 0.000000 0.000000
# 2 -0.003359 0.012942 -0.001013 0.000000 0.000000 0.000000
# 3 -0.002207 -0.001013 0.008101 0.000000 0.000000 0.000000
# 4 0.000000 0.000000 0.000000 0.033183 0.000000 0.000000
# 5 0.000000 0.000000 0.000000 0.000000 0.041937 0.000000
# 6 0.000000 0.000000 0.000000 0.000000 0.000000 0.036902
#
#
# Mechanical properties :
#
#
# Convention : Reuss Voigt Hill
#
# Bulk Modulus (GPa) = 57.58737 60.55226 59.06982
# Shear Modulus (GPa) = 30.96132 33.29463 32.12798
#
# Velocity S-wave (km/s) = 3.85798 4.00071 3.92999
# Velocity P-wave (km/s) = 6.89415 7.10283 6.99926
#
# Compressibility (1/GPa) = 0.01736492
#
# Stress axis : x y z
#
# Youngs Moduli (GPa) = 105.48072 77.26939 123.43597
#
# Poissons Ratio (x) = 0.25956 0.27241
# Poissons Ratio (y) = 0.35433 0.12506
# Poissons Ratio (z) = 0.23278 0.07829
#
# Static dielectric constant tensor:
#      x y z
#    x 3.743070 0.000000 0.000000 
#    y 0.000000 3.809190 0.000000 
#    z 0.000000 0.000000 4.102060 
# 
# 
# High freq. dielectric constant tensor:
#      x y z
#    x 1.798640 0.000000 0.000000 
#    y 0.000000 1.813240 0.000000 
#    z 0.000000 0.000000 1.831550 
# 
# From -- ./inp_files/31074.got.cif
#   From: 2010.03.12/outbox.cif.g09.slc.cpg/sg69_16_cif.got.tgz:31074.got - 2010.04.10 23:52:46.
