data_PCOD8285996
_publ_section_title
;
Structure prediction by ZEFSAII (Michael W. Deem and Ramdas Pophale) SiO2 
 PCOD8285996
Probable space group: F D D D
;
_chemical_formula_sum "Si O2"
_cell_formula_units_Z 160
_cell_length_a 9.907839
_cell_length_b 30.179470
_cell_length_c 30.074151
_cell_angle_alpha 90.000000
_cell_angle_beta 90.000000
_cell_angle_gamma 90.000000
_cell_volume 8992.572033
_symmetry_space_group_name_H-M "F D D D"
_symmetry_group_IT_number 70
_space_group.IT_coordinate_system_code '2'
_symmetry_cell_setting 'orthorhombic'
loop_
_space_group_symop_operation_xyz
x,y,z
1/4-x,1/4-y,z
x,1/4-y,1/4-z
1/4-x,y,1/4-z
-x,-y,-z
3/4+x,3/4+y,-z
-x,3/4+y,3/4+z
3/4+x,-y,3/4+z
x,1/2+y,1/2+z
1/4-x,3/4-y,1/2+z
x,3/4-y,3/4-z
1/4-x,1/2+y,3/4-z
-x,1/2-y,1/2-z
3/4+x,1/4+y,1/2-z
-x,1/4+y,1/4+z
3/4+x,1/2-y,1/4+z
1/2+x,y,1/2+z
3/4-x,1/4-y,1/2+z
1/2+x,1/4-y,3/4-z
3/4-x,y,3/4-z
1/2-x,-y,1/2-z
1/4+x,3/4+y,1/2-z
1/2-x,3/4+y,1/4+z
1/4+x,-y,1/4+z
1/2+x,1/2+y,z
3/4-x,3/4-y,z
1/2+x,3/4-y,1/4-z
3/4-x,1/2+y,1/4-z
1/2-x,1/2-y,-z
1/4+x,1/4+y,-z
1/2-x,1/4+y,3/4+z
1/4+x,1/2-y,3/4+z
loop_
_atom_site_type_symbol
_atom_site_label
_atom_site_fract_x
_atom_site_fract_y
_atom_site_fract_z
Si Si1 0.592703 0.675629 0.674744
Si Si2 0.291500 0.056521 0.050723
Si Si3 0.625000 0.245672 0.625000
Si Si4 0.252460 0.206067 0.949646
Si Si5 0.525651 0.483408 0.260508
Si Si6 0.125000 0.625000 0.755423
O O1 0.625000 0.625000 0.684140
O O2 0.625000 0.690751 0.625000
O O3 0.433743 0.680847 0.679291
O O4 0.681249 0.704744 0.707955
O O5 0.194741 0.036743 0.089045
O O6 0.225742 0.099660 0.027872
O O7 0.318209 0.020169 0.012590
O O8 0.728653 0.280098 0.601765
O O9 0.150313 0.243986 0.964882
O O10 0.400217 0.204648 0.972740
O O11 0.195475 0.157651 0.959494
#
# Coordination Sequence:
#
# PCOD8285996 Si02
#       6
#    32  32  16  32  32  16
#     4  11  22  32  49  78 114 139 169 223 273 321
#     4  10  21  35  57  79 104 143 180 229 270 328
#     4  10  20  35  58  80 106 140 184 226 267 328
#     4   9  18  34  58  76 104 141 178 226 266 327
#     4   9  18  35  54  75 102 142 181 212 271 332
#     4  10  20  35  58  80 106 140 184 226 267 328
#
# _framework density 17.792462
#
# number of rings (size 3 to 8) (size 9 to 14) (size 15 to 20)
#    0.000    2.200    0.000    4.200    0.000    3.600 
#    0.000    0.000   35.200    0.000    0.000    0.000 
#    0.000    0.000    0.000    0.000    0.000    0.000 
#
# Total GULP energy -495620.854681 kJ/mol
# GULP energy per Si atom -12390.521367 kJ/mol
# Density = 1.775197 g / cm^3
# Si number density = 17.792462 Si / 1000 Ang^3
#
#
#
# Elastic Constant Matrix: (Units=GPa)
#
#
# Indices 1 2 3 4 5 6 
#
# 1 91.5508 36.1694 23.6867 0.0000 0.0000 0.0000
# 2 36.1694 76.6091 30.8027 0.0000 0.0000 0.0000
# 3 23.6867 30.8027 68.8100 0.0000 0.0000 0.0000
# 4 0.0000 0.0000 0.0000 21.7353 0.0000 0.0000
# 5 0.0000 0.0000 0.0000 0.0000 226.5489 0.0000
# 6 0.0000 0.0000 0.0000 0.0000 0.0000 8.0129
#
#
#
# Elastic Compliance Matrix: (Units=1/GPa)
#
#
# Indices 1 2 3 4 5 6 
#
# 1 0.013700 -0.005576 -0.002220 0.000000 0.000000 0.000000
# 2 -0.005576 0.018187 -0.006222 0.000000 0.000000 0.000000
# 3 -0.002220 -0.006222 0.018082 0.000000 0.000000 0.000000
# 4 0.000000 0.000000 0.000000 0.046008 0.000000 0.000000
# 5 0.000000 0.000000 0.000000 0.000000 0.004414 0.000000
# 6 0.000000 0.000000 0.000000 0.000000 0.000000 0.124799
#
#
# Mechanical properties :
#
#
# Convention : Reuss Voigt Hill
#
# Bulk Modulus (GPa) = 45.59133 46.47639 46.03386
# Shear Modulus (GPa) = 19.19103 61.01349 40.10226
#
# Velocity S-wave (km/s) = 3.28777 5.86227 4.75267
# Velocity P-wave (km/s) = 6.33184 8.48526 7.48638
#
# Compressibility (1/GPa) = 0.02193400
#
# Stress axis : x y z
#
# Youngs Moduli (GPa) = 72.99238 54.98283 55.30232
#
# Poissons Ratio (x) = 0.30656 0.12278
# Poissons Ratio (y) = 0.40697 0.34411
# Poissons Ratio (z) = 0.16205 0.34212
#
# Static dielectric constant tensor:
#      x y z
#    x 3.299630 0.000000 0.000000 
#    y 0.000000 3.335010 0.000000 
#    z 0.000000 0.000000 3.424410 
# 
# 
# High freq. dielectric constant tensor:
#      x y z
#    x 1.691600 0.000000 0.000000 
#    y 0.000000 1.689520 0.000000 
#    z 0.000000 0.000000 1.691100 
# 
# From -- ./inp_files/12346.got.cif
#   From: 2010.03.12/outbox.cif.g09.slc.cpg/sg70_7_cif.got.tgz:12346.got - 2010.04.16 13:46:32.
