data_PCOD8285525
_publ_section_title
;
Structure prediction by ZEFSAII (Michael W. Deem and Ramdas Pophale) SiO2 
 PCOD8285525
Probable space group: F M M M
;
_chemical_formula_sum "Si O2"
_cell_formula_units_Z 192
_cell_length_a 23.127843
_cell_length_b 17.499611
_cell_length_c 26.105338
_cell_angle_alpha 90.000000
_cell_angle_beta 90.000000
_cell_angle_gamma 90.000000
_cell_volume 10565.567915
_symmetry_space_group_name_H-M "F M M M"
_symmetry_group_IT_number 69
_symmetry_cell_setting 'orthorhombic'
loop_
_space_group_symop_operation_xyz
x,y,z
-x,-y,z
x,-y,-z
-x,y,-z
-x,-y,-z
x,y,-z
-x,y,z
x,-y,z
x,1/2+y,1/2+z
-x,1/2-y,1/2+z
x,1/2-y,1/2-z
-x,1/2+y,1/2-z
-x,1/2-y,1/2-z
x,1/2+y,1/2-z
-x,1/2+y,1/2+z
x,1/2-y,1/2+z
1/2+x,y,1/2+z
1/2-x,-y,1/2+z
1/2+x,-y,1/2-z
1/2-x,y,1/2-z
1/2-x,-y,1/2-z
1/2+x,y,1/2-z
1/2-x,y,1/2+z
1/2+x,-y,1/2+z
1/2+x,1/2+y,z
1/2-x,1/2-y,z
1/2+x,1/2-y,-z
1/2-x,1/2+y,-z
1/2-x,1/2-y,-z
1/2+x,1/2+y,-z
1/2-x,1/2+y,z
1/2+x,1/2-y,z
loop_
_atom_site_type_symbol
_atom_site_label
_atom_site_fract_x
_atom_site_fract_y
_atom_site_fract_z
Si Si1 0.875757 0.090669 0.182940
Si Si2 0.733368 0.337848 0.854176
Si Si3 0.596224 0.916026 0.127405
Si Si4 0.000000 0.351777 0.701809
Si Si5 0.815126 0.583568 0.216652
Si Si6 0.193864 0.089698 0.557461
Si Si7 0.000000 0.826682 0.318415
O O1 0.835208 0.140584 0.144426
O O2 0.943291 0.110983 0.176172
O O3 0.856312 0.119178 0.239663
O O4 0.867745 0.000000 0.173557
O O5 0.750000 0.250000 0.852583
O O6 0.756505 0.372009 0.799467
O O7 0.759764 0.370438 0.906120
O O8 0.650176 0.921234 0.164600
O O9 0.626768 0.893287 0.073715
O O10 0.554192 0.850627 0.147165
O O11 0.565555 0.000000 0.124352
O O12 0.000000 0.262860 0.689576
O O13 0.000000 0.368350 0.763085
O O14 0.796140 0.500000 0.235295
O O15 0.202132 0.121364 0.500000
O O16 0.205753 0.000000 0.560173
#
# Coordination Sequence:
#
# PCOD8285525 Si02
#       7
#    32  32  32  16  32  32  16
#     4  11  22  37  53  76 111 154 200 231 263 321
#     4  11  23  33  55  82 113 141 175 230 290 340
#     4   9  17  31  54  78 105 144 179 217 270 331
#     4  11  25  33  51  77 115 161 193 229 264 303
#     4   9  18  33  52  74 106 144 184 222 266 324
#     4   9  19  38  60  82 107 135 175 229 289 352
#     4  11  21  33  50  76 115 146 191 225 269 323
#
# _framework density 18.172236999999999
#
# number of rings (size 3 to 8) (size 9 to 14) (size 15 to 20)
#    0.000    2.000    1.667    3.500    4.667    3.667 
#    0.000    0.417    0.000    2.000    0.000    0.583 
#    0.000    2.667    0.000    0.000    0.000    0.000 
#
# Total GULP energy -594792.662136 kJ/mol
# GULP energy per Si atom -12391.513795 kJ/mol
# Density = 1.813088 g / cm^3
# Si number density = 18.172237 Si / 1000 Ang^3
#
#
#
# Elastic Constant Matrix: (Units=GPa)
#
#
# Indices 1 2 3 4 5 6 
#
# 1 134.2926 49.8124 41.4879 0.0000 0.0000 0.0000
# 2 49.8124 83.9909 33.5796 0.0000 0.0000 0.0000
# 3 41.4879 33.5796 80.5768 0.0000 0.0000 0.0000
# 4 0.0000 0.0000 0.0000 11.9340 0.0000 0.0000
# 5 0.0000 0.0000 0.0000 0.0000 20.1548 0.0000
# 6 0.0000 0.0000 0.0000 0.0000 0.0000 26.7344
#
#
#
# Elastic Compliance Matrix: (Units=1/GPa)
#
#
# Indices 1 2 3 4 5 6 
#
# 1 0.010223 -0.004750 -0.003284 0.000000 0.000000 0.000000
# 2 -0.004750 0.016493 -0.004428 0.000000 0.000000 0.000000
# 3 -0.003284 -0.004428 0.015947 0.000000 0.000000 0.000000
# 4 0.000000 0.000000 0.000000 0.083794 0.000000 0.000000
# 5 0.000000 0.000000 0.000000 0.000000 0.049616 0.000000
# 6 0.000000 0.000000 0.000000 0.000000 0.000000 0.037405
#
#
# Mechanical properties :
#
#
# Convention : Reuss Voigt Hill
#
# Bulk Modulus (GPa) = 56.37208 60.95779 58.66493
# Shear Modulus (GPa) = 20.46540 23.36332 21.91436
#
# Velocity S-wave (km/s) = 3.35952 3.58950 3.47641
# Velocity P-wave (km/s) = 6.79241 7.12718 6.96180
#
# Compressibility (1/GPa) = 0.01773928
#
# Stress axis : x y z
#
# Youngs Moduli (GPa) = 97.81999 60.63081 62.70881
#
# Poissons Ratio (x) = 0.28799 0.20595
# Poissons Ratio (y) = 0.46463 0.27766
# Poissons Ratio (z) = 0.32126 0.26846
#
# Static dielectric constant tensor:
#      x y z
#    x 3.446670 0.000000 0.000000 
#    y 0.000000 3.300100 0.000000 
#    z 0.000000 0.000000 3.310770 
# 
# 
# High freq. dielectric constant tensor:
#      x y z
#    x 1.708740 0.000000 0.000000 
#    y 0.000000 1.695140 0.000000 
#    z 0.000000 0.000000 1.675230 
# 
# From -- ./inp_files/43212.got.cif
#   From: 2010.03.12/outbox.cif.g09.slc.cpg/sg69_22_cif.got.tgz:43212.got - 2010.04.10 23:52:46.
