data_PCOD8285824
_publ_section_title
;
Structure prediction by ZEFSAII (Michael W. Deem and Ramdas Pophale) SiO2 
 PCOD8285824
Probable space group: F D D D
;
_chemical_formula_sum "Si O2"
_cell_formula_units_Z 216
_cell_length_a 12.925928
_cell_length_b 26.298200
_cell_length_c 29.888296
_cell_angle_alpha 90.000000
_cell_angle_beta 90.000000
_cell_angle_gamma 90.000000
_cell_volume 10159.887803
_symmetry_space_group_name_H-M "F D D D"
_symmetry_group_IT_number 70
_space_group.IT_coordinate_system_code '2'
_symmetry_cell_setting 'orthorhombic'
loop_
_space_group_symop_operation_xyz
x,y,z
1/4-x,1/4-y,z
x,1/4-y,1/4-z
1/4-x,y,1/4-z
-x,-y,-z
3/4+x,3/4+y,-z
-x,3/4+y,3/4+z
3/4+x,-y,3/4+z
x,1/2+y,1/2+z
1/4-x,3/4-y,1/2+z
x,3/4-y,3/4-z
1/4-x,1/2+y,3/4-z
-x,1/2-y,1/2-z
3/4+x,1/4+y,1/2-z
-x,1/4+y,1/4+z
3/4+x,1/2-y,1/4+z
1/2+x,y,1/2+z
3/4-x,1/4-y,1/2+z
1/2+x,1/4-y,3/4-z
3/4-x,y,3/4-z
1/2-x,-y,1/2-z
1/4+x,3/4+y,1/2-z
1/2-x,3/4+y,1/4+z
1/4+x,-y,1/4+z
1/2+x,1/2+y,z
3/4-x,3/4-y,z
1/2+x,3/4-y,1/4-z
3/4-x,1/2+y,1/4-z
1/2-x,1/2-y,-z
1/4+x,1/4+y,-z
1/2-x,1/4+y,3/4+z
1/4+x,1/2-y,3/4+z
loop_
_atom_site_type_symbol
_atom_site_label
_atom_site_fract_x
_atom_site_fract_y
_atom_site_fract_z
Si Si1 0.375000 0.699894 0.875000
Si Si2 0.484686 0.384319 0.091632
Si Si3 0.137227 0.849619 0.735212
Si Si4 0.582180 0.785541 0.723769
Si Si5 0.252490 0.235771 0.872265
Si Si6 0.724242 0.243736 0.723177
Si Si7 0.625000 0.125000 0.625000
Si Si8 0.983617 0.306352 0.304779
O O1 0.475802 0.667074 0.886135
O O2 0.410776 0.729791 0.829479
O O3 0.375000 0.375000 0.067418
O O4 0.567806 0.407541 0.058405
O O5 0.468063 0.426866 0.130036
O O6 0.194334 0.904722 0.733182
O O7 0.219014 0.803833 0.734520
O O8 0.061937 0.841385 0.777299
O O9 0.500000 0.750000 0.750000
O O10 0.699590 0.781110 0.741169
O O11 0.375000 0.241056 0.875000
O O12 0.221259 0.262706 0.825581
O O13 0.205883 0.261606 0.917664
O O14 0.610497 0.216934 0.725524
O O15 0.695901 0.091456 0.655815
#
# Coordination Sequence:
#
# PCOD8285824 Si02
#       8
#    16  32  32  32  32  32   8  32
#     4  10  24  47  62  97 132 165 235 290 320 398
#     4  11  22  36  66  97 128 169 213 279 337 393
#     4  11  24  41  65  99 135 167 225 274 338 404
#     4  11  27  47  68  96 129 178 235 284 335 395
#     4  10  18  38  57  90 132 163 206 249 316 401
#     4  11  22  43  67  91 134 173 213 276 329 401
#     4  12  20  34  52  88 144 178 190 248 320 410
#     4  11  22  35  61  97 136 173 201 254 331 408
#
# _framework density 21.260076999999999
#
# number of rings (size 3 to 8) (size 9 to 14) (size 15 to 20)
#    0.000    1.185    5.926    2.222    7.259    0.593 
#    0.000    0.000    0.000    0.889    0.000    0.000 
#    0.000    0.000    0.000    0.000    0.000    0.000 
#
# Total GULP energy -669022.431299 kJ/mol
# GULP energy per Si atom -12389.304283 kJ/mol
# Density = 2.121169 g / cm^3
# Si number density = 21.260077 Si / 1000 Ang^3
#
#
#
# Elastic Constant Matrix: (Units=GPa)
#
#
# Indices 1 2 3 4 5 6 
#
# 1 52.0473 18.1327 23.6339 0.0000 0.0000 0.0000
# 2 18.1327 91.2104 26.5616 0.0000 0.0000 0.0000
# 3 23.6339 26.5616 126.1364 0.0000 0.0000 0.0000
# 4 0.0000 0.0000 0.0000 30.4676 0.0000 0.0000
# 5 0.0000 0.0000 0.0000 0.0000 25.3082 0.0000
# 6 0.0000 0.0000 0.0000 0.0000 0.0000 26.0182
#
#
#
# Elastic Compliance Matrix: (Units=1/GPa)
#
#
# Indices 1 2 3 4 5 6 
#
# 1 0.021931 -0.003370 -0.003400 0.000000 0.000000 0.000000
# 2 -0.003370 0.012198 -0.001937 0.000000 0.000000 0.000000
# 3 -0.003400 -0.001937 0.008973 0.000000 0.000000 0.000000
# 4 0.000000 0.000000 0.000000 0.032822 0.000000 0.000000
# 5 0.000000 0.000000 0.000000 0.000000 0.039513 0.000000
# 6 0.000000 0.000000 0.000000 0.000000 0.000000 0.038435
#
#
# Mechanical properties :
#
#
# Convention : Reuss Voigt Hill
#
# Bulk Modulus (GPa) = 38.92821 45.11673 42.02247
# Shear Modulus (GPa) = 27.80144 29.76320 28.78232
#
# Velocity S-wave (km/s) = 3.62011 3.74566 3.68342
# Velocity P-wave (km/s) = 5.98530 6.32250 6.15621
#
# Compressibility (1/GPa) = 0.02568831
#
# Stress axis : x y z
#
# Youngs Moduli (GPa) = 45.59757 81.98243 111.44777
#
# Poissons Ratio (x) = 0.27627 0.37887
# Poissons Ratio (y) = 0.15366 0.21589
# Poissons Ratio (z) = 0.15501 0.15881
#
# Static dielectric constant tensor:
#      x y z
#    x 3.455710 0.000000 0.000000 
#    y 0.000000 3.930650 0.000000 
#    z 0.000000 0.000000 4.923230 
# 
# 
# High freq. dielectric constant tensor:
#      x y z
#    x 1.791620 0.000000 0.000000 
#    y 0.000000 1.836300 0.000000 
#    z 0.000000 0.000000 1.845120 
# 
# From -- ./inp_files/66061.got.cif
#   From: 2010.03.12/outbox.cif.g09.slc.cpg/sg70_34_cif.got.tgz:66061.got - 2010.04.16 13:46:32.
