data_PCOD8285703
_publ_section_title
;
Structure prediction by ZEFSAII (Michael W. Deem and Ramdas Pophale) SiO2 
 PCOD8285703
Probable space group: F M M M
;
_chemical_formula_sum "Si O2"
_cell_formula_units_Z 96
_cell_length_a 30.382308
_cell_length_b 19.812636
_cell_length_c 9.265261
_cell_angle_alpha 90.000000
_cell_angle_beta 90.000000
_cell_angle_gamma 90.000000
_cell_volume 5577.257300
_symmetry_space_group_name_H-M "F M M M"
_symmetry_group_IT_number 69
_symmetry_cell_setting 'orthorhombic'
loop_
_space_group_symop_operation_xyz
x,y,z
-x,-y,z
x,-y,-z
-x,y,-z
-x,-y,-z
x,y,-z
-x,y,z
x,-y,z
x,1/2+y,1/2+z
-x,1/2-y,1/2+z
x,1/2-y,1/2-z
-x,1/2+y,1/2-z
-x,1/2-y,1/2-z
x,1/2+y,1/2-z
-x,1/2+y,1/2+z
x,1/2-y,1/2+z
1/2+x,y,1/2+z
1/2-x,-y,1/2+z
1/2+x,-y,1/2-z
1/2-x,y,1/2-z
1/2-x,-y,1/2-z
1/2+x,y,1/2-z
1/2-x,y,1/2+z
1/2+x,-y,1/2+z
1/2+x,1/2+y,z
1/2-x,1/2-y,z
1/2+x,1/2-y,-z
1/2-x,1/2+y,-z
1/2-x,1/2-y,-z
1/2+x,1/2+y,-z
1/2-x,1/2+y,z
1/2+x,1/2-y,z
loop_
_atom_site_type_symbol
_atom_site_label
_atom_site_fract_x
_atom_site_fract_y
_atom_site_fract_z
Si Si1 0.549945 0.183623 0.831709
Si Si2 0.877425 0.922517 0.332126
Si Si3 0.708208 0.080340 0.663062
O O1 0.500000 0.165674 0.786456
O O2 0.566835 0.250000 0.750000
O O3 0.579983 0.120411 0.787311
O O4 0.553465 0.199132 0.000000
O O5 0.865538 0.914251 0.500000
O O6 0.836134 0.895070 0.241283
O O7 0.888229 0.000000 0.294463
O O8 0.709089 0.108589 0.500000
O O9 0.750000 0.109716 0.750000
O O10 0.710157 0.000000 0.663098
#
# Coordination Sequence:
#
# PCOD8285703 Si02
#       3
#    32  32  32
#     4   9  18  32  49  68  91 122 157 190 227 273
#     4   9  17  29  46  69  95 121 152 191 231 269
#     4   9  16  26  42  65  93 123 153 185 224 271
#
# _framework density 17.212759999999999
#
# number of rings (size 3 to 8) (size 9 to 14) (size 15 to 20)
#    0.000    3.000    0.000    1.000    0.000    6.000 
#    0.000    3.333    0.000    1.000    0.000   16.333 
#    0.000    0.000    0.000    0.000    0.000    0.000 
#
# Total GULP energy -297597.564166 kJ/mol
# GULP energy per Si atom -12399.898507 kJ/mol
# Density = 1.717358 g / cm^3
# Si number density = 17.212760 Si / 1000 Ang^3
#
#
#
# Elastic Constant Matrix: (Units=GPa)
#
#
# Indices 1 2 3 4 5 6 
#
# 1 136.8187 64.4739 67.0524 0.0000 0.0000 0.0000
# 2 64.4739 67.7571 39.3084 -0.0002 0.0000 0.0000
# 3 67.0524 39.3084 84.8508 -0.0005 0.0000 0.0000
# 4 0.0000 -0.0002 -0.0005 20.9097 0.0000 0.0000
# 5 0.0000 0.0000 0.0000 0.0000 31.0576 0.0000
# 6 0.0000 0.0000 0.0000 0.0000 0.0000 6.1974
#
#
#
# Elastic Compliance Matrix: (Units=1/GPa)
#
#
# Indices 1 2 3 4 5 6 
#
# 1 0.016313 -0.011000 -0.007795 0.000000 0.000000 0.000000
# 2 -0.011000 0.027601 -0.004094 0.000000 0.000000 0.000000
# 3 -0.007795 -0.004094 0.019842 0.000000 0.000000 0.000000
# 4 0.000000 0.000000 0.000000 0.047825 0.000000 0.000000
# 5 0.000000 0.000000 0.000000 0.000000 0.032198 0.000000
# 6 0.000000 0.000000 0.000000 0.000000 0.000000 0.161359
#
#
# Mechanical properties :
#
#
# Convention : Reuss Voigt Hill
#
# Bulk Modulus (GPa) = 55.62503 70.12178 62.87341
# Shear Modulus (GPa) = 14.00925 19.53908 16.77416
#
# Velocity S-wave (km/s) = 2.85597 3.37285 3.12512
# Velocity P-wave (km/s) = 6.57736 7.48297 7.04474
#
# Compressibility (1/GPa) = 0.01797752
#
# Stress axis : x y z
#
# Youngs Moduli (GPa) = 61.30146 36.23108 50.39874
#
# Poissons Ratio (x) = 0.39855 0.39286
# Poissons Ratio (y) = 0.67433 0.20631
# Poissons Ratio (z) = 0.47785 0.14832
#
# Static dielectric constant tensor:
#      x y z
#    x 3.363690 0.000000 0.000000 
#    y 0.000000 2.886620 0.000000 
#    z 0.000000 0.000000 3.296270 
# 
# 
# High freq. dielectric constant tensor:
#      x y z
#    x 1.672790 0.000000 0.000000 
#    y 0.000000 1.620950 0.000000 
#    z 0.000000 0.000000 1.667840 
# 
# From -- ./inp_files/2807.got.cif
#   From: 2010.03.12/outbox.cif.g09.slc.cpg/sg69_2_cif.got.tgz:2807.got - 2010.04.10 23:52:46.
