data_PCOD8285400
_publ_section_title
;
Structure prediction by ZEFSAII (Michael W. Deem and Ramdas Pophale) SiO2 
 PCOD8285400
Probable space group: F M M M
;
_chemical_formula_sum "Si O2"
_cell_formula_units_Z 160
_cell_length_a 27.038869
_cell_length_b 14.662365
_cell_length_c 20.237840
_cell_angle_alpha 90.000000
_cell_angle_beta 90.000000
_cell_angle_gamma 90.000000
_cell_volume 8023.367893
_symmetry_space_group_name_H-M "F M M M"
_symmetry_group_IT_number 69
_symmetry_cell_setting 'orthorhombic'
loop_
_space_group_symop_operation_xyz
x,y,z
-x,-y,z
x,-y,-z
-x,y,-z
-x,-y,-z
x,y,-z
-x,y,z
x,-y,z
x,1/2+y,1/2+z
-x,1/2-y,1/2+z
x,1/2-y,1/2-z
-x,1/2+y,1/2-z
-x,1/2-y,1/2-z
x,1/2+y,1/2-z
-x,1/2+y,1/2+z
x,1/2-y,1/2+z
1/2+x,y,1/2+z
1/2-x,-y,1/2+z
1/2+x,-y,1/2-z
1/2-x,y,1/2-z
1/2-x,-y,1/2-z
1/2+x,y,1/2-z
1/2-x,y,1/2+z
1/2+x,-y,1/2+z
1/2+x,1/2+y,z
1/2-x,1/2-y,z
1/2+x,1/2-y,-z
1/2-x,1/2+y,-z
1/2-x,1/2-y,-z
1/2+x,1/2+y,-z
1/2-x,1/2+y,z
1/2+x,1/2-y,z
loop_
_atom_site_type_symbol
_atom_site_label
_atom_site_fract_x
_atom_site_fract_y
_atom_site_fract_z
Si Si1 0.555816 0.357635 0.249749
Si Si2 0.555752 0.194827 0.000000
Si Si3 0.885359 0.395535 0.879127
Si Si4 0.371409 0.902679 0.635754
Si Si5 0.692244 0.241387 0.173012
Si Si6 0.575573 0.900922 0.500000
O O1 0.500000 0.394042 0.247185
O O2 0.558326 0.250000 0.250000
O O3 0.580625 0.398441 0.314785
O O4 0.582396 0.389816 0.183949
O O5 0.586222 0.161378 0.064156
O O6 0.546169 0.304704 0.000000
O O7 0.500000 0.152187 0.000000
O O8 0.875236 0.500000 0.902221
O O9 0.832823 0.348361 0.859604
O O10 0.329204 0.829165 0.638630
O O11 0.389675 0.900128 0.562182
O O12 0.346699 0.000000 0.652441
O O13 0.678784 0.250000 0.250000
O O14 0.750000 0.250000 0.159642
O O15 0.545584 0.000000 0.500000
#
# Coordination Sequence:
#
# PCOD8285400 Si02
#       6
#    32  16  32  32  32  16
#     4  11  21  37  62  89 123 167 212 256 310 378
#     4  12  25  43  66  95 136 174 210 259 315 379
#     4  12  24  42  64  93 130 169 215 261 317 380
#     4  11  21  39  63  91 125 161 207 260 319 376
#     4  11  23  42  67  97 128 162 212 270 326 375
#     4  10  22  40  65  92 126 167 208 257 314 376
#
# _framework density 19.941751
#
# number of rings (size 3 to 8) (size 9 to 14) (size 15 to 20)
#    0.000    0.800    6.000    1.500    0.000    6.600 
#    0.000    6.000    0.000    2.400    0.000    0.000 
#    0.000    0.000    0.000    0.000    0.000    0.000 
#
# Total GULP energy -495721.305700 kJ/mol
# GULP energy per Si atom -12393.032643 kJ/mol
# Density = 1.989636 g / cm^3
# Si number density = 19.941751 Si / 1000 Ang^3
#
#
#
# Elastic Constant Matrix: (Units=GPa)
#
#
# Indices 1 2 3 4 5 6 
#
# 1 115.9445 47.6799 51.3268 0.0000 0.0000 0.0000
# 2 47.6799 158.9744 32.3118 0.0000 0.0000 0.0000
# 3 51.3268 32.3118 130.7491 0.0000 0.0000 0.0000
# 4 0.0000 0.0000 0.0000 34.9232 0.0000 0.0000
# 5 0.0000 0.0000 0.0000 0.0000 14.8456 0.0000
# 6 0.0000 0.0000 0.0000 0.0000 0.0000 3.8403
#
#
#
# Elastic Compliance Matrix: (Units=1/GPa)
#
#
# Indices 1 2 3 4 5 6 
#
# 1 0.011405 -0.002643 -0.003824 0.000000 0.000000 0.000000
# 2 -0.002643 0.007236 -0.000750 0.000000 0.000000 0.000000
# 3 -0.003824 -0.000750 0.009335 0.000000 0.000000 0.000000
# 4 0.000000 0.000000 0.000000 0.028634 0.000000 0.000000
# 5 0.000000 0.000000 0.000000 0.000000 0.067360 0.000000
# 6 0.000000 0.000000 0.000000 0.000000 0.000000 0.260399
#
#
# Mechanical properties :
#
#
# Convention : Reuss Voigt Hill
#
# Bulk Modulus (GPa) = 73.85572 74.25611 74.05591
# Shear Modulus (GPa) = 12.39722 29.01178 20.70450
#
# Velocity S-wave (km/s) = 2.49604 3.81836 3.22568
# Velocity P-wave (km/s) = 6.73966 7.53373 7.14773
#
# Compressibility (1/GPa) = 0.01353991
#
# Stress axis : x y z
#
# Youngs Moduli (GPa) = 87.68457 138.20485 107.12671
#
# Poissons Ratio (x) = 0.36532 0.40962
# Poissons Ratio (y) = 0.23178 0.08040
# Poissons Ratio (z) = 0.33528 0.10372
#
# Static dielectric constant tensor:
#      x y z
#    x 3.547960 0.000000 0.000000 
#    y 0.000000 4.244500 0.000000 
#    z 0.000000 0.000000 3.807730 
# 
# 
# High freq. dielectric constant tensor:
#      x y z
#    x 1.760290 0.000000 0.000000 
#    y 0.000000 1.801310 0.000000 
#    z 0.000000 0.000000 1.788470 
# 
# From -- ./inp_files/27530.got.cif
#   From: 2010.03.12/outbox.cif.g09.slc.cpg/sg69_14_cif.got.tgz:27530.got - 2010.04.10 23:52:46.
