data_PCOD8285220
_publ_section_title
;
Structure prediction by ZEFSAII (Michael W. Deem and Ramdas Pophale) SiO2 
 PCOD8285220
Probable space group: F M M M
;
_chemical_formula_sum "Si O2"
_cell_formula_units_Z 192
_cell_length_a 17.670261
_cell_length_b 29.327634
_cell_length_c 17.785579
_cell_angle_alpha 90.000000
_cell_angle_beta 90.000000
_cell_angle_gamma 90.000000
_cell_volume 9216.966311
_symmetry_space_group_name_H-M "F M M M"
_symmetry_group_IT_number 69
_symmetry_cell_setting 'orthorhombic'
loop_
_space_group_symop_operation_xyz
x,y,z
-x,-y,z
x,-y,-z
-x,y,-z
-x,-y,-z
x,y,-z
-x,y,z
x,-y,z
x,1/2+y,1/2+z
-x,1/2-y,1/2+z
x,1/2-y,1/2-z
-x,1/2+y,1/2-z
-x,1/2-y,1/2-z
x,1/2+y,1/2-z
-x,1/2+y,1/2+z
x,1/2-y,1/2+z
1/2+x,y,1/2+z
1/2-x,-y,1/2+z
1/2+x,-y,1/2-z
1/2-x,y,1/2-z
1/2-x,-y,1/2-z
1/2+x,y,1/2-z
1/2-x,y,1/2+z
1/2+x,-y,1/2+z
1/2+x,1/2+y,z
1/2-x,1/2-y,z
1/2+x,1/2-y,-z
1/2-x,1/2+y,-z
1/2-x,1/2-y,-z
1/2+x,1/2+y,-z
1/2-x,1/2+y,z
1/2+x,1/2-y,z
loop_
_atom_site_type_symbol
_atom_site_label
_atom_site_fract_x
_atom_site_fract_y
_atom_site_fract_z
Si Si1 0.414112 0.700076 0.733279
Si Si2 0.914500 0.318134 0.600035
Si Si3 0.185185 0.901587 0.083160
Si Si4 0.660117 0.253416 0.500000
Si Si5 0.837890 0.949617 0.231743
Si Si6 0.652438 0.377931 0.354658
Si Si7 0.585208 0.649605 0.500000
O O1 0.500000 0.703335 0.700168
O O2 0.381036 0.750000 0.750000
O O3 0.413786 0.673633 0.811458
O O4 0.359396 0.673293 0.676860
O O5 0.870604 0.360362 0.564740
O O6 0.874487 0.271017 0.574162
O O7 0.000000 0.317405 0.569432
O O8 0.148468 0.936093 0.144093
O O9 0.260965 0.882589 0.121612
O O10 0.200758 0.924347 0.000000
O O11 0.750000 0.250000 0.500000
O O12 0.640167 0.306795 0.500000
O O13 0.750000 0.951264 0.250000
O O14 0.874813 0.914459 0.291641
O O15 0.873578 0.000000 0.243271
O O16 0.600214 0.382771 0.428098
O O17 0.500000 0.667424 0.500000
#
# Coordination Sequence:
#
# PCOD8285220 Si02
#       7
#    32  32  32  16  32  32  16
#     4  10  21  37  58  84 119 167 219 256 301 372
#     4  11  22  37  58  85 118 165 207 254 313 370
#     4  11  21  38  63  91 125 158 209 263 318 385
#     4  12  24  40  58  89 132 169 222 267 314 364
#     4   9  20  39  66  95 124 161 206 263 328 384
#     4  11  21  40  62  90 129 166 212 267 316 374
#     4  12  24  38  61  92 130 177 213 255 314 381
#
# _framework density 20.831149
#
# number of rings (size 3 to 8) (size 9 to 14) (size 15 to 20)
#    0.000    1.333    3.333    3.250    0.000    1.667 
#    0.000    1.250    0.000    5.000    0.000    1.167 
#    0.000    0.000    0.000    0.000    0.000    0.000 
#
# Total GULP energy -594970.115165 kJ/mol
# GULP energy per Si atom -12395.210733 kJ/mol
# Density = 2.078374 g / cm^3
# Si number density = 20.831149 Si / 1000 Ang^3
#
#
#
# Elastic Constant Matrix: (Units=GPa)
#
#
# Indices 1 2 3 4 5 6 
#
# 1 94.2088 27.6101 30.3025 0.0000 0.0000 0.0000
# 2 27.6101 120.8973 60.3342 0.0000 0.0000 0.0000
# 3 30.3025 60.3342 161.9041 0.0000 0.0000 0.0000
# 4 0.0000 0.0000 0.0000 24.4229 0.0000 0.0000
# 5 0.0000 0.0000 0.0000 0.0000 20.4821 0.0000
# 6 0.0000 0.0000 0.0000 0.0000 0.0000 11.6812
#
#
#
# Elastic Compliance Matrix: (Units=1/GPa)
#
#
# Indices 1 2 3 4 5 6 
#
# 1 0.011651 -0.001932 -0.001461 0.000000 0.000000 0.000000
# 2 -0.001932 0.010482 -0.003544 0.000000 0.000000 0.000000
# 3 -0.001461 -0.003544 0.007771 0.000000 0.000000 0.000000
# 4 0.000000 0.000000 0.000000 0.040945 0.000000 0.000000
# 5 0.000000 0.000000 0.000000 0.000000 0.048823 0.000000
# 6 0.000000 0.000000 0.000000 0.000000 0.000000 0.085608
#
#
# Mechanical properties :
#
#
# Convention : Reuss Voigt Hill
#
# Bulk Modulus (GPa) = 62.38634 68.16709 65.27671
# Shear Modulus (GPa) = 22.27213 28.56813 25.42013
#
# Velocity S-wave (km/s) = 3.27337 3.70728 3.49706
# Velocity P-wave (km/s) = 6.65584 7.14982 6.90725
#
# Compressibility (1/GPa) = 0.01602915
#
# Stress axis : x y z
#
# Youngs Moduli (GPa) = 85.83172 95.40612 128.68804
#
# Poissons Ratio (x) = 0.18430 0.18797
# Poissons Ratio (y) = 0.16581 0.45612
# Poissons Ratio (z) = 0.12537 0.33816
#
# Static dielectric constant tensor:
#      x y z
#    x 3.529290 0.000000 0.000000 
#    y 0.000000 3.755620 0.000000 
#    z 0.000000 0.000000 4.188640 
# 
# 
# High freq. dielectric constant tensor:
#      x y z
#    x 1.790550 0.000000 0.000000 
#    y 0.000000 1.789460 0.000000 
#    z 0.000000 0.000000 1.845340 
# 
# From -- ./inp_files/23671.got.cif
#   From: 2010.03.12/outbox.cif.g09.slc.cpg/sg69_12_cif.got.tgz:23671.got - 2010.04.10 23:52:46.
