data_PCOD8285926
_publ_section_title
;
Structure prediction by ZEFSAII (Michael W. Deem and Ramdas Pophale) SiO2 
 PCOD8285926
Probable space group: F D D D
;
_chemical_formula_sum "Si O2"
_cell_formula_units_Z 192
_cell_length_a 20.130335
_cell_length_b 21.556054
_cell_length_c 23.262566
_cell_angle_alpha 90.000000
_cell_angle_beta 90.000000
_cell_angle_gamma 90.000000
_cell_volume 10094.338950
_symmetry_space_group_name_H-M "F D D D"
_symmetry_group_IT_number 70
_space_group.IT_coordinate_system_code '2'
_symmetry_cell_setting 'orthorhombic'
loop_
_space_group_symop_operation_xyz
x,y,z
1/4-x,1/4-y,z
x,1/4-y,1/4-z
1/4-x,y,1/4-z
-x,-y,-z
3/4+x,3/4+y,-z
-x,3/4+y,3/4+z
3/4+x,-y,3/4+z
x,1/2+y,1/2+z
1/4-x,3/4-y,1/2+z
x,3/4-y,3/4-z
1/4-x,1/2+y,3/4-z
-x,1/2-y,1/2-z
3/4+x,1/4+y,1/2-z
-x,1/4+y,1/4+z
3/4+x,1/2-y,1/4+z
1/2+x,y,1/2+z
3/4-x,1/4-y,1/2+z
1/2+x,1/4-y,3/4-z
3/4-x,y,3/4-z
1/2-x,-y,1/2-z
1/4+x,3/4+y,1/2-z
1/2-x,3/4+y,1/4+z
1/4+x,-y,1/4+z
1/2+x,1/2+y,z
3/4-x,3/4-y,z
1/2+x,3/4-y,1/4-z
3/4-x,1/2+y,1/4-z
1/2-x,1/2-y,-z
1/4+x,1/4+y,-z
1/2-x,1/4+y,3/4+z
1/4+x,1/2-y,3/4+z
loop_
_atom_site_type_symbol
_atom_site_label
_atom_site_fract_x
_atom_site_fract_y
_atom_site_fract_z
Si Si1 0.991853 0.029020 0.626849
Si Si2 0.239195 0.350162 0.572156
Si Si3 0.773656 0.897662 0.690449
Si Si4 0.122308 0.814665 0.690481
Si Si5 0.100004 0.723990 0.460471
Si Si6 0.798543 0.370444 0.795920
O O1 0.030166 0.049630 0.685971
O O2 0.998286 0.085133 0.581917
O O3 0.021495 0.969925 0.593593
O O4 0.918451 0.012103 0.651772
O O5 0.271429 0.391607 0.621848
O O6 0.165828 0.372941 0.555498
O O7 0.289782 0.360158 0.519830
O O8 0.700943 0.916958 0.713004
O O9 0.824452 0.952137 0.704976
O O10 0.798365 0.833046 0.718303
O O11 0.125000 0.788755 0.625000
O O12 0.155302 0.764298 0.731991
O O13 0.875000 0.375000 0.813699
#
# Coordination Sequence:
#
# PCOD8285926 Si02
#       6
#    32  32  32  32  32  32
#     4  10  21  37  57  83 123 160 194 251 300 360
#     4  10  21  39  58  89 116 158 203 248 295 373
#     4   9  21  35  61  85 111 155 202 244 307 359
#     4  10  20  38  60  85 119 151 199 247 304 365
#     4  10  19  38  60  83 115 152 197 251 299 361
#     4  11  23  37  59  88 124 162 202 248 309 362
#
# _framework density 19.020562000000002
#
# number of rings (size 3 to 8) (size 9 to 14) (size 15 to 20)
#    0.000    2.000    1.667    2.000    4.667    6.667 
#    0.000    3.333    0.000    0.000    0.000    0.000 
#    0.000    0.000    0.000    0.000    0.000    0.000 
#
# Total GULP energy -594740.286319 kJ/mol
# GULP energy per Si atom -12390.422632 kJ/mol
# Density = 1.897727 g / cm^3
# Si number density = 19.020562 Si / 1000 Ang^3
#
#
#
# Elastic Constant Matrix: (Units=GPa)
#
#
# Indices 1 2 3 4 5 6 
#
# 1 103.7126 45.7991 35.4814 0.0000 0.0000 0.0000
# 2 45.7991 101.1660 60.0084 0.0000 0.0000 0.0000
# 3 35.4814 60.0084 98.8554 0.0000 0.0000 0.0000
# 4 0.0000 0.0000 0.0000 36.4766 0.0000 0.0000
# 5 0.0000 0.0000 0.0000 0.0000 22.8998 0.0000
# 6 0.0000 0.0000 0.0000 0.0000 0.0000 23.5015
#
#
#
# Elastic Compliance Matrix: (Units=1/GPa)
#
#
# Indices 1 2 3 4 5 6 
#
# 1 0.012212 -0.004576 -0.001605 0.000000 0.000000 0.000000
# 2 -0.004576 0.017162 -0.008775 0.000000 0.000000 0.000000
# 3 -0.001605 -0.008775 0.016019 0.000000 0.000000 0.000000
# 4 0.000000 0.000000 0.000000 0.027415 0.000000 0.000000
# 5 0.000000 0.000000 0.000000 0.000000 0.043668 0.000000
# 6 0.000000 0.000000 0.000000 0.000000 0.000000 0.042551
#
#
# Mechanical properties :
#
#
# Convention : Reuss Voigt Hill
#
# Bulk Modulus (GPa) = 64.60336 65.14576 64.87456
# Shear Modulus (GPa) = 25.76001 27.40526 26.58264
#
# Velocity S-wave (km/s) = 3.68411 3.79994 3.74247
# Velocity P-wave (km/s) = 7.22050 7.31965 7.27024
#
# Compressibility (1/GPa) = 0.01547907
#
# Stress axis : x y z
#
# Youngs Moduli (GPa) = 81.88592 58.26943 62.42713
#
# Poissons Ratio (x) = 0.26667 0.10020
# Poissons Ratio (y) = 0.37475 0.54780
# Poissons Ratio (z) = 0.13144 0.51132
#
# Static dielectric constant tensor:
#      x y z
#    x 3.476570 0.000000 0.000000 
#    y 0.000000 3.585150 0.000000 
#    z 0.000000 0.000000 3.553820 
# 
# 
# High freq. dielectric constant tensor:
#      x y z
#    x 1.736150 0.000000 0.000000 
#    y 0.000000 1.737550 0.000000 
#    z 0.000000 0.000000 1.737010 
# 
# From -- ./inp_files/52981.got.cif
#   From: 2010.03.12/outbox.cif.g09.slc.cpg/sg70_27_cif.got.tgz:52981.got - 2010.04.16 13:46:32.
