data_PCOD8285553
_publ_section_title
;
Structure prediction by ZEFSAII (Michael W. Deem and Ramdas Pophale) SiO2 
 PCOD8285553
Probable space group: F M M M
;
_chemical_formula_sum "Si O2"
_cell_formula_units_Z 192
_cell_length_a 27.026196
_cell_length_b 18.993816
_cell_length_c 19.008571
_cell_angle_alpha 90.000000
_cell_angle_beta 90.000000
_cell_angle_gamma 90.000000
_cell_volume 9757.681043
_symmetry_space_group_name_H-M "F M M M"
_symmetry_group_IT_number 69
_symmetry_cell_setting 'orthorhombic'
loop_
_space_group_symop_operation_xyz
x,y,z
-x,-y,z
x,-y,-z
-x,y,-z
-x,-y,-z
x,y,-z
-x,y,z
x,-y,z
x,1/2+y,1/2+z
-x,1/2-y,1/2+z
x,1/2-y,1/2-z
-x,1/2+y,1/2-z
-x,1/2-y,1/2-z
x,1/2+y,1/2-z
-x,1/2+y,1/2+z
x,1/2-y,1/2+z
1/2+x,y,1/2+z
1/2-x,-y,1/2+z
1/2+x,-y,1/2-z
1/2-x,y,1/2-z
1/2-x,-y,1/2-z
1/2+x,y,1/2-z
1/2-x,y,1/2+z
1/2+x,-y,1/2+z
1/2+x,1/2+y,z
1/2-x,1/2-y,z
1/2+x,1/2-y,-z
1/2-x,1/2+y,-z
1/2-x,1/2-y,-z
1/2+x,1/2+y,-z
1/2-x,1/2+y,z
1/2+x,1/2-y,z
loop_
_atom_site_type_symbol
_atom_site_label
_atom_site_fract_x
_atom_site_fract_y
_atom_site_fract_z
Si Si1 0.000000 0.863913 0.726841
Si Si2 0.102683 0.312980 0.420740
Si Si3 0.345638 0.170449 0.082947
Si Si4 0.250018 0.667349 0.832495
Si Si5 0.345755 0.083050 0.329484
Si Si6 0.602740 0.920677 0.186948
Si Si7 0.000000 0.726496 0.363710
O O1 0.048181 0.911814 0.718271
O O2 0.000000 0.803405 0.668985
O O3 0.000000 0.832591 0.804326
O O4 0.109633 0.338124 0.500000
O O5 0.143564 0.252817 0.402557
O O6 0.109392 0.381546 0.372373
O O7 0.048220 0.281295 0.411662
O O8 0.296978 0.141174 0.122803
O O9 0.390521 0.127647 0.118387
O O10 0.342262 0.154360 0.000000
O O11 0.250000 0.651214 0.750000
O O12 0.250000 0.750000 0.847986
O O13 0.297093 0.622876 0.858815
O O14 0.356559 0.097814 0.247219
O O15 0.342421 0.000000 0.345349
O O16 0.609968 0.000000 0.161999
#
# Coordination Sequence:
#
# PCOD8285553 Si02
#       7
#    16  32  32  32  32  32  16
#     4  11  21  36  66  97 122 162 218 273 316 376
#     4  11  23  41  63  91 132 170 208 262 324 383
#     4  11  24  41  65  94 126 167 215 262 318 385
#     4  11  22  38  66  95 120 164 213 262 316 377
#     4  11  24  41  65  94 126 167 215 262 318 385
#     4  11  23  41  63  91 132 170 208 262 324 383
#     4  11  21  36  66  97 122 162 218 273 316 376
#
# _framework density 19.676805999999999
#
# number of rings (size 3 to 8) (size 9 to 14) (size 15 to 20)
#    0.000    1.000    6.667    0.500    0.000    3.333 
#    0.000    0.833    0.000    2.000    0.000    0.000 
#    0.000    0.000    0.000    0.000    0.000    0.000 
#
# Total GULP energy -595115.817562 kJ/mol
# GULP energy per Si atom -12398.246199 kJ/mol
# Density = 1.963202 g / cm^3
# Si number density = 19.676806 Si / 1000 Ang^3
#
#
#
# Elastic Constant Matrix: (Units=GPa)
#
#
# Indices 1 2 3 4 5 6 
#
# 1 99.6355 26.9075 26.5048 0.0000 0.0000 0.0000
# 2 26.9075 79.6962 76.0942 0.0000 0.0000 0.0000
# 3 26.5048 76.0942 83.1576 0.0000 0.0000 0.0000
# 4 0.0000 0.0000 0.0000 24.0507 0.0000 0.0000
# 5 0.0000 0.0000 0.0000 0.0000 29.8871 0.0000
# 6 0.0000 0.0000 0.0000 0.0000 0.0000 29.9317
#
#
#
# Elastic Compliance Matrix: (Units=1/GPa)
#
#
# Indices 1 2 3 4 5 6 
#
# 1 0.011051 -0.002914 -0.000856 0.000000 0.000000 0.000000
# 2 -0.002914 0.100118 -0.090685 0.000000 0.000000 0.000000
# 3 -0.000856 -0.090685 0.095280 0.000000 0.000000 0.000000
# 4 0.000000 0.000000 0.000000 0.041579 0.000000 0.000000
# 5 0.000000 0.000000 0.000000 0.000000 0.033459 0.000000
# 6 0.000000 0.000000 0.000000 0.000000 0.000000 0.033409
#
#
# Mechanical properties :
#
#
# Convention : Reuss Voigt Hill
#
# Bulk Modulus (GPa) = 57.01372 57.94469 57.47920
# Shear Modulus (GPa) = 9.81061 25.63941 17.72501
#
# Velocity S-wave (km/s) = 2.23533 3.61366 3.00460
# Velocity P-wave (km/s) = 5.97497 6.85008 6.42743
#
# Compressibility (1/GPa) = 0.01753964
#
# Stress axis : x y z
#
# Youngs Moduli (GPa) = 90.48782 9.98826 10.49538
#
# Poissons Ratio (x) = 0.02911 0.00898
# Poissons Ratio (y) = 0.26368 0.95177
# Poissons Ratio (z) = 0.07745 0.90578
#
# Static dielectric constant tensor:
#      x y z
#    x 3.665160 0.000000 0.000000 
#    y 0.000000 3.388420 0.000000 
#    z 0.000000 0.000000 3.393740 
# 
# 
# High freq. dielectric constant tensor:
#      x y z
#    x 1.776190 0.000000 0.000000 
#    y 0.000000 1.758430 0.000000 
#    z 0.000000 0.000000 1.758600 
# 
# From -- ./inp_files/27798.got.cif
#   From: 2010.03.12/outbox.cif.g09.slc.cpg/sg69_14_cif.got.tgz:27798.got - 2010.04.10 23:52:46.
