data_PCOD8285451
_publ_section_title
;
Structure prediction by ZEFSAII (Michael W. Deem and Ramdas Pophale) SiO2 
 PCOD8285451
Probable space group: F M M M
;
_chemical_formula_sum "Si O2"
_cell_formula_units_Z 112
_cell_length_a 14.206638
_cell_length_b 14.302127
_cell_length_c 27.722369
_cell_angle_alpha 90.000000
_cell_angle_beta 90.000000
_cell_angle_gamma 90.000000
_cell_volume 5632.773452
_symmetry_space_group_name_H-M "F M M M"
_symmetry_group_IT_number 69
_symmetry_cell_setting 'orthorhombic'
loop_
_space_group_symop_operation_xyz
x,y,z
-x,-y,z
x,-y,-z
-x,y,-z
-x,-y,-z
x,y,-z
-x,y,z
x,-y,z
x,1/2+y,1/2+z
-x,1/2-y,1/2+z
x,1/2-y,1/2-z
-x,1/2+y,1/2-z
-x,1/2-y,1/2-z
x,1/2+y,1/2-z
-x,1/2+y,1/2+z
x,1/2-y,1/2+z
1/2+x,y,1/2+z
1/2-x,-y,1/2+z
1/2+x,-y,1/2-z
1/2-x,y,1/2-z
1/2-x,-y,1/2-z
1/2+x,y,1/2-z
1/2-x,y,1/2+z
1/2+x,-y,1/2+z
1/2+x,1/2+y,z
1/2-x,1/2-y,z
1/2+x,1/2-y,-z
1/2-x,1/2+y,-z
1/2-x,1/2-y,-z
1/2+x,1/2+y,-z
1/2-x,1/2+y,z
1/2+x,1/2-y,z
loop_
_atom_site_type_symbol
_atom_site_label
_atom_site_fract_x
_atom_site_fract_y
_atom_site_fract_z
Si Si1 0.798100 0.388343 0.053416
Si Si2 0.000000 0.399391 0.056203
Si Si3 0.109585 0.500000 0.812885
Si Si4 0.756265 0.644919 0.653702
Si Si5 0.608945 0.500000 0.199323
O O1 0.804997 0.500000 0.053411
O O2 0.727597 0.353809 0.095339
O O3 0.901912 0.345821 0.067496
O O4 0.764794 0.353864 0.000000
O O5 0.000000 0.500000 0.083753
O O6 0.000000 0.420586 0.000000
O O7 0.158573 0.407886 0.834687
O O8 0.125839 0.500000 0.755966
O O9 0.000000 0.500000 0.826204
O O10 0.750000 0.750000 0.674029
O O11 0.844312 0.593257 0.677805
O O12 0.500000 0.500000 0.185156
#
# Coordination Sequence:
#
# PCOD8285451 Si02
#       5
#    32  16  16  32  16
#     4   9  16  29  52  80 117 156 191 229 283 335
#     4   7  12  22  42  74 106 140 176 226 276 319
#     4  10  23  41  64  86 112 147 194 248 296 349
#     4  11  22  36  60  92 119 150 191 243 287 346
#     4  10  23  45  60  78 117 160 192 234 297 354
#
# _framework density 19.883633
#
# number of rings (size 3 to 8) (size 9 to 14) (size 15 to 20)
#    0.000    2.429    2.857    3.429    2.000    4.000 
#    0.000    2.857    0.000    1.714    0.000    0.000 
#    0.000    0.000    0.000    0.000    0.000    0.000 
#
# Total GULP energy -346892.880787 kJ/mol
# GULP energy per Si atom -12389.031457 kJ/mol
# Density = 1.983838 g / cm^3
# Si number density = 19.883633 Si / 1000 Ang^3
#
#
#
# Elastic Constant Matrix: (Units=GPa)
#
#
# Indices 1 2 3 4 5 6 
#
# 1 96.9655 47.5743 41.7016 0.0000 0.0000 0.0000
# 2 47.5743 129.1622 29.6478 0.0000 0.0000 0.0000
# 3 41.7016 29.6478 128.5896 0.0000 0.0000 0.0000
# 4 0.0000 0.0000 0.0000 -0.0338 0.0000 0.0000
# 5 0.0000 0.0000 0.0000 0.0000 20.6481 0.0000
# 6 0.0000 0.0000 0.0000 0.0000 0.0000 10.1962
#
#
#
# Elastic Compliance Matrix: (Units=1/GPa)
#
#
# Indices 1 2 3 4 5 6 
#
# 1 0.013954 -0.004330 -0.003527 0.000000 0.000000 0.000000
# 2 -0.004330 0.009519 -0.000790 0.000000 0.000000 0.000000
# 3 -0.003527 -0.000790 0.009103 0.000000 0.000000 0.000000
# 4 0.000000 0.000000 0.000000-29.544733 0.000000 0.000000
# 5 0.000000 0.000000 0.000000 0.000000 0.048431 0.000000
# 6 0.000000 0.000000 0.000000 0.000000 0.000000 0.098075
#
#
# Mechanical properties :
#
#
# Convention : Reuss Voigt Hill
#
# Bulk Modulus (GPa) = 65.44286 65.84053 65.64170
# Shear Modulus (GPa) = -0.17040 21.88167 10.85564
#
# Velocity S-wave (km/s) = -0.29306 3.32096 2.33911
# Velocity P-wave (km/s) = 5.73323 6.92025 6.35451
#
# Compressibility (1/GPa) = 0.01528050
#
# Stress axis : x y z
#
# Youngs Moduli (GPa) = 71.66228 105.05788 109.85740
#
# Poissons Ratio (x) = 0.45492 0.38747
# Poissons Ratio (y) = 0.31031 0.08682
# Poissons Ratio (z) = 0.25275 0.08303
#
# Static dielectric constant tensor:
#      x y z
#    x 3.736220 0.000000 0.000000 
#    y 0.000000 3.240760 0.000000 
#    z 0.000000 0.000000 3.930530 
# 
# 
# High freq. dielectric constant tensor:
#      x y z
#    x 1.754910 0.000000 0.000000 
#    y 0.000000 1.739740 0.000000 
#    z 0.000000 0.000000 1.797060 
# 
# From -- ./inp_files/14107.got.cif
#   From: 2010.03.12/outbox.cif.g09.slc.cpg/sg69_8_cif.got.tgz:14107.got - 2010.04.10 23:52:46.
