data_PCOD8285449
_publ_section_title
;
Structure prediction by ZEFSAII (Michael W. Deem and Ramdas Pophale) SiO2 
 PCOD8285449
Probable space group: F M M M
;
_chemical_formula_sum "Si O2"
_cell_formula_units_Z 208
_cell_length_a 21.308686
_cell_length_b 27.460830
_cell_length_c 19.245386
_cell_angle_alpha 90.000000
_cell_angle_beta 90.000000
_cell_angle_gamma 90.000000
_cell_volume 11261.518521
_symmetry_space_group_name_H-M "F M M M"
_symmetry_group_IT_number 69
_symmetry_cell_setting 'orthorhombic'
loop_
_space_group_symop_operation_xyz
x,y,z
-x,-y,z
x,-y,-z
-x,y,-z
-x,-y,-z
x,y,-z
-x,y,z
x,-y,z
x,1/2+y,1/2+z
-x,1/2-y,1/2+z
x,1/2-y,1/2-z
-x,1/2+y,1/2-z
-x,1/2-y,1/2-z
x,1/2+y,1/2-z
-x,1/2+y,1/2+z
x,1/2-y,1/2+z
1/2+x,y,1/2+z
1/2-x,-y,1/2+z
1/2+x,-y,1/2-z
1/2-x,y,1/2-z
1/2-x,-y,1/2-z
1/2+x,y,1/2-z
1/2-x,y,1/2+z
1/2+x,-y,1/2+z
1/2+x,1/2+y,z
1/2-x,1/2-y,z
1/2+x,1/2-y,-z
1/2-x,1/2+y,-z
1/2-x,1/2-y,-z
1/2+x,1/2+y,-z
1/2-x,1/2+y,z
1/2+x,1/2-y,z
loop_
_atom_site_type_symbol
_atom_site_label
_atom_site_fract_x
_atom_site_fract_y
_atom_site_fract_z
Si Si1 0.500000 0.057978 0.421726
Si Si2 0.621383 0.443365 0.841123
Si Si3 0.073307 0.896800 0.290244
Si Si4 0.630559 0.443710 0.420432
Si Si5 0.255688 0.803800 0.638311
Si Si6 0.264863 0.096796 0.422627
Si Si7 0.645743 0.696172 0.749396
O O1 0.500000 0.078140 0.500000
O O2 0.438222 0.077864 0.383143
O O3 0.500000 0.000000 0.419864
O O4 0.630430 0.500000 0.855327
O O5 0.611312 0.433801 0.759466
O O6 0.683510 0.416203 0.865845
O O7 0.090005 0.909495 0.369740
O O8 0.091458 0.841947 0.269092
O O9 0.000000 0.903988 0.278616
O O10 0.613780 0.429584 0.500000
O O11 0.614419 0.500000 0.406063
O O12 0.703911 0.435246 0.406146
O O13 0.250000 0.750000 0.603605
O O14 0.247711 0.845848 0.581099
O O15 0.323124 0.812477 0.675151
O O16 0.200605 0.808224 0.693695
O O17 0.289789 0.085058 0.500000
O O18 0.615143 0.750000 0.750000
#
# Coordination Sequence:
#
# PCOD8285449 Si02
#       7
#    16  32  32  32  32  32  32
#     4   9  18  34  52  72 108 155 191 223 265 314
#     4  11  22  35  53  82 116 150 190 230 270 331
#     4  12  23  37  60  85 110 148 195 239 282 338
#     4  10  23  41  58  81 115 152 191 240 293 340
#     4   9  17  33  58  83 109 143 182 227 288 345
#     4  11  21  35  57  84 114 150 189 232 286 343
#     4   9  18  35  58  83 111 140 179 231 287 343
#
# _framework density 18.469978000000001
#
# number of rings (size 3 to 8) (size 9 to 14) (size 15 to 20)
#    0.000    1.769    3.846    2.308    0.000    4.000 
#    0.000    2.308    0.000    0.000    0.000    0.000 
#    0.000    0.000    0.000    0.000    0.000    0.000 
#
# Total GULP energy -644788.128925 kJ/mol
# GULP energy per Si atom -12399.771710 kJ/mol
# Density = 1.842794 g / cm^3
# Si number density = 18.469978 Si / 1000 Ang^3
#
#
#
# Elastic Constant Matrix: (Units=GPa)
#
#
# Indices 1 2 3 4 5 6 
#
# 1 68.3772 29.6320 33.2552 0.0000 0.0000 0.0000
# 2 29.6320 94.9807 29.1617 0.0000 0.0000 0.0000
# 3 33.2552 29.1617 83.2571 0.0000 0.0000 0.0000
# 4 0.0000 0.0000 0.0000 25.2019 0.0000 0.0000
# 5 0.0000 0.0000 0.0000 0.0000 24.8422 0.0000
# 6 0.0000 0.0000 0.0000 0.0000 0.0000 19.0388
#
#
#
# Elastic Compliance Matrix: (Units=1/GPa)
#
#
# Indices 1 2 3 4 5 6 
#
# 1 0.019501 -0.004137 -0.006340 0.000000 0.000000 0.000000
# 2 -0.004137 0.012675 -0.002787 0.000000 0.000000 0.000000
# 3 -0.006340 -0.002787 0.015520 0.000000 0.000000 0.000000
# 4 0.000000 0.000000 0.000000 0.039680 0.000000 0.000000
# 5 0.000000 0.000000 0.000000 0.000000 0.040254 0.000000
# 6 0.000000 0.000000 0.000000 0.000000 0.000000 0.052524
#
#
# Mechanical properties :
#
#
# Convention : Reuss Voigt Hill
#
# Bulk Modulus (GPa) = 47.24390 47.85699 47.55044
# Shear Modulus (GPa) = 23.39308 24.12098 23.75703
#
# Velocity S-wave (km/s) = 3.56272 3.61772 3.59033
# Velocity P-wave (km/s) = 6.52367 6.58920 6.55651
#
# Compressibility (1/GPa) = 0.02116675
#
# Stress axis : x y z
#
# Youngs Moduli (GPa) = 51.27871 78.89610 64.43476
#
# Poissons Ratio (x) = 0.32642 0.40853
# Poissons Ratio (y) = 0.21216 0.17958
# Poissons Ratio (z) = 0.32512 0.21988
#
# Static dielectric constant tensor:
#      x y z
#    x 3.215220 0.000000 0.000000 
#    y 0.000000 3.542830 0.000000 
#    z 0.000000 0.000000 3.380240 
# 
# 
# High freq. dielectric constant tensor:
#      x y z
#    x 1.701780 0.000000 0.000000 
#    y 0.000000 1.715230 0.000000 
#    z 0.000000 0.000000 1.710920 
# 
# From -- ./inp_files/26133.got.cif
#   From: 2010.03.12/outbox.cif.g09.slc.cpg/sg69_14_cif.got.tgz:26133.got - 2010.04.10 23:52:46.
