data_PCOD8285527
_publ_section_title
;
Structure prediction by ZEFSAII (Michael W. Deem and Ramdas Pophale) SiO2 
 PCOD8285527
Probable space group: F M M M
;
_chemical_formula_sum "Si O2"
_cell_formula_units_Z 240
_cell_length_a 28.885044
_cell_length_b 18.995729
_cell_length_c 22.598905
_cell_angle_alpha 90.000000
_cell_angle_beta 90.000000
_cell_angle_gamma 90.000000
_cell_volume 12399.848958
_symmetry_space_group_name_H-M "F M M M"
_symmetry_group_IT_number 69
_symmetry_cell_setting 'orthorhombic'
loop_
_space_group_symop_operation_xyz
x,y,z
-x,-y,z
x,-y,-z
-x,y,-z
-x,-y,-z
x,y,-z
-x,y,z
x,-y,z
x,1/2+y,1/2+z
-x,1/2-y,1/2+z
x,1/2-y,1/2-z
-x,1/2+y,1/2-z
-x,1/2-y,1/2-z
x,1/2+y,1/2-z
-x,1/2+y,1/2+z
x,1/2-y,1/2+z
1/2+x,y,1/2+z
1/2-x,-y,1/2+z
1/2+x,-y,1/2-z
1/2-x,y,1/2-z
1/2-x,-y,1/2-z
1/2+x,y,1/2-z
1/2-x,y,1/2+z
1/2+x,-y,1/2+z
1/2+x,1/2+y,z
1/2-x,1/2-y,z
1/2+x,1/2-y,-z
1/2-x,1/2+y,-z
1/2-x,1/2-y,-z
1/2+x,1/2+y,-z
1/2-x,1/2+y,z
1/2+x,1/2-y,z
loop_
_atom_site_type_symbol
_atom_site_label
_atom_site_fract_x
_atom_site_fract_y
_atom_site_fract_z
Si Si1 0.052382 0.300986 0.163200
Si Si2 0.359599 0.919274 0.334357
Si Si3 0.196172 0.168733 0.741335
Si Si4 0.198258 0.084236 0.375865
Si Si5 0.793436 0.417630 0.434842
Si Si6 0.949216 0.500000 0.929851
Si Si7 0.608596 0.368354 0.568136
Si Si8 0.551810 0.355123 0.788901
O O1 0.090764 0.306230 0.111006
O O2 0.065598 0.350629 0.219336
O O3 0.054313 0.221295 0.183379
O O4 0.000000 0.318741 0.141216
O O5 0.330921 0.872459 0.290413
O O6 0.341069 0.899861 0.400199
O O7 0.414062 0.905586 0.325939
O O8 0.348251 0.000000 0.320615
O O9 0.181264 0.250000 0.750000
O O10 0.250000 0.158445 0.750000
O O11 0.183382 0.133075 0.679098
O O12 0.248664 0.108981 0.398403
O O13 0.161618 0.106657 0.426144
O O14 0.196393 0.000000 0.361834
O O15 0.795748 0.381748 0.500000
O O16 0.787176 0.500000 0.443380
O O17 0.922904 0.431648 0.907664
O O18 0.000000 0.500000 0.901370
O O19 0.950968 0.500000 0.000000
O O20 0.599547 0.347559 0.500000
O O21 0.500000 0.386063 0.795267
#
# Coordination Sequence:
#
# PCOD8285527 Si02
#       8
#    32  32  32  32  32  16  32  32
#     4   9  19  37  59  81 110 156 199 233 287 353
#     4  11  22  37  62  90 115 148 192 241 295 349
#     4  11  24  39  59  87 122 157 191 237 294 347
#     4  11  21  36  59  86 119 156 202 244 283 344
#     4   9  19  36  58  82 113 153 191 233 286 350
#     4   9  18  32  48  72 113 158 196 236 277 326
#     4  11  21  33  53  84 119 158 200 241 285 343
#     4   9  20  39  61  84 112 146 191 246 299 348
#
# _framework density 19.355076
#
# number of rings (size 3 to 8) (size 9 to 14) (size 15 to 20)
#    0.000    1.933    2.000    2.800    3.733    2.133 
#    1.200    0.667    0.000    2.000    0.000    1.867 
#    0.000    0.000    0.000    0.000    0.000    0.000 
#
# Total GULP energy -743696.742734 kJ/mol
# GULP energy per Si atom -12394.945712 kJ/mol
# Density = 1.931102 g / cm^3
# Si number density = 19.355076 Si / 1000 Ang^3
#
#
#
# Elastic Constant Matrix: (Units=GPa)
#
#
# Indices 1 2 3 4 5 6 
#
# 1 271.6304 -174.0588 -6.7187 0.0000 0.0000 0.0000
# 2 -174.0588 327.0803 110.0510 0.0000 0.0000 0.0000
# 3 -6.7187 110.0510 133.3172 0.0000 0.0000 0.0000
# 4 0.0000 0.0000 0.0000 -2.0239 0.0000 0.0000
# 5 0.0000 0.0000 0.0000 0.0000 28.3502 0.0000
# 6 0.0000 0.0000 0.0000 0.0000 0.0000 29.8547
#
#
#
# Elastic Compliance Matrix: (Units=1/GPa)
#
#
# Indices 1 2 3 4 5 6 
#
# 1 0.006619 0.004721 -0.003564 0.000000 0.000000 0.000000
# 2 0.004721 0.007601 -0.006036 0.000000 0.000000 0.000000
# 3 -0.003564 -0.006036 0.012304 0.000000 0.000000 0.000000
# 4 0.000000 0.000000 0.000000 -0.494106 0.000000 0.000000
# 5 0.000000 0.000000 0.000000 0.000000 0.035273 0.000000
# 6 0.000000 0.000000 0.000000 0.000000 0.000000 0.033496
#
#
# Mechanical properties :
#
#
# Convention : Reuss Voigt Hill
#
# Bulk Modulus (GPa) = 59.64468 65.61942 62.63205
# Shear Modulus (GPa) = -13.03892 64.75317 25.85713
#
# Velocity S-wave (km/s) = -2.59833 5.79034 3.65901
# Velocity P-wave (km/s) = 4.67773 8.87021 7.09090
#
# Compressibility (1/GPa) = 0.01676596
#
# Stress axis : x y z
#
# Youngs Moduli (GPa) = 151.08749 131.56377 81.27247
#
# Poissons Ratio (x) = -0.62115 0.28964
# Poissons Ratio (y) = -0.71333 0.49060
# Poissons Ratio (z) = 0.53844 0.79418
#
# Static dielectric constant tensor:
#      x y z
#    x 20.804550 0.000000 0.000000 
#    y 0.000000 3.411710 0.000000 
#    z 0.000000 0.000000 3.691110 
# 
# 
# High freq. dielectric constant tensor:
#      x y z
#    x 1.765250 0.000000 0.000000 
#    y 0.000000 1.729870 0.000000 
#    z 0.000000 0.000000 1.747030 
# 
# From -- ./inp_files/33561.got.cif
#   From: 2010.03.12/outbox.cif.g09.slc.cpg/sg69_17_cif.got.tgz:33561.got - 2010.04.10 23:52:46.
