data_PCOD8285765
_publ_section_title
;
Structure prediction by ZEFSAII (Michael W. Deem and Ramdas Pophale) SiO2 
 PCOD8285765
Probable space group: F D D D
;
_chemical_formula_sum "Si O2"
_cell_formula_units_Z 160
_cell_length_a 25.102170
_cell_length_b 12.050921
_cell_length_c 25.805941
_cell_angle_alpha 90.000000
_cell_angle_beta 90.000000
_cell_angle_gamma 90.000000
_cell_volume 7806.407282
_symmetry_space_group_name_H-M "F D D D"
_symmetry_group_IT_number 70
_space_group.IT_coordinate_system_code '2'
_symmetry_cell_setting 'orthorhombic'
loop_
_space_group_symop_operation_xyz
x,y,z
1/4-x,1/4-y,z
x,1/4-y,1/4-z
1/4-x,y,1/4-z
-x,-y,-z
3/4+x,3/4+y,-z
-x,3/4+y,3/4+z
3/4+x,-y,3/4+z
x,1/2+y,1/2+z
1/4-x,3/4-y,1/2+z
x,3/4-y,3/4-z
1/4-x,1/2+y,3/4-z
-x,1/2-y,1/2-z
3/4+x,1/4+y,1/2-z
-x,1/4+y,1/4+z
3/4+x,1/2-y,1/4+z
1/2+x,y,1/2+z
3/4-x,1/4-y,1/2+z
1/2+x,1/4-y,3/4-z
3/4-x,y,3/4-z
1/2-x,-y,1/2-z
1/4+x,3/4+y,1/2-z
1/2-x,3/4+y,1/4+z
1/4+x,-y,1/4+z
1/2+x,1/2+y,z
3/4-x,3/4-y,z
1/2+x,3/4-y,1/4-z
3/4-x,1/2+y,1/4-z
1/2-x,1/2-y,-z
1/4+x,1/4+y,-z
1/2-x,1/4+y,3/4+z
1/4+x,1/2-y,3/4+z
loop_
_atom_site_type_symbol
_atom_site_label
_atom_site_fract_x
_atom_site_fract_y
_atom_site_fract_z
Si Si1 0.269979 0.460463 0.161729
Si Si2 0.875000 0.375000 0.875000
Si Si3 0.125000 0.125000 0.458377
Si Si4 0.875000 0.875000 0.875000
Si Si5 0.827453 0.695786 0.805941
Si Si6 0.727867 0.296157 0.798065
Si Si7 0.087893 0.777890 0.040735
O O1 0.320809 0.385366 0.176333
O O2 0.216735 0.386703 0.168944
O O3 0.262134 0.571231 0.196280
O O4 0.285087 0.491476 0.102955
O O5 0.914762 0.302916 0.909390
O O6 0.124693 0.234030 0.494285
O O7 0.833613 0.805905 0.839687
O O8 0.817071 0.722872 0.745460
O O9 0.886993 0.643261 0.808717
O O10 0.776864 0.226071 0.772944
#
# Coordination Sequence:
#
# PCOD8285765 Si02
#       7
#    32   8  16   8  32  32  32
#     4  11  22  40  66 102 136 162 212 270 330 384
#     4  10  18  28  56  96 122 148 202 254 324 368
#     4  11  20  36  64 102 132 164 200 273 334 380
#     4  12  30  46  64  88 130 182 234 256 312 378
#     4  12  24  45  64  92 128 175 218 272 309 389
#     4  11  22  38  68 100 129 167 209 269 336 385
#     4  11  20  36  64  93 125 163 211 269 323 377
#
# _framework density 20.495984
#
# number of rings (size 3 to 8) (size 9 to 14) (size 15 to 20)
#    0.000    0.800    4.000    7.200    0.000    0.800 
#    0.000    8.000    0.000    0.000    0.000    0.000 
#    0.000    0.000    0.000    0.000    0.000    0.000 
#
# Total GULP energy -495779.226759 kJ/mol
# GULP energy per Si atom -12394.480669 kJ/mol
# Density = 2.044933 g / cm^3
# Si number density = 20.495984 Si / 1000 Ang^3
#
#
#
# Elastic Constant Matrix: (Units=GPa)
#
#
# Indices 1 2 3 4 5 6 
#
# 1 104.4158 47.6348 30.3977 0.0000 0.0000 0.0000
# 2 47.6348 99.3939 53.3056 0.0000 0.0000 0.0000
# 3 30.3977 53.3056 122.7722 0.0000 0.0000 0.0000
# 4 0.0000 0.0000 0.0000 25.4996 0.0000 0.0000
# 5 0.0000 0.0000 0.0000 0.0000 32.4962 0.0000
# 6 0.0000 0.0000 0.0000 0.0000 0.0000 28.0337
#
#
#
# Elastic Compliance Matrix: (Units=1/GPa)
#
#
# Indices 1 2 3 4 5 6 
#
# 1 0.012295 -0.005553 -0.000633 0.000000 0.000000 0.000000
# 2 -0.005553 0.015623 -0.005408 0.000000 0.000000 0.000000
# 3 -0.000633 -0.005408 0.010650 0.000000 0.000000 0.000000
# 4 0.000000 0.000000 0.000000 0.039216 0.000000 0.000000
# 5 0.000000 0.000000 0.000000 0.000000 0.030773 0.000000
# 6 0.000000 0.000000 0.000000 0.000000 0.000000 0.035671
#
#
# Mechanical properties :
#
#
# Convention : Reuss Voigt Hill
#
# Bulk Modulus (GPa) = 65.02338 65.47313 65.24826
# Shear Modulus (GPa) = 28.97844 30.22217 29.60031
#
# Velocity S-wave (km/s) = 3.76421 3.84414 3.80439
# Velocity P-wave (km/s) = 7.11942 7.19145 7.15553
#
# Compressibility (1/GPa) = 0.01537908
#
# Stress axis : x y z
#
# Youngs Moduli (GPa) = 81.33679 64.00999 93.89569
#
# Poissons Ratio (x) = 0.35542 0.05946
# Poissons Ratio (y) = 0.45163 0.50781
# Poissons Ratio (z) = 0.05150 0.34618
#
# Static dielectric constant tensor:
#      x y z
#    x 3.598730 0.000000 0.000000 
#    y 0.000000 3.498520 0.000000 
#    z 0.000000 0.000000 3.890170 
# 
# 
# High freq. dielectric constant tensor:
#      x y z
#    x 1.797930 0.000000 0.000000 
#    y 0.000000 1.771460 0.000000 
#    z 0.000000 0.000000 1.815240 
# 
# From -- ./inp_files/67753.got.cif
#   From: 2010.03.12/outbox.cif.g09.slc.cpg/sg70_34_cif.got.tgz:67753.got - 2010.04.16 13:46:32.
