data_PCOD8285729
_publ_section_title
;
Structure prediction by ZEFSAII (Michael W. Deem and Ramdas Pophale) SiO2 
 PCOD8285729
Probable space group: F D D D
;
_chemical_formula_sum "Si O2"
_cell_formula_units_Z 240
_cell_length_a 22.087323
_cell_length_b 28.127658
_cell_length_c 20.488613
_cell_angle_alpha 90.000000
_cell_angle_beta 90.000000
_cell_angle_gamma 90.000000
_cell_volume 12728.851343
_symmetry_space_group_name_H-M "F D D D"
_symmetry_group_IT_number 70
_space_group.IT_coordinate_system_code '2'
_symmetry_cell_setting 'orthorhombic'
loop_
_space_group_symop_operation_xyz
x,y,z
1/4-x,1/4-y,z
x,1/4-y,1/4-z
1/4-x,y,1/4-z
-x,-y,-z
3/4+x,3/4+y,-z
-x,3/4+y,3/4+z
3/4+x,-y,3/4+z
x,1/2+y,1/2+z
1/4-x,3/4-y,1/2+z
x,3/4-y,3/4-z
1/4-x,1/2+y,3/4-z
-x,1/2-y,1/2-z
3/4+x,1/4+y,1/2-z
-x,1/4+y,1/4+z
3/4+x,1/2-y,1/4+z
1/2+x,y,1/2+z
3/4-x,1/4-y,1/2+z
1/2+x,1/4-y,3/4-z
3/4-x,y,3/4-z
1/2-x,-y,1/2-z
1/4+x,3/4+y,1/2-z
1/2-x,3/4+y,1/4+z
1/4+x,-y,1/4+z
1/2+x,1/2+y,z
3/4-x,3/4-y,z
1/2+x,3/4-y,1/4-z
3/4-x,1/2+y,1/4-z
1/2-x,1/2-y,-z
1/4+x,1/4+y,-z
1/2-x,1/4+y,3/4+z
1/4+x,1/2-y,3/4+z
loop_
_atom_site_type_symbol
_atom_site_label
_atom_site_fract_x
_atom_site_fract_y
_atom_site_fract_z
Si Si1 0.997562 0.594593 0.819636
Si Si2 0.355279 0.131216 0.023370
Si Si3 0.229850 0.388914 0.540739
Si Si4 0.879781 0.548651 0.630657
Si Si5 0.260185 0.000005 0.636875
Si Si6 0.944803 0.944310 0.486585
Si Si7 0.625000 0.125000 0.409569
Si Si8 0.331527 0.953352 0.059799
O O1 0.954160 0.613906 0.763802
O O2 0.980630 0.619307 0.886637
O O3 0.988554 0.537790 0.832009
O O4 0.066648 0.608076 0.798269
O O5 0.337030 0.176162 0.069076
O O6 0.381739 0.087512 0.063949
O O7 0.409952 0.146258 0.976397
O O8 0.268572 0.355098 0.492159
O O9 0.262905 0.440197 0.540175
O O10 0.814061 0.531205 0.605831
O O11 0.920028 0.506735 0.661767
O O12 0.206176 0.033038 0.664793
O O13 0.286611 0.976196 0.701748
O O14 0.872126 0.942655 0.495175
O O15 0.642373 0.169788 0.366053
#
# Coordination Sequence:
#
# PCOD8285729 Si02
#       8
#    32  32  32  32  32  32  16  32
#     4  10  20  34  59  86 112 145 197 244 285 343
#     4  11  23  36  53  83 120 151 190 240 291 338
#     4  10  18  33  55  84 115 149 182 234 291 337
#     4  10  21  37  55  78 115 161 192 230 293 351
#     4   9  16  30  57  82 112 147 185 229 283 348
#     4   9  14  27  55  87 111 144 182 224 275 342
#     4  10  16  34  58  81 106 149 194 234 280 342
#     4  10  17  33  58  82 112 155 193 222 280 351
#
# _framework density 18.854804000000001
#
# number of rings (size 3 to 8) (size 9 to 14) (size 15 to 20)
#    0.000    2.133    6.667    0.400    1.867    1.067 
#    0.000    2.667    0.000    1.600    0.000    0.000 
#    0.000    0.000    0.000    0.000    0.000    0.000 
#
# Total GULP energy -743466.338787 kJ/mol
# GULP energy per Si atom -12391.105646 kJ/mol
# Density = 1.881189 g / cm^3
# Si number density = 18.854804 Si / 1000 Ang^3
#
#
#
# Elastic Constant Matrix: (Units=GPa)
#
#
# Indices 1 2 3 4 5 6 
#
# 1 117.7006 40.2500 48.4077 0.0000 0.0000 0.0000
# 2 40.2500 99.5859 34.3938 0.0000 0.0000 0.0000
# 3 48.4077 34.3938 58.2400 0.0000 0.0000 0.0000
# 4 0.0000 0.0000 0.0000 20.1490 0.0000 0.0000
# 5 0.0000 0.0000 0.0000 0.0000 23.1923 0.0000
# 6 0.0000 0.0000 0.0000 0.0000 0.0000 24.5501
#
#
#
# Elastic Compliance Matrix: (Units=1/GPa)
#
#
# Indices 1 2 3 4 5 6 
#
# 1 0.013201 -0.001942 -0.009826 0.000000 0.000000 0.000000
# 2 -0.001942 0.012900 -0.006004 0.000000 0.000000 0.000000
# 3 -0.009826 -0.006004 0.028883 0.000000 0.000000 0.000000
# 4 0.000000 0.000000 0.000000 0.049630 0.000000 0.000000
# 5 0.000000 0.000000 0.000000 0.000000 0.043118 0.000000
# 6 0.000000 0.000000 0.000000 0.000000 0.000000 0.040733
#
#
# Mechanical properties :
#
#
# Convention : Reuss Voigt Hill
#
# Bulk Modulus (GPa) = 51.43832 57.95882 54.69857
# Shear Modulus (GPa) = 21.69298 23.74329 22.71813
#
# Velocity S-wave (km/s) = 3.39562 3.55247 3.47493
# Velocity P-wave (km/s) = 6.53561 6.90167 6.72113
#
# Compressibility (1/GPa) = 0.01944076
#
# Stress axis : x y z
#
# Youngs Moduli (GPa) = 75.74950 77.51869 34.62257
#
# Poissons Ratio (x) = 0.15055 0.34019
# Poissons Ratio (y) = 0.14712 0.20787
# Poissons Ratio (z) = 0.74430 0.46542
#
# Static dielectric constant tensor:
#      x y z
#    x 3.559520 0.000000 0.000000 
#    y 0.000000 3.737700 0.000000 
#    z 0.000000 0.000000 3.141910 
# 
# 
# High freq. dielectric constant tensor:
#      x y z
#    x 1.719930 0.000000 0.000000 
#    y 0.000000 1.736700 0.000000 
#    z 0.000000 0.000000 1.692330 
# 
# From -- ./inp_files/45289.got.cif
#   From: 2010.03.12/outbox.cif.g09.slc.cpg/sg70_23_cif.got.tgz:45289.got - 2010.04.16 13:46:32.
