data_PCOD8285986
_publ_section_title
;
Structure prediction by ZEFSAII (Michael W. Deem and Ramdas Pophale) SiO2 
 PCOD8285986
Probable space group: F D D D
;
_chemical_formula_sum "Si O2"
_cell_formula_units_Z 168
_cell_length_a 16.079491
_cell_length_b 16.667635
_cell_length_c 30.711945
_cell_angle_alpha 90.000000
_cell_angle_beta 90.000000
_cell_angle_gamma 90.000000
_cell_volume 8231.018915
_symmetry_space_group_name_H-M "F D D D"
_symmetry_group_IT_number 70
_space_group.IT_coordinate_system_code '2'
_symmetry_cell_setting 'orthorhombic'
loop_
_space_group_symop_operation_xyz
x,y,z
1/4-x,1/4-y,z
x,1/4-y,1/4-z
1/4-x,y,1/4-z
-x,-y,-z
3/4+x,3/4+y,-z
-x,3/4+y,3/4+z
3/4+x,-y,3/4+z
x,1/2+y,1/2+z
1/4-x,3/4-y,1/2+z
x,3/4-y,3/4-z
1/4-x,1/2+y,3/4-z
-x,1/2-y,1/2-z
3/4+x,1/4+y,1/2-z
-x,1/4+y,1/4+z
3/4+x,1/2-y,1/4+z
1/2+x,y,1/2+z
3/4-x,1/4-y,1/2+z
1/2+x,1/4-y,3/4-z
3/4-x,y,3/4-z
1/2-x,-y,1/2-z
1/4+x,3/4+y,1/2-z
1/2-x,3/4+y,1/4+z
1/4+x,-y,1/4+z
1/2+x,1/2+y,z
3/4-x,3/4-y,z
1/2+x,3/4-y,1/4-z
3/4-x,1/2+y,1/4-z
1/2-x,1/2-y,-z
1/4+x,1/4+y,-z
1/2-x,1/4+y,3/4+z
1/4+x,1/2-y,3/4+z
loop_
_atom_site_type_symbol
_atom_site_label
_atom_site_fract_x
_atom_site_fract_y
_atom_site_fract_z
Si Si1 0.848380 0.125000 0.125000
Si Si2 0.469245 0.505401 0.364513
Si Si3 0.010124 0.889078 0.553580
Si Si4 0.513366 0.456009 0.817365
Si Si5 0.875000 0.875000 0.261203
Si Si6 0.125000 0.625000 0.625000
Si Si7 0.321768 0.548349 0.472267
O O1 0.785769 0.187145 0.147443
O O2 0.904977 0.167847 0.088771
O O3 0.375000 0.474900 0.375000
O O4 0.500560 0.551536 0.406645
O O5 0.474719 0.567113 0.323280
O O6 0.097792 0.894639 0.528261
O O7 0.988893 0.801127 0.571456
O O8 0.944040 0.917452 0.518349
O O9 0.430978 0.426308 0.841919
O O10 0.517120 0.434691 0.765426
O O11 0.840693 0.797658 0.286921
#
# Coordination Sequence:
#
# PCOD8285986 Si02
#       7
#    16  32  32  32  16   8  32
#     4  11  23  39  59  90 130 160 219 237 321 373
#     4  10  22  35  60  94 130 167 195 263 307 379
#     4  10  21  39  60  87 128 164 209 246 326 368
#     4  10  24  43  66  86 119 173 206 269 306 382
#     4  10  20  34  58  88 128 166 192 250 308 380
#     4  10  24  48  68  80 118 170 218 258 332 358
#     4  10  22  35  61  94 119 159 205 258 311 370
#
# _framework density 20.410596000000002
#
# number of rings (size 3 to 8) (size 9 to 14) (size 15 to 20)
#    0.000    1.905    0.000    3.143   14.667    0.000 
#    0.000    3.810    0.000    0.000    0.000    0.000 
#    0.000    0.000    0.000    0.000    0.000    0.000 
#
# Total GULP energy -520308.827303 kJ/mol
# GULP energy per Si atom -12388.305412 kJ/mol
# Density = 2.036414 g / cm^3
# Si number density = 20.410596 Si / 1000 Ang^3
#
#
#
# Elastic Constant Matrix: (Units=GPa)
#
#
# Indices 1 2 3 4 5 6 
#
# 1 103.1659 25.4526 39.5610 0.0000 0.0000 0.0000
# 2 25.4526 62.9470 7.9404 0.0000 0.0000 0.0000
# 3 39.5610 7.9404 102.6390 0.0000 0.0000 0.0000
# 4 0.0000 0.0000 0.0000 6.3126 0.0000 0.0000
# 5 0.0000 0.0000 0.0000 0.0000 56.2328 0.0000
# 6 0.0000 0.0000 0.0000 0.0000 0.0000 32.7461
#
#
#
# Elastic Compliance Matrix: (Units=1/GPa)
#
#
# Indices 1 2 3 4 5 6 
#
# 1 0.012520 -0.004498 -0.004478 0.000000 0.000000 0.000000
# 2 -0.004498 0.017659 0.000367 0.000000 0.000000 0.000000
# 3 -0.004478 0.000367 0.011440 0.000000 0.000000 0.000000
# 4 0.000000 0.000000 0.000000 0.158412 0.000000 0.000000
# 5 0.000000 0.000000 0.000000 0.000000 0.017783 0.000000
# 6 0.000000 0.000000 0.000000 0.000000 0.000000 0.030538
#
#
# Mechanical properties :
#
#
# Convention : Reuss Voigt Hill
#
# Bulk Modulus (GPa) = 40.97834 46.07334 43.52584
# Shear Modulus (GPa) = 18.26804 32.11150 25.18977
#
# Velocity S-wave (km/s) = 2.99495 3.97076 3.51686
# Velocity P-wave (km/s) = 5.66394 6.60642 6.15325
#
# Compressibility (1/GPa) = 0.02440314
#
# Stress axis : x y z
#
# Youngs Moduli (GPa) = 79.87353 56.62954 87.41012
#
# Poissons Ratio (x) = 0.25469 0.39139
# Poissons Ratio (y) = 0.35924 -0.03212
# Poissons Ratio (z) = 0.35765 -0.02081
#
# Static dielectric constant tensor:
#      x y z
#    x 3.878520 0.000000 0.000000 
#    y 0.000000 3.483830 0.000000 
#    z 0.000000 0.000000 3.864590 
# 
# 
# High freq. dielectric constant tensor:
#      x y z
#    x 1.795180 0.000000 0.000000 
#    y 0.000000 1.778530 0.000000 
#    z 0.000000 0.000000 1.818400 
# 
# From -- ./inp_files/65826.got.cif
#   From: 2010.03.12/outbox.cif.g09.slc.cpg/sg70_33_cif.got.tgz:65826.got - 2010.04.16 13:46:32.
