data_PCOD8285008
_publ_section_title
;
Structure prediction by ZEFSAII (Michael W. Deem and Ramdas Pophale) SiO2 
 PCOD8285008
Probable space group: F M M M
;
_chemical_formula_sum "Si O2"
_cell_formula_units_Z 160
_cell_length_a 16.606127
_cell_length_b 23.029398
_cell_length_c 21.935470
_cell_angle_alpha 90.000000
_cell_angle_beta 90.000000
_cell_angle_gamma 90.000000
_cell_volume 8388.762224
_symmetry_space_group_name_H-M "F M M M"
_symmetry_group_IT_number 69
_symmetry_cell_setting 'orthorhombic'
loop_
_space_group_symop_operation_xyz
x,y,z
-x,-y,z
x,-y,-z
-x,y,-z
-x,-y,-z
x,y,-z
-x,y,z
x,-y,z
x,1/2+y,1/2+z
-x,1/2-y,1/2+z
x,1/2-y,1/2-z
-x,1/2+y,1/2-z
-x,1/2-y,1/2-z
x,1/2+y,1/2-z
-x,1/2+y,1/2+z
x,1/2-y,1/2+z
1/2+x,y,1/2+z
1/2-x,-y,1/2+z
1/2+x,-y,1/2-z
1/2-x,y,1/2-z
1/2-x,-y,1/2-z
1/2+x,y,1/2-z
1/2-x,y,1/2+z
1/2+x,-y,1/2+z
1/2+x,1/2+y,z
1/2-x,1/2-y,z
1/2+x,1/2-y,-z
1/2-x,1/2+y,-z
1/2-x,1/2-y,-z
1/2+x,1/2+y,-z
1/2-x,1/2+y,z
1/2+x,1/2-y,z
loop_
_atom_site_type_symbol
_atom_site_label
_atom_site_fract_x
_atom_site_fract_y
_atom_site_fract_z
Si Si1 0.756360 0.933737 0.372046
Si Si2 0.593001 0.683731 0.000000
Si Si3 0.170604 0.153650 0.783689
Si Si4 0.654830 0.244079 0.379711
Si Si5 0.675171 0.565640 0.000000
Si Si6 0.908015 0.866075 0.339162
O O1 0.697078 0.899557 0.326718
O O2 0.730653 0.924308 0.441459
O O3 0.848827 0.913560 0.368088
O O4 0.750572 0.000000 0.351542
O O5 0.631557 0.713478 0.941822
O O6 0.500000 0.697038 0.000000
O O7 0.605491 0.614015 0.000000
O O8 0.250000 0.178679 0.750000
O O9 0.128806 0.203632 0.823293
O O10 0.105311 0.134617 0.733745
O O11 0.750000 0.250000 0.379555
O O12 0.610368 0.304876 0.371436
O O13 0.638132 0.500000 0.000000
O O14 0.000000 0.883735 0.352545
#
# Coordination Sequence:
#
# PCOD8285008 Si02
#       6
#    32  16  32  32  16  32
#     4  10  21  40  65  88 114 154 208 253 290 352
#     4  12  25  38  58  92 124 157 192 250 315 357
#     4  10  20  36  61  87 112 156 204 242 287 353
#     4  12  21  39  62  85 119 157 206 242 291 358
#     4  10  20  42  69  89 110 155 209 251 295 355
#     4  11  24  37  57  90 126 158 189 244 305 354
#
# _framework density 19.073136999999999
#
# number of rings (size 3 to 8) (size 9 to 14) (size 15 to 20)
#    0.000    1.200    6.000    1.500    0.000    7.400 
#    0.000    1.500    0.000    1.800    0.000    0.000 
#    0.000    0.000    0.000    0.000    0.000    0.000 
#
# Total GULP energy -496048.122663 kJ/mol
# GULP energy per Si atom -12401.203067 kJ/mol
# Density = 1.902973 g / cm^3
# Si number density = 19.073137 Si / 1000 Ang^3
#
#
#
# Elastic Constant Matrix: (Units=GPa)
#
#
# Indices 1 2 3 4 5 6 
#
# 1 56.4605 16.6852 3.3750 0.0000 0.0000 0.0000
# 2 16.6852 87.7962 38.2922 0.0000 0.0000 0.0000
# 3 3.3750 38.2922 110.7516 0.0000 0.0000 0.0000
# 4 0.0000 0.0000 0.0000 -8.8672 0.0000 0.0000
# 5 0.0000 0.0000 0.0000 0.0000 4.1088 0.0000
# 6 0.0000 0.0000 0.0000 0.0000 0.0000 16.9408
#
#
#
# Elastic Compliance Matrix: (Units=1/GPa)
#
#
# Indices 1 2 3 4 5 6 
#
# 1 0.018823 -0.003918 0.000781 0.000000 0.000000 0.000000
# 2 -0.003918 0.014228 -0.004800 0.000000 0.000000 0.000000
# 3 0.000781 -0.004800 0.010665 0.000000 0.000000 0.000000
# 4 0.000000 0.000000 0.000000 -0.112776 0.000000 0.000000
# 5 0.000000 0.000000 0.000000 0.000000 0.243383 0.000000
# 6 0.000000 0.000000 0.000000 0.000000 0.000000 0.059029
#
#
# Mechanical properties :
#
#
# Convention : Reuss Voigt Hill
#
# Bulk Modulus (GPa) = 35.91673 41.30146 38.60910
# Shear Modulus (GPa) = 19.34189 15.54686 17.44438
#
# Velocity S-wave (km/s) = 3.18793 2.85813 3.02752
# Velocity P-wave (km/s) = 5.69408 5.70904 5.70156
#
# Compressibility (1/GPa) = 0.02784218
#
# Stress axis : x y z
#
# Youngs Moduli (GPa) = 53.12762 70.28372 93.76473
#
# Poissons Ratio (x) = 0.27535 -0.07323
# Poissons Ratio (y) = 0.20814 0.45007
# Poissons Ratio (z) = -0.04149 0.33736
#
# Static dielectric constant tensor:
#      x y z
#    x 3.341090 0.000000 0.000000 
#    y 0.000000 3.650120 0.000000 
#    z 0.000000 0.000000 3.792080 
# 
# 
# High freq. dielectric constant tensor:
#      x y z
#    x 1.720910 0.000000 0.000000 
#    y 0.000000 1.746620 0.000000 
#    z 0.000000 0.000000 1.759680 
# 
# From -- ./inp_files/24659.got.cif
#   From: 2010.03.12/outbox.cif.g09.slc.cpg/sg69_13_cif.got.tgz:24659.got - 2010.04.10 23:52:46.
