data_PCOD8285470
_publ_section_title
;
Structure prediction by ZEFSAII (Michael W. Deem and Ramdas Pophale) SiO2 
 PCOD8285470
Probable space group: F M M M
;
_chemical_formula_sum "Si O2"
_cell_formula_units_Z 80
_cell_length_a 11.481837
_cell_length_b 15.015620
_cell_length_c 22.858039
_cell_angle_alpha 90.000000
_cell_angle_beta 90.000000
_cell_angle_gamma 90.000000
_cell_volume 3940.883674
_symmetry_space_group_name_H-M "F M M M"
_symmetry_group_IT_number 69
_symmetry_cell_setting 'orthorhombic'
loop_
_space_group_symop_operation_xyz
x,y,z
-x,-y,z
x,-y,-z
-x,y,-z
-x,-y,-z
x,y,-z
-x,y,z
x,-y,z
x,1/2+y,1/2+z
-x,1/2-y,1/2+z
x,1/2-y,1/2-z
-x,1/2+y,1/2-z
-x,1/2-y,1/2-z
x,1/2+y,1/2-z
-x,1/2+y,1/2+z
x,1/2-y,1/2+z
1/2+x,y,1/2+z
1/2-x,-y,1/2+z
1/2+x,-y,1/2-z
1/2-x,y,1/2-z
1/2-x,-y,1/2-z
1/2+x,y,1/2-z
1/2-x,y,1/2+z
1/2+x,-y,1/2+z
1/2+x,1/2+y,z
1/2-x,1/2-y,z
1/2+x,1/2-y,-z
1/2-x,1/2+y,-z
1/2-x,1/2-y,-z
1/2+x,1/2+y,-z
1/2-x,1/2+y,z
1/2+x,1/2-y,z
loop_
_atom_site_type_symbol
_atom_site_label
_atom_site_fract_x
_atom_site_fract_y
_atom_site_fract_z
Si Si1 0.864622 0.000000 0.114763
Si Si2 0.000000 0.128216 0.500000
Si Si3 0.500000 0.897415 0.123030
Si Si4 0.262832 0.148708 0.181126
Si Si5 0.709791 0.500000 0.500000
O O1 0.835943 0.911284 0.151420
O O2 0.791254 0.000000 0.056041
O O3 0.000000 0.000000 0.099040
O O4 0.000000 0.170751 0.565934
O O5 0.126651 0.084151 0.500000
O O6 0.610107 0.885009 0.163924
O O7 0.500000 0.000000 0.097796
O O8 0.250000 0.139591 0.250000
O O9 0.250000 0.250000 0.159990
#
# Coordination Sequence:
#
# PCOD8285470 Si02
#       5
#    16   8  16  32   8
#     4  12  25  42  65  95 134 166 209 270 330 376
#     4  11  16  38  70  92 118 165 230 269 294 380
#     4  12  21  41  71  90 123 171 228 262 310 383
#     4  11  26  42  64  97 131 171 215 262 322 383
#     4  11  19  42  64  96 123 169 212 266 322 379
#
# _framework density 20.300015999999999
#
# number of rings (size 3 to 8) (size 9 to 14) (size 15 to 20)
#    0.000    0.600    8.000    0.900    5.600    1.600 
#    0.000    4.000    0.000    0.000    0.000    0.000 
#    0.000    0.000    0.000    0.000    0.000    0.000 
#
# Total GULP energy -247802.061720 kJ/mol
# GULP energy per Si atom -12390.103086 kJ/mol
# Density = 2.025381 g / cm^3
# Si number density = 20.300016 Si / 1000 Ang^3
#
#
#
# Elastic Constant Matrix: (Units=GPa)
#
#
# Indices 1 2 3 4 5 6 
#
# 1 159.9410 29.4064 49.1024 0.0000 0.0000 0.0000
# 2 29.4064 106.3139 40.4717 0.0000 0.0000 0.0000
# 3 49.1024 40.4717 131.0928 0.0000 0.0000 0.0000
# 4 0.0000 0.0000 0.0000 -0.4474 0.0000 0.0000
# 5 0.0000 0.0000 0.0000 0.0000 14.3005 0.0000
# 6 0.0000 0.0000 0.0000 0.0000 0.0000 16.6664
#
#
#
# Elastic Compliance Matrix: (Units=1/GPa)
#
#
# Indices 1 2 3 4 5 6 
#
# 1 0.007174 -0.001089 -0.002351 0.000000 0.000000 0.000000
# 2 -0.001089 0.010824 -0.002934 0.000000 0.000000 0.000000
# 3 -0.002351 -0.002934 0.009414 0.000000 0.000000 0.000000
# 4 0.000000 0.000000 0.000000 -2.235252 0.000000 0.000000
# 5 0.000000 0.000000 0.000000 0.000000 0.069927 0.000000
# 6 0.000000 0.000000 0.000000 0.000000 0.000000 0.060001
#
#
# Mechanical properties :
#
#
# Convention : Reuss Voigt Hill
#
# Bulk Modulus (GPa) = 68.18959 70.58983 69.38971
# Shear Modulus (GPa) = -2.42686 24.66173 11.11743
#
# Velocity S-wave (km/s) = -1.09457 3.48927 2.34274
# Velocity P-wave (km/s) = 5.66272 7.14718 6.44781
#
# Compressibility (1/GPa) = 0.01466500
#
# Stress axis : x y z
#
# Youngs Moduli (GPa) = 139.38551 92.38519 106.21992
#
# Poissons Ratio (x) = 0.10065 0.24971
# Poissons Ratio (y) = 0.15186 0.31161
# Poissons Ratio (z) = 0.32768 0.27103
#
# Static dielectric constant tensor:
#      x y z
#    x 3.754330 0.000000 0.000000 
#    y 0.000000 3.820880 0.000000 
#    z 0.000000 0.000000 4.032040 
# 
# 
# High freq. dielectric constant tensor:
#      x y z
#    x 1.809720 0.000000 0.000000 
#    y 0.000000 1.759540 0.000000 
#    z 0.000000 0.000000 1.822490 
# 
# From -- ./inp_files/13130.got.cif
#   From: 2010.03.12/outbox.cif.g09.slc.cpg/sg69_7_cif.got.tgz:13130.got - 2010.04.10 23:52:46.
