data_PCOD8285641
_publ_section_title
;
Structure prediction by ZEFSAII (Michael W. Deem and Ramdas Pophale) SiO2 
 PCOD8285641
Probable space group: F M M M
;
_chemical_formula_sum "Si O2"
_cell_formula_units_Z 192
_cell_length_a 17.344327
_cell_length_b 32.066547
_cell_length_c 18.614349
_cell_angle_alpha 90.000000
_cell_angle_beta 90.000000
_cell_angle_gamma 90.000000
_cell_volume 10352.792313
_symmetry_space_group_name_H-M "F M M M"
_symmetry_group_IT_number 69
_symmetry_cell_setting 'orthorhombic'
loop_
_space_group_symop_operation_xyz
x,y,z
-x,-y,z
x,-y,-z
-x,y,-z
-x,-y,-z
x,y,-z
-x,y,z
x,-y,z
x,1/2+y,1/2+z
-x,1/2-y,1/2+z
x,1/2-y,1/2-z
-x,1/2+y,1/2-z
-x,1/2-y,1/2-z
x,1/2+y,1/2-z
-x,1/2+y,1/2+z
x,1/2-y,1/2+z
1/2+x,y,1/2+z
1/2-x,-y,1/2+z
1/2+x,-y,1/2-z
1/2-x,y,1/2-z
1/2-x,-y,1/2-z
1/2+x,y,1/2-z
1/2-x,y,1/2+z
1/2+x,-y,1/2+z
1/2+x,1/2+y,z
1/2-x,1/2-y,z
1/2+x,1/2-y,-z
1/2-x,1/2+y,-z
1/2-x,1/2-y,-z
1/2+x,1/2+y,-z
1/2-x,1/2+y,z
1/2+x,1/2-y,z
loop_
_atom_site_type_symbol
_atom_site_label
_atom_site_fract_x
_atom_site_fract_y
_atom_site_fract_z
Si Si1 0.825464 0.813618 0.080778
Si Si2 0.818602 0.079073 0.414650
Si Si3 0.146684 0.828890 0.581670
Si Si4 0.412537 0.000000 0.914199
Si Si5 0.350503 0.094767 0.414296
Si Si6 0.500000 0.547095 0.914263
Si Si7 0.412397 0.245466 0.832619
O O1 0.733786 0.813066 0.083244
O O2 0.857750 0.857391 0.111672
O O3 0.855535 0.775612 0.126260
O O4 0.855284 0.807152 0.000000
O O5 0.815792 0.077374 0.500000
O O6 0.857309 0.122996 0.391865
O O7 0.730411 0.075492 0.385572
O O8 0.869064 0.040946 0.383810
O O9 0.114300 0.824612 0.500000
O O10 0.097220 0.801542 0.637373
O O11 0.500000 0.000000 0.885270
O O12 0.411563 0.000000 0.000000
O O13 0.349446 0.093733 0.500000
O O14 0.423192 0.069233 0.383479
O O15 0.500000 0.500000 0.885948
O O16 0.500000 0.548808 0.000000
O O17 0.500000 0.259752 0.844617
O O18 0.389181 0.250000 0.750000
#
# Coordination Sequence:
#
# PCOD8285641 Si02
#       7
#    32  32  32  16  32  16  32
#     4   9  18  33  53  73  96 127 167 205 243 293
#     4   8  15  27  43  63  94 126 156 199 246 287
#     4   9  18  34  53  74  97 128 167 206 248 297
#     4   9  16  24  38  63  93 128 163 196 239 290
#     4   8  15  26  40  63  93 126 158 193 235 285
#     4   9  16  22  34  62  97 128 160 190 228 288
#     4  11  24  36  47  70 102 129 164 205 250 299
#
# _framework density 18.545721
#
# number of rings (size 3 to 8) (size 9 to 14) (size 15 to 20)
#    0.000    3.000    0.000    3.000    2.333    4.667 
#    0.000    1.667    0.000    0.000    0.000    0.000 
#    2.500    3.000    0.000    0.000    0.000    0.000 
#
# Total GULP energy -595000.503735 kJ/mol
# GULP energy per Si atom -12395.843828 kJ/mol
# Density = 1.850351 g / cm^3
# Si number density = 18.545721 Si / 1000 Ang^3
#
#
#
# Elastic Constant Matrix: (Units=GPa)
#
#
# Indices 1 2 3 4 5 6 
#
# 1 83.2107 60.8725 21.8960 0.0000 0.0000 0.0000
# 2 60.8725 137.0357 32.2962 0.0000 0.0000 0.0000
# 3 21.8960 32.2962 44.5954 0.0000 0.0000 0.0000
# 4 0.0000 0.0000 0.0000 0.6867 0.0000 0.0000
# 5 0.0000 0.0000 0.0000 0.0000 -8.7929 0.0000
# 6 0.0000 0.0000 0.0000 0.0000 0.0000 31.1489
#
#
#
# Elastic Compliance Matrix: (Units=1/GPa)
#
#
# Indices 1 2 3 4 5 6 
#
# 1 0.018305 -0.007251 -0.003737 0.000000 0.000000 0.000000
# 2 -0.007251 0.011671 -0.004892 0.000000 0.000000 0.000000
# 3 -0.003737 -0.004892 0.027802 0.000000 0.000000 0.000000
# 4 0.000000 0.000000 0.000000 1.456232 0.000000 0.000000
# 5 0.000000 0.000000 0.000000 0.000000 -0.113728 0.000000
# 6 0.000000 0.000000 0.000000 0.000000 0.000000 0.032104
#
#
# Mechanical properties :
#
#
# Convention : Reuss Voigt Hill
#
# Bulk Modulus (GPa) = 38.43413 54.99680 46.71547
# Shear Modulus (GPa) = 3.39485 14.59368 8.99427
#
# Velocity S-wave (km/s) = 1.35444 2.80822 2.20461
# Velocity P-wave (km/s) = 4.81819 6.34302 5.63245
#
# Compressibility (1/GPa) = 0.02601854
#
# Stress axis : x y z
#
# Youngs Moduli (GPa) = 54.62939 85.68113 35.96914
#
# Poissons Ratio (x) = 0.62124 0.13441
# Poissons Ratio (y) = 0.39610 0.17597
# Poissons Ratio (z) = 0.20414 0.41918
#
# Static dielectric constant tensor:
#      x y z
#    x 3.540210 0.000000 0.000000 
#    y 0.000000 3.687240 0.000000 
#    z 0.000000 0.000000 2.882920 
# 
# 
# High freq. dielectric constant tensor:
#      x y z
#    x 1.723140 0.000000 0.000000 
#    y 0.000000 1.731860 0.000000 
#    z 0.000000 0.000000 1.648750 
# 
# From -- ./inp_files/23708.got.cif
#   From: 2010.03.12/outbox.cif.g09.slc.cpg/sg69_12_cif.got.tgz:23708.got - 2010.04.10 23:52:46.
