data_PCOD8285486
_publ_section_title
;
Structure prediction by ZEFSAII (Michael W. Deem and Ramdas Pophale) SiO2 
 PCOD8285486
Probable space group: F M M M
;
_chemical_formula_sum "Si O2"
_cell_formula_units_Z 104
_cell_length_a 13.265814
_cell_length_b 22.712669
_cell_length_c 17.365834
_cell_angle_alpha 90.000000
_cell_angle_beta 90.000000
_cell_angle_gamma 90.000000
_cell_volume 5232.361252
_symmetry_space_group_name_H-M "F M M M"
_symmetry_group_IT_number 69
_symmetry_cell_setting 'orthorhombic'
loop_
_space_group_symop_operation_xyz
x,y,z
-x,-y,z
x,-y,-z
-x,y,-z
-x,-y,-z
x,y,-z
-x,y,z
x,-y,z
x,1/2+y,1/2+z
-x,1/2-y,1/2+z
x,1/2-y,1/2-z
-x,1/2+y,1/2-z
-x,1/2-y,1/2-z
x,1/2+y,1/2-z
-x,1/2+y,1/2+z
x,1/2-y,1/2+z
1/2+x,y,1/2+z
1/2-x,-y,1/2+z
1/2+x,-y,1/2-z
1/2-x,y,1/2-z
1/2-x,-y,1/2-z
1/2+x,y,1/2-z
1/2-x,y,1/2+z
1/2+x,-y,1/2+z
1/2+x,1/2+y,z
1/2-x,1/2-y,z
1/2+x,1/2-y,-z
1/2-x,1/2+y,-z
1/2-x,1/2-y,-z
1/2+x,1/2+y,-z
1/2-x,1/2+y,z
1/2+x,1/2-y,z
loop_
_atom_site_type_symbol
_atom_site_label
_atom_site_fract_x
_atom_site_fract_y
_atom_site_fract_z
Si Si1 0.500000 0.713127 0.124982
Si Si2 0.666774 0.700294 0.000000
Si Si3 0.106145 0.000000 0.866424
Si Si4 0.267377 0.000000 0.000000
Si Si5 0.500000 0.404138 0.783520
Si Si6 0.154391 0.877132 0.500000
Si Si7 0.500000 0.845373 0.872957
O O1 0.400091 0.704601 0.075345
O O2 0.500000 0.662934 0.188538
O O3 0.500000 0.778813 0.161355
O O4 0.750000 0.750000 0.000000
O O5 0.727040 0.638938 0.000000
O O6 0.200863 0.000000 0.922233
O O7 0.099840 0.941005 0.811708
O O8 0.000000 0.000000 0.915322
O O9 0.346257 0.947181 0.000000
O O10 0.500000 0.396366 0.691438
O O11 0.099592 0.852272 0.575385
#
# Coordination Sequence:
#
# PCOD8285486 Si02
#       7
#    16  16  16   8  16  16  16
#     4  11  20  36  63  90 118 158 200 243 300 343
#     4  11  19  37  60  88 117 154 195 254 287 338
#     4   8  21  40  60  88 111 152 189 253 293 344
#     4  12  21  39  64  88 114 146 218 246 282 358
#     4   9  21  37  63  81 122 156 191 242 312 346
#     4  11  24  38  63  87 117 157 206 246 293 346
#     4  11  22  41  56  87 123 161 199 240 292 367
#
# _framework density 19.876304000000001
#
# number of rings (size 3 to 8) (size 9 to 14) (size 15 to 20)
#    0.923    0.615    3.077    3.462    0.000    4.923 
#    0.000    7.692    0.000    0.000    0.000    0.000 
#    0.000    0.000    0.000    0.000    0.000    0.000 
#
# Total GULP energy -322141.095895 kJ/mol
# GULP energy per Si atom -12390.042150 kJ/mol
# Density = 1.983106 g / cm^3
# Si number density = 19.876304 Si / 1000 Ang^3
#
#
#
# Elastic Constant Matrix: (Units=GPa)
#
#
# Indices 1 2 3 4 5 6 
#
# 1 89.2811 27.2181 23.0384 0.0000 0.0000 0.0000
# 2 27.2181 156.0858 41.4698 0.0000 0.0000 0.0000
# 3 23.0384 41.4698 100.9622 0.0000 0.0000 0.0000
# 4 0.0000 0.0000 0.0000 31.4602 0.0000 0.0000
# 5 0.0000 0.0000 0.0000 0.0000 0.8165 0.0000
# 6 0.0000 0.0000 0.0000 0.0000 0.0000 32.1339
#
#
#
# Elastic Compliance Matrix: (Units=1/GPa)
#
#
# Indices 1 2 3 4 5 6 
#
# 1 0.012231 -0.001562 -0.002150 0.000000 0.000000 0.000000
# 2 -0.001562 0.007391 -0.002679 0.000000 0.000000 0.000000
# 3 -0.002150 -0.002679 0.011496 0.000000 0.000000 0.000000
# 4 0.000000 0.000000 0.000000 0.031786 0.000000 0.000000
# 5 0.000000 0.000000 0.000000 0.000000 1.224778 0.000000
# 6 0.000000 0.000000 0.000000 0.000000 0.000000 0.031120
#
#
# Mechanical properties :
#
#
# Convention : Reuss Voigt Hill
#
# Bulk Modulus (GPa) = 54.53585 58.86462 56.70023
# Shear Modulus (GPa) = 3.73777 29.85565 16.79671
#
# Velocity S-wave (km/s) = 1.37281 3.87986 2.91015
# Velocity P-wave (km/s) = 5.47814 7.05343 6.31510
#
# Compressibility (1/GPa) = 0.01833656
#
# Stress axis : x y z
#
# Youngs Moduli (GPa) = 81.75696 135.30042 86.98853
#
# Poissons Ratio (x) = 0.21131 0.18699
# Poissons Ratio (y) = 0.12769 0.23308
# Poissons Ratio (z) = 0.17574 0.36253
#
# Static dielectric constant tensor:
#      x y z
#    x 5.066640 0.000000 0.000000 
#    y 0.000000 3.947880 0.000000 
#    z 0.000000 0.000000 3.446280 
# 
# 
# High freq. dielectric constant tensor:
#      x y z
#    x 1.758630 0.000000 0.000000 
#    y 0.000000 1.798320 0.000000 
#    z 0.000000 0.000000 1.755570 
# 
# From -- ./inp_files/29737.got.cif
#   From: 2010.03.12/outbox.cif.g09.slc.cpg/sg69_15_cif.got.tgz:29737.got - 2010.04.10 23:52:46.
