data_PCOD8285652
_publ_section_title
;
Structure prediction by ZEFSAII (Michael W. Deem and Ramdas Pophale) SiO2 
 PCOD8285652
Probable space group: F M M M
;
_chemical_formula_sum "Si O2"
_cell_formula_units_Z 176
_cell_length_a 28.398308
_cell_length_b 17.170607
_cell_length_c 17.545344
_cell_angle_alpha 90.000000
_cell_angle_beta 90.000000
_cell_angle_gamma 90.000000
_cell_volume 8555.393726
_symmetry_space_group_name_H-M "F M M M"
_symmetry_group_IT_number 69
_symmetry_cell_setting 'orthorhombic'
loop_
_space_group_symop_operation_xyz
x,y,z
-x,-y,z
x,-y,-z
-x,y,-z
-x,-y,-z
x,y,-z
-x,y,z
x,-y,z
x,1/2+y,1/2+z
-x,1/2-y,1/2+z
x,1/2-y,1/2-z
-x,1/2+y,1/2-z
-x,1/2-y,1/2-z
x,1/2+y,1/2-z
-x,1/2+y,1/2+z
x,1/2-y,1/2+z
1/2+x,y,1/2+z
1/2-x,-y,1/2+z
1/2+x,-y,1/2-z
1/2-x,y,1/2-z
1/2-x,-y,1/2-z
1/2+x,y,1/2-z
1/2-x,y,1/2+z
1/2+x,-y,1/2+z
1/2+x,1/2+y,z
1/2-x,1/2-y,z
1/2+x,1/2-y,-z
1/2-x,1/2+y,-z
1/2-x,1/2-y,-z
1/2+x,1/2+y,-z
1/2-x,1/2+y,z
1/2+x,1/2-y,z
loop_
_atom_site_type_symbol
_atom_site_label
_atom_site_fract_x
_atom_site_fract_y
_atom_site_fract_z
Si Si1 0.200416 0.151254 0.587550
Si Si2 0.555082 0.500000 0.915799
Si Si3 0.898040 0.139800 0.166529
Si Si4 0.611319 0.909227 0.836363
Si Si5 0.945306 0.216611 0.411758
Si Si6 0.694270 0.166117 0.587343
O O1 0.193744 0.125791 0.500000
O O2 0.165908 0.100824 0.640116
O O3 0.254261 0.136601 0.613671
O O4 0.188748 0.241718 0.597186
O O5 0.500000 0.500000 0.925138
O O6 0.568631 0.576105 0.869924
O O7 0.578500 0.500000 0.000000
O O8 0.898936 0.133183 0.256934
O O9 0.917110 0.223475 0.141051
O O10 0.844579 0.124658 0.139189
O O11 0.577138 0.868645 0.898190
O O12 0.598816 0.000000 0.831493
O O13 0.938544 0.239858 0.500000
O O14 0.000000 0.215632 0.388985
O O15 0.685727 0.142731 0.500000
#
# Coordination Sequence:
#
# PCOD8285652 Si02
#       6
#    32  16  32  32  32  32
#     4   9  19  38  64  95 127 167 216 261 313 377
#     4  11  24  42  66  93 127 171 213 264 325 382
#     4  12  23  42  65  98 132 165 212 267 326 388
#     4  12  26  43  61  95 140 178 210 256 325 391
#     4  11  25  45  71  97 121 163 222 277 325 382
#     4   9  18  36  67  97 123 162 215 269 314 370
#
# _framework density 20.571816999999999
#
# number of rings (size 3 to 8) (size 9 to 14) (size 15 to 20)
#    0.000    1.364    2.727    4.364    0.000    6.182 
#    1.636    3.636    0.000    0.000    0.000    0.000 
#    0.000    0.000    0.000    0.000    0.000    0.000 
#
# Total GULP energy -545752.140982 kJ/mol
# GULP energy per Si atom -12403.457750 kJ/mol
# Density = 2.052499 g / cm^3
# Si number density = 20.571817 Si / 1000 Ang^3
#
#
#
# Elastic Constant Matrix: (Units=GPa)
#
#
# Indices 1 2 3 4 5 6 
#
# 1 128.2677 40.3586 42.5261 0.0000 0.0000 0.0000
# 2 40.3586 87.6600 36.8951 0.0000 0.0000 0.0000
# 3 42.5261 36.8951 88.0541 0.0000 0.0000 0.0000
# 4 0.0000 0.0000 0.0000 31.6778 0.0000 0.0000
# 5 0.0000 0.0000 0.0000 0.0000 17.4127 0.0000
# 6 0.0000 0.0000 0.0000 0.0000 0.0000 31.7555
#
#
#
# Elastic Compliance Matrix: (Units=1/GPa)
#
#
# Indices 1 2 3 4 5 6 
#
# 1 0.009931 -0.003100 -0.003497 0.000000 0.000000 0.000000
# 2 -0.003100 0.014818 -0.004712 0.000000 0.000000 0.000000
# 3 -0.003497 -0.004712 0.015020 0.000000 0.000000 0.000000
# 4 0.000000 0.000000 0.000000 0.031568 0.000000 0.000000
# 5 0.000000 0.000000 0.000000 0.000000 0.057429 0.000000
# 6 0.000000 0.000000 0.000000 0.000000 0.000000 0.031491
#
#
# Mechanical properties :
#
#
# Convention : Reuss Voigt Hill
#
# Bulk Modulus (GPa) = 58.30611 60.39348 59.34980
# Shear Modulus (GPa) = 26.51223 28.44933 27.48078
#
# Velocity S-wave (km/s) = 3.59383 3.72281 3.65889
# Velocity P-wave (km/s) = 6.75463 6.92100 6.83832
#
# Compressibility (1/GPa) = 0.01715086
#
# Stress axis : x y z
#
# Youngs Moduli (GPa) = 100.69295 67.48473 66.57870
#
# Poissons Ratio (x) = 0.20923 0.23284
# Poissons Ratio (y) = 0.31218 0.31369
# Poissons Ratio (z) = 0.35215 0.31796
#
# Static dielectric constant tensor:
#      x y z
#    x 3.929970 0.000000 0.000000 
#    y 0.000000 3.641300 0.000000 
#    z 0.000000 0.000000 3.682950 
# 
# 
# High freq. dielectric constant tensor:
#      x y z
#    x 1.819570 0.000000 0.000000 
#    y 0.000000 1.788690 0.000000 
#    z 0.000000 0.000000 1.802190 
# 
# From -- ./inp_files/27662.got.cif
#   From: 2010.03.12/outbox.cif.g09.slc.cpg/sg69_14_cif.got.tgz:27662.got - 2010.04.10 23:52:46.
