data_PCOD8285005
_publ_section_title
;
Structure prediction by ZEFSAII (Michael W. Deem and Ramdas Pophale) SiO2 
 PCOD8285005
Probable space group: F M M M
;
_chemical_formula_sum "Si O2"
_cell_formula_units_Z 112
_cell_length_a 13.977775
_cell_length_b 18.113439
_cell_length_c 22.395096
_cell_angle_alpha 90.000000
_cell_angle_beta 90.000000
_cell_angle_gamma 90.000000
_cell_volume 5670.115254
_symmetry_space_group_name_H-M "F M M M"
_symmetry_group_IT_number 69
_symmetry_cell_setting 'orthorhombic'
loop_
_space_group_symop_operation_xyz
x,y,z
-x,-y,z
x,-y,-z
-x,y,-z
-x,-y,-z
x,y,-z
-x,y,z
x,-y,z
x,1/2+y,1/2+z
-x,1/2-y,1/2+z
x,1/2-y,1/2-z
-x,1/2+y,1/2-z
-x,1/2-y,1/2-z
x,1/2+y,1/2-z
-x,1/2+y,1/2+z
x,1/2-y,1/2+z
1/2+x,y,1/2+z
1/2-x,-y,1/2+z
1/2+x,-y,1/2-z
1/2-x,y,1/2-z
1/2-x,-y,1/2-z
1/2+x,y,1/2-z
1/2-x,y,1/2+z
1/2+x,-y,1/2+z
1/2+x,1/2+y,z
1/2-x,1/2-y,z
1/2+x,1/2-y,-z
1/2-x,1/2+y,-z
1/2-x,1/2-y,-z
1/2+x,1/2+y,-z
1/2-x,1/2+y,z
1/2+x,1/2-y,z
loop_
_atom_site_type_symbol
_atom_site_label
_atom_site_fract_x
_atom_site_fract_y
_atom_site_fract_z
Si Si1 0.890367 0.585895 0.160900
Si Si2 0.891758 0.829841 0.222266
Si Si3 0.727432 0.333116 0.896796
Si Si4 0.387015 0.587295 0.000000
O O1 0.870895 0.500000 0.155848
O O2 0.862504 0.610754 0.227746
O O3 0.828903 0.625948 0.109778
O O4 0.000000 0.607308 0.147832
O O5 0.878273 0.750000 0.250000
O O6 0.822432 0.837092 0.166963
O O7 0.000000 0.842652 0.200160
O O8 0.750000 0.250000 0.918217
O O9 0.659860 0.375405 0.942521
O O10 0.366265 0.500000 0.000000
O O11 0.500000 0.603384 0.000000
#
# Coordination Sequence:
#
# PCOD8285005 Si02
#       4
#    32  32  32  16
#     4  10  22  38  59  92 130 165 204 253 310 371
#     4  10  20  36  60  93 130 163 198 246 307 371
#     4  12  23  39  66  93 121 162 209 259 309 370
#     4  11  27  48  65  87 121 163 214 265 310 364
#
# _framework density 19.752686000000001
#
# number of rings (size 3 to 8) (size 9 to 14) (size 15 to 20)
#    0.000    1.286    2.857    3.000    0.000    4.571 
#    0.000    3.571    0.000    2.571    0.000    0.000 
#    0.000    0.000    0.000    0.000    0.000    0.000 
#
# Total GULP energy -347286.027961 kJ/mol
# GULP energy per Si atom -12403.072427 kJ/mol
# Density = 1.970773 g / cm^3
# Si number density = 19.752686 Si / 1000 Ang^3
#
#
#
# Elastic Constant Matrix: (Units=GPa)
#
#
# Indices 1 2 3 4 5 6 
#
# 1 117.4108 63.1938 55.0865 0.0000 0.0000 0.0000
# 2 63.1938 117.1839 39.5321 0.0000 0.0000 0.0000
# 3 55.0865 39.5321 66.2568 0.0000 0.0000 0.0000
# 4 0.0000 0.0000 0.0000 37.4425 0.0000 0.0000
# 5 0.0000 0.0000 0.0000 0.0000 33.4146 0.0000
# 6 0.0000 0.0000 0.0000 0.0000 0.0000 30.0024
#
#
#
# Elastic Compliance Matrix: (Units=1/GPa)
#
#
# Indices 1 2 3 4 5 6 
#
# 1 0.016185 -0.005244 -0.010327 0.000000 0.000000 0.000000
# 2 -0.005244 0.012383 -0.003028 0.000000 0.000000 0.000000
# 3 -0.010327 -0.003028 0.025486 0.000000 0.000000 0.000000
# 4 0.000000 0.000000 0.000000 0.026708 0.000000 0.000000
# 5 0.000000 0.000000 0.000000 0.000000 0.029927 0.000000
# 6 0.000000 0.000000 0.000000 0.000000 0.000000 0.033331
#
#
# Mechanical properties :
#
#
# Convention : Reuss Voigt Hill
#
# Bulk Modulus (GPa) = 59.33221 68.49738 63.91479
# Shear Modulus (GPa) = 26.76116 29.70784 28.23450
#
# Velocity S-wave (km/s) = 3.68477 3.88234 3.78484
# Velocity P-wave (km/s) = 6.94306 7.40605 7.17829
#
# Compressibility (1/GPa) = 0.01685425
#
# Stress axis : x y z
#
# Youngs Moduli (GPa) = 61.78534 80.75424 39.23712
#
# Poissons Ratio (x) = 0.42349 0.40522
# Poissons Ratio (y) = 0.32401 0.11883
# Poissons Ratio (z) = 0.63809 0.24456
#
# Static dielectric constant tensor:
#      x y z
#    x 3.932180 0.000000 0.000000 
#    y 0.000000 3.767360 0.000000 
#    z 0.000000 0.000000 2.336350 
# 
# 
# High freq. dielectric constant tensor:
#      x y z
#    x 1.792800 0.000000 0.000000 
#    y 0.000000 1.781120 0.000000 
#    z 0.000000 0.000000 1.751370 
# 
# From -- ./inp_files/14068.got.cif
#   From: 2010.03.12/outbox.cif.g09.slc.cpg/sg69_8_cif.got.tgz:14068.got - 2010.04.10 23:52:46.
