data_PCOD8285843
_publ_section_title
;
Structure prediction by ZEFSAII (Michael W. Deem and Ramdas Pophale) SiO2 
 PCOD8285843
Probable space group: F D D D
;
_chemical_formula_sum "Si O2"
_cell_formula_units_Z 160
_cell_length_a 26.349819
_cell_length_b 14.767612
_cell_length_c 24.541690
_cell_angle_alpha 90.000000
_cell_angle_beta 90.000000
_cell_angle_gamma 90.000000
_cell_volume 9549.758205
_symmetry_space_group_name_H-M "F D D D"
_symmetry_group_IT_number 70
_space_group.IT_coordinate_system_code '2'
_symmetry_cell_setting 'orthorhombic'
loop_
_space_group_symop_operation_xyz
x,y,z
1/4-x,1/4-y,z
x,1/4-y,1/4-z
1/4-x,y,1/4-z
-x,-y,-z
3/4+x,3/4+y,-z
-x,3/4+y,3/4+z
3/4+x,-y,3/4+z
x,1/2+y,1/2+z
1/4-x,3/4-y,1/2+z
x,3/4-y,3/4-z
1/4-x,1/2+y,3/4-z
-x,1/2-y,1/2-z
3/4+x,1/4+y,1/2-z
-x,1/4+y,1/4+z
3/4+x,1/2-y,1/4+z
1/2+x,y,1/2+z
3/4-x,1/4-y,1/2+z
1/2+x,1/4-y,3/4-z
3/4-x,y,3/4-z
1/2-x,-y,1/2-z
1/4+x,3/4+y,1/2-z
1/2-x,3/4+y,1/4+z
1/4+x,-y,1/4+z
1/2+x,1/2+y,z
3/4-x,3/4-y,z
1/2+x,3/4-y,1/4-z
3/4-x,1/2+y,1/4-z
1/2-x,1/2-y,-z
1/4+x,1/4+y,-z
1/2-x,1/4+y,3/4+z
1/4+x,1/2-y,3/4+z
loop_
_atom_site_type_symbol
_atom_site_label
_atom_site_fract_x
_atom_site_fract_y
_atom_site_fract_z
Si Si1 0.625000 0.323852 0.625000
Si Si2 0.672681 0.457504 0.416598
Si Si3 0.284656 0.455896 0.915806
Si Si4 0.298882 0.398619 0.727751
Si Si5 0.319224 0.093168 0.270163
Si Si6 0.625000 0.125000 0.385560
O O1 0.673989 0.268738 0.640639
O O2 0.644866 0.374411 0.570892
O O3 0.666724 0.375000 0.375000
O O4 0.729128 0.502183 0.417398
O O5 0.663932 0.417480 0.476476
O O6 0.632608 0.536620 0.402601
O O7 0.276345 0.375000 0.875000
O O8 0.304800 0.423696 0.974202
O O9 0.327124 0.491923 0.745842
O O10 0.239812 0.407979 0.712891
O O11 0.325922 0.360873 0.673828
#
# Coordination Sequence:
#
# PCOD8285843 Si02
#       6
#    16  32  32  32  32  16
#     4  12  19  28  52  81 106 134 172 199 260 329
#     4  10  21  36  49  73 110 140 172 211 257 307
#     4  10  19  29  47  78 115 134 154 203 269 334
#     4  10  19  31  49  79 109 136 161 207 274 328
#     4  10  20  33  49  76 112 134 165 217 266 314
#     4  12  20  32  57  75  98 148 180 204 252 322
#
# _framework density 16.754351
#
# number of rings (size 3 to 8) (size 9 to 14) (size 15 to 20)
#    0.000    1.600    4.000    2.700    0.000    0.000 
#    0.000    0.000    0.000    5.400    0.000    0.000 
#    0.000    0.000    0.000    0.000    0.000    0.000 
#
# Total GULP energy -495564.302320 kJ/mol
# GULP energy per Si atom -12389.107558 kJ/mol
# Density = 1.671622 g / cm^3
# Si number density = 16.754351 Si / 1000 Ang^3
#
#
#
# Elastic Constant Matrix: (Units=GPa)
#
#
# Indices 1 2 3 4 5 6 
#
# 1 64.5847 36.9840 48.5573 0.0000 0.0000 0.0000
# 2 36.9840 66.5986 42.6915 0.0000 0.0000 0.0000
# 3 48.5573 42.6915 106.9097 0.0000 0.0000 0.0000
# 4 0.0000 0.0000 0.0000 20.7757 0.0000 0.0000
# 5 0.0000 0.0000 0.0000 0.0000 31.8077 0.0000
# 6 0.0000 0.0000 0.0000 0.0000 0.0000 12.8084
#
#
#
# Elastic Compliance Matrix: (Units=1/GPa)
#
#
# Indices 1 2 3 4 5 6 
#
# 1 0.027561 -0.009786 -0.008610 0.000000 0.000000 0.000000
# 2 -0.009786 0.023656 -0.005002 0.000000 0.000000 0.000000
# 3 -0.008610 -0.005002 0.015262 0.000000 0.000000 0.000000
# 4 0.000000 0.000000 0.000000 0.048133 0.000000 0.000000
# 5 0.000000 0.000000 0.000000 0.000000 0.031439 0.000000
# 6 0.000000 0.000000 0.000000 0.000000 0.000000 0.078074
#
#
# Mechanical properties :
#
#
# Convention : Reuss Voigt Hill
#
# Bulk Modulus (GPa) = 50.80551 54.95095 52.87823
# Shear Modulus (GPa) = 18.01929 20.40237 19.21083
#
# Velocity S-wave (km/s) = 3.28304 3.49339 3.38985
# Velocity P-wave (km/s) = 6.69035 7.01006 6.85207
#
# Compressibility (1/GPa) = 0.01968290
#
# Stress axis : x y z
#
# Youngs Moduli (GPa) = 36.28340 42.27273 65.52399
#
# Poissons Ratio (x) = 0.41368 0.56417
# Poissons Ratio (y) = 0.35507 0.32773
# Poissons Ratio (z) = 0.31240 0.21143
#
# Static dielectric constant tensor:
#      x y z
#    x 3.201920 0.000000 0.000000 
#    y 0.000000 2.766400 0.000000 
#    z 0.000000 0.000000 3.485410 
# 
# 
# High freq. dielectric constant tensor:
#      x y z
#    x 1.649790 0.000000 0.000000 
#    y 0.000000 1.589660 0.000000 
#    z 0.000000 0.000000 1.658880 
# 
# From -- ./inp_files/21119.got.cif
#   From: 2010.03.12/outbox.cif.g09.slc.cpg/sg70_11_cif.got.tgz:21119.got - 2010.04.16 13:46:32.
