data_PCOD8285495
_publ_section_title
;
Structure prediction by ZEFSAII (Michael W. Deem and Ramdas Pophale) SiO2 
 PCOD8285495
Probable space group: F M M M
;
_chemical_formula_sum "Si O2"
_cell_formula_units_Z 120
_cell_length_a 13.488057
_cell_length_b 22.380076
_cell_length_c 27.259060
_cell_angle_alpha 90.000000
_cell_angle_beta 90.000000
_cell_angle_gamma 90.000000
_cell_volume 8228.521821
_symmetry_space_group_name_H-M "F M M M"
_symmetry_group_IT_number 69
_symmetry_cell_setting 'orthorhombic'
loop_
_space_group_symop_operation_xyz
x,y,z
-x,-y,z
x,-y,-z
-x,y,-z
-x,-y,-z
x,y,-z
-x,y,z
x,-y,z
x,1/2+y,1/2+z
-x,1/2-y,1/2+z
x,1/2-y,1/2-z
-x,1/2+y,1/2-z
-x,1/2-y,1/2-z
x,1/2+y,1/2-z
-x,1/2+y,1/2+z
x,1/2-y,1/2+z
1/2+x,y,1/2+z
1/2-x,-y,1/2+z
1/2+x,-y,1/2-z
1/2-x,y,1/2-z
1/2-x,-y,1/2-z
1/2+x,y,1/2-z
1/2-x,y,1/2+z
1/2+x,-y,1/2+z
1/2+x,1/2+y,z
1/2-x,1/2-y,z
1/2+x,1/2-y,-z
1/2-x,1/2+y,-z
1/2-x,1/2-y,-z
1/2+x,1/2+y,-z
1/2-x,1/2+y,z
1/2+x,1/2-y,z
loop_
_atom_site_type_symbol
_atom_site_label
_atom_site_fract_x
_atom_site_fract_y
_atom_site_fract_z
Si Si1 0.881834 0.500000 0.444023
Si Si2 0.389174 0.068610 0.808257
Si Si3 0.250000 0.750000 0.750000
Si Si4 0.305865 0.565473 0.140783
Si Si5 0.387121 0.848983 0.716703
O O1 0.846214 0.500000 0.500000
O O2 0.836463 0.440728 0.416848
O O3 0.000000 0.500000 0.439560
O O4 0.500000 0.085359 0.826725
O O5 0.311119 0.081060 0.852227
O O6 0.356688 0.109375 0.762488
O O7 0.386305 0.000000 0.790811
O O8 0.318826 0.790382 0.715134
O O9 0.326324 0.500000 0.165329
O O10 0.373838 0.614748 0.166366
O O11 0.500000 0.827853 0.720709
#
# Coordination Sequence:
#
# PCOD8285495 Si02
#       5
#    16  32   8  32  32
#     4   9  18  30  46  71  95 111 136 184 240 285
#     4   9  16  27  45  67  90 115 150 184 217 269
#     4  12  22  32  38  58  98 132 162 190 200 250
#     4   9  17  29  48  67  90 117 146 181 231 278
#     4  11  20  30  43  63  92 127 157 186 218 257
#
# _framework density 14.583421
#
# number of rings (size 3 to 8) (size 9 to 14) (size 15 to 20)
#    0.800    1.467    2.667    2.000    0.000    3.200 
#    0.000    0.000    0.000    1.600    0.000    0.933 
#    0.000    0.000    0.000    0.000    0.000    0.000 
#
# Total GULP energy -371709.758503 kJ/mol
# GULP energy per Si atom -12390.325283 kJ/mol
# Density = 1.455023 g / cm^3
# Si number density = 14.583421 Si / 1000 Ang^3
#
#
#
# Elastic Constant Matrix: (Units=GPa)
#
#
# Indices 1 2 3 4 5 6 
#
# 1 93.5135 38.0031 47.9690 0.0000 0.0000 0.0000
# 2 38.0031 63.0197 29.9819 0.0000 0.0000 0.0000
# 3 47.9690 29.9819 102.4439 0.0000 0.0000 0.0000
# 4 0.0000 0.0000 0.0000 5.8845 0.0000 0.0000
# 5 0.0000 0.0000 0.0000 0.0000 18.7872 0.0000
# 6 0.0000 0.0000 0.0000 0.0000 0.0000 24.3296
#
#
#
# Elastic Compliance Matrix: (Units=1/GPa)
#
#
# Indices 1 2 3 4 5 6 
#
# 1 0.016538 -0.007306 -0.005606 0.000000 0.000000 0.000000
# 2 -0.007306 0.021663 -0.002919 0.000000 0.000000 0.000000
# 3 -0.005606 -0.002919 0.013241 0.000000 0.000000 0.000000
# 4 0.000000 0.000000 0.000000 0.169937 0.000000 0.000000
# 5 0.000000 0.000000 0.000000 0.000000 0.053228 0.000000
# 6 0.000000 0.000000 0.000000 0.000000 0.000000 0.041102
#
#
# Mechanical properties :
#
#
# Convention : Reuss Voigt Hill
#
# Bulk Modulus (GPa) = 50.55624 54.54278 52.54951
# Shear Modulus (GPa) = 14.12575 19.33515 16.73045
#
# Velocity S-wave (km/s) = 3.11564 3.64515 3.39074
# Velocity P-wave (km/s) = 6.90544 7.42953 7.17227
#
# Compressibility (1/GPa) = 0.01977995
#
# Stress axis : x y z
#
# Youngs Moduli (GPa) = 60.46538 46.16245 75.52562
#
# Poissons Ratio (x) = 0.33728 0.42338
# Poissons Ratio (y) = 0.44178 0.22044
# Poissons Ratio (z) = 0.33895 0.13474
#
# Static dielectric constant tensor:
#      x y z
#    x 3.054870 0.000000 0.000000 
#    y 0.000000 2.722110 0.000000 
#    z 0.000000 0.000000 2.499200 
# 
# 
# High freq. dielectric constant tensor:
#      x y z
#    x 1.581970 0.000000 0.000000 
#    y 0.000000 1.538090 0.000000 
#    z 0.000000 0.000000 1.502320 
# 
# From -- ./inp_files/40864.got.cif
#   From: 2010.03.12/outbox.cif.g09.slc.cpg/sg69_21_cif.got.tgz:40864.got - 2010.04.10 23:52:46.
