data_PCOD8285076
_publ_section_title
;
Structure prediction by ZEFSAII (Michael W. Deem and Ramdas Pophale) SiO2 
 PCOD8285076
Probable space group: F M M M
;
_chemical_formula_sum "Si O2"
_cell_formula_units_Z 160
_cell_length_a 16.875120
_cell_length_b 24.390835
_cell_length_c 20.446892
_cell_angle_alpha 90.000000
_cell_angle_beta 90.000000
_cell_angle_gamma 90.000000
_cell_volume 8415.905323
_symmetry_space_group_name_H-M "F M M M"
_symmetry_group_IT_number 69
_symmetry_cell_setting 'orthorhombic'
loop_
_space_group_symop_operation_xyz
x,y,z
-x,-y,z
x,-y,-z
-x,y,-z
-x,-y,-z
x,y,-z
-x,y,z
x,-y,z
x,1/2+y,1/2+z
-x,1/2-y,1/2+z
x,1/2-y,1/2-z
-x,1/2+y,1/2-z
-x,1/2-y,1/2-z
x,1/2+y,1/2-z
-x,1/2+y,1/2+z
x,1/2-y,1/2+z
1/2+x,y,1/2+z
1/2-x,-y,1/2+z
1/2+x,-y,1/2-z
1/2-x,y,1/2-z
1/2-x,-y,1/2-z
1/2+x,y,1/2-z
1/2-x,y,1/2+z
1/2+x,-y,1/2+z
1/2+x,1/2+y,z
1/2-x,1/2-y,z
1/2+x,1/2-y,-z
1/2-x,1/2+y,-z
1/2-x,1/2-y,-z
1/2+x,1/2+y,-z
1/2-x,1/2+y,z
1/2+x,1/2-y,z
loop_
_atom_site_type_symbol
_atom_site_label
_atom_site_fract_x
_atom_site_fract_y
_atom_site_fract_z
Si Si1 0.909005 0.215536 0.188335
Si Si2 0.845553 0.500000 0.746008
Si Si3 0.698064 0.900285 0.926893
Si Si4 0.189441 0.106675 0.191233
Si Si5 0.907173 0.500000 0.109699
Si Si6 0.334903 0.224384 0.925409
O O1 0.875509 0.250000 0.250000
O O2 0.861771 0.159853 0.178890
O O3 0.900628 0.250418 0.122125
O O4 0.000000 0.200751 0.200370
O O5 0.750000 0.500000 0.750000
O O6 0.869105 0.444065 0.708641
O O7 0.890749 0.500000 0.813764
O O8 0.766221 0.911950 0.874633
O O9 0.662173 0.840462 0.913350
O O10 0.629317 0.945392 0.921964
O O11 0.734839 0.902200 0.000000
O O12 0.250000 0.118836 0.250000
O O13 0.000000 0.500000 0.094888
O O14 0.250000 0.250000 0.906314
O O15 0.356476 0.239456 0.000000
#
# Coordination Sequence:
#
# PCOD8285076 Si02
#       6
#    32  16  32  32  16  32
#     4  11  25  38  57  92 125 156 201 257 312 359
#     4  10  20  38  62  85 111 157 202 241 293 354
#     4  11  22  38  63  92 121 159 206 250 298 366
#     4  11  20  39  64  84 117 161 203 249 300 359
#     4  12  25  41  62  92 130 166 201 252 317 378
#     4  10  21  39  63  89 119 160 205 245 298 366
#
# _framework density 19.011621000000002
#
# number of rings (size 3 to 8) (size 9 to 14) (size 15 to 20)
#    0.000    1.200    6.000    1.500    0.000    2.800 
#    0.000    2.000    0.000    0.000    0.000    0.000 
#    0.000    5.600    0.000    0.000    0.000    0.000 
#
# Total GULP energy -496042.049655 kJ/mol
# GULP energy per Si atom -12401.051241 kJ/mol
# Density = 1.896835 g / cm^3
# Si number density = 19.011621 Si / 1000 Ang^3
#
#
#
# Elastic Constant Matrix: (Units=GPa)
#
#
# Indices 1 2 3 4 5 6 
#
# 1 57.3091 36.0555 24.1482 0.0000 0.0000 0.0000
# 2 36.0555 147.1648 42.3914 0.0000 0.0000 0.0000
# 3 24.1482 42.3914 123.1444 0.0000 0.0000 0.0000
# 4 0.0000 0.0000 0.0000 34.4603 0.0000 0.0000
# 5 0.0000 0.0000 0.0000 0.0000 20.9878 0.0000
# 6 0.0000 0.0000 0.0000 0.0000 0.0000 14.5693
#
#
#
# Elastic Compliance Matrix: (Units=1/GPa)
#
#
# Indices 1 2 3 4 5 6 
#
# 1 0.021382 -0.004475 -0.002653 0.000000 0.000000 0.000000
# 2 -0.004475 0.008479 -0.002042 0.000000 0.000000 0.000000
# 3 -0.002653 -0.002042 0.009344 0.000000 0.000000 0.000000
# 4 0.000000 0.000000 0.000000 0.029019 0.000000 0.000000
# 5 0.000000 0.000000 0.000000 0.000000 0.047647 0.000000
# 6 0.000000 0.000000 0.000000 0.000000 0.000000 0.068637
#
#
# Mechanical properties :
#
#
# Convention : Reuss Voigt Hill
#
# Bulk Modulus (GPa) = 47.92113 59.20095 53.56104
# Shear Modulus (GPa) = 23.83208 29.00504 26.41856
#
# Velocity S-wave (km/s) = 3.54440 3.91019 3.73178
# Velocity P-wave (km/s) = 6.48161 7.18283 6.84121
#
# Compressibility (1/GPa) = 0.02086762
#
# Stress axis : x y z
#
# Youngs Moduli (GPa) = 46.76810 117.93235 107.02627
#
# Poissons Ratio (x) = 0.52769 0.28390
# Poissons Ratio (y) = 0.20927 0.21850
# Poissons Ratio (z) = 0.12406 0.24076
#
# Static dielectric constant tensor:
#      x y z
#    x 3.120580 0.000000 0.000000 
#    y 0.000000 3.918150 0.000000 
#    z 0.000000 0.000000 3.678710 
# 
# 
# High freq. dielectric constant tensor:
#      x y z
#    x 1.699260 0.000000 0.000000 
#    y 0.000000 1.763150 0.000000 
#    z 0.000000 0.000000 1.753940 
# 
# From -- ./inp_files/30812.got.cif
#   From: 2010.03.12/outbox.cif.g09.slc.cpg/sg69_16_cif.got.tgz:30812.got - 2010.04.10 23:52:46.
