data_PCOD8285978
_publ_section_title
;
Structure prediction by ZEFSAII (Michael W. Deem and Ramdas Pophale) SiO2 
 PCOD8285978
Probable space group: F D D D
;
_chemical_formula_sum "Si O2"
_cell_formula_units_Z 128
_cell_length_a 6.654644
_cell_length_b 30.682232
_cell_length_c 24.058737
_cell_angle_alpha 90.000000
_cell_angle_beta 90.000000
_cell_angle_gamma 90.000000
_cell_volume 4912.296827
_symmetry_space_group_name_H-M "F D D D"
_symmetry_group_IT_number 70
_space_group.IT_coordinate_system_code '2'
_symmetry_cell_setting 'orthorhombic'
loop_
_space_group_symop_operation_xyz
x,y,z
1/4-x,1/4-y,z
x,1/4-y,1/4-z
1/4-x,y,1/4-z
-x,-y,-z
3/4+x,3/4+y,-z
-x,3/4+y,3/4+z
3/4+x,-y,3/4+z
x,1/2+y,1/2+z
1/4-x,3/4-y,1/2+z
x,3/4-y,3/4-z
1/4-x,1/2+y,3/4-z
-x,1/2-y,1/2-z
3/4+x,1/4+y,1/2-z
-x,1/4+y,1/4+z
3/4+x,1/2-y,1/4+z
1/2+x,y,1/2+z
3/4-x,1/4-y,1/2+z
1/2+x,1/4-y,3/4-z
3/4-x,y,3/4-z
1/2-x,-y,1/2-z
1/4+x,3/4+y,1/2-z
1/2-x,3/4+y,1/4+z
1/4+x,-y,1/4+z
1/2+x,1/2+y,z
3/4-x,3/4-y,z
1/2+x,3/4-y,1/4-z
3/4-x,1/2+y,1/4-z
1/2-x,1/2-y,-z
1/4+x,1/4+y,-z
1/2-x,1/4+y,3/4+z
1/4+x,1/2-y,3/4+z
loop_
_atom_site_type_symbol
_atom_site_label
_atom_site_fract_x
_atom_site_fract_y
_atom_site_fract_z
Si Si1 0.345296 0.573864 0.119893
Si Si2 0.790049 0.037849 0.007264
Si Si3 0.064752 0.805496 0.987147
Si Si4 0.100538 0.383689 0.690361
O O1 0.327758 0.625000 0.125000
O O2 0.125000 0.552204 0.125000
O O3 0.487816 0.560989 0.171400
O O4 0.415666 0.557236 0.059619
O O5 0.892162 0.065820 0.956992
O O6 0.824822 0.985598 0.004834
O O7 0.551144 0.045581 0.007872
O O8 0.013506 0.847726 0.026121
O O9 0.875000 0.375000 0.709740
O O10 0.125000 0.376037 0.625000
#
# Coordination Sequence:
#
# PCOD8285978 Si02
#       4
#    32  32  32  32
#     4   9  14  25  46  70 101 133 172 227 275 307
#     4   9  17  28  47  77 106 133 178 228 271 323
#     4   9  17  28  48  76 103 136 177 223 279 323
#     4  10  20  34  53  78 113 146 176 225 281 327
#
# _framework density 26.057058000000001
#
# number of rings (size 3 to 8) (size 9 to 14) (size 15 to 20)
#    0.000    2.750    2.500    0.000    0.000    7.000 
#    0.000    0.000    0.000    6.000    0.000    1.750 
#    0.000    0.000    0.000    0.000    0.000    0.000 
#
# Total GULP energy -396452.288008 kJ/mol
# GULP energy per Si atom -12389.134000 kJ/mol
# Density = 2.599775 g / cm^3
# Si number density = 26.057058 Si / 1000 Ang^3
#
#
#
# Elastic Constant Matrix: (Units=GPa)
#
#
# Indices 1 2 3 4 5 6 
#
# 1 59.4363 23.7786 -12.5105 0.0000 0.0000 0.0000
# 2 23.7786 218.3614 101.3858 0.0000 0.0000 0.0000
# 3 -12.5105 101.3858 219.6887 0.0000 0.0000 0.0000
# 4 0.0000 0.0000 0.0000 41.6230 0.0000 0.0000
# 5 0.0000 0.0000 0.0000 0.0000 11.4479 0.0000
# 6 0.0000 0.0000 0.0000 0.0000 0.0000 32.2737
#
#
#
# Elastic Compliance Matrix: (Units=1/GPa)
#
#
# Indices 1 2 3 4 5 6 
#
# 1 0.018645 -0.003211 0.002544 0.000000 0.000000 0.000000
# 2 -0.003211 0.006382 -0.003128 0.000000 0.000000 0.000000
# 3 0.002544 -0.003128 0.006140 0.000000 0.000000 0.000000
# 4 0.000000 0.000000 0.000000 0.024025 0.000000 0.000000
# 5 0.000000 0.000000 0.000000 0.000000 0.087352 0.000000
# 6 0.000000 0.000000 0.000000 0.000000 0.000000 0.030985
#
#
# Mechanical properties :
#
#
# Convention : Reuss Voigt Hill
#
# Bulk Modulus (GPa) = 42.41654 80.31046 61.36350
# Shear Modulus (GPa) = 26.45798 42.72443 34.59121
#
# Velocity S-wave (km/s) = 3.18997 4.05365 3.64746
# Velocity P-wave (km/s) = 5.46640 7.26618 6.42958
#
# Compressibility (1/GPa) = 0.02357571
#
# Stress axis : x y z
#
# Youngs Moduli (GPa) = 53.63374 156.70033 162.85811
#
# Poissons Ratio (x) = 0.50324 -0.41429
# Poissons Ratio (y) = 0.17224 0.50942
# Poissons Ratio (z) = -0.13644 0.49016
#
# Static dielectric constant tensor:
#      x y z
#    x 4.910430 0.000000 0.000000 
#    y 0.000000 4.860800 0.000000 
#    z 0.000000 0.000000 4.945710 
# 
# 
# High freq. dielectric constant tensor:
#      x y z
#    x 2.081580 0.000000 0.000000 
#    y 0.000000 2.039610 0.000000 
#    z 0.000000 0.000000 2.032880 
# 
# From -- ./inp_files/50087.got.cif
#   From: 2010.03.12/outbox.cif.g09.slc.cpg/sg70_26_cif.got.tgz:50087.got - 2010.04.16 13:46:32.
