data_PCOD8285212
_publ_section_title
;
Structure prediction by ZEFSAII (Michael W. Deem and Ramdas Pophale) SiO2 
 PCOD8285212
Probable space group: F M M M
;
_chemical_formula_sum "Si O2"
_cell_formula_units_Z 176
_cell_length_a 15.189330
_cell_length_b 27.621381
_cell_length_c 22.477216
_cell_angle_alpha 90.000000
_cell_angle_beta 90.000000
_cell_angle_gamma 90.000000
_cell_volume 9430.322066
_symmetry_space_group_name_H-M "F M M M"
_symmetry_group_IT_number 69
_symmetry_cell_setting 'orthorhombic'
loop_
_space_group_symop_operation_xyz
x,y,z
-x,-y,z
x,-y,-z
-x,y,-z
-x,-y,-z
x,y,-z
-x,y,z
x,-y,z
x,1/2+y,1/2+z
-x,1/2-y,1/2+z
x,1/2-y,1/2-z
-x,1/2+y,1/2-z
-x,1/2-y,1/2-z
x,1/2+y,1/2-z
-x,1/2+y,1/2+z
x,1/2-y,1/2+z
1/2+x,y,1/2+z
1/2-x,-y,1/2+z
1/2+x,-y,1/2-z
1/2-x,y,1/2-z
1/2-x,-y,1/2-z
1/2+x,y,1/2-z
1/2-x,y,1/2+z
1/2+x,-y,1/2+z
1/2+x,1/2+y,z
1/2-x,1/2-y,z
1/2+x,1/2-y,-z
1/2-x,1/2+y,-z
1/2-x,1/2-y,-z
1/2+x,1/2+y,-z
1/2-x,1/2+y,z
1/2+x,1/2-y,z
loop_
_atom_site_type_symbol
_atom_site_label
_atom_site_fract_x
_atom_site_fract_y
_atom_site_fract_z
Si Si1 0.596980 0.376259 0.897749
Si Si2 0.895566 0.446001 0.500000
Si Si3 0.600494 0.873589 0.932630
Si Si4 0.741281 0.695569 0.068887
Si Si5 0.364597 0.055264 0.699437
Si Si6 0.337246 0.445427 0.667898
O O1 0.500000 0.357439 0.918241
O O2 0.665023 0.331755 0.893786
O O3 0.581266 0.404181 0.835761
O O4 0.637439 0.416141 0.942938
O O5 0.853383 0.500000 0.500000
O O6 0.000000 0.450620 0.500000
O O7 0.500000 0.856230 0.923924
O O8 0.663489 0.828037 0.921229
O O9 0.623179 0.914198 0.884931
O O10 0.614645 0.893655 0.000000
O O11 0.750000 0.750000 0.093271
O O12 0.712237 0.695049 0.000000
O O13 0.383250 0.065522 0.768811
O O14 0.264935 0.063581 0.678975
O O15 0.393645 0.000000 0.684141
O O16 0.355998 0.500000 0.648484
#
# Coordination Sequence:
#
# PCOD8285212 Si02
#       6
#    32  16  32  32  32  32
#     4  11  20  32  53  82 113 142 179 222 271 334
#     4   9  18  30  45  74 115 147 168 203 256 316
#     4  10  21  37  57  82 110 142 185 233 281 327
#     4  10  21  38  58  79 106 141 183 231 283 332
#     4   9  18  33  54  82 113 150 189 221 263 327
#     4   9  18  34  56  80 112 151 189 225 264 321
#
# _framework density 18.663201000000001
#
# number of rings (size 3 to 8) (size 9 to 14) (size 15 to 20)
#    0.000    2.273    2.727    1.636    0.000    3.273 
#    0.000    4.545    0.000    2.182    0.000    2.545 
#    0.000    0.000    0.000    0.000    0.000    0.000 
#
# Total GULP energy -545401.585844 kJ/mol
# GULP energy per Si atom -12395.490587 kJ/mol
# Density = 1.862072 g / cm^3
# Si number density = 18.663201 Si / 1000 Ang^3
#
#
#
# Elastic Constant Matrix: (Units=GPa)
#
#
# Indices 1 2 3 4 5 6 
#
# 1 100.0878 57.4727 38.0624 0.0000 0.0000 0.0000
# 2 57.4727 134.8518 61.1247 0.0000 0.0000 0.0000
# 3 38.0624 61.1247 87.7998 0.0000 0.0000 0.0000
# 4 0.0000 0.0000 0.0000 17.6353 0.0000 0.0000
# 5 0.0000 0.0000 0.0000 0.0000 17.8515 0.0000
# 6 0.0000 0.0000 0.0000 0.0000 0.0000 11.7162
#
#
#
# Elastic Compliance Matrix: (Units=1/GPa)
#
#
# Indices 1 2 3 4 5 6 
#
# 1 0.013663 -0.004585 -0.002731 0.000000 0.000000 0.000000
# 2 -0.004585 0.012373 -0.006626 0.000000 0.000000 0.000000
# 3 -0.002731 -0.006626 0.017187 0.000000 0.000000 0.000000
# 4 0.000000 0.000000 0.000000 0.056704 0.000000 0.000000
# 5 0.000000 0.000000 0.000000 0.000000 0.056018 0.000000
# 6 0.000000 0.000000 0.000000 0.000000 0.000000 0.085352
#
#
# Mechanical properties :
#
#
# Convention : Reuss Voigt Hill
#
# Bulk Modulus (GPa) = 65.19829 70.67322 67.93575
# Shear Modulus (GPa) = 18.22867 20.51258 19.37062
#
# Velocity S-wave (km/s) = 3.12864 3.31885 3.22515
# Velocity P-wave (km/s) = 6.93261 7.25509 7.09568
#
# Compressibility (1/GPa) = 0.01533783
#
# Stress axis : x y z
#
# Youngs Moduli (GPa) = 73.19258 80.81997 58.18502
#
# Poissons Ratio (x) = 0.37056 0.15890
# Poissons Ratio (y) = 0.33559 0.38555
# Poissons Ratio (z) = 0.19988 0.53554
#
# Static dielectric constant tensor:
#      x y z
#    x 3.388290 0.000000 0.000000 
#    y 0.000000 3.299120 0.000000 
#    z 0.000000 0.000000 3.642020 
# 
# 
# High freq. dielectric constant tensor:
#      x y z
#    x 1.727080 0.000000 0.000000 
#    y 0.000000 1.699140 0.000000 
#    z 0.000000 0.000000 1.716420 
# 
# From -- ./inp_files/35923.got.cif
#   From: 2010.03.12/outbox.cif.g09.slc.cpg/sg69_18_cif.got.tgz:35923.got - 2010.04.10 23:52:46.
