data_PCOD8285016
_publ_section_title
;
Structure prediction by ZEFSAII (Michael W. Deem and Ramdas Pophale) SiO2 
 PCOD8285016
Probable space group: F M M M
;
_chemical_formula_sum "Si O2"
_cell_formula_units_Z 192
_cell_length_a 28.920030
_cell_length_b 19.097565
_cell_length_c 18.247242
_cell_angle_alpha 90.000000
_cell_angle_beta 90.000000
_cell_angle_gamma 90.000000
_cell_volume 10077.991038
_symmetry_space_group_name_H-M "F M M M"
_symmetry_group_IT_number 69
_symmetry_cell_setting 'orthorhombic'
loop_
_space_group_symop_operation_xyz
x,y,z
-x,-y,z
x,-y,-z
-x,y,-z
-x,-y,-z
x,y,-z
-x,y,z
x,-y,z
x,1/2+y,1/2+z
-x,1/2-y,1/2+z
x,1/2-y,1/2-z
-x,1/2+y,1/2-z
-x,1/2-y,1/2-z
x,1/2+y,1/2-z
-x,1/2+y,1/2+z
x,1/2-y,1/2+z
1/2+x,y,1/2+z
1/2-x,-y,1/2+z
1/2+x,-y,1/2-z
1/2-x,y,1/2-z
1/2-x,-y,1/2-z
1/2+x,y,1/2-z
1/2-x,y,1/2+z
1/2+x,-y,1/2+z
1/2+x,1/2+y,z
1/2-x,1/2-y,z
1/2+x,1/2-y,-z
1/2-x,1/2+y,-z
1/2-x,1/2-y,-z
1/2+x,1/2+y,-z
1/2-x,1/2+y,z
1/2+x,1/2-y,z
loop_
_atom_site_type_symbol
_atom_site_label
_atom_site_fract_x
_atom_site_fract_y
_atom_site_fract_z
Si Si1 0.500000 0.845863 0.680474
Si Si2 0.071038 0.919902 0.918975
Si Si3 0.320245 0.419786 0.413731
Si Si4 0.151562 0.680384 0.582305
Si Si5 0.742884 0.829576 0.335898
Si Si6 0.098037 0.318751 0.914189
Si Si7 0.500000 0.817809 0.158486
O O1 0.455354 0.877608 0.642775
O O2 0.500000 0.862648 0.766706
O O3 0.500000 0.763891 0.671106
O O4 0.122084 0.889796 0.922596
O O5 0.072697 0.000000 0.894615
O O6 0.047903 0.912088 0.000000
O O7 0.312316 0.415428 0.500000
O O8 0.322509 0.500000 0.386587
O O9 0.277402 0.381190 0.376780
O O10 0.368178 0.382271 0.391599
O O11 0.170422 0.699075 0.500000
O O12 0.190699 0.656435 0.639130
O O13 0.121343 0.745930 0.613752
O O14 0.750000 0.840954 0.250000
O O15 0.750000 0.750000 0.360435
O O16 0.047417 0.336292 0.883018
O O17 0.091071 0.312017 0.000000
#
# Coordination Sequence:
#
# PCOD8285016 Si02
#       7
#    16  32  32  32  32  32  16
#     4  11  22  36  53  85 124 161 197 239 294 363
#     4  10  21  38  61  90 123 157 197 249 305 362
#     4  10  22  41  64  88 116 155 202 251 301 351
#     4  10  20  36  62  89 116 155 205 250 293 353
#     4  11  23  38  58  91 125 160 194 239 298 367
#     4  10  20  38  63  87 114 151 203 256 297 345
#     4  11  23  37  57  88 119 159 202 252 292 345
#
# _framework density 19.051416
#
# number of rings (size 3 to 8) (size 9 to 14) (size 15 to 20)
#    0.000    1.667    3.333    1.250    0.000    4.333 
#    0.000    5.417    0.000    2.000    0.000    0.000 
#    0.000    0.000    0.000    0.000    0.000    0.000 
#
# Total GULP energy -595036.707121 kJ/mol
# GULP energy per Si atom -12396.598065 kJ/mol
# Density = 1.900805 g / cm^3
# Si number density = 19.051416 Si / 1000 Ang^3
#
#
#
# Elastic Constant Matrix: (Units=GPa)
#
#
# Indices 1 2 3 4 5 6 
#
# 1 153.0993 56.5252 65.1416 0.0000 0.0000 0.0000
# 2 56.5252 109.3474 43.6608 0.0000 0.0000 0.0000
# 3 65.1416 43.6608 83.6605 0.0000 0.0000 0.0000
# 4 0.0000 0.0000 0.0000 24.2122 0.0000 0.0000
# 5 0.0000 0.0000 0.0000 0.0000 24.5497 0.0000
# 6 0.0000 0.0000 0.0000 0.0000 0.0000 32.6860
#
#
#
# Elastic Compliance Matrix: (Units=1/GPa)
#
#
# Indices 1 2 3 4 5 6 
#
# 1 0.010361 -0.002697 -0.006660 0.000000 0.000000 0.000000
# 2 -0.002697 0.012254 -0.004296 0.000000 0.000000 0.000000
# 3 -0.006660 -0.004296 0.019381 0.000000 0.000000 0.000000
# 4 0.000000 0.000000 0.000000 0.041301 0.000000 0.000000
# 5 0.000000 0.000000 0.000000 0.000000 0.040734 0.000000
# 6 0.000000 0.000000 0.000000 0.000000 0.000000 0.030594
#
#
# Mechanical properties :
#
#
# Convention : Reuss Voigt Hill
#
# Bulk Modulus (GPa) = 68.06762 75.19580 71.63171
# Shear Modulus (GPa) = 26.76261 28.34157 27.55209
#
# Velocity S-wave (km/s) = 3.75207 3.86117 3.80701
# Velocity P-wave (km/s) = 7.38760 7.70933 7.55018
#
# Compressibility (1/GPa) = 0.01469127
#
# Stress axis : x y z
#
# Youngs Moduli (GPa) = 96.51386 81.60395 51.59737
#
# Poissons Ratio (x) = 0.22006 0.34366
# Poissons Ratio (y) = 0.26027 0.22164
# Poissons Ratio (z) = 0.64281 0.35053
#
# Static dielectric constant tensor:
#      x y z
#    x 3.437910 0.000000 0.000000 
#    y 0.000000 3.538030 0.000000 
#    z 0.000000 0.000000 3.552660 
# 
# 
# High freq. dielectric constant tensor:
#      x y z
#    x 1.747280 0.000000 0.000000 
#    y 0.000000 1.738660 0.000000 
#    z 0.000000 0.000000 1.732810 
# 
# From -- ./inp_files/27823.got.cif
#   From: 2010.03.12/outbox.cif.g09.slc.cpg/sg69_14_cif.got.tgz:27823.got - 2010.04.10 23:52:46.
