data_PCOD8285301
_publ_section_title
;
Structure prediction by ZEFSAII (Michael W. Deem and Ramdas Pophale) SiO2 
 PCOD8285301
Probable space group: F M M M
;
_chemical_formula_sum "Si O2"
_cell_formula_units_Z 144
_cell_length_a 26.914943
_cell_length_b 17.498504
_cell_length_c 14.981116
_cell_angle_alpha 90.000000
_cell_angle_beta 90.000000
_cell_angle_gamma 90.000000
_cell_volume 7055.674745
_symmetry_space_group_name_H-M "F M M M"
_symmetry_group_IT_number 69
_symmetry_cell_setting 'orthorhombic'
loop_
_space_group_symop_operation_xyz
x,y,z
-x,-y,z
x,-y,-z
-x,y,-z
-x,-y,-z
x,y,-z
-x,y,z
x,-y,z
x,1/2+y,1/2+z
-x,1/2-y,1/2+z
x,1/2-y,1/2-z
-x,1/2+y,1/2-z
-x,1/2-y,1/2-z
x,1/2+y,1/2-z
-x,1/2+y,1/2+z
x,1/2-y,1/2+z
1/2+x,y,1/2+z
1/2-x,-y,1/2+z
1/2+x,-y,1/2-z
1/2-x,y,1/2-z
1/2-x,-y,1/2-z
1/2+x,y,1/2-z
1/2-x,y,1/2+z
1/2+x,-y,1/2+z
1/2+x,1/2+y,z
1/2-x,1/2-y,z
1/2+x,1/2-y,-z
1/2-x,1/2+y,-z
1/2-x,1/2-y,-z
1/2+x,1/2+y,-z
1/2-x,1/2+y,z
1/2+x,1/2-y,z
loop_
_atom_site_type_symbol
_atom_site_label
_atom_site_fract_x
_atom_site_fract_y
_atom_site_fract_z
Si Si1 0.878509 0.138213 0.599851
Si Si2 0.443825 0.273221 0.147896
Si Si3 0.944997 0.500000 0.894063
Si Si4 0.193523 0.911216 0.257033
Si Si5 0.618932 0.912998 0.602355
O O1 0.860482 0.116648 0.500000
O O2 0.906730 0.218706 0.593652
O O3 0.831531 0.140210 0.665690
O O4 0.916342 0.075029 0.639574
O O5 0.500000 0.264546 0.111608
O O6 0.440603 0.250000 0.250000
O O7 0.426648 0.360098 0.133234
O O8 0.000000 0.500000 0.851350
O O9 0.949029 0.500000 0.000000
O O10 0.250000 0.883378 0.250000
O O11 0.167381 0.896042 0.162148
O O12 0.190613 0.000000 0.285289
O O13 0.634024 0.897092 0.500000
O O14 0.600747 0.000000 0.615611
#
# Coordination Sequence:
#
# PCOD8285301 Si02
#       5
#    32  32  16  32  32
#     4  11  21  36  59  90 125 159 201 249 306 373
#     4  11  23  40  63  91 125 165 205 251 313 374
#     4   9  18  32  53  84 121 157 192 233 288 360
#     4  10  21  39  63  90 122 160 205 257 309 361
#     4  10  22  42  65  89 121 163 213 261 304 362
#
# _framework density 20.409105
#
# number of rings (size 3 to 8) (size 9 to 14) (size 15 to 20)
#    0.000    1.667    3.333    1.333    0.000    4.000 
#    0.000    5.556    0.000    2.667    0.000    0.000 
#    0.000    0.000    0.000    0.000    0.000    0.000 
#
# Total GULP energy -446532.886660 kJ/mol
# GULP energy per Si atom -12403.691296 kJ/mol
# Density = 2.036265 g / cm^3
# Si number density = 20.409105 Si / 1000 Ang^3
#
#
#
# Elastic Constant Matrix: (Units=GPa)
#
#
# Indices 1 2 3 4 5 6 
#
# 1 160.5883 59.7143 65.6532 0.0000 0.0000 0.0000
# 2 59.7143 103.0200 37.2852 0.0000 0.0000 0.0000
# 3 65.6532 37.2852 123.2452 0.0000 0.0000 0.0000
# 4 0.0000 0.0000 0.0000 27.6583 0.0000 0.0000
# 5 0.0000 0.0000 0.0000 0.0000 14.9240 0.0000
# 6 0.0000 0.0000 0.0000 0.0000 0.0000 29.0596
#
#
#
# Elastic Compliance Matrix: (Units=1/GPa)
#
#
# Indices 1 2 3 4 5 6 
#
# 1 0.009233 -0.004011 -0.003705 0.000000 0.000000 0.000000
# 2 -0.004011 0.012643 -0.001688 0.000000 0.000000 0.000000
# 3 -0.003705 -0.001688 0.010598 0.000000 0.000000 0.000000
# 4 0.000000 0.000000 0.000000 0.036156 0.000000 0.000000
# 5 0.000000 0.000000 0.000000 0.000000 0.067006 0.000000
# 6 0.000000 0.000000 0.000000 0.000000 0.000000 0.034412
#
#
# Mechanical properties :
#
#
# Convention : Reuss Voigt Hill
#
# Bulk Modulus (GPa) = 73.17514 79.12878 76.15196
# Shear Modulus (GPa) = 25.85151 29.27510 27.56330
#
# Velocity S-wave (km/s) = 3.56289 3.79147 3.67896
# Velocity P-wave (km/s) = 7.27032 7.61725 7.44581
#
# Compressibility (1/GPa) = 0.01366584
#
# Stress axis : x y z
#
# Youngs Moduli (GPa) = 108.30252 79.09667 94.35397
#
# Poissons Ratio (x) = 0.31726 0.34960
# Poissons Ratio (y) = 0.43440 0.15928
# Poissons Ratio (z) = 0.40128 0.13352
#
# Static dielectric constant tensor:
#      x y z
#    x 3.646760 0.000000 0.000000 
#    y 0.000000 3.695270 0.000000 
#    z 0.000000 0.000000 3.658970 
# 
# 
# High freq. dielectric constant tensor:
#      x y z
#    x 1.781590 0.000000 0.000000 
#    y 0.000000 1.794490 0.000000 
#    z 0.000000 0.000000 1.802080 
# 
# From -- ./inp_files/19430.got.cif
#   From: 2010.03.12/outbox.cif.g09.slc.cpg/sg69_10_cif.got.tgz:19430.got - 2010.04.10 23:52:46.
