data_PCOD8285127
_publ_section_title
;
Structure prediction by ZEFSAII (Michael W. Deem and Ramdas Pophale) SiO2 
 PCOD8285127
Probable space group: F M M M
;
_chemical_formula_sum "Si O2"
_cell_formula_units_Z 192
_cell_length_a 33.751574
_cell_length_b 29.457319
_cell_length_c 10.094488
_cell_angle_alpha 90.000000
_cell_angle_beta 90.000000
_cell_angle_gamma 90.000000
_cell_volume 10036.251708
_symmetry_space_group_name_H-M "F M M M"
_symmetry_group_IT_number 69
_symmetry_cell_setting 'orthorhombic'
loop_
_space_group_symop_operation_xyz
x,y,z
-x,-y,z
x,-y,-z
-x,y,-z
-x,-y,-z
x,y,-z
-x,y,z
x,-y,z
x,1/2+y,1/2+z
-x,1/2-y,1/2+z
x,1/2-y,1/2-z
-x,1/2+y,1/2-z
-x,1/2-y,1/2-z
x,1/2+y,1/2-z
-x,1/2+y,1/2+z
x,1/2-y,1/2+z
1/2+x,y,1/2+z
1/2-x,-y,1/2+z
1/2+x,-y,1/2-z
1/2-x,y,1/2-z
1/2-x,-y,1/2-z
1/2+x,y,1/2-z
1/2-x,y,1/2+z
1/2+x,-y,1/2+z
1/2+x,1/2+y,z
1/2-x,1/2-y,z
1/2+x,1/2-y,-z
1/2-x,1/2+y,-z
1/2-x,1/2-y,-z
1/2+x,1/2+y,-z
1/2-x,1/2+y,z
1/2+x,1/2-y,z
loop_
_atom_site_type_symbol
_atom_site_label
_atom_site_fract_x
_atom_site_fract_y
_atom_site_fract_z
Si Si1 0.500000 0.645954 0.353126
Si Si2 0.068562 0.708461 0.845040
Si Si3 0.158968 0.209817 0.348480
Si Si4 0.286589 0.875895 0.152099
Si Si5 0.085196 0.947344 0.857408
Si Si6 0.352169 0.052973 0.150204
Si Si7 0.500000 0.948916 0.248987
O O1 0.500000 0.664267 0.500000
O O2 0.540541 0.667104 0.293062
O O3 0.500000 0.591233 0.357897
O O4 0.057371 0.750000 0.750000
O O5 0.113985 0.693833 0.821961
O O6 0.062032 0.721475 0.000000
O O7 0.164191 0.226652 0.500000
O O8 0.171565 0.250000 0.250000
O O9 0.186730 0.167556 0.317287
O O10 0.250000 0.875639 0.250000
O O11 0.311688 0.921088 0.182204
O O12 0.271746 0.875633 0.000000
O O13 0.112403 0.926762 0.741082
O O14 0.038487 0.940883 0.837524
O O15 0.095342 0.000000 0.861441
O O16 0.096068 0.925215 0.000000
O O17 0.343848 0.000000 0.173965
O O18 0.366050 0.062568 0.000000
O O19 0.500000 0.000000 0.184844
#
# Coordination Sequence:
#
# PCOD8285127 Si02
#       7
#    16  32  32  32  32  32  16
#     4  10  21  33  53  81 111 150 189 229 275 319
#     4   9  18  35  57  81 109 142 180 226 277 325
#     4   9  19  36  58  80 108 144 178 221 274 327
#     4  10  22  38  57  82 113 145 178 223 276 330
#     4   9  18  34  54  75 104 145 189 231 273 314
#     4   9  19  36  58  83 111 145 184 226 273 324
#     4  10  21  34  50  76 114 156 194 229 266 314
#
# _framework density 19.130648000000001
#
# number of rings (size 3 to 8) (size 9 to 14) (size 15 to 20)
#    0.000    2.667    0.000    0.500    2.333    3.833 
#    0.000    5.000    0.000    0.000    0.000    0.000 
#    0.000    0.000    0.000    0.000    0.000    0.000 
#
# Total GULP energy -594863.608813 kJ/mol
# GULP energy per Si atom -12392.991850 kJ/mol
# Density = 1.908711 g / cm^3
# Si number density = 19.130648 Si / 1000 Ang^3
#
#
#
# Elastic Constant Matrix: (Units=GPa)
#
#
# Indices 1 2 3 4 5 6 
#
# 1 135.2123 64.3886 81.9602 0.0140 -0.0059 -0.0073
# 2 64.3886 96.7759 57.7549 0.0113 -0.0036 -0.0093
# 3 81.9602 57.7549 108.1959 0.0160 -0.0098 -0.0114
# 4 0.0140 0.0113 0.0160 21.9944 -0.0061 -0.0143
# 5 -0.0059 -0.0036 -0.0098 -0.0061 27.4664 0.0019
# 6 -0.0073 -0.0093 -0.0114 -0.0143 0.0019 27.7100
#
#
#
# Elastic Compliance Matrix: (Units=1/GPa)
#
#
# Indices 1 2 3 4 5 6 
#
# 1 0.015000 -0.004694 -0.008857 -0.000001 -0.000001 -0.000001
# 2 -0.004694 0.016633 -0.005323 -0.000002 -0.000001 0.000002
# 3 -0.008857 -0.005323 0.018793 -0.000005 0.000004 0.000004
# 4 -0.000001 -0.000002 -0.000005 0.045466 0.000010 0.000023
# 5 -0.000001 -0.000001 0.000004 0.000010 0.036408 -0.000003
# 6 -0.000001 0.000002 0.000004 0.000023 -0.000003 0.036088
#
#
# Mechanical properties :
#
#
# Convention : Reuss Voigt Hill
#
# Bulk Modulus (GPa) = 78.87570 83.15462 81.01516
# Shear Modulus (GPa) = 23.76857 24.50617 24.13737
#
# Velocity S-wave (km/s) = 3.52864 3.58298 3.55591
# Velocity P-wave (km/s) = 7.61060 7.78961 7.70063
#
# Compressibility (1/GPa) = 0.01267818
#
# Stress axis : x y z
#
# Youngs Moduli (GPa) = 66.66716 60.12159 53.21147
#
# Poissons Ratio (x) = 0.28223 0.47129
# Poissons Ratio (y) = 0.31296 0.28323
# Poissons Ratio (z) = 0.59046 0.32001
#
# Static dielectric constant tensor:
#      x y z
#    x 3.521470 0.000020 0.000030 
#    y 0.000020 3.370460 -0.000030 
#    z 0.000030 -0.000030 3.624340 
# 
# 
# High freq. dielectric constant tensor:
#      x y z
#    x 1.743940 0.000000 0.000000 
#    y 0.000000 1.732110 0.000000 
#    z 0.000000 0.000000 1.739090 
# 
# From -- ./inp_files/12450.got.cif
#   From: 2010.03.12/outbox.cif.g09.slc.cpg/sg69_7_cif.got.tgz:12450.got - 2010.04.10 23:52:46.
