data_PCOD8285995
_publ_section_title
;
Structure prediction by ZEFSAII (Michael W. Deem and Ramdas Pophale) SiO2 
 PCOD8285995
Probable space group: F D D D
;
_chemical_formula_sum "Si O2"
_cell_formula_units_Z 208
_cell_length_a 20.667152
_cell_length_b 29.200701
_cell_length_c 18.054789
_cell_angle_alpha 90.000000
_cell_angle_beta 90.000000
_cell_angle_gamma 90.000000
_cell_volume 10895.980775
_symmetry_space_group_name_H-M "F D D D"
_symmetry_group_IT_number 70
_space_group.IT_coordinate_system_code '2'
_symmetry_cell_setting 'orthorhombic'
loop_
_space_group_symop_operation_xyz
x,y,z
1/4-x,1/4-y,z
x,1/4-y,1/4-z
1/4-x,y,1/4-z
-x,-y,-z
3/4+x,3/4+y,-z
-x,3/4+y,3/4+z
3/4+x,-y,3/4+z
x,1/2+y,1/2+z
1/4-x,3/4-y,1/2+z
x,3/4-y,3/4-z
1/4-x,1/2+y,3/4-z
-x,1/2-y,1/2-z
3/4+x,1/4+y,1/2-z
-x,1/4+y,1/4+z
3/4+x,1/2-y,1/4+z
1/2+x,y,1/2+z
3/4-x,1/4-y,1/2+z
1/2+x,1/4-y,3/4-z
3/4-x,y,3/4-z
1/2-x,-y,1/2-z
1/4+x,3/4+y,1/2-z
1/2-x,3/4+y,1/4+z
1/4+x,-y,1/4+z
1/2+x,1/2+y,z
3/4-x,3/4-y,z
1/2+x,3/4-y,1/4-z
3/4-x,1/2+y,1/4-z
1/2-x,1/2-y,-z
1/4+x,1/4+y,-z
1/2-x,1/4+y,3/4+z
1/4+x,1/2-y,3/4+z
loop_
_atom_site_type_symbol
_atom_site_label
_atom_site_fract_x
_atom_site_fract_y
_atom_site_fract_z
Si Si1 0.814863 0.717792 0.205956
Si Si2 0.204790 0.875640 0.040571
Si Si3 0.280270 0.444526 0.452194
Si Si4 0.125000 0.125000 0.625000
Si Si5 0.447623 0.120523 0.795138
Si Si6 0.467280 0.711667 0.700631
Si Si7 0.625000 0.125000 0.625000
Si Si8 0.750189 0.918437 0.833116
O O1 0.809510 0.765764 0.247358
O O2 0.784775 0.678208 0.258174
O O3 0.890601 0.713595 0.189988
O O4 0.774270 0.713870 0.127706
O O5 0.231358 0.871560 0.124384
O O6 0.128627 0.874122 0.047277
O O7 0.224698 0.922787 0.002751
O O8 0.234954 0.835955 0.989818
O O9 0.333931 0.407301 0.429686
O O10 0.249206 0.465939 0.379282
O O11 0.474702 0.165102 0.750942
O O12 0.500000 0.750000 0.750000
O O13 0.578306 0.089935 0.579633
O O14 0.716675 0.875000 0.875000
#
# Coordination Sequence:
#
# PCOD8285995 Si02
#       8
#    32  32  32   8  32  32   8  32
#     4  10  21  36  61  88 116 154 204 246 286 364
#     4  10  20  35  57  85 115 156 189 236 300 354
#     4  12  23  39  57  86 122 155 195 241 305 351
#     4  12  24  40  56  80 124 174 186 254 304 348
#     4   9  18  37  62  85 114 152 202 242 290 357
#     4  11  21  37  59  83 114 156 204 244 288 358
#     4   8  16  32  60  84 116 150 198 246 316 352
#     4   8  16  34  59  85 113 151 196 244 300 348
#
# _framework density 19.089607999999998
#
# number of rings (size 3 to 8) (size 9 to 14) (size 15 to 20)
#    0.462    1.538    1.538    2.769    0.000    4.923 
#    0.000    4.615    0.000    0.000    0.000    0.000 
#    0.000    0.000    0.000    0.000    0.000    0.000 
#
# Total GULP energy -644312.538044 kJ/mol
# GULP energy per Si atom -12390.625732 kJ/mol
# Density = 1.904616 g / cm^3
# Si number density = 19.089608 Si / 1000 Ang^3
#
#
#
# Elastic Constant Matrix: (Units=GPa)
#
#
# Indices 1 2 3 4 5 6 
#
# 1 55.6746 27.5400 24.7657 0.0000 0.0000 0.0000
# 2 27.5400 87.8947 47.3755 0.0000 0.0000 0.0000
# 3 24.7657 47.3755 75.5574 0.0000 0.0000 0.0000
# 4 0.0000 0.0000 0.0000 39.6140 0.0000 0.0000
# 5 0.0000 0.0000 0.0000 0.0000 17.8905 0.0000
# 6 0.0000 0.0000 0.0000 0.0000 0.0000 18.5442
#
#
#
# Elastic Compliance Matrix: (Units=1/GPa)
#
#
# Indices 1 2 3 4 5 6 
#
# 1 0.022184 -0.004579 -0.004400 0.000000 0.000000 0.000000
# 2 -0.004579 0.018130 -0.009867 0.000000 0.000000 0.000000
# 3 -0.004400 -0.009867 0.020864 0.000000 0.000000 0.000000
# 4 0.000000 0.000000 0.000000 0.025244 0.000000 0.000000
# 5 0.000000 0.000000 0.000000 0.000000 0.055896 0.000000
# 6 0.000000 0.000000 0.000000 0.000000 0.000000 0.053925
#
#
# Mechanical properties :
#
#
# Convention : Reuss Voigt Hill
#
# Bulk Modulus (GPa) = 42.57925 46.49879 44.53902
# Shear Modulus (GPa) = 20.68131 23.17277 21.92704
#
# Velocity S-wave (km/s) = 3.29505 3.48788 3.39283
# Velocity P-wave (km/s) = 6.06876 6.37428 6.22339
#
# Compressibility (1/GPa) = 0.02348562
#
# Stress axis : x y z
#
# Youngs Moduli (GPa) = 45.07760 55.15589 47.92943
#
# Poissons Ratio (x) = 0.25257 0.21089
# Poissons Ratio (y) = 0.20642 0.47292
# Poissons Ratio (z) = 0.19835 0.54423
#
# Static dielectric constant tensor:
#      x y z
#    x 3.318650 0.000000 0.000000 
#    y 0.000000 3.449680 0.000000 
#    z 0.000000 0.000000 3.690310 
# 
# 
# High freq. dielectric constant tensor:
#      x y z
#    x 1.734890 0.000000 0.000000 
#    y 0.000000 1.723270 0.000000 
#    z 0.000000 0.000000 1.748250 
# 
# From -- ./inp_files/37747.got.cif
#   From: 2010.03.12/outbox.cif.g09.slc.cpg/sg70_19_cif.got.tgz:37747.got - 2010.04.16 13:46:32.
