data_PCOD8285974
_publ_section_title
;
Structure prediction by ZEFSAII (Michael W. Deem and Ramdas Pophale) SiO2 
 PCOD8285974
Probable space group: F D D D
;
_chemical_formula_sum "Si O2"
_cell_formula_units_Z 160
_cell_length_a 10.318608
_cell_length_b 27.595312
_cell_length_c 27.737461
_cell_angle_alpha 90.000000
_cell_angle_beta 90.000000
_cell_angle_gamma 90.000000
_cell_volume 7898.109079
_symmetry_space_group_name_H-M "F D D D"
_symmetry_group_IT_number 70
_space_group.IT_coordinate_system_code '2'
_symmetry_cell_setting 'orthorhombic'
loop_
_space_group_symop_operation_xyz
x,y,z
1/4-x,1/4-y,z
x,1/4-y,1/4-z
1/4-x,y,1/4-z
-x,-y,-z
3/4+x,3/4+y,-z
-x,3/4+y,3/4+z
3/4+x,-y,3/4+z
x,1/2+y,1/2+z
1/4-x,3/4-y,1/2+z
x,3/4-y,3/4-z
1/4-x,1/2+y,3/4-z
-x,1/2-y,1/2-z
3/4+x,1/4+y,1/2-z
-x,1/4+y,1/4+z
3/4+x,1/2-y,1/4+z
1/2+x,y,1/2+z
3/4-x,1/4-y,1/2+z
1/2+x,1/4-y,3/4-z
3/4-x,y,3/4-z
1/2-x,-y,1/2-z
1/4+x,3/4+y,1/2-z
1/2-x,3/4+y,1/4+z
1/4+x,-y,1/4+z
1/2+x,1/2+y,z
3/4-x,3/4-y,z
1/2+x,3/4-y,1/4-z
3/4-x,1/2+y,1/4-z
1/2-x,1/2-y,-z
1/4+x,1/4+y,-z
1/2-x,1/4+y,3/4+z
1/4+x,1/2-y,3/4+z
loop_
_atom_site_type_symbol
_atom_site_label
_atom_site_fract_x
_atom_site_fract_y
_atom_site_fract_z
Si Si1 0.733703 0.245842 0.878586
Si Si2 0.861481 0.512562 0.524121
Si Si3 0.255849 0.612447 0.347745
Si Si4 0.635635 0.779287 0.473528
Si Si5 0.017901 0.867217 0.490636
O O1 0.875000 0.272073 0.875000
O O2 0.657752 0.240309 0.827850
O O3 0.768179 0.195245 0.905260
O O4 0.643930 0.274906 0.915679
O O5 0.752609 0.490490 0.489673
O O6 0.840919 0.570331 0.530369
O O7 0.000000 0.500000 0.500000
O O8 0.125000 0.625000 0.377049
O O9 0.375000 0.636652 0.375000
O O10 0.247859 0.640519 0.297357
O O11 0.750000 0.750000 0.500000
O O12 0.641380 0.836274 0.484041
O O13 0.875000 0.875000 0.466593
#
# Coordination Sequence:
#
# PCOD8285974 Si02
#       5
#    32  32  32  32  32
#     4  11  21  41  67  95 128 179 230 276 345 409
#     4  12  28  43  63 105 145 177 225 292 359 411
#     4  10  20  33  58  91 120 164 226 276 326 388
#     4  12  20  43  69  91 135 174 222 292 322 414
#     4  11  21  41  67  95 128 179 230 276 345 409
#
# _framework density 20.258012999999998
#
# number of rings (size 3 to 8) (size 9 to 14) (size 15 to 20)
#    0.000    0.800    6.000    2.400    2.800    2.400 
#    0.000    2.000    0.000    2.400    0.000    0.000 
#    0.000    0.000    0.000    0.000    0.000    0.000 
#
# Total GULP energy -495836.587884 kJ/mol
# GULP energy per Si atom -12395.914697 kJ/mol
# Density = 2.021190 g / cm^3
# Si number density = 20.258013 Si / 1000 Ang^3
#
#
#
# Elastic Constant Matrix: (Units=GPa)
#
#
# Indices 1 2 3 4 5 6 
#
# 1 156.8793 22.5524 44.3678 0.0000 0.0000 0.0000
# 2 22.5524 89.0607 -2.7830 0.0000 0.0000 0.0000
# 3 44.3678 -2.7830 104.2043 0.0000 0.0000 0.0000
# 4 0.0000 0.0000 0.0000 15.6714 0.0000 0.0000
# 5 0.0000 0.0000 0.0000 0.0000 28.2449 0.0000
# 6 0.0000 0.0000 0.0000 0.0000 0.0000 28.9438
#
#
#
# Elastic Compliance Matrix: (Units=1/GPa)
#
#
# Indices 1 2 3 4 5 6 
#
# 1 0.007596 -0.002026 -0.003288 0.000000 0.000000 0.000000
# 2 -0.002026 0.011778 0.001177 0.000000 0.000000 0.000000
# 3 -0.003288 0.001177 0.011028 0.000000 0.000000 0.000000
# 4 0.000000 0.000000 0.000000 0.063811 0.000000 0.000000
# 5 0.000000 0.000000 0.000000 0.000000 0.035405 0.000000
# 6 0.000000 0.000000 0.000000 0.000000 0.000000 0.034550
#
#
# Mechanical properties :
#
#
# Convention : Reuss Voigt Hill
#
# Bulk Modulus (GPa) = 45.19233 53.15764 49.17499
# Shear Modulus (GPa) = 27.80613 33.63916 30.72265
#
# Velocity S-wave (km/s) = 3.70888 4.07939 3.89854
# Velocity P-wave (km/s) = 6.37949 6.96318 6.67771
#
# Compressibility (1/GPa) = 0.02212765
#
# Stress axis : x y z
#
# Youngs Moduli (GPa) = 131.65660 84.90300 90.67854
#
# Poissons Ratio (x) = 0.17202 0.29816
# Poissons Ratio (y) = 0.26675 -0.10675
# Poissons Ratio (z) = 0.43290 -0.09995
#
# Static dielectric constant tensor:
#      x y z
#    x 3.901160 0.000000 0.000000 
#    y 0.000000 3.618530 0.000000 
#    z 0.000000 0.000000 3.724280 
# 
# 
# High freq. dielectric constant tensor:
#      x y z
#    x 1.786620 0.000000 0.000000 
#    y 0.000000 1.782550 0.000000 
#    z 0.000000 0.000000 1.785350 
# 
# From -- ./inp_files/64857.got.cif
#   From: 2010.03.12/outbox.cif.g09.slc.cpg/sg70_33_cif.got.tgz:64857.got - 2010.04.16 13:46:32.
