data_PCOD8285426
_publ_section_title
;
Structure prediction by ZEFSAII (Michael W. Deem and Ramdas Pophale) SiO2 
 PCOD8285426
Probable space group: F M M M
;
_chemical_formula_sum "Si O2"
_cell_formula_units_Z 192
_cell_length_a 15.456270
_cell_length_b 23.093793
_cell_length_c 27.320943
_cell_angle_alpha 90.000000
_cell_angle_beta 90.000000
_cell_angle_gamma 90.000000
_cell_volume 9752.043944
_symmetry_space_group_name_H-M "F M M M"
_symmetry_group_IT_number 69
_symmetry_cell_setting 'orthorhombic'
loop_
_space_group_symop_operation_xyz
x,y,z
-x,-y,z
x,-y,-z
-x,y,-z
-x,-y,-z
x,y,-z
-x,y,z
x,-y,z
x,1/2+y,1/2+z
-x,1/2-y,1/2+z
x,1/2-y,1/2-z
-x,1/2+y,1/2-z
-x,1/2-y,1/2-z
x,1/2+y,1/2-z
-x,1/2+y,1/2+z
x,1/2-y,1/2+z
1/2+x,y,1/2+z
1/2-x,-y,1/2+z
1/2+x,-y,1/2-z
1/2-x,y,1/2-z
1/2-x,-y,1/2-z
1/2+x,y,1/2-z
1/2-x,y,1/2+z
1/2+x,-y,1/2+z
1/2+x,1/2+y,z
1/2-x,1/2-y,z
1/2+x,1/2-y,-z
1/2-x,1/2+y,-z
1/2-x,1/2-y,-z
1/2+x,1/2+y,-z
1/2-x,1/2+y,z
1/2+x,1/2-y,z
loop_
_atom_site_type_symbol
_atom_site_label
_atom_site_fract_x
_atom_site_fract_y
_atom_site_fract_z
Si Si1 0.097534 0.358523 0.137081
Si Si2 0.754272 0.566011 0.605959
Si Si3 0.903878 0.137301 0.158345
Si Si4 0.178038 0.064908 0.000000
Si Si5 0.351886 0.815213 0.756468
Si Si6 0.151154 0.257524 0.401186
Si Si7 0.900294 0.185412 0.000000
O O1 0.162068 0.408975 0.121306
O O2 0.120832 0.337734 0.190992
O O3 0.105690 0.304895 0.099334
O O4 0.000000 0.382829 0.134881
O O5 0.756910 0.500000 0.622873
O O6 0.833712 0.596698 0.633009
O O7 0.762142 0.572760 0.547553
O O8 0.892719 0.141125 0.216704
O O9 0.895592 0.202320 0.138247
O O10 0.000000 0.113273 0.146176
O O11 0.105914 0.115372 0.000000
O O12 0.135382 0.000000 0.000000
O O13 0.387331 0.750000 0.750000
O O14 0.250000 0.816733 0.750000
O O15 0.250000 0.250000 0.384674
O O16 0.147505 0.287263 0.453854
O O17 0.000000 0.203033 0.000000
#
# Coordination Sequence:
#
# PCOD8285426 Si02
#       7
#    32  32  32  16  32  32  16
#     4  12  24  41  65  96 130 170 215 262 318 378
#     4  11  25  46  67  91 125 169 219 267 317 376
#     4  12  23  39  64  96 129 163 209 265 321 377
#     4  10  22  42  67  89 122 173 218 260 312 374
#     4  11  21  37  63  96 131 169 211 255 312 385
#     4  12  22  39  60  90 132 172 205 257 326 386
#     4  12  23  36  58  96 132 165 212 265 321 387
#
# _framework density 19.688179999999999
#
# number of rings (size 3 to 8) (size 9 to 14) (size 15 to 20)
#    0.000    0.500    6.667    2.250    0.000    2.167 
#    0.000    4.583    0.000    3.500    0.000    0.000 
#    0.000    0.000    0.000    0.000    0.000    0.000 
#
# Total GULP energy -595357.926125 kJ/mol
# GULP energy per Si atom -12403.290128 kJ/mol
# Density = 1.964337 g / cm^3
# Si number density = 19.688180 Si / 1000 Ang^3
#
#
#
# Elastic Constant Matrix: (Units=GPa)
#
#
# Indices 1 2 3 4 5 6 
#
# 1 151.6851 52.8379 29.5109 0.0000 0.0000 0.0000
# 2 52.8379 106.3268 42.1785 0.0000 0.0000 0.0000
# 3 29.5109 42.1785 110.3117 0.0000 0.0000 0.0000
# 4 0.0000 0.0000 0.0000 26.0452 0.0000 0.0000
# 5 0.0000 0.0000 0.0000 0.0000 18.2179 0.0000
# 6 0.0000 0.0000 0.0000 0.0000 0.0000 8.9762
#
#
#
# Elastic Compliance Matrix: (Units=1/GPa)
#
#
# Indices 1 2 3 4 5 6 
#
# 1 0.008023 -0.003696 -0.000733 0.000000 0.000000 0.000000
# 2 -0.003696 0.012789 -0.003901 0.000000 0.000000 0.000000
# 3 -0.000733 -0.003901 0.010753 0.000000 0.000000 0.000000
# 4 0.000000 0.000000 0.000000 0.038395 0.000000 0.000000
# 5 0.000000 0.000000 0.000000 0.000000 0.054891 0.000000
# 6 0.000000 0.000000 0.000000 0.000000 0.000000 0.111406
#
#
# Mechanical properties :
#
#
# Convention : Reuss Voigt Hill
#
# Bulk Modulus (GPa) = 67.09495 68.59757 67.84626
# Shear Modulus (GPa) = 19.38843 26.90095 23.14469
#
# Velocity S-wave (km/s) = 3.14152 3.70043 3.43237
# Velocity P-wave (km/s) = 6.87834 7.29213 7.08826
#
# Compressibility (1/GPa) = 0.01490425
#
# Stress axis : x y z
#
# Youngs Moduli (GPa) = 124.64656 78.19073 92.99713
#
# Poissons Ratio (x) = 0.28899 0.06817
# Poissons Ratio (y) = 0.46069 0.36281
# Poissons Ratio (z) = 0.09137 0.30505
#
# Static dielectric constant tensor:
#      x y z
#    x 3.629660 0.000000 0.000000 
#    y 0.000000 3.592350 0.000000 
#    z 0.000000 0.000000 3.779690 
# 
# 
# High freq. dielectric constant tensor:
#      x y z
#    x 1.770640 0.000000 0.000000 
#    y 0.000000 1.751710 0.000000 
#    z 0.000000 0.000000 1.780870 
# 
# From -- ./inp_files/38389.got.cif
#   From: 2010.03.12/outbox.cif.g09.slc.cpg/sg69_20_cif.got.tgz:38389.got - 2010.04.10 23:52:46.
