data_PCOD8285503
_publ_section_title
;
Structure prediction by ZEFSAII (Michael W. Deem and Ramdas Pophale) SiO2 
 PCOD8285503
Probable space group: F M M M
;
_chemical_formula_sum "Si O2"
_cell_formula_units_Z 208
_cell_length_a 18.268299
_cell_length_b 23.283829
_cell_length_c 26.362237
_cell_angle_alpha 90.000000
_cell_angle_beta 90.000000
_cell_angle_gamma 90.000000
_cell_volume 11213.334364
_symmetry_space_group_name_H-M "F M M M"
_symmetry_group_IT_number 69
_symmetry_cell_setting 'orthorhombic'
loop_
_space_group_symop_operation_xyz
x,y,z
-x,-y,z
x,-y,-z
-x,y,-z
-x,-y,-z
x,y,-z
-x,y,z
x,-y,z
x,1/2+y,1/2+z
-x,1/2-y,1/2+z
x,1/2-y,1/2-z
-x,1/2+y,1/2-z
-x,1/2-y,1/2-z
x,1/2+y,1/2-z
-x,1/2+y,1/2+z
x,1/2-y,1/2+z
1/2+x,y,1/2+z
1/2-x,-y,1/2+z
1/2+x,-y,1/2-z
1/2-x,y,1/2-z
1/2-x,-y,1/2-z
1/2+x,y,1/2-z
1/2-x,y,1/2+z
1/2+x,-y,1/2+z
1/2+x,1/2+y,z
1/2-x,1/2-y,z
1/2+x,1/2-y,-z
1/2-x,1/2+y,-z
1/2-x,1/2-y,-z
1/2+x,1/2+y,-z
1/2-x,1/2+y,z
1/2+x,1/2-y,z
loop_
_atom_site_type_symbol
_atom_site_label
_atom_site_fract_x
_atom_site_fract_y
_atom_site_fract_z
Si Si1 0.668032 0.816559 0.810117
Si Si2 0.203615 0.934579 0.059884
Si Si3 0.344407 0.867557 0.086162
Si Si4 0.660766 0.316101 0.196637
Si Si5 0.170383 0.744384 0.443189
Si Si6 0.414806 0.937628 0.000000
Si Si7 0.086448 0.858779 0.895570
O O1 0.633203 0.856932 0.854542
O O2 0.648413 0.750003 0.820494
O O3 0.636289 0.830073 0.754366
O O4 0.754109 0.829082 0.810282
O O5 0.260875 0.890329 0.084985
O O6 0.123070 0.912471 0.075490
O O7 0.213793 0.000000 0.079429
O O8 0.213976 0.931747 0.000000
O O9 0.360023 0.808520 0.056637
O O10 0.393254 0.910956 0.054135
O O11 0.610488 0.358521 0.163330
O O12 0.182322 0.721027 0.500000
O O13 0.250000 0.750000 0.415043
O O14 0.114169 0.701770 0.417129
O O15 0.500000 0.942510 0.000000
O O16 0.376855 0.000000 0.000000
O O17 0.000000 0.864496 0.902053
#
# Coordination Sequence:
#
# PCOD8285503 Si02
#       7
#    32  32  32  32  32  16  32
#     4   9  17  31  62  84 115 151 193 241 282 347
#     4  11  23  39  61  86 112 155 211 248 280 344
#     4  12  19  36  63  89 114 149 197 248 296 349
#     4   9  17  34  53  89 118 152 190 231 295 352
#     4  11  20  33  55  84 117 153 188 236 293 351
#     4  11  26  44  59  84 123 159 195 248 310 360
#     4  12  24  37  56  85 126 161 189 239 302 361
#
# _framework density 18.549344000000001
#
# number of rings (size 3 to 8) (size 9 to 14) (size 15 to 20)
#    0.000    1.308    6.154    1.846    0.000    2.154 
#    0.000    3.077    0.000    2.769    0.000    0.000 
#    0.000    0.000    0.000    0.000    0.000    0.000 
#
# Total GULP energy -644377.570501 kJ/mol
# GULP energy per Si atom -12391.876356 kJ/mol
# Density = 1.850713 g / cm^3
# Si number density = 18.549344 Si / 1000 Ang^3
#
#
#
# Elastic Constant Matrix: (Units=GPa)
#
#
# Indices 1 2 3 4 5 6 
#
# 1 61.4697 21.2447 20.3038 0.0000 0.0000 0.0000
# 2 21.2447 93.9199 45.5955 0.0000 0.0000 0.0000
# 3 20.3038 45.5955 120.7241 0.0000 0.0000 0.0000
# 4 0.0000 0.0000 0.0000 14.2716 0.0000 0.0000
# 5 0.0000 0.0000 0.0000 0.0000 19.4878 0.0000
# 6 0.0000 0.0000 0.0000 0.0000 0.0000 19.5420
#
#
#
# Elastic Compliance Matrix: (Units=1/GPa)
#
#
# Indices 1 2 3 4 5 6 
#
# 1 0.017969 -0.003181 -0.001821 0.000000 0.000000 0.000000
# 2 -0.003181 0.013601 -0.004602 0.000000 0.000000 0.000000
# 3 -0.001821 -0.004602 0.010328 0.000000 0.000000 0.000000
# 4 0.000000 0.000000 0.000000 0.070069 0.000000 0.000000
# 5 0.000000 0.000000 0.000000 0.000000 0.051314 0.000000
# 6 0.000000 0.000000 0.000000 0.000000 0.000000 0.051172
#
#
# Mechanical properties :
#
#
# Convention : Reuss Voigt Hill
#
# Bulk Modulus (GPa) = 44.07079 50.04464 47.05772
# Shear Modulus (GPa) = 20.72771 23.25826 21.99299
#
# Velocity S-wave (km/s) = 3.34643 3.54483 3.44706
# Velocity P-wave (km/s) = 6.22429 6.61757 6.42394
#
# Compressibility (1/GPa) = 0.02269076
#
# Stress axis : x y z
#
# Youngs Moduli (GPa) = 55.65187 73.52431 96.82746
#
# Poissons Ratio (x) = 0.23385 0.17630
# Poissons Ratio (y) = 0.17701 0.44559
# Poissons Ratio (z) = 0.10133 0.33835
#
# Static dielectric constant tensor:
#      x y z
#    x 3.082060 0.000000 0.000000 
#    y 0.000000 3.410840 0.000000 
#    z 0.000000 0.000000 3.738490 
# 
# 
# High freq. dielectric constant tensor:
#      x y z
#    x 1.686870 0.000000 0.000000 
#    y 0.000000 1.700920 0.000000 
#    z 0.000000 0.000000 1.733200 
# 
# From -- ./inp_files/42123.got.cif
#   From: 2010.03.12/outbox.cif.g09.slc.cpg/sg69_22_cif.got.tgz:42123.got - 2010.04.10 23:52:46.
