data_PCOD8285523
_publ_section_title
;
Structure prediction by ZEFSAII (Michael W. Deem and Ramdas Pophale) SiO2 
 PCOD8285523
Probable space group: F M M M
;
_chemical_formula_sum "Si O2"
_cell_formula_units_Z 192
_cell_length_a 26.409682
_cell_length_b 16.328305
_cell_length_c 24.163887
_cell_angle_alpha 90.000000
_cell_angle_beta 90.000000
_cell_angle_gamma 90.000000
_cell_volume 10420.080451
_symmetry_space_group_name_H-M "F M M M"
_symmetry_group_IT_number 69
_symmetry_cell_setting 'orthorhombic'
loop_
_space_group_symop_operation_xyz
x,y,z
-x,-y,z
x,-y,-z
-x,y,-z
-x,-y,-z
x,y,-z
-x,y,z
x,-y,z
x,1/2+y,1/2+z
-x,1/2-y,1/2+z
x,1/2-y,1/2-z
-x,1/2+y,1/2-z
-x,1/2-y,1/2-z
x,1/2+y,1/2-z
-x,1/2+y,1/2+z
x,1/2-y,1/2+z
1/2+x,y,1/2+z
1/2-x,-y,1/2+z
1/2+x,-y,1/2-z
1/2-x,y,1/2-z
1/2-x,-y,1/2-z
1/2+x,y,1/2-z
1/2-x,y,1/2+z
1/2+x,-y,1/2+z
1/2+x,1/2+y,z
1/2-x,1/2-y,z
1/2+x,1/2-y,-z
1/2-x,1/2+y,-z
1/2-x,1/2-y,-z
1/2+x,1/2+y,-z
1/2-x,1/2+y,z
1/2+x,1/2-y,z
loop_
_atom_site_type_symbol
_atom_site_label
_atom_site_fract_x
_atom_site_fract_y
_atom_site_fract_z
Si Si1 0.730396 0.665787 0.563208
Si Si2 0.888542 0.681158 0.063026
Si Si3 0.060023 0.591193 0.723987
Si Si4 0.395623 0.500000 0.935533
Si Si5 0.059250 0.338136 0.610325
Si Si6 0.055247 0.904199 0.656953
Si Si7 0.718902 0.000000 0.433780
O O1 0.749276 0.667044 0.500000
O O2 0.750000 0.750000 0.592339
O O3 0.670562 0.667311 0.567622
O O4 0.753296 0.582252 0.589962
O O5 0.905250 0.770661 0.082659
O O6 0.911646 0.614443 0.103727
O O7 0.907073 0.666836 0.000000
O O8 0.082213 0.500000 0.710684
O O9 0.074514 0.654246 0.675213
O O10 0.079488 0.625076 0.783969
O O11 0.000000 0.583504 0.728035
O O12 0.428929 0.422912 0.918847
O O13 0.338633 0.500000 0.910522
O O14 0.387755 0.500000 0.000000
O O15 0.000000 0.316820 0.602508
O O16 0.000000 0.862534 0.648491
O O17 0.048670 0.000000 0.662031
O O18 0.722562 0.000000 0.500000
#
# Coordination Sequence:
#
# PCOD8285523 Si02
#       7
#    32  32  32  16  32  32  16
#     4   9  18  34  53  73 101 137 179 230 272 310
#     4  11  23  34  49  77 112 142 177 215 262 326
#     4   8  15  32  54  74  99 135 185 229 253 291
#     4  11  21  32  51  81 110 140 176 209 267 346
#     4  11  21  33  51  77 113 150 176 210 259 318
#     4   9  19  35  54  75 103 140 180 223 262 301
#     4   9  18  33  54  74  97 135 184 231 274 314
#
# _framework density 18.425961000000001
#
# number of rings (size 3 to 8) (size 9 to 14) (size 15 to 20)
#    0.000    2.333    0.833    3.250    1.167    6.333 
#    0.000    3.333    0.000    0.000    0.000    9.333 
#    0.000    0.000    0.000    0.000    0.000    0.000 
#
# Total GULP energy -594794.072863 kJ/mol
# GULP energy per Si atom -12391.543185 kJ/mol
# Density = 1.838402 g / cm^3
# Si number density = 18.425961 Si / 1000 Ang^3
#
#
#
# Elastic Constant Matrix: (Units=GPa)
#
#
# Indices 1 2 3 4 5 6 
#
# 1 49.2209 22.6857 27.3164 0.0000 0.0000 0.0000
# 2 22.6857 79.7989 15.3037 0.0000 0.0000 0.0000
# 3 27.3164 15.3037 99.1910 0.0000 0.0000 0.0000
# 4 0.0000 0.0000 0.0000 24.9012 0.0000 0.0000
# 5 0.0000 0.0000 0.0000 0.0000 3.4862 0.0000
# 6 0.0000 0.0000 0.0000 0.0000 0.0000 37.9704
#
#
#
# Elastic Compliance Matrix: (Units=1/GPa)
#
#
# Indices 1 2 3 4 5 6 
#
# 1 0.026815 -0.006396 -0.006398 0.000000 0.000000 0.000000
# 2 -0.006396 0.014439 -0.000466 0.000000 0.000000 0.000000
# 3 -0.006398 -0.000466 0.011915 0.000000 0.000000 0.000000
# 4 0.000000 0.000000 0.000000 0.040159 0.000000 0.000000
# 5 0.000000 0.000000 0.000000 0.000000 0.286843 0.000000
# 6 0.000000 0.000000 0.000000 0.000000 0.000000 0.026336
#
#
# Mechanical properties :
#
#
# Convention : Reuss Voigt Hill
#
# Bulk Modulus (GPa) = 37.52458 39.86913 38.69686
# Shear Modulus (GPa) = 11.31448 24.13190 17.72319
#
# Velocity S-wave (km/s) = 2.48069 3.62286 3.10475
# Velocity P-wave (km/s) = 5.34924 6.25976 5.82233
#
# Compressibility (1/GPa) = 0.02664920
#
# Stress axis : x y z
#
# Youngs Moduli (GPa) = 37.29228 69.25552 83.92488
#
# Poissons Ratio (x) = 0.44297 0.53694
# Poissons Ratio (y) = 0.23853 0.03913
# Poissons Ratio (z) = 0.23859 0.03229
#
# Static dielectric constant tensor:
#      x y z
#    x 2.886210 0.000000 0.000000 
#    y 0.000000 3.453420 0.000000 
#    z 0.000000 0.000000 3.590610 
# 
# 
# High freq. dielectric constant tensor:
#      x y z
#    x 1.690560 0.000000 0.000000 
#    y 0.000000 1.723430 0.000000 
#    z 0.000000 0.000000 1.695850 
# 
# From -- ./inp_files/43225.got.cif
#   From: 2010.03.12/outbox.cif.g09.slc.cpg/sg69_22_cif.got.tgz:43225.got - 2010.04.10 23:52:46.
