data_PCOD8285937
_publ_section_title
;
Structure prediction by ZEFSAII (Michael W. Deem and Ramdas Pophale) SiO2 
 PCOD8285937
Probable space group: F D D D
;
_chemical_formula_sum "Si O2"
_cell_formula_units_Z 216
_cell_length_a 26.299948
_cell_length_b 25.799027
_cell_length_c 15.792455
_cell_angle_alpha 90.000000
_cell_angle_beta 90.000000
_cell_angle_gamma 90.000000
_cell_volume 10715.387102
_symmetry_space_group_name_H-M "F D D D"
_symmetry_group_IT_number 70
_space_group.IT_coordinate_system_code '2'
_symmetry_cell_setting 'orthorhombic'
loop_
_space_group_symop_operation_xyz
x,y,z
1/4-x,1/4-y,z
x,1/4-y,1/4-z
1/4-x,y,1/4-z
-x,-y,-z
3/4+x,3/4+y,-z
-x,3/4+y,3/4+z
3/4+x,-y,3/4+z
x,1/2+y,1/2+z
1/4-x,3/4-y,1/2+z
x,3/4-y,3/4-z
1/4-x,1/2+y,3/4-z
-x,1/2-y,1/2-z
3/4+x,1/4+y,1/2-z
-x,1/4+y,1/4+z
3/4+x,1/2-y,1/4+z
1/2+x,y,1/2+z
3/4-x,1/4-y,1/2+z
1/2+x,1/4-y,3/4-z
3/4-x,y,3/4-z
1/2-x,-y,1/2-z
1/4+x,3/4+y,1/2-z
1/2-x,3/4+y,1/4+z
1/4+x,-y,1/4+z
1/2+x,1/2+y,z
3/4-x,3/4-y,z
1/2+x,3/4-y,1/4-z
3/4-x,1/2+y,1/4-z
1/2-x,1/2-y,-z
1/4+x,1/4+y,-z
1/2-x,1/4+y,3/4+z
1/4+x,1/2-y,3/4+z
loop_
_atom_site_type_symbol
_atom_site_label
_atom_site_fract_x
_atom_site_fract_y
_atom_site_fract_z
Si Si1 0.581321 0.420358 0.556062
Si Si2 0.418590 0.335052 0.595134
Si Si3 0.092922 0.471064 0.314802
Si Si4 0.241178 0.481239 0.075677
Si Si5 0.955527 0.892853 0.747937
Si Si6 0.492385 0.094812 0.210306
Si Si7 0.375000 0.375000 0.875000
Si Si8 0.957967 0.125000 0.125000
O O1 0.625000 0.403566 0.625000
O O2 0.606459 0.452625 0.481331
O O3 0.539963 0.461094 0.592518
O O4 0.554609 0.369381 0.514461
O O5 0.375000 0.375000 0.570152
O O6 0.396294 0.277065 0.604807
O O7 0.439419 0.345146 0.689326
O O8 0.459953 0.342380 0.522348
O O9 0.045884 0.479096 0.253263
O O10 0.077155 0.426383 0.381950
O O11 0.287810 0.442209 0.061955
O O12 0.267768 0.537453 0.078318
O O13 0.912268 0.908985 0.815994
O O14 0.008174 0.875725 0.790774
O O15 0.506062 0.125000 0.125000
#
# Coordination Sequence:
#
# PCOD8285937 Si02
#       8
#    32  32  32  32  32  32   8  16
#     4  10  21  42  65  87 129 171 206 268 327 374
#     4  11  23  40  62  90 126 167 213 254 320 382
#     4   9  21  38  61  93 119 166 209 253 318 383
#     4   9  20  41  63  84 125 167 205 257 321 372
#     4  10  19  39  63  86 124 161 201 260 315 371
#     4  11  25  40  61  95 123 164 220 257 310 385
#     4  10  20  36  60  92 118 148 204 256 302 376
#     4   9  20  39  64  88 124 162 205 260 313 380
#
# _framework density 20.157927000000001
#
# number of rings (size 3 to 8) (size 9 to 14) (size 15 to 20)
#    0.000    2.074    2.222    0.000    3.111    2.667 
#    1.333    0.000    0.000    0.000    0.000    0.000 
#    0.000    0.000    0.000    0.000    0.000    0.000 
#
# Total GULP energy -669091.996277 kJ/mol
# GULP energy per Si atom -12390.592524 kJ/mol
# Density = 2.011205 g / cm^3
# Si number density = 20.157927 Si / 1000 Ang^3
#
#
#
# Elastic Constant Matrix: (Units=GPa)
#
#
# Indices 1 2 3 4 5 6 
#
# 1 98.2516 78.9939 51.3150 0.0000 0.0000 0.0000
# 2 78.9939 185.6974 58.3879 0.0000 0.0000 0.0000
# 3 51.3150 58.3879 97.4606 0.0000 0.0000 0.0000
# 4 0.0000 0.0000 0.0000 29.5690 0.0000 0.0000
# 5 0.0000 0.0000 0.0000 0.0000 34.9179 0.0000
# 6 0.0000 0.0000 0.0000 0.0000 0.0000 28.2165
#
#
#
# Elastic Compliance Matrix: (Units=1/GPa)
#
#
# Indices 1 2 3 4 5 6 
#
# 1 0.017926 -0.005739 -0.006000 0.000000 0.000000 0.000000
# 2 -0.005739 0.008472 -0.002054 0.000000 0.000000 0.000000
# 3 -0.006000 -0.002054 0.014650 0.000000 0.000000 0.000000
# 4 0.000000 0.000000 0.000000 0.033819 0.000000 0.000000
# 5 0.000000 0.000000 0.000000 0.000000 0.028639 0.000000
# 6 0.000000 0.000000 0.000000 0.000000 0.000000 0.035440
#
#
# Mechanical properties :
#
#
# Convention : Reuss Voigt Hill
#
# Bulk Modulus (GPa) = 74.28210 84.31148 79.29679
# Shear Modulus (GPa) = 29.23639 31.38819 30.31229
#
# Velocity S-wave (km/s) = 3.81250 3.95031 3.88202
# Velocity P-wave (km/s) = 7.50402 7.91978 7.71470
#
# Compressibility (1/GPa) = 0.01346219
#
# Stress axis : x y z
#
# Youngs Moduli (GPa) = 55.78577 118.03345 68.25798
#
# Poissons Ratio (x) = 0.67737 0.40956
# Poissons Ratio (y) = 0.32014 0.14020
# Poissons Ratio (z) = 0.33472 0.24244
#
# Static dielectric constant tensor:
#      x y z
#    x 3.730870 0.000000 0.000000 
#    y 0.000000 4.157100 0.000000 
#    z 0.000000 0.000000 3.706390 
# 
# 
# High freq. dielectric constant tensor:
#      x y z
#    x 1.794330 0.000000 0.000000 
#    y 0.000000 1.782160 0.000000 
#    z 0.000000 0.000000 1.787110 
# 
# From -- ./inp_files/30182.got.cif
#   From: 2010.03.12/outbox.cif.g09.slc.cpg/sg70_16_cif.got.tgz:30182.got - 2010.04.16 13:46:32.
