data_PCOD8285145
_publ_section_title
;
Structure prediction by ZEFSAII (Michael W. Deem and Ramdas Pophale) SiO2 
 PCOD8285145
Probable space group: F M M M
;
_chemical_formula_sum "Si O2"
_cell_formula_units_Z 176
_cell_length_a 14.456824
_cell_length_b 23.840268
_cell_length_c 29.644330
_cell_angle_alpha 90.000000
_cell_angle_beta 90.000000
_cell_angle_gamma 90.000000
_cell_volume 10217.053471
_symmetry_space_group_name_H-M "F M M M"
_symmetry_group_IT_number 69
_symmetry_cell_setting 'orthorhombic'
loop_
_space_group_symop_operation_xyz
x,y,z
-x,-y,z
x,-y,-z
-x,y,-z
-x,-y,-z
x,y,-z
-x,y,z
x,-y,z
x,1/2+y,1/2+z
-x,1/2-y,1/2+z
x,1/2-y,1/2-z
-x,1/2+y,1/2-z
-x,1/2-y,1/2-z
x,1/2+y,1/2-z
-x,1/2+y,1/2+z
x,1/2-y,1/2+z
1/2+x,y,1/2+z
1/2-x,-y,1/2+z
1/2+x,-y,1/2-z
1/2-x,y,1/2-z
1/2-x,-y,1/2-z
1/2+x,y,1/2-z
1/2-x,y,1/2+z
1/2+x,-y,1/2+z
1/2+x,1/2+y,z
1/2-x,1/2-y,z
1/2+x,1/2-y,-z
1/2-x,1/2+y,-z
1/2-x,1/2-y,-z
1/2+x,1/2+y,-z
1/2-x,1/2+y,z
1/2+x,1/2-y,z
loop_
_atom_site_type_symbol
_atom_site_label
_atom_site_fract_x
_atom_site_fract_y
_atom_site_fract_z
Si Si1 0.890916 0.060707 0.590781
Si Si2 0.392642 0.676729 0.551949
Si Si3 0.108497 0.437126 0.808319
Si Si4 0.150042 0.327037 0.762674
Si Si5 0.750000 0.250000 0.109497
Si Si6 0.099723 0.227652 0.823883
O O1 0.863546 0.111487 0.557811
O O2 0.852269 0.071979 0.641125
O O3 0.000000 0.055834 0.594475
O O4 0.852825 0.000000 0.572890
O O5 0.382410 0.693431 0.500000
O O6 0.500000 0.686344 0.567746
O O7 0.319038 0.712680 0.579824
O O8 0.132192 0.500000 0.791492
O O9 0.154748 0.392505 0.774923
O O10 0.000000 0.425986 0.807209
O O11 0.250000 0.303711 0.750000
O O12 0.112103 0.290930 0.804607
O O13 0.092153 0.316799 0.717048
O O14 0.817752 0.212584 0.141200
O O15 0.000000 0.225676 0.848967
#
# Coordination Sequence:
#
# PCOD8285145 Si02
#       6
#    32  32  32  32  16  32
#     4   8  15  29  50  75 100 129 164 200 246 304
#     4  10  21  35  53  77 104 133 161 201 258 312
#     4   9  17  29  46  68  97 134 168 201 245 292
#     4  11  19  32  47  71 100 129 173 215 246 285
#     4  12  21  35  50  74 100 134 170 207 245 306
#     4  11  21  34  51  70  96 132 171 212 250 283
#
# _framework density 17.226101
#
# number of rings (size 3 to 8) (size 9 to 14) (size 15 to 20)
#    0.000    2.000    1.818    5.727    0.000    2.182 
#    0.000    1.818    0.000    0.000    0.000    0.000 
#    0.000    2.182    0.000    8.909    0.000    0.727 
#
# Total GULP energy -545157.445830 kJ/mol
# GULP energy per Si atom -12389.941951 kJ/mol
# Density = 1.718689 g / cm^3
# Si number density = 17.226101 Si / 1000 Ang^3
#
#
#
# Elastic Constant Matrix: (Units=GPa)
#
#
# Indices 1 2 3 4 5 6 
#
# 1 96.3712 24.5603 35.4379 0.0000 0.0000 0.0000
# 2 24.5603 83.4887 38.5378 0.0000 0.0000 0.0000
# 3 35.4379 38.5378 74.0822 0.0000 0.0000 0.0000
# 4 0.0000 0.0000 0.0000 27.1795 0.0000 0.0000
# 5 0.0000 0.0000 0.0000 0.0000 24.3635 0.0000
# 6 0.0000 0.0000 0.0000 0.0000 0.0000 11.1828
#
#
#
# Elastic Compliance Matrix: (Units=1/GPa)
#
#
# Indices 1 2 3 4 5 6 
#
# 1 0.012686 -0.001225 -0.005431 0.000000 0.000000 0.000000
# 2 -0.001225 0.015881 -0.007675 0.000000 0.000000 0.000000
# 3 -0.005431 -0.007675 0.020089 0.000000 0.000000 0.000000
# 4 0.000000 0.000000 0.000000 0.036792 0.000000 0.000000
# 5 0.000000 0.000000 0.000000 0.000000 0.041045 0.000000
# 6 0.000000 0.000000 0.000000 0.000000 0.000000 0.089423
#
#
# Mechanical properties :
#
#
# Convention : Reuss Voigt Hill
#
# Bulk Modulus (GPa) = 50.01698 50.11268 50.06483
# Shear Modulus (GPa) = 19.90094 22.90555 21.40325
#
# Velocity S-wave (km/s) = 3.40263 3.65046 3.52872
# Velocity P-wave (km/s) = 6.67351 6.84997 6.76232
#
# Compressibility (1/GPa) = 0.01999321
#
# Stress axis : x y z
#
# Youngs Moduli (GPa) = 78.82777 62.96875 49.77755
#
# Poissons Ratio (x) = 0.07713 0.27035
# Poissons Ratio (y) = 0.09655 0.38206
# Poissons Ratio (z) = 0.42813 0.48331
#
# Static dielectric constant tensor:
#      x y z
#    x 3.088280 0.000000 0.000000 
#    y 0.000000 3.286400 0.000000 
#    z 0.000000 0.000000 3.153400 
# 
# 
# High freq. dielectric constant tensor:
#      x y z
#    x 1.643570 0.000000 0.000000 
#    y 0.000000 1.655360 0.000000 
#    z 0.000000 0.000000 1.651640 
# 
# From -- ./inp_files/45833.got.cif
#   From: 2010.03.12/outbox.cif.g09.slc.cpg/sg69_23_cif.got.tgz:45833.got - 2010.04.10 23:52:46.
