data_PCOD8285326
_publ_section_title
;
Structure prediction by ZEFSAII (Michael W. Deem and Ramdas Pophale) SiO2 
 PCOD8285326
Probable space group: F M M M
;
_chemical_formula_sum "Si O2"
_cell_formula_units_Z 176
_cell_length_a 24.756926
_cell_length_b 17.834252
_cell_length_c 18.589356
_cell_angle_alpha 90.000000
_cell_angle_beta 90.000000
_cell_angle_gamma 90.000000
_cell_volume 8207.595828
_symmetry_space_group_name_H-M "F M M M"
_symmetry_group_IT_number 69
_symmetry_cell_setting 'orthorhombic'
loop_
_space_group_symop_operation_xyz
x,y,z
-x,-y,z
x,-y,-z
-x,y,-z
-x,-y,-z
x,y,-z
-x,y,z
x,-y,z
x,1/2+y,1/2+z
-x,1/2-y,1/2+z
x,1/2-y,1/2-z
-x,1/2+y,1/2-z
-x,1/2-y,1/2-z
x,1/2+y,1/2-z
-x,1/2+y,1/2+z
x,1/2-y,1/2+z
1/2+x,y,1/2+z
1/2-x,-y,1/2+z
1/2+x,-y,1/2-z
1/2-x,y,1/2-z
1/2-x,-y,1/2-z
1/2+x,y,1/2-z
1/2-x,y,1/2+z
1/2+x,-y,1/2+z
1/2+x,1/2+y,z
1/2-x,1/2-y,z
1/2+x,1/2-y,-z
1/2-x,1/2+y,-z
1/2-x,1/2-y,-z
1/2+x,1/2+y,-z
1/2-x,1/2+y,z
1/2+x,1/2-y,z
loop_
_atom_site_type_symbol
_atom_site_label
_atom_site_fract_x
_atom_site_fract_y
_atom_site_fract_z
Si Si1 0.784575 0.913574 0.817754
Si Si2 0.000000 0.913836 0.079133
Si Si3 0.561854 0.084369 0.189629
Si Si4 0.224337 0.323782 0.079938
Si Si5 0.901954 0.349313 0.333508
Si Si6 0.098723 0.802123 0.582047
O O1 0.750000 0.881724 0.750000
O O2 0.743633 0.900367 0.883132
O O3 0.839272 0.871105 0.841433
O O4 0.798863 0.000000 0.806093
O O5 0.944815 0.898539 0.122510
O O6 0.000000 0.000000 0.063601
O O7 0.000000 0.873192 0.000000
O O8 0.500000 0.075537 0.209282
O O9 0.588248 0.139469 0.248578
O O10 0.568414 0.124257 0.112201
O O11 0.587899 0.000000 0.189248
O O12 0.250000 0.250000 0.118586
O O13 0.160849 0.321536 0.081827
O O14 0.247856 0.326746 0.000000
O O15 0.912567 0.265967 0.363235
O O16 0.078970 0.784871 0.500000
#
# Coordination Sequence:
#
# PCOD8285326 Si02
#       6
#    32  16  32  32  32  32
#     4  11  24  40  65 101 134 170 222 278 335 402
#     4  11  24  40  63  98 140 186 229 275 340 416
#     4  11  25  45  68  94 130 176 222 271 332 398
#     4  10  21  41  62  88 127 169 211 258 322 390
#     4  12  23  43  70  97 136 176 222 283 342 405
#     4  11  25  43  68 100 133 172 222 279 338 402
#
# _framework density 21.443550999999999
#
# number of rings (size 3 to 8) (size 9 to 14) (size 15 to 20)
#    0.000    1.000    2.727    3.818    1.273    5.091 
#    0.000    2.727    0.000    0.000    0.000    0.000 
#    0.000    0.000    0.000    0.000    0.000    0.000 
#
# Total GULP energy -545265.251339 kJ/mol
# GULP energy per Si atom -12392.392076 kJ/mol
# Density = 2.139474 g / cm^3
# Si number density = 21.443551 Si / 1000 Ang^3
#
#
#
# Elastic Constant Matrix: (Units=GPa)
#
#
# Indices 1 2 3 4 5 6 
#
# 1 73.4784 23.4913 35.8646 0.0000 0.0000 0.0000
# 2 23.4913 105.7895 63.6450 0.0000 0.0000 0.0000
# 3 35.8646 63.6450 115.0302 0.0000 0.0000 0.0000
# 4 0.0000 0.0000 0.0000 22.5152 0.0000 0.0000
# 5 0.0000 0.0000 0.0000 0.0000 33.9608 0.0000
# 6 0.0000 0.0000 0.0000 0.0000 0.0000 30.8019
#
#
#
# Elastic Compliance Matrix: (Units=1/GPa)
#
#
# Indices 1 2 3 4 5 6 
#
# 1 0.016101 -0.000832 -0.004560 0.000000 0.000000 0.000000
# 2 -0.000832 0.014212 -0.007604 0.000000 0.000000 0.000000
# 3 -0.004560 -0.007604 0.014322 0.000000 0.000000 0.000000
# 4 0.000000 0.000000 0.000000 0.044414 0.000000 0.000000
# 5 0.000000 0.000000 0.000000 0.000000 0.029446 0.000000
# 6 0.000000 0.000000 0.000000 0.000000 0.000000 0.032466
#
#
# Mechanical properties :
#
#
# Convention : Reuss Voigt Hill
#
# Bulk Modulus (GPa) = 53.63702 60.03333 56.83518
# Shear Modulus (GPa) = 27.29743 28.87540 28.08642
#
# Velocity S-wave (km/s) = 3.57177 3.67356 3.62302
# Velocity P-wave (km/s) = 6.48672 6.78602 6.63806
#
# Compressibility (1/GPa) = 0.01864384
#
# Stress axis : x y z
#
# Youngs Moduli (GPa) = 62.10785 70.36175 69.82169
#
# Poissons Ratio (x) = 0.05856 0.31836
# Poissons Ratio (y) = 0.05169 0.53093
# Poissons Ratio (z) = 0.28319 0.53503
#
# Static dielectric constant tensor:
#      x y z
#    x 3.938150 0.000000 0.000000 
#    y 0.000000 3.894610 0.000000 
#    z 0.000000 0.000000 4.110570 
# 
# 
# High freq. dielectric constant tensor:
#      x y z
#    x 1.850200 0.000000 0.000000 
#    y 0.000000 1.836180 0.000000 
#    z 0.000000 0.000000 1.847020 
# 
# From -- ./inp_files/26749.got.cif
#   From: 2010.03.12/outbox.cif.g09.slc.cpg/sg69_14_cif.got.tgz:26749.got - 2010.04.10 23:52:46.
