data_PCOD8285711
_publ_section_title
;
Structure prediction by ZEFSAII (Michael W. Deem and Ramdas Pophale) SiO2 
 PCOD8285711
Probable space group: F M M M
;
_chemical_formula_sum "Si O2"
_cell_formula_units_Z 40
_cell_length_a 30.000000
_cell_length_b 15.000000
_cell_length_c 18.000000
_cell_angle_alpha 90.000000
_cell_angle_beta 90.000000
_cell_angle_gamma 90.000000
_cell_volume 8100.000000
_symmetry_space_group_name_H-M "F M M M"
_symmetry_group_IT_number 69
_symmetry_cell_setting 'orthorhombic'
loop_
_space_group_symop_operation_xyz
x,y,z
-x,-y,z
x,-y,-z
-x,y,-z
-x,-y,-z
x,y,-z
-x,y,z
x,-y,z
x,1/2+y,1/2+z
-x,1/2-y,1/2+z
x,1/2-y,1/2-z
-x,1/2+y,1/2-z
-x,1/2-y,1/2-z
x,1/2+y,1/2-z
-x,1/2+y,1/2+z
x,1/2-y,1/2+z
1/2+x,y,1/2+z
1/2-x,-y,1/2+z
1/2+x,-y,1/2-z
1/2-x,y,1/2-z
1/2-x,-y,1/2-z
1/2+x,y,1/2-z
1/2-x,y,1/2+z
1/2+x,-y,1/2+z
1/2+x,1/2+y,z
1/2-x,1/2-y,z
1/2+x,1/2-y,-z
1/2-x,1/2+y,-z
1/2-x,1/2-y,-z
1/2+x,1/2+y,-z
1/2-x,1/2+y,z
1/2+x,1/2-y,z
loop_
_atom_site_type_symbol
_atom_site_label
_atom_site_fract_x
_atom_site_fract_y
_atom_site_fract_z
Si Si1 0.451658 0.341040 0.792564
Si Si2 0.363801 0.000000 0.912201
Si Si3 0.270751 0.902928 0.329928
Si Si4 0.550244 0.500000 0.681808
Si Si5 0.307410 0.165449 0.086295
Si Si6 0.142377 0.804799 0.826478
O O1 0.500000 0.360908 0.833023
O O2 0.457058 0.250000 0.750000
O O3 0.441103 0.414427 0.731601
O O4 0.408239 0.337081 0.846719
O O5 0.336199 0.916413 0.881795
O O6 0.414536 0.000000 0.884346
O O7 0.367251 0.000000 0.000000
O O8 0.250000 0.898666 0.250000
O O9 0.242488 0.832833 0.379108
O O10 0.323403 0.886148 0.320149
O O11 0.265450 0.000000 0.366903
O O12 0.500000 0.500000 0.648616
O O13 0.337346 0.250148 0.105353
O O14 0.299940 0.159446 0.000000
O O15 0.141776 0.750000 0.750000
#
# Coordination Sequence:
#
# PCOD8285711 Si02
#       6
#    32  16  32  16  32  32
#     4   9  19  34  54  82 115 147 185 237 287 333
#     4  10  20  35  54  76 111 154 190 226 283 342
#     4  11  23  35  54  83 114 150 191 235 279 335
#     4  10  20  33  55  85 117 152 189 237 295 337
#     4  11  23  39  56  80 115 152 188 234 289 344
#     4  11  21  35  57  83 111 147 195 236 280 338
#
# _framework density 4.9382720000000004
#
# number of rings (size 3 to 8) (size 9 to 14) (size 15 to 20)
#    0.000    1.600    3.000    3.000    1.400    1.800 
#    0.000    0.000    0.000    1.800    0.000    0.000 
#    0.000    2.400    0.000    0.000    0.000    0.000 
#
# Total GULP energy -495586.156651 kJ/mol
# GULP energy per Si atom -12389.653916 kJ/mol
# Density = 0.492703 g / cm^3
# Si number density = 4.938272 Si / 1000 Ang^3
#
#
#
# Elastic Constant Matrix: (Units=GPa)
#
#
# Indices 1 2 3 4 5 6 
#
# 1 215.8043 24.2429 36.6563 0.0000 0.0000 0.0000
# 2 24.2429 67.8083 20.6356 0.0000 0.0000 0.0000
# 3 36.6563 20.6356 34.7856 0.0000 0.0000 0.0000
# 4 0.0000 0.0000 0.0000 17.3278 0.0000 0.0000
# 5 0.0000 0.0000 0.0000 0.0000 -0.6341 0.0000
# 6 0.0000 0.0000 0.0000 0.0000 0.0000 37.9414
#
#
#
# Elastic Compliance Matrix: (Units=1/GPa)
#
#
# Indices 1 2 3 4 5 6 
#
# 1 0.005648 -0.000254 -0.005801 0.000000 0.000000 0.000000
# 2 -0.000254 0.018008 -0.010415 0.000000 0.000000 0.000000
# 3 -0.005801 -0.010415 0.041039 0.000000 0.000000 0.000000
# 4 0.000000 0.000000 0.000000 0.057711 0.000000 0.000000
# 5 0.000000 0.000000 0.000000 0.000000 -1.576920 0.000000
# 6 0.000000 0.000000 0.000000 0.000000 0.000000 0.026356
#
#
# Mechanical properties :
#
#
# Convention : Reuss Voigt Hill
#
# Bulk Modulus (GPa) = 31.49141 53.49641 42.49391
# Shear Modulus (GPa) = -3.61106 26.71791 11.55342
#
# Velocity S-wave (km/s) = -1.35354 3.68175 2.42108
# Velocity P-wave (km/s) = 3.67891 6.72422 5.41985
#
# Compressibility (1/GPa) = 0.03175470
#
# Stress axis : x y z
#
# Youngs Moduli (GPa) = 177.06451 55.53155 24.36717
#
# Poissons Ratio (x) = 0.01410 0.14135
# Poissons Ratio (y) = 0.04495 0.25379
# Poissons Ratio (z) = 1.02712 0.57837
#
# Static dielectric constant tensor:
#      x y z
#    x 4.346740 0.000000 0.000000 
#    y 0.000000 3.834500 0.000000 
#    z 0.000000 0.000000 2.984450 
# 
# 
# High freq. dielectric constant tensor:
#      x y z
#    x 1.796920 0.000000 0.000000 
#    y 0.000000 1.772540 0.000000 
#    z 0.000000 0.000000 1.708480 
# 
# From -- ./inp_files/19580.got.cif
#   From: 2010.03.12/outbox.ucp.g09.slc.cvg/sg69_10_cif.got.tgz:19580.got - 2010.05.04 19:54:48.
