data_PCOD8285936
_publ_section_title
;
Structure prediction by ZEFSAII (Michael W. Deem and Ramdas Pophale) SiO2 
 PCOD8285936
Probable space group: F D D D
;
_chemical_formula_sum "Si O2"
_cell_formula_units_Z 144
_cell_length_a 27.118090
_cell_length_b 21.734296
_cell_length_c 12.573286
_cell_angle_alpha 90.000000
_cell_angle_beta 90.000000
_cell_angle_gamma 90.000000
_cell_volume 7410.601663
_symmetry_space_group_name_H-M "F D D D"
_symmetry_group_IT_number 70
_space_group.IT_coordinate_system_code '2'
_symmetry_cell_setting 'orthorhombic'
loop_
_space_group_symop_operation_xyz
x,y,z
1/4-x,1/4-y,z
x,1/4-y,1/4-z
1/4-x,y,1/4-z
-x,-y,-z
3/4+x,3/4+y,-z
-x,3/4+y,3/4+z
3/4+x,-y,3/4+z
x,1/2+y,1/2+z
1/4-x,3/4-y,1/2+z
x,3/4-y,3/4-z
1/4-x,1/2+y,3/4-z
-x,1/2-y,1/2-z
3/4+x,1/4+y,1/2-z
-x,1/4+y,1/4+z
3/4+x,1/2-y,1/4+z
1/2+x,y,1/2+z
3/4-x,1/4-y,1/2+z
1/2+x,1/4-y,3/4-z
3/4-x,y,3/4-z
1/2-x,-y,1/2-z
1/4+x,3/4+y,1/2-z
1/2-x,3/4+y,1/4+z
1/4+x,-y,1/4+z
1/2+x,1/2+y,z
3/4-x,3/4-y,z
1/2+x,3/4-y,1/4-z
3/4-x,1/2+y,1/4-z
1/2-x,1/2-y,-z
1/4+x,1/4+y,-z
1/2-x,1/4+y,3/4+z
1/4+x,1/2-y,3/4+z
loop_
_atom_site_type_symbol
_atom_site_label
_atom_site_fract_x
_atom_site_fract_y
_atom_site_fract_z
Si Si1 0.241159 0.490299 0.981017
Si Si2 0.818690 0.942353 0.349970
Si Si3 0.830047 0.293153 0.136770
Si Si4 0.312259 0.432240 0.683290
Si Si5 0.014438 0.625000 0.625000
O O1 0.232561 0.534045 0.878641
O O2 0.231154 0.418677 0.949351
O O3 0.203177 0.506443 0.072811
O O4 0.296862 0.494443 0.028322
O O5 0.793520 0.875000 0.375000
O O6 0.875000 0.933256 0.375000
O O7 0.813979 0.972962 0.233245
O O8 0.887048 0.279032 0.167414
O O9 0.820241 0.365602 0.134951
O O10 0.298477 0.422777 0.807345
#
# Coordination Sequence:
#
# PCOD8285936 Si02
#       5
#    32  32  32  32  16
#     4  11  21  35  60  81 118 152 191 243 298 350
#     4  11  18  35  63  87 115 148 194 254 299 345
#     4  10  20  34  62  92 108 149 197 248 300 347
#     4  10  19  39  59  86 117 145 202 253 287 345
#     4  10  24  37  60  86 116 156 200 240 301 352
#
# _framework density 19.431619999999999
#
# number of rings (size 3 to 8) (size 9 to 14) (size 15 to 20)
#    0.000    1.556    4.444    2.667    0.000    7.111 
#    0.000    0.000   12.222    0.000    0.000    0.000 
#    0.000    0.000    0.000    0.000    0.000    0.000 
#
# Total GULP energy -446047.524795 kJ/mol
# GULP energy per Si atom -12390.209022 kJ/mol
# Density = 1.938739 g / cm^3
# Si number density = 19.431620 Si / 1000 Ang^3
#
#
#
# Elastic Constant Matrix: (Units=GPa)
#
#
# Indices 1 2 3 4 5 6 
#
# 1 92.3647 47.0634 58.4866 0.0000 0.0000 0.0000
# 2 47.0634 63.5570 49.4564 0.0000 0.0000 0.0000
# 3 58.4866 49.4564 144.5802 0.0000 0.0000 -0.0001
# 4 0.0000 0.0000 0.0000 96.9003 0.0000 0.0000
# 5 0.0000 0.0000 0.0000 0.0000 29.3084 0.0000
# 6 0.0000 0.0000 -0.0001 0.0000 0.0000 -0.1534
#
#
#
# Elastic Compliance Matrix: (Units=1/GPa)
#
#
# Indices 1 2 3 4 5 6 
#
# 1 0.018865 -0.010944 -0.003888 0.000000 0.000000 0.000001
# 2 -0.010944 0.027790 -0.005079 0.000000 0.000000 0.000001
# 3 -0.003888 -0.005079 0.010227 0.000000 0.000000 -0.000003
# 4 0.000000 0.000000 0.000000 0.010320 0.000000 0.000002
# 5 0.000000 0.000000 0.000000 0.000000 0.034120 0.000004
# 6 0.000001 0.000001 -0.000003 0.000002 0.000004 -6.520623
#
#
# Mechanical properties :
#
#
# Convention : Reuss Voigt Hill
#
# Bulk Modulus (GPa) = 58.61645 67.83496 63.22571
# Shear Modulus (GPa) = -0.78446 34.91078 17.06316
#
# Velocity S-wave (km/s) = -0.63607 4.24323 2.96651
# Velocity P-wave (km/s) = 5.44899 7.68062 6.65896
#
# Compressibility (1/GPa) = 0.01706006
#
# Stress axis : x y z
#
# Youngs Moduli (GPa) = 53.00878 35.98421 97.78408
#
# Poissons Ratio (x) = 0.39381 0.38016
# Poissons Ratio (y) = 0.58013 0.49664
# Poissons Ratio (z) = 0.20608 0.18276
#
# Static dielectric constant tensor:
#      x y z
#    x 3.125190 0.000000 0.000000 
#    y 0.000000 3.430520 0.000000 
#    z 0.000000 0.000000 4.002510 
# 
# 
# High freq. dielectric constant tensor:
#      x y z
#    x 1.734000 0.000000 0.000000 
#    y 0.000000 1.724660 0.000000 
#    z 0.000000 0.000000 1.783070 
# 
# From -- ./inp_files/19189.got.cif
#   From: 2010.03.12/outbox.cif.g09.slc.cpg/sg70_10_cif.got.tgz:19189.got - 2010.04.16 13:46:32.
