data_PCOD8285197
_publ_section_title
;
Structure prediction by ZEFSAII (Michael W. Deem and Ramdas Pophale) SiO2 
 PCOD8285197
Probable space group: F M M M
;
_chemical_formula_sum "Si O2"
_cell_formula_units_Z 112
_cell_length_a 10.969079
_cell_length_b 14.975557
_cell_length_c 34.853297
_cell_angle_alpha 90.000000
_cell_angle_beta 90.000000
_cell_angle_gamma 90.000000
_cell_volume 5725.283755
_symmetry_space_group_name_H-M "F M M M"
_symmetry_group_IT_number 69
_symmetry_cell_setting 'orthorhombic'
loop_
_space_group_symop_operation_xyz
x,y,z
-x,-y,z
x,-y,-z
-x,y,-z
-x,-y,-z
x,y,-z
-x,y,z
x,-y,z
x,1/2+y,1/2+z
-x,1/2-y,1/2+z
x,1/2-y,1/2-z
-x,1/2+y,1/2-z
-x,1/2-y,1/2-z
x,1/2+y,1/2-z
-x,1/2+y,1/2+z
x,1/2-y,1/2+z
1/2+x,y,1/2+z
1/2-x,-y,1/2+z
1/2+x,-y,1/2-z
1/2-x,y,1/2-z
1/2-x,-y,1/2-z
1/2+x,y,1/2-z
1/2-x,y,1/2+z
1/2+x,-y,1/2+z
1/2+x,1/2+y,z
1/2-x,1/2-y,z
1/2+x,1/2-y,-z
1/2-x,1/2+y,-z
1/2-x,1/2-y,-z
1/2+x,1/2+y,-z
1/2-x,1/2+y,z
1/2+x,1/2-y,z
loop_
_atom_site_type_symbol
_atom_site_label
_atom_site_fract_x
_atom_site_fract_y
_atom_site_fract_z
Si Si1 0.866846 0.189557 0.816588
Si Si2 0.713790 0.500000 0.793719
Si Si3 0.857115 0.500000 0.130488
Si Si4 0.298825 0.658338 0.099342
Si Si5 0.500000 0.898280 0.458398
O O1 0.750000 0.250000 0.802871
O O2 0.863084 0.089864 0.799834
O O3 0.872561 0.182938 0.862358
O O4 0.000000 0.230574 0.803875
O O5 0.750000 0.500000 0.750000
O O6 0.825407 0.500000 0.824114
O O7 0.806579 0.411826 0.109863
O O8 0.000000 0.500000 0.125614
O O9 0.250000 0.750000 0.081657
O O10 0.381195 0.619872 0.066220
O O11 0.500000 0.847200 0.500000
O O12 0.500000 0.000000 0.468808
#
# Coordination Sequence:
#
# PCOD8285197 Si02
#       5
#    32  16  16  32  16
#     4  10  21  38  62  89 116 157 206 249 293 357
#     4  10  23  39  58  88 122 158 196 250 311 364
#     4  10  22  38  59  88 118 151 200 251 295 354
#     4  10  21  36  62  87 116 154 202 243 291 353
#     4  11  22  38  62  89 121 154 198 251 297 354
#
# _framework density 19.562349000000001
#
# number of rings (size 3 to 8) (size 9 to 14) (size 15 to 20)
#    0.000    1.857    2.857    0.429    2.000    9.143 
#    0.000    1.429    0.000    0.857    0.000    0.000 
#    0.000    0.000    0.000    0.000    0.000    0.000 
#
# Total GULP energy -346926.103578 kJ/mol
# GULP energy per Si atom -12390.217985 kJ/mol
# Density = 1.951782 g / cm^3
# Si number density = 19.562349 Si / 1000 Ang^3
#
#
#
# Elastic Constant Matrix: (Units=GPa)
#
#
# Indices 1 2 3 4 5 6 
#
# 1 180.8525 63.6400 46.0423 0.0000 0.0000 0.0000
# 2 63.6400 123.1839 27.8450 0.0000 0.0000 0.0000
# 3 46.0423 27.8450 106.2078 0.0000 0.0000 0.0000
# 4 0.0000 0.0000 0.0000 -0.7464 0.0000 0.0000
# 5 0.0000 0.0000 0.0000 0.0000 5.3622 0.0000
# 6 0.0000 0.0000 0.0000 0.0000 0.0000 22.8757
#
#
#
# Elastic Compliance Matrix: (Units=1/GPa)
#
#
# Indices 1 2 3 4 5 6 
#
# 1 0.007249 -0.003226 -0.002297 0.000000 0.000000 0.000000
# 2 -0.003226 0.010065 -0.001240 0.000000 0.000000 0.000000
# 3 -0.002297 -0.001240 0.010736 0.000000 0.000000 0.000000
# 4 0.000000 0.000000 0.000000 -1.339754 0.000000 0.000000
# 5 0.000000 0.000000 0.000000 0.000000 0.186492 0.000000
# 6 0.000000 0.000000 0.000000 0.000000 0.000000 0.043714
#
#
# Mechanical properties :
#
#
# Convention : Reuss Voigt Hill
#
# Bulk Modulus (GPa) = 68.84989 76.14432 72.49710
# Shear Modulus (GPa) = -4.70309 23.67942 9.48816
#
# Velocity S-wave (km/s) = -1.55222 3.48294 2.20471
# Velocity P-wave (km/s) = 5.66207 7.42852 6.60462
#
# Compressibility (1/GPa) = 0.01452435
#
# Stress axis : x y z
#
# Youngs Moduli (GPa) = 137.94418 99.35488 93.14111
#
# Poissons Ratio (x) = 0.32052 0.21393
# Poissons Ratio (y) = 0.44501 0.11552
# Poissons Ratio (z) = 0.31684 0.12323
#
# Static dielectric constant tensor:
#      x y z
#    x 3.444080 0.000000 0.000000 
#    y 0.000000 2.808100 0.000000 
#    z 0.000000 0.000000 3.392910 
# 
# 
# High freq. dielectric constant tensor:
#      x y z
#    x 1.758840 0.000000 0.000000 
#    y 0.000000 1.771900 0.000000 
#    z 0.000000 0.000000 1.745550 
# 
# From -- ./inp_files/11952.got.cif
#   From: 2010.03.12/outbox.cif.g09.slc.cpg/sg69_6_cif.got.tgz:11952.got - 2010.04.10 23:52:46.
