data_PCOD8285944
_publ_section_title
;
Structure prediction by ZEFSAII (Michael W. Deem and Ramdas Pophale) SiO2 
 PCOD8285944
Probable space group: F D D D
;
_chemical_formula_sum "Si O2"
_cell_formula_units_Z 160
_cell_length_a 20.500343
_cell_length_b 17.666372
_cell_length_c 20.601165
_cell_angle_alpha 90.000000
_cell_angle_beta 90.000000
_cell_angle_gamma 90.000000
_cell_volume 7461.055647
_symmetry_space_group_name_H-M "F D D D"
_symmetry_group_IT_number 70
_space_group.IT_coordinate_system_code '2'
_symmetry_cell_setting 'orthorhombic'
loop_
_space_group_symop_operation_xyz
x,y,z
1/4-x,1/4-y,z
x,1/4-y,1/4-z
1/4-x,y,1/4-z
-x,-y,-z
3/4+x,3/4+y,-z
-x,3/4+y,3/4+z
3/4+x,-y,3/4+z
x,1/2+y,1/2+z
1/4-x,3/4-y,1/2+z
x,3/4-y,3/4-z
1/4-x,1/2+y,3/4-z
-x,1/2-y,1/2-z
3/4+x,1/4+y,1/2-z
-x,1/4+y,1/4+z
3/4+x,1/2-y,1/4+z
1/2+x,y,1/2+z
3/4-x,1/4-y,1/2+z
1/2+x,1/4-y,3/4-z
3/4-x,y,3/4-z
1/2-x,-y,1/2-z
1/4+x,3/4+y,1/2-z
1/2-x,3/4+y,1/4+z
1/4+x,-y,1/4+z
1/2+x,1/2+y,z
3/4-x,3/4-y,z
1/2+x,3/4-y,1/4-z
3/4-x,1/2+y,1/4-z
1/2-x,1/2-y,-z
1/4+x,1/4+y,-z
1/2-x,1/4+y,3/4+z
1/4+x,1/2-y,3/4+z
loop_
_atom_site_type_symbol
_atom_site_label
_atom_site_fract_x
_atom_site_fract_y
_atom_site_fract_z
Si Si1 0.236101 0.903118 0.204026
Si Si2 0.824655 0.493918 0.931835
Si Si3 0.253822 0.695298 0.595695
Si Si4 0.228470 0.375000 0.375000
Si Si5 0.625000 0.125000 0.408621
Si Si6 0.876838 0.735970 0.177568
O O1 0.205061 0.827815 0.175633
O O2 0.214176 0.921403 0.276895
O O3 0.315059 0.900250 0.203864
O O4 0.214366 0.975592 0.159620
O O5 0.875000 0.480895 0.875000
O O6 0.770007 0.429212 0.922920
O O7 0.862862 0.486077 0.999407
O O8 0.210741 0.625000 0.625000
O O9 0.311074 0.702603 0.648047
O O10 0.184341 0.423914 0.325332
O O11 0.599024 0.192413 0.363546
#
# Coordination Sequence:
#
# PCOD8285944 Si02
#       6
#    32  32  32  16  16  32
#     4  10  21  41  64  97 135 168 231 280 343 413
#     4  12  27  44  65 102 140 182 238 292 338 424
#     4  10  19  39  70  96 127 179 221 282 343 418
#     4  12  25  46  70 102 138 187 236 292 344 428
#     4  10  22  40  66  96 126 186 226 282 346 418
#     4  11  23  43  70  91 137 189 225 279 365 400
#
# _framework density 21.444686999999998
#
# number of rings (size 3 to 8) (size 9 to 14) (size 15 to 20)
#    0.000    1.200    5.000    0.300    2.800    4.000 
#    0.000    0.500    0.000    0.000    0.000    0.000 
#    0.000    0.000    0.000    0.000    0.000    0.000 
#
# Total GULP energy -495811.434729 kJ/mol
# GULP energy per Si atom -12395.285868 kJ/mol
# Density = 2.139588 g / cm^3
# Si number density = 21.444687 Si / 1000 Ang^3
#
#
#
# Elastic Constant Matrix: (Units=GPa)
#
#
# Indices 1 2 3 4 5 6 
#
# 1 45.9054 12.0627 28.0147 0.0000 0.0000 0.0000
# 2 12.0627 145.4281 16.9435 0.0000 0.0000 0.0000
# 3 28.0147 16.9435 111.5943 0.0000 0.0000 0.0000
# 4 0.0000 0.0000 0.0000 39.1925 0.0000 0.0000
# 5 0.0000 0.0000 0.0000 0.0000 25.2546 0.0000
# 6 0.0000 0.0000 0.0000 0.0000 0.0000 32.8395
#
#
#
# Elastic Compliance Matrix: (Units=1/GPa)
#
#
# Indices 1 2 3 4 5 6 
#
# 1 0.026011 -0.001422 -0.006314 0.000000 0.000000 0.000000
# 2 -0.001422 0.007078 -0.000718 0.000000 0.000000 0.000000
# 3 -0.006314 -0.000718 0.010655 0.000000 0.000000 0.000000
# 4 0.000000 0.000000 0.000000 0.025515 0.000000 0.000000
# 5 0.000000 0.000000 0.000000 0.000000 0.039597 0.000000
# 6 0.000000 0.000000 0.000000 0.000000 0.000000 0.030451
#
#
# Mechanical properties :
#
#
# Convention : Reuss Voigt Hill
#
# Bulk Modulus (GPa) = 37.26238 46.32994 41.79616
# Shear Modulus (GPa) = 30.27387 35.85111 33.06249
#
# Velocity S-wave (km/s) = 3.76136 4.09319 3.93078
# Velocity P-wave (km/s) = 6.02308 6.63252 6.33513
#
# Compressibility (1/GPa) = 0.02683672
#
# Stress axis : x y z
#
# Youngs Moduli (GPa) = 38.44574 141.28674 93.85238
#
# Poissons Ratio (x) = 0.20089 0.59257
# Poissons Ratio (y) = 0.05466 0.06736
# Poissons Ratio (z) = 0.24274 0.10140
#
# Static dielectric constant tensor:
#      x y z
#    x 3.599440 0.000000 0.000000 
#    y 0.000000 4.504530 0.000000 
#    z 0.000000 0.000000 3.785440 
# 
# 
# High freq. dielectric constant tensor:
#      x y z
#    x 1.807230 0.000000 0.000000 
#    y 0.000000 1.880620 0.000000 
#    z 0.000000 0.000000 1.835900 
# 
# From -- ./inp_files/36328.got.cif
#   From: 2010.03.12/outbox.cif.g09.slc.cpg/sg70_19_cif.got.tgz:36328.got - 2010.04.16 13:46:32.
