data_PCOD8285950
_publ_section_title
;
Structure prediction by ZEFSAII (Michael W. Deem and Ramdas Pophale) SiO2 
 PCOD8285950
Probable space group: F D D D
;
_chemical_formula_sum "Si O2"
_cell_formula_units_Z 176
_cell_length_a 11.286569
_cell_length_b 26.698969
_cell_length_c 25.863610
_cell_angle_alpha 90.000000
_cell_angle_beta 90.000000
_cell_angle_gamma 90.000000
_cell_volume 7793.733923
_symmetry_space_group_name_H-M "F D D D"
_symmetry_group_IT_number 70
_space_group.IT_coordinate_system_code '2'
_symmetry_cell_setting 'orthorhombic'
loop_
_space_group_symop_operation_xyz
x,y,z
1/4-x,1/4-y,z
x,1/4-y,1/4-z
1/4-x,y,1/4-z
-x,-y,-z
3/4+x,3/4+y,-z
-x,3/4+y,3/4+z
3/4+x,-y,3/4+z
x,1/2+y,1/2+z
1/4-x,3/4-y,1/2+z
x,3/4-y,3/4-z
1/4-x,1/2+y,3/4-z
-x,1/2-y,1/2-z
3/4+x,1/4+y,1/2-z
-x,1/4+y,1/4+z
3/4+x,1/2-y,1/4+z
1/2+x,y,1/2+z
3/4-x,1/4-y,1/2+z
1/2+x,1/4-y,3/4-z
3/4-x,y,3/4-z
1/2-x,-y,1/2-z
1/4+x,3/4+y,1/2-z
1/2-x,3/4+y,1/4+z
1/4+x,-y,1/4+z
1/2+x,1/2+y,z
3/4-x,3/4-y,z
1/2+x,3/4-y,1/4-z
3/4-x,1/2+y,1/4-z
1/2-x,1/2-y,-z
1/4+x,1/4+y,-z
1/2-x,1/4+y,3/4+z
1/4+x,1/2-y,3/4+z
loop_
_atom_site_type_symbol
_atom_site_label
_atom_site_fract_x
_atom_site_fract_y
_atom_site_fract_z
Si Si1 0.671000 0.743231 0.569852
Si Si2 0.875000 0.875000 0.779597
Si Si3 0.480698 0.088358 0.811820
Si Si4 0.170423 0.731627 0.547688
Si Si5 0.919676 0.978685 0.213886
Si Si6 0.530696 0.186676 0.862914
O O1 0.625000 0.721655 0.625000
O O2 0.632320 0.801793 0.563433
O O3 0.812814 0.740706 0.564323
O O4 0.616509 0.711192 0.521891
O O5 0.764645 0.855399 0.745493
O O6 0.819481 0.922023 0.811410
O O7 0.456318 0.138367 0.845253
O O8 0.591801 0.058971 0.836263
O O9 0.250000 0.750000 0.500000
O O10 0.206667 0.763427 0.598102
O O11 0.034354 0.736912 0.530182
O O12 0.953764 0.933252 0.175237
#
# Coordination Sequence:
#
# PCOD8285950 Si02
#       6
#    32  16  32  32  32  32
#     4  11  22  41  66  92 139 176 223 283 337 420
#     4  10  20  38  65  94 124 178 227 276 348 396
#     4  10  19  40  66  95 134 168 220 291 344 386
#     4  12  21  40  66  93 138 175 222 285 344 413
#     4  11  24  39  62 101 130 179 224 270 352 415
#     4  10  21  39  63  99 130 167 222 284 344 411
#
# _framework density 22.582242999999998
#
# number of rings (size 3 to 8) (size 9 to 14) (size 15 to 20)
#    0.000    1.455    7.273    0.545    0.000    1.455 
#    0.000    1.818    0.000    0.000    0.000    2.545 
#    0.000    0.000    0.000    0.000    0.000    0.000 
#
# Total GULP energy -545123.317216 kJ/mol
# GULP energy per Si atom -12389.166300 kJ/mol
# Density = 2.253085 g / cm^3
# Si number density = 22.582243 Si / 1000 Ang^3
#
#
#
# Elastic Constant Matrix: (Units=GPa)
#
#
# Indices 1 2 3 4 5 6 
#
# 1 139.0604 28.7762 31.7632 0.0000 0.0000 0.0000
# 2 28.7762 124.4612 28.2690 0.0000 0.0000 0.0000
# 3 31.7632 28.2690 132.5533 0.0000 0.0000 0.0000
# 4 0.0000 0.0000 0.0000 -31.6340 0.0000 0.0000
# 5 0.0000 0.0000 0.0000 0.0000 28.5138 0.0000
# 6 0.0000 0.0000 0.0000 0.0000 0.0000 27.5151
#
#
#
# Elastic Compliance Matrix: (Units=1/GPa)
#
#
# Indices 1 2 3 4 5 6 
#
# 1 0.007852 -0.001459 -0.001570 0.000000 0.000000 0.000000
# 2 -0.001459 0.008715 -0.001509 0.000000 0.000000 0.000000
# 3 -0.001570 -0.001509 0.008242 0.000000 0.000000 0.000000
# 4 0.000000 0.000000 0.000000 -0.031612 0.000000 0.000000
# 5 0.000000 0.000000 0.000000 0.000000 0.035071 0.000000
# 6 0.000000 0.000000 0.000000 0.000000 0.000000 0.036344
#
#
# Mechanical properties :
#
#
# Convention : Reuss Voigt Hill
#
# Bulk Modulus (GPa) = 63.56285 63.74353 63.65319
# Shear Modulus (GPa) = 63.34592 25.36341 44.35467
#
# Velocity S-wave (km/s) = 5.30209 3.35499 4.43667
# Velocity P-wave (km/s) = 8.10501 6.58001 7.38199
#
# Compressibility (1/GPa) = 0.01573246
#
# Stress axis : x y z
#
# Youngs Moduli (GPa) = 127.36158 114.74966 121.32609
#
# Poissons Ratio (x) = 0.16738 0.19053
# Poissons Ratio (y) = 0.18578 0.18308
# Poissons Ratio (z) = 0.20001 0.17316
#
# Static dielectric constant tensor:
#      x y z
#    x 4.167190 0.000000 0.000000 
#    y 0.000000 3.953060 0.000000 
#    z 0.000000 0.000000 4.283210 
# 
# 
# High freq. dielectric constant tensor:
#      x y z
#    x 1.903680 0.000000 0.000000 
#    y 0.000000 1.845720 0.000000 
#    z 0.000000 0.000000 1.894430 
# 
# From -- ./inp_files/57597.got.cif
#   From: 2010.03.12/outbox.cif.g09.slc.cpg/sg70_29_cif.got.tgz:57597.got - 2010.04.16 13:46:32.
