data_PCOD8285831
_publ_section_title
;
Structure prediction by ZEFSAII (Michael W. Deem and Ramdas Pophale) SiO2 
 PCOD8285831
Probable space group: F D D D
;
_chemical_formula_sum "Si O2"
_cell_formula_units_Z 168
_cell_length_a 18.513975
_cell_length_b 15.627802
_cell_length_c 27.665080
_cell_angle_alpha 90.000000
_cell_angle_beta 90.000000
_cell_angle_gamma 90.000000
_cell_volume 8004.413275
_symmetry_space_group_name_H-M "F D D D"
_symmetry_group_IT_number 70
_space_group.IT_coordinate_system_code '2'
_symmetry_cell_setting 'orthorhombic'
loop_
_space_group_symop_operation_xyz
x,y,z
1/4-x,1/4-y,z
x,1/4-y,1/4-z
1/4-x,y,1/4-z
-x,-y,-z
3/4+x,3/4+y,-z
-x,3/4+y,3/4+z
3/4+x,-y,3/4+z
x,1/2+y,1/2+z
1/4-x,3/4-y,1/2+z
x,3/4-y,3/4-z
1/4-x,1/2+y,3/4-z
-x,1/2-y,1/2-z
3/4+x,1/4+y,1/2-z
-x,1/4+y,1/4+z
3/4+x,1/2-y,1/4+z
1/2+x,y,1/2+z
3/4-x,1/4-y,1/2+z
1/2+x,1/4-y,3/4-z
3/4-x,y,3/4-z
1/2-x,-y,1/2-z
1/4+x,3/4+y,1/2-z
1/2-x,3/4+y,1/4+z
1/4+x,-y,1/4+z
1/2+x,1/2+y,z
3/4-x,3/4-y,z
1/2+x,3/4-y,1/4-z
3/4-x,1/2+y,1/4-z
1/2-x,1/2-y,-z
1/4+x,1/4+y,-z
1/2-x,1/4+y,3/4+z
1/4+x,1/2-y,3/4+z
loop_
_atom_site_type_symbol
_atom_site_label
_atom_site_fract_x
_atom_site_fract_y
_atom_site_fract_z
Si Si1 0.885979 0.777826 0.663451
Si Si2 0.018371 0.795060 0.343889
Si Si3 0.375000 0.375000 0.875000
Si Si4 0.335176 0.648156 0.924556
Si Si5 0.248750 0.512091 0.585854
Si Si6 0.384988 0.135352 0.526730
O O1 0.875000 0.875000 0.681706
O O2 0.821050 0.761771 0.626531
O O3 0.885386 0.715117 0.709508
O O4 0.960912 0.756166 0.636424
O O5 0.990719 0.875000 0.375000
O O6 0.060129 0.824583 0.295832
O O7 0.948280 0.742308 0.328746
O O8 0.324348 0.434433 0.907717
O O9 0.375000 0.622878 0.875000
O O10 0.272210 0.579775 0.936346
O O11 0.391248 0.646093 0.969055
O O12 0.298074 0.564264 0.549082
#
# Coordination Sequence:
#
# PCOD8285831 Si02
#       6
#    32  32   8  32  32  32
#     4  10  18  39  71  96 128 171 224 276 333 406
#     4   9  20  40  68  94 130 172 216 277 336 400
#     4  12  20  44  68  92 134 176 214 272 348 400
#     4  12  25  41  62  97 135 173 222 278 336 400
#     4  11  22  42  67  94 132 176 217 281 346 398
#     4  10  23  41  65 100 130 174 233 267 336 416
#
# _framework density 20.988420999999999
#
# number of rings (size 3 to 8) (size 9 to 14) (size 15 to 20)
#    0.000    1.524    4.762    1.714    0.000    3.429 
#    1.714    3.810    0.000    0.000    0.000    0.000 
#    0.000    0.000    0.000    0.000    0.000    0.000 
#
# Total GULP energy -520864.561592 kJ/mol
# GULP energy per Si atom -12401.537181 kJ/mol
# Density = 2.094065 g / cm^3
# Si number density = 20.988421 Si / 1000 Ang^3
#
#
#
# Elastic Constant Matrix: (Units=GPa)
#
#
# Indices 1 2 3 4 5 6 
#
# 1 93.6809 54.9696 49.8096 0.0000 0.0000 0.0000
# 2 54.9696 158.3683 56.5999 0.0000 0.0000 0.0000
# 3 49.8096 56.5999 136.1528 0.0000 0.0000 0.0000
# 4 0.0000 0.0000 0.0000 21.8953 0.0000 0.0000
# 5 0.0000 0.0000 0.0000 0.0000 21.3229 0.0000
# 6 0.0000 0.0000 0.0000 0.0000 0.0000 37.7138
#
#
#
# Elastic Compliance Matrix: (Units=1/GPa)
#
#
# Indices 1 2 3 4 5 6 
#
# 1 0.014981 -0.003807 -0.003898 0.000000 0.000000 0.000000
# 2 -0.003807 0.008384 -0.002092 0.000000 0.000000 0.000000
# 3 -0.003898 -0.002092 0.009641 0.000000 0.000000 0.000000
# 4 0.000000 0.000000 0.000000 0.045672 0.000000 0.000000
# 5 0.000000 0.000000 0.000000 0.000000 0.046898 0.000000
# 6 0.000000 0.000000 0.000000 0.000000 0.000000 0.026515
#
#
# Mechanical properties :
#
#
# Convention : Reuss Voigt Hill
#
# Bulk Modulus (GPa) = 74.56849 78.99558 76.78203
# Shear Modulus (GPa) = 28.38409 31.30791 29.84600
#
# Velocity S-wave (km/s) = 3.68145 3.86641 3.77506
# Velocity P-wave (km/s) = 7.32641 7.59286 7.46083
#
# Compressibility (1/GPa) = 0.01341049
#
# Stress axis : x y z
#
# Youngs Moduli (GPa) = 66.75221 119.28138 103.72798
#
# Poissons Ratio (x) = 0.45407 0.40434
# Poissons Ratio (y) = 0.25410 0.21705
# Poissons Ratio (z) = 0.26020 0.24959
#
# Static dielectric constant tensor:
#      x y z
#    x 3.688270 0.000000 0.000000 
#    y 0.000000 4.001000 0.000000 
#    z 0.000000 0.000000 3.505090 
# 
# 
# High freq. dielectric constant tensor:
#      x y z
#    x 1.815860 0.000000 0.000000 
#    y 0.000000 1.841260 0.000000 
#    z 0.000000 0.000000 1.800150 
# 
# From -- ./inp_files/42843.got.cif
#   From: 2010.03.12/outbox.cif.g09.slc.cpg/sg70_22_cif.got.tgz:42843.got - 2010.04.16 13:46:32.
