data_PCOD8285435
_publ_section_title
;
Structure prediction by ZEFSAII (Michael W. Deem and Ramdas Pophale) SiO2 
 PCOD8285435
Probable space group: F M M M
;
_chemical_formula_sum "Si O2"
_cell_formula_units_Z 192
_cell_length_a 17.640714
_cell_length_b 17.956266
_cell_length_c 30.062939
_cell_angle_alpha 90.000000
_cell_angle_beta 90.000000
_cell_angle_gamma 90.000000
_cell_volume 9522.777233
_symmetry_space_group_name_H-M "F M M M"
_symmetry_group_IT_number 69
_symmetry_cell_setting 'orthorhombic'
loop_
_space_group_symop_operation_xyz
x,y,z
-x,-y,z
x,-y,-z
-x,y,-z
-x,-y,-z
x,y,-z
-x,y,z
x,-y,z
x,1/2+y,1/2+z
-x,1/2-y,1/2+z
x,1/2-y,1/2-z
-x,1/2+y,1/2-z
-x,1/2-y,1/2-z
x,1/2+y,1/2-z
-x,1/2+y,1/2+z
x,1/2-y,1/2+z
1/2+x,y,1/2+z
1/2-x,-y,1/2+z
1/2+x,-y,1/2-z
1/2-x,y,1/2-z
1/2-x,-y,1/2-z
1/2+x,y,1/2-z
1/2-x,y,1/2+z
1/2+x,-y,1/2+z
1/2+x,1/2+y,z
1/2-x,1/2-y,z
1/2+x,1/2-y,-z
1/2-x,1/2+y,-z
1/2-x,1/2-y,-z
1/2+x,1/2+y,-z
1/2-x,1/2+y,z
1/2+x,1/2-y,z
loop_
_atom_site_type_symbol
_atom_site_label
_atom_site_fract_x
_atom_site_fract_y
_atom_site_fract_z
Si Si1 0.087501 0.327181 0.947936
Si Si2 0.868455 0.832833 0.750006
Si Si3 0.871633 0.340374 0.449323
Si Si4 0.500000 0.912051 0.608323
Si Si5 0.758175 0.167011 0.324325
Si Si6 0.000000 0.585895 0.292363
Si Si7 0.726844 0.087707 0.913224
O O1 0.120299 0.245966 0.936332
O O2 0.140646 0.386527 0.922736
O O3 0.000000 0.334097 0.931503
O O4 0.091984 0.343890 0.000000
O O5 0.903752 0.750000 0.750000
O O6 0.838084 0.847443 0.700225
O O7 0.804319 0.841171 0.786818
O O8 0.929372 0.893690 0.762129
O O9 0.898866 0.352137 0.500000
O O10 0.924515 0.387133 0.416782
O O11 0.785077 0.368192 0.445134
O O12 0.500000 0.876769 0.658310
O O13 0.500000 0.000000 0.609868
O O14 0.750000 0.250000 0.345197
O O15 0.749687 0.105895 0.362624
O O16 0.000000 0.500000 0.301332
O O17 0.733744 0.000000 0.921723
#
# Coordination Sequence:
#
# PCOD8285435 Si02
#       7
#    32  32  32  16  32  16  32
#     4  10  22  43  66  87 116 162 214 254 300 359
#     4   9  19  38  62  86 111 149 201 249 295 349
#     4  11  22  40  63  89 122 159 207 257 305 364
#     4  11  23  37  58  91 129 164 198 247 315 379
#     4   9  19  39  64  86 113 150 199 251 299 353
#     4  11  23  36  53  84 122 159 195 234 294 370
#     4  12  25  38  59  95 128 160 202 251 309 369
#
# _framework density 20.162185999999998
#
# number of rings (size 3 to 8) (size 9 to 14) (size 15 to 20)
#    0.000    1.667    0.833    5.000    0.000    8.333 
#    1.500    2.500    0.000    0.000    0.000    0.000 
#    0.000    0.000    0.000    0.000    0.000    0.000 
#
# Total GULP energy -595188.164832 kJ/mol
# GULP energy per Si atom -12399.753434 kJ/mol
# Density = 2.011630 g / cm^3
# Si number density = 20.162186 Si / 1000 Ang^3
#
#
#
# Elastic Constant Matrix: (Units=GPa)
#
#
# Indices 1 2 3 4 5 6 
#
# 1 107.5693 43.9146 24.8805 0.0000 0.0000 0.0000
# 2 43.9146 86.1760 29.8892 0.0000 0.0000 0.0000
# 3 24.8805 29.8892 78.9120 0.0000 0.0000 0.0000
# 4 0.0000 0.0000 0.0000 26.3190 0.0000 0.0000
# 5 0.0000 0.0000 0.0000 0.0000 7.8022 0.0000
# 6 0.0000 0.0000 0.0000 0.0000 0.0000 38.0885
#
#
#
# Elastic Compliance Matrix: (Units=1/GPa)
#
#
# Indices 1 2 3 4 5 6 
#
# 1 0.011929 -0.005496 -0.001679 0.000000 0.000000 0.000000
# 2 -0.005496 0.015892 -0.004286 0.000000 0.000000 0.000000
# 3 -0.001679 -0.004286 0.014825 0.000000 0.000000 0.000000
# 4 0.000000 0.000000 0.000000 0.037995 0.000000 0.000000
# 5 0.000000 0.000000 0.000000 0.000000 0.128169 0.000000
# 6 0.000000 0.000000 0.000000 0.000000 0.000000 0.026255
#
#
# Mechanical properties :
#
#
# Convention : Reuss Voigt Hill
#
# Bulk Modulus (GPa) = 50.70485 52.22511 51.46498
# Shear Modulus (GPa) = 18.89916 26.04015 22.46965
#
# Velocity S-wave (km/s) = 3.06495 3.59769 3.34195
# Velocity P-wave (km/s) = 6.14234 6.57393 6.36180
#
# Compressibility (1/GPa) = 0.01972198
#
# Stress axis : x y z
#
# Youngs Moduli (GPa) = 83.83244 62.92606 67.45238
#
# Poissons Ratio (x) = 0.34586 0.11327
# Poissons Ratio (y) = 0.46077 0.28912
# Poissons Ratio (z) = 0.14077 0.26972
#
# Static dielectric constant tensor:
#      x y z
#    x 3.735360 0.000000 0.000000 
#    y 0.000000 3.592660 0.000000 
#    z 0.000000 0.000000 3.742050 
# 
# 
# High freq. dielectric constant tensor:
#      x y z
#    x 1.791350 0.000000 0.000000 
#    y 0.000000 1.774760 0.000000 
#    z 0.000000 0.000000 1.790890 
# 
# From -- ./inp_files/46443.got.cif
#   From: 2010.03.12/outbox.cif.g09.slc.cpg/sg69_24_cif.got.tgz:46443.got - 2010.04.10 23:52:46.
