data_PCOD8285728
_publ_section_title
;
Structure prediction by ZEFSAII (Michael W. Deem and Ramdas Pophale) SiO2 
 PCOD8285728
Probable space group: F D D D
;
_chemical_formula_sum "Si O2"
_cell_formula_units_Z 112
_cell_length_a 19.699095
_cell_length_b 9.612742
_cell_length_c 24.627747
_cell_angle_alpha 90.000000
_cell_angle_beta 90.000000
_cell_angle_gamma 90.000000
_cell_volume 4663.567256
_symmetry_space_group_name_H-M "F D D D"
_symmetry_group_IT_number 70
_space_group.IT_coordinate_system_code '2'
_symmetry_cell_setting 'orthorhombic'
loop_
_space_group_symop_operation_xyz
x,y,z
1/4-x,1/4-y,z
x,1/4-y,1/4-z
1/4-x,y,1/4-z
-x,-y,-z
3/4+x,3/4+y,-z
-x,3/4+y,3/4+z
3/4+x,-y,3/4+z
x,1/2+y,1/2+z
1/4-x,3/4-y,1/2+z
x,3/4-y,3/4-z
1/4-x,1/2+y,3/4-z
-x,1/2-y,1/2-z
3/4+x,1/4+y,1/2-z
-x,1/4+y,1/4+z
3/4+x,1/2-y,1/4+z
1/2+x,y,1/2+z
3/4-x,1/4-y,1/2+z
1/2+x,1/4-y,3/4-z
3/4-x,y,3/4-z
1/2-x,-y,1/2-z
1/4+x,3/4+y,1/2-z
1/2-x,3/4+y,1/4+z
1/4+x,-y,1/4+z
1/2+x,1/2+y,z
3/4-x,3/4-y,z
1/2+x,3/4-y,1/4-z
3/4-x,1/2+y,1/4-z
1/2-x,1/2-y,-z
1/4+x,1/4+y,-z
1/2-x,1/4+y,3/4+z
1/4+x,1/2-y,3/4+z
loop_
_atom_site_type_symbol
_atom_site_label
_atom_site_fract_x
_atom_site_fract_y
_atom_site_fract_z
Si Si1 0.967854 0.774058 0.109301
Si Si2 0.625000 0.125000 0.949929
Si Si3 0.709606 0.027779 0.674050
Si Si4 0.353780 0.072947 0.224140
O O1 0.997640 0.625000 0.125000
O O2 0.939714 0.857213 0.161023
O O3 0.909933 0.752588 0.063114
O O4 0.031177 0.865026 0.090141
O O5 0.621014 0.264742 0.986455
O O6 0.682613 0.125000 0.625000
O O7 0.782431 0.083319 0.692964
O O8 0.652822 0.019953 0.721456
#
# Coordination Sequence:
#
# PCOD8285728 Si02
#       4
#    32  16  32  32
#     4  10  18  34  59  85 121 159 205 255 306 362
#     4  10  16  34  56  90 118 164 200 262 290 370
#     4  11  19  35  60  92 123 157 207 263 308 369
#     4  10  20  31  60  92 121 157 216 251 312 360
#
# _framework density 24.015951000000001
#
# number of rings (size 3 to 8) (size 9 to 14) (size 15 to 20)
#    0.000    1.714    5.714    0.857    0.000    0.000 
#    0.000    5.714    6.286   18.857    0.000    0.000 
#    0.000    0.000    0.000    0.000    0.000    0.000 
#
# Total GULP energy -346964.494917 kJ/mol
# GULP energy per Si atom -12391.589104 kJ/mol
# Density = 2.396129 g / cm^3
# Si number density = 24.015951 Si / 1000 Ang^3
#
#
#
# Elastic Constant Matrix: (Units=GPa)
#
#
# Indices 1 2 3 4 5 6 
#
# 1 47.2466 38.1561 31.5494 0.0000 0.0000 0.0000
# 2 38.1561 173.4853 70.3281 0.0000 0.0000 0.0000
# 3 31.5494 70.3281 139.2475 0.0000 0.0000 0.0000
# 4 0.0000 0.0000 0.0000 44.3296 0.0000 0.0000
# 5 0.0000 0.0000 0.0000 0.0000 13.1743 0.0000
# 6 0.0000 0.0000 0.0000 0.0000 0.0000 4.9839
#
#
#
# Elastic Compliance Matrix: (Units=1/GPa)
#
#
# Indices 1 2 3 4 5 6 
#
# 1 0.027383 -0.004410 -0.003977 0.000000 0.000000 0.000000
# 2 -0.004410 0.007959 -0.003020 0.000000 0.000000 0.000000
# 3 -0.003977 -0.003020 0.009608 0.000000 0.000000 0.000000
# 4 0.000000 0.000000 0.000000 0.022558 0.000000 0.000000
# 5 0.000000 0.000000 0.000000 0.000000 0.075905 0.000000
# 6 0.000000 0.000000 0.000000 0.000000 0.000000 0.200647
#
#
# Mechanical properties :
#
#
# Convention : Reuss Voigt Hill
#
# Bulk Modulus (GPa) = 45.17820 71.11630 58.14725
# Shear Modulus (GPa) = 13.35995 27.16062 20.26028
#
# Velocity S-wave (km/s) = 2.36115 3.36659 2.90766
# Velocity P-wave (km/s) = 5.12698 6.69241 5.96130
#
# Compressibility (1/GPa) = 0.02213457
#
# Stress axis : x y z
#
# Youngs Moduli (GPa) = 36.51923 125.65068 104.08160
#
# Poissons Ratio (x) = 0.55418 0.41389
# Poissons Ratio (y) = 0.16107 0.31435
# Poissons Ratio (z) = 0.14522 0.37950
#
# Static dielectric constant tensor:
#      x y z
#    x 3.776840 0.000000 0.000000 
#    y 0.000000 4.630410 0.000000 
#    z 0.000000 0.000000 4.235030 
# 
# 
# High freq. dielectric constant tensor:
#      x y z
#    x 1.915730 0.000000 0.000000 
#    y 0.000000 1.984440 0.000000 
#    z 0.000000 0.000000 1.932850 
# 
# From -- ./inp_files/49765.got.cif
#   From: 2010.03.12/outbox.cif.g09.slc.cpg/sg70_25_cif.got.tgz:49765.got - 2010.04.16 13:46:32.
