data_PCOD8285759
_publ_section_title
;
Structure prediction by ZEFSAII (Michael W. Deem and Ramdas Pophale) SiO2 
 PCOD8285759
Probable space group: F D D D
;
_chemical_formula_sum "Si O2"
_cell_formula_units_Z 160
_cell_length_a 24.837153
_cell_length_b 14.736633
_cell_length_c 21.321592
_cell_angle_alpha 90.000000
_cell_angle_beta 90.000000
_cell_angle_gamma 90.000000
_cell_volume 7804.043999
_symmetry_space_group_name_H-M "F D D D"
_symmetry_group_IT_number 70
_space_group.IT_coordinate_system_code '2'
_symmetry_cell_setting 'orthorhombic'
loop_
_space_group_symop_operation_xyz
x,y,z
1/4-x,1/4-y,z
x,1/4-y,1/4-z
1/4-x,y,1/4-z
-x,-y,-z
3/4+x,3/4+y,-z
-x,3/4+y,3/4+z
3/4+x,-y,3/4+z
x,1/2+y,1/2+z
1/4-x,3/4-y,1/2+z
x,3/4-y,3/4-z
1/4-x,1/2+y,3/4-z
-x,1/2-y,1/2-z
3/4+x,1/4+y,1/2-z
-x,1/4+y,1/4+z
3/4+x,1/2-y,1/4+z
1/2+x,y,1/2+z
3/4-x,1/4-y,1/2+z
1/2+x,1/4-y,3/4-z
3/4-x,y,3/4-z
1/2-x,-y,1/2-z
1/4+x,3/4+y,1/2-z
1/2-x,3/4+y,1/4+z
1/4+x,-y,1/4+z
1/2+x,1/2+y,z
3/4-x,3/4-y,z
1/2+x,3/4-y,1/4-z
3/4-x,1/2+y,1/4-z
1/2-x,1/2-y,-z
1/4+x,1/4+y,-z
1/2-x,1/4+y,3/4+z
1/4+x,1/2-y,3/4+z
loop_
_atom_site_type_symbol
_atom_site_label
_atom_site_fract_x
_atom_site_fract_y
_atom_site_fract_z
Si Si1 0.781808 0.125000 0.625000
Si Si2 0.375000 0.375000 0.126762
Si Si3 0.804184 0.067682 0.490866
Si Si4 0.750836 0.365968 0.745613
Si Si5 0.838151 0.246477 0.017170
Si Si6 0.259063 0.322748 0.105481
O O1 0.815112 0.104718 0.561528
O O2 0.746995 0.215392 0.611726
O O3 0.387330 0.286280 0.168660
O O4 0.321803 0.346204 0.086799
O O5 0.862679 0.030024 0.470625
O O6 0.782897 0.147296 0.447254
O O7 0.759712 0.988051 0.485497
O O8 0.801942 0.426925 0.766800
O O9 0.697757 0.405904 0.779045
O O10 0.745650 0.374226 0.670154
#
# Coordination Sequence:
#
# PCOD8285759 Si02
#       6
#    16  16  32  32  32  32
#     4  10  20  38  56  79 114 158 195 240 302 348
#     4  10  18  40  60  84 118 150 202 252 290 358
#     4  11  20  36  60  88 119 155 201 248 299 360
#     4   9  20  36  57  89 121 156 195 242 310 361
#     4  10  17  37  62  80 123 160 184 251 307 351
#     4  10  21  36  59  86 116 155 203 249 298 368
#
# _framework density 20.502189999999999
#
# number of rings (size 3 to 8) (size 9 to 14) (size 15 to 20)
#    0.000    2.000    6.000    0.600    0.000    2.400 
#    0.000    5.000    4.400   11.400    0.000    0.000 
#    0.000    0.000    0.000    0.000    0.000    0.000 
#
# Total GULP energy -495611.727018 kJ/mol
# GULP energy per Si atom -12390.293175 kJ/mol
# Density = 2.045553 g / cm^3
# Si number density = 20.502190 Si / 1000 Ang^3
#
#
#
# Elastic Constant Matrix: (Units=GPa)
#
#
# Indices 1 2 3 4 5 6 
#
# 1 110.8710 56.5218 44.5531 0.0000 0.0000 0.0000
# 2 56.5218 128.2768 42.8317 0.0000 0.0000 0.0000
# 3 44.5531 42.8317 57.8265 0.0000 0.0000 0.0000
# 4 0.0000 0.0000 0.0000 24.0037 0.0000 0.0000
# 5 0.0000 0.0000 0.0000 0.0000 21.4884 0.0000
# 6 0.0000 0.0000 0.0000 0.0000 0.0000 23.9884
#
#
#
# Elastic Compliance Matrix: (Units=1/GPa)
#
#
# Indices 1 2 3 4 5 6 
#
# 1 0.014121 -0.003440 -0.008332 0.000000 0.000000 0.000000
# 2 -0.003440 0.011195 -0.005642 0.000000 0.000000 0.000000
# 3 -0.008332 -0.005642 0.027891 0.000000 0.000000 0.000000
# 4 0.000000 0.000000 0.000000 0.041660 0.000000 0.000000
# 5 0.000000 0.000000 0.000000 0.000000 0.046537 0.000000
# 6 0.000000 0.000000 0.000000 0.000000 0.000000 0.041687
#
#
# Mechanical properties :
#
#
# Convention : Reuss Voigt Hill
#
# Bulk Modulus (GPa) = 54.40585 64.97641 59.69113
# Shear Modulus (GPa) = 22.31684 24.10062 23.20873
#
# Velocity S-wave (km/s) = 3.30284 3.43230 3.36819
# Velocity P-wave (km/s) = 6.41398 6.88976 6.65612
#
# Compressibility (1/GPa) = 0.01838038
#
# Stress axis : x y z
#
# Youngs Moduli (GPa) = 70.81425 89.32356 35.85347
#
# Poissons Ratio (x) = 0.30729 0.29873
# Poissons Ratio (y) = 0.24362 0.20227
# Poissons Ratio (z) = 0.59002 0.50394
#
# Static dielectric constant tensor:
#      x y z
#    x 3.700470 0.000000 0.000000 
#    y 0.000000 3.911640 0.000000 
#    z 0.000000 0.000000 3.303480 
# 
# 
# High freq. dielectric constant tensor:
#      x y z
#    x 1.790240 0.000000 0.000000 
#    y 0.000000 1.818710 0.000000 
#    z 0.000000 0.000000 1.753000 
# 
# From -- ./inp_files/37477.got.cif
#   From: 2010.03.12/outbox.cif.g09.slc.cpg/sg70_19_cif.got.tgz:37477.got - 2010.04.16 13:46:32.
