data_PCOD8285890
_publ_section_title
;
Structure prediction by ZEFSAII (Michael W. Deem and Ramdas Pophale) SiO2 
 PCOD8285890
Probable space group: F D D D
;
_chemical_formula_sum "Si O2"
_cell_formula_units_Z 144
_cell_length_a 16.852739
_cell_length_b 14.382191
_cell_length_c 30.052075
_cell_angle_alpha 90.000000
_cell_angle_beta 90.000000
_cell_angle_gamma 90.000000
_cell_volume 7284.001238
_symmetry_space_group_name_H-M "F D D D"
_symmetry_group_IT_number 70
_space_group.IT_coordinate_system_code '2'
_symmetry_cell_setting 'orthorhombic'
loop_
_space_group_symop_operation_xyz
x,y,z
1/4-x,1/4-y,z
x,1/4-y,1/4-z
1/4-x,y,1/4-z
-x,-y,-z
3/4+x,3/4+y,-z
-x,3/4+y,3/4+z
3/4+x,-y,3/4+z
x,1/2+y,1/2+z
1/4-x,3/4-y,1/2+z
x,3/4-y,3/4-z
1/4-x,1/2+y,3/4-z
-x,1/2-y,1/2-z
3/4+x,1/4+y,1/2-z
-x,1/4+y,1/4+z
3/4+x,1/2-y,1/4+z
1/2+x,y,1/2+z
3/4-x,1/4-y,1/2+z
1/2+x,1/4-y,3/4-z
3/4-x,y,3/4-z
1/2-x,-y,1/2-z
1/4+x,3/4+y,1/2-z
1/2-x,3/4+y,1/4+z
1/4+x,-y,1/4+z
1/2+x,1/2+y,z
3/4-x,3/4-y,z
1/2+x,3/4-y,1/4-z
3/4-x,1/2+y,1/4-z
1/2-x,1/2-y,-z
1/4+x,1/4+y,-z
1/2-x,1/4+y,3/4+z
1/4+x,1/2-y,3/4+z
loop_
_atom_site_type_symbol
_atom_site_label
_atom_site_fract_x
_atom_site_fract_y
_atom_site_fract_z
Si Si1 0.855566 0.522536 0.804482
Si Si2 0.375000 0.083385 0.375000
Si Si3 0.497952 0.356076 0.425282
Si Si4 0.148443 0.839321 0.481133
Si Si5 0.189337 0.549032 0.692109
O O1 0.829367 0.604740 0.838057
O O2 0.783903 0.449066 0.799666
O O3 0.930988 0.472355 0.826328
O O4 0.881722 0.563996 0.756861
O O5 0.307935 0.022143 0.349656
O O6 0.523727 0.375000 0.375000
O O7 0.573253 0.315806 0.450871
O O8 0.160720 0.752694 0.513519
O O9 0.225801 0.848230 0.449666
O O10 0.125000 0.625000 0.679359
#
# Coordination Sequence:
#
# PCOD8285890 Si02
#       5
#    32  16  32  32  32
#     4  10  19  38  59  85 115 155 187 232 304 346
#     4  10  19  35  60  78 110 158 196 223 283 356
#     4  11  20  35  61  88 116 149 189 248 291 347
#     4  10  22  36  59  85 115 147 199 243 282 346
#     4  10  21  38  57  81 113 159 193 235 288 345
#
# _framework density 19.769354
#
# number of rings (size 3 to 8) (size 9 to 14) (size 15 to 20)
#    0.000    1.778    2.222    3.000    0.000    1.778 
#    0.000    0.000    4.889    0.000    0.000    0.000 
#    0.000    0.000    0.000    0.000    0.000    0.000 
#
# Total GULP energy -446423.099032 kJ/mol
# GULP energy per Si atom -12400.641640 kJ/mol
# Density = 1.972436 g / cm^3
# Si number density = 19.769354 Si / 1000 Ang^3
#
#
#
# Elastic Constant Matrix: (Units=GPa)
#
#
# Indices 1 2 3 4 5 6 
#
# 1 118.6886 39.4969 46.9178 0.0000 0.0000 0.0000
# 2 39.4969 87.1396 32.3334 0.0000 0.0000 0.0000
# 3 46.9178 32.3334 90.6968 0.0000 0.0000 0.0000
# 4 0.0000 0.0000 0.0000 31.3193 0.0000 0.0000
# 5 0.0000 0.0000 0.0000 0.0000 16.9458 0.0000
# 6 0.0000 0.0000 0.0000 0.0000 0.0000 19.5498
#
#
#
# Elastic Compliance Matrix: (Units=1/GPa)
#
#
# Indices 1 2 3 4 5 6 
#
# 1 0.011421 -0.003439 -0.004682 0.000000 0.000000 0.000000
# 2 -0.003439 0.014261 -0.003305 0.000000 0.000000 0.000000
# 3 -0.004682 -0.003305 0.014626 0.000000 0.000000 0.000000
# 4 0.000000 0.000000 0.000000 0.031929 0.000000 0.000000
# 5 0.000000 0.000000 0.000000 0.000000 0.059012 0.000000
# 6 0.000000 0.000000 0.000000 0.000000 0.000000 0.051152
#
#
# Mechanical properties :
#
#
# Convention : Reuss Voigt Hill
#
# Bulk Modulus (GPa) = 57.28858 59.33570 58.31214
# Shear Modulus (GPa) = 23.68878 25.41478 24.55178
#
# Velocity S-wave (km/s) = 3.46534 3.58937 3.52790
# Velocity P-wave (km/s) = 6.71214 6.87439 6.79375
#
# Compressibility (1/GPa) = 0.01745548
#
# Stress axis : x y z
#
# Youngs Moduli (GPa) = 87.56046 70.12118 68.37200
#
# Poissons Ratio (x) = 0.24117 0.32011
# Poissons Ratio (y) = 0.30115 0.22596
# Poissons Ratio (z) = 0.40994 0.23174
#
# Static dielectric constant tensor:
#      x y z
#    x 3.397630 0.000000 0.000000 
#    y 0.000000 3.693260 0.000000 
#    z 0.000000 0.000000 3.615480 
# 
# 
# High freq. dielectric constant tensor:
#      x y z
#    x 1.747180 0.000000 0.000000 
#    y 0.000000 1.776880 0.000000 
#    z 0.000000 0.000000 1.776540 
# 
# From -- ./inp_files/26573.got.cif
#   From: 2010.03.12/outbox.cif.g09.slc.cpg/sg70_14_cif.got.tgz:26573.got - 2010.04.16 13:46:32.
