data_PCOD8285304
_publ_section_title
;
Structure prediction by ZEFSAII (Michael W. Deem and Ramdas Pophale) SiO2 
 PCOD8285304
Probable space group: F M M M
;
_chemical_formula_sum "Si O2"
_cell_formula_units_Z 160
_cell_length_a 23.889288
_cell_length_b 27.545539
_cell_length_c 13.570583
_cell_angle_alpha 90.000000
_cell_angle_beta 90.000000
_cell_angle_gamma 90.000000
_cell_volume 8930.031414
_symmetry_space_group_name_H-M "F M M M"
_symmetry_group_IT_number 69
_symmetry_cell_setting 'orthorhombic'
loop_
_space_group_symop_operation_xyz
x,y,z
-x,-y,z
x,-y,-z
-x,y,-z
-x,-y,-z
x,y,-z
-x,y,z
x,-y,z
x,1/2+y,1/2+z
-x,1/2-y,1/2+z
x,1/2-y,1/2-z
-x,1/2+y,1/2-z
-x,1/2-y,1/2-z
x,1/2+y,1/2-z
-x,1/2+y,1/2+z
x,1/2-y,1/2+z
1/2+x,y,1/2+z
1/2-x,-y,1/2+z
1/2+x,-y,1/2-z
1/2-x,y,1/2-z
1/2-x,-y,1/2-z
1/2+x,y,1/2-z
1/2-x,y,1/2+z
1/2+x,-y,1/2+z
1/2+x,1/2+y,z
1/2-x,1/2-y,z
1/2+x,1/2-y,-z
1/2-x,1/2+y,-z
1/2-x,1/2-y,-z
1/2+x,1/2+y,-z
1/2-x,1/2+y,z
1/2+x,1/2-y,z
loop_
_atom_site_type_symbol
_atom_site_label
_atom_site_fract_x
_atom_site_fract_y
_atom_site_fract_z
Si Si1 0.000000 0.360026 0.879880
Si Si2 0.666599 0.722912 0.500000
Si Si3 0.896012 0.702379 0.809072
Si Si4 0.224672 0.823078 0.000000
Si Si5 0.112206 0.943428 0.114115
Si Si6 0.809787 0.367721 0.700314
Si Si7 0.500000 0.056210 0.270705
O O1 0.053407 0.332578 0.836816
O O2 0.000000 0.413634 0.831657
O O3 0.000000 0.363280 0.000000
O O4 0.627172 0.725100 0.592586
O O5 0.707245 0.675541 0.500000
O O6 0.706405 0.768252 0.500000
O O7 0.916643 0.750000 0.750000
O O8 0.846616 0.672154 0.757105
O O9 0.200001 0.849338 0.092362
O O10 0.157377 0.918023 0.185588
O O11 0.052185 0.930811 0.159992
O O12 0.125609 0.000000 0.119021
O O13 0.113574 0.925553 0.000000
O O14 0.750000 0.377429 0.750000
O O15 0.500000 0.000000 0.238648
#
# Coordination Sequence:
#
# PCOD8285304 Si02
#       7
#    16  16  32  16  32  32  16
#     4  12  25  41  63  85 116 161 197 240 298 350
#     4  11  22  37  60  84 119 155 202 246 279 338
#     4  12  24  40  59  86 120 158 200 240 289 347
#     4  11  22  36  57  90 117 154 203 245 280 342
#     4  10  21  39  64  90 118 150 191 244 300 354
#     4  12  23  36  61  89 118 157 199 240 291 347
#     4  10  21  40  66  94 115 144 194 246 297 356
#
# _framework density 17.917069000000001
#
# number of rings (size 3 to 8) (size 9 to 14) (size 15 to 20)
#    0.000    0.800    8.000    0.600    0.000    2.200 
#    0.000    0.000    0.000    0.000    0.000    0.000 
#    0.000    0.000    0.000    0.000    0.000    0.000 
#
# Total GULP energy -495816.432958 kJ/mol
# GULP energy per Si atom -12395.410824 kJ/mol
# Density = 1.787629 g / cm^3
# Si number density = 17.917069 Si / 1000 Ang^3
#
#
#
# Elastic Constant Matrix: (Units=GPa)
#
#
# Indices 1 2 3 4 5 6 
#
# 1 120.0654 50.1232 52.0579 0.0000 0.0000 0.0000
# 2 50.1232 88.7283 52.3839 0.0000 0.0000 0.0000
# 3 52.0579 52.3839 132.7256 0.0000 0.0000 0.0000
# 4 0.0000 0.0000 0.0000 27.2610 0.0000 0.0000
# 5 0.0000 0.0000 0.0000 0.0000 7.7829 0.0000
# 6 0.0000 0.0000 0.0000 0.0000 0.0000 30.4200
#
#
#
# Elastic Compliance Matrix: (Units=1/GPa)
#
#
# Indices 1 2 3 4 5 6 
#
# 1 0.011522 -0.005008 -0.002543 0.000000 0.000000 0.000000
# 2 -0.005008 0.016871 -0.004694 0.000000 0.000000 0.000000
# 3 -0.002543 -0.004694 0.010384 0.000000 0.000000 0.000000
# 4 0.000000 0.000000 0.000000 0.036682 0.000000 0.000000
# 5 0.000000 0.000000 0.000000 0.000000 0.128487 0.000000
# 6 0.000000 0.000000 0.000000 0.000000 0.000000 0.032873
#
#
# Mechanical properties :
#
#
# Convention : Reuss Voigt Hill
#
# Bulk Modulus (GPa) = 69.99120 72.29438 71.14279
# Shear Modulus (GPa) = 18.79196 25.55638 22.17417
#
# Velocity S-wave (km/s) = 3.24208 3.78083 3.52177
# Velocity P-wave (km/s) = 7.29133 7.71340 7.50534
#
# Compressibility (1/GPa) = 0.01428751
#
# Stress axis : x y z
#
# Youngs Moduli (GPa) = 86.79250 59.27447 96.29791
#
# Poissons Ratio (x) = 0.29682 0.24486
# Poissons Ratio (y) = 0.43462 0.45206
# Poissons Ratio (z) = 0.22069 0.27826
#
# Static dielectric constant tensor:
#      x y z
#    x 3.581400 0.000000 0.000000 
#    y 0.000000 3.332170 0.000000 
#    z 0.000000 0.000000 2.511640 
# 
# 
# High freq. dielectric constant tensor:
#      x y z
#    x 1.705820 0.000000 0.000000 
#    y 0.000000 1.689590 0.000000 
#    z 0.000000 0.000000 1.705660 
# 
# From -- ./inp_files/10598.got.cif
#   From: 2010.03.12/outbox.cif.g09.slc.cpg/sg69_6_cif.got.tgz:10598.got - 2010.04.10 23:52:46.
