data_PCOD8285993
_publ_section_title
;
Structure prediction by ZEFSAII (Michael W. Deem and Ramdas Pophale) SiO2 
 PCOD8285993
Probable space group: F D D D
;
_chemical_formula_sum "Si O2"
_cell_formula_units_Z 208
_cell_length_a 21.310938
_cell_length_b 16.351225
_cell_length_c 29.869503
_cell_angle_alpha 90.000000
_cell_angle_beta 90.000000
_cell_angle_gamma 90.000000
_cell_volume 10408.325289
_symmetry_space_group_name_H-M "F D D D"
_symmetry_group_IT_number 70
_space_group.IT_coordinate_system_code '2'
_symmetry_cell_setting 'orthorhombic'
loop_
_space_group_symop_operation_xyz
x,y,z
1/4-x,1/4-y,z
x,1/4-y,1/4-z
1/4-x,y,1/4-z
-x,-y,-z
3/4+x,3/4+y,-z
-x,3/4+y,3/4+z
3/4+x,-y,3/4+z
x,1/2+y,1/2+z
1/4-x,3/4-y,1/2+z
x,3/4-y,3/4-z
1/4-x,1/2+y,3/4-z
-x,1/2-y,1/2-z
3/4+x,1/4+y,1/2-z
-x,1/4+y,1/4+z
3/4+x,1/2-y,1/4+z
1/2+x,y,1/2+z
3/4-x,1/4-y,1/2+z
1/2+x,1/4-y,3/4-z
3/4-x,y,3/4-z
1/2-x,-y,1/2-z
1/4+x,3/4+y,1/2-z
1/2-x,3/4+y,1/4+z
1/4+x,-y,1/4+z
1/2+x,1/2+y,z
3/4-x,3/4-y,z
1/2+x,3/4-y,1/4-z
3/4-x,1/2+y,1/4-z
1/2-x,1/2-y,-z
1/4+x,1/4+y,-z
1/2-x,1/4+y,3/4+z
1/4+x,1/2-y,3/4+z
loop_
_atom_site_type_symbol
_atom_site_label
_atom_site_fract_x
_atom_site_fract_y
_atom_site_fract_z
Si Si1 0.700533 0.303727 0.972470
Si Si2 0.705935 0.489588 0.969610
Si Si3 0.441756 0.207980 0.530375
Si Si4 0.938868 0.765409 0.129924
Si Si5 0.988307 0.920626 0.921343
Si Si6 0.375000 0.375000 0.983731
Si Si7 0.707043 0.699096 0.864935
O O1 0.701144 0.397524 0.988983
O O2 0.630035 0.269875 0.980008
O O3 0.714353 0.292854 0.919484
O O4 0.750000 0.250000 0.000000
O O5 0.708866 0.476973 0.916738
O O6 0.771252 0.530435 0.984290
O O7 0.650352 0.550763 0.985413
O O8 0.451798 0.117126 0.551570
O O9 0.476786 0.267854 0.566073
O O10 0.864475 0.773411 0.130205
O O11 0.970432 0.853752 0.134730
O O12 0.975115 0.875000 0.875000
O O13 0.927686 0.915977 0.952678
O O14 0.004558 0.013448 0.907131
#
# Coordination Sequence:
#
# PCOD8285993 Si02
#       7
#    32  32  32  32  32  16  32
#     4  11  23  40  61  80 103 145 193 234 278 333
#     4  11  22  37  56  84 117 145 180 230 284 335
#     4   9  20  36  56  82 112 146 186 230 280 336
#     4  10  20  35  56  82 107 140 185 233 279 330
#     4   9  17  32  55  84 119 156 186 221 272 333
#     4  10  21  34  54  88 124 154 184 222 277 344
#     4   9  17  33  56  80 110 147 187 226 271 331
#
# _framework density 19.984003000000001
#
# number of rings (size 3 to 8) (size 9 to 14) (size 15 to 20)
#    0.000    2.154    0.000    3.462    0.000    5.538 
#    0.000    4.615    0.000    5.538    0.000    0.000 
#    0.000    0.000    0.000    0.000    0.000    0.000 
#
# Total GULP energy -644524.130601 kJ/mol
# GULP energy per Si atom -12394.694819 kJ/mol
# Density = 1.993852 g / cm^3
# Si number density = 19.984003 Si / 1000 Ang^3
#
#
#
# Elastic Constant Matrix: (Units=GPa)
#
#
# Indices 1 2 3 4 5 6 
#
# 1 91.6041 35.8097 49.1762 0.0000 0.0000 0.0000
# 2 35.8097 119.6644 29.6408 0.0000 0.0000 0.0000
# 3 49.1762 29.6408 109.8205 0.0000 0.0000 0.0000
# 4 0.0000 0.0000 0.0000 27.0616 0.0000 0.0000
# 5 0.0000 0.0000 0.0000 0.0000 27.0081 0.0000
# 6 0.0000 0.0000 0.0000 0.0000 0.0000 25.8587
#
#
#
# Elastic Compliance Matrix: (Units=1/GPa)
#
#
# Indices 1 2 3 4 5 6 
#
# 1 0.015376 -0.003103 -0.006048 0.000000 0.000000 0.000000
# 2 -0.003103 0.009582 -0.001196 0.000000 0.000000 0.000000
# 3 -0.006048 -0.001196 0.012137 0.000000 0.000000 0.000000
# 4 0.000000 0.000000 0.000000 0.036953 0.000000 0.000000
# 5 0.000000 0.000000 0.000000 0.000000 0.037026 0.000000
# 6 0.000000 0.000000 0.000000 0.000000 0.000000 0.038672
#
#
# Mechanical properties :
#
#
# Convention : Reuss Voigt Hill
#
# Bulk Modulus (GPa) = 60.97659 61.14915 61.06287
# Shear Modulus (GPa) = 28.42411 29.74983 29.08697
#
# Velocity S-wave (km/s) = 3.77549 3.86253 3.81926
# Velocity P-wave (km/s) = 7.04164 7.11039 7.07610
#
# Compressibility (1/GPa) = 0.01639974
#
# Stress axis : x y z
#
# Youngs Moduli (GPa) = 65.03506 104.36499 82.39404
#
# Poissons Ratio (x) = 0.32388 0.49830
# Poissons Ratio (y) = 0.20183 0.09858
# Poissons Ratio (z) = 0.39331 0.12487
#
# Static dielectric constant tensor:
#      x y z
#    x 3.412340 0.000000 0.000000 
#    y 0.000000 3.697600 0.000000 
#    z 0.000000 0.000000 3.774220 
# 
# 
# High freq. dielectric constant tensor:
#      x y z
#    x 1.754390 0.000000 0.000000 
#    y 0.000000 1.781650 0.000000 
#    z 0.000000 0.000000 1.784800 
# 
# From -- ./inp_files/60419.got.cif
#   From: 2010.03.12/outbox.cif.g09.slc.cpg/sg70_31_cif.got.tgz:60419.got - 2010.04.16 13:46:32.
