data_PCOD8285692
_publ_section_title
;
Structure prediction by ZEFSAII (Michael W. Deem and Ramdas Pophale) SiO2 
 PCOD8285692
Probable space group: F M M M
;
_chemical_formula_sum "Si O2"
_cell_formula_units_Z 160
_cell_length_a 19.546001
_cell_length_b 27.277386
_cell_length_c 16.768003
_cell_angle_alpha 90.000000
_cell_angle_beta 90.000000
_cell_angle_gamma 90.000000
_cell_volume 8940.092433
_symmetry_space_group_name_H-M "F M M M"
_symmetry_group_IT_number 69
_symmetry_cell_setting 'orthorhombic'
loop_
_space_group_symop_operation_xyz
x,y,z
-x,-y,z
x,-y,-z
-x,y,-z
-x,-y,-z
x,y,-z
-x,y,z
x,-y,z
x,1/2+y,1/2+z
-x,1/2-y,1/2+z
x,1/2-y,1/2-z
-x,1/2+y,1/2-z
-x,1/2-y,1/2-z
x,1/2+y,1/2-z
-x,1/2+y,1/2+z
x,1/2-y,1/2+z
1/2+x,y,1/2+z
1/2-x,-y,1/2+z
1/2+x,-y,1/2-z
1/2-x,y,1/2-z
1/2-x,-y,1/2-z
1/2+x,y,1/2-z
1/2-x,y,1/2+z
1/2+x,-y,1/2+z
1/2+x,1/2+y,z
1/2-x,1/2-y,z
1/2+x,1/2-y,-z
1/2-x,1/2+y,-z
1/2-x,1/2-y,-z
1/2+x,1/2+y,-z
1/2-x,1/2+y,z
1/2+x,1/2-y,z
loop_
_atom_site_type_symbol
_atom_site_label
_atom_site_fract_x
_atom_site_fract_y
_atom_site_fract_z
Si Si1 0.419366 0.398832 0.671659
Si Si2 0.418660 0.446868 0.000000
Si Si3 0.673368 0.201018 0.345908
Si Si4 0.579414 0.616177 0.145385
Si Si5 0.918936 0.500000 0.090299
Si Si6 0.674633 0.309317 0.657490
O O1 0.500000 0.389533 0.655619
O O2 0.403106 0.402376 0.765720
O O3 0.393760 0.450296 0.634108
O O4 0.376717 0.353520 0.632135
O O5 0.392793 0.422600 0.081624
O O6 0.385064 0.500000 0.000000
O O7 0.500000 0.449021 0.000000
O O8 0.615159 0.166411 0.380204
O O9 0.654957 0.255666 0.377748
O O10 0.672137 0.197762 0.251258
O O11 0.748074 0.181085 0.373375
O O12 0.500000 0.626149 0.135905
O O13 0.000000 0.500000 0.091274
O O14 0.890661 0.500000 0.000000
#
# Coordination Sequence:
#
# PCOD8285692 Si02
#       6
#    32  16  32  32  16  32
#     4   9  17  28  48  74  94 118 158 197 226 272
#     4   9  18  30  46  65  92 126 155 187 234 278
#     4   8  14  26  46  68  95 125 153 186 229 281
#     4   9  17  28  46  71  94 120 154 194 230 267
#     4   9  18  32  50  68  93 125 152 190 243 280
#     4   8  14  26  46  70  93 124 155 186 230 276
#
# _framework density 17.896906000000001
#
# number of rings (size 3 to 8) (size 9 to 14) (size 15 to 20)
#    0.000    3.400    0.000    1.200    1.400    0.800 
#    0.000    4.000    6.600    3.600    0.000    0.000 
#    0.000    0.000    0.000    0.000    0.000    0.000 
#
# Total GULP energy -495524.617498 kJ/mol
# GULP energy per Si atom -12388.115437 kJ/mol
# Density = 1.785617 g / cm^3
# Si number density = 17.896906 Si / 1000 Ang^3
#
#
#
# Elastic Constant Matrix: (Units=GPa)
#
#
# Indices 1 2 3 4 5 6 
#
# 1 56.4897 71.3187 29.0990 0.0000 0.0000 0.0000
# 2 71.3187 184.5853 55.7840 0.0000 0.0000 0.0000
# 3 29.0990 55.7840 63.3619 0.0000 0.0000 0.0000
# 4 0.0000 0.0000 0.0000 9.6490 0.0000 0.0000
# 5 0.0000 0.0000 0.0000 0.0000 7.5637 0.0000
# 6 0.0000 0.0000 0.0000 0.0000 0.0000 14.0909
#
#
#
# Elastic Compliance Matrix: (Units=1/GPa)
#
#
# Indices 1 2 3 4 5 6 
#
# 1 0.036088 -0.012174 -0.005856 0.000000 0.000000 0.000000
# 2 -0.012174 0.011488 -0.004523 0.000000 0.000000 0.000000
# 3 -0.005856 -0.004523 0.022454 0.000000 0.000000 0.000000
# 4 0.000000 0.000000 0.000000 0.103638 0.000000 0.000000
# 5 0.000000 0.000000 0.000000 0.000000 0.132211 0.000000
# 6 0.000000 0.000000 0.000000 0.000000 0.000000 0.070968
#
#
# Mechanical properties :
#
#
# Convention : Reuss Voigt Hill
#
# Bulk Modulus (GPa) = 40.12090 68.53780 54.32935
# Shear Modulus (GPa) = 11.62084 16.14306 13.88195
#
# Velocity S-wave (km/s) = 2.55094 3.00659 2.78809
# Velocity P-wave (km/s) = 5.58058 7.10154 6.38650
#
# Compressibility (1/GPa) = 0.02492467
#
# Stress axis : x y z
#
# Youngs Moduli (GPa) = 27.70976 87.04549 44.53555
#
# Poissons Ratio (x) = 1.05968 0.26078
# Poissons Ratio (y) = 0.33734 0.20145
# Poissons Ratio (z) = 0.16226 0.39374
#
# Static dielectric constant tensor:
#      x y z
#    x 3.232260 0.000000 0.000000 
#    y 0.000000 3.801900 0.000000 
#    z 0.000000 0.000000 3.102930 
# 
# 
# High freq. dielectric constant tensor:
#      x y z
#    x 1.666080 0.000000 0.000000 
#    y 0.000000 1.701640 0.000000 
#    z 0.000000 0.000000 1.663850 
# 
# From -- ./inp_files/24935.got.cif
#   From: 2010.03.12/outbox.cif.g09.slc.cpg/sg69_13_cif.got.tgz:24935.got - 2010.04.10 23:52:46.
