data_PCOD8285764
_publ_section_title
;
Structure prediction by ZEFSAII (Michael W. Deem and Ramdas Pophale) SiO2 
 PCOD8285764
Probable space group: F D D D
;
_chemical_formula_sum "Si O2"
_cell_formula_units_Z 208
_cell_length_a 14.438969
_cell_length_b 19.975849
_cell_length_c 34.460748
_cell_angle_alpha 90.000000
_cell_angle_beta 90.000000
_cell_angle_gamma 90.000000
_cell_volume 9939.536443
_symmetry_space_group_name_H-M "F D D D"
_symmetry_group_IT_number 70
_space_group.IT_coordinate_system_code '2'
_symmetry_cell_setting 'orthorhombic'
loop_
_space_group_symop_operation_xyz
x,y,z
1/4-x,1/4-y,z
x,1/4-y,1/4-z
1/4-x,y,1/4-z
-x,-y,-z
3/4+x,3/4+y,-z
-x,3/4+y,3/4+z
3/4+x,-y,3/4+z
x,1/2+y,1/2+z
1/4-x,3/4-y,1/2+z
x,3/4-y,3/4-z
1/4-x,1/2+y,3/4-z
-x,1/2-y,1/2-z
3/4+x,1/4+y,1/2-z
-x,1/4+y,1/4+z
3/4+x,1/2-y,1/4+z
1/2+x,y,1/2+z
3/4-x,1/4-y,1/2+z
1/2+x,1/4-y,3/4-z
3/4-x,y,3/4-z
1/2-x,-y,1/2-z
1/4+x,3/4+y,1/2-z
1/2-x,3/4+y,1/4+z
1/4+x,-y,1/4+z
1/2+x,1/2+y,z
3/4-x,3/4-y,z
1/2+x,3/4-y,1/4-z
3/4-x,1/2+y,1/4-z
1/2-x,1/2-y,-z
1/4+x,1/4+y,-z
1/2-x,1/4+y,3/4+z
1/4+x,1/2-y,3/4+z
loop_
_atom_site_type_symbol
_atom_site_label
_atom_site_fract_x
_atom_site_fract_y
_atom_site_fract_z
Si Si1 0.262635 0.013497 0.416359
Si Si2 0.770193 0.613171 0.784620
Si Si3 0.724911 0.882616 0.035356
Si Si4 0.772575 0.380822 0.451584
Si Si5 0.621324 0.490791 0.671661
Si Si6 0.765670 0.742525 0.920323
Si Si7 0.625000 0.125000 0.031238
O O1 0.220122 0.944330 0.433065
O O2 0.223218 0.077782 0.439530
O O3 0.373435 0.012689 0.419429
O O4 0.226224 0.015945 0.372675
O O5 0.871488 0.637320 0.770394
O O6 0.785232 0.545541 0.811017
O O7 0.709693 0.602140 0.746228
O O8 0.774578 0.819797 0.055653
O O9 0.717096 0.945128 0.065321
O O10 0.782907 0.897629 0.996994
O O11 0.875000 0.375000 0.433365
O O12 0.725210 0.310190 0.440197
O O13 0.625000 0.495609 0.625000
O O14 0.604066 0.563042 0.690523
#
# Coordination Sequence:
#
# PCOD8285764 Si02
#       7
#    32  32  32  32  32  32  16
#     4   9  16  30  49  75 102 141 177 213 262 313
#     4   9  21  35  60  77 109 139 187 221 275 332
#     4   9  19  33  53  72 107 144 176 215 274 325
#     4  10  18  28  49  79 109 140 181 222 257 319
#     4  10  21  38  62  81 108 143 184 226 283 340
#     4   9  16  28  50  73 103 142 180 208 254 324
#     4  12  21  38  62  88 102 136 188 242 274 320
#
# _framework density 20.926528999999999
#
# number of rings (size 3 to 8) (size 9 to 14) (size 15 to 20)
#    0.923    1.538    0.000    3.462    0.000    1.846 
#    0.000    0.000   10.154    1.846    0.000    0.000 
#    0.000    0.000    0.000    0.000    0.000    0.000 
#
# Total GULP energy -644200.556643 kJ/mol
# GULP energy per Si atom -12388.472243 kJ/mol
# Density = 2.087890 g / cm^3
# Si number density = 20.926529 Si / 1000 Ang^3
#
#
#
# Elastic Constant Matrix: (Units=GPa)
#
#
# Indices 1 2 3 4 5 6 
#
# 1 13.2702 4.1381 7.8758 0.0000 0.0000 0.0000
# 2 4.1381 153.9951 53.0109 0.0000 0.0000 0.0000
# 3 7.8758 53.0109 128.5450 0.0000 0.0000 0.0000
# 4 0.0000 0.0000 0.0000 47.6325 0.0000 0.0000
# 5 0.0000 0.0000 0.0000 0.0000 23.8469 0.0000
# 6 0.0000 0.0000 0.0000 0.0000 0.0000 8.8344
#
#
#
# Elastic Compliance Matrix: (Units=1/GPa)
#
#
# Indices 1 2 3 4 5 6 
#
# 1 0.078237 -0.000527 -0.004576 0.000000 0.000000 0.000000
# 2 -0.000527 0.007572 -0.003090 0.000000 0.000000 0.000000
# 3 -0.004576 -0.003090 0.009334 0.000000 0.000000 0.000000
# 4 0.000000 0.000000 0.000000 0.020994 0.000000 0.000000
# 5 0.000000 0.000000 0.000000 0.000000 0.041934 0.000000
# 6 0.000000 0.000000 0.000000 0.000000 0.000000 0.113194
#
#
# Mechanical properties :
#
#
# Convention : Reuss Voigt Hill
#
# Bulk Modulus (GPa) = 12.69747 47.31779 30.00763
# Shear Modulus (GPa) = 15.92844 31.44845 23.68844
#
# Velocity S-wave (km/s) = 2.76191 3.88081 3.36814
# Velocity P-wave (km/s) = 4.03133 6.53769 5.43107
#
# Compressibility (1/GPa) = 0.07875587
#
# Stress axis : x y z
#
# Youngs Moduli (GPa) = 12.78168 132.07180 107.13378
#
# Poissons Ratio (x) = 0.06961 0.49026
# Poissons Ratio (y) = 0.00674 0.33106
# Poissons Ratio (z) = 0.05849 0.40813
#
# Static dielectric constant tensor:
#      x y z
#    x 3.092030 0.000000 0.000000 
#    y 0.000000 3.967500 0.000000 
#    z 0.000000 0.000000 3.708020 
# 
# 
# High freq. dielectric constant tensor:
#      x y z
#    x 1.751750 0.000000 0.000000 
#    y 0.000000 1.832880 0.000000 
#    z 0.000000 0.000000 1.824940 
# 
# From -- ./inp_files/67361.got.cif
#   From: 2010.03.12/outbox.cif.g09.slc.cpg/sg70_34_cif.got.tgz:67361.got - 2010.04.16 13:46:32.
