data_PCOD8285532
_publ_section_title
;
Structure prediction by ZEFSAII (Michael W. Deem and Ramdas Pophale) SiO2 
 PCOD8285532
Probable space group: F M M M
;
_chemical_formula_sum "Si O2"
_cell_formula_units_Z 176
_cell_length_a 14.180488
_cell_length_b 27.860584
_cell_length_c 22.295937
_cell_angle_alpha 90.000000
_cell_angle_beta 90.000000
_cell_angle_gamma 90.000000
_cell_volume 8808.604702
_symmetry_space_group_name_H-M "F M M M"
_symmetry_group_IT_number 69
_symmetry_cell_setting 'orthorhombic'
loop_
_space_group_symop_operation_xyz
x,y,z
-x,-y,z
x,-y,-z
-x,y,-z
-x,-y,-z
x,y,-z
-x,y,z
x,-y,z
x,1/2+y,1/2+z
-x,1/2-y,1/2+z
x,1/2-y,1/2-z
-x,1/2+y,1/2-z
-x,1/2-y,1/2-z
x,1/2+y,1/2-z
-x,1/2+y,1/2+z
x,1/2-y,1/2+z
1/2+x,y,1/2+z
1/2-x,-y,1/2+z
1/2+x,-y,1/2-z
1/2-x,y,1/2-z
1/2-x,-y,1/2-z
1/2+x,y,1/2-z
1/2-x,y,1/2+z
1/2+x,-y,1/2+z
1/2+x,1/2+y,z
1/2-x,1/2-y,z
1/2+x,1/2-y,-z
1/2-x,1/2+y,-z
1/2-x,1/2-y,-z
1/2+x,1/2+y,-z
1/2-x,1/2+y,z
1/2+x,1/2-y,z
loop_
_atom_site_type_symbol
_atom_site_label
_atom_site_fract_x
_atom_site_fract_y
_atom_site_fract_z
Si Si1 0.106892 0.362755 0.867302
Si Si2 0.607336 0.000000 0.570812
Si Si3 0.111994 0.729249 0.066155
Si Si4 0.859941 0.304556 0.748484
Si Si5 0.106474 0.673822 0.617979
Si Si6 0.269621 0.090667 0.570437
O O1 0.149119 0.321086 0.909523
O O2 0.106885 0.340470 0.800781
O O3 0.177736 0.406495 0.884823
O O4 0.000000 0.379038 0.882485
O O5 0.667155 0.954064 0.592182
O O6 0.500000 0.000000 0.598158
O O7 0.597657 0.000000 0.500000
O O8 0.149744 0.773201 0.106034
O O9 0.000000 0.727446 0.068691
O O10 0.151633 0.736773 0.000000
O O11 0.904536 0.250000 0.750000
O O12 0.750000 0.298805 0.750000
O O13 0.891097 0.333384 0.689320
O O14 0.166056 0.636761 0.579978
O O15 0.000000 0.669657 0.593683
O O16 0.240050 0.086245 0.500000
#
# Coordination Sequence:
#
# PCOD8285532 Si02
#       6
#    32  16  32  32  32  32
#     4  11  22  37  57  82 120 166 204 242 285 344
#     4   9  20  42  69  92 117 149 187 241 308 369
#     4   9  18  31  48  76 116 159 196 233 285 345
#     4  11  21  36  56  81 118 166 215 253 286 332
#     4  11  21  34  56  84 116 155 199 249 298 347
#     4  11  23  39  61  90 119 149 192 247 303 362
#
# _framework density 19.980463
#
# number of rings (size 3 to 8) (size 9 to 14) (size 15 to 20)
#    0.000    1.545    3.636    2.182    0.000    4.364 
#    0.000    2.273    0.000    3.818    0.000    2.545 
#    0.000    0.000    0.000    0.000    0.000    0.000 
#
# Total GULP energy -545324.411149 kJ/mol
# GULP energy per Si atom -12393.736617 kJ/mol
# Density = 1.993499 g / cm^3
# Si number density = 19.980463 Si / 1000 Ang^3
#
#
#
# Elastic Constant Matrix: (Units=GPa)
#
#
# Indices 1 2 3 4 5 6 
#
# 1 104.0664 51.4936 14.3682 0.0000 0.0000 0.0000
# 2 51.4936 81.3497 20.1753 0.0000 0.0000 0.0000
# 3 14.3682 20.1753 98.7832 0.0000 0.0000 0.0000
# 4 0.0000 0.0000 0.0000 21.0811 0.0000 0.0000
# 5 0.0000 0.0000 0.0000 0.0000 16.9116 0.0000
# 6 0.0000 0.0000 0.0000 0.0000 0.0000 16.8923
#
#
#
# Elastic Compliance Matrix: (Units=1/GPa)
#
#
# Indices 1 2 3 4 5 6 
#
# 1 0.013997 -0.008801 -0.000238 0.000000 0.000000 0.000000
# 2 -0.008801 0.018482 -0.002495 0.000000 0.000000 0.000000
# 3 -0.000238 -0.002495 0.010667 0.000000 0.000000 0.000000
# 4 0.000000 0.000000 0.000000 0.047436 0.000000 0.000000
# 5 0.000000 0.000000 0.000000 0.000000 0.059131 0.000000
# 6 0.000000 0.000000 0.000000 0.000000 0.000000 0.059199
#
#
# Mechanical properties :
#
#
# Convention : Reuss Voigt Hill
#
# Bulk Modulus (GPa) = 49.80413 50.69706 50.25060
# Shear Modulus (GPa) = 20.94920 24.18780 22.56850
#
# Velocity S-wave (km/s) = 3.24154 3.48310 3.36449
# Velocity P-wave (km/s) = 6.24425 6.45015 6.34803
#
# Compressibility (1/GPa) = 0.02007865
#
# Stress axis : x y z
#
# Youngs Moduli (GPa) = 71.44418 54.10634 93.74385
#
# Poissons Ratio (x) = 0.47618 0.02235
# Poissons Ratio (y) = 0.62877 0.23386
# Poissons Ratio (z) = 0.01703 0.13498
#
# Static dielectric constant tensor:
#      x y z
#    x 3.650590 0.000000 0.000000 
#    y 0.000000 3.482740 0.000000 
#    z 0.000000 0.000000 3.684450 
# 
# 
# High freq. dielectric constant tensor:
#      x y z
#    x 1.797610 0.000000 0.000000 
#    y 0.000000 1.737180 0.000000 
#    z 0.000000 0.000000 1.772850 
# 
# From -- ./inp_files/17900.got.cif
#   From: 2010.03.12/outbox.cif.g09.slc.cpg/sg69_9_cif.got.tgz:17900.got - 2010.04.10 23:52:46.
