data_PCOD8285709
_publ_section_title
;
Structure prediction by ZEFSAII (Michael W. Deem and Ramdas Pophale) SiO2 
 PCOD8285709
Probable space group: F M M M
;
_chemical_formula_sum "Si O2"
_cell_formula_units_Z 44
_cell_length_a 18.000000
_cell_length_b 18.000000
_cell_length_c 30.000000
_cell_angle_alpha 90.000000
_cell_angle_beta 90.000000
_cell_angle_gamma 90.000000
_cell_volume 9720.000000
_symmetry_space_group_name_H-M "F M M M"
_symmetry_group_IT_number 69
_symmetry_cell_setting 'orthorhombic'
loop_
_space_group_symop_operation_xyz
x,y,z
-x,-y,z
x,-y,-z
-x,y,-z
-x,-y,-z
x,y,-z
-x,y,z
x,-y,z
x,1/2+y,1/2+z
-x,1/2-y,1/2+z
x,1/2-y,1/2-z
-x,1/2+y,1/2-z
-x,1/2-y,1/2-z
x,1/2+y,1/2-z
-x,1/2+y,1/2+z
x,1/2-y,1/2+z
1/2+x,y,1/2+z
1/2-x,-y,1/2+z
1/2+x,-y,1/2-z
1/2-x,y,1/2-z
1/2-x,-y,1/2-z
1/2+x,y,1/2-z
1/2-x,y,1/2+z
1/2+x,-y,1/2+z
1/2+x,1/2+y,z
1/2-x,1/2-y,z
1/2+x,1/2-y,-z
1/2-x,1/2+y,-z
1/2-x,1/2-y,-z
1/2+x,1/2+y,-z
1/2-x,1/2+y,z
1/2+x,1/2-y,z
loop_
_atom_site_type_symbol
_atom_site_label
_atom_site_fract_x
_atom_site_fract_y
_atom_site_fract_z
Si Si1 0.360515 0.827534 0.446864
Si Si2 0.797608 0.086482 0.207652
Si Si3 0.415868 0.292475 0.616046
Si Si4 0.584226 0.704056 0.791588
Si Si5 0.500000 0.920023 0.552730
Si Si6 0.762826 0.663857 0.123259
O O1 0.346872 0.824363 0.500000
O O2 0.394272 0.750760 0.429124
O O3 0.423864 0.884046 0.431053
O O4 0.283534 0.849851 0.422441
O O5 0.750000 0.113445 0.250000
O O6 0.877055 0.124923 0.207901
O O7 0.758384 0.107600 0.161734
O O8 0.812258 0.000000 0.209650
O O9 0.500000 0.324760 0.612590
O O10 0.406902 0.243416 0.660620
O O11 0.350981 0.354411 0.616972
O O12 0.500000 0.686302 0.780500
O O13 0.618493 0.750000 0.750000
O O14 0.500000 0.921496 0.500000
O O15 0.500000 0.000000 0.574941
O O16 0.750000 0.750000 0.138077
#
# Coordination Sequence:
#
# PCOD8285709 Si02
#       6
#    32  32  32  32  16  32
#     4  10  19  32  49  77 113 144 182 228 269 326
#     4  11  23  36  54  82 109 140 181 234 287 332
#     4  10  19  33  53  79 103 137 190 225 274 324
#     4  10  20  35  56  80 106 143 186 225 268 330
#     4   9  18  32  50  74 109 154 185 211 274 345
#     4  10  20  35  54  77 105 147 186 226 273 338
#
# _framework density 4.5267489999999997
#
# number of rings (size 3 to 8) (size 9 to 14) (size 15 to 20)
#    0.000    1.909    4.545    1.091    0.000    4.364 
#    0.000    0.000    0.000    1.636    0.000    0.000 
#    0.000    0.000    0.000   12.909    0.000    0.000 
#
# Total GULP energy -545096.900502 kJ/mol
# GULP energy per Si atom -12388.565921 kJ/mol
# Density = 0.451645 g / cm^3
# Si number density = 4.526749 Si / 1000 Ang^3
#
#
#
# Elastic Constant Matrix: (Units=GPa)
#
#
# Indices 1 2 3 4 5 6 
#
# 1 161.2984 41.7661 46.2593 0.0000 0.0000 0.0000
# 2 41.7661 38.9336 20.8707 0.0000 0.0000 0.0000
# 3 46.2593 20.8707 119.8134 0.0000 0.0000 0.0000
# 4 0.0000 0.0000 0.0000 18.2202 0.0000 0.0000
# 5 0.0000 0.0000 0.0000 0.0000 35.9114 0.0000
# 6 0.0000 0.0000 0.0000 0.0000 0.0000 20.3790
#
#
#
# Elastic Compliance Matrix: (Units=1/GPa)
#
#
# Indices 1 2 3 4 5 6 
#
# 1 0.008989 -0.008584 -0.001975 0.000000 0.000000 0.000000
# 2 -0.008584 0.036527 -0.003049 0.000000 0.000000 0.000000
# 3 -0.001975 -0.003049 0.009640 0.000000 0.000000 0.000000
# 4 0.000000 0.000000 0.000000 0.054884 0.000000 0.000000
# 5 0.000000 0.000000 0.000000 0.000000 0.027846 0.000000
# 6 0.000000 0.000000 0.000000 0.000000 0.000000 0.049070
#
#
# Mechanical properties :
#
#
# Convention : Reuss Voigt Hill
#
# Bulk Modulus (GPa) = 35.79020 59.75973 47.77497
# Shear Modulus (GPa) = 22.37273 28.97874 25.67574
#
# Velocity S-wave (km/s) = 3.51890 4.00486 3.76972
# Velocity P-wave (km/s) = 6.02653 7.37974 6.73720
#
# Compressibility (1/GPa) = 0.02794061
#
# Stress axis : x y z
#
# Youngs Moduli (GPa) = 111.24825 27.37666 103.73436
#
# Poissons Ratio (x) = 0.23500 0.20491
# Poissons Ratio (y) = 0.95495 0.31624
# Poissons Ratio (z) = 0.21975 0.08346
#
# Static dielectric constant tensor:
#      x y z
#    x 3.633720 0.000000 0.000000 
#    y 0.000000 3.012900 0.000000 
#    z 0.000000 0.000000 3.478050 
# 
# 
# High freq. dielectric constant tensor:
#      x y z
#    x 1.719140 0.000000 0.000000 
#    y 0.000000 1.646130 0.000000 
#    z 0.000000 0.000000 1.713300 
# 
# From -- ./inp_files/46345.got.cif
#   From: 2010.03.12/outbox.ucp.g09.slc.cvg/sg69_24_cif.got.tgz:46345.got - 2010.05.04 19:54:48.
