data_PCOD8285979
_publ_section_title
;
Structure prediction by ZEFSAII (Michael W. Deem and Ramdas Pophale) SiO2 
 PCOD8285979
Probable space group: F D D D
;
_chemical_formula_sum "Si O2"
_cell_formula_units_Z 144
_cell_length_a 22.316519
_cell_length_b 12.532889
_cell_length_c 27.443270
_cell_angle_alpha 90.000000
_cell_angle_beta 90.000000
_cell_angle_gamma 90.000000
_cell_volume 7675.620687
_symmetry_space_group_name_H-M "F D D D"
_symmetry_group_IT_number 70
_space_group.IT_coordinate_system_code '2'
_symmetry_cell_setting 'orthorhombic'
loop_
_space_group_symop_operation_xyz
x,y,z
1/4-x,1/4-y,z
x,1/4-y,1/4-z
1/4-x,y,1/4-z
-x,-y,-z
3/4+x,3/4+y,-z
-x,3/4+y,3/4+z
3/4+x,-y,3/4+z
x,1/2+y,1/2+z
1/4-x,3/4-y,1/2+z
x,3/4-y,3/4-z
1/4-x,1/2+y,3/4-z
-x,1/2-y,1/2-z
3/4+x,1/4+y,1/2-z
-x,1/4+y,1/4+z
3/4+x,1/2-y,1/4+z
1/2+x,y,1/2+z
3/4-x,1/4-y,1/2+z
1/2+x,1/4-y,3/4-z
3/4-x,y,3/4-z
1/2-x,-y,1/2-z
1/4+x,3/4+y,1/2-z
1/2-x,3/4+y,1/4+z
1/4+x,-y,1/4+z
1/2+x,1/2+y,z
3/4-x,3/4-y,z
1/2+x,3/4-y,1/4-z
3/4-x,1/2+y,1/4-z
1/2-x,1/2-y,-z
1/4+x,1/4+y,-z
1/2-x,1/4+y,3/4+z
1/4+x,1/2-y,3/4+z
loop_
_atom_site_type_symbol
_atom_site_label
_atom_site_fract_x
_atom_site_fract_y
_atom_site_fract_z
Si Si1 0.491112 0.430838 0.135932
Si Si2 0.300380 0.984795 0.291257
Si Si3 0.315203 0.246533 0.780232
Si Si4 0.420002 0.781229 0.572756
Si Si5 0.092130 0.875000 0.875000
O O1 0.532825 0.455482 0.090290
O O2 0.529970 0.411851 0.185260
O O3 0.455993 0.322313 0.120620
O O4 0.446263 0.528465 0.147518
O O5 0.306420 0.861022 0.305584
O O6 0.250000 0.000000 0.250000
O O7 0.364433 0.033499 0.275297
O O8 0.289155 0.253129 0.724681
O O9 0.375000 0.875000 0.554921
O O10 0.384004 0.673598 0.583327
#
# Coordination Sequence:
#
# PCOD8285979 Si02
#       5
#    32  32  32  32  16
#     4  11  20  32  52  79 109 138 174 219 267 319
#     4  11  18  32  49  76 113 137 164 209 273 331
#     4  11  20  30  52  79 108 138 169 216 272 319
#     4  10  20  35  51  76 103 142 179 214 265 322
#     4  10  20  34  55  72 107 144 178 220 260 310
#
# _framework density 18.760698000000001
#
# number of rings (size 3 to 8) (size 9 to 14) (size 15 to 20)
#    0.000    1.333    6.667    2.000    0.000    1.778 
#    0.000    1.111    0.000    0.000    0.000    3.111 
#    0.000    0.000    0.000    0.000    0.000    0.000 
#
# Total GULP energy -446131.209093 kJ/mol
# GULP energy per Si atom -12392.533586 kJ/mol
# Density = 1.871800 g / cm^3
# Si number density = 18.760698 Si / 1000 Ang^3
#
#
#
# Elastic Constant Matrix: (Units=GPa)
#
#
# Indices 1 2 3 4 5 6 
#
# 1 97.5581 27.8757 55.1606 0.0000 0.0000 0.0000
# 2 27.8757 40.9425 31.7440 0.0000 0.0000 0.0000
# 3 55.1606 31.7440 131.8587 0.0000 0.0000 0.0000
# 4 0.0000 0.0000 0.0000 16.5711 0.0000 0.0000
# 5 0.0000 0.0000 0.0000 0.0000 38.9491 0.0000
# 6 0.0000 0.0000 0.0000 0.0000 0.0000 18.1491
#
#
#
# Elastic Compliance Matrix: (Units=1/GPa)
#
#
# Indices 1 2 3 4 5 6 
#
# 1 0.014688 -0.006438 -0.004594 0.000000 0.000000 0.000000
# 2 -0.006438 0.032852 -0.005216 0.000000 0.000000 0.000000
# 3 -0.004594 -0.005216 0.010761 0.000000 0.000000 0.000000
# 4 0.000000 0.000000 0.000000 0.060346 0.000000 0.000000
# 5 0.000000 0.000000 0.000000 0.000000 0.025675 0.000000
# 6 0.000000 0.000000 0.000000 0.000000 0.000000 0.055099
#
#
# Mechanical properties :
#
#
# Convention : Reuss Voigt Hill
#
# Bulk Modulus (GPa) = 38.75239 55.54666 47.14953
# Shear Modulus (GPa) = 20.78849 25.10578 22.94713
#
# Velocity S-wave (km/s) = 3.33241 3.66213 3.50115
# Velocity P-wave (km/s) = 5.95882 6.89593 6.44443
#
# Compressibility (1/GPa) = 0.02580486
#
# Stress axis : x y z
#
# Youngs Moduli (GPa) = 68.08487 30.43997 92.92399
#
# Poissons Ratio (x) = 0.19597 0.42693
# Poissons Ratio (y) = 0.43832 0.48466
# Poissons Ratio (z) = 0.31281 0.15876
#
# Static dielectric constant tensor:
#      x y z
#    x 3.623930 0.000000 0.000000 
#    y 0.000000 3.165250 0.000000 
#    z 0.000000 0.000000 3.490450 
# 
# 
# High freq. dielectric constant tensor:
#      x y z
#    x 1.722410 0.000000 0.000000 
#    y 0.000000 1.673160 0.000000 
#    z 0.000000 0.000000 1.733470 
# 
# From -- ./inp_files/19183.got.cif
#   From: 2010.03.12/outbox.cif.g09.slc.cpg/sg70_10_cif.got.tgz:19183.got - 2010.04.16 13:46:32.
