data_PCOD8285282
_publ_section_title
;
Structure prediction by ZEFSAII (Michael W. Deem and Ramdas Pophale) SiO2 
 PCOD8285282
Probable space group: F M M M
;
_chemical_formula_sum "Si O2"
_cell_formula_units_Z 192
_cell_length_a 19.569286
_cell_length_b 16.292533
_cell_length_c 30.032691
_cell_angle_alpha 90.000000
_cell_angle_beta 90.000000
_cell_angle_gamma 90.000000
_cell_volume 9575.420116
_symmetry_space_group_name_H-M "F M M M"
_symmetry_group_IT_number 69
_symmetry_cell_setting 'orthorhombic'
loop_
_space_group_symop_operation_xyz
x,y,z
-x,-y,z
x,-y,-z
-x,y,-z
-x,-y,-z
x,y,-z
-x,y,z
x,-y,z
x,1/2+y,1/2+z
-x,1/2-y,1/2+z
x,1/2-y,1/2-z
-x,1/2+y,1/2-z
-x,1/2-y,1/2-z
x,1/2+y,1/2-z
-x,1/2+y,1/2+z
x,1/2-y,1/2+z
1/2+x,y,1/2+z
1/2-x,-y,1/2+z
1/2+x,-y,1/2-z
1/2-x,y,1/2-z
1/2-x,-y,1/2-z
1/2+x,y,1/2-z
1/2-x,y,1/2+z
1/2+x,-y,1/2+z
1/2+x,1/2+y,z
1/2-x,1/2-y,z
1/2+x,1/2-y,-z
1/2-x,1/2+y,-z
1/2-x,1/2-y,-z
1/2+x,1/2+y,-z
1/2-x,1/2+y,z
1/2+x,1/2-y,z
loop_
_atom_site_type_symbol
_atom_site_label
_atom_site_fract_x
_atom_site_fract_y
_atom_site_fract_z
Si Si1 0.831383 0.747408 0.549198
Si Si2 0.422602 0.093159 0.573773
Si Si3 0.113317 0.365827 0.669457
Si Si4 0.000000 0.407100 0.164481
Si Si5 0.634807 0.183366 0.140327
Si Si6 0.500000 0.653777 0.760931
Si Si7 0.743507 0.908400 0.200350
O O1 0.853745 0.778375 0.500000
O O2 0.750000 0.750000 0.552310
O O3 0.865373 0.656706 0.555731
O O4 0.854586 0.810366 0.587217
O O5 0.500000 0.116412 0.557617
O O6 0.423855 0.094830 0.627229
O O7 0.404804 0.000000 0.557894
O O8 0.128748 0.271165 0.662182
O O9 0.182677 0.414194 0.678082
O O10 0.066741 0.373360 0.712649
O O11 0.065715 0.365456 0.144081
O O12 0.000000 0.400554 0.217244
O O13 0.000000 0.500000 0.149001
O O14 0.696144 0.141436 0.166782
O O15 0.500000 0.750000 0.750000
O O16 0.750000 0.868382 0.250000
O O17 0.712943 0.000000 0.204999
#
# Coordination Sequence:
#
# PCOD8285282 Si02
#       7
#    32  32  32  16  32  16  32
#     4  10  23  43  68  98 124 162 214 259 317 390
#     4  10  21  38  63  98 134 166 201 257 336 399
#     4  11  21  36  60  87 120 164 213 253 307 381
#     4  12  26  40  61  87 121 167 215 261 309 364
#     4  11  22  41  63  87 122 167 207 258 315 366
#     4  12  22  38  58  90 121 166 214 259 306 366
#     4  11  24  38  56  88 127 166 212 263 317 371
#
# _framework density 20.05134
#
# number of rings (size 3 to 8) (size 9 to 14) (size 15 to 20)
#    0.000    1.167    2.500    4.500    3.500    4.000 
#    0.000    1.667    0.000    4.500    0.000    0.000 
#    0.000    0.000    0.000    0.000    0.000    0.000 
#
# Total GULP energy -595065.762256 kJ/mol
# GULP energy per Si atom -12397.203380 kJ/mol
# Density = 2.000570 g / cm^3
# Si number density = 20.051340 Si / 1000 Ang^3
#
#
#
# Elastic Constant Matrix: (Units=GPa)
#
#
# Indices 1 2 3 4 5 6 
#
# 1 139.9703 43.1223 57.6008 0.0000 0.0000 0.0000
# 2 43.1223 88.2565 41.4601 0.0000 0.0000 0.0000
# 3 57.6008 41.4601 165.2632 0.0000 0.0000 0.0000
# 4 0.0000 0.0000 0.0000 19.2763 0.0000 0.0000
# 5 0.0000 0.0000 0.0000 0.0000 28.4039 0.0000
# 6 0.0000 0.0000 0.0000 0.0000 0.0000 39.7407
#
#
#
# Elastic Compliance Matrix: (Units=1/GPa)
#
#
# Indices 1 2 3 4 5 6 
#
# 1 0.009146 -0.003368 -0.002343 0.000000 0.000000 0.000000
# 2 -0.003368 0.014085 -0.002360 0.000000 0.000000 0.000000
# 3 -0.002343 -0.002360 0.007459 0.000000 0.000000 0.000000
# 4 0.000000 0.000000 0.000000 0.051877 0.000000 0.000000
# 5 0.000000 0.000000 0.000000 0.000000 0.035206 0.000000
# 6 0.000000 0.000000 0.000000 0.000000 0.000000 0.025163
#
#
# Mechanical properties :
#
#
# Convention : Reuss Voigt Hill
#
# Bulk Modulus (GPa) = 68.73211 75.31738 72.02475
# Shear Modulus (GPa) = 30.50118 34.23796 32.36957
#
# Velocity S-wave (km/s) = 3.90443 4.13669 4.02224
# Velocity P-wave (km/s) = 7.39450 7.77561 7.58745
#
# Compressibility (1/GPa) = 0.01454924
#
# Stress axis : x y z
#
# Youngs Moduli (GPa) = 109.33516 70.99865 134.05807
#
# Poissons Ratio (x) = 0.23914 0.31407
# Poissons Ratio (y) = 0.36827 0.31631
# Poissons Ratio (z) = 0.25615 0.16752
#
# Static dielectric constant tensor:
#      x y z
#    x 3.860890 0.000000 0.000000 
#    y 0.000000 3.751640 0.000000 
#    z 0.000000 0.000000 3.899560 
# 
# 
# High freq. dielectric constant tensor:
#      x y z
#    x 1.795770 0.000000 0.000000 
#    y 0.000000 1.775260 0.000000 
#    z 0.000000 0.000000 1.787030 
# 
# From -- ./inp_files/46446.got.cif
#   From: 2010.03.12/outbox.cif.g09.slc.cpg/sg69_24_cif.got.tgz:46446.got - 2010.04.10 23:52:46.
