data_PCOD8285773
_publ_section_title
;
Structure prediction by ZEFSAII (Michael W. Deem and Ramdas Pophale) SiO2 
 PCOD8285773
Probable space group: F D D D
;
_chemical_formula_sum "Si O2"
_cell_formula_units_Z 192
_cell_length_a 25.963136
_cell_length_b 24.064867
_cell_length_c 16.684470
_cell_angle_alpha 90.000000
_cell_angle_beta 90.000000
_cell_angle_gamma 90.000000
_cell_volume 10424.447091
_symmetry_space_group_name_H-M "F D D D"
_symmetry_group_IT_number 70
_space_group.IT_coordinate_system_code '2'
_symmetry_cell_setting 'orthorhombic'
loop_
_space_group_symop_operation_xyz
x,y,z
1/4-x,1/4-y,z
x,1/4-y,1/4-z
1/4-x,y,1/4-z
-x,-y,-z
3/4+x,3/4+y,-z
-x,3/4+y,3/4+z
3/4+x,-y,3/4+z
x,1/2+y,1/2+z
1/4-x,3/4-y,1/2+z
x,3/4-y,3/4-z
1/4-x,1/2+y,3/4-z
-x,1/2-y,1/2-z
3/4+x,1/4+y,1/2-z
-x,1/4+y,1/4+z
3/4+x,1/2-y,1/4+z
1/2+x,y,1/2+z
3/4-x,1/4-y,1/2+z
1/2+x,1/4-y,3/4-z
3/4-x,y,3/4-z
1/2-x,-y,1/2-z
1/4+x,3/4+y,1/2-z
1/2-x,3/4+y,1/4+z
1/4+x,-y,1/4+z
1/2+x,1/2+y,z
3/4-x,3/4-y,z
1/2+x,3/4-y,1/4-z
3/4-x,1/2+y,1/4-z
1/2-x,1/2-y,-z
1/4+x,1/4+y,-z
1/2-x,1/4+y,3/4+z
1/4+x,1/2-y,3/4+z
loop_
_atom_site_type_symbol
_atom_site_label
_atom_site_fract_x
_atom_site_fract_y
_atom_site_fract_z
Si Si1 0.375000 0.589300 0.375000
Si Si2 0.275186 0.999089 0.563151
Si Si3 0.982648 0.806242 0.291023
Si Si4 0.687954 0.852197 0.240936
Si Si5 0.323222 0.217235 0.229927
Si Si6 0.643689 0.375000 0.375000
Si Si7 0.893593 0.313870 0.679523
O O1 0.327863 0.629412 0.348958
O O2 0.363104 0.550691 0.450968
O O3 0.233501 0.961899 0.517742
O O4 0.317565 0.963289 0.612611
O O5 0.241967 0.043794 0.615599
O O6 0.299873 0.036711 0.493101
O O7 0.924017 0.818800 0.264276
O O8 0.000000 0.750000 0.250000
O O9 0.015065 0.859354 0.266320
O O10 0.640423 0.857853 0.300397
O O11 0.321413 0.176169 0.153875
O O12 0.342939 0.276386 0.195160
O O13 0.875000 0.375000 0.650806
#
# Coordination Sequence:
#
# PCOD8285773 Si02
#       7
#    16  32  32  32  32  16  32
#     4  10  20  32  55  80 111 140 196 232 276 346
#     4  11  20  35  57  79 114 152 196 238 296 348
#     4  10  18  31  53  83 115 144 182 229 296 362
#     4  11  18  34  55  79 110 154 185 234 286 344
#     4  11  21  35  57  83 115 150 189 243 284 352
#     4  10  18  36  56  78 108 150 194 230 284 340
#     4  11  22  36  55  87 122 154 191 238 300 358
#
# _framework density 18.418243
#
# number of rings (size 3 to 8) (size 9 to 14) (size 15 to 20)
#    0.000    1.333    3.333    7.000    0.000    0.000 
#    0.000    2.917    3.667    3.000    0.000    0.000 
#    0.000    0.000    0.000    0.000    0.000    0.000 
#
# Total GULP energy -594682.508680 kJ/mol
# GULP energy per Si atom -12389.218931 kJ/mol
# Density = 1.837632 g / cm^3
# Si number density = 18.418243 Si / 1000 Ang^3
#
#
#
# Elastic Constant Matrix: (Units=GPa)
#
#
# Indices 1 2 3 4 5 6 
#
# 1 67.9047 36.8137 20.3343 0.0000 0.0000 0.0000
# 2 36.8137 114.6847 39.4274 0.0000 0.0000 0.0000
# 3 20.3343 39.4274 45.2389 0.0000 0.0000 0.0000
# 4 0.0000 0.0000 0.0000 34.5425 0.0000 0.0000
# 5 0.0000 0.0000 0.0000 0.0000 34.8433 0.0000
# 6 0.0000 0.0000 0.0000 0.0000 0.0000 29.3202
#
#
#
# Elastic Compliance Matrix: (Units=1/GPa)
#
#
# Indices 1 2 3 4 5 6 
#
# 1 0.018441 -0.004383 -0.004469 0.000000 0.000000 0.000000
# 2 -0.004383 0.013492 -0.009788 0.000000 0.000000 0.000000
# 3 -0.004469 -0.009788 0.032644 0.000000 0.000000 0.000000
# 4 0.000000 0.000000 0.000000 0.028950 0.000000 0.000000
# 5 0.000000 0.000000 0.000000 0.000000 0.028700 0.000000
# 6 0.000000 0.000000 0.000000 0.000000 0.000000 0.034106
#
#
# Mechanical properties :
#
#
# Convention : Reuss Voigt Hill
#
# Bulk Modulus (GPa) = 36.63492 46.77547 41.70520
# Shear Modulus (GPa) = 24.66546 28.49139 26.57842
#
# Velocity S-wave (km/s) = 3.66346 3.93735 3.80287
# Velocity P-wave (km/s) = 6.15047 6.79129 6.47881
#
# Compressibility (1/GPa) = 0.02729636
#
# Stress axis : x y z
#
# Youngs Moduli (GPa) = 54.22684 74.11980 30.63314
#
# Poissons Ratio (x) = 0.32488 0.13690
# Poissons Ratio (y) = 0.23769 0.29985
# Poissons Ratio (z) = 0.24233 0.72551
#
# Static dielectric constant tensor:
#      x y z
#    x 3.509680 0.000000 0.000000 
#    y 0.000000 3.423110 0.000000 
#    z 0.000000 0.000000 3.560760 
# 
# 
# High freq. dielectric constant tensor:
#      x y z
#    x 1.699860 0.000000 0.000000 
#    y 0.000000 1.716180 0.000000 
#    z 0.000000 0.000000 1.689480 
# 
# From -- ./inp_files/47061.got.cif
#   From: 2010.03.12/outbox.cif.g09.slc.cpg/sg70_24_cif.got.tgz:47061.got - 2010.04.16 13:46:32.
