data_PCOD8285118
_publ_section_title
;
Structure prediction by ZEFSAII (Michael W. Deem and Ramdas Pophale) SiO2 
 PCOD8285118
Probable space group: F M M M
;
_chemical_formula_sum "Si O2"
_cell_formula_units_Z 104
_cell_length_a 15.626917
_cell_length_b 27.481642
_cell_length_c 12.758068
_cell_angle_alpha 90.000000
_cell_angle_beta 90.000000
_cell_angle_gamma 90.000000
_cell_volume 5478.994896
_symmetry_space_group_name_H-M "F M M M"
_symmetry_group_IT_number 69
_symmetry_cell_setting 'orthorhombic'
loop_
_space_group_symop_operation_xyz
x,y,z
-x,-y,z
x,-y,-z
-x,y,-z
-x,-y,-z
x,y,-z
-x,y,z
x,-y,z
x,1/2+y,1/2+z
-x,1/2-y,1/2+z
x,1/2-y,1/2-z
-x,1/2+y,1/2-z
-x,1/2-y,1/2-z
x,1/2+y,1/2-z
-x,1/2+y,1/2+z
x,1/2-y,1/2+z
1/2+x,y,1/2+z
1/2-x,-y,1/2+z
1/2+x,-y,1/2-z
1/2-x,y,1/2-z
1/2-x,-y,1/2-z
1/2+x,y,1/2-z
1/2-x,y,1/2+z
1/2+x,-y,1/2+z
1/2+x,1/2+y,z
1/2-x,1/2-y,z
1/2+x,1/2-y,-z
1/2-x,1/2+y,-z
1/2-x,1/2-y,-z
1/2+x,1/2+y,-z
1/2-x,1/2+y,z
1/2+x,1/2-y,z
loop_
_atom_site_type_symbol
_atom_site_label
_atom_site_fract_x
_atom_site_fract_y
_atom_site_fract_z
Si Si1 0.000000 0.243720 0.000000
Si Si2 0.000000 0.698886 0.198695
Si Si3 0.404858 0.147912 0.500000
Si Si4 0.343199 0.635480 0.772860
Si Si5 0.400590 0.556639 0.381236
O O1 0.000000 0.287487 0.080194
O O2 0.916606 0.207625 0.000000
O O3 0.000000 0.750000 0.250000
O O4 0.084561 0.670897 0.231397
O O5 0.500000 0.124305 0.500000
O O6 0.354572 0.128710 0.397983
O O7 0.250000 0.658334 0.750000
O O8 0.347792 0.585082 0.707729
O O9 0.371827 0.570830 0.500000
O O10 0.500000 0.569828 0.367380
O O11 0.384214 0.500000 0.361934
#
# Coordination Sequence:
#
# PCOD8285118 Si02
#       5
#     8  16  16  32  32
#     4  10  22  40  70  80 122 174 204 258 324 362
#     4  12  22  44  59  89 125 167 206 258 313 376
#     4  10  20  45  61  86 132 165 201 268 319 361
#     4  12  25  38  66  94 125 166 215 259 319 377
#     4   9  19  39  64  91 124 162 206 260 316 373
#
# _framework density 18.981583000000001
#
# number of rings (size 3 to 8) (size 9 to 14) (size 15 to 20)
#    0.462    0.923    6.154    0.923    4.308    1.231 
#    0.000    2.308    0.000    2.769    0.000    0.000 
#    0.000    0.000    0.000    0.000    0.000    0.000 
#
# Total GULP energy -322112.850575 kJ/mol
# GULP energy per Si atom -12388.955791 kJ/mol
# Density = 1.893838 g / cm^3
# Si number density = 18.981583 Si / 1000 Ang^3
#
#
#
# Elastic Constant Matrix: (Units=GPa)
#
#
# Indices 1 2 3 4 5 6 
#
# 1 132.8636 41.5198 58.1899 0.0000 0.0000 0.0000
# 2 41.5198 78.6984 56.6330 0.0000 0.0000 0.0000
# 3 58.1899 56.6330 190.0794 0.0000 0.0000 0.0000
# 4 0.0000 0.0000 0.0000 45.0542 0.0000 0.0000
# 5 0.0000 0.0000 0.0000 0.0000 29.0573 0.0000
# 6 0.0000 0.0000 0.0000 0.0000 0.0000 -16.2951
#
#
#
# Elastic Compliance Matrix: (Units=1/GPa)
#
#
# Indices 1 2 3 4 5 6 
#
# 1 0.009471 -0.003704 -0.001796 0.000000 0.000000 0.000000
# 2 -0.003704 0.017624 -0.004117 0.000000 0.000000 0.000000
# 3 -0.001796 -0.004117 0.007037 0.000000 0.000000 0.000000
# 4 0.000000 0.000000 0.000000 0.022195 0.000000 0.000000
# 5 0.000000 0.000000 0.000000 0.000000 0.034415 0.000000
# 6 0.000000 0.000000 0.000000 0.000000 0.000000 -0.061368
#
#
# Mechanical properties :
#
#
# Convention : Reuss Voigt Hill
#
# Bulk Modulus (GPa) = 67.12350 79.36964 73.24657
# Shear Modulus (GPa) = 93.33042 27.91651 60.62346
#
# Velocity S-wave (km/s) = 7.01966 3.83915 5.65751
# Velocity P-wave (km/s) = 10.05684 7.84582 9.01934
#
# Compressibility (1/GPa) = 0.01489791
#
# Stress axis : x y z
#
# Youngs Moduli (GPa) = 105.59076 56.74195 142.10142
#
# Poissons Ratio (x) = 0.21019 0.25515
# Poissons Ratio (y) = 0.39115 0.58501
# Poissons Ratio (z) = 0.18960 0.23360
#
# Static dielectric constant tensor:
#      x y z
#    x 3.245410 0.000000 0.000000 
#    y 0.000000 3.292440 0.000000 
#    z 0.000000 0.000000 3.795100 
# 
# 
# High freq. dielectric constant tensor:
#      x y z
#    x 1.722020 0.000000 0.000000 
#    y 0.000000 1.725380 0.000000 
#    z 0.000000 0.000000 1.760200 
# 
# From -- ./inp_files/8231.got.cif
#   From: 2010.03.12/outbox.cif.g09.slc.cpg/sg69_5_cif.got.tgz:8231.got - 2010.04.10 23:52:46.
