data_PCOD8285629
_publ_section_title
;
Structure prediction by ZEFSAII (Michael W. Deem and Ramdas Pophale) SiO2 
 PCOD8285629
Probable space group: F M M M
;
_chemical_formula_sum "Si O2"
_cell_formula_units_Z 128
_cell_length_a 23.687551
_cell_length_b 17.857290
_cell_length_c 15.005334
_cell_angle_alpha 90.000000
_cell_angle_beta 90.000000
_cell_angle_gamma 90.000000
_cell_volume 6347.188272
_symmetry_space_group_name_H-M "F M M M"
_symmetry_group_IT_number 69
_symmetry_cell_setting 'orthorhombic'
loop_
_space_group_symop_operation_xyz
x,y,z
-x,-y,z
x,-y,-z
-x,y,-z
-x,-y,-z
x,y,-z
-x,y,z
x,-y,z
x,1/2+y,1/2+z
-x,1/2-y,1/2+z
x,1/2-y,1/2-z
-x,1/2+y,1/2-z
-x,1/2-y,1/2-z
x,1/2+y,1/2-z
-x,1/2+y,1/2+z
x,1/2-y,1/2+z
1/2+x,y,1/2+z
1/2-x,-y,1/2+z
1/2+x,-y,1/2-z
1/2-x,y,1/2-z
1/2-x,-y,1/2-z
1/2+x,y,1/2-z
1/2-x,y,1/2+z
1/2+x,-y,1/2+z
1/2+x,1/2+y,z
1/2-x,1/2-y,z
1/2+x,1/2-y,-z
1/2-x,1/2+y,-z
1/2-x,1/2-y,-z
1/2+x,1/2+y,-z
1/2-x,1/2+y,z
1/2+x,1/2-y,z
loop_
_atom_site_type_symbol
_atom_site_label
_atom_site_fract_x
_atom_site_fract_y
_atom_site_fract_z
Si Si1 0.000000 0.087743 0.354783
Si Si2 0.118801 0.188121 0.897339
Si Si3 0.000000 0.322884 0.687365
Si Si4 0.686222 0.414650 0.763743
Si Si5 0.378937 0.359899 0.400663
O O1 0.945734 0.125572 0.399422
O O2 0.000000 0.103348 0.249126
O O3 0.000000 0.000000 0.373466
O O4 0.158788 0.136809 0.838376
O O5 0.133478 0.273980 0.875893
O O6 0.053804 0.173356 0.875705
O O7 0.129893 0.168585 0.000000
O O8 0.000000 0.250000 0.750000
O O9 0.684470 0.500000 0.797592
O O10 0.750000 0.387047 0.750000
O O11 0.653036 0.411108 0.670272
O O12 0.356516 0.378366 0.500000
#
# Coordination Sequence:
#
# PCOD8285629 Si02
#       5
#    16  32  16  32  32
#     4  12  23  36  61  95 129 162 201 250 312 373
#     4  11  23  40  65  96 128 164 209 259 314 378
#     4  12  19  37  65  92 128 171 204 249 308 378
#     4  11  25  44  64  88 123 167 212 261 318 378
#     4  11  23  40  64  94 125 161 206 259 315 371
#
# _framework density 20.166409999999999
#
# number of rings (size 3 to 8) (size 9 to 14) (size 15 to 20)
#    0.000    0.750    5.000    2.250    0.000    8.000 
#    0.000    5.000    0.000    2.250    0.000    0.000 
#    0.000    0.000    0.000    0.000    0.000    0.000 
#
# Total GULP energy -396963.850838 kJ/mol
# GULP energy per Si atom -12405.120339 kJ/mol
# Density = 2.012051 g / cm^3
# Si number density = 20.166410 Si / 1000 Ang^3
#
#
#
# Elastic Constant Matrix: (Units=GPa)
#
#
# Indices 1 2 3 4 5 6 
#
# 1 135.9128 46.4941 46.2871 0.0000 0.0000 0.0000
# 2 46.4941 108.4422 55.5255 0.0000 0.0000 0.0000
# 3 46.2871 55.5255 111.3945 0.0000 0.0000 0.0000
# 4 0.0000 0.0000 0.0000 9.9522 0.0000 0.0000
# 5 0.0000 0.0000 0.0000 0.0000 0.7580 0.0000
# 6 0.0000 0.0000 0.0000 0.0000 0.0000 19.9371
#
#
#
# Elastic Compliance Matrix: (Units=1/GPa)
#
#
# Indices 1 2 3 4 5 6 
#
# 1 0.009100 -0.002639 -0.002466 0.000000 0.000000 0.000000
# 2 -0.002639 0.013147 -0.005457 0.000000 0.000000 0.000000
# 3 -0.002466 -0.005457 0.012722 0.000000 0.000000 0.000000
# 4 0.000000 0.000000 0.000000 0.100480 0.000000 0.000000
# 5 0.000000 0.000000 0.000000 0.000000 1.319249 0.000000
# 6 0.000000 0.000000 0.000000 0.000000 0.000000 0.050158
#
#
# Mechanical properties :
#
#
# Convention : Reuss Voigt Hill
#
# Bulk Modulus (GPa) = 72.22478 72.48474 72.35476
# Shear Modulus (GPa) = 3.26671 19.95898 11.61285
#
# Velocity S-wave (km/s) = 1.27412 3.14939 2.40229
# Velocity P-wave (km/s) = 6.16901 7.01756 6.60692
#
# Compressibility (1/GPa) = 0.01384566
#
# Stress axis : x y z
#
# Youngs Moduli (GPa) = 109.88698 76.06339 78.60628
#
# Poissons Ratio (x) = 0.20074 0.19384
# Poissons Ratio (y) = 0.29000 0.42892
# Poissons Ratio (z) = 0.27097 0.41505
#
# Static dielectric constant tensor:
#      x y z
#    x 3.600540 0.000000 0.000000 
#    y 0.000000 3.687870 0.000000 
#    z 0.000000 0.000000 3.739690 
# 
# 
# High freq. dielectric constant tensor:
#      x y z
#    x 1.786760 0.000000 0.000000 
#    y 0.000000 1.789330 0.000000 
#    z 0.000000 0.000000 1.796010 
# 
# From -- ./inp_files/18654.got.cif
#   From: 2010.03.12/outbox.cif.g09.slc.cpg/sg69_10_cif.got.tgz:18654.got - 2010.04.10 23:52:46.
