data_PCOD8285255
_publ_section_title
;
Structure prediction by ZEFSAII (Michael W. Deem and Ramdas Pophale) SiO2 
 PCOD8285255
Probable space group: F M M M
;
_chemical_formula_sum "Si O2"
_cell_formula_units_Z 104
_cell_length_a 19.075697
_cell_length_b 18.992791
_cell_length_c 11.994165
_cell_angle_alpha 90.000000
_cell_angle_beta 90.000000
_cell_angle_gamma 90.000000
_cell_volume 4345.494691
_symmetry_space_group_name_H-M "F M M M"
_symmetry_group_IT_number 69
_symmetry_cell_setting 'orthorhombic'
loop_
_space_group_symop_operation_xyz
x,y,z
-x,-y,z
x,-y,-z
-x,y,-z
-x,-y,-z
x,y,-z
-x,y,z
x,-y,z
x,1/2+y,1/2+z
-x,1/2-y,1/2+z
x,1/2-y,1/2-z
-x,1/2+y,1/2-z
-x,1/2-y,1/2-z
x,1/2+y,1/2-z
-x,1/2+y,1/2+z
x,1/2-y,1/2+z
1/2+x,y,1/2+z
1/2-x,-y,1/2+z
1/2+x,-y,1/2-z
1/2-x,y,1/2-z
1/2-x,-y,1/2-z
1/2+x,y,1/2-z
1/2-x,y,1/2+z
1/2+x,-y,1/2+z
1/2+x,1/2+y,z
1/2-x,1/2-y,z
1/2+x,1/2-y,-z
1/2-x,1/2+y,-z
1/2-x,1/2-y,-z
1/2+x,1/2+y,-z
1/2-x,1/2+y,z
1/2+x,1/2-y,z
loop_
_atom_site_type_symbol
_atom_site_label
_atom_site_fract_x
_atom_site_fract_y
_atom_site_fract_z
Si Si1 0.000000 0.000000 0.738081
Si Si2 0.144770 0.708890 0.133005
Si Si3 0.142352 0.000000 0.131410
Si Si4 0.000000 0.147668 0.630394
Si Si5 0.790288 0.645168 0.367462
O O1 0.066080 0.000000 0.817623
O O2 0.000000 0.065854 0.656748
O O3 0.070058 0.683228 0.180498
O O4 0.158101 0.790285 0.173102
O O5 0.209342 0.657552 0.175278
O O6 0.146154 0.706127 0.000000
O O7 0.183494 0.930845 0.172560
O O8 0.133181 0.000000 0.000000
O O9 0.000000 0.158814 0.500000
O O10 0.789055 0.649933 0.500000
#
# Coordination Sequence:
#
# PCOD8285255 Si02
#       5
#     8  32  16  16  32
#     4  12  26  40  52  82 116 140 186 236 268 334
#     4   8  15  31  57  86 112 143 186 228 269 325
#     4  10  21  38  59  80 110 150 182 224 283 326
#     4  10  21  38  59  80 110 150 182 224 283 326
#     4   8  15  31  57  86 112 143 186 228 269 325
#
# _framework density 23.932834
#
# number of rings (size 3 to 8) (size 9 to 14) (size 15 to 20)
#    0.000    3.077    0.000    2.308    0.000    2.462 
#    0.000   15.385    0.000    3.692    0.000    0.000 
#    0.000    0.000    0.000    0.000    0.000    0.000 
#
# Total GULP energy -322542.205487 kJ/mol
# GULP energy per Si atom -12405.469442 kJ/mol
# Density = 2.387836 g / cm^3
# Si number density = 23.932834 Si / 1000 Ang^3
#
#
#
# Elastic Constant Matrix: (Units=GPa)
#
#
# Indices 1 2 3 4 5 6 
#
# 1 245.3816 124.3938 51.3842 0.0000 0.0000 0.0000
# 2 124.3938 201.2715 22.7852 0.0000 0.0000 0.0000
# 3 51.3842 22.7852 59.4042 0.0000 0.0000 0.0000
# 4 0.0000 0.0000 0.0000 41.3837 0.0000 0.0000
# 5 0.0000 0.0000 0.0000 0.0000 38.6226 0.0000
# 6 0.0000 0.0000 0.0000 0.0000 0.0000 42.5392
#
#
#
# Elastic Compliance Matrix: (Units=1/GPa)
#
#
# Indices 1 2 3 4 5 6 
#
# 1 0.006944 -0.003775 -0.004558 0.000000 0.000000 0.000000
# 2 -0.003775 0.007247 0.000486 0.000000 0.000000 0.000000
# 3 -0.004558 0.000486 0.020590 0.000000 0.000000 0.000000
# 4 0.000000 0.000000 0.000000 0.024164 0.000000 0.000000
# 5 0.000000 0.000000 0.000000 0.000000 0.025892 0.000000
# 6 0.000000 0.000000 0.000000 0.000000 0.000000 0.023508
#
#
# Mechanical properties :
#
#
# Convention : Reuss Voigt Hill
#
# Bulk Modulus (GPa) = 52.39523 100.35373 76.37448
# Shear Modulus (GPa) = 38.34334 45.00873 41.67603
#
# Velocity S-wave (km/s) = 4.00699 4.34132 4.17751
# Velocity P-wave (km/s) = 6.58393 8.19463 7.43304
#
# Compressibility (1/GPa) = 0.01908571
#
# Stress axis : x y z
#
# Youngs Moduli (GPa) = 144.01486 137.99235 48.56704
#
# Poissons Ratio (x) = 0.52099 0.22138
# Poissons Ratio (y) = 0.54373 -0.02361
# Poissons Ratio (z) = 0.65644 -0.06709
#
# Static dielectric constant tensor:
#      x y z
#    x 4.702980 0.000000 0.000000 
#    y 0.000000 4.550740 0.000000 
#    z 0.000000 0.000000 4.889160 
# 
# 
# High freq. dielectric constant tensor:
#      x y z
#    x 1.954840 0.000000 0.000000 
#    y 0.000000 1.948850 0.000000 
#    z 0.000000 0.000000 2.019840 
# 
# From -- ./inp_files/16054.got.cif
#   From: 2010.03.12/outbox.cif.g09.slc.cpg/sg69_9_cif.got.tgz:16054.got - 2010.04.10 23:52:46.
