data_PCOD8285788
_publ_section_title
;
Structure prediction by ZEFSAII (Michael W. Deem and Ramdas Pophale) SiO2 
 PCOD8285788
Probable space group: F D D D
;
_chemical_formula_sum "Si O2"
_cell_formula_units_Z 160
_cell_length_a 10.068446
_cell_length_b 25.957028
_cell_length_c 34.938626
_cell_angle_alpha 90.000000
_cell_angle_beta 90.000000
_cell_angle_gamma 90.000000
_cell_volume 9131.102809
_symmetry_space_group_name_H-M "F D D D"
_symmetry_group_IT_number 70
_space_group.IT_coordinate_system_code '2'
_symmetry_cell_setting 'orthorhombic'
loop_
_space_group_symop_operation_xyz
x,y,z
1/4-x,1/4-y,z
x,1/4-y,1/4-z
1/4-x,y,1/4-z
-x,-y,-z
3/4+x,3/4+y,-z
-x,3/4+y,3/4+z
3/4+x,-y,3/4+z
x,1/2+y,1/2+z
1/4-x,3/4-y,1/2+z
x,3/4-y,3/4-z
1/4-x,1/2+y,3/4-z
-x,1/2-y,1/2-z
3/4+x,1/4+y,1/2-z
-x,1/4+y,1/4+z
3/4+x,1/2-y,1/4+z
1/2+x,y,1/2+z
3/4-x,1/4-y,1/2+z
1/2+x,1/4-y,3/4-z
3/4-x,y,3/4-z
1/2-x,-y,1/2-z
1/4+x,3/4+y,1/2-z
1/2-x,3/4+y,1/4+z
1/4+x,-y,1/4+z
1/2+x,1/2+y,z
3/4-x,3/4-y,z
1/2+x,3/4-y,1/4-z
3/4-x,1/2+y,1/4-z
1/2-x,1/2-y,-z
1/4+x,1/4+y,-z
1/2-x,1/4+y,3/4+z
1/4+x,1/2-y,3/4+z
loop_
_atom_site_type_symbol
_atom_site_label
_atom_site_fract_x
_atom_site_fract_y
_atom_site_fract_z
Si Si1 0.863128 0.932413 0.002586
Si Si2 0.720954 0.314127 0.373263
Si Si3 0.390055 0.433233 0.254595
Si Si4 0.369131 0.030663 0.707843
Si Si5 0.100328 0.782675 0.796208
O O1 0.875000 0.875000 0.019369
O O2 0.714793 0.939034 0.986917
O O3 0.963054 0.941196 0.967237
O O4 0.896894 0.971937 0.036592
O O5 0.700216 0.375000 0.375000
O O6 0.656820 0.289907 0.335719
O O7 0.641318 0.288694 0.408347
O O8 0.875000 0.299009 0.375000
O O9 0.375000 0.375000 0.240020
O O10 0.379772 0.469752 0.217300
O O11 0.279016 0.448735 0.285598
O O12 0.530945 0.437965 0.275350
#
# Coordination Sequence:
#
# PCOD8285788 Si02
#       5
#    32  32  32  32  32
#     4  10  18  34  54  76 105 137 173 215 251 300
#     4  11  20  33  53  78 108 135 165 219 271 305
#     4  10  20  36  54  76 105 140 175 212 253 306
#     4  10  21  34  53  79 106 135 173 210 258 313
#     4  10  21  32  53  82 103 134 179 211 255 316
#
# _framework density 17.522525999999999
#
# number of rings (size 3 to 8) (size 9 to 14) (size 15 to 20)
#    0.000    1.800    2.000    3.600    0.000    0.800 
#    0.000    3.000    0.000    0.000    0.000    0.000 
#    0.000    0.000    0.000    0.000    0.000    0.000 
#
# Total GULP energy -496154.671323 kJ/mol
# GULP energy per Si atom -12403.866783 kJ/mol
# Density = 1.748264 g / cm^3
# Si number density = 17.522526 Si / 1000 Ang^3
#
#
#
# Elastic Constant Matrix: (Units=GPa)
#
#
# Indices 1 2 3 4 5 6 
#
# 1 61.6214 22.1062 14.2950 0.0000 0.0000 0.0000
# 2 22.1062 146.6494 50.0594 0.0000 0.0000 0.0000
# 3 14.2950 50.0594 110.6807 0.0000 0.0000 0.0000
# 4 0.0000 0.0000 0.0000 15.1821 0.0000 0.0000
# 5 0.0000 0.0000 0.0000 0.0000 19.3952 0.0000
# 6 0.0000 0.0000 0.0000 0.0000 0.0000 18.9623
#
#
#
# Elastic Compliance Matrix: (Units=1/GPa)
#
#
# Indices 1 2 3 4 5 6 
#
# 1 0.017300 -0.002182 -0.001248 0.000000 0.000000 0.000000
# 2 -0.002182 0.008339 -0.003490 0.000000 0.000000 0.000000
# 3 -0.001248 -0.003490 0.010775 0.000000 0.000000 0.000000
# 4 0.000000 0.000000 0.000000 0.065867 0.000000 0.000000
# 5 0.000000 0.000000 0.000000 0.000000 0.051559 0.000000
# 6 0.000000 0.000000 0.000000 0.000000 0.000000 0.052736
#
#
# Mechanical properties :
#
#
# Convention : Reuss Voigt Hill
#
# Bulk Modulus (GPa) = 44.29641 54.65250 49.47445
# Shear Modulus (GPa) = 21.93557 26.20733 24.07145
#
# Velocity S-wave (km/s) = 3.54199 3.87154 3.71043
# Velocity P-wave (km/s) = 6.48553 7.15840 6.83026
#
# Compressibility (1/GPa) = 0.02257519
#
# Stress axis : x y z
#
# Youngs Moduli (GPa) = 57.80237 119.91573 92.81128
#
# Poissons Ratio (x) = 0.26166 0.11578
# Poissons Ratio (y) = 0.12613 0.32390
# Poissons Ratio (z) = 0.07211 0.41849
#
# Static dielectric constant tensor:
#      x y z
#    x 3.426040 0.000000 0.000000 
#    y 0.000000 3.365390 0.000000 
#    z 0.000000 0.000000 3.015390 
# 
# 
# High freq. dielectric constant tensor:
#      x y z
#    x 1.693880 0.000000 0.000000 
#    y 0.000000 1.681230 0.000000 
#    z 0.000000 0.000000 1.651690 
# 
# From -- ./inp_files/21093.got.cif
#   From: 2010.03.12/outbox.cif.g09.slc.cpg/sg70_11_cif.got.tgz:21093.got - 2010.04.16 13:46:32.
