data_PCOD8285164
_publ_section_title
;
Structure prediction by ZEFSAII (Michael W. Deem and Ramdas Pophale) SiO2 
 PCOD8285164
Probable space group: F M M M
;
_chemical_formula_sum "Si O2"
_cell_formula_units_Z 160
_cell_length_a 18.040643
_cell_length_b 17.243438
_cell_length_c 28.072360
_cell_angle_alpha 90.000000
_cell_angle_beta 90.000000
_cell_angle_gamma 90.000000
_cell_volume 8732.825798
_symmetry_space_group_name_H-M "F M M M"
_symmetry_group_IT_number 69
_symmetry_cell_setting 'orthorhombic'
loop_
_space_group_symop_operation_xyz
x,y,z
-x,-y,z
x,-y,-z
-x,y,-z
-x,-y,-z
x,y,-z
-x,y,z
x,-y,z
x,1/2+y,1/2+z
-x,1/2-y,1/2+z
x,1/2-y,1/2-z
-x,1/2+y,1/2-z
-x,1/2-y,1/2-z
x,1/2+y,1/2-z
-x,1/2+y,1/2+z
x,1/2-y,1/2+z
1/2+x,y,1/2+z
1/2-x,-y,1/2+z
1/2+x,-y,1/2-z
1/2-x,y,1/2-z
1/2-x,-y,1/2-z
1/2+x,y,1/2-z
1/2-x,y,1/2+z
1/2+x,-y,1/2+z
1/2+x,1/2+y,z
1/2-x,1/2-y,z
1/2+x,1/2-y,-z
1/2-x,1/2+y,-z
1/2-x,1/2-y,-z
1/2+x,1/2+y,-z
1/2-x,1/2+y,z
1/2+x,1/2-y,z
loop_
_atom_site_type_symbol
_atom_site_label
_atom_site_fract_x
_atom_site_fract_y
_atom_site_fract_z
Si Si1 0.583129 0.410104 0.588868
Si Si2 0.768828 0.839243 0.446411
Si Si3 0.791062 0.091621 0.144706
Si Si4 0.857867 0.910028 0.689085
Si Si5 0.917726 0.407328 0.712105
O O1 0.500000 0.389025 0.571004
O O2 0.601899 0.500000 0.577295
O O3 0.644020 0.356443 0.563144
O O4 0.584930 0.396941 0.645827
O O5 0.749734 0.865877 0.500000
O O6 0.750000 0.750000 0.439137
O O7 0.714898 0.884795 0.410481
O O8 0.721464 0.126594 0.174223
O O9 0.866126 0.123216 0.168981
O O10 0.788592 0.000000 0.147083
O O11 0.888777 0.872100 0.737625
O O12 0.845741 0.000000 0.699521
O O13 0.918272 0.500000 0.714333
O O14 0.000000 0.375281 0.702385
#
# Coordination Sequence:
#
# PCOD8285164 Si02
#       5
#    32  32  32  32  32
#     4   9  17  30  52  82 108 126 152 199 255 301
#     4  10  21  36  51  67  91 126 164 199 244 305
#     4   9  17  29  47  70  93 121 160 201 238 280
#     4   8  13  23  42  70 101 127 150 182 232 291
#     4   9  15  23  40  68  99 126 154 191 230 271
#
# _framework density 18.321676
#
# number of rings (size 3 to 8) (size 9 to 14) (size 15 to 20)
#    0.000    3.000    0.000    3.000    0.000    6.800 
#    0.000    2.000    0.000   11.400    0.000    9.800 
#    0.000    0.000    0.000    0.000    0.000    0.000 
#
# Total GULP energy -495706.108058 kJ/mol
# GULP energy per Si atom -12392.652701 kJ/mol
# Density = 1.827997 g / cm^3
# Si number density = 18.321676 Si / 1000 Ang^3
#
#
#
# Elastic Constant Matrix: (Units=GPa)
#
#
# Indices 1 2 3 4 5 6 
#
# 1 141.1229 34.3461 71.8245 0.0000 0.0000 0.0000
# 2 34.3461 27.1110 18.1132 0.0000 0.0000 0.0000
# 3 71.8245 18.1132 120.1815 0.0000 0.0000 0.0000
# 4 0.0000 0.0000 0.0000 2.4723 0.0000 0.0000
# 5 0.0000 0.0000 0.0000 0.0000 17.5829 0.0000
# 6 0.0000 0.0000 0.0000 0.0000 0.0000 17.4586
#
#
#
# Elastic Compliance Matrix: (Units=1/GPa)
#
#
# Indices 1 2 3 4 5 6 
#
# 1 0.013244 -0.012777 -0.005989 0.000000 0.000000 0.000000
# 2 -0.012777 0.053341 -0.000404 0.000000 0.000000 0.000000
# 3 -0.005989 -0.000404 0.011961 0.000000 0.000000 0.000000
# 4 0.000000 0.000000 0.000000 0.404484 0.000000 0.000000
# 5 0.000000 0.000000 0.000000 0.000000 0.056873 0.000000
# 6 0.000000 0.000000 0.000000 0.000000 0.000000 0.057278
#
#
# Mechanical properties :
#
#
# Convention : Reuss Voigt Hill
#
# Bulk Modulus (GPa) = 24.87126 59.66478 42.26802
# Shear Modulus (GPa) = 7.70507 18.44487 13.07497
#
# Velocity S-wave (km/s) = 2.05294 3.17633 2.67429
# Velocity P-wave (km/s) = 4.38448 6.78881 5.71453
#
# Compressibility (1/GPa) = 0.04020705
#
# Stress axis : x y z
#
# Youngs Moduli (GPa) = 75.50693 18.74716 83.60508
#
# Poissons Ratio (x) = 0.23953 0.50074
# Poissons Ratio (y) = 0.96472 0.03375
# Poissons Ratio (z) = 0.45223 0.00757
#
# Static dielectric constant tensor:
#      x y z
#    x 3.683040 0.000000 0.000000 
#    y 0.000000 2.855520 0.000000 
#    z 0.000000 0.000000 3.494730 
# 
# 
# High freq. dielectric constant tensor:
#      x y z
#    x 1.711040 0.000000 0.000000 
#    y 0.000000 1.652050 0.000000 
#    z 0.000000 0.000000 1.712070 
# 
# From -- ./inp_files/23113.got.cif
#   From: 2010.03.12/outbox.cif.g09.slc.cpg/sg69_12_cif.got.tgz:23113.got - 2010.04.10 23:52:46.
