data_PCOD8285272
_publ_section_title
;
Structure prediction by ZEFSAII (Michael W. Deem and Ramdas Pophale) SiO2 
 PCOD8285272
Probable space group: F M M M
;
_chemical_formula_sum "Si O2"
_cell_formula_units_Z 192
_cell_length_a 13.955577
_cell_length_b 24.425177
_cell_length_c 28.098694
_cell_angle_alpha 90.000000
_cell_angle_beta 90.000000
_cell_angle_gamma 90.000000
_cell_volume 9577.929845
_symmetry_space_group_name_H-M "F M M M"
_symmetry_group_IT_number 69
_symmetry_cell_setting 'orthorhombic'
loop_
_space_group_symop_operation_xyz
x,y,z
-x,-y,z
x,-y,-z
-x,y,-z
-x,-y,-z
x,y,-z
-x,y,z
x,-y,z
x,1/2+y,1/2+z
-x,1/2-y,1/2+z
x,1/2-y,1/2-z
-x,1/2+y,1/2-z
-x,1/2-y,1/2-z
x,1/2+y,1/2-z
-x,1/2+y,1/2+z
x,1/2-y,1/2+z
1/2+x,y,1/2+z
1/2-x,-y,1/2+z
1/2+x,-y,1/2-z
1/2-x,y,1/2-z
1/2-x,-y,1/2-z
1/2+x,y,1/2-z
1/2-x,y,1/2+z
1/2+x,-y,1/2+z
1/2+x,1/2+y,z
1/2-x,1/2-y,z
1/2+x,1/2-y,-z
1/2-x,1/2+y,-z
1/2-x,1/2-y,-z
1/2+x,1/2+y,-z
1/2-x,1/2+y,z
1/2+x,1/2-y,z
loop_
_atom_site_type_symbol
_atom_site_label
_atom_site_fract_x
_atom_site_fract_y
_atom_site_fract_z
Si Si1 0.613425 0.330981 0.632295
Si Si2 0.891560 0.208222 0.856681
Si Si3 0.233386 0.619641 0.694488
Si Si4 0.105501 0.638961 0.446585
Si Si5 0.191459 0.600239 0.944863
Si Si6 0.612127 0.000000 0.886195
Si Si7 0.240792 0.500000 0.306185
O O1 0.500000 0.338303 0.636121
O O2 0.648523 0.269942 0.645969
O O3 0.664094 0.373199 0.668519
O O4 0.650475 0.344033 0.578825
O O5 0.837698 0.166759 0.822139
O O6 0.883177 0.189906 0.911354
O O7 0.000000 0.208082 0.838585
O O8 0.250000 0.625986 0.750000
O O9 0.190466 0.558671 0.681155
O O10 0.113526 0.662712 0.500000
O O11 0.192552 0.596311 0.437995
O O12 0.000000 0.610780 0.439055
O O13 0.142514 0.551264 0.917475
O O14 0.162259 0.599024 0.000000
O O15 0.658190 0.000000 0.833792
O O16 0.500000 0.000000 0.877601
O O17 0.250000 0.500000 0.250000
#
# Coordination Sequence:
#
# PCOD8285272 Si02
#       7
#    32  32  32  32  32  16  16
#     4  11  23  38  59  88 125 166 206 249 309 376
#     4  10  21  38  60  88 121 159 206 258 308 369
#     4  11  23  41  63  87 120 158 206 264 317 378
#     4   9  18  35  59  86 119 160 203 251 308 362
#     4  11  23  38  60  91 128 168 213 259 308 374
#     4  12  23  40  65  90 127 175 214 261 321 376
#     4  10  22  41  65  90 118 160 211 261 310 371
#
# _framework density 20.046085999999999
#
# number of rings (size 3 to 8) (size 9 to 14) (size 15 to 20)
#    0.000    1.500    3.333    1.250    0.000    4.333 
#    0.000    8.333    0.000    6.000    0.000    0.000 
#    0.000    0.000    0.000    0.000    0.000    0.000 
#
# Total GULP energy -594763.353423 kJ/mol
# GULP energy per Si atom -12390.903196 kJ/mol
# Density = 2.000046 g / cm^3
# Si number density = 20.046086 Si / 1000 Ang^3
#
#
#
# Elastic Constant Matrix: (Units=GPa)
#
#
# Indices 1 2 3 4 5 6 
#
# 1 80.8310 44.4645 41.8477 0.0000 0.0000 0.0000
# 2 44.4645 145.4854 53.5642 0.0000 0.0000 0.0000
# 3 41.8477 53.5642 130.9399 0.0000 0.0000 0.0000
# 4 0.0000 0.0000 0.0000 -67.8418 0.0000 0.0000
# 5 0.0000 0.0000 0.0000 0.0000 18.9283 0.0000
# 6 0.0000 0.0000 0.0000 0.0000 0.0000 26.4831
#
#
#
# Elastic Compliance Matrix: (Units=1/GPa)
#
#
# Indices 1 2 3 4 5 6 
#
# 1 0.016285 -0.003604 -0.003730 0.000000 0.000000 0.000000
# 2 -0.003604 0.008890 -0.002485 0.000000 0.000000 0.000000
# 3 -0.003730 -0.002485 0.009846 0.000000 0.000000 0.000000
# 4 0.000000 0.000000 0.000000 -0.014740 0.000000 0.000000
# 5 0.000000 0.000000 0.000000 0.000000 0.052831 0.000000
# 6 0.000000 0.000000 0.000000 0.000000 0.000000 0.037760
#
#
# Mechanical properties :
#
#
# Convention : Reuss Voigt Hill
#
# Bulk Modulus (GPa) = 65.00814 70.77881 67.89347
# Shear Modulus (GPa) = 36.86304 10.00592 23.43448
#
# Velocity S-wave (km/s) = 4.29291 2.23658 3.42282
# Velocity P-wave (km/s) = 7.55459 6.48494 7.04011
#
# Compressibility (1/GPa) = 0.01538269
#
# Stress axis : x y z
#
# Youngs Moduli (GPa) = 61.40536 112.48816 101.56591
#
# Poissons Ratio (x) = 0.40538 0.37889
# Poissons Ratio (y) = 0.22129 0.25238
# Poissons Ratio (z) = 0.22907 0.27952
#
# Static dielectric constant tensor:
#      x y z
#    x 3.826720 0.000000 0.000000 
#    y 0.000000 1.114400 0.000000 
#    z 0.000000 0.000000 3.748650 
# 
# 
# High freq. dielectric constant tensor:
#      x y z
#    x 1.781380 0.000000 0.000000 
#    y 0.000000 1.780860 0.000000 
#    z 0.000000 0.000000 1.789150 
# 
# From -- ./inp_files/41155.got.cif
#   From: 2010.03.12/outbox.cif.g09.slc.cpg/sg69_21_cif.got.tgz:41155.got - 2010.04.10 23:52:46.
