data_PCOD8285850
_publ_section_title
;
Structure prediction by ZEFSAII (Michael W. Deem and Ramdas Pophale) SiO2 
 PCOD8285850
Probable space group: F D D D
;
_chemical_formula_sum "Si O2"
_cell_formula_units_Z 168
_cell_length_a 24.578368
_cell_length_b 13.752352
_cell_length_c 30.866004
_cell_angle_alpha 90.000000
_cell_angle_beta 90.000000
_cell_angle_gamma 90.000000
_cell_volume 10433.029381
_symmetry_space_group_name_H-M "F D D D"
_symmetry_group_IT_number 70
_space_group.IT_coordinate_system_code '2'
_symmetry_cell_setting 'orthorhombic'
loop_
_space_group_symop_operation_xyz
x,y,z
1/4-x,1/4-y,z
x,1/4-y,1/4-z
1/4-x,y,1/4-z
-x,-y,-z
3/4+x,3/4+y,-z
-x,3/4+y,3/4+z
3/4+x,-y,3/4+z
x,1/2+y,1/2+z
1/4-x,3/4-y,1/2+z
x,3/4-y,3/4-z
1/4-x,1/2+y,3/4-z
-x,1/2-y,1/2-z
3/4+x,1/4+y,1/2-z
-x,1/4+y,1/4+z
3/4+x,1/2-y,1/4+z
1/2+x,y,1/2+z
3/4-x,1/4-y,1/2+z
1/2+x,1/4-y,3/4-z
3/4-x,y,3/4-z
1/2-x,-y,1/2-z
1/4+x,3/4+y,1/2-z
1/2-x,3/4+y,1/4+z
1/4+x,-y,1/4+z
1/2+x,1/2+y,z
3/4-x,3/4-y,z
1/2+x,3/4-y,1/4-z
3/4-x,1/2+y,1/4-z
1/2-x,1/2-y,-z
1/4+x,1/4+y,-z
1/2-x,1/4+y,3/4+z
1/4+x,1/2-y,3/4+z
loop_
_atom_site_type_symbol
_atom_site_label
_atom_site_fract_x
_atom_site_fract_y
_atom_site_fract_z
Si Si1 0.778814 0.036195 0.708211
Si Si2 0.625000 0.125000 0.625000
Si Si3 0.459863 0.777654 0.436262
Si Si4 0.707378 0.180162 0.372747
Si Si5 0.158656 0.984883 0.885143
Si Si6 0.856491 0.765546 0.730772
O O1 0.751241 0.134401 0.692925
O O2 0.750000 0.000000 0.750000
O O3 0.771185 0.953734 0.671201
O O4 0.841163 0.054164 0.723517
O O5 0.589210 0.193928 0.594944
O O6 0.496802 0.697993 0.413034
O O7 0.434170 0.733483 0.480599
O O8 0.653799 0.249622 0.370101
O O9 0.694392 0.067654 0.361984
O O10 0.177310 0.875000 0.875000
O O11 0.173257 0.009918 0.934918
O O12 0.875000 0.875000 0.741667
#
# Coordination Sequence:
#
# PCOD8285850 Si02
#       6
#    32   8  32  32  32  32
#     4  11  17  30  48  69 107 145 164 204 259 323
#     4  12  20  28  48  84 118 140 164 208 280 326
#     4  12  21  32  49  81 117 138 168 219 271 328
#     4  10  19  32  51  77 103 135 177 216 272 308
#     4  10  19  36  56  74  98 141 189 224 255 317
#     4  11  19  32  49  76 108 137 175 211 262 328
#
# _framework density 16.102706000000001
#
# number of rings (size 3 to 8) (size 9 to 14) (size 15 to 20)
#    0.000    1.143    8.571    2.286    0.000    0.000 
#    0.000    0.952    0.000    0.000    0.000    0.667 
#    0.000    0.000    0.000    0.000    0.000    0.000 
#
# Total GULP energy -520357.733854 kJ/mol
# GULP energy per Si atom -12389.469854 kJ/mol
# Density = 1.606606 g / cm^3
# Si number density = 16.102706 Si / 1000 Ang^3
#
#
#
# Elastic Constant Matrix: (Units=GPa)
#
#
# Indices 1 2 3 4 5 6 
#
# 1 90.8890 43.4031 52.9499 0.0000 0.0000 0.0000
# 2 43.4031 91.3702 27.9572 0.0000 0.0000 0.0000
# 3 52.9499 27.9572 83.7030 0.0000 0.0000 0.0000
# 4 0.0000 0.0000 0.0000 17.6739 0.0000 0.0000
# 5 0.0000 0.0000 0.0000 0.0000 35.7516 0.0000
# 6 0.0000 0.0000 0.0000 0.0000 0.0000 22.4375
#
#
#
# Elastic Compliance Matrix: (Units=1/GPa)
#
#
# Indices 1 2 3 4 5 6 
#
# 1 0.020271 -0.006355 -0.010701 0.000000 0.000000 0.000000
# 2 -0.006355 0.014183 -0.000717 0.000000 0.000000 0.000000
# 3 -0.010701 -0.000717 0.018956 0.000000 0.000000 0.000000
# 4 0.000000 0.000000 0.000000 0.056581 0.000000 0.000000
# 5 0.000000 0.000000 0.000000 0.000000 0.027971 0.000000
# 6 0.000000 0.000000 0.000000 0.000000 0.000000 0.044568
#
#
# Mechanical properties :
#
#
# Convention : Reuss Voigt Hill
#
# Bulk Modulus (GPa) = 55.97847 57.17585 56.57716
# Shear Modulus (GPa) = 22.31845 24.61606 23.46726
#
# Velocity S-wave (km/s) = 3.72695 3.91409 3.82167
# Velocity P-wave (km/s) = 7.30473 7.48404 7.39493
#
# Compressibility (1/GPa) = 0.01786401
#
# Stress axis : x y z
#
# Youngs Moduli (GPa) = 49.33068 70.50842 52.75458
#
# Poissons Ratio (x) = 0.44809 0.56452
# Poissons Ratio (y) = 0.31351 0.03782
# Poissons Ratio (z) = 0.52788 0.05054
#
# Static dielectric constant tensor:
#      x y z
#    x 3.144570 0.000000 0.000000 
#    y 0.000000 2.754350 0.000000 
#    z 0.000000 0.000000 3.232290 
# 
# 
# High freq. dielectric constant tensor:
#      x y z
#    x 1.613700 0.000000 0.000000 
#    y 0.000000 1.585300 0.000000 
#    z 0.000000 0.000000 1.625990 
# 
# From -- ./inp_files/29062.got.cif
#   From: 2010.03.12/outbox.cif.g09.slc.cpg/sg70_15_cif.got.tgz:29062.got - 2010.04.16 13:46:32.
