data_PCOD8285556
_publ_section_title
;
Structure prediction by ZEFSAII (Michael W. Deem and Ramdas Pophale) SiO2 
 PCOD8285556
Probable space group: F M M M
;
_chemical_formula_sum "Si O2"
_cell_formula_units_Z 160
_cell_length_a 23.864834
_cell_length_b 23.667256
_cell_length_c 13.575778
_cell_angle_alpha 90.000000
_cell_angle_beta 90.000000
_cell_angle_gamma 90.000000
_cell_volume 7667.804893
_symmetry_space_group_name_H-M "F M M M"
_symmetry_group_IT_number 69
_symmetry_cell_setting 'orthorhombic'
loop_
_space_group_symop_operation_xyz
x,y,z
-x,-y,z
x,-y,-z
-x,y,-z
-x,-y,-z
x,y,-z
-x,y,z
x,-y,z
x,1/2+y,1/2+z
-x,1/2-y,1/2+z
x,1/2-y,1/2-z
-x,1/2+y,1/2-z
-x,1/2-y,1/2-z
x,1/2+y,1/2-z
-x,1/2+y,1/2+z
x,1/2-y,1/2+z
1/2+x,y,1/2+z
1/2-x,-y,1/2+z
1/2+x,-y,1/2-z
1/2-x,y,1/2-z
1/2-x,-y,1/2-z
1/2+x,y,1/2-z
1/2-x,y,1/2+z
1/2+x,-y,1/2+z
1/2+x,1/2+y,z
1/2-x,1/2-y,z
1/2+x,1/2-y,-z
1/2-x,1/2+y,-z
1/2-x,1/2-y,-z
1/2+x,1/2+y,-z
1/2-x,1/2+y,z
1/2+x,1/2-y,z
loop_
_atom_site_type_symbol
_atom_site_label
_atom_site_fract_x
_atom_site_fract_y
_atom_site_fract_z
Si Si1 0.936219 0.342253 0.888576
Si Si2 0.250000 0.606905 0.250000
Si Si3 0.706010 0.199869 0.613266
Si Si4 0.937719 0.566991 0.392277
Si Si5 0.114139 0.250000 0.750000
Si Si6 0.868289 0.435309 0.791006
O O1 0.924175 0.291354 0.814092
O O2 0.894220 0.395242 0.874626
O O3 0.000000 0.362861 0.872686
O O4 0.926923 0.320302 0.000000
O O5 0.265154 0.643869 0.154885
O O6 0.198632 0.567899 0.215700
O O7 0.689296 0.190494 0.500000
O O8 0.750000 0.250000 0.625558
O O9 0.651086 0.212659 0.676399
O O10 0.919877 0.590448 0.500000
O O11 0.938225 0.500000 0.395455
O O12 0.893744 0.588213 0.311802
O O13 0.000000 0.589259 0.365237
O O14 0.885685 0.500000 0.812854
#
# Coordination Sequence:
#
# PCOD8285556 Si02
#       6
#    32  16  32  32  16  32
#     4  11  25  44  68  99 134 170 213 268 326 392
#     4  12  22  40  56  92 132 171 221 268 322 372
#     4  11  21  37  64  94 126 168 216 266 325 395
#     4   8  15  31  56  84 114 152 202 259 314 365
#     4  12  20  44  68  98 126 163 209 270 334 396
#     4  11  23  40  63  90 129 178 223 267 314 379
#
# _framework density 20.866468000000001
#
# number of rings (size 3 to 8) (size 9 to 14) (size 15 to 20)
#    0.000    1.400    4.000    2.400    0.000    4.800 
#    0.000    1.000    0.000    7.200    0.000    0.000 
#    0.000    0.000    0.000    0.000    0.000    0.000 
#
# Total GULP energy -496049.663078 kJ/mol
# GULP energy per Si atom -12401.241577 kJ/mol
# Density = 2.081897 g / cm^3
# Si number density = 20.866468 Si / 1000 Ang^3
#
#
#
# Elastic Constant Matrix: (Units=GPa)
#
#
# Indices 1 2 3 4 5 6 
#
# 1 123.9750 28.0327 47.6988 0.0000 0.0000 0.0000
# 2 28.0327 84.0315 38.6882 0.0000 0.0000 0.0000
# 3 47.6988 38.6882 128.5604 0.0000 0.0000 0.0000
# 4 0.0000 0.0000 0.0000 27.9868 0.0000 0.0000
# 5 0.0000 0.0000 0.0000 0.0000 21.3898 0.0000
# 6 0.0000 0.0000 0.0000 0.0000 0.0000 19.3526
#
#
#
# Elastic Compliance Matrix: (Units=1/GPa)
#
#
# Indices 1 2 3 4 5 6 
#
# 1 0.009644 -0.001822 -0.003030 0.000000 0.000000 0.000000
# 2 -0.001822 0.014159 -0.003585 0.000000 0.000000 0.000000
# 3 -0.003030 -0.003585 0.009981 0.000000 0.000000 0.000000
# 4 0.000000 0.000000 0.000000 0.035731 0.000000 0.000000
# 5 0.000000 0.000000 0.000000 0.000000 0.046751 0.000000
# 6 0.000000 0.000000 0.000000 0.000000 0.000000 0.051673
#
#
# Mechanical properties :
#
#
# Convention : Reuss Voigt Hill
#
# Bulk Modulus (GPa) = 59.13526 62.82293 60.97909
# Shear Modulus (GPa) = 26.25374 28.55564 27.40469
#
# Velocity S-wave (km/s) = 3.55093 3.70333 3.62793
# Velocity P-wave (km/s) = 6.72410 6.96123 6.84369
#
# Compressibility (1/GPa) = 0.01691038
#
# Stress axis : x y z
#
# Youngs Moduli (GPa) = 103.69299 70.62840 100.18748
#
# Poissons Ratio (x) = 0.12871 0.30354
# Poissons Ratio (y) = 0.18896 0.35914
# Poissons Ratio (z) = 0.31416 0.25318
#
# Static dielectric constant tensor:
#      x y z
#    x 3.864450 0.000000 0.000000 
#    y 0.000000 3.496320 0.000000 
#    z 0.000000 0.000000 4.080050 
# 
# 
# High freq. dielectric constant tensor:
#      x y z
#    x 1.822080 0.000000 0.000000 
#    y 0.000000 1.800720 0.000000 
#    z 0.000000 0.000000 1.822280 
# 
# From -- ./inp_files/17817.got.cif
#   From: 2010.03.12/outbox.cif.g09.slc.cpg/sg69_9_cif.got.tgz:17817.got - 2010.04.10 23:52:46.
