data_PCOD8285726
_publ_section_title
;
Structure prediction by ZEFSAII (Michael W. Deem and Ramdas Pophale) SiO2 
 PCOD8285726
Probable space group: F D D D
;
_chemical_formula_sum "Si O2"
_cell_formula_units_Z 160
_cell_length_a 38.999080
_cell_length_b 9.647408
_cell_length_c 24.951166
_cell_angle_alpha 90.000000
_cell_angle_beta 90.000000
_cell_angle_gamma 90.000000
_cell_volume 9387.627604
_symmetry_space_group_name_H-M "F D D D"
_symmetry_group_IT_number 70
_space_group.IT_coordinate_system_code '2'
_symmetry_cell_setting 'orthorhombic'
loop_
_space_group_symop_operation_xyz
x,y,z
1/4-x,1/4-y,z
x,1/4-y,1/4-z
1/4-x,y,1/4-z
-x,-y,-z
3/4+x,3/4+y,-z
-x,3/4+y,3/4+z
3/4+x,-y,3/4+z
x,1/2+y,1/2+z
1/4-x,3/4-y,1/2+z
x,3/4-y,3/4-z
1/4-x,1/2+y,3/4-z
-x,1/2-y,1/2-z
3/4+x,1/4+y,1/2-z
-x,1/4+y,1/4+z
3/4+x,1/2-y,1/4+z
1/2+x,y,1/2+z
3/4-x,1/4-y,1/2+z
1/2+x,1/4-y,3/4-z
3/4-x,y,3/4-z
1/2-x,-y,1/2-z
1/4+x,3/4+y,1/2-z
1/2-x,3/4+y,1/4+z
1/4+x,-y,1/4+z
1/2+x,1/2+y,z
3/4-x,3/4-y,z
1/2+x,3/4-y,1/4-z
3/4-x,1/2+y,1/4-z
1/2-x,1/2-y,-z
1/4+x,1/4+y,-z
1/2-x,1/4+y,3/4+z
1/4+x,1/2-y,3/4+z
loop_
_atom_site_type_symbol
_atom_site_label
_atom_site_fract_x
_atom_site_fract_y
_atom_site_fract_z
Si Si1 0.514722 0.657568 0.683126
Si Si2 0.783642 0.413756 0.541679
Si Si3 0.255808 0.394762 0.816837
Si Si4 0.159564 0.539287 0.377571
Si Si5 0.964436 0.862045 0.545436
O O1 0.531658 0.625000 0.625000
O O2 0.481596 0.562195 0.693162
O O3 0.541875 0.635172 0.731391
O O4 0.499314 0.811996 0.684766
O O5 0.757691 0.301048 0.565657
O O6 0.785114 0.388200 0.477484
O O7 0.821182 0.412353 0.568011
O O8 0.272813 0.375000 0.875000
O O9 0.222029 0.299219 0.807255
O O10 0.125000 0.625000 0.375842
O O11 0.152309 0.375000 0.375000
O O12 0.181257 0.584026 0.325807
#
# Coordination Sequence:
#
# PCOD8285726 Si02
#       5
#    32  32  32  32  32
#     4  10  16  31  53  77 104 131 162 223 270 307
#     4  10  19  32  48  78 108 133 171 209 258 310
#     4  10  18  29  53  79 108 133 160 216 266 310
#     4  12  24  38  53  74 108 144 179 213 249 314
#     4  10  19  30  52  76 104 135 173 207 264 311
#
# _framework density 17.043710000000001
#
# number of rings (size 3 to 8) (size 9 to 14) (size 15 to 20)
#    0.000    1.600    6.000    0.000    2.800    0.000 
#    0.000    0.000    0.000    1.200    0.000    2.800 
#    0.000    0.000    0.000    0.000    0.000    0.000 
#
# Total GULP energy -495811.855080 kJ/mol
# GULP energy per Si atom -12395.296377 kJ/mol
# Density = 1.700492 g / cm^3
# Si number density = 17.043710 Si / 1000 Ang^3
#
#
#
# Elastic Constant Matrix: (Units=GPa)
#
#
# Indices 1 2 3 4 5 6 
#
# 1 79.1875 24.3707 51.3128 0.0000 0.0000 0.0001
# 2 24.3707 60.6273 24.8318 -0.0001 0.0000 0.0001
# 3 51.3128 24.8318 178.5638 0.0000 0.0000 0.0000
# 4 0.0000 -0.0001 0.0000 23.7236 0.0000 0.0000
# 5 0.0000 0.0000 0.0000 0.0000 19.6865 0.0000
# 6 0.0001 0.0001 0.0000 0.0000 0.0000 19.7967
#
#
#
# Elastic Compliance Matrix: (Units=1/GPa)
#
#
# Indices 1 2 3 4 5 6 
#
# 1 0.016879 -0.005088 -0.004143 0.000000 0.000000 0.000000
# 2 -0.005088 0.019024 -0.001183 0.000000 0.000000 0.000000
# 3 -0.004143 -0.001183 0.006955 0.000000 0.000000 0.000000
# 4 0.000000 0.000000 0.000000 0.042152 0.000000 0.000000
# 5 0.000000 0.000000 0.000000 0.000000 0.050796 0.000000
# 6 0.000000 0.000000 0.000000 0.000000 0.000000 0.050513
#
#
# Mechanical properties :
#
#
# Convention : Reuss Voigt Hill
#
# Bulk Modulus (GPa) = 45.39332 57.71211 51.55271
# Shear Modulus (GPa) = 23.31096 27.16559 25.23827
#
# Velocity S-wave (km/s) = 3.70228 3.99667 3.85229
# Velocity P-wave (km/s) = 6.70575 7.43186 7.07812
#
# Compressibility (1/GPa) = 0.02202967
#
# Stress axis : x y z
#
# Youngs Moduli (GPa) = 59.24665 52.56463 143.77541
#
# Poissons Ratio (x) = 0.26745 0.59562
# Poissons Ratio (y) = 0.30145 0.17016
# Poissons Ratio (z) = 0.24544 0.06221
#
# Static dielectric constant tensor:
#      x y z
#    x 2.605920 0.000000 0.000000 
#    y 0.000000 3.433370 0.000000 
#    z 0.000000 0.000000 3.722560 
# 
# 
# High freq. dielectric constant tensor:
#      x y z
#    x 1.578080 0.000000 0.000000 
#    y 0.000000 1.687250 0.000000 
#    z 0.000000 0.000000 1.678250 
# 
# From -- ./inp_files/62139.got.cif
#   From: 2010.03.12/outbox.cif.g09.slc.cpg/sg70_32_cif.got.tgz:62139.got - 2010.04.16 13:46:32.
