data_PCOD8285224
_publ_section_title
;
Structure prediction by ZEFSAII (Michael W. Deem and Ramdas Pophale) SiO2 
 PCOD8285224
Probable space group: F M M M
;
_chemical_formula_sum "Si O2"
_cell_formula_units_Z 192
_cell_length_a 17.551944
_cell_length_b 24.537062
_cell_length_c 22.341315
_cell_angle_alpha 90.000000
_cell_angle_beta 90.000000
_cell_angle_gamma 90.000000
_cell_volume 9621.804241
_symmetry_space_group_name_H-M "F M M M"
_symmetry_group_IT_number 69
_symmetry_cell_setting 'orthorhombic'
loop_
_space_group_symop_operation_xyz
x,y,z
-x,-y,z
x,-y,-z
-x,y,-z
-x,-y,-z
x,y,-z
-x,y,z
x,-y,z
x,1/2+y,1/2+z
-x,1/2-y,1/2+z
x,1/2-y,1/2-z
-x,1/2+y,1/2-z
-x,1/2-y,1/2-z
x,1/2+y,1/2-z
-x,1/2+y,1/2+z
x,1/2-y,1/2+z
1/2+x,y,1/2+z
1/2-x,-y,1/2+z
1/2+x,-y,1/2-z
1/2-x,y,1/2-z
1/2-x,-y,1/2-z
1/2+x,y,1/2-z
1/2-x,y,1/2+z
1/2+x,-y,1/2+z
1/2+x,1/2+y,z
1/2-x,1/2-y,z
1/2+x,1/2-y,-z
1/2-x,1/2+y,-z
1/2-x,1/2-y,-z
1/2+x,1/2+y,-z
1/2-x,1/2+y,z
1/2+x,1/2-y,z
loop_
_atom_site_type_symbol
_atom_site_label
_atom_site_fract_x
_atom_site_fract_y
_atom_site_fract_z
Si Si1 0.588617 0.350918 0.271330
Si Si2 0.087089 0.937135 0.626571
Si Si3 0.087247 0.058507 0.935482
Si Si4 0.799307 0.361544 0.068423
Si Si5 0.164466 0.765926 0.356008
Si Si6 0.350395 0.146724 0.356606
O O1 0.500000 0.342416 0.253564
O O2 0.598670 0.404211 0.312049
O O3 0.618738 0.296326 0.303592
O O4 0.642950 0.361114 0.214527
O O5 0.140728 0.910784 0.575742
O O6 0.000000 0.932256 0.604338
O O7 0.109822 0.000000 0.637199
O O8 0.092310 0.105151 0.886629
O O9 0.000000 0.048457 0.946552
O O10 0.123256 0.000000 0.914381
O O11 0.124729 0.075123 0.000000
O O12 0.837335 0.303216 0.084315
O O13 0.732477 0.369178 0.117291
O O14 0.770246 0.360452 0.000000
O O15 0.250000 0.750000 0.334317
O O16 0.124528 0.708634 0.372605
#
# Coordination Sequence:
#
# PCOD8285224 Si02
#       6
#    32  32  32  32  32  32
#     4  10  21  37  58  87 120 149 186 239 287 333
#     4   9  20  40  63  85 111 147 191 238 290 345
#     4   9  19  35  51  70 102 142 184 230 272 313
#     4  10  22  38  56  83 116 147 186 236 283 331
#     4   9  21  37  56  80 112 149 185 228 282 337
#     4  11  21  33  56  83 110 148 188 223 275 344
#
# _framework density 19.954678000000001
#
# number of rings (size 3 to 8) (size 9 to 14) (size 15 to 20)
#    0.000    2.333    0.000    2.000    0.000   15.667 
#    0.000    3.333    0.000    0.000    0.000    0.000 
#    0.000    0.000    0.000    0.000    0.000    0.000 
#
# Total GULP energy -594809.692204 kJ/mol
# GULP energy per Si atom -12391.868588 kJ/mol
# Density = 1.990926 g / cm^3
# Si number density = 19.954678 Si / 1000 Ang^3
#
#
#
# Elastic Constant Matrix: (Units=GPa)
#
#
# Indices 1 2 3 4 5 6 
#
# 1 68.7166 45.5053 50.1569 0.0000 0.0000 0.0000
# 2 45.5053 160.6082 56.5105 0.0000 0.0000 0.0000
# 3 50.1569 56.5105 119.6879 0.0000 0.0000 0.0000
# 4 0.0000 0.0000 0.0000 127.1763 0.0000 0.0000
# 5 0.0000 0.0000 0.0000 0.0000 17.4258 0.0000
# 6 0.0000 0.0000 0.0000 0.0000 0.0000 32.2361
#
#
#
# Elastic Compliance Matrix: (Units=1/GPa)
#
#
# Indices 1 2 3 4 5 6 
#
# 1 0.022654 -0.003692 -0.007751 0.000000 0.000000 0.000000
# 2 -0.003692 0.008068 -0.002262 0.000000 0.000000 0.000000
# 3 -0.007751 -0.002262 0.012671 0.000000 0.000000 0.000000
# 4 0.000000 0.000000 0.000000 0.007863 0.000000 0.000000
# 5 0.000000 0.000000 0.000000 0.000000 0.057386 0.000000
# 6 0.000000 0.000000 0.000000 0.000000 0.000000 0.031021
#
#
# Mechanical properties :
#
#
# Convention : Reuss Voigt Hill
#
# Bulk Modulus (GPa) = 62.56002 72.59534 67.57768
# Shear Modulus (GPa) = 29.00198 48.49032 38.74615
#
# Velocity S-wave (km/s) = 3.81647 4.93487 4.41126
# Velocity P-wave (km/s) = 7.13020 8.30239 7.73852
#
# Compressibility (1/GPa) = 0.01598465
#
# Stress axis : x y z
#
# Youngs Moduli (GPa) = 44.14142 123.94150 78.91855
#
# Poissons Ratio (x) = 0.45754 0.61167
# Poissons Ratio (y) = 0.16295 0.17855
# Poissons Ratio (z) = 0.34213 0.28041
#
# Static dielectric constant tensor:
#      x y z
#    x 3.575460 0.000000 0.000000 
#    y 0.000000 3.992990 0.000000 
#    z 0.000000 0.000000 3.580450 
# 
# 
# High freq. dielectric constant tensor:
#      x y z
#    x 1.766420 0.000000 0.000000 
#    y 0.000000 1.793820 0.000000 
#    z 0.000000 0.000000 1.764950 
# 
# From -- ./inp_files/32083.got.cif
#   From: 2010.03.12/outbox.cif.g09.slc.cpg/sg69_17_cif.got.tgz:32083.got - 2010.04.10 23:52:46.
