data_PCOD8285923
_publ_section_title
;
Structure prediction by ZEFSAII (Michael W. Deem and Ramdas Pophale) SiO2 
 PCOD8285923
Probable space group: F D D D
;
_chemical_formula_sum "Si O2"
_cell_formula_units_Z 184
_cell_length_a 23.792433
_cell_length_b 30.197128
_cell_length_c 13.142325
_cell_angle_alpha 90.000000
_cell_angle_beta 90.000000
_cell_angle_gamma 90.000000
_cell_volume 9442.276149
_symmetry_space_group_name_H-M "F D D D"
_symmetry_group_IT_number 70
_space_group.IT_coordinate_system_code '2'
_symmetry_cell_setting 'orthorhombic'
loop_
_space_group_symop_operation_xyz
x,y,z
1/4-x,1/4-y,z
x,1/4-y,1/4-z
1/4-x,y,1/4-z
-x,-y,-z
3/4+x,3/4+y,-z
-x,3/4+y,3/4+z
3/4+x,-y,3/4+z
x,1/2+y,1/2+z
1/4-x,3/4-y,1/2+z
x,3/4-y,3/4-z
1/4-x,1/2+y,3/4-z
-x,1/2-y,1/2-z
3/4+x,1/4+y,1/2-z
-x,1/4+y,1/4+z
3/4+x,1/2-y,1/4+z
1/2+x,y,1/2+z
3/4-x,1/4-y,1/2+z
1/2+x,1/4-y,3/4-z
3/4-x,y,3/4-z
1/2-x,-y,1/2-z
1/4+x,3/4+y,1/2-z
1/2-x,3/4+y,1/4+z
1/4+x,-y,1/4+z
1/2+x,1/2+y,z
3/4-x,3/4-y,z
1/2+x,3/4-y,1/4-z
3/4-x,1/2+y,1/4-z
1/2-x,1/2-y,-z
1/4+x,1/4+y,-z
1/2-x,1/4+y,3/4+z
1/4+x,1/2-y,3/4+z
loop_
_atom_site_type_symbol
_atom_site_label
_atom_site_fract_x
_atom_site_fract_y
_atom_site_fract_z
Si Si1 0.693960 0.445267 0.415079
Si Si2 0.639925 0.875000 0.375000
Si Si3 0.633643 0.519500 0.322706
Si Si4 0.125000 0.125000 0.125000
Si Si5 0.795323 0.417043 0.532888
Si Si6 0.507272 0.570814 0.954070
Si Si7 0.168954 0.939550 0.044729
O O1 0.649703 0.406970 0.442764
O O2 0.660294 0.491868 0.416310
O O3 0.742913 0.447177 0.498074
O O4 0.716897 0.433818 0.301426
O O5 0.677586 0.904723 0.451749
O O6 0.584954 0.554224 0.359775
O O7 0.685343 0.545314 0.269931
O O8 0.605129 0.486384 0.242626
O O9 0.165178 0.157353 0.187075
O O10 0.772215 0.371285 0.577300
O O11 0.477482 0.551267 0.853312
O O12 0.125000 0.918499 0.125000
#
# Coordination Sequence:
#
# PCOD8285923 Si02
#       7
#    32  16  32   8  32  32  32
#     4  11  19  32  49  70 110 144 181 220 274 326
#     4  10  19  38  50  77 107 148 186 239 268 328
#     4  11  23  30  49  81 117 143 184 229 277 342
#     4  12  18  28  48  68 112 150 176 202 288 332
#     4  12  20  33  49  76 115 154 177 222 281 340
#     4  12  20  33  50  79 111 153 187 217 278 350
#     4  11  22  34  55  79 110 150 191 232 284 335
#
# _framework density 19.486825
#
# number of rings (size 3 to 8) (size 9 to 14) (size 15 to 20)
#    0.000    0.696    8.696    1.565    3.652    0.000 
#    0.000    0.000    0.000    4.174    0.000    7.304 
#    0.000    0.000    0.000    0.000    0.000    0.000 
#
# Total GULP energy -570049.491240 kJ/mol
# GULP energy per Si atom -12392.380244 kJ/mol
# Density = 1.944247 g / cm^3
# Si number density = 19.486825 Si / 1000 Ang^3
#
#
#
# Elastic Constant Matrix: (Units=GPa)
#
#
# Indices 1 2 3 4 5 6 
#
# 1 97.9593 45.3400 25.7290 0.0000 0.0000 0.0000
# 2 45.3400 112.9365 18.0202 0.0000 0.0000 0.0000
# 3 25.7290 18.0202 34.3187 0.0000 0.0000 0.0000
# 4 0.0000 0.0000 0.0000 19.6762 0.0000 0.0000
# 5 0.0000 0.0000 0.0000 0.0000 23.2596 0.0000
# 6 0.0000 0.0000 0.0000 0.0000 0.0000 38.3119
#
#
#
# Elastic Compliance Matrix: (Units=1/GPa)
#
#
# Indices 1 2 3 4 5 6 
#
# 1 0.014518 -0.004466 -0.008539 0.000000 0.000000 0.000000
# 2 -0.004466 0.011038 -0.002448 0.000000 0.000000 0.000000
# 3 -0.008539 -0.002448 0.036826 0.000000 0.000000 0.000000
# 4 0.000000 0.000000 0.000000 0.050823 0.000000 0.000000
# 5 0.000000 0.000000 0.000000 0.000000 0.042993 0.000000
# 6 0.000000 0.000000 0.000000 0.000000 0.000000 0.026102
#
#
# Mechanical properties :
#
#
# Convention : Reuss Voigt Hill
#
# Bulk Modulus (GPa) = 31.77025 47.04365 39.40695
# Shear Modulus (GPa) = 22.35157 26.65789 24.50473
#
# Velocity S-wave (km/s) = 3.39043 3.70265 3.54997
# Velocity P-wave (km/s) = 5.62721 6.51715 6.08846
#
# Compressibility (1/GPa) = 0.03147599
#
# Stress axis : x y z
#
# Youngs Moduli (GPa) = 68.87873 90.59582 27.15477
#
# Poissons Ratio (x) = 0.40460 0.23189
# Poissons Ratio (y) = 0.30761 0.06647
# Poissons Ratio (z) = 0.58818 0.22175
#
# Static dielectric constant tensor:
#      x y z
#    x 3.832800 0.000000 0.000000 
#    y 0.000000 4.137860 0.000000 
#    z 0.000000 0.000000 2.959240 
# 
# 
# High freq. dielectric constant tensor:
#      x y z
#    x 1.766370 0.000000 0.000000 
#    y 0.000000 1.776980 0.000000 
#    z 0.000000 0.000000 1.674460 
# 
# From -- ./inp_files/37790.got.cif
#   From: 2010.03.12/outbox.cif.g09.slc.cpg/sg70_19_cif.got.tgz:37790.got - 2010.04.16 13:46:32.
