data_PCOD8285124
_publ_section_title
;
Structure prediction by ZEFSAII (Michael W. Deem and Ramdas Pophale) SiO2 
 PCOD8285124
Probable space group: F M M M
;
_chemical_formula_sum "Si O2"
_cell_formula_units_Z 176
_cell_length_a 24.689901
_cell_length_b 14.212203
_cell_length_c 31.504260
_cell_angle_alpha 90.000000
_cell_angle_beta 90.000000
_cell_angle_gamma 90.000000
_cell_volume 11054.778204
_symmetry_space_group_name_H-M "F M M M"
_symmetry_group_IT_number 69
_symmetry_cell_setting 'orthorhombic'
loop_
_space_group_symop_operation_xyz
x,y,z
-x,-y,z
x,-y,-z
-x,y,-z
-x,-y,-z
x,y,-z
-x,y,z
x,-y,z
x,1/2+y,1/2+z
-x,1/2-y,1/2+z
x,1/2-y,1/2-z
-x,1/2+y,1/2-z
-x,1/2-y,1/2-z
x,1/2+y,1/2-z
-x,1/2+y,1/2+z
x,1/2-y,1/2+z
1/2+x,y,1/2+z
1/2-x,-y,1/2+z
1/2+x,-y,1/2-z
1/2-x,y,1/2-z
1/2-x,-y,1/2-z
1/2+x,y,1/2-z
1/2-x,y,1/2+z
1/2+x,-y,1/2+z
1/2+x,1/2+y,z
1/2-x,1/2-y,z
1/2+x,1/2-y,-z
1/2-x,1/2+y,-z
1/2-x,1/2-y,-z
1/2+x,1/2+y,-z
1/2-x,1/2+y,z
1/2+x,1/2-y,z
loop_
_atom_site_type_symbol
_atom_site_label
_atom_site_fract_x
_atom_site_fract_y
_atom_site_fract_z
Si Si1 0.060293 0.202417 0.550561
Si Si2 0.254919 0.890747 0.050034
Si Si3 0.333846 0.761355 0.585529
Si Si4 0.314073 0.250961 0.818759
Si Si5 0.936625 0.500000 0.954227
Si Si6 0.814355 0.604177 0.249463
O O1 0.060630 0.197327 0.500000
O O2 0.105765 0.274730 0.566723
O O3 0.000000 0.232930 0.566185
O O4 0.076821 0.098431 0.569550
O O5 0.306362 0.832819 0.066767
O O6 0.200891 0.853088 0.073163
O O7 0.263167 0.000000 0.061698
O O8 0.248453 0.875045 0.000000
O O9 0.342098 0.753307 0.635790
O O10 0.250000 0.250000 0.825856
O O11 0.333304 0.341612 0.791812
O O12 0.333090 0.158299 0.793053
O O13 0.000000 0.500000 0.963186
O O14 0.906049 0.500000 0.000000
O O15 0.839946 0.500000 0.249299
O O16 0.750000 0.600483 0.250000
#
# Coordination Sequence:
#
# PCOD8285124 Si02
#       6
#    32  32  32  32  16  32
#     4   9  17  29  46  66  90 123 159 195 234 269
#     4  10  21  33  44  62  92 130 161 185 225 279
#     4  11  19  31  47  68  95 121 154 197 233 269
#     4   9  16  28  40  64  92 114 147 183 220 275
#     4   7  12  24  40  60  84 110 145 184 223 269
#     4   8  15  27  44  60  85 119 146 175 220 274
#
# _framework density 15.920717
#
# number of rings (size 3 to 8) (size 9 to 14) (size 15 to 20)
#    0.000    2.818    1.818    4.364    1.273    1.455 
#    0.000    0.000    0.000    0.545    0.000    5.091 
#    0.000    1.455    0.000    0.000    0.000    0.000 
#
# Total GULP energy -545204.402319 kJ/mol
# GULP energy per Si atom -12391.009144 kJ/mol
# Density = 1.588448 g / cm^3
# Si number density = 15.920717 Si / 1000 Ang^3
#
#
#
# Elastic Constant Matrix: (Units=GPa)
#
#
# Indices 1 2 3 4 5 6 
#
# 1 72.6416 16.2175 22.2375 0.0000 0.0000 0.0000
# 2 16.2175 94.7520 34.0095 0.0000 0.0000 0.0000
# 3 22.2375 34.0095 94.5672 0.0000 0.0000 0.0000
# 4 0.0000 0.0000 0.0000 11.7180 0.0000 0.0000
# 5 0.0000 0.0000 0.0000 0.0000 10.3505 0.0000
# 6 0.0000 0.0000 0.0000 0.0000 0.0000 10.0842
#
#
#
# Elastic Compliance Matrix: (Units=1/GPa)
#
#
# Indices 1 2 3 4 5 6 
#
# 1 0.015016 -0.001496 -0.002993 0.000000 0.000000 0.000000
# 2 -0.001496 0.012267 -0.004060 0.000000 0.000000 0.000000
# 3 -0.002993 -0.004060 0.012738 0.000000 0.000000 0.000000
# 4 0.000000 0.000000 0.000000 0.085339 0.000000 0.000000
# 5 0.000000 0.000000 0.000000 0.000000 0.096614 0.000000
# 6 0.000000 0.000000 0.000000 0.000000 0.000000 0.099165
#
#
# Mechanical properties :
#
#
# Convention : Reuss Voigt Hill
#
# Bulk Modulus (GPa) = 43.62211 45.20997 44.41604
# Shear Modulus (GPa) = 14.45593 19.06362 16.75977
#
# Velocity S-wave (km/s) = 3.01656 3.46412 3.24806
# Velocity P-wave (km/s) = 6.29221 6.66774 6.48269
#
# Compressibility (1/GPa) = 0.02292415
#
# Stress axis : x y z
#
# Youngs Moduli (GPa) = 66.59362 81.51872 78.50271
#
# Poissons Ratio (x) = 0.12194 0.23497
# Poissons Ratio (y) = 0.09961 0.31871
# Poissons Ratio (z) = 0.19933 0.33096
#
# Static dielectric constant tensor:
#      x y z
#    x 2.700820 0.000000 0.000000 
#    y 0.000000 3.316470 0.000000 
#    z 0.000000 0.000000 2.954380 
# 
# 
# High freq. dielectric constant tensor:
#      x y z
#    x 1.567490 0.000000 0.000000 
#    y 0.000000 1.606330 0.000000 
#    z 0.000000 0.000000 1.599040 
# 
# From -- ./inp_files/47042.got.cif
#   From: 2010.03.12/outbox.cif.g09.slc.cpg/sg69_24_cif.got.tgz:47042.got - 2010.04.10 23:52:46.
