data_PCOD8285548
_publ_section_title
;
Structure prediction by ZEFSAII (Michael W. Deem and Ramdas Pophale) SiO2 
 PCOD8285548
Probable space group: F M M M
;
_chemical_formula_sum "Si O2"
_cell_formula_units_Z 176
_cell_length_a 26.771191
_cell_length_b 18.220945
_cell_length_c 17.083515
_cell_angle_alpha 90.000000
_cell_angle_beta 90.000000
_cell_angle_gamma 90.000000
_cell_volume 8333.277096
_symmetry_space_group_name_H-M "F M M M"
_symmetry_group_IT_number 69
_symmetry_cell_setting 'orthorhombic'
loop_
_space_group_symop_operation_xyz
x,y,z
-x,-y,z
x,-y,-z
-x,y,-z
-x,-y,-z
x,y,-z
-x,y,z
x,-y,z
x,1/2+y,1/2+z
-x,1/2-y,1/2+z
x,1/2-y,1/2-z
-x,1/2+y,1/2-z
-x,1/2-y,1/2-z
x,1/2+y,1/2-z
-x,1/2+y,1/2+z
x,1/2-y,1/2+z
1/2+x,y,1/2+z
1/2-x,-y,1/2+z
1/2+x,-y,1/2-z
1/2-x,y,1/2-z
1/2-x,-y,1/2-z
1/2+x,y,1/2-z
1/2-x,y,1/2+z
1/2+x,-y,1/2+z
1/2+x,1/2+y,z
1/2-x,1/2-y,z
1/2+x,1/2-y,-z
1/2-x,1/2+y,-z
1/2-x,1/2-y,-z
1/2+x,1/2+y,-z
1/2-x,1/2+y,z
1/2+x,1/2-y,z
loop_
_atom_site_type_symbol
_atom_site_label
_atom_site_fract_x
_atom_site_fract_y
_atom_site_fract_z
Si Si1 0.848919 0.684239 0.089290
Si Si2 0.000000 0.912652 0.913900
Si Si3 0.229681 0.913248 0.335632
Si Si4 0.091981 0.913485 0.185524
Si Si5 0.821701 0.652676 0.587934
Si Si6 0.057376 0.314280 0.812658
O O1 0.823628 0.624866 0.147240
O O2 0.818444 0.759959 0.097555
O O3 0.906605 0.698988 0.113434
O O4 0.848272 0.655717 0.000000
O O5 0.951237 0.882561 0.871053
O O6 0.000000 0.000000 0.914730
O O7 0.000000 0.878862 0.000000
O O8 0.250000 0.891692 0.250000
O O9 0.267294 0.882332 0.400933
O O10 0.222707 0.000000 0.343852
O O11 0.143637 0.881095 0.155109
O O12 0.076900 0.889066 0.272424
O O13 0.096787 0.000000 0.184548
O O14 0.840439 0.632339 0.500000
O O15 0.064084 0.250000 0.750000
O O16 0.000000 0.321382 0.841156
#
# Coordination Sequence:
#
# PCOD8285548 Si02
#       6
#    32  16  32  32  32  32
#     4  11  25  43  65  96 132 172 218 269 329 394
#     4   9  18  32  51  84 129 165 195 250 325 385
#     4  11  25  43  66  96 128 170 222 273 325 383
#     4  11  21  36  60  92 124 162 212 265 321 388
#     4  11  23  40  62  93 130 169 209 258 325 395
#     4  11  23  42  66  92 124 172 219 265 323 386
#
# _framework density 21.120142000000001
#
# number of rings (size 3 to 8) (size 9 to 14) (size 15 to 20)
#    0.000    1.182    2.727    3.273    0.000    8.000 
#    0.000    0.000    0.000    0.000    0.000    2.545 
#    0.000    0.000    0.000    0.000    0.000    0.000 
#
# Total GULP energy -545755.104576 kJ/mol
# GULP energy per Si atom -12403.525104 kJ/mol
# Density = 2.107207 g / cm^3
# Si number density = 21.120142 Si / 1000 Ang^3
#
#
#
# Elastic Constant Matrix: (Units=GPa)
#
#
# Indices 1 2 3 4 5 6 
#
# 1 124.2074 35.4264 30.4530 0.0000 0.0000 0.0000
# 2 35.4264 87.4631 40.6390 0.0000 0.0000 0.0000
# 3 30.4530 40.6390 84.5295 0.0000 0.0000 0.0000
# 4 0.0000 0.0000 0.0000 26.1759 0.0000 0.0000
# 5 0.0000 0.0000 0.0000 0.0000 30.0665 0.0000
# 6 0.0000 0.0000 0.0000 0.0000 0.0000 29.7016
#
#
#
# Elastic Compliance Matrix: (Units=1/GPa)
#
#
# Indices 1 2 3 4 5 6 
#
# 1 0.009357 -0.002863 -0.001994 0.000000 0.000000 0.000000
# 2 -0.002863 0.015598 -0.006468 0.000000 0.000000 0.000000
# 3 -0.001994 -0.006468 0.015658 0.000000 0.000000 0.000000
# 4 0.000000 0.000000 0.000000 0.038203 0.000000 0.000000
# 5 0.000000 0.000000 0.000000 0.000000 0.033260 0.000000
# 6 0.000000 0.000000 0.000000 0.000000 0.000000 0.033668
#
#
# Mechanical properties :
#
#
# Convention : Reuss Voigt Hill
#
# Bulk Modulus (GPa) = 55.67098 56.58189 56.12643
# Shear Modulus (GPa) = 28.67273 29.83425 29.25349
#
# Velocity S-wave (km/s) = 3.68856 3.76253 3.72573
# Velocity P-wave (km/s) = 6.67511 6.76196 6.71868
#
# Compressibility (1/GPa) = 0.01796268
#
# Stress axis : x y z
#
# Youngs Moduli (GPa) = 106.87574 64.10980 63.86467
#
# Poissons Ratio (x) = 0.18356 0.12737
# Poissons Ratio (y) = 0.30601 0.41305
# Poissons Ratio (z) = 0.21315 0.41464
#
# Static dielectric constant tensor:
#      x y z
#    x 3.956620 0.000000 0.000000 
#    y 0.000000 3.721560 0.000000 
#    z 0.000000 0.000000 3.857970 
# 
# 
# High freq. dielectric constant tensor:
#      x y z
#    x 1.837510 0.000000 0.000000 
#    y 0.000000 1.822840 0.000000 
#    z 0.000000 0.000000 1.821490 
# 
# From -- ./inp_files/26769.got.cif
#   From: 2010.03.12/outbox.cif.g09.slc.cpg/sg69_14_cif.got.tgz:26769.got - 2010.04.10 23:52:46.
