data_PCOD8285163
_publ_section_title
;
Structure prediction by ZEFSAII (Michael W. Deem and Ramdas Pophale) SiO2 
 PCOD8285163
Probable space group: F M M M
;
_chemical_formula_sum "Si O2"
_cell_formula_units_Z 112
_cell_length_a 10.045508
_cell_length_b 20.346378
_cell_length_c 29.011009
_cell_angle_alpha 90.000000
_cell_angle_beta 90.000000
_cell_angle_gamma 90.000000
_cell_volume 5929.551512
_symmetry_space_group_name_H-M "F M M M"
_symmetry_group_IT_number 69
_symmetry_cell_setting 'orthorhombic'
loop_
_space_group_symop_operation_xyz
x,y,z
-x,-y,z
x,-y,-z
-x,y,-z
-x,-y,-z
x,y,-z
-x,y,z
x,-y,z
x,1/2+y,1/2+z
-x,1/2-y,1/2+z
x,1/2-y,1/2-z
-x,1/2+y,1/2-z
-x,1/2-y,1/2-z
x,1/2+y,1/2-z
-x,1/2+y,1/2+z
x,1/2-y,1/2+z
1/2+x,y,1/2+z
1/2-x,-y,1/2+z
1/2+x,-y,1/2-z
1/2-x,y,1/2-z
1/2-x,-y,1/2-z
1/2+x,y,1/2-z
1/2-x,y,1/2+z
1/2+x,-y,1/2+z
1/2+x,1/2+y,z
1/2-x,1/2-y,z
1/2+x,1/2-y,-z
1/2-x,1/2+y,-z
1/2-x,1/2-y,-z
1/2+x,1/2+y,-z
1/2-x,1/2+y,z
1/2+x,1/2-y,z
loop_
_atom_site_type_symbol
_atom_site_label
_atom_site_fract_x
_atom_site_fract_y
_atom_site_fract_z
Si Si1 0.265856 0.875437 0.090454
Si Si2 0.352992 0.190536 0.000000
Si Si3 0.000000 0.290374 0.202602
Si Si4 0.000000 0.425896 0.550193
Si Si5 0.000000 0.924184 0.345176
Si Si6 0.750000 0.750000 0.354289
O O1 0.132149 0.915029 0.080196
O O2 0.368000 0.914229 0.123650
O O3 0.210671 0.810075 0.113799
O O4 0.340868 0.856946 0.043710
O O5 0.250000 0.250000 0.000000
O O6 0.500000 0.222331 0.000000
O O7 0.000000 0.250000 0.250000
O O8 0.000000 0.371595 0.198383
O O9 0.871971 0.265867 0.177347
O O10 0.000000 0.500000 0.535970
O O11 0.000000 0.387239 0.500000
O O12 0.000000 0.000000 0.326689
#
# Coordination Sequence:
#
# PCOD8285163 Si02
#       6
#    32  16  16  16  16  16
#     4  11  21  37  55  82 121 156 204 249 293 347
#     4  12  24  34  53  84 122 162 209 255 306 338
#     4  10  21  39  64  89 115 142 187 244 310 375
#     4  11  23  34  49  75 112 166 210 244 278 323
#     4  10  22  40  62  85 119 158 197 244 299 374
#     4  10  21  35  60  88 110 146 186 241 311 348
#
# _framework density 18.888444
#
# number of rings (size 3 to 8) (size 9 to 14) (size 15 to 20)
#    0.000    1.286    4.286    2.143    2.000    0.000 
#    0.000    0.714    0.000   17.143    0.000    0.000 
#    0.000    0.000    0.000    0.000    0.000    0.000 
#
# Total GULP energy -346908.061047 kJ/mol
# GULP energy per Si atom -12389.573609 kJ/mol
# Density = 1.884545 g / cm^3
# Si number density = 18.888444 Si / 1000 Ang^3
#
#
#
# Elastic Constant Matrix: (Units=GPa)
#
#
# Indices 1 2 3 4 5 6 
#
# 1 137.3685 43.9037 22.3897 0.0000 0.0000 0.0000
# 2 43.9037 128.9931 53.3935 0.0000 0.0000 0.0000
# 3 22.3897 53.3935 92.5971 0.0000 0.0000 0.0000
# 4 0.0000 0.0000 0.0000 30.7088 0.0000 0.0000
# 5 0.0000 0.0000 0.0000 0.0000 -15.4628 0.0000
# 6 0.0000 0.0000 0.0000 0.0000 0.0000 25.3457
#
#
#
# Elastic Compliance Matrix: (Units=1/GPa)
#
#
# Indices 1 2 3 4 5 6 
#
# 1 0.008185 -0.002583 -0.000490 0.000000 0.000000 0.000000
# 2 -0.002583 0.010998 -0.005717 0.000000 0.000000 0.000000
# 3 -0.000490 -0.005717 0.014214 0.000000 0.000000 0.000000
# 4 0.000000 0.000000 0.000000 0.032564 0.000000 0.000000
# 5 0.000000 0.000000 0.000000 0.000000 -0.064671 0.000000
# 6 0.000000 0.000000 0.000000 0.000000 0.000000 0.039454
#
#
# Mechanical properties :
#
#
# Convention : Reuss Voigt Hill
#
# Bulk Modulus (GPa) = 63.21995 66.48138 64.85066
# Shear Modulus (GPa) = 78.62013 24.06979 51.34496
#
# Velocity S-wave (km/s) = 6.45862 3.57363 5.21941
# Velocity P-wave (km/s) = 9.44252 7.23194 8.41018
#
# Compressibility (1/GPa) = 0.01581779
#
# Stress axis : x y z
#
# Youngs Moduli (GPa) = 122.17331 90.92562 70.35099
#
# Poissons Ratio (x) = 0.23488 0.03444
# Poissons Ratio (y) = 0.31560 0.40220
# Poissons Ratio (z) = 0.05982 0.51983
#
# Static dielectric constant tensor:
#      x y z
#    x 3.508490 0.000000 0.000000 
#    y 0.000000 3.119740 0.000000 
#    z 0.000000 0.000000 3.716530 
# 
# 
# High freq. dielectric constant tensor:
#      x y z
#    x 1.754890 0.000000 0.000000 
#    y 0.000000 1.730800 0.000000 
#    z 0.000000 0.000000 1.718620 
# 
# From -- ./inp_files/3851.got.cif
#   From: 2010.03.12/outbox.cif.g09.slc.cpg/sg69_2_cif.got.tgz:3851.got - 2010.04.10 23:52:46.
