data_PCOD8286962
_publ_section_title
;
Structure prediction by ZEFSAII (Michael W. Deem and Ramdas Pophale) SiO2 
 PCOD8286962
Probable space group: I M M M
;
_chemical_formula_sum "Si O2"
_cell_formula_units_Z 80
_cell_length_a 18.952383
_cell_length_b 9.395676
_cell_length_c 33.107238
_cell_angle_alpha 90.000000
_cell_angle_beta 90.000000
_cell_angle_gamma 90.000000
_cell_volume 5895.420772
_symmetry_space_group_name_H-M "I M M M"
_symmetry_group_IT_number 71
_symmetry_cell_setting 'orthorhombic'
loop_
_space_group_symop_operation_xyz
x,y,z
-x,-y,z
x,-y,-z
-x,y,-z
-x,-y,-z
x,y,-z
-x,y,z
x,-y,z
1/2+x,1/2+y,1/2+z
1/2-x,1/2-y,1/2+z
1/2+x,1/2-y,1/2-z
1/2-x,1/2+y,1/2-z
1/2-x,1/2-y,1/2-z
1/2+x,1/2+y,1/2-z
1/2-x,1/2+y,1/2+z
1/2+x,1/2-y,1/2+z
loop_
_atom_site_type_symbol
_atom_site_label
_atom_site_fract_x
_atom_site_fract_y
_atom_site_fract_z
Si Si1 0.000000 0.164458 0.752068
Si Si2 0.728627 0.333855 0.811868
Si Si3 0.856944 0.664437 0.625341
Si Si4 0.500000 0.841047 0.827651
Si Si5 0.921069 0.331204 0.455513
Si Si6 0.653340 0.664244 0.271218
O O1 0.000000 0.237531 0.709430
O O2 0.929320 0.202780 0.777101
O O3 0.000000 0.000000 0.741129
O O4 0.739575 0.500000 0.819848
O O5 0.700704 0.261366 0.852610
O O6 0.674456 0.304257 0.775249
O O7 0.804074 0.265103 0.801376
O O8 0.832489 0.500000 0.627779
O O9 0.866036 0.719352 0.579012
O O10 0.932496 0.687023 0.645210
O O11 0.500000 0.000000 0.810058
O O12 0.893087 0.284890 0.500000
O O13 0.926838 0.500000 0.452424
O O14 0.000000 0.268329 0.448708
O O15 0.669589 0.500000 0.281830
#
# Coordination Sequence:
#
# PCOD8286962 Si02
#       6
#     8  16  16   8  16  16
#     4  10  18  30  44  57  75 101 131 165 204 238
#     4  10  19  29  41  56  77 104 132 162 199 237
#     4  10  17  26  40  58  79 103 134 170 203 233
#     4  10  18  24  35  58  80 100 132 169 201 232
#     4   8  13  22  37  57  79 102 131 167 202 233
#     4   9  18  30  42  56  76 100 129 164 200 236
#
# _framework density 13.569853999999999
#
# number of rings (size 3 to 8) (size 9 to 14) (size 15 to 20)
#    0.000    2.600    3.000    1.200    0.000    1.600 
#    0.000    0.000    0.000    0.600    0.000    1.400 
#    0.000    0.000    0.000    0.900    0.000   20.600 
#
# Total GULP energy -495801.871090 kJ/mol
# GULP energy per Si atom -12395.046777 kJ/mol
# Density = 1.353897 g / cm^3
# Si number density = 13.569854 Si / 1000 Ang^3
#
#
#
# Elastic Constant Matrix: (Units=GPa)
#
#
# Indices 1 2 3 4 5 6 
#
# 1 86.9607 43.0468 47.9976 0.0000 0.0000 0.0000
# 2 43.0468 54.7357 43.2495 0.0000 0.0000 0.0000
# 3 47.9976 43.2495 97.9854 0.0000 0.0000 0.0000
# 4 0.0000 0.0000 0.0000 13.5049 0.0000 0.0000
# 5 0.0000 0.0000 0.0000 0.0000 21.4896 0.0000
# 6 0.0000 0.0000 0.0000 0.0000 0.0000 20.9521
#
#
#
# Elastic Compliance Matrix: (Units=1/GPa)
#
#
# Indices 1 2 3 4 5 6 
#
# 1 0.019983 -0.012255 -0.004379 0.000000 0.000000 0.000000
# 2 -0.012255 0.035570 -0.009697 0.000000 0.000000 0.000000
# 3 -0.004379 -0.009697 0.016631 0.000000 0.000000 0.000000
# 4 0.000000 0.000000 0.000000 0.074047 0.000000 0.000000
# 5 0.000000 0.000000 0.000000 0.000000 0.046534 0.000000
# 6 0.000000 0.000000 0.000000 0.000000 0.000000 0.047728
#
#
# Mechanical properties :
#
#
# Convention : Reuss Voigt Hill
#
# Bulk Modulus (GPa) = 51.22742 56.47439 53.85091
# Shear Modulus (GPa) = 16.68542 18.21519 17.45030
#
# Velocity S-wave (km/s) = 3.51036 3.66775 3.58992
# Velocity P-wave (km/s) = 7.36634 7.72298 7.54677
#
# Compressibility (1/GPa) = 0.01952080
#
# Stress axis : x y z
#
# Youngs Moduli (GPa) = 50.04205 28.11369 60.12938
#
# Poissons Ratio (x) = 0.34455 0.26332
# Poissons Ratio (y) = 0.61329 0.58306
# Poissons Ratio (z) = 0.21915 0.27261
#
# Static dielectric constant tensor:
#      x y z
#    x 2.658100 0.000000 0.000000 
#    y 0.000000 2.600060 0.000000 
#    z 0.000000 0.000000 2.754020 
# 
# 
# High freq. dielectric constant tensor:
#      x y z
#    x 1.495480 0.000000 0.000000 
#    y 0.000000 1.506960 0.000000 
#    z 0.000000 0.000000 1.493920 
# 
# From -- ./inp_files/11299.got.cif
#   From: 2010.06.25/outbox.cif.g09.slc.cpg/sg71_6_cif.got.tgz:11299.got - 2010.06.28 04:59:45.
