data_PCOD8286283
_publ_section_title
;
Structure prediction by ZEFSAII (Michael W. Deem and Ramdas Pophale) SiO2 
 PCOD8286283
Probable space group: F D D D
;
_chemical_formula_sum "Si O2"
_cell_formula_units_Z 160
_cell_length_a 28.137419
_cell_length_b 12.889799
_cell_length_c 21.999876
_cell_angle_alpha 90.000000
_cell_angle_beta 90.000000
_cell_angle_gamma 90.000000
_cell_volume 7979.039883
_symmetry_space_group_name_H-M "F D D D"
_symmetry_group_IT_number 70
_space_group.IT_coordinate_system_code '2'
_symmetry_cell_setting 'orthorhombic'
loop_
_space_group_symop_operation_xyz
x,y,z
1/4-x,1/4-y,z
x,1/4-y,1/4-z
1/4-x,y,1/4-z
-x,-y,-z
3/4+x,3/4+y,-z
-x,3/4+y,3/4+z
3/4+x,-y,3/4+z
x,1/2+y,1/2+z
1/4-x,3/4-y,1/2+z
x,3/4-y,3/4-z
1/4-x,1/2+y,3/4-z
-x,1/2-y,1/2-z
3/4+x,1/4+y,1/2-z
-x,1/4+y,1/4+z
3/4+x,1/2-y,1/4+z
1/2+x,y,1/2+z
3/4-x,1/4-y,1/2+z
1/2+x,1/4-y,3/4-z
3/4-x,y,3/4-z
1/2-x,-y,1/2-z
1/4+x,3/4+y,1/2-z
1/2-x,3/4+y,1/4+z
1/4+x,-y,1/4+z
1/2+x,1/2+y,z
3/4-x,3/4-y,z
1/2+x,3/4-y,1/4-z
3/4-x,1/2+y,1/4-z
1/2-x,1/2-y,-z
1/4+x,1/4+y,-z
1/2-x,1/4+y,3/4+z
1/4+x,1/2-y,3/4+z
loop_
_atom_site_type_symbol
_atom_site_label
_atom_site_fract_x
_atom_site_fract_y
_atom_site_fract_z
Si Si1 0.248382 0.289208 0.194784
Si Si2 0.459342 0.676832 0.227823
Si Si3 0.261649 0.538283 0.078845
Si Si4 0.822093 0.898554 0.644530
Si Si5 0.571323 0.392057 0.644801
O O1 0.264086 0.169328 0.196392
O O2 0.242250 0.337628 0.261808
O O3 0.292695 0.350928 0.167453
O O4 0.202061 0.307376 0.151547
O O5 0.500000 0.750000 0.250000
O O6 0.428367 0.741035 0.179312
O O7 0.426739 0.648402 0.285711
O O8 0.281273 0.625000 0.125000
O O9 0.299093 0.445036 0.066811
O O10 0.211343 0.495563 0.104962
O O11 0.875000 0.875000 0.625568
O O12 0.625000 0.418424 0.625000
#
# Coordination Sequence:
#
# PCOD8286283 Si02
#       5
#    32  32  32  32  32
#     4  10  21  42  64  87 129 162 199 255 322 356
#     4  11  20  39  64  87 127 159 200 263 310 364
#     4  10  23  44  64  86 126 170 204 259 300 368
#     4  11  24  39  62  96 123 161 211 252 312 374
#     4  10  23  39  63  97 120 163 212 250 310 367
#
# _framework density 20.052537000000001
#
# number of rings (size 3 to 8) (size 9 to 14) (size 15 to 20)
#    0.000    1.600    6.000    0.600    2.800    5.200 
#   10.800    1.000    0.000    0.000    0.000    0.000 
#    0.000    0.000    0.000    0.000    0.000    0.000 
#
# Total GULP energy -495751.876658 kJ/mol
# GULP energy per Si atom -12393.796916 kJ/mol
# Density = 2.000690 g / cm^3
# Si number density = 20.052537 Si / 1000 Ang^3
#
#
#
# Elastic Constant Matrix: (Units=GPa)
#
#
# Indices 1 2 3 4 5 6 
#
# 1 116.8811 7.6194 17.2560 0.0000 0.0000 0.0000
# 2 7.6194 62.0930 30.0492 0.0000 0.0000 0.0000
# 3 17.2560 30.0492 124.9712 0.0000 0.0000 0.0000
# 4 0.0000 0.0000 0.0000 36.3207 0.0000 0.0000
# 5 0.0000 0.0000 0.0000 0.0000 21.6230 0.0000
# 6 0.0000 0.0000 0.0000 0.0000 0.0000 15.3906
#
#
#
# Elastic Compliance Matrix: (Units=1/GPa)
#
#
# Indices 1 2 3 4 5 6 
#
# 1 0.008751 -0.000553 -0.001075 0.000000 0.000000 0.000000
# 2 -0.000553 0.018261 -0.004314 0.000000 0.000000 0.000000
# 3 -0.001075 -0.004314 0.009188 0.000000 0.000000 0.000000
# 4 0.000000 0.000000 0.000000 0.027533 0.000000 0.000000
# 5 0.000000 0.000000 0.000000 0.000000 0.046247 0.000000
# 6 0.000000 0.000000 0.000000 0.000000 0.000000 0.064975
#
#
# Mechanical properties :
#
#
# Convention : Reuss Voigt Hill
#
# Bulk Modulus (GPa) = 41.13042 45.97718 43.55380
# Shear Modulus (GPa) = 25.64846 31.26823 28.45835
#
# Velocity S-wave (km/s) = 3.58028 3.95310 3.77130
# Velocity P-wave (km/s) = 6.13572 6.61923 6.38205
#
# Compressibility (1/GPa) = 0.02431290
#
# Stress axis : x y z
#
# Youngs Moduli (GPa) = 114.27889 54.76257 108.84139
#
# Poissons Ratio (x) = 0.03031 0.11703
# Poissons Ratio (y) = 0.06325 0.46958
# Poissons Ratio (z) = 0.12287 0.23626
#
# Static dielectric constant tensor:
#      x y z
#    x 1.444260 0.000000 0.000000 
#    y 0.000000 7.284220 0.000000 
#    z 0.000000 0.000000 3.398050 
# 
# 
# High freq. dielectric constant tensor:
#      x y z
#    x 1.763860 0.000000 0.000000 
#    y 0.000000 1.776370 0.000000 
#    z 0.000000 0.000000 1.796600 
# 
# From -- ./inp_files/19505.got.cif
#   From: 2010.03.12/outbox.cif.g09.slc.cpg/sg70_10_cif.got.tgz:19505.got - 2010.04.16 13:46:32.
