data_PCOD8286385
_publ_section_title
;
Structure prediction by ZEFSAII (Michael W. Deem and Ramdas Pophale) SiO2 
 PCOD8286385
Probable space group: F D D D
;
_chemical_formula_sum "Si O2"
_cell_formula_units_Z 216
_cell_length_a 20.432325
_cell_length_b 18.955134
_cell_length_c 26.892311
_cell_angle_alpha 90.000000
_cell_angle_beta 90.000000
_cell_angle_gamma 90.000000
_cell_volume 10415.323698
_symmetry_space_group_name_H-M "F D D D"
_symmetry_group_IT_number 70
_space_group.IT_coordinate_system_code '2'
_symmetry_cell_setting 'orthorhombic'
loop_
_space_group_symop_operation_xyz
x,y,z
1/4-x,1/4-y,z
x,1/4-y,1/4-z
1/4-x,y,1/4-z
-x,-y,-z
3/4+x,3/4+y,-z
-x,3/4+y,3/4+z
3/4+x,-y,3/4+z
x,1/2+y,1/2+z
1/4-x,3/4-y,1/2+z
x,3/4-y,3/4-z
1/4-x,1/2+y,3/4-z
-x,1/2-y,1/2-z
3/4+x,1/4+y,1/2-z
-x,1/4+y,1/4+z
3/4+x,1/2-y,1/4+z
1/2+x,y,1/2+z
3/4-x,1/4-y,1/2+z
1/2+x,1/4-y,3/4-z
3/4-x,y,3/4-z
1/2-x,-y,1/2-z
1/4+x,3/4+y,1/2-z
1/2-x,3/4+y,1/4+z
1/4+x,-y,1/4+z
1/2+x,1/2+y,z
3/4-x,3/4-y,z
1/2+x,3/4-y,1/4-z
3/4-x,1/2+y,1/4-z
1/2-x,1/2-y,-z
1/4+x,1/4+y,-z
1/2-x,1/4+y,3/4+z
1/4+x,1/2-y,3/4+z
loop_
_atom_site_type_symbol
_atom_site_label
_atom_site_fract_x
_atom_site_fract_y
_atom_site_fract_z
Si Si1 0.280913 0.948312 0.451563
Si Si2 0.625000 0.125000 0.880049
Si Si3 0.932552 0.987864 0.691532
Si Si4 0.048760 0.257312 0.633020
Si Si5 0.483970 0.184555 0.216633
Si Si6 0.498939 0.644494 0.439259
Si Si7 0.625000 0.125000 0.625000
Si Si8 0.106033 0.869975 0.933083
O O1 0.329744 0.918816 0.411270
O O2 0.213975 0.902272 0.455355
O O3 0.309620 0.945844 0.507081
O O4 0.277361 0.027572 0.431159
O O5 0.641405 0.191467 0.846426
O O6 0.570343 0.147845 0.917955
O O7 0.888320 0.056978 0.702381
O O8 0.004778 0.000508 0.667067
O O9 0.125000 0.247291 0.625000
O O10 0.040977 0.333593 0.660079
O O11 0.028005 0.190963 0.667486
O O12 0.500000 0.250000 0.250000
O O13 0.499140 0.116194 0.250526
O O14 0.408301 0.189521 0.199168
O O15 0.097346 0.875000 0.875000
#
# Coordination Sequence:
#
# PCOD8286385 Si02
#       8
#    32  16  32  32  32  32   8  32
#     4  12  27  46  74  98 138 184 237 302 361 416
#     4  10  23  44  66  97 135 176 238 275 348 420
#     4  11  24  44  69 100 135 181 235 286 350 427
#     4  10  23  40  65 104 146 177 222 287 345 420
#     4  10  22  41  65 102 140 174 228 274 332 430
#     4  10  23  41  69  99 135 187 224 284 338 432
#     4  12  30  52  64 108 136 176 258 312 348 420
#     4  12  23  46  71  99 138 186 225 288 359 418
#
# _framework density 20.738674
#
# number of rings (size 3 to 8) (size 9 to 14) (size 15 to 20)
#    0.000    1.185    3.704    1.333    9.333    0.000 
#    2.667    2.222    0.000    0.000    0.000    0.000 
#    0.000    0.000    0.000    0.000    0.000    0.000 
#
# Total GULP energy -669158.406871 kJ/mol
# GULP energy per Si atom -12391.822349 kJ/mol
# Density = 2.069147 g / cm^3
# Si number density = 20.738674 Si / 1000 Ang^3
#
#
#
# Elastic Constant Matrix: (Units=GPa)
#
#
# Indices 1 2 3 4 5 6 
#
# 1 158.0018 54.0745 63.4867 0.0000 0.0000 0.0000
# 2 54.0745 96.8895 35.2972 0.0000 0.0000 0.0000
# 3 63.4867 35.2972 136.5813 0.0000 0.0000 0.0000
# 4 0.0000 0.0000 0.0000 25.2337 0.0000 0.0000
# 5 0.0000 0.0000 0.0000 0.0000 36.7302 0.0000
# 6 0.0000 0.0000 0.0000 0.0000 0.0000 -48.4984
#
#
#
# Elastic Compliance Matrix: (Units=1/GPa)
#
#
# Indices 1 2 3 4 5 6 
#
# 1 0.008903 -0.003821 -0.003151 0.000000 0.000000 0.000000
# 2 -0.003821 0.013034 -0.001592 0.000000 0.000000 0.000000
# 3 -0.003151 -0.001592 0.009198 0.000000 0.000000 0.000000
# 4 0.000000 0.000000 0.000000 0.039630 0.000000 0.000000
# 5 0.000000 0.000000 0.000000 0.000000 0.027226 0.000000
# 6 0.000000 0.000000 0.000000 0.000000 0.000000 -0.020619
#
#
# Mechanical properties :
#
#
# Convention : Reuss Voigt Hill
#
# Bulk Modulus (GPa) = 71.39705 77.46549 74.43127
# Shear Modulus (GPa) = 50.42032 18.60069 34.51051
#
# Velocity S-wave (km/s) = 4.93609 2.99809 4.08372
# Velocity P-wave (km/s) = 8.18465 7.02986 7.62913
#
# Compressibility (1/GPa) = 0.01400618
#
# Stress axis : x y z
#
# Youngs Moduli (GPa) = 112.32561 76.72523 108.72255
#
# Poissons Ratio (x) = 0.29315 0.34256
# Poissons Ratio (y) = 0.42917 0.17312
# Poissons Ratio (z) = 0.35391 0.12217
#
# Static dielectric constant tensor:
#      x y z
#    x 3.940580 0.000000 0.000000 
#    y 0.000000 4.016660 0.000000 
#    z 0.000000 0.000000 3.583140 
# 
# 
# High freq. dielectric constant tensor:
#      x y z
#    x 1.809420 0.000000 0.000000 
#    y 0.000000 1.817660 0.000000 
#    z 0.000000 0.000000 1.828300 
# 
# From -- ./inp_files/60518.got.cif
#   From: 2010.03.12/outbox.cif.g09.slc.cpg/sg70_31_cif.got.tgz:60518.got - 2010.04.16 13:46:32.
