data_PCOD8286133
_publ_section_title
;
Structure prediction by ZEFSAII (Michael W. Deem and Ramdas Pophale) SiO2 
 PCOD8286133
Probable space group: F D D D
;
_chemical_formula_sum "Si O2"
_cell_formula_units_Z 192
_cell_length_a 21.676442
_cell_length_b 14.572287
_cell_length_c 29.970470
_cell_angle_alpha 90.000000
_cell_angle_beta 90.000000
_cell_angle_gamma 90.000000
_cell_volume 9466.932220
_symmetry_space_group_name_H-M "F D D D"
_symmetry_group_IT_number 70
_space_group.IT_coordinate_system_code '2'
_symmetry_cell_setting 'orthorhombic'
loop_
_space_group_symop_operation_xyz
x,y,z
1/4-x,1/4-y,z
x,1/4-y,1/4-z
1/4-x,y,1/4-z
-x,-y,-z
3/4+x,3/4+y,-z
-x,3/4+y,3/4+z
3/4+x,-y,3/4+z
x,1/2+y,1/2+z
1/4-x,3/4-y,1/2+z
x,3/4-y,3/4-z
1/4-x,1/2+y,3/4-z
-x,1/2-y,1/2-z
3/4+x,1/4+y,1/2-z
-x,1/4+y,1/4+z
3/4+x,1/2-y,1/4+z
1/2+x,y,1/2+z
3/4-x,1/4-y,1/2+z
1/2+x,1/4-y,3/4-z
3/4-x,y,3/4-z
1/2-x,-y,1/2-z
1/4+x,3/4+y,1/2-z
1/2-x,3/4+y,1/4+z
1/4+x,-y,1/4+z
1/2+x,1/2+y,z
3/4-x,3/4-y,z
1/2+x,3/4-y,1/4-z
3/4-x,1/2+y,1/4-z
1/2-x,1/2-y,-z
1/4+x,1/4+y,-z
1/2-x,1/4+y,3/4+z
1/4+x,1/2-y,3/4+z
loop_
_atom_site_type_symbol
_atom_site_label
_atom_site_fract_x
_atom_site_fract_y
_atom_site_fract_z
Si Si1 0.306843 0.720902 0.529992
Si Si2 0.649527 0.832520 0.673709
Si Si3 0.675833 0.758970 0.762924
Si Si4 0.799616 0.516564 0.445323
Si Si5 0.765123 0.929277 0.638586
Si Si6 0.625000 0.125000 0.919954
Si Si7 0.125000 0.625000 0.515182
O O1 0.250000 0.750000 0.500000
O O2 0.322891 0.615398 0.525644
O O3 0.297971 0.744441 0.581686
O O4 0.363063 0.785523 0.514673
O O5 0.625000 0.798636 0.625000
O O6 0.654007 0.750747 0.710807
O O7 0.605929 0.910304 0.696281
O O8 0.719912 0.867040 0.668765
O O9 0.743115 0.710704 0.770465
O O10 0.627198 0.712707 0.796855
O O11 0.776009 0.513265 0.395205
O O12 0.819432 0.410781 0.453816
O O13 0.814722 0.867286 0.611628
#
# Coordination Sequence:
#
# PCOD8286133 Si02
#       7
#    32  32  32  32  32  16  16
#     4  12  21  36  62  92 128 165 209 272 338 401
#     4  10  20  40  65  92 127 165 217 275 325 389
#     4  11  22  42  62  92 129 174 220 266 339 397
#     4  10  21  34  58  91 129 161 205 263 334 403
#     4  10  21  40  56  93 127 169 208 270 333 394
#     4  10  25  42  63  87 132 183 217 268 315 404
#     4  12  19  34  59  93 120 163 200 260 336 398
#
# _framework density 20.281122
#
# number of rings (size 3 to 8) (size 9 to 14) (size 15 to 20)
#    0.000    1.333    5.000    0.500    0.000    2.667 
#    6.000    7.917    0.000    0.000    0.000    0.000 
#    0.000    0.000    0.000    0.000    0.000    0.000 
#
# Total GULP energy -594759.732918 kJ/mol
# GULP energy per Si atom -12390.827769 kJ/mol
# Density = 2.023496 g / cm^3
# Si number density = 20.281122 Si / 1000 Ang^3
#
#
#
# Elastic Constant Matrix: (Units=GPa)
#
#
# Indices 1 2 3 4 5 6 
#
# 1 96.1725 43.1264 50.5928 0.0000 0.0000 0.0000
# 2 43.1264 79.9604 41.2890 0.0000 0.0000 0.0000
# 3 50.5928 41.2890 131.2222 0.0000 0.0000 0.0000
# 4 0.0000 0.0000 0.0000 40.4796 0.0000 0.0000
# 5 0.0000 0.0000 0.0000 0.0000 31.1360 0.0000
# 6 0.0000 0.0000 0.0000 0.0000 0.0000 30.9897
#
#
#
# Elastic Compliance Matrix: (Units=1/GPa)
#
#
# Indices 1 2 3 4 5 6 
#
# 1 0.015241 -0.006192 -0.003928 0.000000 0.000000 0.000000
# 2 -0.006192 0.017448 -0.003103 0.000000 0.000000 0.000000
# 3 -0.003928 -0.003103 0.010111 0.000000 0.000000 0.000000
# 4 0.000000 0.000000 0.000000 0.024704 0.000000 0.000000
# 5 0.000000 0.000000 0.000000 0.000000 0.032117 0.000000
# 6 0.000000 0.000000 0.000000 0.000000 0.000000 0.032269
#
#
# Mechanical properties :
#
#
# Convention : Reuss Voigt Hill
#
# Bulk Modulus (GPa) = 61.14259 64.15240 62.64749
# Shear Modulus (GPa) = 30.52753 32.01085 31.26919
#
# Velocity S-wave (km/s) = 3.88392 3.97716 3.93082
# Velocity P-wave (km/s) = 7.09409 7.26572 7.18042
#
# Compressibility (1/GPa) = 0.01635521
#
# Stress axis : x y z
#
# Youngs Moduli (GPa) = 65.61278 57.31340 98.89912
#
# Poissons Ratio (x) = 0.35488 0.38846
# Poissons Ratio (y) = 0.40627 0.30685
# Poissons Ratio (z) = 0.25772 0.17782
#
# Static dielectric constant tensor:
#      x y z
#    x 4.014170 0.000000 0.000000 
#    y 0.000000 3.520790 0.000000 
#    z 0.000000 0.000000 4.108640 
# 
# 
# High freq. dielectric constant tensor:
#      x y z
#    x 1.797520 0.000000 0.000000 
#    y 0.000000 1.749950 0.000000 
#    z 0.000000 0.000000 1.811310 
# 
# From -- ./inp_files/55121.got.cif
#   From: 2010.03.12/outbox.cif.g09.slc.cpg/sg70_28_cif.got.tgz:55121.got - 2010.04.16 13:46:32.
