data_PCOD8286199
_publ_section_title
;
Structure prediction by ZEFSAII (Michael W. Deem and Ramdas Pophale) SiO2 
 PCOD8286199
Probable space group: F D D D
;
_chemical_formula_sum "Si O2"
_cell_formula_units_Z 176
_cell_length_a 16.060095
_cell_length_b 23.366855
_cell_length_c 21.439269
_cell_angle_alpha 90.000000
_cell_angle_beta 90.000000
_cell_angle_gamma 90.000000
_cell_volume 8045.598330
_symmetry_space_group_name_H-M "F D D D"
_symmetry_group_IT_number 70
_space_group.IT_coordinate_system_code '2'
_symmetry_cell_setting 'orthorhombic'
loop_
_space_group_symop_operation_xyz
x,y,z
1/4-x,1/4-y,z
x,1/4-y,1/4-z
1/4-x,y,1/4-z
-x,-y,-z
3/4+x,3/4+y,-z
-x,3/4+y,3/4+z
3/4+x,-y,3/4+z
x,1/2+y,1/2+z
1/4-x,3/4-y,1/2+z
x,3/4-y,3/4-z
1/4-x,1/2+y,3/4-z
-x,1/2-y,1/2-z
3/4+x,1/4+y,1/2-z
-x,1/4+y,1/4+z
3/4+x,1/2-y,1/4+z
1/2+x,y,1/2+z
3/4-x,1/4-y,1/2+z
1/2+x,1/4-y,3/4-z
3/4-x,y,3/4-z
1/2-x,-y,1/2-z
1/4+x,3/4+y,1/2-z
1/2-x,3/4+y,1/4+z
1/4+x,-y,1/4+z
1/2+x,1/2+y,z
3/4-x,3/4-y,z
1/2+x,3/4-y,1/4-z
3/4-x,1/2+y,1/4-z
1/2-x,1/2-y,-z
1/4+x,1/4+y,-z
1/2-x,1/4+y,3/4+z
1/4+x,1/2-y,3/4+z
loop_
_atom_site_type_symbol
_atom_site_label
_atom_site_fract_x
_atom_site_fract_y
_atom_site_fract_z
Si Si1 0.629359 0.400742 0.009279
Si Si2 0.865307 0.749334 0.092169
Si Si3 0.125000 0.235286 0.625000
Si Si4 0.242284 0.443590 0.032386
Si Si5 0.721475 0.925432 0.327488
Si Si6 0.546451 0.993280 0.659326
O O1 0.541446 0.371004 0.027124
O O2 0.671144 0.431615 0.067775
O O3 0.611729 0.447528 0.956796
O O4 0.694123 0.350046 0.989458
O O5 0.910873 0.727988 0.155148
O O6 0.772449 0.769750 0.106774
O O7 0.916636 0.803119 0.064159
O O8 0.070938 0.270620 0.575737
O O9 0.182976 0.195740 0.580736
O O10 0.253553 0.469089 0.962941
O O11 0.705436 0.875000 0.375000
O O12 0.625000 0.024630 0.625000
#
# Coordination Sequence:
#
# PCOD8286199 Si02
#       6
#    32  32  16  32  32  32
#     4  10  21  39  67  92 129 177 219 274 329 399
#     4   9  20  42  65  91 129 173 218 272 329 393
#     4  10  21  36  64  98 134 170 218 285 338 392
#     4  10  22  41  66  94 131 175 220 273 337 394
#     4   9  17  35  64  90 125 169 220 266 327 406
#     4  11  24  43  65  94 132 172 221 280 330 389
#
# _framework density 21.875313999999999
#
# number of rings (size 3 to 8) (size 9 to 14) (size 15 to 20)
#    0.000    2.182    1.818    1.364    1.273    3.636 
#    0.000    6.364    0.000    0.000    0.000    0.000 
#    0.000    0.000    0.000    0.000    0.000    0.000 
#
# Total GULP energy -545284.528091 kJ/mol
# GULP energy per Si atom -12392.830184 kJ/mol
# Density = 2.182553 g / cm^3
# Si number density = 21.875314 Si / 1000 Ang^3
#
#
#
# Elastic Constant Matrix: (Units=GPa)
#
#
# Indices 1 2 3 4 5 6 
#
# 1 173.2189 48.7687 59.0385 0.0000 0.0000 0.0000
# 2 48.7687 80.8314 28.7477 0.0000 0.0000 0.0000
# 3 59.0385 28.7477 88.8758 0.0000 0.0000 0.0000
# 4 0.0000 0.0000 0.0000 10.0022 0.0000 0.0000
# 5 0.0000 0.0000 0.0000 0.0000 46.1851 0.0000
# 6 0.0000 0.0000 0.0000 0.0000 0.0000 38.0891
#
#
#
# Elastic Compliance Matrix: (Units=1/GPa)
#
#
# Indices 1 2 3 4 5 6 
#
# 1 0.008217 -0.003409 -0.004356 0.000000 0.000000 0.000000
# 2 -0.003409 0.015394 -0.002715 0.000000 0.000000 0.000000
# 3 -0.004356 -0.002715 0.015024 0.000000 0.000000 0.000000
# 4 0.000000 0.000000 0.000000 0.099978 0.000000 0.000000
# 5 0.000000 0.000000 0.000000 0.000000 0.021652 0.000000
# 6 0.000000 0.000000 0.000000 0.000000 0.000000 0.026254
#
#
# Mechanical properties :
#
#
# Convention : Reuss Voigt Hill
#
# Bulk Modulus (GPa) = 56.57653 68.44842 62.51248
# Shear Modulus (GPa) = 23.43348 32.61335 28.02342
#
# Velocity S-wave (km/s) = 3.27651 3.86537 3.58306
# Velocity P-wave (km/s) = 6.34298 7.16098 6.76436
#
# Compressibility (1/GPa) = 0.01767517
#
# Stress axis : x y z
#
# Youngs Moduli (GPa) = 121.69253 64.96230 66.56236
#
# Poissons Ratio (x) = 0.22143 0.28995
# Poissons Ratio (y) = 0.41481 0.18071
# Poissons Ratio (z) = 0.53011 0.17637
#
# Static dielectric constant tensor:
#      x y z
#    x 4.129040 0.000000 0.000000 
#    y 0.000000 3.745240 0.000000 
#    z 0.000000 0.000000 4.062450 
# 
# 
# High freq. dielectric constant tensor:
#      x y z
#    x 1.868920 0.000000 0.000000 
#    y 0.000000 1.835640 0.000000 
#    z 0.000000 0.000000 1.859030 
# 
# From -- ./inp_files/28756.got.cif
#   From: 2010.03.12/outbox.cif.g09.slc.cpg/sg70_15_cif.got.tgz:28756.got - 2010.04.16 13:46:32.
