data_PCOD8286755
_publ_section_title
;
Structure prediction by ZEFSAII (Michael W. Deem and Ramdas Pophale) SiO2 
 PCOD8286755
Probable space group: F D D D
;
_chemical_formula_sum "Si O2"
_cell_formula_units_Z 176
_cell_length_a 21.222113
_cell_length_b 22.910247
_cell_length_c 16.811968
_cell_angle_alpha 90.000000
_cell_angle_beta 90.000000
_cell_angle_gamma 90.000000
_cell_volume 8174.043579
_symmetry_space_group_name_H-M "F D D D"
_symmetry_group_IT_number 70
_space_group.IT_coordinate_system_code '2'
_symmetry_cell_setting 'orthorhombic'
loop_
_space_group_symop_operation_xyz
x,y,z
1/4-x,1/4-y,z
x,1/4-y,1/4-z
1/4-x,y,1/4-z
-x,-y,-z
3/4+x,3/4+y,-z
-x,3/4+y,3/4+z
3/4+x,-y,3/4+z
x,1/2+y,1/2+z
1/4-x,3/4-y,1/2+z
x,3/4-y,3/4-z
1/4-x,1/2+y,3/4-z
-x,1/2-y,1/2-z
3/4+x,1/4+y,1/2-z
-x,1/4+y,1/4+z
3/4+x,1/2-y,1/4+z
1/2+x,y,1/2+z
3/4-x,1/4-y,1/2+z
1/2+x,1/4-y,3/4-z
3/4-x,y,3/4-z
1/2-x,-y,1/2-z
1/4+x,3/4+y,1/2-z
1/2-x,3/4+y,1/4+z
1/4+x,-y,1/4+z
1/2+x,1/2+y,z
3/4-x,3/4-y,z
1/2+x,3/4-y,1/4-z
3/4-x,1/2+y,1/4-z
1/2-x,1/2-y,-z
1/4+x,1/4+y,-z
1/2-x,1/4+y,3/4+z
1/4+x,1/2-y,3/4+z
loop_
_atom_site_type_symbol
_atom_site_label
_atom_site_fract_x
_atom_site_fract_y
_atom_site_fract_z
Si Si1 0.625000 0.360701 0.125000
Si Si2 0.725704 0.751009 0.273917
Si Si3 0.258141 0.050852 0.814123
Si Si4 0.697213 0.641433 0.709104
Si Si5 0.339074 0.540801 0.762166
Si Si6 0.022032 0.058663 0.108701
O O1 0.668717 0.316490 0.075633
O O2 0.667225 0.402857 0.180852
O O3 0.723274 0.712530 0.353247
O O4 0.788125 0.790860 0.278919
O O5 0.660635 0.786973 0.268599
O O6 0.738143 0.713303 0.197005
O O7 0.226193 0.109087 0.783599
O O8 0.250000 0.000000 0.750000
O O9 0.625000 0.625000 0.705083
O O10 0.729660 0.625000 0.625000
O O11 0.293863 0.553124 0.687869
O O12 0.322803 0.480644 0.809937
O O13 0.045019 0.125000 0.125000
#
# Coordination Sequence:
#
# PCOD8286755 Si02
#       6
#    16  32  32  32  32  32
#     4  12  24  50  71  99 150 190 240 304 368 436
#     4  12  25  45  71 105 143 188 241 298 365 439
#     4  12  27  42  71 104 136 189 238 295 358 428
#     4  11  25  47  69  98 144 187 237 298 358 430
#     4  11  24  47  74  99 146 193 237 297 376 437
#     4  11  25  45  72 108 140 187 242 300 357 436
#
# _framework density 21.531571
#
# number of rings (size 3 to 8) (size 9 to 14) (size 15 to 20)
#    0.000    0.545    5.455    1.091    5.091    5.091 
#    0.000    0.000    0.000    0.000    0.000    0.000 
#    0.000    0.000    0.000    0.000    0.000    0.000 
#
# Total GULP energy -545549.244100 kJ/mol
# GULP energy per Si atom -12398.846457 kJ/mol
# Density = 2.148256 g / cm^3
# Si number density = 21.531571 Si / 1000 Ang^3
#
#
#
# Elastic Constant Matrix: (Units=GPa)
#
#
# Indices 1 2 3 4 5 6 
#
# 1 106.9886 43.0187 42.5168 0.0000 0.0000 0.0000
# 2 43.0187 113.7416 51.3311 0.0000 0.0000 0.0000
# 3 42.5168 51.3311 162.5550 0.0000 0.0000 0.0000
# 4 0.0000 0.0000 0.0000 54.4084 0.0000 0.0000
# 5 0.0000 0.0000 0.0000 0.0000 20.8907 0.0000
# 6 0.0000 0.0000 0.0000 0.0000 0.0000 38.4819
#
#
#
# Elastic Compliance Matrix: (Units=1/GPa)
#
#
# Indices 1 2 3 4 5 6 
#
# 1 0.011509 -0.003492 -0.001908 0.000000 0.000000 0.000000
# 2 -0.003492 0.011313 -0.002659 0.000000 0.000000 0.000000
# 3 -0.001908 -0.002659 0.007490 0.000000 0.000000 0.000000
# 4 0.000000 0.000000 0.000000 0.018380 0.000000 0.000000
# 5 0.000000 0.000000 0.000000 0.000000 0.047868 0.000000
# 6 0.000000 0.000000 0.000000 0.000000 0.000000 0.025986
#
#
# Mechanical properties :
#
#
# Convention : Reuss Voigt Hill
#
# Bulk Modulus (GPa) = 70.44754 73.00205 71.72479
# Shear Modulus (GPa) = 34.86896 39.18411 37.02653
#
# Velocity S-wave (km/s) = 4.02858 4.27059 4.15135
# Velocity P-wave (km/s) = 7.37757 7.63515 7.50747
#
# Compressibility (1/GPa) = 0.01419496
#
# Stress axis : x y z
#
# Youngs Moduli (GPa) = 86.88924 88.39762 133.50612
#
# Poissons Ratio (x) = 0.30868 0.25466
# Poissons Ratio (y) = 0.30342 0.35498
# Poissons Ratio (z) = 0.16574 0.23504
#
# Static dielectric constant tensor:
#      x y z
#    x 3.702730 0.000000 0.000000 
#    y 0.000000 4.081330 0.000000 
#    z 0.000000 0.000000 4.339980 
# 
# 
# High freq. dielectric constant tensor:
#      x y z
#    x 1.841130 0.000000 0.000000 
#    y 0.000000 1.855160 0.000000 
#    z 0.000000 0.000000 1.865820 
# 
# From -- ./inp_files/28761.got.cif
#   From: 2010.03.12/outbox.cif.g09.slc.cpg/sg70_15_cif.got.tgz:28761.got - 2010.04.16 13:46:32.
