data_PCOD8286342
_publ_section_title
;
Structure prediction by ZEFSAII (Michael W. Deem and Ramdas Pophale) SiO2 
 PCOD8286342
Probable space group: F D D D
;
_chemical_formula_sum "Si O2"
_cell_formula_units_Z 176
_cell_length_a 14.209497
_cell_length_b 24.073932
_cell_length_c 22.415284
_cell_angle_alpha 90.000000
_cell_angle_beta 90.000000
_cell_angle_gamma 90.000000
_cell_volume 7667.785933
_symmetry_space_group_name_H-M "F D D D"
_symmetry_group_IT_number 70
_space_group.IT_coordinate_system_code '2'
_symmetry_cell_setting 'orthorhombic'
loop_
_space_group_symop_operation_xyz
x,y,z
1/4-x,1/4-y,z
x,1/4-y,1/4-z
1/4-x,y,1/4-z
-x,-y,-z
3/4+x,3/4+y,-z
-x,3/4+y,3/4+z
3/4+x,-y,3/4+z
x,1/2+y,1/2+z
1/4-x,3/4-y,1/2+z
x,3/4-y,3/4-z
1/4-x,1/2+y,3/4-z
-x,1/2-y,1/2-z
3/4+x,1/4+y,1/2-z
-x,1/4+y,1/4+z
3/4+x,1/2-y,1/4+z
1/2+x,y,1/2+z
3/4-x,1/4-y,1/2+z
1/2+x,1/4-y,3/4-z
3/4-x,y,3/4-z
1/2-x,-y,1/2-z
1/4+x,3/4+y,1/2-z
1/2-x,3/4+y,1/4+z
1/4+x,-y,1/4+z
1/2+x,1/2+y,z
3/4-x,3/4-y,z
1/2+x,3/4-y,1/4-z
3/4-x,1/2+y,1/4-z
1/2-x,1/2-y,-z
1/4+x,1/4+y,-z
1/2-x,1/4+y,3/4+z
1/4+x,1/2-y,3/4+z
loop_
_atom_site_type_symbol
_atom_site_label
_atom_site_fract_x
_atom_site_fract_y
_atom_site_fract_z
Si Si1 0.533005 0.375000 0.375000
Si Si2 0.432767 0.567486 0.055414
Si Si3 0.621974 0.965149 0.054960
Si Si4 0.707445 0.587266 0.008957
Si Si5 0.345457 0.012948 0.312424
Si Si6 0.807029 0.328595 0.992320
O O1 0.594763 0.323544 0.400551
O O2 0.471424 0.348886 0.323331
O O3 0.490012 0.511666 0.070605
O O4 0.491550 0.624707 0.058875
O O5 0.399533 0.561432 0.986400
O O6 0.625000 0.977547 0.125000
O O7 0.719520 0.934308 0.040105
O O8 0.615024 0.021690 0.016490
O O9 0.532402 0.927848 0.035839
O O10 0.625000 0.625000 0.978198
O O11 0.665337 0.536550 0.045573
O O12 0.375000 0.040203 0.375000
O O13 0.875000 0.375000 0.021524
#
# Coordination Sequence:
#
# PCOD8286342 Si02
#       6
#    16  32  32  32  32  32
#     4  12  21  42  73  92 134 182 231 292 325 426
#     4  10  22  39  62 102 127 173 226 265 343 411
#     4  11  25  45  69 101 136 179 235 286 344 407
#     4  10  22  42  66  98 135 174 217 278 350 413
#     4  10  22  39  65  97 135 168 216 279 348 400
#     4  11  26  45  69 101 134 187 236 283 339 414
#
# _framework density 22.95317
#
# number of rings (size 3 to 8) (size 9 to 14) (size 15 to 20)
#    0.000    1.455    1.818    2.455    5.091    4.000 
#    0.000    0.000    0.000    0.000    0.000    0.000 
#    0.000    0.000    0.000    0.000    0.000    0.000 
#
# Total GULP energy -545636.972359 kJ/mol
# GULP energy per Si atom -12400.840281 kJ/mol
# Density = 2.290093 g / cm^3
# Si number density = 22.953170 Si / 1000 Ang^3
#
#
#
# Elastic Constant Matrix: (Units=GPa)
#
#
# Indices 1 2 3 4 5 6 
#
# 1 109.8058 41.8739 31.4158 0.0000 0.0000 0.0000
# 2 41.8739 72.2964 2.9249 0.0000 0.0000 0.0000
# 3 31.4158 2.9249 83.7155 0.0000 0.0000 0.0000
# 4 0.0000 0.0000 0.0000 27.8880 0.0000 0.0000
# 5 0.0000 0.0000 0.0000 0.0000 24.1403 0.0000
# 6 0.0000 0.0000 0.0000 0.0000 0.0000 18.9236
#
#
#
# Elastic Compliance Matrix: (Units=1/GPa)
#
#
# Indices 1 2 3 4 5 6 
#
# 1 0.013336 -0.007532 -0.004741 0.000000 0.000000 0.000000
# 2 -0.007532 0.018106 0.002194 0.000000 0.000000 0.000000
# 3 -0.004741 0.002194 0.013648 0.000000 0.000000 0.000000
# 4 0.000000 0.000000 0.000000 0.035858 0.000000 0.000000
# 5 0.000000 0.000000 0.000000 0.000000 0.041425 0.000000
# 6 0.000000 0.000000 0.000000 0.000000 0.000000 0.052844
#
#
# Mechanical properties :
#
#
# Convention : Reuss Voigt Hill
#
# Bulk Modulus (GPa) = 40.11171 46.47187 43.29179
# Shear Modulus (GPa) = 24.54767 26.83059 25.68913
#
# Velocity S-wave (km/s) = 3.27382 3.42267 3.34907
# Velocity P-wave (km/s) = 5.63950 5.99248 5.81867
#
# Compressibility (1/GPa) = 0.02493037
#
# Stress axis : x y z
#
# Youngs Moduli (GPa) = 74.98544 55.23064 73.27155
#
# Poissons Ratio (x) = 0.41601 0.34741
# Poissons Ratio (y) = 0.56481 -0.16076
# Poissons Ratio (z) = 0.35554 -0.12118
#
# Static dielectric constant tensor:
#      x y z
#    x 4.373830 0.000000 0.000000 
#    y 0.000000 4.213700 0.000000 
#    z 0.000000 0.000000 3.882320 
# 
# 
# High freq. dielectric constant tensor:
#      x y z
#    x 1.917670 0.000000 0.000000 
#    y 0.000000 1.905710 0.000000 
#    z 0.000000 0.000000 1.885040 
# 
# From -- ./inp_files/30010.got.cif
#   From: 2010.03.12/outbox.cif.g09.slc.cpg/sg70_16_cif.got.tgz:30010.got - 2010.04.16 13:46:32.
