data_PCOD8286123
_publ_section_title
;
Structure prediction by ZEFSAII (Michael W. Deem and Ramdas Pophale) SiO2 
 PCOD8286123
Probable space group: F D D D
;
_chemical_formula_sum "Si O2"
_cell_formula_units_Z 176
_cell_length_a 14.843772
_cell_length_b 21.754565
_cell_length_c 27.422114
_cell_angle_alpha 90.000000
_cell_angle_beta 90.000000
_cell_angle_gamma 90.000000
_cell_volume 8855.143646
_symmetry_space_group_name_H-M "F D D D"
_symmetry_group_IT_number 70
_space_group.IT_coordinate_system_code '2'
_symmetry_cell_setting 'orthorhombic'
loop_
_space_group_symop_operation_xyz
x,y,z
1/4-x,1/4-y,z
x,1/4-y,1/4-z
1/4-x,y,1/4-z
-x,-y,-z
3/4+x,3/4+y,-z
-x,3/4+y,3/4+z
3/4+x,-y,3/4+z
x,1/2+y,1/2+z
1/4-x,3/4-y,1/2+z
x,3/4-y,3/4-z
1/4-x,1/2+y,3/4-z
-x,1/2-y,1/2-z
3/4+x,1/4+y,1/2-z
-x,1/4+y,1/4+z
3/4+x,1/2-y,1/4+z
1/2+x,y,1/2+z
3/4-x,1/4-y,1/2+z
1/2+x,1/4-y,3/4-z
3/4-x,y,3/4-z
1/2-x,-y,1/2-z
1/4+x,3/4+y,1/2-z
1/2-x,3/4+y,1/4+z
1/4+x,-y,1/4+z
1/2+x,1/2+y,z
3/4-x,3/4-y,z
1/2+x,3/4-y,1/4-z
3/4-x,1/2+y,1/4-z
1/2-x,1/2-y,-z
1/4+x,1/4+y,-z
1/2-x,1/4+y,3/4+z
1/4+x,1/2-y,3/4+z
loop_
_atom_site_type_symbol
_atom_site_label
_atom_site_fract_x
_atom_site_fract_y
_atom_site_fract_z
Si Si1 0.163878 0.398032 0.733940
Si Si2 0.021181 0.139331 0.071920
Si Si3 0.250379 0.470025 0.546145
Si Si4 0.625000 0.968315 0.125000
Si Si5 0.651125 0.258355 0.020607
Si Si6 0.519922 0.134647 0.860427
O O1 0.220022 0.404217 0.783588
O O2 0.084476 0.447891 0.735629
O O3 0.123909 0.329920 0.730297
O O4 0.227707 0.414344 0.688143
O O5 0.125000 0.125000 0.069414
O O6 0.980466 0.125000 0.125000
O O7 0.008955 0.210113 0.060808
O O8 0.338108 0.464450 0.512016
O O9 0.258018 0.429838 0.594393
O O10 0.610907 0.011504 0.077401
O O11 0.533546 0.927965 0.128317
O O12 0.750000 0.250000 0.000000
O O13 0.625000 0.125000 0.850503
#
# Coordination Sequence:
#
# PCOD8286123 Si02
#       6
#    32  32  32  16  32  32
#     4  10  22  41  59  93 123 159 219 257 306 400
#     4  10  24  42  58  88 130 167 206 260 327 381
#     4  11  22  39  65  92 124 167 207 266 323 369
#     4  10  20  40  58  93 131 156 224 268 294 416
#     4  10  21  39  63  92 129 161 209 269 325 376
#     4  11  20  36  67  93 121 160 215 264 317 367
#
# _framework density 19.875454000000001
#
# number of rings (size 3 to 8) (size 9 to 14) (size 15 to 20)
#    0.000    1.636    3.636    1.636    5.091    0.727 
#   16.364    0.000    0.000    1.091    0.000    0.000 
#    0.000    0.000    0.000    0.000    0.000    0.000 
#
# Total GULP energy -545577.688825 kJ/mol
# GULP energy per Si atom -12399.492928 kJ/mol
# Density = 1.983022 g / cm^3
# Si number density = 19.875454 Si / 1000 Ang^3
#
#
#
# Elastic Constant Matrix: (Units=GPa)
#
#
# Indices 1 2 3 4 5 6 
#
# 1 159.5685 29.4091 84.4904 0.0000 0.0000 0.0000
# 2 29.4091 45.9351 42.6423 0.0000 0.0000 0.0000
# 3 84.4904 42.6423 208.9535 0.0000 0.0000 0.0000
# 4 0.0000 0.0000 0.0000 33.1491 0.0000 0.0000
# 5 0.0000 0.0000 0.0000 0.0000 39.5630 0.0000
# 6 0.0000 0.0000 0.0000 0.0000 0.0000 11.4874
#
#
#
# Elastic Compliance Matrix: (Units=1/GPa)
#
#
# Indices 1 2 3 4 5 6 
#
# 1 0.008235 -0.002691 -0.002781 0.000000 0.000000 0.000000
# 2 -0.002691 0.027737 -0.004572 0.000000 0.000000 0.000000
# 3 -0.002781 -0.004572 0.006843 0.000000 0.000000 0.000000
# 4 0.000000 0.000000 0.000000 0.030167 0.000000 0.000000
# 5 0.000000 0.000000 0.000000 0.000000 0.025276 0.000000
# 6 0.000000 0.000000 0.000000 0.000000 0.000000 0.087052
#
#
# Mechanical properties :
#
#
# Convention : Reuss Voigt Hill
#
# Bulk Modulus (GPa) = 43.99954 80.83786 62.41870
# Shear Modulus (GPa) = 23.47691 34.03424 28.75557
#
# Velocity S-wave (km/s) = 3.44059 4.14258 3.80779
# Velocity P-wave (km/s) = 6.16192 7.97758 7.12780
#
# Compressibility (1/GPa) = 0.02272751
#
# Stress axis : x y z
#
# Youngs Moduli (GPa) = 121.42900 36.05240 146.12909
#
# Poissons Ratio (x) = 0.09702 0.40635
# Poissons Ratio (y) = 0.32677 0.66816
# Poissons Ratio (z) = 0.33766 0.16485
#
# Static dielectric constant tensor:
#      x y z
#    x 4.018620 0.000000 0.000000 
#    y 0.000000 2.988330 0.000000 
#    z 0.000000 0.000000 4.305260 
# 
# 
# High freq. dielectric constant tensor:
#      x y z
#    x 1.787010 0.000000 0.000000 
#    y 0.000000 1.747440 0.000000 
#    z 0.000000 0.000000 1.796760 
# 
# From -- ./inp_files/58585.got.cif
#   From: 2010.03.12/outbox.cif.g09.slc.cpg/sg70_30_cif.got.tgz:58585.got - 2010.04.16 13:46:32.
