data_PCOD8286026
_publ_section_title
;
Structure prediction by ZEFSAII (Michael W. Deem and Ramdas Pophale) SiO2 
 PCOD8286026
Probable space group: F D D D
;
_chemical_formula_sum "Si O2"
_cell_formula_units_Z 208
_cell_length_a 18.834430
_cell_length_b 32.361379
_cell_length_c 16.582233
_cell_angle_alpha 90.000000
_cell_angle_beta 90.000000
_cell_angle_gamma 90.000000
_cell_volume 10107.005785
_symmetry_space_group_name_H-M "F D D D"
_symmetry_group_IT_number 70
_space_group.IT_coordinate_system_code '2'
_symmetry_cell_setting 'orthorhombic'
loop_
_space_group_symop_operation_xyz
x,y,z
1/4-x,1/4-y,z
x,1/4-y,1/4-z
1/4-x,y,1/4-z
-x,-y,-z
3/4+x,3/4+y,-z
-x,3/4+y,3/4+z
3/4+x,-y,3/4+z
x,1/2+y,1/2+z
1/4-x,3/4-y,1/2+z
x,3/4-y,3/4-z
1/4-x,1/2+y,3/4-z
-x,1/2-y,1/2-z
3/4+x,1/4+y,1/2-z
-x,1/4+y,1/4+z
3/4+x,1/2-y,1/4+z
1/2+x,y,1/2+z
3/4-x,1/4-y,1/2+z
1/2+x,1/4-y,3/4-z
3/4-x,y,3/4-z
1/2-x,-y,1/2-z
1/4+x,3/4+y,1/2-z
1/2-x,3/4+y,1/4+z
1/4+x,-y,1/4+z
1/2+x,1/2+y,z
3/4-x,3/4-y,z
1/2+x,3/4-y,1/4-z
3/4-x,1/2+y,1/4-z
1/2-x,1/2-y,-z
1/4+x,1/4+y,-z
1/2-x,1/4+y,3/4+z
1/4+x,1/2-y,3/4+z
loop_
_atom_site_type_symbol
_atom_site_label
_atom_site_fract_x
_atom_site_fract_y
_atom_site_fract_z
Si Si1 0.573431 0.390029 0.962457
Si Si2 0.625000 0.006573 0.625000
Si Si3 0.309983 0.043634 0.522272
Si Si4 0.061211 0.940296 0.685653
Si Si5 0.461082 0.793698 0.247837
Si Si6 0.336739 0.464806 0.122056
Si Si7 0.343274 0.471255 0.464774
O O1 0.549203 0.375000 0.875000
O O2 0.647685 0.414276 0.961101
O O3 0.515391 0.418843 0.004596
O O4 0.581163 0.349291 0.014026
O O5 0.578079 0.041360 0.582438
O O6 0.667292 0.977211 0.562788
O O7 0.227097 0.056877 0.522900
O O8 0.324005 0.012283 0.596333
O O9 0.125000 0.946107 0.625000
O O10 0.982419 0.936781 0.647040
O O11 0.063959 0.982769 0.736274
O O12 0.500000 0.750000 0.250000
O O13 0.407084 0.801022 0.173913
O O14 0.347744 0.460482 0.218319
O O15 0.375000 0.465487 0.375000
#
# Coordination Sequence:
#
# PCOD8286026 Si02
#       7
#    32  16  32  32  32  32  32
#     4  12  26  40  63  96 137 174 215 274 346 400
#     4  10  20  36  67  90 124 162 232 262 314 388
#     4  10  22  37  66  94 128 174 218 272 322 407
#     4  10  25  41  61  94 133 170 213 278 334 391
#     4  11  22  39  65  97 126 177 218 269 323 411
#     4  10  21  41  65  93 127 168 223 271 329 395
#     4  10  22  41  70  94 123 171 231 276 319 397
#
# _framework density 20.579785000000001
#
# number of rings (size 3 to 8) (size 9 to 14) (size 15 to 20)
#    0.000    1.538    3.077    1.846    7.538    7.385 
#    0.000    0.000    0.000    2.308    0.000    1.077 
#    0.000    0.000    0.000    0.000    0.000    0.000 
#
# Total GULP energy -644456.708521 kJ/mol
# GULP energy per Si atom -12393.398241 kJ/mol
# Density = 2.053294 g / cm^3
# Si number density = 20.579785 Si / 1000 Ang^3
#
#
#
# Elastic Constant Matrix: (Units=GPa)
#
#
# Indices 1 2 3 4 5 6 
#
# 1 131.3482 33.6342 37.8023 0.0000 0.0000 0.0000
# 2 33.6342 72.7084 13.8482 0.0000 0.0000 0.0000
# 3 37.8023 13.8482 107.3652 0.0000 0.0000 0.0000
# 4 0.0000 0.0000 0.0000 21.7333 0.0000 0.0000
# 5 0.0000 0.0000 0.0000 0.0000 24.9467 0.0000
# 6 0.0000 0.0000 0.0000 0.0000 0.0000 30.2567
#
#
#
# Elastic Compliance Matrix: (Units=1/GPa)
#
#
# Indices 1 2 3 4 5 6 
#
# 1 0.009401 -0.003812 -0.002818 0.000000 0.000000 0.000000
# 2 -0.003812 0.015646 -0.000676 0.000000 0.000000 0.000000
# 3 -0.002818 -0.000676 0.010393 0.000000 0.000000 0.000000
# 4 0.000000 0.000000 0.000000 0.046012 0.000000 0.000000
# 5 0.000000 0.000000 0.000000 0.000000 0.040086 0.000000
# 6 0.000000 0.000000 0.000000 0.000000 0.000000 0.033051
#
#
# Mechanical properties :
#
#
# Convention : Reuss Voigt Hill
#
# Bulk Modulus (GPa) = 48.01284 53.55459 50.78371
# Shear Modulus (GPa) = 28.38611 30.46313 29.42462
#
# Velocity S-wave (km/s) = 3.71795 3.85157 3.78535
# Velocity P-wave (km/s) = 6.46619 6.77192 6.62082
#
# Compressibility (1/GPa) = 0.02082776
#
# Stress axis : x y z
#
# Youngs Moduli (GPa) = 106.37698 63.91564 96.21459
#
# Poissons Ratio (x) = 0.24364 0.27115
# Poissons Ratio (y) = 0.40549 0.06503
# Poissons Ratio (z) = 0.29979 0.04320
#
# Static dielectric constant tensor:
#      x y z
#    x 3.821910 0.000000 0.000000 
#    y 0.000000 2.923690 0.000000 
#    z 0.000000 0.000000 3.609730 
# 
# 
# High freq. dielectric constant tensor:
#      x y z
#    x 1.823740 0.000000 0.000000 
#    y 0.000000 1.776980 0.000000 
#    z 0.000000 0.000000 1.806530 
# 
# From -- ./inp_files/36879.got.cif
#   From: 2010.03.12/outbox.cif.g09.slc.cpg/sg70_19_cif.got.tgz:36879.got - 2010.04.16 13:46:32.
