data_PCOD8286798
_publ_section_title
;
Structure prediction by ZEFSAII (Michael W. Deem and Ramdas Pophale) SiO2 
 PCOD8286798
Probable space group: F D D D
;
_chemical_formula_sum "Si O2"
_cell_formula_units_Z 184
_cell_length_a 25.752389
_cell_length_b 22.232643
_cell_length_c 14.797112
_cell_angle_alpha 90.000000
_cell_angle_beta 90.000000
_cell_angle_gamma 90.000000
_cell_volume 8471.992825
_symmetry_space_group_name_H-M "F D D D"
_symmetry_group_IT_number 70
_space_group.IT_coordinate_system_code '2'
_symmetry_cell_setting 'orthorhombic'
loop_
_space_group_symop_operation_xyz
x,y,z
1/4-x,1/4-y,z
x,1/4-y,1/4-z
1/4-x,y,1/4-z
-x,-y,-z
3/4+x,3/4+y,-z
-x,3/4+y,3/4+z
3/4+x,-y,3/4+z
x,1/2+y,1/2+z
1/4-x,3/4-y,1/2+z
x,3/4-y,3/4-z
1/4-x,1/2+y,3/4-z
-x,1/2-y,1/2-z
3/4+x,1/4+y,1/2-z
-x,1/4+y,1/4+z
3/4+x,1/2-y,1/4+z
1/2+x,y,1/2+z
3/4-x,1/4-y,1/2+z
1/2+x,1/4-y,3/4-z
3/4-x,y,3/4-z
1/2-x,-y,1/2-z
1/4+x,3/4+y,1/2-z
1/2-x,3/4+y,1/4+z
1/4+x,-y,1/4+z
1/2+x,1/2+y,z
3/4-x,3/4-y,z
1/2+x,3/4-y,1/4-z
3/4-x,1/2+y,1/4-z
1/2-x,1/2-y,-z
1/4+x,1/4+y,-z
1/2-x,1/4+y,3/4+z
1/4+x,1/2-y,3/4+z
loop_
_atom_site_type_symbol
_atom_site_label
_atom_site_fract_x
_atom_site_fract_y
_atom_site_fract_z
Si Si1 0.875000 0.682559 0.875000
Si Si2 0.573895 0.389737 0.770800
Si Si3 0.625000 0.625000 0.625000
Si Si4 0.433566 0.474395 0.251907
Si Si5 0.519800 0.561842 0.039891
Si Si6 0.866434 0.310944 0.573647
Si Si7 0.957835 0.491788 0.285314
O O1 0.882019 0.645560 0.783683
O O2 0.926094 0.721948 0.889736
O O3 0.588012 0.375000 0.875000
O O4 0.578169 0.456092 0.724958
O O5 0.516384 0.364198 0.748956
O O6 0.590830 0.578563 0.685745
O O7 0.412640 0.476682 0.149500
O O8 0.496165 0.466688 0.255731
O O9 0.516477 0.561408 0.151276
O O10 0.500000 0.500000 0.000000
O O11 0.579841 0.571628 0.013051
O O12 0.875000 0.375000 0.620544
O O13 0.921113 0.281456 0.545081
#
# Coordination Sequence:
#
# PCOD8286798 Si02
#       7
#    16  32   8  32  32  32  32
#     4  12  23  42  65 105 146 179 228 294 374 448
#     4  12  23  40  72 103 143 191 239 304 372 439
#     4  12  30  60  72  92 142 222 272 318 356 434
#     4  12  26  50  72  99 141 199 258 307 363 428
#     4  12  20  40  67 106 151 180 215 285 386 458
#     4  12  24  41  69 104 141 183 233 297 370 445
#     4  12  23  41  72 110 145 185 227 290 380 462
#
# _framework density 21.718620000000001
#
# number of rings (size 3 to 8) (size 9 to 14) (size 15 to 20)
#    0.000    0.000    7.826    2.609    0.000    0.696 
#    4.696    0.870    0.000    0.000    0.000    0.000 
#    0.000    0.000    0.000    0.000    0.000    0.000 
#
# Total GULP energy -569990.426033 kJ/mol
# GULP energy per Si atom -12391.096218 kJ/mol
# Density = 2.166919 g / cm^3
# Si number density = 21.718620 Si / 1000 Ang^3
#
#
#
# Elastic Constant Matrix: (Units=GPa)
#
#
# Indices 1 2 3 4 5 6 
#
# 1 128.3622 44.2884 52.2574 0.0000 0.0000 0.0000
# 2 44.2884 123.7481 34.6800 0.0000 0.0000 0.0000
# 3 52.2574 34.6800 99.5459 0.0000 0.0000 0.0000
# 4 0.0000 0.0000 0.0000 29.4981 0.0000 0.0000
# 5 0.0000 0.0000 0.0000 0.0000 34.6302 0.0000
# 6 0.0000 0.0000 0.0000 0.0000 0.0000 33.5219
#
#
#
# Elastic Compliance Matrix: (Units=1/GPa)
#
#
# Indices 1 2 3 4 5 6 
#
# 1 0.010544 -0.002463 -0.004677 0.000000 0.000000 0.000000
# 2 -0.002463 0.009531 -0.002027 0.000000 0.000000 0.000000
# 3 -0.004677 -0.002027 0.013207 0.000000 0.000000 0.000000
# 4 0.000000 0.000000 0.000000 0.033900 0.000000 0.000000
# 5 0.000000 0.000000 0.000000 0.000000 0.028877 0.000000
# 6 0.000000 0.000000 0.000000 0.000000 0.000000 0.029831
#
#
# Mechanical properties :
#
#
# Convention : Reuss Voigt Hill
#
# Bulk Modulus (GPa) = 66.90276 68.23418 67.56847
# Shear Modulus (GPa) = 33.51023 34.22539 33.86781
#
# Velocity S-wave (km/s) = 3.93227 3.97401 3.95320
# Velocity P-wave (km/s) = 7.17553 7.24863 7.21217
#
# Compressibility (1/GPa) = 0.01494707
#
# Stress axis : x y z
#
# Youngs Moduli (GPa) = 94.83686 104.92570 75.71570
#
# Poissons Ratio (x) = 0.25843 0.35415
# Poissons Ratio (y) = 0.23358 0.15350
# Poissons Ratio (z) = 0.44358 0.21272
#
# Static dielectric constant tensor:
#      x y z
#    x 5.614860 0.000000 0.000000 
#    y 0.000000 4.163190 0.000000 
#    z 0.000000 0.000000 3.858200 
# 
# 
# High freq. dielectric constant tensor:
#      x y z
#    x 1.858850 0.000000 0.000000 
#    y 0.000000 1.871330 0.000000 
#    z 0.000000 0.000000 1.835390 
# 
# From -- ./inp_files/37620.got.cif
#   From: 2010.03.12/outbox.cif.g09.slc.cpg/sg70_19_cif.got.tgz:37620.got - 2010.04.16 13:46:32.
