data_PCOD8286293
_publ_section_title
;
Structure prediction by ZEFSAII (Michael W. Deem and Ramdas Pophale) SiO2 
 PCOD8286293
Probable space group: F D D D
;
_chemical_formula_sum "Si O2"
_cell_formula_units_Z 80
_cell_length_a 11.179094
_cell_length_b 22.913620
_cell_length_c 11.346278
_cell_angle_alpha 90.000000
_cell_angle_beta 90.000000
_cell_angle_gamma 90.000000
_cell_volume 2906.388956
_symmetry_space_group_name_H-M "F D D D"
_symmetry_group_IT_number 70
_space_group.IT_coordinate_system_code '2'
_symmetry_cell_setting 'orthorhombic'
loop_
_space_group_symop_operation_xyz
x,y,z
1/4-x,1/4-y,z
x,1/4-y,1/4-z
1/4-x,y,1/4-z
-x,-y,-z
3/4+x,3/4+y,-z
-x,3/4+y,3/4+z
3/4+x,-y,3/4+z
x,1/2+y,1/2+z
1/4-x,3/4-y,1/2+z
x,3/4-y,3/4-z
1/4-x,1/2+y,3/4-z
-x,1/2-y,1/2-z
3/4+x,1/4+y,1/2-z
-x,1/4+y,1/4+z
3/4+x,1/2-y,1/4+z
1/2+x,y,1/2+z
3/4-x,1/4-y,1/2+z
1/2+x,1/4-y,3/4-z
3/4-x,y,3/4-z
1/2-x,-y,1/2-z
1/4+x,3/4+y,1/2-z
1/2-x,3/4+y,1/4+z
1/4+x,-y,1/4+z
1/2+x,1/2+y,z
3/4-x,3/4-y,z
1/2+x,3/4-y,1/4-z
3/4-x,1/2+y,1/4-z
1/2-x,1/2-y,-z
1/4+x,1/4+y,-z
1/2-x,1/4+y,3/4+z
1/4+x,1/2-y,3/4+z
loop_
_atom_site_type_symbol
_atom_site_label
_atom_site_fract_x
_atom_site_fract_y
_atom_site_fract_z
Si Si1 0.496373 0.530829 0.181585
Si Si2 0.307302 0.945179 0.688367
Si Si3 0.684042 0.375000 0.875000
O O1 0.625000 0.530941 0.125000
O O2 0.448494 0.463601 0.187123
O O3 0.504347 0.562862 0.307932
O O4 0.401952 0.568704 0.103387
O O5 0.272874 0.887365 0.763067
O O6 0.250000 0.000000 0.750000
#
# Coordination Sequence:
#
# PCOD8286293 Si02
#       3
#    32  32  16
#     4  11  23  46  74 108 152 201 255 322 389 455
#     4  10  22  45  72 105 147 196 252 313 383 457
#     4  10  21  42  69 106 146 196 258 304 368 470
#
# _framework density 27.525565
#
# number of rings (size 3 to 8) (size 9 to 14) (size 15 to 20)
#    0.000    1.600    0.000    6.600    0.000    0.000 
#    0.000   72.000    0.000    2.400    0.000    0.000 
#    0.000    0.000    0.000    0.000    0.000    0.000 
#
# Total GULP energy -247802.168094 kJ/mol
# GULP energy per Si atom -12390.108405 kJ/mol
# Density = 2.746292 g / cm^3
# Si number density = 27.525565 Si / 1000 Ang^3
#
#
#
# Elastic Constant Matrix: (Units=GPa)
#
#
# Indices 1 2 3 4 5 6 
#
# 1 214.6596 85.9856 66.9375 0.0000 0.0000 0.0000
# 2 85.9856 154.7951 70.2501 0.0000 0.0000 0.0000
# 3 66.9375 70.2501 179.4541 0.0000 0.0000 0.0000
# 4 0.0000 0.0000 0.0000 37.0368 0.0000 0.0000
# 5 0.0000 0.0000 0.0000 0.0000-2678.7878 0.0000
# 6 0.0000 0.0000 0.0000 0.0000 0.0000 43.1096
#
#
#
# Elastic Compliance Matrix: (Units=1/GPa)
#
#
# Indices 1 2 3 4 5 6 
#
# 1 0.006188 -0.002906 -0.001170 0.000000 0.000000 0.000000
# 2 -0.002906 0.009220 -0.002526 0.000000 0.000000 0.000000
# 3 -0.001170 -0.002526 0.006998 0.000000 0.000000 0.000000
# 4 0.000000 0.000000 0.000000 0.027000 0.000000 0.000000
# 5 0.000000 0.000000 0.000000 0.000000 -0.000373 0.000000
# 6 0.000000 0.000000 0.000000 0.000000 0.000000 0.023197
#
#
# Mechanical properties :
#
#
# Convention : Reuss Voigt Hill
#
# Bulk Modulus (GPa) = 108.67293 110.58390 109.62841
# Shear Modulus (GPa) = 56.49693 -498.01257 -220.75782
#
# Velocity S-wave (km/s) = 4.53540 -13.46551 -8.96522
# Velocity P-wave (km/s) = 8.18492 14.19500 8.20076
#
# Compressibility (1/GPa) = 0.00920192
#
# Stress axis : x y z
#
# Youngs Moduli (GPa) = 161.61594 108.45420 142.90377
#
# Poissons Ratio (x) = 0.31515 0.16726
# Poissons Ratio (y) = 0.46963 0.36092
# Poissons Ratio (z) = 0.18916 0.27391
#
# Static dielectric constant tensor:
#      x y z
#    x 5.830360 0.000000 0.000000 
#    y 0.000000 7.016890 0.000000 
#    z 0.000000 0.000000 5.262700 
# 
# 
# High freq. dielectric constant tensor:
#      x y z
#    x 2.147520 0.000000 0.000000 
#    y 0.000000 2.109570 0.000000 
#    z 0.000000 0.000000 2.094880 
# 
# From -- ./inp_files/13846.got.cif
#   From: 2010.03.12/outbox.cif.g09.slc.cpg/sg70_7_cif.got.tgz:13846.got - 2010.04.16 13:46:32.
