data_PCOD8286073
_publ_section_title
;
Structure prediction by ZEFSAII (Michael W. Deem and Ramdas Pophale) SiO2 
 PCOD8286073
Probable space group: F D D D
;
_chemical_formula_sum "Si O2"
_cell_formula_units_Z 160
_cell_length_a 13.666272
_cell_length_b 19.537472
_cell_length_c 30.364550
_cell_angle_alpha 90.000000
_cell_angle_beta 90.000000
_cell_angle_gamma 90.000000
_cell_volume 8107.468653
_symmetry_space_group_name_H-M "F D D D"
_symmetry_group_IT_number 70
_space_group.IT_coordinate_system_code '2'
_symmetry_cell_setting 'orthorhombic'
loop_
_space_group_symop_operation_xyz
x,y,z
1/4-x,1/4-y,z
x,1/4-y,1/4-z
1/4-x,y,1/4-z
-x,-y,-z
3/4+x,3/4+y,-z
-x,3/4+y,3/4+z
3/4+x,-y,3/4+z
x,1/2+y,1/2+z
1/4-x,3/4-y,1/2+z
x,3/4-y,3/4-z
1/4-x,1/2+y,3/4-z
-x,1/2-y,1/2-z
3/4+x,1/4+y,1/2-z
-x,1/4+y,1/4+z
3/4+x,1/2-y,1/4+z
1/2+x,y,1/2+z
3/4-x,1/4-y,1/2+z
1/2+x,1/4-y,3/4-z
3/4-x,y,3/4-z
1/2-x,-y,1/2-z
1/4+x,3/4+y,1/2-z
1/2-x,3/4+y,1/4+z
1/4+x,-y,1/4+z
1/2+x,1/2+y,z
3/4-x,3/4-y,z
1/2+x,3/4-y,1/4-z
3/4-x,1/2+y,1/4-z
1/2-x,1/2-y,-z
1/4+x,1/4+y,-z
1/2-x,1/4+y,3/4+z
1/4+x,1/2-y,3/4+z
loop_
_atom_site_type_symbol
_atom_site_label
_atom_site_fract_x
_atom_site_fract_y
_atom_site_fract_z
Si Si1 0.375000 0.181700 0.375000
Si Si2 0.574388 0.873550 0.965910
Si Si3 0.375000 0.375000 0.232404
Si Si4 0.366122 0.979567 0.181302
Si Si5 0.469300 0.125219 0.794596
Si Si6 0.319269 0.489146 0.162673
O O1 0.401269 0.129396 0.413206
O O2 0.460819 0.230063 0.356916
O O3 0.612853 0.807654 0.940820
O O4 0.573258 0.933959 0.930442
O O5 0.467847 0.859351 0.986643
O O6 0.654940 0.890196 0.002279
O O7 0.348087 0.439798 0.202620
O O8 0.450678 0.933927 0.202497
O O9 0.266402 0.951474 0.203726
O O10 0.357697 0.973142 0.128045
#
# Coordination Sequence:
#
# PCOD8286073 Si02
#       6
#    16  32  16  32  32  32
#     4  10  20  38  63  88 119 170 204 252 310 378
#     4  12  24  38  62  95 126 156 204 265 315 359
#     4  12  24  38  61  92 124 168 204 253 310 382
#     4  10  23  41  63  88 119 165 202 254 309 369
#     4  10  21  41  63  85 121 160 212 243 302 378
#     4  11  23  40  60  92 126 159 208 253 315 383
#
# _framework density 19.73489
#
# number of rings (size 3 to 8) (size 9 to 14) (size 15 to 20)
#    0.000    1.200    2.000    5.400    5.600    0.000 
#    0.000    0.000    0.000    0.000    0.000    0.000 
#    0.000    0.000    0.000    0.000    0.000    0.000 
#
# Total GULP energy -495902.929281 kJ/mol
# GULP energy per Si atom -12397.573232 kJ/mol
# Density = 1.968997 g / cm^3
# Si number density = 19.734890 Si / 1000 Ang^3
#
#
#
# Elastic Constant Matrix: (Units=GPa)
#
#
# Indices 1 2 3 4 5 6 
#
# 1 63.6111 28.5132 47.3648 0.0000 0.0000 0.0000
# 2 28.5132 126.3005 26.1195 0.0000 0.0000 0.0000
# 3 47.3648 26.1195 76.8910 0.0000 0.0000 0.0000
# 4 0.0000 0.0000 0.0000 34.1430 0.0000 0.0000
# 5 0.0000 0.0000 0.0000 0.0000 17.7283 0.0000
# 6 0.0000 0.0000 0.0000 0.0000 0.0000 13.6849
#
#
#
# Elastic Compliance Matrix: (Units=1/GPa)
#
#
# Indices 1 2 3 4 5 6 
#
# 1 0.030193 -0.003194 -0.017514 0.000000 0.000000 0.000000
# 2 -0.003194 0.008854 -0.001040 0.000000 0.000000 0.000000
# 3 -0.017514 -0.001040 0.024147 0.000000 0.000000 0.000000
# 4 0.000000 0.000000 0.000000 0.029289 0.000000 0.000000
# 5 0.000000 0.000000 0.000000 0.000000 0.056407 0.000000
# 6 0.000000 0.000000 0.000000 0.000000 0.000000 0.073073
#
#
# Mechanical properties :
#
#
# Convention : Reuss Voigt Hill
#
# Bulk Modulus (GPa) = 50.76662 52.31085 51.53874
# Shear Modulus (GPa) = 18.38063 24.09824 21.23944
#
# Velocity S-wave (km/s) = 3.05516 3.49821 3.28417
# Velocity P-wave (km/s) = 6.18268 6.54836 6.36814
#
# Compressibility (1/GPa) = 0.01969798
#
# Stress axis : x y z
#
# Youngs Moduli (GPa) = 33.12007 112.94549 41.41271
#
# Poissons Ratio (x) = 0.36079 0.72530
# Poissons Ratio (y) = 0.10580 0.04306
# Poissons Ratio (z) = 0.58006 0.11745
#
# Static dielectric constant tensor:
#      x y z
#    x 4.007840 0.000000 0.000000 
#    y 0.000000 3.571870 0.000000 
#    z 0.000000 0.000000 3.819040 
# 
# 
# High freq. dielectric constant tensor:
#      x y z
#    x 1.768750 0.000000 0.000000 
#    y 0.000000 1.770930 0.000000 
#    z 0.000000 0.000000 1.783270 
# 
# From -- ./inp_files/30946.got.cif
#   From: 2010.03.12/outbox.cif.g09.slc.cpg/sg70_16_cif.got.tgz:30946.got - 2010.04.16 13:46:32.
