data_PCOD8286528
_publ_section_title
;
Structure prediction by ZEFSAII (Michael W. Deem and Ramdas Pophale) SiO2 
 PCOD8286528
Probable space group: F D D D
;
_chemical_formula_sum "Si O2"
_cell_formula_units_Z 160
_cell_length_a 20.624159
_cell_length_b 17.189271
_cell_length_c 20.624166
_cell_angle_alpha 90.000000
_cell_angle_beta 90.000000
_cell_angle_gamma 90.000000
_cell_volume 7311.560910
_symmetry_space_group_name_H-M "F D D D"
_symmetry_group_IT_number 70
_space_group.IT_coordinate_system_code '2'
_symmetry_cell_setting 'orthorhombic'
loop_
_space_group_symop_operation_xyz
x,y,z
1/4-x,1/4-y,z
x,1/4-y,1/4-z
1/4-x,y,1/4-z
-x,-y,-z
3/4+x,3/4+y,-z
-x,3/4+y,3/4+z
3/4+x,-y,3/4+z
x,1/2+y,1/2+z
1/4-x,3/4-y,1/2+z
x,3/4-y,3/4-z
1/4-x,1/2+y,3/4-z
-x,1/2-y,1/2-z
3/4+x,1/4+y,1/2-z
-x,1/4+y,1/4+z
3/4+x,1/2-y,1/4+z
1/2+x,y,1/2+z
3/4-x,1/4-y,1/2+z
1/2+x,1/4-y,3/4-z
3/4-x,y,3/4-z
1/2-x,-y,1/2-z
1/4+x,3/4+y,1/2-z
1/2-x,3/4+y,1/4+z
1/4+x,-y,1/4+z
1/2+x,1/2+y,z
3/4-x,3/4-y,z
1/2+x,3/4-y,1/4-z
3/4-x,1/2+y,1/4-z
1/2-x,1/2-y,-z
1/4+x,1/4+y,-z
1/2-x,1/4+y,3/4+z
1/4+x,1/2-y,3/4+z
loop_
_atom_site_type_symbol
_atom_site_label
_atom_site_fract_x
_atom_site_fract_y
_atom_site_fract_z
Si Si1 0.799148 0.086830 0.799148
Si Si2 0.643612 1.000000 0.356388
Si Si3 0.446545 0.846290 0.303455
Si Si4 0.422471 0.099378 0.224389
Si Si5 0.974389 0.400622 0.672471
O O1 0.748684 0.126964 0.748684
O O2 0.871048 0.113596 0.781541
O O3 0.781541 0.113596 0.871048
O O4 0.799410 0.994838 0.799410
O O5 0.681818 0.073602 0.329699
O O6 0.567740 0.022156 0.345741
O O7 0.670301 0.926398 0.318182
O O8 0.654259 0.977844 0.432260
O O9 0.466069 0.875000 0.375000
O O10 0.375000 0.875000 0.283931
O O11 0.493393 0.088333 0.256607
#
# Coordination Sequence:
#
# PCOD8286528 Si02
#       5
#    32  32  32  32  32
#     4  11  25  38  63 102 130 177 225 280 338 410
#     4  10  25  45  70  96 132 190 229 284 351 408
#     4  10  24  39  62  90 142 176 215 267 342 411
#     4  11  25  44  68  99 139 179 235 288 344 410
#     4  11  25  44  68  99 139 179 235 288 344 410
#
# _framework density 21.883151999999999
#
# number of rings (size 3 to 8) (size 9 to 14) (size 15 to 20)
#    0.000    1.400    0.000    3.600   19.600    0.000 
#    0.000    0.000    0.000    2.400    0.000    0.000 
#    0.000    0.000    0.000    0.000    0.000    0.000 
#
# Total GULP energy -495872.906900 kJ/mol
# GULP energy per Si atom -12396.822672 kJ/mol
# Density = 2.183334 g / cm^3
# Si number density = 21.883152 Si / 1000 Ang^3
#
#
#
# Elastic Constant Matrix: (Units=GPa)
#
#
# Indices 1 2 3 4 5 6 
#
# 1 117.6945 37.4313 63.6361 0.0000 0.0000 0.0000
# 2 37.4313 77.2785 37.4313 0.0000 0.0000 0.0000
# 3 63.6361 37.4313 117.6947 0.0000 0.0000 0.0000
# 4 0.0000 0.0000 0.0000 33.8221 0.0000 0.0000
# 5 0.0000 0.0000 0.0000 0.0000 53.7306 0.0000
# 6 0.0000 0.0000 0.0000 0.0000 0.0000 33.8221
#
#
#
# Elastic Compliance Matrix: (Units=1/GPa)
#
#
# Indices 1 2 3 4 5 6 
#
# 1 0.012696 -0.003339 -0.005803 0.000000 0.000000 0.000000
# 2 -0.003339 0.016175 -0.003339 0.000000 0.000000 0.000000
# 3 -0.005803 -0.003339 0.012696 0.000000 0.000000 0.000000
# 4 0.000000 0.000000 0.000000 0.029566 0.000000 0.000000
# 5 0.000000 0.000000 0.000000 0.000000 0.018611 0.000000
# 6 0.000000 0.000000 0.000000 0.000000 0.000000 0.029567
#
#
# Mechanical properties :
#
#
# Convention : Reuss Voigt Hill
#
# Bulk Modulus (GPa) = 60.22030 65.51834 62.86932
# Shear Modulus (GPa) = 33.37634 35.88622 34.63128
#
# Velocity S-wave (km/s) = 3.90963 4.05396 3.98245
# Velocity P-wave (km/s) = 6.92524 7.20541 7.06671
#
# Compressibility (1/GPa) = 0.01660570
#
# Stress axis : x y z
#
# Youngs Moduli (GPa) = 78.76576 61.82497 78.76592
#
# Poissons Ratio (x) = 0.20643 0.45705
# Poissons Ratio (y) = 0.26299 0.26299
# Poissons Ratio (z) = 0.45705 0.20643
#
# Static dielectric constant tensor:
#      x y z
#    x 6.890760 0.000000 0.000000 
#    y 0.000000 3.880240 0.000000 
#    z 0.000000 0.000000 6.890600 
# 
# 
# High freq. dielectric constant tensor:
#      x y z
#    x 1.863700 0.000000 0.000000 
#    y 0.000000 1.856290 0.000000 
#    z 0.000000 0.000000 1.863700 
# 
# From -- ./inp_files/44721.got.cif
#   From: 2010.03.12/outbox.cif.g09.slc.cpg/sg70_23_cif.got.tgz:44721.got - 2010.04.16 13:46:32.
