data_PCOD8286652
_publ_section_title
;
Structure prediction by ZEFSAII (Michael W. Deem and Ramdas Pophale) SiO2 
 PCOD8286652
Probable space group: F D D D
;
_chemical_formula_sum "Si O2"
_cell_formula_units_Z 160
_cell_length_a 20.613020
_cell_length_b 15.560289
_cell_length_c 23.741272
_cell_angle_alpha 90.000000
_cell_angle_beta 90.000000
_cell_angle_gamma 90.000000
_cell_volume 7614.883565
_symmetry_space_group_name_H-M "F D D D"
_symmetry_group_IT_number 70
_space_group.IT_coordinate_system_code '2'
_symmetry_cell_setting 'orthorhombic'
loop_
_space_group_symop_operation_xyz
x,y,z
1/4-x,1/4-y,z
x,1/4-y,1/4-z
1/4-x,y,1/4-z
-x,-y,-z
3/4+x,3/4+y,-z
-x,3/4+y,3/4+z
3/4+x,-y,3/4+z
x,1/2+y,1/2+z
1/4-x,3/4-y,1/2+z
x,3/4-y,3/4-z
1/4-x,1/2+y,3/4-z
-x,1/2-y,1/2-z
3/4+x,1/4+y,1/2-z
-x,1/4+y,1/4+z
3/4+x,1/2-y,1/4+z
1/2+x,y,1/2+z
3/4-x,1/4-y,1/2+z
1/2+x,1/4-y,3/4-z
3/4-x,y,3/4-z
1/2-x,-y,1/2-z
1/4+x,3/4+y,1/2-z
1/2-x,3/4+y,1/4+z
1/4+x,-y,1/4+z
1/2+x,1/2+y,z
3/4-x,3/4-y,z
1/2+x,3/4-y,1/4-z
3/4-x,1/2+y,1/4-z
1/2-x,1/2-y,-z
1/4+x,1/4+y,-z
1/2-x,1/4+y,3/4+z
1/4+x,1/2-y,3/4+z
loop_
_atom_site_type_symbol
_atom_site_label
_atom_site_fract_x
_atom_site_fract_y
_atom_site_fract_z
Si Si1 0.138582 0.371617 0.688706
Si Si2 0.876704 0.528333 0.614067
Si Si3 0.276617 0.425645 0.712282
Si Si4 0.100740 0.216560 0.485041
Si Si5 0.049025 0.754968 0.492618
O O1 0.125000 0.353810 0.625000
O O2 0.215310 0.380852 0.684573
O O3 0.118997 0.288388 0.724574
O O4 0.102453 0.453722 0.715829
O O5 0.903101 0.625000 0.625000
O O6 0.928824 0.467830 0.584399
O O7 0.866361 0.483467 0.674151
O O8 0.813308 0.532737 0.573051
O O9 0.250000 0.500000 0.750000
O O10 0.311095 0.348068 0.746861
O O11 0.125000 0.125000 0.507126
O O12 0.022270 0.218227 0.486083
#
# Coordination Sequence:
#
# PCOD8286652 Si02
#       5
#    32  32  32  32  32
#     4  11  24  43  63  96 136 176 228 287 350 417
#     4  12  22  44  71 100 138 184 229 286 354 428
#     4  11  22  40  68  99 135 169 222 285 348 419
#     4  11  25  45  67  99 133 182 237 289 350 416
#     4  11  23  44  68  99 136 177 231 282 350 423
#
# _framework density 21.011482999999998
#
# number of rings (size 3 to 8) (size 9 to 14) (size 15 to 20)
#    0.000    0.800    4.000    4.200    0.000    2.800 
#    7.200    1.000    0.000    0.000    0.000    0.000 
#    0.000    0.000    0.000    0.000    0.000    0.000 
#
# Total GULP energy -495730.631418 kJ/mol
# GULP energy per Si atom -12393.265785 kJ/mol
# Density = 2.096366 g / cm^3
# Si number density = 21.011483 Si / 1000 Ang^3
#
#
#
# Elastic Constant Matrix: (Units=GPa)
#
#
# Indices 1 2 3 4 5 6 
#
# 1 58.5554 30.9494 25.8362 0.0000 0.0000 0.0000
# 2 30.9494 167.7406 40.3582 0.0000 0.0000 0.0000
# 3 25.8362 40.3582 144.3876 0.0000 0.0000 0.0000
# 4 0.0000 0.0000 0.0000 31.9632 0.0000 0.0000
# 5 0.0000 0.0000 0.0000 0.0000 31.7374 0.0000
# 6 0.0000 0.0000 0.0000 0.0000 0.0000 28.7255
#
#
#
# Elastic Compliance Matrix: (Units=1/GPa)
#
#
# Indices 1 2 3 4 5 6 
#
# 1 0.019867 -0.003013 -0.002713 0.000000 0.000000 0.000000
# 2 -0.003013 0.006848 -0.001375 0.000000 0.000000 0.000000
# 3 -0.002713 -0.001375 0.007796 0.000000 0.000000 0.000000
# 4 0.000000 0.000000 0.000000 0.031286 0.000000 0.000000
# 5 0.000000 0.000000 0.000000 0.000000 0.031509 0.000000
# 6 0.000000 0.000000 0.000000 0.000000 0.000000 0.034812
#
#
# Mechanical properties :
#
#
# Convention : Reuss Voigt Hill
#
# Bulk Modulus (GPa) = 49.23802 62.77456 56.00629
# Shear Modulus (GPa) = 32.66063 36.72122 34.69093
#
# Velocity S-wave (km/s) = 3.94689 4.18505 4.06771
# Velocity P-wave (km/s) = 6.65247 7.30028 6.98389
#
# Compressibility (1/GPa) = 0.02030951
#
# Stress axis : x y z
#
# Youngs Moduli (GPa) = 50.33400 146.02079 128.27795
#
# Poissons Ratio (x) = 0.43995 0.34799
# Poissons Ratio (y) = 0.15165 0.17639
# Poissons Ratio (z) = 0.13655 0.20079
#
# Static dielectric constant tensor:
#      x y z
#    x 3.058170 0.000000 0.000000 
#    y 0.000000 4.133440 0.000000 
#    z 0.000000 0.000000 3.740230 
# 
# 
# High freq. dielectric constant tensor:
#      x y z
#    x 1.819850 0.000000 0.000000 
#    y 0.000000 1.845460 0.000000 
#    z 0.000000 0.000000 1.819090 
# 
# From -- ./inp_files/28645.got.cif
#   From: 2010.03.12/outbox.cif.g09.slc.cpg/sg70_15_cif.got.tgz:28645.got - 2010.04.16 13:46:32.
