data_PCOD8286924
_publ_section_title
;
Structure prediction by ZEFSAII (Michael W. Deem and Ramdas Pophale) SiO2 
 PCOD8286924
Probable space group: I M M M
;
_chemical_formula_sum "Si O2"
_cell_formula_units_Z 72
_cell_length_a 19.839278
_cell_length_b 24.549400
_cell_length_c 9.885636
_cell_angle_alpha 90.000000
_cell_angle_beta 90.000000
_cell_angle_gamma 90.000000
_cell_volume 4814.723600
_symmetry_space_group_name_H-M "I M M M"
_symmetry_group_IT_number 71
_symmetry_cell_setting 'orthorhombic'
loop_
_space_group_symop_operation_xyz
x,y,z
-x,-y,z
x,-y,-z
-x,y,-z
-x,-y,-z
x,y,-z
-x,y,z
x,-y,z
1/2+x,1/2+y,1/2+z
1/2-x,1/2-y,1/2+z
1/2+x,1/2-y,1/2-z
1/2-x,1/2+y,1/2-z
1/2-x,1/2-y,1/2-z
1/2+x,1/2+y,1/2-z
1/2-x,1/2+y,1/2+z
1/2+x,1/2-y,1/2+z
loop_
_atom_site_type_symbol
_atom_site_label
_atom_site_fract_x
_atom_site_fract_y
_atom_site_fract_z
Si Si1 0.377149 0.769098 0.000000
Si Si2 0.256515 0.321503 0.500000
Si Si3 0.352580 0.637624 0.288884
Si Si4 0.307064 0.653019 0.000000
Si Si5 0.079369 0.062713 0.000000
Si Si6 0.424072 0.752685 0.285433
Si Si7 0.171958 0.292995 0.000000
O O1 0.424102 0.772316 0.130802
O O2 0.324428 0.819406 0.000000
O O3 0.335558 0.713521 0.000000
O O4 0.281935 0.351968 0.634743
O O5 0.284354 0.260958 0.500000
O O6 0.391452 0.588762 0.362364
O O7 0.399403 0.690745 0.300349
O O8 0.334730 0.622081 0.133707
O O9 0.224862 0.656501 0.000000
O O10 0.000000 0.070818 0.000000
O O11 0.100554 0.000000 0.000000
O O12 0.500000 0.756063 0.341618
O O13 0.375928 0.793663 0.368284
#
# Coordination Sequence:
#
# PCOD8286924 Si02
#       7
#     8   8  16   8   8  16   8
#     4   9  16  24  35  53  79 106 137 173 198 221
#     4   8  14  25  39  55  73 102 139 171 198 224
#     4   9  17  28  44  59  76 101 136 174 203 233
#     4   9  16  27  41  60  77  96 130 174 210 228
#     4  10  20  34  48  60  76 100 130 163 204 251
#     4  10  17  24  35  54  81 112 142 167 192 224
#     4   9  16  24  37  54  77 104 135 170 195 225
#
# _framework density 14.954129
#
# number of rings (size 3 to 8) (size 9 to 14) (size 15 to 20)
#    0.000    2.778    0.000    3.333    0.000    5.333 
#    0.000    2.222    0.000    1.333    0.000    0.000 
#    0.000    0.000    0.000    0.000    0.000  262.222 
#
# Total GULP energy -446196.178403 kJ/mol
# GULP energy per Si atom -12394.338289 kJ/mol
# Density = 1.492009 g / cm^3
# Si number density = 14.954129 Si / 1000 Ang^3
#
#
#
# Elastic Constant Matrix: (Units=GPa)
#
#
# Indices 1 2 3 4 5 6 
#
# 1 84.9231 31.5146 36.4144 0.0000 0.0000 0.0000
# 2 31.5146 42.3369 31.2312 0.0000 0.0000 0.0000
# 3 36.4144 31.2312 129.5521 0.0000 0.0000 0.0000
# 4 0.0000 0.0000 0.0000 46.5387 0.0000 0.0000
# 5 0.0000 0.0000 0.0000 0.0000 10.7086 0.0000
# 6 0.0000 0.0000 0.0000 0.0000 0.0000 15.5441
#
#
#
# Elastic Compliance Matrix: (Units=1/GPa)
#
#
# Indices 1 2 3 4 5 6 
#
# 1 0.016712 -0.010916 -0.002066 0.000000 0.000000 0.000000
# 2 -0.010916 0.035859 -0.005576 0.000000 0.000000 0.000000
# 3 -0.002066 -0.005576 0.009644 0.000000 0.000000 0.000000
# 4 0.000000 0.000000 0.000000 0.021488 0.000000 0.000000
# 5 0.000000 0.000000 0.000000 0.000000 0.093383 0.000000
# 6 0.000000 0.000000 0.000000 0.000000 0.000000 0.064333
#
#
# Mechanical properties :
#
#
# Convention : Reuss Voigt Hill
#
# Bulk Modulus (GPa) = 39.84281 50.57027 45.20654
# Shear Modulus (GPa) = 17.42755 25.06840 21.24797
#
# Velocity S-wave (km/s) = 3.41750 4.09877 3.77354
# Velocity P-wave (km/s) = 6.50182 7.50268 7.02011
#
# Compressibility (1/GPa) = 0.02509863
#
# Stress axis : x y z
#
# Youngs Moduli (GPa) = 59.83677 27.88675 103.69297
#
# Poissons Ratio (x) = 0.30442 0.21422
# Poissons Ratio (y) = 0.65319 0.57822
# Poissons Ratio (z) = 0.12361 0.15551
#
# Static dielectric constant tensor:
#      x y z
#    x 2.937390 0.000000 0.000000 
#    y 0.000000 2.367930 0.000000 
#    z 0.000000 0.000000 3.614580 
# 
# 
# High freq. dielectric constant tensor:
#      x y z
#    x 1.575940 0.000000 0.000000 
#    y 0.000000 1.492950 0.000000 
#    z 0.000000 0.000000 1.592180 
# 
# From -- ./inp_files/10200.got.cif
#   From: 2010.06.25/outbox.cif.g09.slc.cpg/sg71_6_cif.got.tgz:10200.got - 2010.06.28 04:59:45.
