data_PCOD8286596
_publ_section_title
;
Structure prediction by ZEFSAII (Michael W. Deem and Ramdas Pophale) SiO2 
 PCOD8286596
Probable space group: F D D D
;
_chemical_formula_sum "Si O2"
_cell_formula_units_Z 192
_cell_length_a 28.252684
_cell_length_b 34.080661
_cell_length_c 10.093267
_cell_angle_alpha 90.000000
_cell_angle_beta 90.000000
_cell_angle_gamma 90.000000
_cell_volume 9718.505467
_symmetry_space_group_name_H-M "F D D D"
_symmetry_group_IT_number 70
_space_group.IT_coordinate_system_code '2'
_symmetry_cell_setting 'orthorhombic'
loop_
_space_group_symop_operation_xyz
x,y,z
1/4-x,1/4-y,z
x,1/4-y,1/4-z
1/4-x,y,1/4-z
-x,-y,-z
3/4+x,3/4+y,-z
-x,3/4+y,3/4+z
3/4+x,-y,3/4+z
x,1/2+y,1/2+z
1/4-x,3/4-y,1/2+z
x,3/4-y,3/4-z
1/4-x,1/2+y,3/4-z
-x,1/2-y,1/2-z
3/4+x,1/4+y,1/2-z
-x,1/4+y,1/4+z
3/4+x,1/2-y,1/4+z
1/2+x,y,1/2+z
3/4-x,1/4-y,1/2+z
1/2+x,1/4-y,3/4-z
3/4-x,y,3/4-z
1/2-x,-y,1/2-z
1/4+x,3/4+y,1/2-z
1/2-x,3/4+y,1/4+z
1/4+x,-y,1/4+z
1/2+x,1/2+y,z
3/4-x,3/4-y,z
1/2+x,3/4-y,1/4-z
3/4-x,1/2+y,1/4-z
1/2-x,1/2-y,-z
1/4+x,1/4+y,-z
1/2-x,1/4+y,3/4+z
1/4+x,1/2-y,3/4+z
loop_
_atom_site_type_symbol
_atom_site_label
_atom_site_fract_x
_atom_site_fract_y
_atom_site_fract_z
Si Si1 0.598263 0.546111 0.260198
Si Si2 0.133120 0.344204 0.477146
Si Si3 0.249178 0.238220 0.296244
Si Si4 0.731824 0.938050 0.301822
Si Si5 0.944144 0.375000 0.875000
Si Si6 0.125000 0.125000 0.850700
Si Si7 0.896836 0.743050 0.518978
O O1 0.542844 0.536860 0.228145
O O2 0.604770 0.591005 0.305157
O O3 0.618285 0.518315 0.375044
O O4 0.625000 0.537810 0.125000
O O5 0.125000 0.360062 0.625000
O O6 0.110015 0.375000 0.375000
O O7 0.188769 0.341939 0.448296
O O8 0.109739 0.302554 0.452110
O O9 0.267992 0.212594 0.417629
O O10 0.226387 0.280072 0.332489
O O11 0.296489 0.248765 0.212948
O O12 0.778424 0.912496 0.320284
O O13 0.914926 0.391623 0.749372
O O14 0.875000 0.754340 0.375000
#
# Coordination Sequence:
#
# PCOD8286596 Si02
#       7
#    32  32  32  32  16  16  32
#     4  12  26  43  63  93 137 175 213 262 325 392
#     4  11  22  39  62  95 129 163 203 265 317 379
#     4  11  21  39  67  92 127 168 213 267 323 372
#     4  11  19  37  65  95 119 158 214 272 316 365
#     4  11  22  36  68  98 118 156 230 266 313 380
#     4  11  25  40  60  96 132 166 206 278 320 376
#     4  11  22  42  69  97 123 166 223 269 317 374
#
# _framework density 19.756124
#
# number of rings (size 3 to 8) (size 9 to 14) (size 15 to 20)
#    0.000    0.833    7.500    2.250    2.333    1.333 
#    0.000    3.333    0.000    0.000    0.000    0.000 
#    0.000    0.000    0.000    0.000    0.000    0.000 
#
# Total GULP energy -595036.657225 kJ/mol
# GULP energy per Si atom -12396.597026 kJ/mol
# Density = 1.971116 g / cm^3
# Si number density = 19.756124 Si / 1000 Ang^3
#
#
#
# Elastic Constant Matrix: (Units=GPa)
#
#
# Indices 1 2 3 4 5 6 
#
# 1 125.9334 12.7620 27.8252 -0.0030 -0.0062 -0.0094
# 2 12.7620 69.6925 39.3464 -0.0094 -0.0021 -0.0036
# 3 27.8252 39.3464 85.0244 -0.0192 -0.0037 -0.0122
# 4 -0.0030 -0.0094 -0.0192 21.0042 0.0055 -0.0034
# 5 -0.0062 -0.0021 -0.0037 0.0055 13.3637 0.0112
# 6 -0.0094 -0.0036 -0.0122 -0.0034 0.0112 27.7639
#
#
#
# Elastic Compliance Matrix: (Units=1/GPa)
#
#
# Indices 1 2 3 4 5 6 
#
# 1 0.008560 0.000019 -0.002810 -0.000001 0.000003 0.000002
# 2 0.000019 0.019423 -0.008995 0.000000 0.000001 -0.000001
# 3 -0.002810 -0.008995 0.016843 0.000011 0.000002 0.000005
# 4 -0.000001 0.000000 0.000011 0.047610 -0.000019 0.000006
# 5 0.000003 0.000001 0.000002 -0.000019 0.074830 -0.000030
# 6 0.000002 -0.000001 0.000005 0.000006 -0.000030 0.036018
#
#
# Mechanical properties :
#
#
# Convention : Reuss Voigt Hill
#
# Bulk Modulus (GPa) = 47.04774 48.94639 47.99707
# Shear Modulus (GPa) = 21.37299 25.80748 23.59023
#
# Velocity S-wave (km/s) = 3.29270 3.61820 3.45928
# Velocity P-wave (km/s) = 6.19046 6.50264 6.34847
#
# Compressibility (1/GPa) = 0.02125501
#
# Stress axis : x y z
#
# Youngs Moduli (GPa) = 116.82707 51.48423 59.37039
#
# Poissons Ratio (x) = -0.00098 0.16683
# Poissons Ratio (y) = -0.00223 0.53402
# Poissons Ratio (z) = 0.32829 0.46309
#
# Static dielectric constant tensor:
#      x y z
#    x 3.839490 0.000020 0.000020 
#    y 0.000020 3.665860 -0.000020 
#    z 0.000020 -0.000020 3.425250 
# 
# 
# High freq. dielectric constant tensor:
#      x y z
#    x 1.782400 0.000000 0.000000 
#    y 0.000000 1.779440 0.000000 
#    z 0.000000 0.000000 1.742430 
# 
# From -- ./inp_files/22643.got.cif
#   From: 2010.03.12/outbox.cif.g09.slc.cpg/sg70_12_cif.got.tgz:22643.got - 2010.04.16 13:46:32.
