data_PCOD8286845
_publ_section_title
;
Structure prediction by ZEFSAII (Michael W. Deem and Ramdas Pophale) SiO2 
 PCOD8286845
Probable space group: F D D D
;
_chemical_formula_sum "Si O2"
_cell_formula_units_Z 104
_cell_length_a 7.499846
_cell_length_b 17.607350
_cell_length_c 29.559150
_cell_angle_alpha 90.000000
_cell_angle_beta 90.000000
_cell_angle_gamma 90.000000
_cell_volume 3903.357098
_symmetry_space_group_name_H-M "F D D D"
_symmetry_group_IT_number 70
_space_group.IT_coordinate_system_code '2'
_symmetry_cell_setting 'orthorhombic'
loop_
_space_group_symop_operation_xyz
x,y,z
1/4-x,1/4-y,z
x,1/4-y,1/4-z
1/4-x,y,1/4-z
-x,-y,-z
3/4+x,3/4+y,-z
-x,3/4+y,3/4+z
3/4+x,-y,3/4+z
x,1/2+y,1/2+z
1/4-x,3/4-y,1/2+z
x,3/4-y,3/4-z
1/4-x,1/2+y,3/4-z
-x,1/2-y,1/2-z
3/4+x,1/4+y,1/2-z
-x,1/4+y,1/4+z
3/4+x,1/2-y,1/4+z
1/2+x,y,1/2+z
3/4-x,1/4-y,1/2+z
1/2+x,1/4-y,3/4-z
3/4-x,y,3/4-z
1/2-x,-y,1/2-z
1/4+x,3/4+y,1/2-z
1/2-x,3/4+y,1/4+z
1/4+x,-y,1/4+z
1/2+x,1/2+y,z
3/4-x,3/4-y,z
1/2+x,3/4-y,1/4-z
3/4-x,1/2+y,1/4-z
1/2-x,1/2-y,-z
1/4+x,1/4+y,-z
1/2-x,1/4+y,3/4+z
1/4+x,1/2-y,3/4+z
loop_
_atom_site_type_symbol
_atom_site_label
_atom_site_fract_x
_atom_site_fract_y
_atom_site_fract_z
Si Si1 0.106473 0.757741 0.336433
Si Si2 0.125000 0.625000 0.407548
Si Si3 0.634365 0.811306 0.229282
Si Si4 0.875000 0.875000 0.875000
Si Si5 0.625000 0.625000 0.549050
O O1 0.086195 0.698583 0.377355
O O2 0.178337 0.719099 0.290529
O O3 0.252996 0.821742 0.344917
O O4 0.915499 0.799633 0.328950
O O5 0.295965 0.639096 0.439287
O O6 0.500000 0.750000 0.250000
O O7 0.693027 0.863755 0.270844
#
# Coordination Sequence:
#
# PCOD8286845 Si02
#       5
#    32  16  32   8  16
#     4  12  27  52  82 120 160 214 275 330 398 490
#     4  12  27  53  88 115 159 216 275 335 400 480
#     4  12  26  52  80 117 164 210 267 337 407 476
#     4  12  24  56  72 120 166 200 272 330 396 466
#     4  12  29  51  82 121 163 212 270 332 414 476
#
# _framework density 26.643732
#
# number of rings (size 3 to 8) (size 9 to 14) (size 15 to 20)
#    0.000    0.000    3.077    5.538    0.000    5.538 
#    5.538    0.000    0.000    0.000    0.000    0.000 
#    0.000    0.000    0.000    0.000    0.000    0.000 
#
# Total GULP energy -322485.757868 kJ/mol
# GULP energy per Si atom -12403.298380 kJ/mol
# Density = 2.658309 g / cm^3
# Si number density = 26.643732 Si / 1000 Ang^3
#
#
#
# Elastic Constant Matrix: (Units=GPa)
#
#
# Indices 1 2 3 4 5 6 
#
# 1 119.5716 68.2731 64.1955 0.0000 0.0000 0.0000
# 2 68.2731 160.4708 82.1999 0.0000 0.0000 0.0000
# 3 64.1955 82.1999 145.2589 0.0000 0.0000 0.0000
# 4 0.0000 0.0000 0.0000 36.1596 0.0000 0.0000
# 5 0.0000 0.0000 0.0000 0.0000 48.6161 0.0000
# 6 0.0000 0.0000 0.0000 0.0000 0.0000 66.9911
#
#
#
# Elastic Compliance Matrix: (Units=1/GPa)
#
#
# Indices 1 2 3 4 5 6 
#
# 1 0.012159 -0.003409 -0.003445 0.000000 0.000000 0.000000
# 2 -0.003409 0.009731 -0.004000 0.000000 0.000000 0.000000
# 3 -0.003445 -0.004000 0.010670 0.000000 0.000000 0.000000
# 4 0.000000 0.000000 0.000000 0.027655 0.000000 0.000000
# 5 0.000000 0.000000 0.000000 0.000000 0.020569 0.000000
# 6 0.000000 0.000000 0.000000 0.000000 0.000000 0.014927
#
#
# Mechanical properties :
#
#
# Convention : Reuss Voigt Hill
#
# Bulk Modulus (GPa) = 92.13866 94.95979 93.54923
# Shear Modulus (GPa) = 41.30997 44.39552 42.85275
#
# Velocity S-wave (km/s) = 3.94186 4.08642 4.01479
# Velocity P-wave (km/s) = 7.44140 7.61466 7.52853
#
# Compressibility (1/GPa) = 0.01085321
#
# Stress axis : x y z
#
# Youngs Moduli (GPa) = 82.24550 102.76511 93.71881
#
# Poissons Ratio (x) = 0.35028 0.32282
# Poissons Ratio (y) = 0.28034 0.37490
# Poissons Ratio (z) = 0.28330 0.41108
#
# Static dielectric constant tensor:
#      x y z
#    x 4.913790 0.000000 0.000000 
#    y 0.000000 6.255290 0.000000 
#    z 0.000000 0.000000 4.930460 
# 
# 
# High freq. dielectric constant tensor:
#      x y z
#    x 2.075810 0.000000 0.000000 
#    y 0.000000 2.085130 0.000000 
#    z 0.000000 0.000000 2.086930 
# 
# From -- ./inp_files/8225.got.cif
#   From: 2010.03.12/outbox.cif.g09.slc.cpg/sg70_5_cif.got.tgz:8225.got - 2010.04.16 13:46:32.
