data_PCOD8286789
_publ_section_title
;
Structure prediction by ZEFSAII (Michael W. Deem and Ramdas Pophale) SiO2 
 PCOD8286789
Probable space group: F D D D
;
_chemical_formula_sum "Si O2"
_cell_formula_units_Z 128
_cell_length_a 18.624201
_cell_length_b 16.546037
_cell_length_c 19.167854
_cell_angle_alpha 90.000000
_cell_angle_beta 90.000000
_cell_angle_gamma 90.000000
_cell_volume 5906.702996
_symmetry_space_group_name_H-M "F D D D"
_symmetry_group_IT_number 70
_space_group.IT_coordinate_system_code '2'
_symmetry_cell_setting 'orthorhombic'
loop_
_space_group_symop_operation_xyz
x,y,z
1/4-x,1/4-y,z
x,1/4-y,1/4-z
1/4-x,y,1/4-z
-x,-y,-z
3/4+x,3/4+y,-z
-x,3/4+y,3/4+z
3/4+x,-y,3/4+z
x,1/2+y,1/2+z
1/4-x,3/4-y,1/2+z
x,3/4-y,3/4-z
1/4-x,1/2+y,3/4-z
-x,1/2-y,1/2-z
3/4+x,1/4+y,1/2-z
-x,1/4+y,1/4+z
3/4+x,1/2-y,1/4+z
1/2+x,y,1/2+z
3/4-x,1/4-y,1/2+z
1/2+x,1/4-y,3/4-z
3/4-x,y,3/4-z
1/2-x,-y,1/2-z
1/4+x,3/4+y,1/2-z
1/2-x,3/4+y,1/4+z
1/4+x,-y,1/4+z
1/2+x,1/2+y,z
3/4-x,3/4-y,z
1/2+x,3/4-y,1/4-z
3/4-x,1/2+y,1/4-z
1/2-x,1/2-y,-z
1/4+x,1/4+y,-z
1/2-x,1/4+y,3/4+z
1/4+x,1/2-y,3/4+z
loop_
_atom_site_type_symbol
_atom_site_label
_atom_site_fract_x
_atom_site_fract_y
_atom_site_fract_z
Si Si1 0.943670 0.781823 0.636768
Si Si2 0.476390 0.375000 0.875000
Si Si3 0.875000 0.875000 0.992894
Si Si4 0.434283 0.050437 0.074502
Si Si5 0.799869 0.078960 0.334223
O O1 0.907569 0.805637 0.709489
O O2 0.880701 0.765122 0.580068
O O3 0.979184 0.697646 0.657086
O O4 0.000180 0.847319 0.609529
O O5 0.433035 0.336167 0.940035
O O6 0.420499 0.125000 0.125000
O O7 0.508199 0.005684 0.095975
O O8 0.435404 0.087867 0.997587
O O9 0.875000 0.078050 0.375000
#
# Coordination Sequence:
#
# PCOD8286789 Si02
#       5
#    32  16  16  32  32
#     4  12  25  46  72 102 144 179 232 295 349 416
#     4  11  28  40  74 104 133 188 232 278 371 414
#     4  11  26  48  66 104 141 180 228 300 339 430
#     4  11  26  48  74 105 140 188 236 290 351 419
#     4  11  28  46  74 105 142 187 236 291 350 418
#
# _framework density 21.670296
#
# number of rings (size 3 to 8) (size 9 to 14) (size 15 to 20)
#    0.000    0.750    3.750    0.750   14.000    0.500 
#    0.000    0.000    0.000    0.000    0.000    0.000 
#    0.000    0.000    0.000    0.000    0.000    0.000 
#
# Total GULP energy -396729.860533 kJ/mol
# GULP energy per Si atom -12397.808142 kJ/mol
# Density = 2.162097 g / cm^3
# Si number density = 21.670296 Si / 1000 Ang^3
#
#
#
# Elastic Constant Matrix: (Units=GPa)
#
#
# Indices 1 2 3 4 5 6 
#
# 1 160.8037 73.3058 81.2959 0.0000 0.0000 0.0000
# 2 73.3058 126.4153 75.3907 0.0000 0.0000 0.0000
# 3 81.2959 75.3907 153.6343 0.0000 0.0000 0.0000
# 4 0.0000 0.0000 0.0000 28.4403 0.0000 0.0000
# 5 0.0000 0.0000 0.0000 0.0000 -672.9506 0.0000
# 6 0.0000 0.0000 0.0000 0.0000 0.0000 23.7757
#
#
#
# Elastic Compliance Matrix: (Units=1/GPa)
#
#
# Indices 1 2 3 4 5 6 
#
# 1 0.009497 -0.003548 -0.003284 0.000000 0.000000 0.000000
# 2 -0.003548 0.012509 -0.004261 0.000000 0.000000 0.000000
# 3 -0.003284 -0.004261 0.010337 0.000000 0.000000 0.000000
# 4 0.000000 0.000000 0.000000 0.035161 0.000000 0.000000
# 5 0.000000 0.000000 0.000000 0.000000 -0.001486 0.000000
# 6 0.000000 0.000000 0.000000 0.000000 0.000000 0.042060
#
#
# Mechanical properties :
#
#
# Convention : Reuss Voigt Hill
#
# Bulk Modulus (GPa) = 98.45418 100.09314 99.27366
# Shear Modulus (GPa) = 37.41112 -110.08953 -36.33920
#
# Velocity S-wave (km/s) = 4.15948 -7.13529 -4.09946
# Velocity P-wave (km/s) = 8.28250 4.64691 4.84799
#
# Compressibility (1/GPa) = 0.01015701
#
# Stress axis : x y z
#
# Youngs Moduli (GPa) = 105.30090 79.94168 96.73596
#
# Poissons Ratio (x) = 0.28367 0.31767
# Poissons Ratio (y) = 0.37366 0.41217
# Poissons Ratio (z) = 0.34579 0.34061
#
# Static dielectric constant tensor:
#      x y z
#    x 4.379890 0.000000 0.000000 
#    y 0.000000 3.832620 0.000000 
#    z 0.000000 0.000000 3.957910 
# 
# 
# High freq. dielectric constant tensor:
#      x y z
#    x 1.872280 0.000000 0.000000 
#    y 0.000000 1.853110 0.000000 
#    z 0.000000 0.000000 1.856370 
# 
# From -- ./inp_files/44503.got.cif
#   From: 2010.03.12/outbox.cif.g09.slc.cpg/sg70_23_cif.got.tgz:44503.got - 2010.04.16 13:46:32.
