data_PCOD8286254
_publ_section_title
;
Structure prediction by ZEFSAII (Michael W. Deem and Ramdas Pophale) SiO2 
 PCOD8286254
Probable space group: F D D D
;
_chemical_formula_sum "Si O2"
_cell_formula_units_Z 216
_cell_length_a 14.691692
_cell_length_b 24.979140
_cell_length_c 28.689131
_cell_angle_alpha 90.000000
_cell_angle_beta 90.000000
_cell_angle_gamma 90.000000
_cell_volume 10528.504589
_symmetry_space_group_name_H-M "F D D D"
_symmetry_group_IT_number 70
_space_group.IT_coordinate_system_code '2'
_symmetry_cell_setting 'orthorhombic'
loop_
_space_group_symop_operation_xyz
x,y,z
1/4-x,1/4-y,z
x,1/4-y,1/4-z
1/4-x,y,1/4-z
-x,-y,-z
3/4+x,3/4+y,-z
-x,3/4+y,3/4+z
3/4+x,-y,3/4+z
x,1/2+y,1/2+z
1/4-x,3/4-y,1/2+z
x,3/4-y,3/4-z
1/4-x,1/2+y,3/4-z
-x,1/2-y,1/2-z
3/4+x,1/4+y,1/2-z
-x,1/4+y,1/4+z
3/4+x,1/2-y,1/4+z
1/2+x,y,1/2+z
3/4-x,1/4-y,1/2+z
1/2+x,1/4-y,3/4-z
3/4-x,y,3/4-z
1/2-x,-y,1/2-z
1/4+x,3/4+y,1/2-z
1/2-x,3/4+y,1/4+z
1/4+x,-y,1/4+z
1/2+x,1/2+y,z
3/4-x,3/4-y,z
1/2+x,3/4-y,1/4-z
3/4-x,1/2+y,1/4-z
1/2-x,1/2-y,-z
1/4+x,1/4+y,-z
1/2-x,1/4+y,3/4+z
1/4+x,1/2-y,3/4+z
loop_
_atom_site_type_symbol
_atom_site_label
_atom_site_fract_x
_atom_site_fract_y
_atom_site_fract_z
Si Si1 0.936454 0.185758 0.788896
Si Si2 0.356763 0.996954 0.125494
Si Si3 0.731386 0.178252 0.812520
Si Si4 0.875000 0.875000 0.375000
Si Si5 0.259434 0.199012 0.563841
Si Si6 0.533509 0.075710 0.597153
Si Si7 0.625000 0.625000 0.013750
Si Si8 0.725895 0.345174 0.637671
O O1 0.829620 0.194311 0.793968
O O2 0.975394 0.240660 0.808213
O O3 0.972484 0.136878 0.819959
O O4 0.968532 0.172853 0.736278
O O5 0.440313 0.975605 0.156212
O O6 0.298573 0.950826 0.098759
O O7 0.395303 0.042315 0.090745
O O8 0.284380 0.026367 0.158484
O O9 0.670931 0.170546 0.767184
O O10 0.734175 0.123408 0.841729
O O11 0.811472 0.838064 0.407908
O O12 0.487713 0.125000 0.625000
O O13 0.625000 0.058751 0.625000
O O14 0.552068 0.093677 0.544621
O O15 0.625000 0.322875 0.625000
#
# Coordination Sequence:
#
# PCOD8286254 Si02
#       8
#    32  32  32   8  32  32  16  32
#     4  10  24  44  66  97 128 177 217 277 329 390
#     4  12  22  39  68  98 126 176 216 272 334 389
#     4  11  21  39  65  94 131 164 214 270 329 388
#     4  12  28  48  66 100 138 174 224 276 322 404
#     4  11  26  43  70  94 132 173 225 267 333 391
#     4   9  23  42  62  86 135 173 213 268 326 388
#     4  10  21  40  61  92 126 171 208 263 320 404
#     4  10  21  41  66  94 136 169 219 270 334 387
#
# _framework density 20.515734999999999
#
# number of rings (size 3 to 8) (size 9 to 14) (size 15 to 20)
#    0.000    1.630    2.963    1.333    6.222    2.963 
#    0.000    1.481    0.000    0.000    0.000    0.000 
#    0.000    0.000    0.000    0.000    0.000    0.000 
#
# Total GULP energy -669448.310378 kJ/mol
# GULP energy per Si atom -12397.190933 kJ/mol
# Density = 2.046904 g / cm^3
# Si number density = 20.515735 Si / 1000 Ang^3
#
#
#
# Elastic Constant Matrix: (Units=GPa)
#
#
# Indices 1 2 3 4 5 6 
#
# 1 106.1600 54.4767 52.3475 0.0000 0.0000 0.0000
# 2 54.4767 79.0688 41.9431 0.0000 0.0000 0.0000
# 3 52.3475 41.9431 134.9670 0.0000 0.0000 0.0000
# 4 0.0000 0.0000 0.0000 15.2341 0.0000 0.0000
# 5 0.0000 0.0000 0.0000 0.0000 113.6369 0.0000
# 6 0.0000 0.0000 0.0000 0.0000 0.0000 44.3613
#
#
#
# Elastic Compliance Matrix: (Units=1/GPa)
#
#
# Indices 1 2 3 4 5 6 
#
# 1 0.015687 -0.009077 -0.003263 0.000000 0.000000 0.000000
# 2 -0.009077 0.020396 -0.002818 0.000000 0.000000 0.000000
# 3 -0.003263 -0.002818 0.009551 0.000000 0.000000 0.000000
# 4 0.000000 0.000000 0.000000 0.065642 0.000000 0.000000
# 5 0.000000 0.000000 0.000000 0.000000 0.008800 0.000000
# 6 0.000000 0.000000 0.000000 0.000000 0.000000 0.022542
#
#
# Mechanical properties :
#
#
# Convention : Reuss Voigt Hill
#
# Bulk Modulus (GPa) = 65.28662 68.63672 66.96167
# Shear Modulus (GPa) = 28.08376 46.07504 37.07940
#
# Velocity S-wave (km/s) = 3.70386 4.74417 4.25592
# Velocity P-wave (km/s) = 7.08401 7.97106 7.54059
#
# Compressibility (1/GPa) = 0.01531708
#
# Stress axis : x y z
#
# Youngs Moduli (GPa) = 63.74833 49.03020 104.70510
#
# Poissons Ratio (x) = 0.44503 0.34170
# Poissons Ratio (y) = 0.57862 0.29504
# Poissons Ratio (z) = 0.20804 0.13816
#
# Static dielectric constant tensor:
#      x y z
#    x 3.957410 0.000000 0.000000 
#    y 0.000000 3.602520 0.000000 
#    z 0.000000 0.000000 3.749940 
# 
# 
# High freq. dielectric constant tensor:
#      x y z
#    x 1.817360 0.000000 0.000000 
#    y 0.000000 1.794570 0.000000 
#    z 0.000000 0.000000 1.799980 
# 
# From -- ./inp_files/58803.got.cif
#   From: 2010.03.12/outbox.cif.g09.slc.cpg/sg70_30_cif.got.tgz:58803.got - 2010.04.16 13:46:32.
