data_PCOD8286999
_publ_section_title
;
Structure prediction by ZEFSAII (Michael W. Deem and Ramdas Pophale) SiO2 
 PCOD8286999
Probable space group: I M M M
;
_chemical_formula_sum "Si O2"
_cell_formula_units_Z 104
_cell_length_a 16.890877
_cell_length_b 27.018267
_cell_length_c 16.751483
_cell_angle_alpha 90.000000
_cell_angle_beta 90.000000
_cell_angle_gamma 90.000000
_cell_volume 7644.744048
_symmetry_space_group_name_H-M "I M M M"
_symmetry_group_IT_number 71
_symmetry_cell_setting 'orthorhombic'
loop_
_space_group_symop_operation_xyz
x,y,z
-x,-y,z
x,-y,-z
-x,y,-z
-x,-y,-z
x,y,-z
-x,y,z
x,-y,z
1/2+x,1/2+y,1/2+z
1/2-x,1/2-y,1/2+z
1/2+x,1/2-y,1/2-z
1/2-x,1/2+y,1/2-z
1/2-x,1/2-y,1/2-z
1/2+x,1/2+y,1/2-z
1/2-x,1/2+y,1/2+z
1/2+x,1/2-y,1/2+z
loop_
_atom_site_type_symbol
_atom_site_label
_atom_site_fract_x
_atom_site_fract_y
_atom_site_fract_z
Si Si1 0.406406 0.292067 0.088606
Si Si2 0.308625 0.091903 0.094923
Si Si3 0.088354 0.683453 0.405163
Si Si4 0.093653 0.945366 0.500000
Si Si5 0.412446 0.000000 0.094401
Si Si6 0.500000 0.441481 0.588380
Si Si7 0.406301 0.607528 0.839493
Si Si8 0.346195 0.440711 0.316529
O O1 0.500000 0.292758 0.078218
O O2 0.380856 0.237944 0.121764
O O3 0.382467 0.334482 0.152175
O O4 0.369688 0.301929 0.000000
O O5 0.348795 0.142852 0.124401
O O6 0.226670 0.085148 0.140113
O O7 0.366639 0.048447 0.123260
O O8 0.293390 0.090430 0.000000
O O9 0.082848 0.681826 0.500000
O O10 0.000000 0.672417 0.370647
O O11 0.121999 0.917187 0.421487
O O12 0.000000 0.948228 0.500000
O O13 0.131186 0.000000 0.500000
O O14 0.500000 0.000000 0.132772
O O15 0.419502 0.000000 0.000000
O O16 0.500000 0.500000 0.582514
O O17 0.500000 0.417965 0.500000
O O18 0.577320 0.423414 0.634448
O O19 0.500000 0.599824 0.823347
O O20 0.354749 0.581484 0.771552
O O21 0.336622 0.500000 0.313350
#
# Coordination Sequence:
#
# PCOD8286999 Si02
#       8
#    16  16  16   8   8   8  16  16
#     4   8  13  24  42  62  81 104 134 166 204 254
#     4  10  18  28  41  59  83 111 141 171 206 242
#     4   8  14  25  43  64  83 104 133 166 205 257
#     4   9  16  24  38  58  80 104 134 169 209 255
#     4   9  16  26  42  61  81 104 133 165 203 254
#     4   9  18  30  42  51  69 109 157 186 200 221
#     4  10  17  27  41  59  81 108 142 175 207 247
#     4  11  20  29  39  56  82 113 147 180 205 233
#
# _framework density 13.604118
#
# number of rings (size 3 to 8) (size 9 to 14) (size 15 to 20)
#    0.000    2.692    2.308    2.308    0.000    3.077 
#    0.000    0.769    0.000    0.000    0.000    0.000 
#    0.000    0.000    0.000    3.462    0.000    0.000 
#
# Total GULP energy -644454.089848 kJ/mol
# GULP energy per Si atom -12393.347882 kJ/mol
# Density = 1.357315 g / cm^3
# Si number density = 13.604118 Si / 1000 Ang^3
#
#
#
# Elastic Constant Matrix: (Units=GPa)
#
#
# Indices 1 2 3 4 5 6 
#
# 1 75.5311 40.4268 32.3818 -0.0004 0.0000 0.0003
# 2 40.4268 108.3526 34.3458 0.0004 -0.0001 -0.0002
# 3 32.3818 34.3458 65.2385 0.0016 0.0000 -0.0007
# 4 -0.0004 0.0004 0.0016 14.8756 0.0000 -0.0009
# 5 0.0000 -0.0001 0.0000 0.0000 8.0634 -0.0001
# 6 0.0003 -0.0002 -0.0007 -0.0009 -0.0001 -3.9447
#
#
#
# Elastic Compliance Matrix: (Units=1/GPa)
#
#
# Indices 1 2 3 4 5 6 
#
# 1 0.018725 -0.004850 -0.006741 0.000001 0.000000 0.000003
# 2 -0.004850 0.012334 -0.004086 0.000000 0.000000 0.000000
# 3 -0.006741 -0.004086 0.020826 -0.000002 0.000000 -0.000004
# 4 0.000001 0.000000 -0.000002 0.067224 0.000000 -0.000015
# 5 0.000000 0.000000 0.000000 0.000000 0.124016 -0.000002
# 6 0.000003 0.000000 -0.000004 -0.000015 -0.000002 -0.253506
#
#
# Mechanical properties :
#
#
# Convention : Reuss Voigt Hill
#
# Bulk Modulus (GPa) = 48.70775 51.49234 50.10005
# Shear Modulus (GPa) = 179.74031 13.26339 96.50185
#
# Velocity S-wave (km/s) = 11.50690 3.12581 8.43147
# Velocity P-wave (km/s) = 14.57486 7.13865 11.47577
#
# Compressibility (1/GPa) = 0.02053061
#
# Stress axis : x y z
#
# Youngs Moduli (GPa) = 53.40323 81.07816 48.01741
#
# Poissons Ratio (x) = 0.39320 0.32371
# Poissons Ratio (y) = 0.25899 0.19621
# Poissons Ratio (z) = 0.36001 0.33130
#
# Static dielectric constant tensor:
#      x y z
#    x 2.520270 0.000000 0.000000 
#    y 0.000000 3.078050 0.000000 
#    z 0.000000 0.000000 2.513280 
# 
# 
# High freq. dielectric constant tensor:
#      x y z
#    x 1.486780 0.000000 0.000000 
#    y 0.000000 1.526580 0.000000 
#    z 0.000000 0.000000 1.486790 
# 
# From -- ./inp_files/45320.got.cif
#   From: 2010.06.25/outbox.cif.g09.slc.cpg/sg71_23_cif.got.tgz:45320.got - 2010.06.28 04:59:45.
