data_PCOD8286086
_publ_section_title
;
Structure prediction by ZEFSAII (Michael W. Deem and Ramdas Pophale) SiO2 
 PCOD8286086
Probable space group: F D D D
;
_chemical_formula_sum "Si O2"
_cell_formula_units_Z 176
_cell_length_a 23.621815
_cell_length_b 26.032487
_cell_length_c 14.504310
_cell_angle_alpha 90.000000
_cell_angle_beta 90.000000
_cell_angle_gamma 90.000000
_cell_volume 8919.201951
_symmetry_space_group_name_H-M "F D D D"
_symmetry_group_IT_number 70
_space_group.IT_coordinate_system_code '2'
_symmetry_cell_setting 'orthorhombic'
loop_
_space_group_symop_operation_xyz
x,y,z
1/4-x,1/4-y,z
x,1/4-y,1/4-z
1/4-x,y,1/4-z
-x,-y,-z
3/4+x,3/4+y,-z
-x,3/4+y,3/4+z
3/4+x,-y,3/4+z
x,1/2+y,1/2+z
1/4-x,3/4-y,1/2+z
x,3/4-y,3/4-z
1/4-x,1/2+y,3/4-z
-x,1/2-y,1/2-z
3/4+x,1/4+y,1/2-z
-x,1/4+y,1/4+z
3/4+x,1/2-y,1/4+z
1/2+x,y,1/2+z
3/4-x,1/4-y,1/2+z
1/2+x,1/4-y,3/4-z
3/4-x,y,3/4-z
1/2-x,-y,1/2-z
1/4+x,3/4+y,1/2-z
1/2-x,3/4+y,1/4+z
1/4+x,-y,1/4+z
1/2+x,1/2+y,z
3/4-x,3/4-y,z
1/2+x,3/4-y,1/4-z
3/4-x,1/2+y,1/4-z
1/2-x,1/2-y,-z
1/4+x,1/4+y,-z
1/2-x,1/4+y,3/4+z
1/4+x,1/2-y,3/4+z
loop_
_atom_site_type_symbol
_atom_site_label
_atom_site_fract_x
_atom_site_fract_y
_atom_site_fract_z
Si Si1 0.667502 0.375000 0.375000
Si Si2 0.375000 0.554531 0.375000
Si Si3 0.522012 0.368706 0.064995
Si Si4 0.875000 0.783091 0.875000
Si Si5 0.258053 0.017836 0.353981
Si Si6 0.597089 0.175638 0.435479
Si Si7 0.357152 0.232553 0.179175
O O1 0.706624 0.383090 0.286363
O O2 0.628929 0.324088 0.362541
O O3 0.320048 0.591168 0.374292
O O4 0.374126 0.517361 0.463592
O O5 0.502347 0.420881 0.114524
O O6 0.469785 0.330030 0.054153
O O7 0.930026 0.747844 0.888737
O O8 0.879359 0.817686 0.783461
O O9 0.250000 0.000000 0.250000
O O10 0.210181 0.992273 0.418290
O O11 0.625000 0.125000 0.389673
O O12 0.606298 0.225044 0.372061
#
# Coordination Sequence:
#
# PCOD8286086 Si02
#       7
#    16  16  32  16  32  32  32
#     4  10  20  38  65  90 130 161 206 266 332 380
#     4  10  25  44  63  85 130 184 229 258 306 382
#     4  11  22  38  63  94 124 171 210 269 325 392
#     4  12  22  34  62  97 132 167 197 255 344 414
#     4  12  21  39  63  99 133 164 207 270 329 389
#     4  12  24  37  64  97 130 162 209 268 339 393
#     4  11  23  43  63  92 132 172 214 269 317 381
#
# _framework density 19.732707000000001
#
# number of rings (size 3 to 8) (size 9 to 14) (size 15 to 20)
#    0.000    0.727    5.455    3.000    2.545    2.182 
#    0.000    0.455    0.000    2.182    0.000    0.000 
#    0.000    0.000    0.000    0.000    0.000    0.000 
#
# Total GULP energy -545732.811095 kJ/mol
# GULP energy per Si atom -12403.018434 kJ/mol
# Density = 1.968779 g / cm^3
# Si number density = 19.732707 Si / 1000 Ang^3
#
#
#
# Elastic Constant Matrix: (Units=GPa)
#
#
# Indices 1 2 3 4 5 6 
#
# 1 90.3696 28.9358 41.2742 0.0000 0.0000 0.0000
# 2 28.9358 138.0279 57.2117 0.0000 0.0000 0.0000
# 3 41.2742 57.2117 125.8513 0.0000 0.0000 0.0000
# 4 0.0000 0.0000 0.0000 28.0641 0.0000 0.0000
# 5 0.0000 0.0000 0.0000 0.0000 31.0954 0.0000
# 6 0.0000 0.0000 0.0000 0.0000 0.0000 37.0000
#
#
#
# Elastic Compliance Matrix: (Units=1/GPa)
#
#
# Indices 1 2 3 4 5 6 
#
# 1 0.013174 -0.001196 -0.003777 0.000000 0.000000 0.000000
# 2 -0.001196 0.009036 -0.003715 0.000000 0.000000 0.000000
# 3 -0.003777 -0.003715 0.010873 0.000000 0.000000 0.000000
# 4 0.000000 0.000000 0.000000 0.035633 0.000000 0.000000
# 5 0.000000 0.000000 0.000000 0.000000 0.032159 0.000000
# 6 0.000000 0.000000 0.000000 0.000000 0.000000 0.027027
#
#
# Mechanical properties :
#
#
# Convention : Reuss Voigt Hill
#
# Bulk Modulus (GPa) = 63.66841 67.67690 65.67265
# Shear Modulus (GPa) = 33.21970 34.35371 33.78670
#
# Velocity S-wave (km/s) = 4.10748 4.17700 4.14239
# Velocity P-wave (km/s) = 7.40477 7.59173 7.49883
#
# Compressibility (1/GPa) = 0.01570638
#
# Stress axis : x y z
#
# Youngs Moduli (GPa) = 75.90959 110.67276 91.96767
#
# Poissons Ratio (x) = 0.13240 0.34732
# Poissons Ratio (y) = 0.09081 0.34168
# Poissons Ratio (z) = 0.28668 0.41118
#
# Static dielectric constant tensor:
#      x y z
#    x 3.655040 0.000000 0.000000 
#    y 0.000000 3.802390 0.000000 
#    z 0.000000 0.000000 3.431360 
# 
# 
# High freq. dielectric constant tensor:
#      x y z
#    x 1.767010 0.000000 0.000000 
#    y 0.000000 1.783920 0.000000 
#    z 0.000000 0.000000 1.746940 
# 
# From -- ./inp_files/28992.got.cif
#   From: 2010.03.12/outbox.cif.g09.slc.cpg/sg70_15_cif.got.tgz:28992.got - 2010.04.16 13:46:32.
