data_PCOD8286733
_publ_section_title
;
Structure prediction by ZEFSAII (Michael W. Deem and Ramdas Pophale) SiO2 
 PCOD8286733
Probable space group: F D D D
;
_chemical_formula_sum "Si O2"
_cell_formula_units_Z 144
_cell_length_a 14.575934
_cell_length_b 22.903884
_cell_length_c 20.063691
_cell_angle_alpha 90.000000
_cell_angle_beta 90.000000
_cell_angle_gamma 90.000000
_cell_volume 6698.172984
_symmetry_space_group_name_H-M "F D D D"
_symmetry_group_IT_number 70
_space_group.IT_coordinate_system_code '2'
_symmetry_cell_setting 'orthorhombic'
loop_
_space_group_symop_operation_xyz
x,y,z
1/4-x,1/4-y,z
x,1/4-y,1/4-z
1/4-x,y,1/4-z
-x,-y,-z
3/4+x,3/4+y,-z
-x,3/4+y,3/4+z
3/4+x,-y,3/4+z
x,1/2+y,1/2+z
1/4-x,3/4-y,1/2+z
x,3/4-y,3/4-z
1/4-x,1/2+y,3/4-z
-x,1/2-y,1/2-z
3/4+x,1/4+y,1/2-z
-x,1/4+y,1/4+z
3/4+x,1/2-y,1/4+z
1/2+x,y,1/2+z
3/4-x,1/4-y,1/2+z
1/2+x,1/4-y,3/4-z
3/4-x,y,3/4-z
1/2-x,-y,1/2-z
1/4+x,3/4+y,1/2-z
1/2-x,3/4+y,1/4+z
1/4+x,-y,1/4+z
1/2+x,1/2+y,z
3/4-x,3/4-y,z
1/2+x,3/4-y,1/4-z
3/4-x,1/2+y,1/4-z
1/2-x,1/2-y,-z
1/4+x,1/4+y,-z
1/2-x,1/4+y,3/4+z
1/4+x,1/2-y,3/4+z
loop_
_atom_site_type_symbol
_atom_site_label
_atom_site_fract_x
_atom_site_fract_y
_atom_site_fract_z
Si Si1 0.881397 0.283917 0.297615
Si Si2 0.065133 0.375000 0.875000
Si Si3 0.969676 0.543860 0.803946
Si Si4 0.032348 0.236288 0.678005
Si Si5 0.689804 0.912034 0.753635
O O1 0.875000 0.297720 0.375000
O O2 0.784110 0.286344 0.260000
O O3 0.916636 0.218627 0.288837
O O4 0.951814 0.332780 0.270380
O O5 0.129515 0.343100 0.929475
O O6 0.998901 0.328711 0.840195
O O7 0.893188 0.492464 0.813554
O O8 0.016060 0.534105 0.876799
O O9 0.922920 0.606969 0.795143
O O10 0.000000 0.250000 0.750000
#
# Coordination Sequence:
#
# PCOD8286733 Si02
#       5
#    32  16  32  32  32
#     4  11  25  43  69 107 137 184 240 298 372 442
#     4  12  22  47  73 104 144 202 242 314 387 449
#     4  11  24  45  68 104 141 188 244 298 374 446
#     4  11  25  43  76 102 146 192 242 305 370 459
#     4  11  24  42  71  98 143 183 236 307 364 443
#
# _framework density 21.498398999999999
#
# number of rings (size 3 to 8) (size 9 to 14) (size 15 to 20)
#    0.000    0.889    4.444    2.000    3.111    2.667 
#    0.000    0.000    4.889    0.000    0.000    0.000 
#    0.000    0.000    0.000    0.000    0.000    0.000 
#
# Total GULP energy -446076.384930 kJ/mol
# GULP energy per Si atom -12391.010692 kJ/mol
# Density = 2.144947 g / cm^3
# Si number density = 21.498399 Si / 1000 Ang^3
#
#
#
# Elastic Constant Matrix: (Units=GPa)
#
#
# Indices 1 2 3 4 5 6 
#
# 1 110.2669 43.5660 38.2316 0.0000 0.0000 0.0000
# 2 43.5660 104.1382 45.9548 0.0000 0.0000 0.0000
# 3 38.2316 45.9548 156.1264 0.0000 0.0000 0.0000
# 4 0.0000 0.0000 0.0000 37.3769 0.0000 0.0000
# 5 0.0000 0.0000 0.0000 0.0000 40.3091 0.0000
# 6 0.0000 0.0000 0.0000 0.0000 0.0000 30.1879
#
#
#
# Elastic Compliance Matrix: (Units=1/GPa)
#
#
# Indices 1 2 3 4 5 6 
#
# 1 0.011188 -0.003990 -0.001565 0.000000 0.000000 0.000000
# 2 -0.003990 0.012459 -0.002690 0.000000 0.000000 0.000000
# 3 -0.001565 -0.002690 0.007580 0.000000 0.000000 0.000000
# 4 0.000000 0.000000 0.000000 0.026754 0.000000 0.000000
# 5 0.000000 0.000000 0.000000 0.000000 0.024808 0.000000
# 6 0.000000 0.000000 0.000000 0.000000 0.000000 0.033126
#
#
# Mechanical properties :
#
#
# Convention : Reuss Voigt Hill
#
# Bulk Modulus (GPa) = 67.85835 69.55960 68.70897
# Shear Modulus (GPa) = 36.41175 37.76005 37.08590
#
# Velocity S-wave (km/s) = 4.11992 4.19550 4.15788
# Velocity P-wave (km/s) = 7.36645 7.47634 7.42160
#
# Compressibility (1/GPa) = 0.01473658
#
# Stress axis : x y z
#
# Youngs Moduli (GPa) = 89.38196 80.26424 131.92228
#
# Poissons Ratio (x) = 0.32023 0.20650
# Poissons Ratio (y) = 0.35661 0.35490
# Poissons Ratio (z) = 0.13991 0.21593
#
# Static dielectric constant tensor:
#      x y z
#    x 3.793670 0.000000 0.000000 
#    y 0.000000 3.227860 0.000000 
#    z 0.000000 0.000000 4.658970 
# 
# 
# High freq. dielectric constant tensor:
#      x y z
#    x 1.840690 0.000000 0.000000 
#    y 0.000000 1.850230 0.000000 
#    z 0.000000 0.000000 1.860170 
# 
# From -- ./inp_files/34923.got.cif
#   From: 2010.03.12/outbox.cif.g09.slc.cpg/sg70_18_cif.got.tgz:34923.got - 2010.04.16 13:46:32.
