data_PCOD8286547
_publ_section_title
;
Structure prediction by ZEFSAII (Michael W. Deem and Ramdas Pophale) SiO2 
 PCOD8286547
Probable space group: F D D D
;
_chemical_formula_sum "Si O2"
_cell_formula_units_Z 136
_cell_length_a 19.023336
_cell_length_b 13.253885
_cell_length_c 24.713498
_cell_angle_alpha 90.000000
_cell_angle_beta 90.000000
_cell_angle_gamma 90.000000
_cell_volume 6231.091052
_symmetry_space_group_name_H-M "F D D D"
_symmetry_group_IT_number 70
_space_group.IT_coordinate_system_code '2'
_symmetry_cell_setting 'orthorhombic'
loop_
_space_group_symop_operation_xyz
x,y,z
1/4-x,1/4-y,z
x,1/4-y,1/4-z
1/4-x,y,1/4-z
-x,-y,-z
3/4+x,3/4+y,-z
-x,3/4+y,3/4+z
3/4+x,-y,3/4+z
x,1/2+y,1/2+z
1/4-x,3/4-y,1/2+z
x,3/4-y,3/4-z
1/4-x,1/2+y,3/4-z
-x,1/2-y,1/2-z
3/4+x,1/4+y,1/2-z
-x,1/4+y,1/4+z
3/4+x,1/2-y,1/4+z
1/2+x,y,1/2+z
3/4-x,1/4-y,1/2+z
1/2+x,1/4-y,3/4-z
3/4-x,y,3/4-z
1/2-x,-y,1/2-z
1/4+x,3/4+y,1/2-z
1/2-x,3/4+y,1/4+z
1/4+x,-y,1/4+z
1/2+x,1/2+y,z
3/4-x,3/4-y,z
1/2+x,3/4-y,1/4-z
3/4-x,1/2+y,1/4-z
1/2-x,1/2-y,-z
1/4+x,1/4+y,-z
1/2-x,1/4+y,3/4+z
1/4+x,1/2-y,3/4+z
loop_
_atom_site_type_symbol
_atom_site_label
_atom_site_fract_x
_atom_site_fract_y
_atom_site_fract_z
Si Si1 0.593356 0.375000 0.875000
Si Si2 0.625000 0.125000 0.213956
Si Si3 0.236435 0.494126 0.687401
Si Si4 0.448147 0.709268 0.894534
Si Si5 0.125000 0.125000 0.125000
Si Si6 0.173770 0.214943 0.432760
O O1 0.550820 0.286559 0.846601
O O2 0.639418 0.323508 0.921638
O O3 0.679964 0.187223 0.176717
O O4 0.674085 0.053048 0.251966
O O5 0.250000 0.500000 0.750000
O O6 0.233321 0.373702 0.681986
O O7 0.168693 0.554392 0.665865
O O8 0.375000 0.662253 0.875000
O O9 0.498268 0.722956 0.842397
O O10 0.125000 0.125000 0.407041
#
# Coordination Sequence:
#
# PCOD8286547 Si02
#       6
#    16  16  32  32   8  32
#     4  11  22  45  71 102 139 188 242 304 351 420
#     4  10  25  48  71 108 140 199 238 287 386 424
#     4  11  23  42  71 101 135 189 240 296 370 419
#     4  12  25  46  69 107 145 189 242 299 360 442
#     4  10  24  44  66 102 150 174 238 324 342 440
#     4  10  24  48  69 100 147 184 241 300 350 439
#
# _framework density 21.826034
#
# number of rings (size 3 to 8) (size 9 to 14) (size 15 to 20)
#    0.706    0.471    3.529    1.765    3.294    2.824 
#    4.235    0.000    0.000    0.000    0.000    0.000 
#    0.000    0.000    0.000    0.000    0.000    0.000 
#
# Total GULP energy -421195.144427 kJ/mol
# GULP energy per Si atom -12388.092483 kJ/mol
# Density = 2.177636 g / cm^3
# Si number density = 21.826034 Si / 1000 Ang^3
#
#
#
# Elastic Constant Matrix: (Units=GPa)
#
#
# Indices 1 2 3 4 5 6 
#
# 1 121.0272 37.8077 50.4231 0.0000 0.0000 0.0000
# 2 37.8077 124.0590 52.9195 0.0000 0.0000 0.0000
# 3 50.4231 52.9195 151.0640 0.0000 0.0000 0.0000
# 4 0.0000 0.0000 0.0000 33.5050 0.0000 0.0000
# 5 0.0000 0.0000 0.0000 0.0000 18.5724 0.0000
# 6 0.0000 0.0000 0.0000 0.0000 0.0000 35.3991
#
#
#
# Elastic Compliance Matrix: (Units=1/GPa)
#
#
# Indices 1 2 3 4 5 6 
#
# 1 0.009965 -0.001902 -0.002660 0.000000 0.000000 0.000000
# 2 -0.001902 0.009840 -0.002812 0.000000 0.000000 0.000000
# 3 -0.002660 -0.002812 0.008493 0.000000 0.000000 0.000000
# 4 0.000000 0.000000 0.000000 0.029846 0.000000 0.000000
# 5 0.000000 0.000000 0.000000 0.000000 0.053843 0.000000
# 6 0.000000 0.000000 0.000000 0.000000 0.000000 0.028249
#
#
# Mechanical properties :
#
#
# Convention : Reuss Voigt Hill
#
# Bulk Modulus (GPa) = 73.80498 75.38341 74.59420
# Shear Modulus (GPa) = 31.34768 34.49528 32.92148
#
# Velocity S-wave (km/s) = 3.79390 3.97982 3.88797
# Velocity P-wave (km/s) = 7.28561 7.46538 7.37604
#
# Compressibility (1/GPa) = 0.01354922
#
# Stress axis : x y z
#
# Youngs Moduli (GPa) = 100.35120 101.62632 117.74932
#
# Poissons Ratio (x) = 0.19333 0.31319
# Poissons Ratio (y) = 0.19090 0.33112
# Poissons Ratio (z) = 0.26691 0.28578
#
# Static dielectric constant tensor:
#      x y z
#    x 4.003860 0.000000 0.000000 
#    y 0.000000 4.027460 0.000000 
#    z 0.000000 0.000000 3.555560 
# 
# 
# High freq. dielectric constant tensor:
#      x y z
#    x 1.859150 0.000000 0.000000 
#    y 0.000000 1.871100 0.000000 
#    z 0.000000 0.000000 1.856600 
# 
# From -- ./inp_files/51046.got.cif
#   From: 2010.03.12/outbox.cif.g09.slc.cpg/sg70_26_cif.got.tgz:51046.got - 2010.04.16 13:46:32.
