data_PCOD8286516
_publ_section_title
;
Structure prediction by ZEFSAII (Michael W. Deem and Ramdas Pophale) SiO2 
 PCOD8286516
Probable space group: F D D D
;
_chemical_formula_sum "Si O2"
_cell_formula_units_Z 208
_cell_length_a 27.953113
_cell_length_b 20.261139
_cell_length_c 16.474750
_cell_angle_alpha 90.000000
_cell_angle_beta 90.000000
_cell_angle_gamma 90.000000
_cell_volume 9330.670843
_symmetry_space_group_name_H-M "F D D D"
_symmetry_group_IT_number 70
_space_group.IT_coordinate_system_code '2'
_symmetry_cell_setting 'orthorhombic'
loop_
_space_group_symop_operation_xyz
x,y,z
1/4-x,1/4-y,z
x,1/4-y,1/4-z
1/4-x,y,1/4-z
-x,-y,-z
3/4+x,3/4+y,-z
-x,3/4+y,3/4+z
3/4+x,-y,3/4+z
x,1/2+y,1/2+z
1/4-x,3/4-y,1/2+z
x,3/4-y,3/4-z
1/4-x,1/2+y,3/4-z
-x,1/2-y,1/2-z
3/4+x,1/4+y,1/2-z
-x,1/4+y,1/4+z
3/4+x,1/2-y,1/4+z
1/2+x,y,1/2+z
3/4-x,1/4-y,1/2+z
1/2+x,1/4-y,3/4-z
3/4-x,y,3/4-z
1/2-x,-y,1/2-z
1/4+x,3/4+y,1/2-z
1/2-x,3/4+y,1/4+z
1/4+x,-y,1/4+z
1/2+x,1/2+y,z
3/4-x,3/4-y,z
1/2+x,3/4-y,1/4-z
3/4-x,1/2+y,1/4-z
1/2-x,1/2-y,-z
1/4+x,1/4+y,-z
1/2-x,1/4+y,3/4+z
1/4+x,1/2-y,3/4+z
loop_
_atom_site_type_symbol
_atom_site_label
_atom_site_fract_x
_atom_site_fract_y
_atom_site_fract_z
Si Si1 0.592266 0.070199 0.354848
Si Si2 0.821659 0.037442 0.729188
Si Si3 0.743830 0.938033 0.532334
Si Si4 0.526957 0.625000 0.625000
Si Si5 0.101132 0.885072 0.541930
Si Si6 0.847552 0.278136 0.956995
Si Si7 0.474949 0.302385 0.858090
O O1 0.625000 0.125000 0.399977
O O2 0.537475 0.092023 0.336247
O O3 0.615296 0.060378 0.267361
O O4 0.595346 0.006265 0.409630
O O5 0.859461 0.096842 0.738519
O O6 0.770874 0.065662 0.699445
O O7 0.813645 0.993011 0.810118
O O8 0.747331 0.924200 0.435008
O O9 0.694960 0.907227 0.562928
O O10 0.740017 0.015976 0.557099
O O11 0.554183 0.672102 0.688860
O O12 0.125000 0.903811 0.625000
O O13 0.083355 0.956017 0.505581
O O14 0.875000 0.268058 0.875000
O O15 0.452786 0.375000 0.875000
#
# Coordination Sequence:
#
# PCOD8286516 Si02
#       7
#    32  32  32  16  32  32  32
#     4  11  22  43  69 100 137 184 234 291 349 423
#     4  10  24  43  66 101 132 179 243 289 346 424
#     4  11  24  43  68 101 142 182 233 292 351 434
#     4  12  23  44  72 108 142 182 240 282 367 438
#     4  11  25  45  66  97 141 184 226 293 353 416
#     4  11  22  41  73  99 139 187 222 282 360 430
#     4  10  23  45  72  98 134 183 238 297 357 418
#
# _framework density 22.292072999999998
#
# number of rings (size 3 to 8) (size 9 to 14) (size 15 to 20)
#    0.000    1.231    4.615    0.231    4.308    3.077 
#    2.769    0.769    0.000    0.000    0.000    0.000 
#    0.000    0.000    0.000    0.000    0.000    0.000 
#
# Total GULP energy -644246.096480 kJ/mol
# GULP energy per Si atom -12389.348009 kJ/mol
# Density = 2.224134 g / cm^3
# Si number density = 22.292073 Si / 1000 Ang^3
#
#
#
# Elastic Constant Matrix: (Units=GPa)
#
#
# Indices 1 2 3 4 5 6 
#
# 1 82.9297 38.4819 14.4884 0.0000 0.0000 0.0000
# 2 38.4819 142.5890 41.9558 0.0000 0.0000 0.0000
# 3 14.4884 41.9558 96.5018 0.0000 0.0000 0.0000
# 4 0.0000 0.0000 0.0000 27.3981 0.0000 0.0000
# 5 0.0000 0.0000 0.0000 0.0000 18.2002 0.0000
# 6 0.0000 0.0000 0.0000 0.0000 0.0000 14.3606
#
#
#
# Elastic Compliance Matrix: (Units=1/GPa)
#
#
# Indices 1 2 3 4 5 6 
#
# 1 0.013807 -0.003574 -0.000519 0.000000 0.000000 0.000000
# 2 -0.003574 0.008967 -0.003362 0.000000 0.000000 0.000000
# 3 -0.000519 -0.003362 0.011902 0.000000 0.000000 0.000000
# 4 0.000000 0.000000 0.000000 0.036499 0.000000 0.000000
# 5 0.000000 0.000000 0.000000 0.000000 0.054945 0.000000
# 6 0.000000 0.000000 0.000000 0.000000 0.000000 0.069635
#
#
# Mechanical properties :
#
#
# Convention : Reuss Voigt Hill
#
# Bulk Modulus (GPa) = 50.59017 56.87474 53.73246
# Shear Modulus (GPa) = 23.01460 27.13139 25.07300
#
# Velocity S-wave (km/s) = 3.21660 3.49246 3.35737
# Velocity P-wave (km/s) = 6.04474 6.46776 6.25982
#
# Compressibility (1/GPa) = 0.01976668
#
# Stress axis : x y z
#
# Youngs Moduli (GPa) = 72.42519 111.52234 84.01850
#
# Poissons Ratio (x) = 0.39853 0.04363
# Poissons Ratio (y) = 0.25881 0.28247
# Poissons Ratio (z) = 0.03761 0.37493
#
# Static dielectric constant tensor:
#      x y z
#    x 3.890270 0.000000 0.000000 
#    y 0.000000 4.578880 0.000000 
#    z 0.000000 0.000000 4.050580 
# 
# 
# High freq. dielectric constant tensor:
#      x y z
#    x 1.865000 0.000000 0.000000 
#    y 0.000000 1.886540 0.000000 
#    z 0.000000 0.000000 1.869500 
# 
# From -- ./inp_files/38729.got.cif
#   From: 2010.03.12/outbox.cif.g09.slc.cpg/sg70_20_cif.got.tgz:38729.got - 2010.04.16 13:46:32.
