data_PCOD8286695
_publ_section_title
;
Structure prediction by ZEFSAII (Michael W. Deem and Ramdas Pophale) SiO2 
 PCOD8286695
Probable space group: F D D D
;
_chemical_formula_sum "Si O2"
_cell_formula_units_Z 96
_cell_length_a 25.471295
_cell_length_b 13.300758
_cell_length_c 13.500021
_cell_angle_alpha 90.000000
_cell_angle_beta 90.000000
_cell_angle_gamma 90.000000
_cell_volume 4573.638780
_symmetry_space_group_name_H-M "F D D D"
_symmetry_group_IT_number 70
_space_group.IT_coordinate_system_code '2'
_symmetry_cell_setting 'orthorhombic'
loop_
_space_group_symop_operation_xyz
x,y,z
1/4-x,1/4-y,z
x,1/4-y,1/4-z
1/4-x,y,1/4-z
-x,-y,-z
3/4+x,3/4+y,-z
-x,3/4+y,3/4+z
3/4+x,-y,3/4+z
x,1/2+y,1/2+z
1/4-x,3/4-y,1/2+z
x,3/4-y,3/4-z
1/4-x,1/2+y,3/4-z
-x,1/2-y,1/2-z
3/4+x,1/4+y,1/2-z
-x,1/4+y,1/4+z
3/4+x,1/2-y,1/4+z
1/2+x,y,1/2+z
3/4-x,1/4-y,1/2+z
1/2+x,1/4-y,3/4-z
3/4-x,y,3/4-z
1/2-x,-y,1/2-z
1/4+x,3/4+y,1/2-z
1/2-x,3/4+y,1/4+z
1/4+x,-y,1/4+z
1/2+x,1/2+y,z
3/4-x,3/4-y,z
1/2+x,3/4-y,1/4-z
3/4-x,1/2+y,1/4-z
1/2-x,1/2-y,-z
1/4+x,1/4+y,-z
1/2-x,1/4+y,3/4+z
1/4+x,1/2-y,3/4+z
loop_
_atom_site_type_symbol
_atom_site_label
_atom_site_fract_x
_atom_site_fract_y
_atom_site_fract_z
Si Si1 0.089564 0.531495 0.828911
Si Si2 0.620865 0.333091 0.011480
Si Si3 0.497898 0.133154 0.732764
O O1 0.125000 0.625000 0.797842
O O2 0.101196 0.440271 0.753937
O O3 0.029601 0.567980 0.814217
O O4 0.099901 0.499095 0.942633
O O5 0.625000 0.298910 0.125000
O O6 0.560587 0.338947 0.979297
O O7 0.524234 0.125000 0.625000
O O8 0.500000 0.250000 0.750000
#
# Coordination Sequence:
#
# PCOD8286695 Si02
#       3
#    32  32  32
#     4  11  23  41  66 100 134 179 236 285 339 406
#     4  11  24  43  64 101 142 175 230 286 346 414
#     4  12  22  41  70  98 132 182 235 287 342 407
#
# _framework density 20.989851000000002
#
# number of rings (size 3 to 8) (size 9 to 14) (size 15 to 20)
#    0.000    0.667    6.667    2.000    0.000    2.000 
#    0.000    3.333    0.000    0.000    0.000    0.000 
#    0.000    0.000    0.000    0.000    0.000    0.000 
#
# Total GULP energy -297608.833572 kJ/mol
# GULP energy per Si atom -12400.368066 kJ/mol
# Density = 2.094208 g / cm^3
# Si number density = 20.989851 Si / 1000 Ang^3
#
#
#
# Elastic Constant Matrix: (Units=GPa)
#
#
# Indices 1 2 3 4 5 6 
#
# 1 123.5916 62.2966 51.7126 0.0000 0.0000 0.0000
# 2 62.2966 112.6717 42.5001 0.0000 0.0000 0.0000
# 3 51.7126 42.5001 164.6566 0.0000 0.0000 0.0000
# 4 0.0000 0.0000 0.0000 26.6239 0.0000 0.0000
# 5 0.0000 0.0000 0.0000 0.0000 31.3140 0.0000
# 6 0.0000 0.0000 0.0000 0.0000 0.0000 38.8219
#
#
#
# Elastic Compliance Matrix: (Units=1/GPa)
#
#
# Indices 1 2 3 4 5 6 
#
# 1 0.011934 -0.005744 -0.002266 0.000000 0.000000 0.000000
# 2 -0.005744 0.012597 -0.001448 0.000000 0.000000 0.000000
# 3 -0.002266 -0.001448 0.007158 0.000000 0.000000 0.000000
# 4 0.000000 0.000000 0.000000 0.037560 0.000000 0.000000
# 5 0.000000 0.000000 0.000000 0.000000 0.031935 0.000000
# 6 0.000000 0.000000 0.000000 0.000000 0.000000 0.025759
#
#
# Mechanical properties :
#
#
# Convention : Reuss Voigt Hill
#
# Bulk Modulus (GPa) = 78.27266 79.32651 78.79958
# Shear Modulus (GPa) = 33.30752 35.64600 34.47676
#
# Velocity S-wave (km/s) = 3.98784 4.12545 4.05723
# Velocity P-wave (km/s) = 7.65346 7.78250 7.71825
#
# Compressibility (1/GPa) = 0.01277585
#
# Stress axis : x y z
#
# Youngs Moduli (GPa) = 83.79157 79.38257 139.69598
#
# Poissons Ratio (x) = 0.45597 0.31649
# Poissons Ratio (y) = 0.48130 0.20222
# Poissons Ratio (z) = 0.18983 0.11491
#
# Static dielectric constant tensor:
#      x y z
#    x 3.976740 0.000000 0.000000 
#    y 0.000000 3.856950 0.000000 
#    z 0.000000 0.000000 3.573910 
# 
# 
# High freq. dielectric constant tensor:
#      x y z
#    x 1.820020 0.000000 0.000000 
#    y 0.000000 1.826980 0.000000 
#    z 0.000000 0.000000 1.826410 
# 
# From -- ./inp_files/26979.got.cif
#   From: 2010.03.12/outbox.cif.g09.slc.cpg/sg70_14_cif.got.tgz:26979.got - 2010.04.16 13:46:32.
