data_PCOD8286343
_publ_section_title
;
Structure prediction by ZEFSAII (Michael W. Deem and Ramdas Pophale) SiO2 
 PCOD8286343
Probable space group: F D D D
;
_chemical_formula_sum "Si O2"
_cell_formula_units_Z 168
_cell_length_a 17.980040
_cell_length_b 15.012510
_cell_length_c 32.085649
_cell_angle_alpha 90.000000
_cell_angle_beta 90.000000
_cell_angle_gamma 90.000000
_cell_volume 8660.735821
_symmetry_space_group_name_H-M "F D D D"
_symmetry_group_IT_number 70
_space_group.IT_coordinate_system_code '2'
_symmetry_cell_setting 'orthorhombic'
loop_
_space_group_symop_operation_xyz
x,y,z
1/4-x,1/4-y,z
x,1/4-y,1/4-z
1/4-x,y,1/4-z
-x,-y,-z
3/4+x,3/4+y,-z
-x,3/4+y,3/4+z
3/4+x,-y,3/4+z
x,1/2+y,1/2+z
1/4-x,3/4-y,1/2+z
x,3/4-y,3/4-z
1/4-x,1/2+y,3/4-z
-x,1/2-y,1/2-z
3/4+x,1/4+y,1/2-z
-x,1/4+y,1/4+z
3/4+x,1/2-y,1/4+z
1/2+x,y,1/2+z
3/4-x,1/4-y,1/2+z
1/2+x,1/4-y,3/4-z
3/4-x,y,3/4-z
1/2-x,-y,1/2-z
1/4+x,3/4+y,1/2-z
1/2-x,3/4+y,1/4+z
1/4+x,-y,1/4+z
1/2+x,1/2+y,z
3/4-x,3/4-y,z
1/2+x,3/4-y,1/4-z
3/4-x,1/2+y,1/4-z
1/2-x,1/2-y,-z
1/4+x,1/4+y,-z
1/2-x,1/4+y,3/4+z
1/4+x,1/2-y,3/4+z
loop_
_atom_site_type_symbol
_atom_site_label
_atom_site_fract_x
_atom_site_fract_y
_atom_site_fract_z
Si Si1 0.102255 0.026075 0.469187
Si Si2 0.684493 0.554234 0.225916
Si Si3 0.714631 0.421081 0.418123
Si Si4 0.685872 0.997299 0.190748
Si Si5 0.662682 0.947263 0.583449
Si Si6 0.125000 0.625000 0.125000
O O1 0.125000 0.125000 0.454220
O O2 0.018440 0.009242 0.457076
O O3 0.144888 0.943961 0.447201
O O4 0.115707 0.018616 0.519041
O O5 0.625000 0.625000 0.248949
O O6 0.750000 0.500000 0.250000
O O7 0.725720 0.606769 0.189449
O O8 0.630775 0.479990 0.207254
O O9 0.688229 0.375000 0.375000
O O10 0.753410 0.517027 0.412922
O O11 0.660371 0.907987 0.168481
O O12 0.679745 0.070382 0.154837
O O13 0.625000 0.983297 0.625000
#
# Coordination Sequence:
#
# PCOD8286343 Si02
#       6
#    32  32  32  32  32   8
#     4  11  23  42  62  87 124 170 206 259 322 379
#     4  10  22  39  62  93 128 162 209 264 327 378
#     4  11  22  39  64  92 122 162 214 254 311 391
#     4  11  24  41  63  90 125 164 215 257 324 378
#     4  11  20  38  65  88 120 164 201 256 315 384
#     4  12  24  40  64  96 122 164 218 276 300 408
#
# _framework density 19.39789
#
# number of rings (size 3 to 8) (size 9 to 14) (size 15 to 20)
#    0.000    1.143    5.714    1.143    1.333    0.000 
#    0.000    2.857    0.000    0.000    0.000    0.000 
#    0.000    0.000    0.000    0.000    0.000    0.000 
#
# Total GULP energy -520365.250252 kJ/mol
# GULP energy per Si atom -12389.648816 kJ/mol
# Density = 1.935374 g / cm^3
# Si number density = 19.397890 Si / 1000 Ang^3
#
#
#
# Elastic Constant Matrix: (Units=GPa)
#
#
# Indices 1 2 3 4 5 6 
#
# 1 75.8259 30.8558 39.6298 0.0000 0.0000 0.0000
# 2 30.8558 109.8198 46.7425 0.0000 0.0000 0.0000
# 3 39.6298 46.7425 113.8325 0.0000 0.0000 0.0000
# 4 0.0000 0.0000 0.0000 39.7375 0.0000 0.0000
# 5 0.0000 0.0000 0.0000 0.0000 29.3004 0.0000
# 6 0.0000 0.0000 0.0000 0.0000 0.0000 31.9285
#
#
#
# Elastic Compliance Matrix: (Units=1/GPa)
#
#
# Indices 1 2 3 4 5 6 
#
# 1 0.016755 -0.002696 -0.004726 0.000000 0.000000 0.000000
# 2 -0.002696 0.011468 -0.003770 0.000000 0.000000 0.000000
# 3 -0.004726 -0.003770 0.011978 0.000000 0.000000 0.000000
# 4 0.000000 0.000000 0.000000 0.025165 0.000000 0.000000
# 5 0.000000 0.000000 0.000000 0.000000 0.034129 0.000000
# 6 0.000000 0.000000 0.000000 0.000000 0.000000 0.031320
#
#
# Mechanical properties :
#
#
# Convention : Reuss Voigt Hill
#
# Bulk Modulus (GPa) = 56.12783 59.32604 57.72693
# Shear Modulus (GPa) = 31.41875 32.34328 31.88102
#
# Velocity S-wave (km/s) = 4.02892 4.08776 4.05845
# Velocity P-wave (km/s) = 7.11623 7.27529 7.19620
#
# Compressibility (1/GPa) = 0.01781647
#
# Stress axis : x y z
#
# Youngs Moduli (GPa) = 59.68258 87.19784 83.48320
#
# Poissons Ratio (x) = 0.23510 0.39455
# Poissons Ratio (y) = 0.16091 0.31477
# Poissons Ratio (z) = 0.28207 0.32878
#
# Static dielectric constant tensor:
#      x y z
#    x 3.367460 0.000000 0.000000 
#    y 0.000000 3.819280 0.000000 
#    z 0.000000 0.000000 3.569390 
# 
# 
# High freq. dielectric constant tensor:
#      x y z
#    x 1.754170 0.000000 0.000000 
#    y 0.000000 1.769300 0.000000 
#    z 0.000000 0.000000 1.745830 
# 
# From -- ./inp_files/29831.got.cif
#   From: 2010.03.12/outbox.cif.g09.slc.cpg/sg70_15_cif.got.tgz:29831.got - 2010.04.16 13:46:32.
