data_PCOD8286324
_publ_section_title
;
Structure prediction by ZEFSAII (Michael W. Deem and Ramdas Pophale) SiO2 
 PCOD8286324
Probable space group: F D D D
;
_chemical_formula_sum "Si O2"
_cell_formula_units_Z 176
_cell_length_a 32.846201
_cell_length_b 21.492842
_cell_length_c 11.056682
_cell_angle_alpha 90.000000
_cell_angle_beta 90.000000
_cell_angle_gamma 90.000000
_cell_volume 7805.555415
_symmetry_space_group_name_H-M "F D D D"
_symmetry_group_IT_number 70
_space_group.IT_coordinate_system_code '2'
_symmetry_cell_setting 'orthorhombic'
loop_
_space_group_symop_operation_xyz
x,y,z
1/4-x,1/4-y,z
x,1/4-y,1/4-z
1/4-x,y,1/4-z
-x,-y,-z
3/4+x,3/4+y,-z
-x,3/4+y,3/4+z
3/4+x,-y,3/4+z
x,1/2+y,1/2+z
1/4-x,3/4-y,1/2+z
x,3/4-y,3/4-z
1/4-x,1/2+y,3/4-z
-x,1/2-y,1/2-z
3/4+x,1/4+y,1/2-z
-x,1/4+y,1/4+z
3/4+x,1/2-y,1/4+z
1/2+x,y,1/2+z
3/4-x,1/4-y,1/2+z
1/2+x,1/4-y,3/4-z
3/4-x,y,3/4-z
1/2-x,-y,1/2-z
1/4+x,3/4+y,1/2-z
1/2-x,3/4+y,1/4+z
1/4+x,-y,1/4+z
1/2+x,1/2+y,z
3/4-x,3/4-y,z
1/2+x,3/4-y,1/4-z
3/4-x,1/2+y,1/4-z
1/2-x,1/2-y,-z
1/4+x,1/4+y,-z
1/2-x,1/4+y,3/4+z
1/4+x,1/2-y,3/4+z
loop_
_atom_site_type_symbol
_atom_site_label
_atom_site_fract_x
_atom_site_fract_y
_atom_site_fract_z
Si Si1 0.534351 0.846744 0.005316
Si Si2 0.537559 0.133610 0.836094
Si Si3 0.575582 0.258585 0.873843
Si Si4 0.078288 0.954441 0.613840
Si Si5 0.272557 0.125000 0.125000
Si Si6 0.079810 0.508133 0.859500
O O1 0.542924 0.875000 0.875000
O O2 0.552763 0.776829 0.993627
O O3 0.486822 0.849949 0.040078
O O4 0.557084 0.886854 0.109122
O O5 0.559278 0.198358 0.801981
O O6 0.506885 0.107877 0.735425
O O7 0.572740 0.082037 0.850804
O O8 0.551365 0.319042 0.828022
O O9 0.623437 0.262514 0.843245
O O10 0.566473 0.255251 0.018161
O O11 0.125000 0.938396 0.625000
O O12 0.065164 0.992639 0.495520
#
# Coordination Sequence:
#
# PCOD8286324 Si02
#       6
#    32  32  32  32  16  32
#     4  10  22  37  65  95 132 168 219 268 330 388
#     4  12  25  44  65  99 138 173 218 280 341 394
#     4  11  24  43  69  95 135 179 224 272 333 400
#     4   9  20  39  65 101 130 168 223 273 328 394
#     4  12  26  46  67  94 134 180 236 268 323 402
#     4  10  24  41  67 100 137 172 222 272 339 402
#
# _framework density 22.548043
#
# number of rings (size 3 to 8) (size 9 to 14) (size 15 to 20)
#    0.000    1.455    1.818    2.182    8.909    1.455 
#    0.000    6.364    0.000    0.000    0.000    0.000 
#    0.000    0.000    0.000    0.000    0.000    0.000 
#
# Total GULP energy -545342.880582 kJ/mol
# GULP energy per Si atom -12394.156377 kJ/mol
# Density = 2.249672 g / cm^3
# Si number density = 22.548043 Si / 1000 Ang^3
#
#
#
# Elastic Constant Matrix: (Units=GPa)
#
#
# Indices 1 2 3 4 5 6 
#
# 1 82.3454 38.5778 27.6305 0.0000 0.0000 0.0000
# 2 38.5778 138.0497 12.5036 0.0000 0.0000 0.0000
# 3 27.6305 12.5036 47.9451 0.0000 0.0000 0.0000
# 4 0.0000 0.0000 0.0000 24.3419 0.0000 0.0000
# 5 0.0000 0.0000 0.0000 0.0000 28.7128 0.0000
# 6 0.0000 0.0000 0.0000 0.0000 0.0000 43.4733
#
#
#
# Elastic Compliance Matrix: (Units=1/GPa)
#
#
# Indices 1 2 3 4 5 6 
#
# 1 0.016915 -0.003937 -0.008721 0.000000 0.000000 0.000000
# 2 -0.003937 0.008335 0.000095 0.000000 0.000000 0.000000
# 3 -0.008721 0.000095 0.025858 0.000000 0.000000 0.000000
# 4 0.000000 0.000000 0.000000 0.041081 0.000000 0.000000
# 5 0.000000 0.000000 0.000000 0.000000 0.034828 0.000000
# 6 0.000000 0.000000 0.000000 0.000000 0.000000 0.023003
#
#
# Mechanical properties :
#
#
# Convention : Reuss Voigt Hill
#
# Bulk Modulus (GPa) = 38.48765 47.30713 42.89739
# Shear Modulus (GPa) = 27.20249 31.94750 29.57500
#
# Velocity S-wave (km/s) = 3.47713 3.76821 3.62559
# Velocity P-wave (km/s) = 5.76427 6.32129 6.04919
#
# Compressibility (1/GPa) = 0.02598236
#
# Stress axis : x y z
#
# Youngs Moduli (GPa) = 59.12024 119.97138 38.67225
#
# Poissons Ratio (x) = 0.47231 0.33727
# Poissons Ratio (y) = 0.23275 -0.00368
# Poissons Ratio (z) = 0.51560 -0.01140
#
# Static dielectric constant tensor:
#      x y z
#    x 4.003190 0.000000 0.000000 
#    y 0.000000 3.937370 0.000000 
#    z 0.000000 0.000000 4.107660 
# 
# 
# High freq. dielectric constant tensor:
#      x y z
#    x 1.892740 0.000000 0.000000 
#    y 0.000000 1.884260 0.000000 
#    z 0.000000 0.000000 1.882310 
# 
# From -- ./inp_files/22276.got.cif
#   From: 2010.03.12/outbox.cif.g09.slc.cpg/sg70_12_cif.got.tgz:22276.got - 2010.04.16 13:46:32.
