data_PCOD8286657
_publ_section_title
;
Structure prediction by ZEFSAII (Michael W. Deem and Ramdas Pophale) SiO2 
 PCOD8286657
Probable space group: F D D D
;
_chemical_formula_sum "Si O2"
_cell_formula_units_Z 224
_cell_length_a 27.021981
_cell_length_b 18.130884
_cell_length_c 20.795218
_cell_angle_alpha 90.000000
_cell_angle_beta 90.000000
_cell_angle_gamma 90.000000
_cell_volume 10188.251125
_symmetry_space_group_name_H-M "F D D D"
_symmetry_group_IT_number 70
_space_group.IT_coordinate_system_code '2'
_symmetry_cell_setting 'orthorhombic'
loop_
_space_group_symop_operation_xyz
x,y,z
1/4-x,1/4-y,z
x,1/4-y,1/4-z
1/4-x,y,1/4-z
-x,-y,-z
3/4+x,3/4+y,-z
-x,3/4+y,3/4+z
3/4+x,-y,3/4+z
x,1/2+y,1/2+z
1/4-x,3/4-y,1/2+z
x,3/4-y,3/4-z
1/4-x,1/2+y,3/4-z
-x,1/2-y,1/2-z
3/4+x,1/4+y,1/2-z
-x,1/4+y,1/4+z
3/4+x,1/2-y,1/4+z
1/2+x,y,1/2+z
3/4-x,1/4-y,1/2+z
1/2+x,1/4-y,3/4-z
3/4-x,y,3/4-z
1/2-x,-y,1/2-z
1/4+x,3/4+y,1/2-z
1/2-x,3/4+y,1/4+z
1/4+x,-y,1/4+z
1/2+x,1/2+y,z
3/4-x,3/4-y,z
1/2+x,3/4-y,1/4-z
3/4-x,1/2+y,1/4-z
1/2-x,1/2-y,-z
1/4+x,1/4+y,-z
1/2-x,1/4+y,3/4+z
1/4+x,1/2-y,3/4+z
loop_
_atom_site_type_symbol
_atom_site_label
_atom_site_fract_x
_atom_site_fract_y
_atom_site_fract_z
Si Si1 0.321452 0.912694 0.500458
Si Si2 0.218491 0.375000 0.375000
Si Si3 0.786765 0.459310 0.972850
Si Si4 0.771833 0.012281 0.902306
Si Si5 0.529992 0.379370 0.043597
Si Si6 0.156723 0.737535 0.876444
Si Si7 0.125000 0.125000 0.772794
Si Si8 0.562782 0.941552 0.417878
O O1 0.375000 0.875000 0.495917
O O2 0.275314 0.856428 0.512355
O O3 0.314583 0.962995 0.436318
O O4 0.313379 0.963345 0.563188
O O5 0.252720 0.406603 0.430699
O O6 0.182597 0.438614 0.346785
O O7 0.791391 0.542845 0.946954
O O8 0.766362 0.459603 0.044916
O O9 0.841206 0.424202 0.976133
O O10 0.791418 0.082585 0.862241
O O11 0.743218 0.961794 0.850871
O O12 0.566912 0.417296 0.992272
O O13 0.158932 0.677275 0.932477
O O14 0.100498 0.743091 0.849718
O O15 0.582169 0.875000 0.375000
#
# Coordination Sequence:
#
# PCOD8286657 Si02
#       8
#    32  16  32  32  32  32  16  32
#     4  11  22  41  70 101 139 181 239 286 343 436
#     4  12  26  43  70 110 146 172 233 310 348 410
#     4  11  25  45  72 103 137 186 235 291 358 415
#     4  11  22  42  68 102 142 185 224 285 361 416
#     4  11  23  45  67  99 145 185 229 289 355 426
#     4  12  23  42  74 103 133 182 245 293 336 423
#     4  12  24  47  80  98 133 194 240 288 354 430
#     4  12  21  40  68  99 134 188 233 284 342 422
#
# _framework density 21.986108999999999
#
# number of rings (size 3 to 8) (size 9 to 14) (size 15 to 20)
#    0.000    0.571    8.571    2.143    0.000    0.857 
#    0.000    5.000    3.143    0.000    0.000    0.000 
#    0.000    0.000    0.000    0.000    0.000    0.000 
#
# Total GULP energy -694222.419887 kJ/mol
# GULP energy per Si atom -12396.828927 kJ/mol
# Density = 2.193607 g / cm^3
# Si number density = 21.986109 Si / 1000 Ang^3
#
#
#
# Elastic Constant Matrix: (Units=GPa)
#
#
# Indices 1 2 3 4 5 6 
#
# 1 77.9651 39.2808 24.8879 0.0000 0.0000 0.0000
# 2 39.2808 100.9216 53.0033 0.0000 0.0000 0.0000
# 3 24.8879 53.0033 75.2127 0.0000 0.0000 0.0000
# 4 0.0000 0.0000 0.0000 46.8531 0.0000 0.0000
# 5 0.0000 0.0000 0.0000 0.0000 31.4057 0.0000
# 6 0.0000 0.0000 0.0000 0.0000 0.0000 39.0825
#
#
#
# Elastic Compliance Matrix: (Units=1/GPa)
#
#
# Indices 1 2 3 4 5 6 
#
# 1 0.016053 -0.005490 -0.001443 0.000000 0.000000 0.000000
# 2 -0.005490 0.017609 -0.010592 0.000000 0.000000 0.000000
# 3 -0.001443 -0.010592 0.021238 0.000000 0.000000 0.000000
# 4 0.000000 0.000000 0.000000 0.021343 0.000000 0.000000
# 5 0.000000 0.000000 0.000000 0.000000 0.031841 0.000000
# 6 0.000000 0.000000 0.000000 0.000000 0.000000 0.025587
#
#
# Mechanical properties :
#
#
# Convention : Reuss Voigt Hill
#
# Bulk Modulus (GPa) = 50.38216 54.27147 52.32681
# Shear Modulus (GPa) = 28.51639 32.59674 30.55656
#
# Velocity S-wave (km/s) = 3.60532 3.85464 3.73206
# Velocity P-wave (km/s) = 6.34794 6.67450 6.51327
#
# Compressibility (1/GPa) = 0.01984830
#
# Stress axis : x y z
#
# Youngs Moduli (GPa) = 62.29354 56.79038 47.08652
#
# Poissons Ratio (x) = 0.31180 0.06794
# Poissons Ratio (y) = 0.34202 0.49875
# Poissons Ratio (z) = 0.08988 0.60154
#
# Static dielectric constant tensor:
#      x y z
#    x 3.820520 0.000000 0.000000 
#    y 0.000000 4.254020 0.000000 
#    z 0.000000 0.000000 4.049180 
# 
# 
# High freq. dielectric constant tensor:
#      x y z
#    x 1.852950 0.000000 0.000000 
#    y 0.000000 1.876050 0.000000 
#    z 0.000000 0.000000 1.855070 
# 
# From -- ./inp_files/47761.got.cif
#   From: 2010.03.12/outbox.cif.g09.slc.cpg/sg70_24_cif.got.tgz:47761.got - 2010.04.16 13:46:32.
