data_PCOD8286594
_publ_section_title
;
Structure prediction by ZEFSAII (Michael W. Deem and Ramdas Pophale) SiO2 
 PCOD8286594
Probable space group: F D D D
;
_chemical_formula_sum "Si O2"
_cell_formula_units_Z 192
_cell_length_a 19.853326
_cell_length_b 23.134945
_cell_length_c 19.379814
_cell_angle_alpha 90.000000
_cell_angle_beta 90.000000
_cell_angle_gamma 90.000000
_cell_volume 8901.257196
_symmetry_space_group_name_H-M "F D D D"
_symmetry_group_IT_number 70
_space_group.IT_coordinate_system_code '2'
_symmetry_cell_setting 'orthorhombic'
loop_
_space_group_symop_operation_xyz
x,y,z
1/4-x,1/4-y,z
x,1/4-y,1/4-z
1/4-x,y,1/4-z
-x,-y,-z
3/4+x,3/4+y,-z
-x,3/4+y,3/4+z
3/4+x,-y,3/4+z
x,1/2+y,1/2+z
1/4-x,3/4-y,1/2+z
x,3/4-y,3/4-z
1/4-x,1/2+y,3/4-z
-x,1/2-y,1/2-z
3/4+x,1/4+y,1/2-z
-x,1/4+y,1/4+z
3/4+x,1/2-y,1/4+z
1/2+x,y,1/2+z
3/4-x,1/4-y,1/2+z
1/2+x,1/4-y,3/4-z
3/4-x,y,3/4-z
1/2-x,-y,1/2-z
1/4+x,3/4+y,1/2-z
1/2-x,3/4+y,1/4+z
1/4+x,-y,1/4+z
1/2+x,1/2+y,z
3/4-x,3/4-y,z
1/2+x,3/4-y,1/4-z
3/4-x,1/2+y,1/4-z
1/2-x,1/2-y,-z
1/4+x,1/4+y,-z
1/2-x,1/4+y,3/4+z
1/4+x,1/2-y,3/4+z
loop_
_atom_site_type_symbol
_atom_site_label
_atom_site_fract_x
_atom_site_fract_y
_atom_site_fract_z
Si Si1 0.789385 0.163482 0.721479
Si Si2 0.744545 0.402596 0.943846
Si Si3 0.314572 0.829458 0.046201
Si Si4 0.596601 0.802874 0.326131
Si Si5 0.602979 0.504260 0.701819
Si Si6 0.661972 0.564780 0.947392
O O1 0.813538 0.196179 0.651876
O O2 0.796630 0.093544 0.719613
O O3 0.837082 0.187439 0.782246
O O4 0.712669 0.182908 0.737836
O O5 0.778417 0.375000 0.875000
O O6 0.667914 0.415439 0.925894
O O7 0.783760 0.460550 0.964738
O O8 0.749997 0.358034 0.008473
O O9 0.375000 0.875000 0.045570
O O10 0.297638 0.808845 0.124234
O O11 0.337222 0.773943 0.002480
O O12 0.607041 0.737708 0.297129
O O13 0.625000 0.512948 0.625000
O O14 0.625000 0.625000 0.947048
#
# Coordination Sequence:
#
# PCOD8286594 Si02
#       6
#    32  32  32  32  32  32
#     4  11  24  42  65  96 132 181 222 273 340 410
#     4  11  19  36  62  94 141 190 209 263 335 403
#     4   9  20  34  61  98 136 177 218 266 330 400
#     4  11  24  45  66  92 137 177 222 286 348 398
#     4  11  20  33  60 102 140 175 227 261 324 417
#     4  11  24  45  71  96 130 178 231 286 341 397
#
# _framework density 21.569987000000001
#
# number of rings (size 3 to 8) (size 9 to 14) (size 15 to 20)
#    0.000    1.333    6.667    0.000    0.000    2.000 
#    0.000    5.000    0.000    4.000    0.000    0.000 
#    0.000    0.000    0.000    0.000    0.000    0.000 
#
# Total GULP energy -594839.553140 kJ/mol
# GULP energy per Si atom -12392.490690 kJ/mol
# Density = 2.152089 g / cm^3
# Si number density = 21.569987 Si / 1000 Ang^3
#
#
#
# Elastic Constant Matrix: (Units=GPa)
#
#
# Indices 1 2 3 4 5 6 
#
# 1 69.4798 28.6392 50.2353 0.0000 0.0000 0.0000
# 2 28.6392 142.1187 35.4027 0.0000 0.0000 0.0000
# 3 50.2353 35.4027 86.0889 0.0000 0.0000 0.0000
# 4 0.0000 0.0000 0.0000 32.2321 0.0000 0.0000
# 5 0.0000 0.0000 0.0000 0.0000 40.0933 0.0000
# 6 0.0000 0.0000 0.0000 0.0000 0.0000 20.8810
#
#
#
# Elastic Compliance Matrix: (Units=1/GPa)
#
#
# Indices 1 2 3 4 5 6 
#
# 1 0.025210 -0.001577 -0.014062 0.000000 0.000000 0.000000
# 2 -0.001577 0.007938 -0.002344 0.000000 0.000000 0.000000
# 3 -0.014062 -0.002344 0.020786 0.000000 0.000000 0.000000
# 4 0.000000 0.000000 0.000000 0.031025 0.000000 0.000000
# 5 0.000000 0.000000 0.000000 0.000000 0.024942 0.000000
# 6 0.000000 0.000000 0.000000 0.000000 0.000000 0.047890
#
#
# Mechanical properties :
#
#
# Convention : Reuss Voigt Hill
#
# Bulk Modulus (GPa) = 55.65835 58.47133 57.06484
# Shear Modulus (GPa) = 25.03169 30.86861 27.95015
#
# Velocity S-wave (km/s) = 3.41029 3.78708 3.60361
# Velocity P-wave (km/s) = 6.43167 6.80362 6.62026
#
# Compressibility (1/GPa) = 0.01796676
#
# Stress axis : x y z
#
# Youngs Moduli (GPa) = 39.66675 125.97412 48.11036
#
# Poissons Ratio (x) = 0.19869 0.67654
# Poissons Ratio (y) = 0.06256 0.11277
# Poissons Ratio (z) = 0.55780 0.29529
#
# Static dielectric constant tensor:
#      x y z
#    x 3.641920 0.000000 0.000000 
#    y 0.000000 4.189920 0.000000 
#    z 0.000000 0.000000 4.048280 
# 
# 
# High freq. dielectric constant tensor:
#      x y z
#    x 1.823210 0.000000 0.000000 
#    y 0.000000 1.857320 0.000000 
#    z 0.000000 0.000000 1.832850 
# 
# From -- ./inp_files/44992.got.cif
#   From: 2010.03.12/outbox.cif.g09.slc.cpg/sg70_23_cif.got.tgz:44992.got - 2010.04.16 13:46:32.
