data_PCOD8286524
_publ_section_title
;
Structure prediction by ZEFSAII (Michael W. Deem and Ramdas Pophale) SiO2 
 PCOD8286524
Probable space group: F D D D
;
_chemical_formula_sum "Si O2"
_cell_formula_units_Z 112
_cell_length_a 14.905378
_cell_length_b 37.145060
_cell_length_c 9.426684
_cell_angle_alpha 90.000000
_cell_angle_beta 90.000000
_cell_angle_gamma 90.000000
_cell_volume 5219.188800
_symmetry_space_group_name_H-M "F D D D"
_symmetry_group_IT_number 70
_space_group.IT_coordinate_system_code '2'
_symmetry_cell_setting 'orthorhombic'
loop_
_space_group_symop_operation_xyz
x,y,z
1/4-x,1/4-y,z
x,1/4-y,1/4-z
1/4-x,y,1/4-z
-x,-y,-z
3/4+x,3/4+y,-z
-x,3/4+y,3/4+z
3/4+x,-y,3/4+z
x,1/2+y,1/2+z
1/4-x,3/4-y,1/2+z
x,3/4-y,3/4-z
1/4-x,1/2+y,3/4-z
-x,1/2-y,1/2-z
3/4+x,1/4+y,1/2-z
-x,1/4+y,1/4+z
3/4+x,1/2-y,1/4+z
1/2+x,y,1/2+z
3/4-x,1/4-y,1/2+z
1/2+x,1/4-y,3/4-z
3/4-x,y,3/4-z
1/2-x,-y,1/2-z
1/4+x,3/4+y,1/2-z
1/2-x,3/4+y,1/4+z
1/4+x,-y,1/4+z
1/2+x,1/2+y,z
3/4-x,3/4-y,z
1/2+x,3/4-y,1/4-z
3/4-x,1/2+y,1/4-z
1/2-x,1/2-y,-z
1/4+x,1/4+y,-z
1/2-x,1/4+y,3/4+z
1/4+x,1/2-y,3/4+z
loop_
_atom_site_type_symbol
_atom_site_label
_atom_site_fract_x
_atom_site_fract_y
_atom_site_fract_z
Si Si1 0.875000 0.088017 0.875000
Si Si2 0.825301 0.789273 0.601114
Si Si3 0.534839 0.613060 0.284702
Si Si4 0.488818 0.714005 0.548400
O O1 0.797294 0.116050 0.848127
O O2 0.907244 0.062686 0.744801
O O3 0.784764 0.820009 0.702569
O O4 0.800268 0.754015 0.690146
O O5 0.774509 0.795549 0.453329
O O6 0.932448 0.788887 0.570397
O O7 0.625000 0.625000 0.368604
O O8 0.542210 0.625000 0.125000
#
# Coordination Sequence:
#
# PCOD8286524 Si02
#       4
#    16  32  32  32
#     4  12  26  42  70 108 129 194 230 283 348 416
#     4  10  23  47  68 100 138 180 229 293 346 416
#     4  11  26  45  65  98 143 179 227 293 346 408
#     4  10  24  43  72 100 136 181 234 286 351 417
#
# _framework density 21.459274000000001
#
# number of rings (size 3 to 8) (size 9 to 14) (size 15 to 20)
#    0.000    1.429    2.857    0.000    8.000    5.714 
#    0.000    0.000    0.000    0.000    0.000    0.000 
#    0.000    0.000    0.000    0.000    0.000    0.000 
#
# Total GULP energy -346926.940011 kJ/mol
# GULP energy per Si atom -12390.247858 kJ/mol
# Density = 2.141043 g / cm^3
# Si number density = 21.459274 Si / 1000 Ang^3
#
#
#
# Elastic Constant Matrix: (Units=GPa)
#
#
# Indices 1 2 3 4 5 6 
#
# 1 138.0253 76.4722 40.2035 0.0000 0.0000 0.0000
# 2 76.4722 168.6830 53.2979 0.0000 0.0000 0.0000
# 3 40.2035 53.2979 60.3876 0.0000 0.0000 0.0000
# 4 0.0000 0.0000 0.0000 21.1934 0.0000 0.0000
# 5 0.0000 0.0000 0.0000 0.0000 23.7554 0.0000
# 6 0.0000 0.0000 0.0000 0.0000 0.0000 56.9821
#
#
#
# Elastic Compliance Matrix: (Units=1/GPa)
#
#
# Indices 1 2 3 4 5 6 
#
# 1 0.010262 -0.003458 -0.003780 0.000000 0.000000 0.000000
# 2 -0.003458 0.009386 -0.005982 0.000000 0.000000 0.000000
# 3 -0.003780 -0.005982 0.024356 0.000000 0.000000 0.000000
# 4 0.000000 0.000000 0.000000 0.047185 0.000000 0.000000
# 5 0.000000 0.000000 0.000000 0.000000 0.042096 0.000000
# 6 0.000000 0.000000 0.000000 0.000000 0.000000 0.017549
#
#
# Mechanical properties :
#
#
# Convention : Reuss Voigt Hill
#
# Bulk Modulus (GPa) = 56.93423 78.56034 67.74729
# Shear Modulus (GPa) = 27.30334 33.52766 30.41550
#
# Velocity S-wave (km/s) = 3.57085 3.95699 3.76887
# Velocity P-wave (km/s) = 6.60228 7.58720 7.11181
#
# Compressibility (1/GPa) = 0.01756412
#
# Stress axis : x y z
#
# Youngs Moduli (GPa) = 97.44796 106.54194 41.05778
#
# Poissons Ratio (x) = 0.36841 0.15520
# Poissons Ratio (y) = 0.33696 0.24560
# Poissons Ratio (z) = 0.36836 0.63733
#
# Static dielectric constant tensor:
#      x y z
#    x 3.734260 0.000000 0.000000 
#    y 0.000000 4.146790 0.000000 
#    z 0.000000 0.000000 3.620470 
# 
# 
# High freq. dielectric constant tensor:
#      x y z
#    x 1.861500 0.000000 0.000000 
#    y 0.000000 1.859760 0.000000 
#    z 0.000000 0.000000 1.824140 
# 
# From -- ./inp_files/15074.got.cif
#   From: 2010.03.12/outbox.cif.g09.slc.cpg/sg70_8_cif.got.tgz:15074.got - 2010.04.16 13:46:32.
