data_PCOD8286230
_publ_section_title
;
Structure prediction by ZEFSAII (Michael W. Deem and Ramdas Pophale) SiO2 
 PCOD8286230
Probable space group: F D D D
;
_chemical_formula_sum "Si O2"
_cell_formula_units_Z 160
_cell_length_a 23.677293
_cell_length_b 17.120734
_cell_length_c 16.668576
_cell_angle_alpha 90.000000
_cell_angle_beta 90.000000
_cell_angle_gamma 90.000000
_cell_volume 6756.984580
_symmetry_space_group_name_H-M "F D D D"
_symmetry_group_IT_number 70
_space_group.IT_coordinate_system_code '2'
_symmetry_cell_setting 'orthorhombic'
loop_
_space_group_symop_operation_xyz
x,y,z
1/4-x,1/4-y,z
x,1/4-y,1/4-z
1/4-x,y,1/4-z
-x,-y,-z
3/4+x,3/4+y,-z
-x,3/4+y,3/4+z
3/4+x,-y,3/4+z
x,1/2+y,1/2+z
1/4-x,3/4-y,1/2+z
x,3/4-y,3/4-z
1/4-x,1/2+y,3/4-z
-x,1/2-y,1/2-z
3/4+x,1/4+y,1/2-z
-x,1/4+y,1/4+z
3/4+x,1/2-y,1/4+z
1/2+x,y,1/2+z
3/4-x,1/4-y,1/2+z
1/2+x,1/4-y,3/4-z
3/4-x,y,3/4-z
1/2-x,-y,1/2-z
1/4+x,3/4+y,1/2-z
1/2-x,3/4+y,1/4+z
1/4+x,-y,1/4+z
1/2+x,1/2+y,z
3/4-x,3/4-y,z
1/2+x,3/4-y,1/4-z
3/4-x,1/2+y,1/4-z
1/2-x,1/2-y,-z
1/4+x,1/4+y,-z
1/2-x,1/4+y,3/4+z
1/4+x,1/2-y,3/4+z
loop_
_atom_site_type_symbol
_atom_site_label
_atom_site_fract_x
_atom_site_fract_y
_atom_site_fract_z
Si Si1 0.271679 0.267037 0.903934
Si Si2 0.792191 0.589759 0.892919
Si Si3 0.059299 0.651877 0.494072
Si Si4 0.390806 0.675986 0.745164
Si Si5 0.889072 0.014899 0.082971
O O1 0.298638 0.182269 0.905169
O O2 0.299672 0.310042 0.829314
O O3 0.204475 0.271495 0.892953
O O4 0.292304 0.309234 0.988041
O O5 0.730526 0.563784 0.923885
O O6 0.802103 0.567499 0.799406
O O7 0.838621 0.548428 0.948566
O O8 0.127894 0.567369 0.462824
O O9 0.393923 0.732832 0.668740
O O10 0.382703 0.586449 0.719162
#
# Coordination Sequence:
#
# PCOD8286230 Si02
#       5
#    32  32  32  32  32
#     4  11  22  41  59  97 141 163 218 285 336 403
#     4  11  21  39  63  91 131 173 215 281 336 400
#     4  11  22  38  66  92 131 179 213 275 343 398
#     4  10  21  38  63  88 124 175 221 263 336 400
#     4  11  21  41  65  92 126 184 221 269 344 413
#
# _framework density 23.679202
#
# number of rings (size 3 to 8) (size 9 to 14) (size 15 to 20)
#    0.000    1.200    6.000    1.800    0.000    1.600 
#    0.000    0.000    0.000    0.000    0.000    0.000 
#    0.000    0.000    0.000    0.000    0.000    0.000 
#
# Total GULP energy -495631.370283 kJ/mol
# GULP energy per Si atom -12390.784257 kJ/mol
# Density = 2.362531 g / cm^3
# Si number density = 23.679202 Si / 1000 Ang^3
#
#
#
# Elastic Constant Matrix: (Units=GPa)
#
#
# Indices 1 2 3 4 5 6 
#
# 1 137.4212 0.9177 52.1700 0.0000 0.0000 0.0000
# 2 0.9177 59.7634 22.7512 0.0000 0.0000 0.0000
# 3 52.1700 22.7512 143.6641 0.0000 0.0000 0.0000
# 4 0.0000 0.0000 0.0000 23.2376 0.0000 0.0000
# 5 0.0000 0.0000 0.0000 0.0000 45.6390 0.0000
# 6 0.0000 0.0000 0.0000 0.0000 0.0000 20.4995
#
#
#
# Elastic Compliance Matrix: (Units=1/GPa)
#
#
# Indices 1 2 3 4 5 6 
#
# 1 0.008509 0.001113 -0.003266 0.000000 0.000000 0.000000
# 2 0.001113 0.017952 -0.003247 0.000000 0.000000 0.000000
# 3 -0.003266 -0.003247 0.008661 0.000000 0.000000 0.000000
# 4 0.000000 0.000000 0.000000 0.043034 0.000000 0.000000
# 5 0.000000 0.000000 0.000000 0.000000 0.021911 0.000000
# 6 0.000000 0.000000 0.000000 0.000000 0.000000 0.048782
#
#
# Mechanical properties :
#
#
# Convention : Reuss Voigt Hill
#
# Bulk Modulus (GPa) = 41.11664 54.72518 47.92091
# Shear Modulus (GPa) = 29.80509 35.54256 32.67383
#
# Velocity S-wave (km/s) = 3.55167 3.87848 3.71867
# Velocity P-wave (km/s) = 5.84986 6.57405 6.22250
#
# Compressibility (1/GPa) = 0.02432105
#
# Stress axis : x y z
#
# Youngs Moduli (GPa) = 117.51587 55.70524 115.45976
#
# Poissons Ratio (x) = -0.06199 0.37713
# Poissons Ratio (y) = -0.13077 0.37490
# Poissons Ratio (z) = 0.38385 0.18087
#
# Static dielectric constant tensor:
#      x y z
#    x 4.372790 0.000000 0.000000 
#    y 0.000000 4.300480 0.000000 
#    z 0.000000 0.000000 4.739950 
# 
# 
# High freq. dielectric constant tensor:
#      x y z
#    x 1.948000 0.000000 0.000000 
#    y 0.000000 1.914060 0.000000 
#    z 0.000000 0.000000 1.959650 
# 
# From -- ./inp_files/39794.got.cif
#   From: 2010.03.12/outbox.cif.g09.slc.cpg/sg70_20_cif.got.tgz:39794.got - 2010.04.16 13:46:32.
