data_PCOD8286766
_publ_section_title
;
Structure prediction by ZEFSAII (Michael W. Deem and Ramdas Pophale) SiO2 
 PCOD8286766
Probable space group: F D D D
;
_chemical_formula_sum "Si O2"
_cell_formula_units_Z 160
_cell_length_a 10.630122
_cell_length_b 24.911165
_cell_length_c 27.346010
_cell_angle_alpha 90.000000
_cell_angle_beta 90.000000
_cell_angle_gamma 90.000000
_cell_volume 7241.461990
_symmetry_space_group_name_H-M "F D D D"
_symmetry_group_IT_number 70
_space_group.IT_coordinate_system_code '2'
_symmetry_cell_setting 'orthorhombic'
loop_
_space_group_symop_operation_xyz
x,y,z
1/4-x,1/4-y,z
x,1/4-y,1/4-z
1/4-x,y,1/4-z
-x,-y,-z
3/4+x,3/4+y,-z
-x,3/4+y,3/4+z
3/4+x,-y,3/4+z
x,1/2+y,1/2+z
1/4-x,3/4-y,1/2+z
x,3/4-y,3/4-z
1/4-x,1/2+y,3/4-z
-x,1/2-y,1/2-z
3/4+x,1/4+y,1/2-z
-x,1/4+y,1/4+z
3/4+x,1/2-y,1/4+z
1/2+x,y,1/2+z
3/4-x,1/4-y,1/2+z
1/2+x,1/4-y,3/4-z
3/4-x,y,3/4-z
1/2-x,-y,1/2-z
1/4+x,3/4+y,1/2-z
1/2-x,3/4+y,1/4+z
1/4+x,-y,1/4+z
1/2+x,1/2+y,z
3/4-x,3/4-y,z
1/2+x,3/4-y,1/4-z
3/4-x,1/2+y,1/4-z
1/2-x,1/2-y,-z
1/4+x,1/4+y,-z
1/2-x,1/4+y,3/4+z
1/4+x,1/2-y,3/4+z
loop_
_atom_site_type_symbol
_atom_site_label
_atom_site_fract_x
_atom_site_fract_y
_atom_site_fract_z
Si Si1 0.875000 0.875000 0.254944
Si Si2 0.890829 0.636933 0.799120
Si Si3 0.125000 0.125000 0.231584
Si Si4 0.277131 0.571666 0.592863
Si Si5 0.875000 0.020738 0.875000
Si Si6 0.019769 0.530198 0.050077
Si Si7 0.125000 0.450314 0.125000
O O1 0.747324 0.877765 0.222434
O O2 0.883843 0.927920 0.289777
O O3 0.878651 0.692958 0.826926
O O4 0.939501 0.588906 0.835119
O O5 0.002582 0.644448 0.760851
O O6 0.164438 0.174438 0.196747
O O7 0.283000 0.625000 0.625000
O O8 0.248748 0.517594 0.623530
O O9 0.403639 0.568140 0.562242
O O10 0.033258 0.489654 0.095311
O O11 0.000000 0.500000 0.000000
#
# Coordination Sequence:
#
# PCOD8286766 Si02
#       7
#    16  32  16  32  16  32  16
#     4  12  24  48  68 114 146 188 242 303 361 438
#     4  11  27  44  75 106 146 188 246 295 360 438
#     4  12  23  49  68 104 150 186 238 300 352 434
#     4  12  25  48  69 105 148 187 239 303 361 430
#     4  11  25  44  71 103 140 195 233 298 362 426
#     4  12  26  47  75 105 147 193 239 303 365 432
#     4  11  26  47  71 111 143 192 241 306 362 432
#
# _framework density 22.094985999999999
#
# number of rings (size 3 to 8) (size 9 to 14) (size 15 to 20)
#    0.000    0.400    6.000    1.200    5.600    2.400 
#    0.000    0.000    0.000    0.000    0.000    0.000 
#    0.000    0.000    0.000    0.000    0.000    0.000 
#
# Total GULP energy -495657.115568 kJ/mol
# GULP energy per Si atom -12391.427889 kJ/mol
# Density = 2.204470 g / cm^3
# Si number density = 22.094986 Si / 1000 Ang^3
#
#
#
# Elastic Constant Matrix: (Units=GPa)
#
#
# Indices 1 2 3 4 5 6 
#
# 1 117.9835 49.4863 68.0416 0.0000 0.0000 0.0000
# 2 49.4863 167.4119 68.0842 0.0000 0.0000 0.0000
# 3 68.0416 68.0842 117.8304 0.0000 0.0000 0.0000
# 4 0.0000 0.0000 0.0000 24.8142 0.0000 0.0000
# 5 0.0000 0.0000 0.0000 0.0000 39.8970 0.0000
# 6 0.0000 0.0000 0.0000 0.0000 0.0000 26.8296
#
#
#
# Elastic Compliance Matrix: (Units=1/GPa)
#
#
# Indices 1 2 3 4 5 6 
#
# 1 0.012839 -0.001020 -0.006825 0.000000 0.000000 0.000000
# 2 -0.001020 0.007889 -0.003970 0.000000 0.000000 0.000000
# 3 -0.006825 -0.003970 0.014722 0.000000 0.000000 0.000000
# 4 0.000000 0.000000 0.000000 0.040300 0.000000 0.000000
# 5 0.000000 0.000000 0.000000 0.000000 0.025065 0.000000
# 6 0.000000 0.000000 0.000000 0.000000 0.000000 0.037272
#
#
# Mechanical properties :
#
#
# Convention : Reuss Voigt Hill
#
# Bulk Modulus (GPa) = 84.59124 86.05001 85.32063
# Shear Modulus (GPa) = 30.18310 32.81574 31.49942
#
# Velocity S-wave (km/s) = 3.70004 3.85803 3.77986
# Velocity P-wave (km/s) = 7.52476 7.67306 7.59927
#
# Compressibility (1/GPa) = 0.01182156
#
# Stress axis : x y z
#
# Youngs Moduli (GPa) = 77.88493 126.75726 67.92729
#
# Poissons Ratio (x) = 0.12925 0.46361
# Poissons Ratio (y) = 0.07942 0.26965
# Poissons Ratio (z) = 0.53157 0.50318
#
# Static dielectric constant tensor:
#      x y z
#    x 3.769840 0.000000 0.000000 
#    y 0.000000 4.236380 0.000000 
#    z 0.000000 0.000000 4.477550 
# 
# 
# High freq. dielectric constant tensor:
#      x y z
#    x 1.852820 0.000000 0.000000 
#    y 0.000000 1.888740 0.000000 
#    z 0.000000 0.000000 1.884310 
# 
# From -- ./inp_files/64727.got.cif
#   From: 2010.03.12/outbox.cif.g09.slc.cpg/sg70_33_cif.got.tgz:64727.got - 2010.04.16 13:46:32.
