data_PCOD8286800
_publ_section_title
;
Structure prediction by ZEFSAII (Michael W. Deem and Ramdas Pophale) SiO2 
 PCOD8286800
Probable space group: F D D D
;
_chemical_formula_sum "Si O2"
_cell_formula_units_Z 168
_cell_length_a 27.097976
_cell_length_b 19.778124
_cell_length_c 14.788772
_cell_angle_alpha 90.000000
_cell_angle_beta 90.000000
_cell_angle_gamma 90.000000
_cell_volume 7925.999902
_symmetry_space_group_name_H-M "F D D D"
_symmetry_group_IT_number 70
_space_group.IT_coordinate_system_code '2'
_symmetry_cell_setting 'orthorhombic'
loop_
_space_group_symop_operation_xyz
x,y,z
1/4-x,1/4-y,z
x,1/4-y,1/4-z
1/4-x,y,1/4-z
-x,-y,-z
3/4+x,3/4+y,-z
-x,3/4+y,3/4+z
3/4+x,-y,3/4+z
x,1/2+y,1/2+z
1/4-x,3/4-y,1/2+z
x,3/4-y,3/4-z
1/4-x,1/2+y,3/4-z
-x,1/2-y,1/2-z
3/4+x,1/4+y,1/2-z
-x,1/4+y,1/4+z
3/4+x,1/2-y,1/4+z
1/2+x,y,1/2+z
3/4-x,1/4-y,1/2+z
1/2+x,1/4-y,3/4-z
3/4-x,y,3/4-z
1/2-x,-y,1/2-z
1/4+x,3/4+y,1/2-z
1/2-x,3/4+y,1/4+z
1/4+x,-y,1/4+z
1/2+x,1/2+y,z
3/4-x,3/4-y,z
1/2+x,3/4-y,1/4-z
3/4-x,1/2+y,1/4-z
1/2-x,1/2-y,-z
1/4+x,1/4+y,-z
1/2-x,1/4+y,3/4+z
1/4+x,1/2-y,3/4+z
loop_
_atom_site_type_symbol
_atom_site_label
_atom_site_fract_x
_atom_site_fract_y
_atom_site_fract_z
Si Si1 0.625000 0.125000 0.125000
Si Si2 0.927907 0.150665 0.806191
Si Si3 0.859959 0.952233 0.053349
Si Si4 0.625000 0.967761 0.625000
Si Si5 0.901239 0.492317 0.746963
Si Si6 0.278598 0.625000 0.125000
Si Si7 0.997264 0.233633 0.917992
O O1 0.654626 0.172944 0.194944
O O2 0.920568 0.084838 0.869387
O O3 0.882281 0.203361 0.800476
O O4 0.934812 0.118893 0.708512
O O5 0.978226 0.185632 0.837902
O O6 0.875000 0.875000 0.048385
O O7 0.882055 0.983941 0.145071
O O8 0.800832 0.959232 0.050752
O O9 0.882514 0.987702 0.964754
O O10 0.957991 0.519374 0.748497
O O11 0.245917 0.692248 0.122573
#
# Coordination Sequence:
#
# PCOD8286800 Si02
#       7
#     8  32  32  16  32  16  32
#     4  12  20  40  68 112 156 176 222 312 358 440
#     4  12  23  45  70 103 144 186 235 292 365 444
#     4  12  29  47  73 101 144 194 250 306 352 427
#     4  12  24  54  68  90 150 198 242 294 352 432
#     4  12  24  44  70 111 148 184 230 304 372 442
#     4  12  25  40  73 106 142 190 225 300 373 428
#     4  12  25  41  72 109 141 184 237 297 384 429
#
# _framework density 21.196064
#
# number of rings (size 3 to 8) (size 9 to 14) (size 15 to 20)
#    0.000    0.000    8.571    1.429    2.667    0.000 
#    0.000    5.714    0.000    0.000    0.000    0.000 
#    0.000    0.000    0.000    0.000    0.000    0.000 
#
# Total GULP energy -520459.370538 kJ/mol
# GULP energy per Si atom -12391.889775 kJ/mol
# Density = 2.114782 g / cm^3
# Si number density = 21.196064 Si / 1000 Ang^3
#
#
#
# Elastic Constant Matrix: (Units=GPa)
#
#
# Indices 1 2 3 4 5 6 
#
# 1 132.0357 38.4330 62.4776 0.0000 0.0000 0.0000
# 2 38.4330 115.9602 59.5119 0.0000 0.0000 0.0000
# 3 62.4776 59.5119 169.2833 0.0000 0.0000 0.0000
# 4 0.0000 0.0000 0.0000 32.5672 0.0000 0.0000
# 5 0.0000 0.0000 0.0000 0.0000 15.2076 0.0000
# 6 0.0000 0.0000 0.0000 0.0000 0.0000 19.2622
#
#
#
# Elastic Compliance Matrix: (Units=1/GPa)
#
#
# Indices 1 2 3 4 5 6 
#
# 1 0.009423 -0.001633 -0.002904 0.000000 0.000000 0.000000
# 2 -0.001633 0.010805 -0.003196 0.000000 0.000000 0.000000
# 3 -0.002904 -0.003196 0.008102 0.000000 0.000000 0.000000
# 4 0.000000 0.000000 0.000000 0.030706 0.000000 0.000000
# 5 0.000000 0.000000 0.000000 0.000000 0.065757 0.000000
# 6 0.000000 0.000000 0.000000 0.000000 0.000000 0.051915
#
#
# Mechanical properties :
#
#
# Convention : Reuss Voigt Hill
#
# Bulk Modulus (GPa) = 77.72716 82.01383 79.87050
# Shear Modulus (GPa) = 25.45026 30.53116 27.99071
#
# Velocity S-wave (km/s) = 3.46888 3.79940 3.63790
# Velocity P-wave (km/s) = 7.26597 7.61736 7.44374
#
# Compressibility (1/GPa) = 0.01286551
#
# Stress axis : x y z
#
# Youngs Moduli (GPa) = 106.12313 92.54985 123.41944
#
# Poissons Ratio (x) = 0.15112 0.35838
# Poissons Ratio (y) = 0.17329 0.39443
# Poissons Ratio (z) = 0.30815 0.29578
#
# Static dielectric constant tensor:
#      x y z
#    x 3.731710 0.000000 0.000000 
#    y 0.000000 4.177990 0.000000 
#    z 0.000000 0.000000 3.942190 
# 
# 
# High freq. dielectric constant tensor:
#      x y z
#    x 1.819650 0.000000 0.000000 
#    y 0.000000 1.848440 0.000000 
#    z 0.000000 0.000000 1.833180 
# 
# From -- ./inp_files/31138.got.cif
#   From: 2010.03.12/outbox.cif.g09.slc.cpg/sg70_16_cif.got.tgz:31138.got - 2010.04.16 13:46:32.
