data_PCOD8286736
_publ_section_title
;
Structure prediction by ZEFSAII (Michael W. Deem and Ramdas Pophale) SiO2 
 PCOD8286736
Probable space group: F D D D
;
_chemical_formula_sum "Si O2"
_cell_formula_units_Z 136
_cell_length_a 26.521300
_cell_length_b 12.046163
_cell_length_c 18.042465
_cell_angle_alpha 90.000000
_cell_angle_beta 90.000000
_cell_angle_gamma 90.000000
_cell_volume 5764.204964
_symmetry_space_group_name_H-M "F D D D"
_symmetry_group_IT_number 70
_space_group.IT_coordinate_system_code '2'
_symmetry_cell_setting 'orthorhombic'
loop_
_space_group_symop_operation_xyz
x,y,z
1/4-x,1/4-y,z
x,1/4-y,1/4-z
1/4-x,y,1/4-z
-x,-y,-z
3/4+x,3/4+y,-z
-x,3/4+y,3/4+z
3/4+x,-y,3/4+z
x,1/2+y,1/2+z
1/4-x,3/4-y,1/2+z
x,3/4-y,3/4-z
1/4-x,1/2+y,3/4-z
-x,1/2-y,1/2-z
3/4+x,1/4+y,1/2-z
-x,1/4+y,1/4+z
3/4+x,1/2-y,1/4+z
1/2+x,y,1/2+z
3/4-x,1/4-y,1/2+z
1/2+x,1/4-y,3/4-z
3/4-x,y,3/4-z
1/2-x,-y,1/2-z
1/4+x,3/4+y,1/2-z
1/2-x,3/4+y,1/4+z
1/4+x,-y,1/4+z
1/2+x,1/2+y,z
3/4-x,3/4-y,z
1/2+x,3/4-y,1/4-z
3/4-x,1/2+y,1/4-z
1/2-x,1/2-y,-z
1/4+x,1/4+y,-z
1/2-x,1/4+y,3/4+z
1/4+x,1/2-y,3/4+z
loop_
_atom_site_type_symbol
_atom_site_label
_atom_site_fract_x
_atom_site_fract_y
_atom_site_fract_z
Si Si1 0.577901 0.992225 0.494138
Si Si2 0.068190 0.389575 0.790669
Si Si3 0.996396 0.834494 0.046026
Si Si4 0.375000 0.875000 0.375000
Si Si5 0.177525 0.750838 0.095886
O O1 0.628637 0.951793 0.456440
O O2 0.539349 0.888980 0.495179
O O3 0.551380 0.084245 0.442066
O O4 0.589122 0.046555 0.574826
O O5 0.051227 0.375000 0.875000
O O6 0.025085 0.471845 0.757692
O O7 0.070554 0.274830 0.742969
O O8 0.023023 0.811593 0.124461
O O9 0.178016 0.625000 0.125000
O O10 0.125000 0.805845 0.125000
#
# Coordination Sequence:
#
# PCOD8286736 Si02
#       5
#    32  32  32   8  32
#     4  11  24  44  72 115 144 196 246 324 382 464
#     4  12  26  48  73 112 155 193 257 330 383 457
#     4  11  24  43  72 106 145 196 255 307 390 462
#     4  12  20  48  76  96 162 184 250 316 380 464
#     4  11  25  50  74 103 148 210 255 306 386 480
#
# _framework density 23.593886999999999
#
# number of rings (size 3 to 8) (size 9 to 14) (size 15 to 20)
#    0.000    0.706    4.706    2.118    0.000    5.647 
#   12.706    0.000    0.000    0.000    0.000    0.000 
#    0.000    0.000    0.000    0.000    0.000    0.000 
#
# Total GULP energy -421226.969836 kJ/mol
# GULP energy per Si atom -12389.028525 kJ/mol
# Density = 2.354019 g / cm^3
# Si number density = 23.593887 Si / 1000 Ang^3
#
#
#
# Elastic Constant Matrix: (Units=GPa)
#
#
# Indices 1 2 3 4 5 6 
#
# 1 147.8464 68.4127 35.4298 0.0000 0.0000 0.0000
# 2 68.4127 134.1332 68.2174 0.0000 0.0000 0.0000
# 3 35.4298 68.2174 107.9493 0.0000 0.0000 0.0000
# 4 0.0000 0.0000 0.0000 33.4803 0.0000 0.0000
# 5 0.0000 0.0000 0.0000 0.0000 35.9367 0.0000
# 6 0.0000 0.0000 0.0000 0.0000 0.0000 24.5822
#
#
#
# Elastic Compliance Matrix: (Units=1/GPa)
#
#
# Indices 1 2 3 4 5 6 
#
# 1 0.008854 -0.004477 -0.000077 0.000000 0.000000 0.000000
# 2 -0.004477 0.013250 -0.006904 0.000000 0.000000 0.000000
# 3 -0.000077 -0.006904 0.013652 0.000000 0.000000 0.000000
# 4 0.000000 0.000000 0.000000 0.029868 0.000000 0.000000
# 5 0.000000 0.000000 0.000000 0.000000 0.027827 0.000000
# 6 0.000000 0.000000 0.000000 0.000000 0.000000 0.040680
#
#
# Mechanical properties :
#
#
# Convention : Reuss Voigt Hill
#
# Bulk Modulus (GPa) = 77.87890 81.56096 79.71993
# Shear Modulus (GPa) = 30.99352 33.32444 32.15898
#
# Velocity S-wave (km/s) = 3.62833 3.76229 3.69592
# Velocity P-wave (km/s) = 7.11567 7.31552 7.21629
#
# Compressibility (1/GPa) = 0.01284045
#
# Stress axis : x y z
#
# Youngs Moduli (GPa) = 112.94799 75.47431 73.25177
#
# Poissons Ratio (x) = 0.33786 0.00563
# Poissons Ratio (y) = 0.50562 0.50571
# Poissons Ratio (z) = 0.00869 0.52105
#
# Static dielectric constant tensor:
#      x y z
#    x 4.779170 0.000000 0.000000 
#    y 0.000000 4.611370 0.000000 
#    z 0.000000 0.000000 3.836850 
# 
# 
# High freq. dielectric constant tensor:
#      x y z
#    x 1.966230 0.000000 0.000000 
#    y 0.000000 1.941820 0.000000 
#    z 0.000000 0.000000 1.890250 
# 
# From -- ./inp_files/42072.got.cif
#   From: 2010.03.12/outbox.cif.g09.slc.cpg/sg70_22_cif.got.tgz:42072.got - 2010.04.16 13:46:32.
