data_PCOD8286200
_publ_section_title
;
Structure prediction by ZEFSAII (Michael W. Deem and Ramdas Pophale) SiO2 
 PCOD8286200
Probable space group: F D D D
;
_chemical_formula_sum "Si O2"
_cell_formula_units_Z 144
_cell_length_a 21.264973
_cell_length_b 20.608359
_cell_length_c 16.983508
_cell_angle_alpha 90.000000
_cell_angle_beta 90.000000
_cell_angle_gamma 90.000000
_cell_volume 7442.787970
_symmetry_space_group_name_H-M "F D D D"
_symmetry_group_IT_number 70
_space_group.IT_coordinate_system_code '2'
_symmetry_cell_setting 'orthorhombic'
loop_
_space_group_symop_operation_xyz
x,y,z
1/4-x,1/4-y,z
x,1/4-y,1/4-z
1/4-x,y,1/4-z
-x,-y,-z
3/4+x,3/4+y,-z
-x,3/4+y,3/4+z
3/4+x,-y,3/4+z
x,1/2+y,1/2+z
1/4-x,3/4-y,1/2+z
x,3/4-y,3/4-z
1/4-x,1/2+y,3/4-z
-x,1/2-y,1/2-z
3/4+x,1/4+y,1/2-z
-x,1/4+y,1/4+z
3/4+x,1/2-y,1/4+z
1/2+x,y,1/2+z
3/4-x,1/4-y,1/2+z
1/2+x,1/4-y,3/4-z
3/4-x,y,3/4-z
1/2-x,-y,1/2-z
1/4+x,3/4+y,1/2-z
1/2-x,3/4+y,1/4+z
1/4+x,-y,1/4+z
1/2+x,1/2+y,z
3/4-x,3/4-y,z
1/2+x,3/4-y,1/4-z
3/4-x,1/2+y,1/4-z
1/2-x,1/2-y,-z
1/4+x,1/4+y,-z
1/2-x,1/4+y,3/4+z
1/4+x,1/2-y,3/4+z
loop_
_atom_site_type_symbol
_atom_site_label
_atom_site_fract_x
_atom_site_fract_y
_atom_site_fract_z
Si Si1 0.303000 0.171477 0.351342
Si Si2 0.693332 0.562824 0.589141
Si Si3 0.125000 0.125000 0.959940
Si Si4 0.965713 0.314381 0.088357
Si Si5 0.260328 0.424622 0.944732
O O1 0.375000 0.167692 0.375000
O O2 0.274056 0.244495 0.362748
O O3 0.266419 0.121682 0.405982
O O4 0.293590 0.156442 0.258501
O O5 0.731263 0.625000 0.625000
O O6 0.625000 0.562304 0.625000
O O7 0.683685 0.570056 0.496163
O O8 0.086740 0.073414 0.906172
O O9 0.078735 0.167919 0.014140
O O10 0.001589 0.245590 0.093996
O O11 0.252977 0.375000 0.875000
#
# Coordination Sequence:
#
# PCOD8286200 Si02
#       5
#    32  32  16  32  32
#     4   9  20  36  54  81 112 145 187 231 283 341
#     4   9  17  33  55  77 107 144 181 228 279 331
#     4  10  21  38  61  86 114 150 192 234 287 342
#     4  10  21  37  58  83 114 150 189 235 287 337
#     4  10  22  38  58  85 114 149 191 235 282 337
#
# _framework density 19.347588999999999
#
# number of rings (size 3 to 8) (size 9 to 14) (size 15 to 20)
#    0.000    2.444    0.000    1.667    0.000    8.000 
#    0.000   12.222    0.000    0.000    0.000    0.000 
#    0.000    0.000    0.000    0.000    0.000    0.000 
#
# Total GULP energy -446120.771652 kJ/mol
# GULP energy per Si atom -12392.243657 kJ/mol
# Density = 1.930355 g / cm^3
# Si number density = 19.347589 Si / 1000 Ang^3
#
#
#
# Elastic Constant Matrix: (Units=GPa)
#
#
# Indices 1 2 3 4 5 6 
#
# 1 101.8029 64.9698 54.9362 0.0000 0.0000 0.0000
# 2 64.9698 176.0775 91.8746 0.0000 0.0000 0.0000
# 3 54.9362 91.8746 115.3428 0.0000 0.0000 0.0000
# 4 0.0000 0.0000 0.0000 41.2961 0.0000 0.0000
# 5 0.0000 0.0000 0.0000 0.0000 11.2704 0.0000
# 6 0.0000 0.0000 0.0000 0.0000 0.0000 25.7143
#
#
#
# Elastic Compliance Matrix: (Units=1/GPa)
#
#
# Indices 1 2 3 4 5 6 
#
# 1 0.014032 -0.002893 -0.004379 0.000000 0.000000 0.000000
# 2 -0.002893 0.010315 -0.006838 0.000000 0.000000 0.000000
# 3 -0.004379 -0.006838 0.016203 0.000000 0.000000 0.000000
# 4 0.000000 0.000000 0.000000 0.024215 0.000000 0.000000
# 5 0.000000 0.000000 0.000000 0.000000 0.088728 0.000000
# 6 0.000000 0.000000 0.000000 0.000000 0.000000 0.038889
#
#
# Mechanical properties :
#
#
# Convention : Reuss Voigt Hill
#
# Bulk Modulus (GPa) = 81.10933 90.75383 85.93158
# Shear Modulus (GPa) = 22.25071 27.75235 25.00153
#
# Velocity S-wave (km/s) = 3.39492 3.79147 3.59866
# Velocity P-wave (km/s) = 7.57499 8.13485 7.85991
#
# Compressibility (1/GPa) = 0.01232904
#
# Stress axis : x y z
#
# Youngs Moduli (GPa) = 71.26507 96.94792 61.71849
#
# Poissons Ratio (x) = 0.28043 0.27028
# Poissons Ratio (y) = 0.20614 0.42206
# Poissons Ratio (z) = 0.31209 0.66297
#
# Static dielectric constant tensor:
#      x y z
#    x 3.396890 0.000000 0.000000 
#    y 0.000000 5.014990 0.000000 
#    z 0.000000 0.000000 3.667230 
# 
# 
# High freq. dielectric constant tensor:
#      x y z
#    x 1.728690 0.000000 0.000000 
#    y 0.000000 1.769400 0.000000 
#    z 0.000000 0.000000 1.762340 
# 
# From -- ./inp_files/36207.got.cif
#   From: 2010.03.12/outbox.cif.g09.slc.cpg/sg70_19_cif.got.tgz:36207.got - 2010.04.16 13:46:32.
