data_PCOD8286936
_publ_section_title
;
Structure prediction by ZEFSAII (Michael W. Deem and Ramdas Pophale) SiO2 
 PCOD8286936
Probable space group: I M M M
;
_chemical_formula_sum "Si O2"
_cell_formula_units_Z 88
_cell_length_a 23.264212
_cell_length_b 19.643608
_cell_length_c 14.108714
_cell_angle_alpha 90.000000
_cell_angle_beta 90.000000
_cell_angle_gamma 90.000000
_cell_volume 6447.584397
_symmetry_space_group_name_H-M "I M M M"
_symmetry_group_IT_number 71
_symmetry_cell_setting 'orthorhombic'
loop_
_space_group_symop_operation_xyz
x,y,z
-x,-y,z
x,-y,-z
-x,y,-z
-x,-y,-z
x,y,-z
-x,y,z
x,-y,z
1/2+x,1/2+y,1/2+z
1/2-x,1/2-y,1/2+z
1/2+x,1/2-y,1/2-z
1/2-x,1/2+y,1/2-z
1/2-x,1/2-y,1/2-z
1/2+x,1/2+y,1/2-z
1/2-x,1/2+y,1/2+z
1/2+x,1/2-y,1/2+z
loop_
_atom_site_type_symbol
_atom_site_label
_atom_site_fract_x
_atom_site_fract_y
_atom_site_fract_z
Si Si1 0.109077 0.919161 0.226012
Si Si2 0.157119 0.423985 0.612985
Si Si3 0.215783 0.919294 0.894732
Si Si4 0.567103 0.333844 0.891751
Si Si5 0.436372 0.180264 0.887241
Si Si6 0.500000 0.419291 0.606073
O O1 0.167601 0.892354 0.177442
O O2 0.104468 0.885119 0.328834
O O3 0.056426 0.893841 0.160894
O O4 0.108580 0.000000 0.239523
O O5 0.154365 0.425218 0.500000
O O6 0.144358 0.500000 0.652114
O O7 0.220855 0.398981 0.643651
O O8 0.110029 0.372245 0.656067
O O9 0.211781 0.000000 0.902574
O O10 0.204940 0.888514 0.000000
O O11 0.500000 0.351654 0.882156
O O12 0.579031 0.256951 0.856214
O O13 0.587286 0.343280 0.000000
O O14 0.500000 0.160329 0.849682
O O15 0.436369 0.176753 0.000000
O O16 0.500000 0.500000 0.600028
O O17 0.500000 0.388346 0.500000
#
# Coordination Sequence:
#
# PCOD8286936 Si02
#       6
#    16  16  16  16  16   8
#     4  10  17  25  37  53  70  94 129 160 185 213
#     4   8  13  22  37  56  75  95 119 144 175 220
#     4   8  14  24  37  53  75  99 118 143 182 226
#     4   9  17  28  38  49  70  99 129 158 187 215
#     4   8  14  24  37  52  72  98 122 147 181 216
#     4   9  16  24  35  53  73  89 113 154 192 218
#
# _framework density 13.648522
#
# number of rings (size 3 to 8) (size 9 to 14) (size 15 to 20)
#    0.000    3.364    0.909    2.727    0.000    2.909 
#    0.000    3.636    0.000    0.000    0.000    0.000 
#    0.000    0.000    0.000    0.000    0.000    1.818 
#
# Total GULP energy -545311.522924 kJ/mol
# GULP energy per Si atom -12393.443703 kJ/mol
# Density = 1.361746 g / cm^3
# Si number density = 13.648522 Si / 1000 Ang^3
#
#
#
# Elastic Constant Matrix: (Units=GPa)
#
#
# Indices 1 2 3 4 5 6 
#
# 1 108.2769 45.8738 39.6711 0.0000 0.0000 0.0000
# 2 45.8738 49.2455 28.2560 0.0000 0.0000 0.0000
# 3 39.6711 28.2560 53.8205 0.0000 0.0000 0.0000
# 4 0.0000 0.0000 0.0000 8.4109 0.0000 0.0000
# 5 0.0000 0.0000 0.0000 0.0000 9.4409 0.0000
# 6 0.0000 0.0000 0.0000 0.0000 0.0000 15.7471
#
#
#
# Elastic Compliance Matrix: (Units=1/GPa)
#
#
# Indices 1 2 3 4 5 6 
#
# 1 0.016446 -0.011970 -0.005838 0.000000 0.000000 0.000000
# 2 -0.011970 0.037773 -0.011008 0.000000 0.000000 0.000000
# 3 -0.005838 -0.011008 0.028662 0.000000 0.000000 0.000000
# 4 0.000000 0.000000 0.000000 0.118893 0.000000 0.000000
# 5 0.000000 0.000000 0.000000 0.000000 0.105922 0.000000
# 6 0.000000 0.000000 0.000000 0.000000 0.000000 0.063504
#
#
# Mechanical properties :
#
#
# Convention : Reuss Voigt Hill
#
# Bulk Modulus (GPa) = 39.60432 48.77162 44.18797
# Shear Modulus (GPa) = 11.43514 13.22259 12.32886
#
# Velocity S-wave (km/s) = 2.89767 3.11592 3.00877
# Velocity P-wave (km/s) = 6.34631 6.98261 6.67205
#
# Compressibility (1/GPa) = 0.02524977
#
# Stress axis : x y z
#
# Youngs Moduli (GPa) = 60.80520 26.47385 34.88882
#
# Poissons Ratio (x) = 0.31690 0.20368
# Poissons Ratio (y) = 0.72786 0.38405
# Poissons Ratio (z) = 0.35497 0.29142
#
# Static dielectric constant tensor:
#      x y z
#    x 3.000900 0.000000 0.000000 
#    y 0.000000 2.581220 0.000000 
#    z 0.000000 0.000000 2.450990 
# 
# 
# High freq. dielectric constant tensor:
#      x y z
#    x 1.524210 0.000000 0.000000 
#    y 0.000000 1.492500 0.000000 
#    z 0.000000 0.000000 1.478660 
# 
# From -- ./inp_files/36561.got.cif
#   From: 2010.06.25/outbox.cif.g09.slc.cpg/sg71_19_cif.got.tgz:36561.got - 2010.06.28 04:59:45.
