data_PCOD8286194
_publ_section_title
;
Structure prediction by ZEFSAII (Michael W. Deem and Ramdas Pophale) SiO2 
 PCOD8286194
Probable space group: F D D D
;
_chemical_formula_sum "Si O2"
_cell_formula_units_Z 200
_cell_length_a 25.867965
_cell_length_b 13.268273
_cell_length_c 27.616508
_cell_angle_alpha 90.000000
_cell_angle_beta 90.000000
_cell_angle_gamma 90.000000
_cell_volume 9478.626844
_symmetry_space_group_name_H-M "F D D D"
_symmetry_group_IT_number 70
_space_group.IT_coordinate_system_code '2'
_symmetry_cell_setting 'orthorhombic'
loop_
_space_group_symop_operation_xyz
x,y,z
1/4-x,1/4-y,z
x,1/4-y,1/4-z
1/4-x,y,1/4-z
-x,-y,-z
3/4+x,3/4+y,-z
-x,3/4+y,3/4+z
3/4+x,-y,3/4+z
x,1/2+y,1/2+z
1/4-x,3/4-y,1/2+z
x,3/4-y,3/4-z
1/4-x,1/2+y,3/4-z
-x,1/2-y,1/2-z
3/4+x,1/4+y,1/2-z
-x,1/4+y,1/4+z
3/4+x,1/2-y,1/4+z
1/2+x,y,1/2+z
3/4-x,1/4-y,1/2+z
1/2+x,1/4-y,3/4-z
3/4-x,y,3/4-z
1/2-x,-y,1/2-z
1/4+x,3/4+y,1/2-z
1/2-x,3/4+y,1/4+z
1/4+x,-y,1/4+z
1/2+x,1/2+y,z
3/4-x,3/4-y,z
1/2+x,3/4-y,1/4-z
3/4-x,1/2+y,1/4-z
1/2-x,1/2-y,-z
1/4+x,1/4+y,-z
1/2-x,1/4+y,3/4+z
1/4+x,1/2-y,3/4+z
loop_
_atom_site_type_symbol
_atom_site_label
_atom_site_fract_x
_atom_site_fract_y
_atom_site_fract_z
Si Si1 0.125000 0.125000 0.625000
Si Si2 0.298380 0.366218 0.226801
Si Si3 0.454361 0.011336 0.817108
Si Si4 0.855708 0.054295 0.823033
Si Si5 0.179197 0.495818 0.432824
Si Si6 0.375000 0.875000 0.643537
Si Si7 0.125000 0.125000 0.242750
Si Si8 0.682023 0.330657 0.007881
O O1 0.162635 0.053888 0.595080
O O2 0.300836 0.267608 0.260432
O O3 0.325658 0.341100 0.175672
O O4 0.328286 0.461900 0.250446
O O5 0.239050 0.398518 0.221232
O O6 0.446768 0.130978 0.825452
O O7 0.512248 0.992275 0.836449
O O8 0.875000 0.016715 0.875000
O O9 0.896106 0.133420 0.800975
O O10 0.846540 0.957394 0.790070
O O11 0.140863 0.527266 0.389068
O O12 0.171216 0.577508 0.475674
O O13 0.168360 0.386192 0.456744
#
# Coordination Sequence:
#
# PCOD8286194 Si02
#       8
#     8  32  32  32  32  16  16  32
#     4  12  22  36  58  94 132 150 200 250 312 400
#     4  10  21  36  59  86 125 160 194 253 309 383
#     4  11  23  37  58  91 124 159 195 250 321 370
#     4  11  21  35  62  87 114 153 203 254 298 366
#     4   9  22  40  59  85 119 164 205 254 305 372
#     4  11  21  34  59  85 121 163 214 247 291 364
#     4   9  21  44  60  80 116 158 210 253 303 352
#     4   9  20  39  58  84 122 160 199 245 324 367
#
# _framework density 21.100104000000002
#
# number of rings (size 3 to 8) (size 9 to 14) (size 15 to 20)
#    0.000    1.920    0.800    2.640    2.240    3.840 
#    0.000    1.600    0.000    0.000    0.000    0.000 
#    0.000    0.000    0.000    0.000    0.000    0.000 
#
# Total GULP energy -619830.029634 kJ/mol
# GULP energy per Si atom -12396.600593 kJ/mol
# Density = 2.105208 g / cm^3
# Si number density = 21.100104 Si / 1000 Ang^3
#
#
#
# Elastic Constant Matrix: (Units=GPa)
#
#
# Indices 1 2 3 4 5 6 
#
# 1 67.1737 12.9304 30.0165 0.0000 0.0000 0.0000
# 2 12.9304 89.5801 22.8810 0.0000 0.0000 0.0000
# 3 30.0165 22.8810 97.7395 0.0000 0.0000 0.0000
# 4 0.0000 0.0000 0.0000 15.9784 0.0000 0.0000
# 5 0.0000 0.0000 0.0000 0.0000 25.5159 0.0000
# 6 0.0000 0.0000 0.0000 0.0000 0.0000 12.0541
#
#
#
# Elastic Compliance Matrix: (Units=1/GPa)
#
#
# Indices 1 2 3 4 5 6 
#
# 1 0.017379 -0.001218 -0.005052 0.000000 0.000000 0.000000
# 2 -0.001218 0.011959 -0.002425 0.000000 0.000000 0.000000
# 3 -0.005052 -0.002425 0.012351 0.000000 0.000000 0.000000
# 4 0.000000 0.000000 0.000000 0.062585 0.000000 0.000000
# 5 0.000000 0.000000 0.000000 0.000000 0.039191 0.000000
# 6 0.000000 0.000000 0.000000 0.000000 0.000000 0.082959
#
#
# Mechanical properties :
#
#
# Convention : Reuss Voigt Hill
#
# Bulk Modulus (GPa) = 41.15766 42.90544 42.03155
# Shear Modulus (GPa) = 19.84814 23.28738 21.56776
#
# Velocity S-wave (km/s) = 3.07035 3.32574 3.20060
# Velocity P-wave (km/s) = 5.66725 5.92670 5.79843
#
# Compressibility (1/GPa) = 0.02429681
#
# Stress axis : x y z
#
# Youngs Moduli (GPa) = 57.54162 83.62224 80.96800
#
# Poissons Ratio (x) = 0.10186 0.40905
# Poissons Ratio (y) = 0.07009 0.19638
# Poissons Ratio (z) = 0.29070 0.20282
#
# Static dielectric constant tensor:
#      x y z
#    x 3.954560 0.000000 0.000000 
#    y 0.000000 3.865690 0.000000 
#    z 0.000000 0.000000 3.841320 
# 
# 
# High freq. dielectric constant tensor:
#      x y z
#    x 1.821610 0.000000 0.000000 
#    y 0.000000 1.821860 0.000000 
#    z 0.000000 0.000000 1.828470 
# 
# From -- ./inp_files/61796.got.cif
#   From: 2010.03.12/outbox.cif.g09.slc.cpg/sg70_31_cif.got.tgz:61796.got - 2010.04.16 13:46:32.
