data_PCOD8286022
_publ_section_title
;
Structure prediction by ZEFSAII (Michael W. Deem and Ramdas Pophale) SiO2 
 PCOD8286022
Probable space group: F D D D
;
_chemical_formula_sum "Si O2"
_cell_formula_units_Z 160
_cell_length_a 22.776891
_cell_length_b 24.763943
_cell_length_c 14.146008
_cell_angle_alpha 90.000000
_cell_angle_beta 90.000000
_cell_angle_gamma 90.000000
_cell_volume 7978.994001
_symmetry_space_group_name_H-M "F D D D"
_symmetry_group_IT_number 70
_space_group.IT_coordinate_system_code '2'
_symmetry_cell_setting 'orthorhombic'
loop_
_space_group_symop_operation_xyz
x,y,z
1/4-x,1/4-y,z
x,1/4-y,1/4-z
1/4-x,y,1/4-z
-x,-y,-z
3/4+x,3/4+y,-z
-x,3/4+y,3/4+z
3/4+x,-y,3/4+z
x,1/2+y,1/2+z
1/4-x,3/4-y,1/2+z
x,3/4-y,3/4-z
1/4-x,1/2+y,3/4-z
-x,1/2-y,1/2-z
3/4+x,1/4+y,1/2-z
-x,1/4+y,1/4+z
3/4+x,1/2-y,1/4+z
1/2+x,y,1/2+z
3/4-x,1/4-y,1/2+z
1/2+x,1/4-y,3/4-z
3/4-x,y,3/4-z
1/2-x,-y,1/2-z
1/4+x,3/4+y,1/2-z
1/2-x,3/4+y,1/4+z
1/4+x,-y,1/4+z
1/2+x,1/2+y,z
3/4-x,3/4-y,z
1/2+x,3/4-y,1/4-z
3/4-x,1/2+y,1/4-z
1/2-x,1/2-y,-z
1/4+x,1/4+y,-z
1/2-x,1/4+y,3/4+z
1/4+x,1/2-y,3/4+z
loop_
_atom_site_type_symbol
_atom_site_label
_atom_site_fract_x
_atom_site_fract_y
_atom_site_fract_z
Si Si1 0.015153 0.924537 0.937433
Si Si2 0.024822 0.738635 0.520064
Si Si3 0.807160 0.380270 0.581924
Si Si4 0.610191 0.922257 0.727924
Si Si5 0.486924 0.900477 0.778350
O O1 0.992733 0.875000 0.875000
O O2 0.998710 0.977319 0.876753
O O3 0.084558 0.920491 0.953094
O O4 0.978987 0.919946 0.035574
O O5 0.028748 0.686542 0.453192
O O6 0.089239 0.765252 0.531110
O O7 0.980929 0.783737 0.473627
O O8 0.875000 0.375000 0.552755
O O9 0.800291 0.376612 0.694455
O O10 0.625000 0.898559 0.625000
O O11 0.556508 0.885772 0.767876
O O12 0.462254 0.875000 0.875000
#
# Coordination Sequence:
#
# PCOD8286022 Si02
#       5
#    32  32  32  32  32
#     4  10  20  38  61  91 126 152 206 255 313 370
#     4   9  24  36  63  95 123 161 200 264 313 365
#     4  11  24  39  62  91 126 164 204 259 316 370
#     4  10  20  36  63  89 119 161 200 255 308 365
#     4  10  23  40  60  87 123 167 213 247 303 369
#
# _framework density 20.052651999999998
#
# number of rings (size 3 to 8) (size 9 to 14) (size 15 to 20)
#    1.200    0.800    2.000    0.600    5.600    5.600 
#    0.000    0.000    0.000    0.000    0.000    0.000 
#    0.000    0.000    0.000    0.000    0.000    0.000 
#
# Total GULP energy -495694.776072 kJ/mol
# GULP energy per Si atom -12392.369402 kJ/mol
# Density = 2.000701 g / cm^3
# Si number density = 20.052652 Si / 1000 Ang^3
#
#
#
# Elastic Constant Matrix: (Units=GPa)
#
#
# Indices 1 2 3 4 5 6 
#
# 1 71.3361 2.6727 3.3744 0.0000 0.0000 0.0000
# 2 2.6727 66.8831 29.8386 0.0000 0.0000 0.0000
# 3 3.3744 29.8386 112.5431 0.0000 0.0000 0.0000
# 4 0.0000 0.0000 0.0000 32.5325 0.0000 0.0000
# 5 0.0000 0.0000 0.0000 0.0000 30.6537 0.0000
# 6 0.0000 0.0000 0.0000 0.0000 0.0000 19.7565
#
#
#
# Elastic Compliance Matrix: (Units=1/GPa)
#
#
# Indices 1 2 3 4 5 6 
#
# 1 0.014049 -0.000424 -0.000309 0.000000 0.000000 0.000000
# 2 -0.000424 0.016970 -0.004487 0.000000 0.000000 0.000000
# 3 -0.000309 -0.004487 0.010084 0.000000 0.000000 0.000000
# 4 0.000000 0.000000 0.000000 0.030739 0.000000 0.000000
# 5 0.000000 0.000000 0.000000 0.000000 0.032622 0.000000
# 6 0.000000 0.000000 0.000000 0.000000 0.000000 0.050616
#
#
# Mechanical properties :
#
#
# Convention : Reuss Voigt Hill
#
# Bulk Modulus (GPa) = 32.61070 35.83707 34.22388
# Shear Modulus (GPa) = 28.45113 30.91363 29.68238
#
# Velocity S-wave (km/s) = 3.77081 3.93061 3.85154
# Velocity P-wave (km/s) = 5.93772 6.20563 6.07315
#
# Compressibility (1/GPa) = 0.03066479
#
# Stress axis : x y z
#
# Youngs Moduli (GPa) = 71.18127 58.92760 99.16434
#
# Poissons Ratio (x) = 0.02496 0.03063
# Poissons Ratio (y) = 0.03015 0.44491
# Poissons Ratio (z) = 0.02199 0.26438
#
# Static dielectric constant tensor:
#      x y z
#    x 3.392270 0.000000 0.000000 
#    y 0.000000 3.433230 0.000000 
#    z 0.000000 0.000000 3.517850 
# 
# 
# High freq. dielectric constant tensor:
#      x y z
#    x 1.769430 0.000000 0.000000 
#    y 0.000000 1.765990 0.000000 
#    z 0.000000 0.000000 1.783620 
# 
# From -- ./inp_files/19463.got.cif
#   From: 2010.03.12/outbox.cif.g09.slc.cpg/sg70_10_cif.got.tgz:19463.got - 2010.04.16 13:46:32.
