data_PCOD8286709
_publ_section_title
;
Structure prediction by ZEFSAII (Michael W. Deem and Ramdas Pophale) SiO2 
 PCOD8286709
Probable space group: F D D D
;
_chemical_formula_sum "Si O2"
_cell_formula_units_Z 144
_cell_length_a 24.892886
_cell_length_b 10.202930
_cell_length_c 24.005966
_cell_angle_alpha 90.000000
_cell_angle_beta 90.000000
_cell_angle_gamma 90.000000
_cell_volume 6097.044207
_symmetry_space_group_name_H-M "F D D D"
_symmetry_group_IT_number 70
_space_group.IT_coordinate_system_code '2'
_symmetry_cell_setting 'orthorhombic'
loop_
_space_group_symop_operation_xyz
x,y,z
1/4-x,1/4-y,z
x,1/4-y,1/4-z
1/4-x,y,1/4-z
-x,-y,-z
3/4+x,3/4+y,-z
-x,3/4+y,3/4+z
3/4+x,-y,3/4+z
x,1/2+y,1/2+z
1/4-x,3/4-y,1/2+z
x,3/4-y,3/4-z
1/4-x,1/2+y,3/4-z
-x,1/2-y,1/2-z
3/4+x,1/4+y,1/2-z
-x,1/4+y,1/4+z
3/4+x,1/2-y,1/4+z
1/2+x,y,1/2+z
3/4-x,1/4-y,1/2+z
1/2+x,1/4-y,3/4-z
3/4-x,y,3/4-z
1/2-x,-y,1/2-z
1/4+x,3/4+y,1/2-z
1/2-x,3/4+y,1/4+z
1/4+x,-y,1/4+z
1/2+x,1/2+y,z
3/4-x,3/4-y,z
1/2+x,3/4-y,1/4-z
3/4-x,1/2+y,1/4-z
1/2-x,1/2-y,-z
1/4+x,1/4+y,-z
1/2-x,1/4+y,3/4+z
1/4+x,1/2-y,3/4+z
loop_
_atom_site_type_symbol
_atom_site_label
_atom_site_fract_x
_atom_site_fract_y
_atom_site_fract_z
Si Si1 0.076395 0.717750 0.046157
Si Si2 0.760238 0.125000 0.125000
Si Si3 0.418933 0.983674 0.473179
Si Si4 0.185917 0.093590 0.820638
Si Si5 0.778245 0.740373 0.087574
O O1 0.125000 0.625000 0.066119
O O2 0.028991 0.723303 0.090917
O O3 0.099151 0.865445 0.037890
O O4 0.051605 0.657598 0.989046
O O5 0.798400 0.190231 0.076902
O O6 0.375000 0.875000 0.456214
O O7 0.470872 0.948516 0.436756
O O8 0.431484 0.970141 0.538350
O O9 0.125000 0.125000 0.837195
O O10 0.226285 0.142342 0.868763
O O11 0.803647 0.625000 0.125000
#
# Coordination Sequence:
#
# PCOD8286709 Si02
#       5
#    32  16  32  32  32
#     4  11  25  47  73 107 146 193 245 300 369 450
#     4  12  25  48  72 104 150 196 241 308 376 440
#     4  11  25  46  73 107 146 193 244 307 369 444
#     4  11  25  42  73 106 141 192 247 301 369 440
#     4  11  23  44  71 101 145 188 243 298 373 439
#
# _framework density 23.618002000000001
#
# number of rings (size 3 to 8) (size 9 to 14) (size 15 to 20)
#    0.000    0.889    4.444    1.667    1.556    5.778 
#    4.000    0.000    0.000    1.333    0.000    0.000 
#    0.000    0.000    0.000    0.000    0.000    0.000 
#
# Total GULP energy -446097.288639 kJ/mol
# GULP energy per Si atom -12391.591351 kJ/mol
# Density = 2.356425 g / cm^3
# Si number density = 23.618002 Si / 1000 Ang^3
#
#
#
# Elastic Constant Matrix: (Units=GPa)
#
#
# Indices 1 2 3 4 5 6 
#
# 1 107.8561 46.8930 38.7254 0.0000 0.0000 0.0000
# 2 46.8930 126.2534 22.7621 0.0000 0.0000 0.0000
# 3 38.7254 22.7621 104.1023 0.0000 0.0000 0.0000
# 4 0.0000 0.0000 0.0000 32.7585 0.0000 0.0000
# 5 0.0000 0.0000 0.0000 0.0000 49.0497 0.0000
# 6 0.0000 0.0000 0.0000 0.0000 0.0000 36.2012
#
#
#
# Elastic Compliance Matrix: (Units=1/GPa)
#
#
# Indices 1 2 3 4 5 6 
#
# 1 0.012304 -0.003898 -0.003725 0.000000 0.000000 0.000000
# 2 -0.003898 0.009481 -0.000623 0.000000 0.000000 0.000000
# 3 -0.003725 -0.000623 0.011128 0.000000 0.000000 0.000000
# 4 0.000000 0.000000 0.000000 0.030526 0.000000 0.000000
# 5 0.000000 0.000000 0.000000 0.000000 0.020388 0.000000
# 6 0.000000 0.000000 0.000000 0.000000 0.000000 0.027623
#
#
# Mechanical properties :
#
#
# Convention : Reuss Voigt Hill
#
# Bulk Modulus (GPa) = 60.89861 61.66364 61.28112
# Shear Modulus (GPa) = 37.47715 38.92397 38.20056
#
# Velocity S-wave (km/s) = 3.98779 4.06404 4.02610
# Velocity P-wave (km/s) = 6.85887 6.94171 6.90041
#
# Compressibility (1/GPa) = 0.01642074
#
# Stress axis : x y z
#
# Youngs Moduli (GPa) = 81.27559 105.47632 89.86637
#
# Poissons Ratio (x) = 0.41119 0.33471
# Poissons Ratio (y) = 0.31684 0.05597
# Poissons Ratio (z) = 0.30272 0.06569
#
# Static dielectric constant tensor:
#      x y z
#    x 3.898290 0.000000 0.000000 
#    y 0.000000 5.769060 0.000000 
#    z 0.000000 0.000000 4.351960 
# 
# 
# High freq. dielectric constant tensor:
#      x y z
#    x 1.920210 0.000000 0.000000 
#    y 0.000000 1.944730 0.000000 
#    z 0.000000 0.000000 1.948030 
# 
# From -- ./inp_files/54195.got.cif
#   From: 2010.03.12/outbox.cif.g09.slc.cpg/sg70_28_cif.got.tgz:54195.got - 2010.04.16 13:46:32.
