data_PCOD8286503
_publ_section_title
;
Structure prediction by ZEFSAII (Michael W. Deem and Ramdas Pophale) SiO2 
 PCOD8286503
Probable space group: F D D D
;
_chemical_formula_sum "Si O2"
_cell_formula_units_Z 96
_cell_length_a 16.678903
_cell_length_b 28.306278
_cell_length_c 8.356463
_cell_angle_alpha 90.000000
_cell_angle_beta 90.000000
_cell_angle_gamma 90.000000
_cell_volume 3945.233800
_symmetry_space_group_name_H-M "F D D D"
_symmetry_group_IT_number 70
_space_group.IT_coordinate_system_code '2'
_symmetry_cell_setting 'orthorhombic'
loop_
_space_group_symop_operation_xyz
x,y,z
1/4-x,1/4-y,z
x,1/4-y,1/4-z
1/4-x,y,1/4-z
-x,-y,-z
3/4+x,3/4+y,-z
-x,3/4+y,3/4+z
3/4+x,-y,3/4+z
x,1/2+y,1/2+z
1/4-x,3/4-y,1/2+z
x,3/4-y,3/4-z
1/4-x,1/2+y,3/4-z
-x,1/2-y,1/2-z
3/4+x,1/4+y,1/2-z
-x,1/4+y,1/4+z
3/4+x,1/2-y,1/4+z
1/2+x,y,1/2+z
3/4-x,1/4-y,1/2+z
1/2+x,1/4-y,3/4-z
3/4-x,y,3/4-z
1/2-x,-y,1/2-z
1/4+x,3/4+y,1/2-z
1/2-x,3/4+y,1/4+z
1/4+x,-y,1/4+z
1/2+x,1/2+y,z
3/4-x,3/4-y,z
1/2+x,3/4-y,1/4-z
3/4-x,1/2+y,1/4-z
1/2-x,1/2-y,-z
1/4+x,1/4+y,-z
1/2-x,1/4+y,3/4+z
1/4+x,1/2-y,3/4+z
loop_
_atom_site_type_symbol
_atom_site_label
_atom_site_fract_x
_atom_site_fract_y
_atom_site_fract_z
Si Si1 0.050968 0.551825 0.407952
Si Si2 0.981483 0.470043 0.239995
Si Si3 0.958270 0.134746 0.809575
O O1 0.005544 0.545764 0.576626
O O2 0.141542 0.534662 0.426244
O O3 0.011209 0.524497 0.253836
O O4 0.037311 0.607358 0.375239
O O5 0.035419 0.439314 0.117898
O O6 0.956575 0.125000 0.625000
O O7 0.875000 0.113283 0.875000
#
# Coordination Sequence:
#
# PCOD8286503 Si02
#       3
#    32  32  32
#     4  10  23  43  74 102 143 184 236 295 366 445
#     4  10  23  44  72 104 141 187 234 294 371 436
#     4  12  27  44  69 102 143 188 245 303 365 438
#
# _framework density 24.333157
#
# number of rings (size 3 to 8) (size 9 to 14) (size 15 to 20)
#    0.000    1.333    0.000    4.000   14.000    6.667 
#    0.000    0.000    0.000    0.000    0.000    0.000 
#    0.000    0.000    0.000    0.000    0.000    0.000 
#
# Total GULP energy -297347.884442 kJ/mol
# GULP energy per Si atom -12389.495185 kJ/mol
# Density = 2.427777 g / cm^3
# Si number density = 24.333157 Si / 1000 Ang^3
#
#
#
# Elastic Constant Matrix: (Units=GPa)
#
#
# Indices 1 2 3 4 5 6 
#
# 1 113.4620 9.9562 28.7187 -0.0001 0.0000 0.0000
# 2 9.9562 58.9611 23.4646 0.0000 0.0000 0.0000
# 3 28.7187 23.4646 128.1665 -0.0001 -0.0001 0.0000
# 4 -0.0001 0.0000 -0.0001 68.2355 0.0001 0.0000
# 5 0.0000 0.0000 -0.0001 0.0001 37.4226 0.0000
# 6 0.0000 0.0000 0.0000 0.0000 0.0000 33.1938
#
#
#
# Elastic Compliance Matrix: (Units=1/GPa)
#
#
# Indices 1 2 3 4 5 6 
#
# 1 0.009379 -0.000806 -0.001954 0.000000 0.000000 0.000000
# 2 -0.000806 0.018362 -0.003181 0.000000 0.000000 0.000000
# 3 -0.001954 -0.003181 0.008823 0.000000 0.000000 0.000000
# 4 0.000000 0.000000 0.000000 0.014655 0.000000 0.000000
# 5 0.000000 0.000000 0.000000 0.000000 0.026722 0.000000
# 6 0.000000 0.000000 0.000000 0.000000 0.000000 0.030126
#
#
# Mechanical properties :
#
#
# Convention : Reuss Voigt Hill
#
# Bulk Modulus (GPa) = 40.51629 47.20761 43.86195
# Shear Modulus (GPa) = 39.00872 43.66706 41.33789
#
# Velocity S-wave (km/s) = 4.00823 4.24081 4.12616
# Velocity P-wave (km/s) = 6.17317 6.58953 6.38474
#
# Compressibility (1/GPa) = 0.02468143
#
# Stress axis : x y z
#
# Youngs Moduli (GPa) = 106.62307 54.45896 113.34547
#
# Poissons Ratio (x) = 0.04390 0.22147
# Poissons Ratio (y) = 0.08595 0.36057
# Poissons Ratio (z) = 0.20834 0.17324
#
# Static dielectric constant tensor:
#      x y z
#    x 3.180620 0.000000 0.000000 
#    y 0.000000 4.605290 0.000000 
#    z 0.000000 0.000000 4.307080 
# 
# 
# High freq. dielectric constant tensor:
#      x y z
#    x 1.963750 0.000000 0.000000 
#    y 0.000000 1.963190 0.000000 
#    z 0.000000 0.000000 1.968450 
# 
# From -- ./inp_files/8089.got.cif
#   From: 2010.03.12/outbox.cif.g09.slc.cpg/sg70_5_cif.got.tgz:8089.got - 2010.04.16 13:46:32.
