data_PCOD8286260
_publ_section_title
;
Structure prediction by ZEFSAII (Michael W. Deem and Ramdas Pophale) SiO2 
 PCOD8286260
Probable space group: F D D D
;
_chemical_formula_sum "Si O2"
_cell_formula_units_Z 160
_cell_length_a 19.208549
_cell_length_b 18.458870
_cell_length_c 20.155668
_cell_angle_alpha 90.000000
_cell_angle_beta 90.000000
_cell_angle_gamma 90.000000
_cell_volume 7146.557086
_symmetry_space_group_name_H-M "F D D D"
_symmetry_group_IT_number 70
_space_group.IT_coordinate_system_code '2'
_symmetry_cell_setting 'orthorhombic'
loop_
_space_group_symop_operation_xyz
x,y,z
1/4-x,1/4-y,z
x,1/4-y,1/4-z
1/4-x,y,1/4-z
-x,-y,-z
3/4+x,3/4+y,-z
-x,3/4+y,3/4+z
3/4+x,-y,3/4+z
x,1/2+y,1/2+z
1/4-x,3/4-y,1/2+z
x,3/4-y,3/4-z
1/4-x,1/2+y,3/4-z
-x,1/2-y,1/2-z
3/4+x,1/4+y,1/2-z
-x,1/4+y,1/4+z
3/4+x,1/2-y,1/4+z
1/2+x,y,1/2+z
3/4-x,1/4-y,1/2+z
1/2+x,1/4-y,3/4-z
3/4-x,y,3/4-z
1/2-x,-y,1/2-z
1/4+x,3/4+y,1/2-z
1/2-x,3/4+y,1/4+z
1/4+x,-y,1/4+z
1/2+x,1/2+y,z
3/4-x,3/4-y,z
1/2+x,3/4-y,1/4-z
3/4-x,1/2+y,1/4-z
1/2-x,1/2-y,-z
1/4+x,1/4+y,-z
1/2-x,1/4+y,3/4+z
1/4+x,1/2-y,3/4+z
loop_
_atom_site_type_symbol
_atom_site_label
_atom_site_fract_x
_atom_site_fract_y
_atom_site_fract_z
Si Si1 0.313528 0.320777 0.480419
Si Si2 0.239450 0.718248 0.888948
Si Si3 0.689445 0.838110 0.304276
Si Si4 0.538099 0.425683 0.937128
Si Si5 0.048259 0.660027 0.814295
O O1 0.375000 0.375000 0.461259
O O2 0.305702 0.261004 0.421452
O O3 0.320773 0.282485 0.552556
O O4 0.243411 0.368879 0.491703
O O5 0.213641 0.756373 0.820801
O O6 0.253367 0.636801 0.862307
O O7 0.689917 0.875000 0.375000
O O8 0.611458 0.840798 0.274945
O O9 0.524141 0.375000 0.875000
O O10 0.543098 0.507810 0.909559
O O11 0.475809 0.411161 0.987871
O O12 0.125000 0.625000 0.819929
#
# Coordination Sequence:
#
# PCOD8286260 Si02
#       5
#    32  32  32  32  32
#     4  10  22  40  64  95 133 178 217 267 326 398
#     4  10  21  40  63  94 129 172 220 260 331 400
#     4   9  19  39  59  88 127 167 214 261 329 394
#     4  10  23  43  68  92 130 173 215 276 335 388
#     4  11  22  42  69  98 126 170 225 274 330 397
#
# _framework density 22.388404000000001
#
# number of rings (size 3 to 8) (size 9 to 14) (size 15 to 20)
#    0.000    2.000    2.000    0.600    0.000    5.600 
#   14.400    0.000    0.000    0.000    0.000    0.000 
#    0.000    0.000    0.000    0.000    0.000    0.000 
#
# Total GULP energy -495525.306593 kJ/mol
# GULP energy per Si atom -12388.132665 kJ/mol
# Density = 2.233745 g / cm^3
# Si number density = 22.388404 Si / 1000 Ang^3
#
#
#
# Elastic Constant Matrix: (Units=GPa)
#
#
# Indices 1 2 3 4 5 6 
#
# 1 68.7499 51.7255 16.8119 0.0000 0.0000 0.0000
# 2 51.7255 163.5463 52.5259 0.0000 0.0000 0.0000
# 3 16.8119 52.5259 67.0719 0.0000 0.0000 0.0000
# 4 0.0000 0.0000 0.0000 38.1477 0.0000 0.0000
# 5 0.0000 0.0000 0.0000 0.0000 21.4726 0.0000
# 6 0.0000 0.0000 0.0000 0.0000 0.0000 36.3763
#
#
#
# Elastic Compliance Matrix: (Units=1/GPa)
#
#
# Indices 1 2 3 4 5 6 
#
# 1 0.019088 -0.006013 -0.000076 0.000000 0.000000 0.000000
# 2 -0.006013 0.010063 -0.006374 0.000000 0.000000 0.000000
# 3 -0.000076 -0.006374 0.019920 0.000000 0.000000 0.000000
# 4 0.000000 0.000000 0.000000 0.026214 0.000000 0.000000
# 5 0.000000 0.000000 0.000000 0.000000 0.046571 0.000000
# 6 0.000000 0.000000 0.000000 0.000000 0.000000 0.027490
#
#
# Mechanical properties :
#
#
# Convention : Reuss Voigt Hill
#
# Bulk Modulus (GPa) = 41.41380 60.16609 50.78995
# Shear Modulus (GPa) = 27.42448 31.08630 29.25539
#
# Velocity S-wave (km/s) = 3.50371 3.73030 3.61878
# Velocity P-wave (km/s) = 5.90813 6.74430 6.34002
#
# Compressibility (1/GPa) = 0.02414654
#
# Stress axis : x y z
#
# Youngs Moduli (GPa) = 52.38965 99.37275 50.20147
#
# Poissons Ratio (x) = 0.59749 0.00380
# Poissons Ratio (y) = 0.31500 0.31997
# Poissons Ratio (z) = 0.00397 0.63336
#
# Static dielectric constant tensor:
#      x y z
#    x 4.063400 0.000000 0.000000 
#    y 0.000000 5.427720 0.000000 
#    z 0.000000 0.000000 4.011390 
# 
# 
# High freq. dielectric constant tensor:
#      x y z
#    x 1.850440 0.000000 0.000000 
#    y 0.000000 1.907930 0.000000 
#    z 0.000000 0.000000 1.860950 
# 
# From -- ./inp_files/44711.got.cif
#   From: 2010.03.12/outbox.cif.g09.slc.cpg/sg70_23_cif.got.tgz:44711.got - 2010.04.16 13:46:32.
