data_PCOD8286066
_publ_section_title
;
Structure prediction by ZEFSAII (Michael W. Deem and Ramdas Pophale) SiO2 
 PCOD8286066
Probable space group: F D D D
;
_chemical_formula_sum "Si O2"
_cell_formula_units_Z 208
_cell_length_a 21.708301
_cell_length_b 27.004154
_cell_length_c 19.259675
_cell_angle_alpha 90.000000
_cell_angle_beta 90.000000
_cell_angle_gamma 90.000000
_cell_volume 11290.296962
_symmetry_space_group_name_H-M "F D D D"
_symmetry_group_IT_number 70
_space_group.IT_coordinate_system_code '2'
_symmetry_cell_setting 'orthorhombic'
loop_
_space_group_symop_operation_xyz
x,y,z
1/4-x,1/4-y,z
x,1/4-y,1/4-z
1/4-x,y,1/4-z
-x,-y,-z
3/4+x,3/4+y,-z
-x,3/4+y,3/4+z
3/4+x,-y,3/4+z
x,1/2+y,1/2+z
1/4-x,3/4-y,1/2+z
x,3/4-y,3/4-z
1/4-x,1/2+y,3/4-z
-x,1/2-y,1/2-z
3/4+x,1/4+y,1/2-z
-x,1/4+y,1/4+z
3/4+x,1/2-y,1/4+z
1/2+x,y,1/2+z
3/4-x,1/4-y,1/2+z
1/2+x,1/4-y,3/4-z
3/4-x,y,3/4-z
1/2-x,-y,1/2-z
1/4+x,3/4+y,1/2-z
1/2-x,3/4+y,1/4+z
1/4+x,-y,1/4+z
1/2+x,1/2+y,z
3/4-x,3/4-y,z
1/2+x,3/4-y,1/4-z
3/4-x,1/2+y,1/4-z
1/2-x,1/2-y,-z
1/4+x,1/4+y,-z
1/2-x,1/4+y,3/4+z
1/4+x,1/2-y,3/4+z
loop_
_atom_site_type_symbol
_atom_site_label
_atom_site_fract_x
_atom_site_fract_y
_atom_site_fract_z
Si Si1 0.897286 0.667946 0.571991
Si Si2 0.181829 0.292485 0.074382
Si Si3 0.625000 0.475578 0.625000
Si Si4 0.438964 0.244058 0.678855
Si Si5 0.531376 0.349035 0.063831
Si Si6 0.821044 0.501303 0.737703
Si Si7 0.150716 0.573116 0.384449
O O1 0.877133 0.625000 0.625000
O O2 0.928707 0.713782 0.609492
O O3 0.946321 0.648523 0.515806
O O4 0.837238 0.692150 0.535785
O O5 0.125000 0.277152 0.125000
O O6 0.237994 0.253533 0.075785
O O7 0.205456 0.346858 0.096522
O O8 0.163366 0.289224 0.993123
O O9 0.683383 0.441267 0.609263
O O10 0.608222 0.509975 0.559132
O O11 0.400404 0.295227 0.680953
O O12 0.460056 0.333648 0.067501
O O13 0.750000 0.500000 0.750000
O O14 0.836338 0.459221 0.682952
O O15 0.125000 0.625000 0.357199
#
# Coordination Sequence:
#
# PCOD8286066 Si02
#       7
#    32  32  16  32  32  32  32
#     4  10  21  38  59  87 118 157 200 252 298 359
#     4  11  22  37  60  87 116 154 196 248 294 357
#     4  10  20  38  61  88 114 156 205 246 296 368
#     4  10  23  40  55  86 123 149 200 247 293 360
#     4  11  20  35  63  84 114 159 198 240 303 367
#     4  10  21  39  62  88 122 157 205 250 308 369
#     4  11  22  39  60  87 120 161 193 250 310 356
#
# _framework density 18.422899000000001
#
# number of rings (size 3 to 8) (size 9 to 14) (size 15 to 20)
#    0.000    1.538    5.385    0.000    2.154    0.000 
#    0.000    1.923    0.000    0.000    0.000    0.000 
#    0.000    0.000    0.000    0.000    0.000    0.000 
#
# Total GULP energy -644567.606472 kJ/mol
# GULP energy per Si atom -12395.530894 kJ/mol
# Density = 1.838097 g / cm^3
# Si number density = 18.422899 Si / 1000 Ang^3
#
#
#
# Elastic Constant Matrix: (Units=GPa)
#
#
# Indices 1 2 3 4 5 6 
#
# 1 116.8856 35.6313 45.6924 0.0000 0.0000 0.0000
# 2 35.6313 81.5363 31.2176 0.0000 0.0000 0.0000
# 3 45.6924 31.2176 99.1088 0.0000 0.0000 0.0000
# 4 0.0000 0.0000 0.0000 17.3566 0.0000 0.0000
# 5 0.0000 0.0000 0.0000 0.0000 20.7518 0.0000
# 6 0.0000 0.0000 0.0000 0.0000 0.0000 23.1523
#
#
#
# Elastic Compliance Matrix: (Units=1/GPa)
#
#
# Indices 1 2 3 4 5 6 
#
# 1 0.011170 -0.003308 -0.004107 0.000000 0.000000 0.000000
# 2 -0.003308 0.014926 -0.003176 0.000000 0.000000 0.000000
# 3 -0.004107 -0.003176 0.012984 0.000000 0.000000 0.000000
# 4 0.000000 0.000000 0.000000 0.057615 0.000000 0.000000
# 5 0.000000 0.000000 0.000000 0.000000 0.048189 0.000000
# 6 0.000000 0.000000 0.000000 0.000000 0.000000 0.043192
#
#
# Mechanical properties :
#
#
# Convention : Reuss Voigt Hill
#
# Bulk Modulus (GPa) = 55.87938 58.06814 56.97376
# Shear Modulus (GPa) = 23.23146 24.58476 23.90811
#
# Velocity S-wave (km/s) = 3.55492 3.65700 3.60632
# Velocity P-wave (km/s) = 6.87367 7.02990 6.95222
#
# Compressibility (1/GPa) = 0.01789569
#
# Stress axis : x y z
#
# Youngs Moduli (GPa) = 89.52880 66.99561 77.01760
#
# Poissons Ratio (x) = 0.22165 0.31634
# Poissons Ratio (y) = 0.29621 0.24463
# Poissons Ratio (z) = 0.36773 0.21279
#
# Static dielectric constant tensor:
#      x y z
#    x 3.447060 0.000000 0.000000 
#    y 0.000000 3.437060 0.000000 
#    z 0.000000 0.000000 3.250130 
# 
# 
# High freq. dielectric constant tensor:
#      x y z
#    x 1.713680 0.000000 0.000000 
#    y 0.000000 1.712590 0.000000 
#    z 0.000000 0.000000 1.718130 
# 
# From -- ./inp_files/37713.got.cif
#   From: 2010.03.12/outbox.cif.g09.slc.cpg/sg70_19_cif.got.tgz:37713.got - 2010.04.16 13:46:32.
