data_PCOD8286109
_publ_section_title
;
Structure prediction by ZEFSAII (Michael W. Deem and Ramdas Pophale) SiO2 
 PCOD8286109
Probable space group: F D D D
;
_chemical_formula_sum "Si O2"
_cell_formula_units_Z 208
_cell_length_a 18.830896
_cell_length_b 27.048411
_cell_length_c 18.433652
_cell_angle_alpha 90.000000
_cell_angle_beta 90.000000
_cell_angle_gamma 90.000000
_cell_volume 9389.103492
_symmetry_space_group_name_H-M "F D D D"
_symmetry_group_IT_number 70
_space_group.IT_coordinate_system_code '2'
_symmetry_cell_setting 'orthorhombic'
loop_
_space_group_symop_operation_xyz
x,y,z
1/4-x,1/4-y,z
x,1/4-y,1/4-z
1/4-x,y,1/4-z
-x,-y,-z
3/4+x,3/4+y,-z
-x,3/4+y,3/4+z
3/4+x,-y,3/4+z
x,1/2+y,1/2+z
1/4-x,3/4-y,1/2+z
x,3/4-y,3/4-z
1/4-x,1/2+y,3/4-z
-x,1/2-y,1/2-z
3/4+x,1/4+y,1/2-z
-x,1/4+y,1/4+z
3/4+x,1/2-y,1/4+z
1/2+x,y,1/2+z
3/4-x,1/4-y,1/2+z
1/2+x,1/4-y,3/4-z
3/4-x,y,3/4-z
1/2-x,-y,1/2-z
1/4+x,3/4+y,1/2-z
1/2-x,3/4+y,1/4+z
1/4+x,-y,1/4+z
1/2+x,1/2+y,z
3/4-x,3/4-y,z
1/2+x,3/4-y,1/4-z
3/4-x,1/2+y,1/4-z
1/2-x,1/2-y,-z
1/4+x,1/4+y,-z
1/2-x,1/4+y,3/4+z
1/4+x,1/2-y,3/4+z
loop_
_atom_site_type_symbol
_atom_site_label
_atom_site_fract_x
_atom_site_fract_y
_atom_site_fract_z
Si Si1 0.862163 0.242442 0.526341
Si Si2 0.817845 0.416033 0.493658
Si Si3 0.625000 0.497539 0.625000
Si Si4 0.873724 0.319405 0.006330
Si Si5 0.997514 0.080075 0.381336
Si Si6 0.774875 0.479589 0.358490
Si Si7 0.216930 0.429245 0.551769
O O1 0.912212 0.287937 0.548809
O O2 0.825089 0.275373 0.461235
O O3 0.807488 0.225494 0.587071
O O4 0.908935 0.193770 0.509471
O O5 0.875000 0.375000 0.472860
O O6 0.763531 0.392901 0.552948
O O7 0.785967 0.436821 0.418331
O O8 0.605256 0.531083 0.556409
O O9 0.695295 0.465064 0.614946
O O10 0.875000 0.375000 0.974724
O O11 0.817154 0.314508 0.071843
O O12 0.952870 0.306849 0.031634
O O13 0.955938 0.122240 0.427419
O O14 0.798764 0.533940 0.382307
#
# Coordination Sequence:
#
# PCOD8286109 Si02
#       7
#    32  32  16  32  32  32  32
#     4  10  21  37  61  90 125 171 204 262 319 384
#     4  11  21  38  62  92 128 167 215 260 318 384
#     4  12  23  38  66  94 124 164 215 282 322 382
#     4  10  22  42  63  91 124 168 212 261 324 395
#     4  11  24  38  63  95 127 168 215 268 323 388
#     4  10  21  36  61  91 125 168 212 257 316 384
#     4  10  20  39  64  87 125 166 212 250 322 394
#
# _framework density 22.15334
#
# number of rings (size 3 to 8) (size 9 to 14) (size 15 to 20)
#    0.000    1.538    0.000    7.615    2.154    1.231 
#    0.000    1.538    6.769    0.000    4.000    0.000 
#    0.000    0.000    0.000    0.000    0.000    0.000 
#
# Total GULP energy -644181.376337 kJ/mol
# GULP energy per Si atom -12388.103391 kJ/mol
# Density = 2.210292 g / cm^3
# Si number density = 22.153340 Si / 1000 Ang^3
#
#
#
# Elastic Constant Matrix: (Units=GPa)
#
#
# Indices 1 2 3 4 5 6 
#
# 1 98.0483 30.2098 24.9103 0.0000 0.0000 0.0000
# 2 30.2098 99.9297 40.8597 0.0000 0.0000 0.0000
# 3 24.9103 40.8597 96.7992 0.0000 0.0000 0.0000
# 4 0.0000 0.0000 0.0000 17.0486 0.0000 0.0000
# 5 0.0000 0.0000 0.0000 0.0000 26.3495 0.0000
# 6 0.0000 0.0000 0.0000 0.0000 0.0000 33.4327
#
#
#
# Elastic Compliance Matrix: (Units=1/GPa)
#
#
# Indices 1 2 3 4 5 6 
#
# 1 0.011501 -0.002740 -0.001803 0.000000 0.000000 0.000000
# 2 -0.002740 0.012747 -0.004676 0.000000 0.000000 0.000000
# 3 -0.001803 -0.004676 0.012768 0.000000 0.000000 0.000000
# 4 0.000000 0.000000 0.000000 0.058656 0.000000 0.000000
# 5 0.000000 0.000000 0.000000 0.000000 0.037951 0.000000
# 6 0.000000 0.000000 0.000000 0.000000 0.000000 0.029911
#
#
# Mechanical properties :
#
#
# Convention : Reuss Voigt Hill
#
# Bulk Modulus (GPa) = 53.82254 54.08186 53.95220
# Shear Modulus (GPa) = 26.57241 28.61933 27.59587
#
# Velocity S-wave (km/s) = 3.46710 3.59816 3.53324
# Velocity P-wave (km/s) = 6.35421 6.45971 6.40718
#
# Compressibility (1/GPa) = 0.01857958
#
# Stress axis : x y z
#
# Youngs Moduli (GPa) = 86.94661 78.44961 78.31870
#
# Poissons Ratio (x) = 0.21492 0.14123
# Poissons Ratio (y) = 0.23820 0.36619
# Poissons Ratio (z) = 0.15679 0.36680
#
# Static dielectric constant tensor:
#      x y z
#    x 4.222950 0.000000 0.000000 
#    y 0.000000 3.967510 0.000000 
#    z 0.000000 0.000000 3.912290 
# 
# 
# High freq. dielectric constant tensor:
#      x y z
#    x 1.881930 0.000000 0.000000 
#    y 0.000000 1.873750 0.000000 
#    z 0.000000 0.000000 1.865960 
# 
# From -- ./inp_files/36731.got.cif
#   From: 2010.03.12/outbox.cif.g09.slc.cpg/sg70_19_cif.got.tgz:36731.got - 2010.04.16 13:46:32.
