data_PCOD8286590
_publ_section_title
;
Structure prediction by ZEFSAII (Michael W. Deem and Ramdas Pophale) SiO2 
 PCOD8286590
Probable space group: F D D D
;
_chemical_formula_sum "Si O2"
_cell_formula_units_Z 160
_cell_length_a 12.599246
_cell_length_b 25.627581
_cell_length_c 23.767701
_cell_angle_alpha 90.000000
_cell_angle_beta 90.000000
_cell_angle_gamma 90.000000
_cell_volume 7674.310132
_symmetry_space_group_name_H-M "F D D D"
_symmetry_group_IT_number 70
_space_group.IT_coordinate_system_code '2'
_symmetry_cell_setting 'orthorhombic'
loop_
_space_group_symop_operation_xyz
x,y,z
1/4-x,1/4-y,z
x,1/4-y,1/4-z
1/4-x,y,1/4-z
-x,-y,-z
3/4+x,3/4+y,-z
-x,3/4+y,3/4+z
3/4+x,-y,3/4+z
x,1/2+y,1/2+z
1/4-x,3/4-y,1/2+z
x,3/4-y,3/4-z
1/4-x,1/2+y,3/4-z
-x,1/2-y,1/2-z
3/4+x,1/4+y,1/2-z
-x,1/4+y,1/4+z
3/4+x,1/2-y,1/4+z
1/2+x,y,1/2+z
3/4-x,1/4-y,1/2+z
1/2+x,1/4-y,3/4-z
3/4-x,y,3/4-z
1/2-x,-y,1/2-z
1/4+x,3/4+y,1/2-z
1/2-x,3/4+y,1/4+z
1/4+x,-y,1/4+z
1/2+x,1/2+y,z
3/4-x,3/4-y,z
1/2+x,3/4-y,1/4-z
3/4-x,1/2+y,1/4-z
1/2-x,1/2-y,-z
1/4+x,1/4+y,-z
1/2-x,1/4+y,3/4+z
1/4+x,1/2-y,3/4+z
loop_
_atom_site_type_symbol
_atom_site_label
_atom_site_fract_x
_atom_site_fract_y
_atom_site_fract_z
Si Si1 0.014355 0.724438 0.984569
Si Si2 0.190890 0.362591 0.511803
Si Si3 0.677322 0.198560 0.899263
Si Si4 0.799066 0.919240 0.024501
Si Si5 0.938954 0.295941 0.824409
O O1 0.063188 0.717509 0.922423
O O2 0.943269 0.674412 0.999141
O O3 0.114208 0.728771 0.026670
O O4 0.943368 0.776810 0.989040
O O5 0.271410 0.346855 0.561853
O O6 0.228158 0.335686 0.453654
O O7 0.071950 0.348617 0.526931
O O8 0.657934 0.177208 0.837321
O O9 0.753722 0.247989 0.895597
O O10 0.875000 0.875000 0.996446
O O11 0.875000 0.324536 0.875000
#
# Coordination Sequence:
#
# PCOD8286590 Si02
#       5
#    32  32  32  32  32
#     4  11  22  37  59  92 123 165 205 261 323 374
#     4  11  22  37  59  91 131 161 203 269 321 373
#     4  11  19  39  63  92 125 161 209 266 321 372
#     4  12  24  40  61  88 124 172 219 257 310 381
#     4  11  18  35  62  93 128 156 200 262 330 371
#
# _framework density 20.848779
#
# number of rings (size 3 to 8) (size 9 to 14) (size 15 to 20)
#    0.000    0.800    6.000    5.400    0.000    2.400 
#    0.000    0.000    0.000    0.000    0.000    2.800 
#    0.000    0.000    0.000    0.000    0.000    0.000 
#
# Total GULP energy -496080.971129 kJ/mol
# GULP energy per Si atom -12402.024278 kJ/mol
# Density = 2.080133 g / cm^3
# Si number density = 20.848779 Si / 1000 Ang^3
#
#
#
# Elastic Constant Matrix: (Units=GPa)
#
#
# Indices 1 2 3 4 5 6 
#
# 1 56.9503 47.3264 39.1147 0.0000 0.0000 0.0000
# 2 47.3264 171.9586 25.6812 0.0000 0.0000 0.0000
# 3 39.1147 25.6812 66.8490 0.0000 0.0000 0.0000
# 4 0.0000 0.0000 0.0000 12.2756 0.0000 0.0000
# 5 0.0000 0.0000 0.0000 0.0000 31.1956 0.0000
# 6 0.0000 0.0000 0.0000 0.0000 0.0000 35.7200
#
#
#
# Elastic Compliance Matrix: (Units=1/GPa)
#
#
# Indices 1 2 3 4 5 6 
#
# 1 0.036196 -0.007213 -0.018408 0.000000 0.000000 0.000000
# 2 -0.007213 0.007607 0.001298 0.000000 0.000000 0.000000
# 3 -0.018408 0.001298 0.025231 0.000000 0.000000 0.000000
# 4 0.000000 0.000000 0.000000 0.081462 0.000000 0.000000
# 5 0.000000 0.000000 0.000000 0.000000 0.032056 0.000000
# 6 0.000000 0.000000 0.000000 0.000000 0.000000 0.027996
#
#
# Mechanical properties :
#
#
# Convention : Reuss Voigt Hill
#
# Bulk Modulus (GPa) = 49.04725 57.77806 53.41266
# Shear Modulus (GPa) = 18.79773 28.08061 23.43917
#
# Velocity S-wave (km/s) = 3.00596 3.67396 3.35662
# Velocity P-wave (km/s) = 5.96859 6.76538 6.37944
#
# Compressibility (1/GPa) = 0.02038850
#
# Stress axis : x y z
#
# Youngs Moduli (GPa) = 27.62724 131.46535 39.63314
#
# Poissons Ratio (x) = 0.94822 0.72958
# Poissons Ratio (y) = 0.19927 -0.05145
# Poissons Ratio (z) = 0.50857 -0.17066
#
# Static dielectric constant tensor:
#      x y z
#    x 3.560710 0.000000 0.000000 
#    y 0.000000 4.040520 0.000000 
#    z 0.000000 0.000000 3.646220 
# 
# 
# High freq. dielectric constant tensor:
#      x y z
#    x 1.787990 0.000000 0.000000 
#    y 0.000000 1.833910 0.000000 
#    z 0.000000 0.000000 1.794860 
# 
# From -- ./inp_files/20846.got.cif
#   From: 2010.03.12/outbox.cif.g09.slc.cpg/sg70_11_cif.got.tgz:20846.got - 2010.04.16 13:46:32.
