data_PCOD8286472
_publ_section_title
;
Structure prediction by ZEFSAII (Michael W. Deem and Ramdas Pophale) SiO2 
 PCOD8286472
Probable space group: F D D D
;
_chemical_formula_sum "Si O2"
_cell_formula_units_Z 208
_cell_length_a 20.415635
_cell_length_b 27.127898
_cell_length_c 16.666903
_cell_angle_alpha 90.000000
_cell_angle_beta 90.000000
_cell_angle_gamma 90.000000
_cell_volume 9230.685287
_symmetry_space_group_name_H-M "F D D D"
_symmetry_group_IT_number 70
_space_group.IT_coordinate_system_code '2'
_symmetry_cell_setting 'orthorhombic'
loop_
_space_group_symop_operation_xyz
x,y,z
1/4-x,1/4-y,z
x,1/4-y,1/4-z
1/4-x,y,1/4-z
-x,-y,-z
3/4+x,3/4+y,-z
-x,3/4+y,3/4+z
3/4+x,-y,3/4+z
x,1/2+y,1/2+z
1/4-x,3/4-y,1/2+z
x,3/4-y,3/4-z
1/4-x,1/2+y,3/4-z
-x,1/2-y,1/2-z
3/4+x,1/4+y,1/2-z
-x,1/4+y,1/4+z
3/4+x,1/2-y,1/4+z
1/2+x,y,1/2+z
3/4-x,1/4-y,1/2+z
1/2+x,1/4-y,3/4-z
3/4-x,y,3/4-z
1/2-x,-y,1/2-z
1/4+x,3/4+y,1/2-z
1/2-x,3/4+y,1/4+z
1/4+x,-y,1/4+z
1/2+x,1/2+y,z
3/4-x,3/4-y,z
1/2+x,3/4-y,1/4-z
3/4-x,1/2+y,1/4-z
1/2-x,1/2-y,-z
1/4+x,1/4+y,-z
1/2-x,1/4+y,3/4+z
1/4+x,1/2-y,3/4+z
loop_
_atom_site_type_symbol
_atom_site_label
_atom_site_fract_x
_atom_site_fract_y
_atom_site_fract_z
Si Si1 0.375000 0.631836 0.875000
Si Si2 0.493546 0.407126 0.944750
Si Si3 0.375000 0.875000 0.030994
Si Si4 0.050663 0.484323 0.894121
Si Si5 0.480995 0.342628 0.097720
Si Si6 0.372621 0.050874 0.248452
Si Si7 0.125000 0.218554 0.125000
Si Si8 0.340405 0.972032 0.799139
O O1 0.441256 0.662787 0.886115
O O2 0.390985 0.599288 0.797242
O O3 0.528591 0.375000 0.875000
O O4 0.544679 0.447153 0.979636
O O5 0.434583 0.434474 0.900843
O O6 0.466961 0.370735 0.014426
O O7 0.441074 0.876932 0.084724
O O8 0.378819 0.827732 0.973449
O O9 0.044030 0.536638 0.848349
O O10 0.086546 0.447486 0.833852
O O11 0.983991 0.460107 0.925779
O O12 0.095035 0.491031 0.973794
O O13 0.392178 0.002664 0.298892
O O14 0.375000 0.997622 0.875000
#
# Coordination Sequence:
#
# PCOD8286472 Si02
#       8
#    16  32  16  32  32  32  16  32
#     4   9  22  44  65  96 135 175 214 267 342 398
#     4  11  24  40  64 103 132 173 225 270 339 405
#     4  10  23  42  67  92 130 170 218 283 328 390
#     4  10  23  42  65  95 127 174 220 268 336 390
#     4  10  23  42  67  97 133 174 219 273 339 397
#     4  10  23  44  63  98 134 176 214 276 343 393
#     4  11  23  40  71  96 138 174 226 277 328 421
#     4  10  23  41  62  94 123 165 223 267 325 389
#
# _framework density 22.533538
#
# number of rings (size 3 to 8) (size 9 to 14) (size 15 to 20)
#    0.000    1.846    0.000    1.846    9.692    2.462 
#   13.846    0.000    0.000    0.000    0.000    0.000 
#    0.000    0.000    0.000    0.000    0.000    0.000 
#
# Total GULP energy -644701.541902 kJ/mol
# GULP energy per Si atom -12398.106575 kJ/mol
# Density = 2.248225 g / cm^3
# Si number density = 22.533538 Si / 1000 Ang^3
#
#
#
# Elastic Constant Matrix: (Units=GPa)
#
#
# Indices 1 2 3 4 5 6 
#
# 1 68.0919 12.4315 33.0293 0.0000 0.0000 0.0000
# 2 12.4315 39.0173 21.6056 0.0000 0.0000 0.0000
# 3 33.0293 21.6056 146.5551 0.0000 0.0000 0.0000
# 4 0.0000 0.0000 0.0000 4.6099 0.0000 0.0000
# 5 0.0000 0.0000 0.0000 0.0000 46.3907 0.0000
# 6 0.0000 0.0000 0.0000 0.0000 0.0000 -35.6999
#
#
#
# Elastic Compliance Matrix: (Units=1/GPa)
#
#
# Indices 1 2 3 4 5 6 
#
# 1 0.016934 -0.003574 -0.003290 0.000000 0.000000 0.000000
# 2 -0.003574 0.028662 -0.003420 0.000000 0.000000 0.000000
# 3 -0.003290 -0.003420 0.008069 0.000000 0.000000 0.000000
# 4 0.000000 0.000000 0.000000 0.216927 0.000000 0.000000
# 5 0.000000 0.000000 0.000000 0.000000 0.021556 0.000000
# 6 0.000000 0.000000 0.000000 0.000000 0.000000 -0.028011
#
#
# Mechanical properties :
#
#
# Convention : Reuss Voigt Hill
#
# Bulk Modulus (GPa) = 30.21305 43.08856 36.65081
# Shear Modulus (GPa) = 16.90695 15.49998 16.20346
#
# Velocity S-wave (km/s) = 2.74213 2.62556 2.68448
# Velocity P-wave (km/s) = 4.84385 5.32493 5.09008
#
# Compressibility (1/GPa) = 0.03309828
#
# Stress axis : x y z
#
# Youngs Moduli (GPa) = 59.05210 34.88921 123.93207
#
# Poissons Ratio (x) = 0.12469 0.40769
# Poissons Ratio (y) = 0.21105 0.42385
# Poissons Ratio (z) = 0.19426 0.11932
#
# Static dielectric constant tensor:
#      x y z
#    x 3.931910 0.000000 0.000000 
#    y 0.000000 3.895400 0.000000 
#    z 0.000000 0.000000 4.388180 
# 
# 
# High freq. dielectric constant tensor:
#      x y z
#    x 1.880510 0.000000 0.000000 
#    y 0.000000 1.876790 0.000000 
#    z 0.000000 0.000000 1.911100 
# 
# From -- ./inp_files/36790.got.cif
#   From: 2010.03.12/outbox.cif.g09.slc.cpg/sg70_19_cif.got.tgz:36790.got - 2010.04.16 13:46:32.
