data_PCOD8286711
_publ_section_title
;
Structure prediction by ZEFSAII (Michael W. Deem and Ramdas Pophale) SiO2 
 PCOD8286711
Probable space group: F D D D
;
_chemical_formula_sum "Si O2"
_cell_formula_units_Z 144
_cell_length_a 15.675554
_cell_length_b 28.185898
_cell_length_c 14.234906
_cell_angle_alpha 90.000000
_cell_angle_beta 90.000000
_cell_angle_gamma 90.000000
_cell_volume 6289.402342
_symmetry_space_group_name_H-M "F D D D"
_symmetry_group_IT_number 70
_space_group.IT_coordinate_system_code '2'
_symmetry_cell_setting 'orthorhombic'
loop_
_space_group_symop_operation_xyz
x,y,z
1/4-x,1/4-y,z
x,1/4-y,1/4-z
1/4-x,y,1/4-z
-x,-y,-z
3/4+x,3/4+y,-z
-x,3/4+y,3/4+z
3/4+x,-y,3/4+z
x,1/2+y,1/2+z
1/4-x,3/4-y,1/2+z
x,3/4-y,3/4-z
1/4-x,1/2+y,3/4-z
-x,1/2-y,1/2-z
3/4+x,1/4+y,1/2-z
-x,1/4+y,1/4+z
3/4+x,1/2-y,1/4+z
1/2+x,y,1/2+z
3/4-x,1/4-y,1/2+z
1/2+x,1/4-y,3/4-z
3/4-x,y,3/4-z
1/2-x,-y,1/2-z
1/4+x,3/4+y,1/2-z
1/2-x,3/4+y,1/4+z
1/4+x,-y,1/4+z
1/2+x,1/2+y,z
3/4-x,3/4-y,z
1/2+x,3/4-y,1/4-z
3/4-x,1/2+y,1/4-z
1/2-x,1/2-y,-z
1/4+x,1/4+y,-z
1/2-x,1/4+y,3/4+z
1/4+x,1/2-y,3/4+z
loop_
_atom_site_type_symbol
_atom_site_label
_atom_site_fract_x
_atom_site_fract_y
_atom_site_fract_z
Si Si1 0.806317 0.098196 0.714550
Si Si2 0.766078 0.264618 0.104538
Si Si3 0.013871 0.919434 0.308173
Si Si4 0.576054 0.577298 0.887682
Si Si5 0.625000 0.910884 0.125000
O O1 0.762825 0.125000 0.625000
O O2 0.885356 0.067179 0.676339
O O3 0.737389 0.068197 0.773504
O O4 0.866096 0.131599 0.779602
O O5 0.726948 0.220679 0.163146
O O6 0.863897 0.281346 0.125242
O O7 0.711642 0.310405 0.126186
O O8 0.750000 0.250000 0.000000
O O9 0.985369 0.875000 0.375000
O O10 0.980926 0.910161 0.203044
O O11 0.625000 0.625000 0.915019
#
# Coordination Sequence:
#
# PCOD8286711 Si02
#       5
#    32  32  32  32  16
#     4  11  23  44  72  97 141 187 222 284 358 413
#     4  12  25  41  69 104 135 182 235 289 347 410
#     4  11  24  43  68 101 139 184 229 293 350 407
#     4  12  23  44  70 103 136 181 237 288 346 427
#     4  12  22  48  67  96 142 176 229 290 348 410
#
# _framework density 22.895657
#
# number of rings (size 3 to 8) (size 9 to 14) (size 15 to 20)
#    0.000    0.444    4.444    5.333    0.000    3.556 
#    0.000    3.333    0.000    0.000    0.000    0.000 
#    0.000    0.000    0.000    0.000    0.000    0.000 
#
# Total GULP energy -446021.961164 kJ/mol
# GULP energy per Si atom -12389.498921 kJ/mol
# Density = 2.284355 g / cm^3
# Si number density = 22.895657 Si / 1000 Ang^3
#
#
#
# Elastic Constant Matrix: (Units=GPa)
#
#
# Indices 1 2 3 4 5 6 
#
# 1 89.9749 14.2053 19.2511 0.0000 0.0000 0.0000
# 2 14.2053 87.6724 9.2716 0.0000 0.0000 0.0000
# 3 19.2511 9.2716 115.8462 0.0000 0.0000 0.0000
# 4 0.0000 0.0000 0.0000 26.6536 0.0000 0.0000
# 5 0.0000 0.0000 0.0000 0.0000 40.5267 0.0000
# 6 0.0000 0.0000 0.0000 0.0000 0.0000 27.1402
#
#
#
# Elastic Compliance Matrix: (Units=1/GPa)
#
#
# Indices 1 2 3 4 5 6 
#
# 1 0.011774 -0.001715 -0.001819 0.000000 0.000000 0.000000
# 2 -0.001715 0.011753 -0.000656 0.000000 0.000000 0.000000
# 3 -0.001819 -0.000656 0.008987 0.000000 0.000000 0.000000
# 4 0.000000 0.000000 0.000000 0.037518 0.000000 0.000000
# 5 0.000000 0.000000 0.000000 0.000000 0.024675 0.000000
# 6 0.000000 0.000000 0.000000 0.000000 0.000000 0.036846
#
#
# Mechanical properties :
#
#
# Convention : Reuss Voigt Hill
#
# Bulk Modulus (GPa) = 41.43534 42.10549 41.77041
# Shear Modulus (GPa) = 33.78856 35.58181 34.68519
#
# Velocity S-wave (km/s) = 3.84573 3.94647 3.89643
# Velocity P-wave (km/s) = 6.15275 6.26069 6.20695
#
# Compressibility (1/GPa) = 0.02413399
#
# Stress axis : x y z
#
# Youngs Moduli (GPa) = 84.93080 85.08205 111.27257
#
# Poissons Ratio (x) = 0.14595 0.20244
# Poissons Ratio (y) = 0.14569 0.07295
# Poissons Ratio (z) = 0.15452 0.05578
#
# Static dielectric constant tensor:
#      x y z
#    x 4.217850 0.000000 0.000000 
#    y 0.000000 3.802630 0.000000 
#    z 0.000000 0.000000 4.149760 
# 
# 
# High freq. dielectric constant tensor:
#      x y z
#    x 1.915010 0.000000 0.000000 
#    y 0.000000 1.895130 0.000000 
#    z 0.000000 0.000000 1.910270 
# 
# From -- ./inp_files/26580.got.cif
#   From: 2010.03.12/outbox.cif.g09.slc.cpg/sg70_14_cif.got.tgz:26580.got - 2010.04.16 13:46:32.
