data_PCOD8286449
_publ_section_title
;
Structure prediction by ZEFSAII (Michael W. Deem and Ramdas Pophale) SiO2 
 PCOD8286449
Probable space group: F D D D
;
_chemical_formula_sum "Si O2"
_cell_formula_units_Z 176
_cell_length_a 21.480244
_cell_length_b 12.161630
_cell_length_c 31.473342
_cell_angle_alpha 90.000000
_cell_angle_beta 90.000000
_cell_angle_gamma 90.000000
_cell_volume 8221.931568
_symmetry_space_group_name_H-M "F D D D"
_symmetry_group_IT_number 70
_space_group.IT_coordinate_system_code '2'
_symmetry_cell_setting 'orthorhombic'
loop_
_space_group_symop_operation_xyz
x,y,z
1/4-x,1/4-y,z
x,1/4-y,1/4-z
1/4-x,y,1/4-z
-x,-y,-z
3/4+x,3/4+y,-z
-x,3/4+y,3/4+z
3/4+x,-y,3/4+z
x,1/2+y,1/2+z
1/4-x,3/4-y,1/2+z
x,3/4-y,3/4-z
1/4-x,1/2+y,3/4-z
-x,1/2-y,1/2-z
3/4+x,1/4+y,1/2-z
-x,1/4+y,1/4+z
3/4+x,1/2-y,1/4+z
1/2+x,y,1/2+z
3/4-x,1/4-y,1/2+z
1/2+x,1/4-y,3/4-z
3/4-x,y,3/4-z
1/2-x,-y,1/2-z
1/4+x,3/4+y,1/2-z
1/2-x,3/4+y,1/4+z
1/4+x,-y,1/4+z
1/2+x,1/2+y,z
3/4-x,3/4-y,z
1/2+x,3/4-y,1/4-z
3/4-x,1/2+y,1/4-z
1/2-x,1/2-y,-z
1/4+x,1/4+y,-z
1/2-x,1/4+y,3/4+z
1/4+x,1/2-y,3/4+z
loop_
_atom_site_type_symbol
_atom_site_label
_atom_site_fract_x
_atom_site_fract_y
_atom_site_fract_z
Si Si1 0.456652 0.694071 0.583563
Si Si2 0.163556 0.023417 0.538269
Si Si3 0.875260 0.199200 0.425142
Si Si4 0.125000 0.625000 0.875255
Si Si5 0.778441 0.374607 0.425142
Si Si6 0.347760 0.204768 0.195400
O O1 0.477247 0.625000 0.625000
O O2 0.516061 0.723447 0.555122
O O3 0.424937 0.810334 0.596248
O O4 0.410569 0.617132 0.555973
O O5 0.125000 0.125000 0.557120
O O6 0.125773 0.916965 0.552395
O O7 0.159766 0.027576 0.487328
O O8 0.875000 0.181363 0.375000
O O9 0.815116 0.267382 0.440987
O O10 0.936849 0.263954 0.440408
O O11 0.090582 0.714404 0.904932
O O12 0.778772 0.375000 0.375000
O O13 0.709184 0.368762 0.443597
#
# Coordination Sequence:
#
# PCOD8286449 Si02
#       6
#    32  32  32  16  32  32
#     4  10  26  45  69 101 131 180 235 270 329 414
#     4  12  28  43  64 102 142 180 219 281 347 401
#     4   9  22  39  65  98 134 175 218 277 336 407
#     4  10  22  48  70  98 127 184 229 276 332 414
#     4   9  19  41  69  98 125 172 227 270 341 400
#     4  11  24  44  69  95 137 178 221 287 340 400
#
# _framework density 21.406161999999998
#
# number of rings (size 3 to 8) (size 9 to 14) (size 15 to 20)
#    0.000    1.818    0.909    2.727   12.727    2.909 
#    0.000    0.000    0.000    0.000    0.000    0.000 
#    0.000    0.000    0.000    0.000    0.000    0.000 
#
# Total GULP energy -545610.769465 kJ/mol
# GULP energy per Si atom -12400.244761 kJ/mol
# Density = 2.135744 g / cm^3
# Si number density = 21.406162 Si / 1000 Ang^3
#
#
#
# Elastic Constant Matrix: (Units=GPa)
#
#
# Indices 1 2 3 4 5 6 
#
# 1 123.5459 53.1961 49.5972 0.0000 0.0000 0.0000
# 2 53.1961 140.2446 38.7170 0.0000 0.0000 0.0000
# 3 49.5972 38.7170 75.1659 0.0000 0.0000 0.0000
# 4 0.0000 0.0000 0.0000 -13.2312 0.0000 0.0000
# 5 0.0000 0.0000 0.0000 0.0000 23.2301 0.0000
# 6 0.0000 0.0000 0.0000 0.0000 0.0000 28.7516
#
#
#
# Elastic Compliance Matrix: (Units=1/GPa)
#
#
# Indices 1 2 3 4 5 6 
#
# 1 0.011839 -0.002721 -0.006410 0.000000 0.000000 0.000000
# 2 -0.002721 0.008938 -0.002808 0.000000 0.000000 0.000000
# 3 -0.006410 -0.002808 0.018980 0.000000 0.000000 0.000000
# 4 0.000000 0.000000 0.000000 -0.075579 0.000000 0.000000
# 5 0.000000 0.000000 0.000000 0.000000 0.043048 0.000000
# 6 0.000000 0.000000 0.000000 0.000000 0.000000 0.034781
#
#
# Mechanical properties :
#
#
# Convention : Reuss Voigt Hill
#
# Bulk Modulus (GPa) = 62.98098 69.10854 66.04476
# Shear Modulus (GPa) = 70.24586 20.91318 45.57952
#
# Velocity S-wave (km/s) = 5.73472 3.12904 4.61941
# Velocity P-wave (km/s) = 8.56359 6.73862 7.70533
#
# Compressibility (1/GPa) = 0.01587781
#
# Stress axis : x y z
#
# Youngs Moduli (GPa) = 84.46521 111.88447 52.68642
#
# Poissons Ratio (x) = 0.30444 0.33774
# Poissons Ratio (y) = 0.22983 0.14796
# Poissons Ratio (z) = 0.54145 0.31421
#
# Static dielectric constant tensor:
#      x y z
#    x 10.623230 0.000000 0.000000 
#    y 0.000000 3.960310 0.000000 
#    z 0.000000 0.000000 3.718940 
# 
# 
# High freq. dielectric constant tensor:
#      x y z
#    x 1.841590 0.000000 0.000000 
#    y 0.000000 1.849650 0.000000 
#    z 0.000000 0.000000 1.823980 
# 
# From -- ./inp_files/67784.got.cif
#   From: 2010.03.12/outbox.cif.g09.slc.cpg/sg70_34_cif.got.tgz:67784.got - 2010.04.16 13:46:32.
