data_PCOD8286970
_publ_section_title
;
Structure prediction by ZEFSAII (Michael W. Deem and Ramdas Pophale) SiO2 
 PCOD8286970
Probable space group: I M M M
;
_chemical_formula_sum "Si O2"
_cell_formula_units_Z 64
_cell_length_a 18.407014
_cell_length_b 26.806837
_cell_length_c 8.574580
_cell_angle_alpha 90.000000
_cell_angle_beta 90.000000
_cell_angle_gamma 90.000000
_cell_volume 4230.987798
_symmetry_space_group_name_H-M "I M M M"
_symmetry_group_IT_number 71
_symmetry_cell_setting 'orthorhombic'
loop_
_space_group_symop_operation_xyz
x,y,z
-x,-y,z
x,-y,-z
-x,y,-z
-x,-y,-z
x,y,-z
-x,y,z
x,-y,z
1/2+x,1/2+y,1/2+z
1/2-x,1/2-y,1/2+z
1/2+x,1/2-y,1/2-z
1/2-x,1/2+y,1/2-z
1/2-x,1/2-y,1/2-z
1/2+x,1/2+y,1/2-z
1/2-x,1/2+y,1/2+z
1/2+x,1/2-y,1/2+z
loop_
_atom_site_type_symbol
_atom_site_label
_atom_site_fract_x
_atom_site_fract_y
_atom_site_fract_z
Si Si1 0.330882 0.851175 0.684357
Si Si2 0.794069 0.203442 0.184321
Si Si3 0.583951 0.758668 0.817568
Si Si4 0.418695 0.944821 0.314715
O O1 0.321696 0.851917 0.500000
O O2 0.250603 0.845333 0.760639
O O3 0.385696 0.806959 0.729211
O O4 0.363825 0.902983 0.750172
O O5 0.750000 0.250000 0.250000
O O6 0.874697 0.208437 0.258015
O O7 0.799600 0.204920 0.000000
O O8 0.500000 0.751676 0.776195
O O9 0.597526 0.766177 0.000000
O O10 0.420488 0.942174 0.500000
O O11 0.500000 0.934326 0.250693
O O12 0.392829 0.000000 0.260221
#
# Coordination Sequence:
#
# PCOD8286970 Si02
#       4
#    16  16  16  16
#     4  10  17  26  42  60  80 107 138 168 199 235
#     4  10  18  28  41  56  78 105 134 166 198 236
#     4  10  19  29  41  58  81 106 133 166 201 238
#     4   8  14  24  38  58  82 106 135 170 201 228
#
# _framework density 15.126491
#
# number of rings (size 3 to 8) (size 9 to 14) (size 15 to 20)
#    0.000    2.500    0.000    8.250    0.000    3.000 
#    0.000    0.000    0.000    3.000    0.000    8.750 
#    0.000    1.000    0.000   11.500    0.000    3.250 
#
# Total GULP energy -396569.534343 kJ/mol
# GULP energy per Si atom -12392.797948 kJ/mol
# Density = 1.509206 g / cm^3
# Si number density = 15.126491 Si / 1000 Ang^3
#
#
#
# Elastic Constant Matrix: (Units=GPa)
#
#
# Indices 1 2 3 4 5 6 
#
# 1 100.7320 55.5495 24.3755 0.0000 0.0000 0.0000
# 2 55.5495 89.9575 11.2973 0.0000 0.0000 0.0000
# 3 24.3755 11.2973 55.8014 0.0000 0.0001 0.0000
# 4 0.0000 0.0000 0.0000 12.9697 0.0000 0.0000
# 5 0.0000 0.0000 0.0001 0.0000 22.0553 0.0000
# 6 0.0000 0.0000 0.0000 0.0000 0.0000 30.0267
#
#
#
# Elastic Compliance Matrix: (Units=1/GPa)
#
#
# Indices 1 2 3 4 5 6 
#
# 1 0.016430 -0.009486 -0.005257 0.000000 0.000000 0.000000
# 2 -0.009486 0.016883 0.000726 0.000000 0.000000 0.000000
# 3 -0.005257 0.000726 0.020070 0.000000 0.000000 0.000000
# 4 0.000000 0.000000 0.000000 0.077102 0.000000 0.000000
# 5 0.000000 0.000000 0.000000 0.000000 0.045341 0.000000
# 6 0.000000 0.000000 0.000000 0.000000 0.000000 0.033304
#
#
# Mechanical properties :
#
#
# Convention : Reuss Voigt Hill
#
# Bulk Modulus (GPa) = 39.44862 47.65950 43.55406
# Shear Modulus (GPa) = 20.35717 23.36158 21.85938
#
# Velocity S-wave (km/s) = 3.67249 3.93417 3.80558
# Velocity P-wave (km/s) = 6.64219 7.22583 6.94015
#
# Compressibility (1/GPa) = 0.02534943
#
# Stress axis : x y z
#
# Youngs Moduli (GPa) = 60.86288 59.23205 49.82535
#
# Poissons Ratio (x) = 0.56186 0.26192
# Poissons Ratio (y) = 0.57733 -0.03615
# Poissons Ratio (z) = 0.31994 -0.04298
#
# Static dielectric constant tensor:
#      x y z
#    x 3.428680 0.000000 0.000000 
#    y 0.000000 3.070040 0.000000 
#    z 0.000000 0.000000 2.833740 
# 
# 
# High freq. dielectric constant tensor:
#      x y z
#    x 1.572500 0.000000 0.000000 
#    y 0.000000 1.545870 0.000000 
#    z 0.000000 0.000000 1.579760 
# 
# From -- ./inp_files/8087.got.cif
#   From: 2010.06.25/outbox.cif.g09.slc.cpg/sg71_5_cif.got.tgz:8087.got - 2010.06.28 04:59:45.
