data_PCOD8286702
_publ_section_title
;
Structure prediction by ZEFSAII (Michael W. Deem and Ramdas Pophale) SiO2 
 PCOD8286702
Probable space group: F D D D
;
_chemical_formula_sum "Si O2"
_cell_formula_units_Z 136
_cell_length_a 18.727337
_cell_length_b 28.880273
_cell_length_c 10.166752
_cell_angle_alpha 90.000000
_cell_angle_beta 90.000000
_cell_angle_gamma 90.000000
_cell_volume 5498.693971
_symmetry_space_group_name_H-M "F D D D"
_symmetry_group_IT_number 70
_space_group.IT_coordinate_system_code '2'
_symmetry_cell_setting 'orthorhombic'
loop_
_space_group_symop_operation_xyz
x,y,z
1/4-x,1/4-y,z
x,1/4-y,1/4-z
1/4-x,y,1/4-z
-x,-y,-z
3/4+x,3/4+y,-z
-x,3/4+y,3/4+z
3/4+x,-y,3/4+z
x,1/2+y,1/2+z
1/4-x,3/4-y,1/2+z
x,3/4-y,3/4-z
1/4-x,1/2+y,3/4-z
-x,1/2-y,1/2-z
3/4+x,1/4+y,1/2-z
-x,1/4+y,1/4+z
3/4+x,1/2-y,1/4+z
1/2+x,y,1/2+z
3/4-x,1/4-y,1/2+z
1/2+x,1/4-y,3/4-z
3/4-x,y,3/4-z
1/2-x,-y,1/2-z
1/4+x,3/4+y,1/2-z
1/2-x,3/4+y,1/4+z
1/4+x,-y,1/4+z
1/2+x,1/2+y,z
3/4-x,3/4-y,z
1/2+x,3/4-y,1/4-z
3/4-x,1/2+y,1/4-z
1/2-x,1/2-y,-z
1/4+x,1/4+y,-z
1/2-x,1/4+y,3/4+z
1/4+x,1/2-y,3/4+z
loop_
_atom_site_type_symbol
_atom_site_label
_atom_site_fract_x
_atom_site_fract_y
_atom_site_fract_z
Si Si1 0.293837 0.495937 0.543103
Si Si2 0.375000 0.375000 0.875000
Si Si3 0.629212 0.409739 0.480154
Si Si4 0.281135 0.924801 0.826918
Si Si5 0.413125 0.456912 0.702537
O O1 0.323714 0.545252 0.501047
O O2 0.314514 0.458844 0.433663
O O3 0.331553 0.477023 0.678604
O O4 0.207598 0.504375 0.537226
O O5 0.419668 0.409124 0.782159
O O6 0.625000 0.385816 0.625000
O O7 0.665972 0.375000 0.375000
O O8 0.554046 0.424542 0.418694
O O9 0.310812 0.875000 0.875000
O O10 0.302773 0.944484 0.686278
#
# Coordination Sequence:
#
# PCOD8286702 Si02
#       5
#    32   8  32  32  32
#     4  12  24  45  77 110 140 200 252 326 384 473
#     4  12  32  52  66 104 152 208 240 312 396 472
#     4  11  23  42  70 110 148 194 254 322 396 472
#     4  11  23  42  75 107 143 193 259 319 384 471
#     4  12  26  46  73 104 151 195 255 318 385 475
#
# _framework density 24.733146999999999
#
# number of rings (size 3 to 8) (size 9 to 14) (size 15 to 20)
#    0.000    0.471    4.706    4.235    1.647    1.882 
#    2.118    0.000    0.000    0.000    0.000    0.000 
#    0.000    0.000    0.000    0.000    0.000    0.000 
#
# Total GULP energy -421230.512759 kJ/mol
# GULP energy per Si atom -12389.132728 kJ/mol
# Density = 2.467685 g / cm^3
# Si number density = 24.733147 Si / 1000 Ang^3
#
#
#
# Elastic Constant Matrix: (Units=GPa)
#
#
# Indices 1 2 3 4 5 6 
#
# 1 103.2949 34.7680 39.3698 0.0000 0.0000 0.0000
# 2 34.7680 162.6536 71.0928 0.0000 0.0000 0.0000
# 3 39.3698 71.0928 130.3375 0.0000 -0.0001 0.0000
# 4 0.0000 0.0000 0.0000 71.9003 0.0000 0.0000
# 5 0.0000 0.0000 -0.0001 0.0000 -1.5348 0.0000
# 6 0.0000 0.0000 0.0000 0.0000 0.0000 29.4150
#
#
#
# Elastic Compliance Matrix: (Units=1/GPa)
#
#
# Indices 1 2 3 4 5 6 
#
# 1 0.011114 -0.001193 -0.002707 0.000000 0.000000 0.000000
# 2 -0.001193 0.008201 -0.004113 0.000000 0.000000 0.000000
# 3 -0.002707 -0.004113 0.010733 0.000000 0.000000 0.000000
# 4 0.000000 0.000000 0.000000 0.013908 0.000000 0.000000
# 5 0.000000 0.000000 0.000000 0.000000 -0.651554 0.000000
# 6 0.000000 0.000000 0.000000 0.000000 0.000000 0.033996
#
#
# Mechanical properties :
#
#
# Convention : Reuss Voigt Hill
#
# Bulk Modulus (GPa) = 71.30706 76.30524 73.80615
# Shear Modulus (GPa) = -9.04317 36.69312 13.82498
#
# Velocity S-wave (km/s) = -1.91422 3.85588 2.36681
# Velocity P-wave (km/s) = 4.89975 7.12335 6.11349
#
# Compressibility (1/GPa) = 0.01402386
#
# Stress axis : x y z
#
# Youngs Moduli (GPa) = 89.97630 121.94254 93.16852
#
# Poissons Ratio (x) = 0.14544 0.25217
# Poissons Ratio (y) = 0.10731 0.38318
# Poissons Ratio (z) = 0.24353 0.50152
#
# Static dielectric constant tensor:
#      x y z
#    x 4.781730 0.000000 0.000000 
#    y 0.000000 4.847460 0.000000 
#    z 0.000000 0.000000 18.186470 
# 
# 
# High freq. dielectric constant tensor:
#      x y z
#    x 1.989300 0.000000 0.000000 
#    y 0.000000 1.987760 0.000000 
#    z 0.000000 0.000000 1.981680 
# 
# From -- ./inp_files/17701.got.cif
#   From: 2010.03.12/outbox.cif.g09.slc.cpg/sg70_9_cif.got.tgz:17701.got - 2010.04.16 13:46:32.
