data_PCOD8286899
_publ_section_title
;
Structure prediction by ZEFSAII (Michael W. Deem and Ramdas Pophale) SiO2 
 PCOD8286899
Probable space group: I M M M
;
_chemical_formula_sum "Si O2"
_cell_formula_units_Z 104
_cell_length_a 18.492270
_cell_length_b 25.173518
_cell_length_c 12.361420
_cell_angle_alpha 90.000000
_cell_angle_beta 90.000000
_cell_angle_gamma 90.000000
_cell_volume 5754.432509
_symmetry_space_group_name_H-M "I M M M"
_symmetry_group_IT_number 71
_symmetry_cell_setting 'orthorhombic'
loop_
_space_group_symop_operation_xyz
x,y,z
-x,-y,z
x,-y,-z
-x,y,-z
-x,-y,-z
x,y,-z
-x,y,z
x,-y,z
1/2+x,1/2+y,1/2+z
1/2-x,1/2-y,1/2+z
1/2+x,1/2-y,1/2-z
1/2-x,1/2+y,1/2-z
1/2-x,1/2-y,1/2-z
1/2+x,1/2+y,1/2-z
1/2-x,1/2+y,1/2+z
1/2+x,1/2-y,1/2+z
loop_
_atom_site_type_symbol
_atom_site_label
_atom_site_fract_x
_atom_site_fract_y
_atom_site_fract_z
Si Si1 0.415419 0.846796 0.627217
Si Si2 0.115772 0.277439 0.500000
Si Si3 0.921886 0.838741 0.500000
Si Si4 0.666397 0.759806 0.235306
Si Si5 0.912923 0.153271 0.268097
Si Si6 0.914422 0.440841 0.721338
Si Si7 0.414091 0.441442 0.378865
Si Si8 0.580202 0.895855 0.000000
O O1 0.398527 0.847419 0.500000
O O2 0.500000 0.833437 0.649547
O O3 0.364143 0.804869 0.686104
O O4 0.394158 0.904150 0.676469
O O5 0.065670 0.225230 0.500000
O O6 0.162004 0.275866 0.609701
O O7 0.072017 0.332143 0.500000
O O8 0.882622 0.857350 0.609825
O O9 0.000000 0.866112 0.500000
O O10 0.750000 0.750000 0.250000
O O11 0.621170 0.708030 0.271900
O O12 0.882588 0.104597 0.197274
O O13 0.000000 0.158413 0.265261
O O14 0.883073 0.500000 0.741149
O O15 0.880609 0.417032 0.609271
O O16 0.000000 0.442536 0.709700
O O17 0.385334 0.431326 0.500000
O O18 0.500000 0.438704 0.377810
O O19 0.388942 0.500000 0.338638
O O20 0.500000 0.919788 0.000000
#
# Coordination Sequence:
#
# PCOD8286899 Si02
#       8
#    16   8   8  16  16  16  16   8
#     4  10  21  36  54  78 108 142 180 223 269 318
#     4  10  19  33  50  71  96 138 179 205 260 311
#     4   8  15  26  44  70  98 123 158 202 241 291
#     4  11  23  36  53  75 106 140 176 220 266 320
#     4   9  17  31  51  74  99 130 167 208 253 301
#     4   9  17  29  48  77 108 136 171 218 268 313
#     4   8  14  26  46  73 102 130 162 202 250 303
#     4  10  16  26  50  79 105 131 170 220 266 313
#
# _framework density 18.073024
#
# number of rings (size 3 to 8) (size 9 to 14) (size 15 to 20)
#    0.000    2.615    1.538    1.385    1.077    3.077 
#    0.000    3.462    0.000    3.231    0.000    0.000 
#    0.000    0.000    0.000    0.000    0.000    0.000 
#
# Total GULP energy -644231.835668 kJ/mol
# GULP energy per Si atom -12389.073763 kJ/mol
# Density = 1.803189 g / cm^3
# Si number density = 18.073024 Si / 1000 Ang^3
#
#
#
# Elastic Constant Matrix: (Units=GPa)
#
#
# Indices 1 2 3 4 5 6 
#
# 1 49.0935 27.0020 33.0975 0.0000 0.0000 0.0000
# 2 27.0020 154.3566 88.2807 0.0000 0.0000 0.0000
# 3 33.0975 88.2807 151.1813 0.0000 0.0000 0.0000
# 4 0.0000 0.0000 0.0000 36.0846 0.0000 0.0000
# 5 0.0000 0.0000 0.0000 0.0000 11.2773 0.0000
# 6 0.0000 0.0000 0.0000 0.0000 0.0000 3.1681
#
#
#
# Elastic Compliance Matrix: (Units=1/GPa)
#
#
# Indices 1 2 3 4 5 6 
#
# 1 0.024228 -0.001809 -0.004248 0.000000 0.000000 0.000000
# 2 -0.001809 0.009862 -0.005363 0.000000 0.000000 0.000000
# 3 -0.004248 -0.005363 0.010676 0.000000 0.000000 0.000000
# 4 0.000000 0.000000 0.000000 0.027713 0.000000 0.000000
# 5 0.000000 0.000000 0.000000 0.000000 0.088674 0.000000
# 6 0.000000 0.000000 0.000000 0.000000 0.000000 0.315650
#
#
# Mechanical properties :
#
#
# Convention : Reuss Voigt Hill
#
# Bulk Modulus (GPa) = 45.60570 72.37686 58.99128
# Shear Modulus (GPa) = 9.86289 23.85608 16.85949
#
# Velocity S-wave (km/s) = 2.33861 3.63710 3.05758
# Velocity P-wave (km/s) = 5.70798 7.60078 6.72134
#
# Compressibility (1/GPa) = 0.02192708
#
# Stress axis : x y z
#
# Youngs Moduli (GPa) = 41.27463 101.39829 93.66662
#
# Poissons Ratio (x) = 0.18340 0.39789
# Poissons Ratio (y) = 0.07466 0.50232
# Poissons Ratio (z) = 0.17533 0.54379
#
# Static dielectric constant tensor:
#      x y z
#    x 2.752200 0.000000 0.000000 
#    y 0.000000 3.545220 0.000000 
#    z 0.000000 0.000000 3.652120 
# 
# 
# High freq. dielectric constant tensor:
#      x y z
#    x 1.637250 0.000000 0.000000 
#    y 0.000000 1.703840 0.000000 
#    z 0.000000 0.000000 1.713480 
# 
# From -- ./inp_files/24631.got.cif
#   From: 2010.06.25/outbox.cif.g09.slc.cpg/sg71_13_cif.got.tgz:24631.got - 2010.06.28 04:59:45.
