data_PCOD8286631
_publ_section_title
;
Structure prediction by ZEFSAII (Michael W. Deem and Ramdas Pophale) SiO2 
 PCOD8286631
Probable space group: F D D D
;
_chemical_formula_sum "Si O2"
_cell_formula_units_Z 160
_cell_length_a 26.636870
_cell_length_b 25.027338
_cell_length_c 10.180578
_cell_angle_alpha 90.000000
_cell_angle_beta 90.000000
_cell_angle_gamma 90.000000
_cell_volume 6786.881802
_symmetry_space_group_name_H-M "F D D D"
_symmetry_group_IT_number 70
_space_group.IT_coordinate_system_code '2'
_symmetry_cell_setting 'orthorhombic'
loop_
_space_group_symop_operation_xyz
x,y,z
1/4-x,1/4-y,z
x,1/4-y,1/4-z
1/4-x,y,1/4-z
-x,-y,-z
3/4+x,3/4+y,-z
-x,3/4+y,3/4+z
3/4+x,-y,3/4+z
x,1/2+y,1/2+z
1/4-x,3/4-y,1/2+z
x,3/4-y,3/4-z
1/4-x,1/2+y,3/4-z
-x,1/2-y,1/2-z
3/4+x,1/4+y,1/2-z
-x,1/4+y,1/4+z
3/4+x,1/2-y,1/4+z
1/2+x,y,1/2+z
3/4-x,1/4-y,1/2+z
1/2+x,1/4-y,3/4-z
3/4-x,y,3/4-z
1/2-x,-y,1/2-z
1/4+x,3/4+y,1/2-z
1/2-x,3/4+y,1/4+z
1/4+x,-y,1/4+z
1/2+x,1/2+y,z
3/4-x,3/4-y,z
1/2+x,3/4-y,1/4-z
3/4-x,1/2+y,1/4-z
1/2-x,1/2-y,-z
1/4+x,1/4+y,-z
1/2-x,1/4+y,3/4+z
1/4+x,1/2-y,3/4+z
loop_
_atom_site_type_symbol
_atom_site_label
_atom_site_fract_x
_atom_site_fract_y
_atom_site_fract_z
Si Si1 0.832128 0.125000 0.625000
Si Si2 0.304986 0.233402 0.215753
Si Si3 0.527171 0.938892 0.732271
Si Si4 0.875000 0.166302 0.375000
Si Si5 0.110448 0.182610 0.774598
Si Si6 0.242422 0.931739 0.713623
O O1 0.800581 0.179818 0.628339
O O2 0.865793 0.125297 0.494737
O O3 0.262215 0.272511 0.163665
O O4 0.357304 0.264483 0.186341
O O5 0.291828 0.218594 0.368372
O O6 0.580661 0.955478 0.671436
O O7 0.515933 0.879682 0.678365
O O8 0.525776 0.943199 0.889132
O O9 0.125000 0.125000 0.843528
O O10 0.125000 0.173505 0.625000
O O11 0.051765 0.195024 0.800162
#
# Coordination Sequence:
#
# PCOD8286631 Si02
#       6
#    16  32  32  16  32  32
#     4  12  30  48  72 111 150 197 254 304 382 450
#     4  12  26  44  75 109 155 197 248 313 378 452
#     4  11  23  45  72 104 151 192 250 310 364 451
#     4  12  28  48  72 111 145 196 256 306 376 454
#     4  11  21  39  71 115 143 187 251 318 373 439
#     4  11  22  44  73 115 146 191 252 313 380 440
#
# _framework density 23.57489
#
# number of rings (size 3 to 8) (size 9 to 14) (size 15 to 20)
#    0.000    0.600    6.000    3.000    4.200    0.800 
#    0.000    0.000    0.000    0.000    0.000    0.000 
#    0.000    0.000    0.000    0.000    0.000    0.000 
#
# Total GULP energy -495601.192569 kJ/mol
# GULP energy per Si atom -12390.029814 kJ/mol
# Density = 2.352123 g / cm^3
# Si number density = 23.574890 Si / 1000 Ang^3
#
#
#
# Elastic Constant Matrix: (Units=GPa)
#
#
# Indices 1 2 3 4 5 6 
#
# 1 165.5503 44.6482 55.1305 -0.0006 0.0006 0.0002
# 2 44.6482 161.8549 33.0695 -0.0015 0.0012 0.0003
# 3 55.1305 33.0695 70.0420 -0.0085 0.0041 0.0014
# 4 -0.0006 -0.0015 -0.0085 10.9101 0.0025 0.0005
# 5 0.0006 0.0012 0.0041 0.0025 27.3491 -0.0004
# 6 0.0002 0.0003 0.0014 0.0005 -0.0004 25.7970
#
#
#
# Elastic Compliance Matrix: (Units=1/GPa)
#
#
# Indices 1 2 3 4 5 6 
#
# 1 0.008348 -0.001063 -0.006069 -0.000004 0.000001 0.000000
# 2 -0.001063 0.006973 -0.002456 -0.000001 0.000000 0.000000
# 3 -0.006069 -0.002456 0.020214 0.000015 -0.000003 -0.000001
# 4 -0.000004 -0.000001 0.000015 0.091658 -0.000008 -0.000002
# 5 0.000001 0.000000 -0.000003 -0.000008 0.036564 0.000001
# 6 0.000000 0.000000 -0.000001 -0.000002 0.000001 0.038764
#
#
# Mechanical properties :
#
#
# Convention : Reuss Voigt Hill
#
# Bulk Modulus (GPa) = 61.12594 73.68262 67.40428
# Shear Modulus (GPa) = 22.01181 30.45115 26.23148
#
# Velocity S-wave (km/s) = 3.05896 3.59789 3.33932
# Velocity P-wave (km/s) = 6.20170 6.97010 6.59710
#
# Compressibility (1/GPa) = 0.01635967
#
# Stress axis : x y z
#
# Youngs Moduli (GPa) = 119.78613 143.40363 49.47154
#
# Poissons Ratio (x) = 0.15242 0.30025
# Poissons Ratio (y) = 0.12732 0.12149
# Poissons Ratio (z) = 0.72700 0.35217
#
# Static dielectric constant tensor:
#      x y z
#    x 4.659220 0.000000 0.000000 
#    y 0.000000 4.779670 0.000000 
#    z 0.000000 0.000000 3.898260 
# 
# 
# High freq. dielectric constant tensor:
#      x y z
#    x 1.938180 0.000000 0.000000 
#    y 0.000000 1.955200 0.000000 
#    z 0.000000 0.000000 1.894830 
# 
# From -- ./inp_files/20887.got.cif
#   From: 2010.03.12/outbox.cif.g09.slc.cpg/sg70_11_cif.got.tgz:20887.got - 2010.04.16 13:46:32.
