data_PCOD8286654
_publ_section_title
;
Structure prediction by ZEFSAII (Michael W. Deem and Ramdas Pophale) SiO2 
 PCOD8286654
Probable space group: F D D D
;
_chemical_formula_sum "Si O2"
_cell_formula_units_Z 192
_cell_length_a 26.539200
_cell_length_b 15.086461
_cell_length_c 24.131479
_cell_angle_alpha 90.000000
_cell_angle_beta 90.000000
_cell_angle_gamma 90.000000
_cell_volume 9661.824443
_symmetry_space_group_name_H-M "F D D D"
_symmetry_group_IT_number 70
_space_group.IT_coordinate_system_code '2'
_symmetry_cell_setting 'orthorhombic'
loop_
_space_group_symop_operation_xyz
x,y,z
1/4-x,1/4-y,z
x,1/4-y,1/4-z
1/4-x,y,1/4-z
-x,-y,-z
3/4+x,3/4+y,-z
-x,3/4+y,3/4+z
3/4+x,-y,3/4+z
x,1/2+y,1/2+z
1/4-x,3/4-y,1/2+z
x,3/4-y,3/4-z
1/4-x,1/2+y,3/4-z
-x,1/2-y,1/2-z
3/4+x,1/4+y,1/2-z
-x,1/4+y,1/4+z
3/4+x,1/2-y,1/4+z
1/2+x,y,1/2+z
3/4-x,1/4-y,1/2+z
1/2+x,1/4-y,3/4-z
3/4-x,y,3/4-z
1/2-x,-y,1/2-z
1/4+x,3/4+y,1/2-z
1/2-x,3/4+y,1/4+z
1/4+x,-y,1/4+z
1/2+x,1/2+y,z
3/4-x,3/4-y,z
1/2+x,3/4-y,1/4-z
3/4-x,1/2+y,1/4-z
1/2-x,1/2-y,-z
1/4+x,1/4+y,-z
1/2-x,1/4+y,3/4+z
1/4+x,1/2-y,3/4+z
loop_
_atom_site_type_symbol
_atom_site_label
_atom_site_fract_x
_atom_site_fract_y
_atom_site_fract_z
Si Si1 0.370623 0.030088 0.181014
Si Si2 0.625000 0.625000 0.402656
Si Si3 0.225244 0.146834 0.453256
Si Si4 0.467845 0.125000 0.625000
Si Si5 0.529875 0.895638 0.936332
Si Si6 0.708121 0.974471 0.608398
Si Si7 0.362797 0.776710 0.449712
O O1 0.318103 0.078538 0.169544
O O2 0.414734 0.101918 0.189189
O O3 0.387880 0.961471 0.133958
O O4 0.357517 0.973581 0.234954
O O5 0.671732 0.600516 0.441946
O O6 0.244427 0.110669 0.513351
O O7 0.216297 0.250921 0.449030
O O8 0.262904 0.117639 0.403309
O O9 0.503358 0.195946 0.593776
O O10 0.506545 0.875000 0.875000
O O11 0.687857 0.986944 0.671331
O O12 0.660856 0.968996 0.567312
O O13 0.375000 0.875000 0.427671
#
# Coordination Sequence:
#
# PCOD8286654 Si02
#       7
#    32  16  32  16  32  32  32
#     4  12  23  39  64  94 131 168 220 265 324 391
#     4  12  22  40  67  97 126 166 222 274 322 396
#     4  11  24  42  68  93 127 173 220 272 326 390
#     4  12  22  37  60  94 130 165 210 266 316 394
#     4  11  23  45  67  89 127 175 218 270 330 386
#     4  11  22  41  62  93 134 171 208 258 333 397
#     4  11  22  41  65  94 133 174 207 264 334 401
#
# _framework density 19.872022000000001
#
# number of rings (size 3 to 8) (size 9 to 14) (size 15 to 20)
#    0.000    0.667    8.333    0.500    0.000    0.667 
#    6.000    0.417    0.000    0.000    0.000    0.000 
#    0.000    0.000    0.000    0.000    0.000    0.000 
#
# Total GULP energy -594966.586308 kJ/mol
# GULP energy per Si atom -12395.137215 kJ/mol
# Density = 1.982679 g / cm^3
# Si number density = 19.872022 Si / 1000 Ang^3
#
#
#
# Elastic Constant Matrix: (Units=GPa)
#
#
# Indices 1 2 3 4 5 6 
#
# 1 136.3008 38.7563 53.6242 0.0000 0.0000 0.0000
# 2 38.7563 76.0816 21.7977 0.0000 0.0000 0.0000
# 3 53.6242 21.7977 128.9608 0.0000 0.0000 0.0000
# 4 0.0000 0.0000 0.0000 29.4107 0.0000 0.0000
# 5 0.0000 0.0000 0.0000 0.0000 19.8042 0.0000
# 6 0.0000 0.0000 0.0000 0.0000 0.0000 34.2220
#
#
#
# Elastic Compliance Matrix: (Units=1/GPa)
#
#
# Indices 1 2 3 4 5 6 
#
# 1 0.009821 -0.004028 -0.003403 0.000000 0.000000 0.000000
# 2 -0.004028 0.015465 -0.000939 0.000000 0.000000 0.000000
# 3 -0.003403 -0.000939 0.009328 0.000000 0.000000 0.000000
# 4 0.000000 0.000000 0.000000 0.034001 0.000000 0.000000
# 5 0.000000 0.000000 0.000000 0.000000 0.050494 0.000000
# 6 0.000000 0.000000 0.000000 0.000000 0.000000 0.029221
#
#
# Mechanical properties :
#
#
# Convention : Reuss Voigt Hill
#
# Bulk Modulus (GPa) = 55.94752 63.29995 59.62373
# Shear Modulus (GPa) = 29.23510 31.83172 30.53341
#
# Velocity S-wave (km/s) = 3.83974 4.00664 3.92408
# Velocity P-wave (km/s) = 6.91905 7.30254 7.11338
#
# Compressibility (1/GPa) = 0.01787389
#
# Stress axis : x y z
#
# Youngs Moduli (GPa) = 101.82505 64.66374 107.20428
#
# Poissons Ratio (x) = 0.26045 0.36480
# Poissons Ratio (y) = 0.41013 0.10067
# Poissons Ratio (z) = 0.34649 0.06072
#
# Static dielectric constant tensor:
#      x y z
#    x 3.767950 0.000000 0.000000 
#    y 0.000000 3.559390 0.000000 
#    z 0.000000 0.000000 3.805670 
# 
# 
# High freq. dielectric constant tensor:
#      x y z
#    x 1.781190 0.000000 0.000000 
#    y 0.000000 1.771160 0.000000 
#    z 0.000000 0.000000 1.772010 
# 
# From -- ./inp_files/30162.got.cif
#   From: 2010.03.12/outbox.cif.g09.slc.cpg/sg70_16_cif.got.tgz:30162.got - 2010.04.16 13:46:32.
