data_PCOD8286844
_publ_section_title
;
Structure prediction by ZEFSAII (Michael W. Deem and Ramdas Pophale) SiO2 
 PCOD8286844
Probable space group: F D D D
;
_chemical_formula_sum "Si O2"
_cell_formula_units_Z 192
_cell_length_a 14.300419
_cell_length_b 24.620519
_cell_length_c 23.883384
_cell_angle_alpha 90.000000
_cell_angle_beta 90.000000
_cell_angle_gamma 90.000000
_cell_volume 8408.951108
_symmetry_space_group_name_H-M "F D D D"
_symmetry_group_IT_number 70
_space_group.IT_coordinate_system_code '2'
_symmetry_cell_setting 'orthorhombic'
loop_
_space_group_symop_operation_xyz
x,y,z
1/4-x,1/4-y,z
x,1/4-y,1/4-z
1/4-x,y,1/4-z
-x,-y,-z
3/4+x,3/4+y,-z
-x,3/4+y,3/4+z
3/4+x,-y,3/4+z
x,1/2+y,1/2+z
1/4-x,3/4-y,1/2+z
x,3/4-y,3/4-z
1/4-x,1/2+y,3/4-z
-x,1/2-y,1/2-z
3/4+x,1/4+y,1/2-z
-x,1/4+y,1/4+z
3/4+x,1/2-y,1/4+z
1/2+x,y,1/2+z
3/4-x,1/4-y,1/2+z
1/2+x,1/4-y,3/4-z
3/4-x,y,3/4-z
1/2-x,-y,1/2-z
1/4+x,3/4+y,1/2-z
1/2-x,3/4+y,1/4+z
1/4+x,-y,1/4+z
1/2+x,1/2+y,z
3/4-x,3/4-y,z
1/2+x,3/4-y,1/4-z
3/4-x,1/2+y,1/4-z
1/2-x,1/2-y,-z
1/4+x,1/4+y,-z
1/2-x,1/4+y,3/4+z
1/4+x,1/2-y,3/4+z
loop_
_atom_site_type_symbol
_atom_site_label
_atom_site_fract_x
_atom_site_fract_y
_atom_site_fract_z
Si Si1 0.672432 0.500126 0.797214
Si Si2 0.023808 0.700413 0.711447
Si Si3 0.146437 0.373411 0.438434
Si Si4 0.625000 0.625000 0.962843
Si Si5 0.125000 0.763577 0.625000
Si Si6 0.250346 0.672477 0.288676
Si Si7 0.237840 0.919370 0.628377
O O1 0.750000 0.500000 0.750000
O O2 0.631929 0.439755 0.798711
O O3 0.586200 0.537993 0.780621
O O4 0.718726 0.521194 0.856274
O O5 0.108703 0.675317 0.746344
O O6 0.047108 0.723996 0.650422
O O7 0.000000 0.750000 0.750000
O O8 0.950201 0.653506 0.699811
O O9 0.182033 0.375000 0.375000
O O10 0.220917 0.404862 0.476546
O O11 0.716561 0.607506 0.926894
O O12 0.166853 0.799965 0.674883
O O13 0.225369 0.617208 0.320488
O O14 0.125000 0.921769 0.625000
#
# Coordination Sequence:
#
# PCOD8286844 Si02
#       7
#    32  32  32  16  16  32  32
#     4  12  28  46  75 110 153 204 259 329 387 475
#     4  12  28  49  74 117 156 201 261 327 401 470
#     4  12  29  49  74 113 161 208 259 330 401 470
#     4  12  28  45  80 118 149 204 264 326 404 478
#     4  12  26  47  84 114 154 204 257 342 404 468
#     4  12  24  51  78 110 154 203 268 323 396 475
#     4  12  25  49  81 112 150 207 269 324 390 481
#
# _framework density 22.832812000000001
#
# number of rings (size 3 to 8) (size 9 to 14) (size 15 to 20)
#    0.000    0.000    5.833    3.000    7.000    1.333 
#    0.000    0.833    0.000    0.000    0.000    0.000 
#    0.000    0.000    0.000    0.000    0.000    0.000 
#
# Total GULP energy -595016.959472 kJ/mol
# GULP energy per Si atom -12396.186656 kJ/mol
# Density = 2.278084 g / cm^3
# Si number density = 22.832812 Si / 1000 Ang^3
#
#
#
# Elastic Constant Matrix: (Units=GPa)
#
#
# Indices 1 2 3 4 5 6 
#
# 1 107.0054 71.4605 39.1359 0.0000 0.0000 0.0000
# 2 71.4605 165.1490 61.6455 0.0000 0.0000 0.0000
# 3 39.1359 61.6455 146.0156 0.0000 0.0000 0.0000
# 4 0.0000 0.0000 0.0000 41.0903 0.0000 0.0000
# 5 0.0000 0.0000 0.0000 0.0000 43.6303 0.0000
# 6 0.0000 0.0000 0.0000 0.0000 0.0000 43.4311
#
#
#
# Elastic Compliance Matrix: (Units=1/GPa)
#
#
# Indices 1 2 3 4 5 6 
#
# 1 0.013365 -0.005278 -0.001354 0.000000 0.000000 0.000000
# 2 -0.005278 0.009272 -0.002500 0.000000 0.000000 0.000000
# 3 -0.001354 -0.002500 0.008267 0.000000 0.000000 0.000000
# 4 0.000000 0.000000 0.000000 0.024337 0.000000 0.000000
# 5 0.000000 0.000000 0.000000 0.000000 0.022920 0.000000
# 6 0.000000 0.000000 0.000000 0.000000 0.000000 0.023025
#
#
# Mechanical properties :
#
#
# Convention : Reuss Voigt Hill
#
# Bulk Modulus (GPa) = 79.10956 84.73930 81.92443
# Shear Modulus (GPa) = 40.43268 42.02554 41.22911
#
# Velocity S-wave (km/s) = 4.21267 4.29485 4.25396
# Velocity P-wave (km/s) = 7.64098 7.86052 7.75153
#
# Compressibility (1/GPa) = 0.01264070
#
# Stress axis : x y z
#
# Youngs Moduli (GPa) = 74.82172 107.85196 120.96396
#
# Poissons Ratio (x) = 0.56921 0.16379
# Poissons Ratio (y) = 0.39489 0.30240
# Poissons Ratio (z) = 0.10131 0.26962
#
# Static dielectric constant tensor:
#      x y z
#    x 8.032920 0.000000 0.000000 
#    y 0.000000 4.430770 0.000000 
#    z 0.000000 0.000000 4.284440 
# 
# 
# High freq. dielectric constant tensor:
#      x y z
#    x 1.902020 0.000000 0.000000 
#    y 0.000000 1.925200 0.000000 
#    z 0.000000 0.000000 1.906100 
# 
# From -- ./inp_files/51420.got.cif
#   From: 2010.03.12/outbox.cif.g09.slc.cpg/sg70_26_cif.got.tgz:51420.got - 2010.04.16 13:46:32.
