data_PCOD8286238
_publ_section_title
;
Structure prediction by ZEFSAII (Michael W. Deem and Ramdas Pophale) SiO2 
 PCOD8286238
Probable space group: F D D D
;
_chemical_formula_sum "Si O2"
_cell_formula_units_Z 192
_cell_length_a 18.051048
_cell_length_b 19.783898
_cell_length_c 23.697496
_cell_angle_alpha 90.000000
_cell_angle_beta 90.000000
_cell_angle_gamma 90.000000
_cell_volume 8462.851962
_symmetry_space_group_name_H-M "F D D D"
_symmetry_group_IT_number 70
_space_group.IT_coordinate_system_code '2'
_symmetry_cell_setting 'orthorhombic'
loop_
_space_group_symop_operation_xyz
x,y,z
1/4-x,1/4-y,z
x,1/4-y,1/4-z
1/4-x,y,1/4-z
-x,-y,-z
3/4+x,3/4+y,-z
-x,3/4+y,3/4+z
3/4+x,-y,3/4+z
x,1/2+y,1/2+z
1/4-x,3/4-y,1/2+z
x,3/4-y,3/4-z
1/4-x,1/2+y,3/4-z
-x,1/2-y,1/2-z
3/4+x,1/4+y,1/2-z
-x,1/4+y,1/4+z
3/4+x,1/2-y,1/4+z
1/2+x,y,1/2+z
3/4-x,1/4-y,1/2+z
1/2+x,1/4-y,3/4-z
3/4-x,y,3/4-z
1/2-x,-y,1/2-z
1/4+x,3/4+y,1/2-z
1/2-x,3/4+y,1/4+z
1/4+x,-y,1/4+z
1/2+x,1/2+y,z
3/4-x,3/4-y,z
1/2+x,3/4-y,1/4-z
3/4-x,1/2+y,1/4-z
1/2-x,1/2-y,-z
1/4+x,1/4+y,-z
1/2-x,1/4+y,3/4+z
1/4+x,1/2-y,3/4+z
loop_
_atom_site_type_symbol
_atom_site_label
_atom_site_fract_x
_atom_site_fract_y
_atom_site_fract_z
Si Si1 0.782541 0.537213 0.698050
Si Si2 0.244064 0.771327 0.166137
Si Si3 0.204324 0.980939 0.425647
Si Si4 0.741617 0.385336 0.244926
Si Si5 0.700626 0.161666 0.239121
Si Si6 0.411864 0.999780 0.550076
O O1 0.750000 0.500000 0.750000
O O2 0.742230 0.493718 0.649455
O O3 0.869981 0.534643 0.693125
O O4 0.759060 0.615208 0.705159
O O5 0.223146 0.847198 0.185583
O O6 0.184194 0.722462 0.195754
O O7 0.325690 0.755052 0.189508
O O8 0.252744 0.919681 0.453695
O O9 0.209558 0.987082 0.357938
O O10 0.229671 0.053174 0.452720
O O11 0.813785 0.431626 0.232819
O O12 0.674606 0.435597 0.260086
O O13 0.625000 0.125000 0.254882
#
# Coordination Sequence:
#
# PCOD8286238 Si02
#       6
#    32  32  32  32  32  32
#     4  11  22  38  61  88 123 164 209 257 313 379
#     4  10  23  39  62  89 123 167 211 258 317 384
#     4  10  22  40  64  93 122 165 211 257 313 388
#     4  10  21  38  64  96 121 158 211 265 306 368
#     4  11  22  38  59  88 126 161 206 255 318 374
#     4  10  21  40  69  89 122 166 212 258 315 382
#
# _framework density 22.687387000000001
#
# number of rings (size 3 to 8) (size 9 to 14) (size 15 to 20)
#    0.000    1.667    1.667    2.500    2.333    4.000 
#    0.000    0.000    7.333   39.000    0.000    0.000 
#    0.000    0.000    0.000    0.000    0.000    0.000 
#
# Total GULP energy -594669.211333 kJ/mol
# GULP energy per Si atom -12388.941903 kJ/mol
# Density = 2.263575 g / cm^3
# Si number density = 22.687387 Si / 1000 Ang^3
#
#
#
# Elastic Constant Matrix: (Units=GPa)
#
#
# Indices 1 2 3 4 5 6 
#
# 1 30.5075 28.0254 27.2996 0.0000 0.0000 0.0000
# 2 28.0254 163.5239 68.6491 0.0000 0.0000 0.0000
# 3 27.2996 68.6491 130.6140 0.0000 0.0000 0.0000
# 4 0.0000 0.0000 0.0000 41.6392 0.0000 0.0000
# 5 0.0000 0.0000 0.0000 0.0000 32.9233 0.0000
# 6 0.0000 0.0000 0.0000 0.0000 0.0000 32.6223
#
#
#
# Elastic Compliance Matrix: (Units=1/GPa)
#
#
# Indices 1 2 3 4 5 6 
#
# 1 0.042856 -0.004599 -0.006540 0.000000 0.000000 0.000000
# 2 -0.004599 0.008340 -0.003422 0.000000 0.000000 0.000000
# 3 -0.006540 -0.003422 0.010822 0.000000 0.000000 0.000000
# 4 0.000000 0.000000 0.000000 0.024016 0.000000 0.000000
# 5 0.000000 0.000000 0.000000 0.000000 0.030374 0.000000
# 6 0.000000 0.000000 0.000000 0.000000 0.000000 0.030654
#
#
# Mechanical properties :
#
#
# Convention : Reuss Voigt Hill
#
# Bulk Modulus (GPa) = 30.39960 63.62152 47.01056
# Shear Modulus (GPa) = 26.71655 34.81506 30.76581
#
# Velocity S-wave (km/s) = 3.43533 3.92159 3.68649
# Velocity P-wave (km/s) = 5.40035 6.97200 6.23588
#
# Compressibility (1/GPa) = 0.03289517
#
# Stress axis : x y z
#
# Youngs Moduli (GPa) = 23.33376 119.90047 92.40642
#
# Poissons Ratio (x) = 0.55146 0.60434
# Poissons Ratio (y) = 0.10732 0.31624
# Poissons Ratio (z) = 0.15260 0.41033
#
# Static dielectric constant tensor:
#      x y z
#    x 4.211660 0.000000 0.000000 
#    y 0.000000 5.790780 0.000000 
#    z 0.000000 0.000000 4.383270 
# 
# 
# High freq. dielectric constant tensor:
#      x y z
#    x 1.861900 0.000000 0.000000 
#    y 0.000000 1.918530 0.000000 
#    z 0.000000 0.000000 1.894800 
# 
# From -- ./inp_files/45912.got.cif
#   From: 2010.03.12/outbox.cif.g09.slc.cpg/sg70_23_cif.got.tgz:45912.got - 2010.04.16 13:46:32.
