data_PCOD8286929
_publ_section_title
;
Structure prediction by ZEFSAII (Michael W. Deem and Ramdas Pophale) SiO2 
 PCOD8286929
Probable space group: I M M M
;
_chemical_formula_sum "Si O2"
_cell_formula_units_Z 96
_cell_length_a 29.505905
_cell_length_b 12.441639
_cell_length_c 18.796829
_cell_angle_alpha 90.000000
_cell_angle_beta 90.000000
_cell_angle_gamma 90.000000
_cell_volume 6900.350106
_symmetry_space_group_name_H-M "I M M M"
_symmetry_group_IT_number 71
_symmetry_cell_setting 'orthorhombic'
loop_
_space_group_symop_operation_xyz
x,y,z
-x,-y,z
x,-y,-z
-x,y,-z
-x,-y,-z
x,y,-z
-x,y,z
x,-y,z
1/2+x,1/2+y,1/2+z
1/2-x,1/2-y,1/2+z
1/2+x,1/2-y,1/2-z
1/2-x,1/2+y,1/2-z
1/2-x,1/2-y,1/2-z
1/2+x,1/2+y,1/2-z
1/2-x,1/2+y,1/2+z
1/2+x,1/2-y,1/2+z
loop_
_atom_site_type_symbol
_atom_site_label
_atom_site_fract_x
_atom_site_fract_y
_atom_site_fract_z
Si Si1 0.320843 0.254042 0.290296
Si Si2 0.687765 0.878057 0.420089
Si Si3 0.630135 0.377210 0.177380
Si Si4 0.050529 0.127598 0.420603
Si Si5 0.732826 0.124667 0.820892
Si Si6 0.711032 0.689583 0.081330
O O1 0.337441 0.201502 0.364687
O O2 0.363168 0.305414 0.248204
O O3 0.297754 0.157787 0.246166
O O4 0.285079 0.349694 0.303466
O O5 0.675193 0.840415 0.500000
O O6 0.741838 0.872790 0.408890
O O7 0.671763 0.000000 0.407367
O O8 0.620943 0.500000 0.199817
O O9 0.587259 0.326911 0.135107
O O10 0.674272 0.373734 0.127501
O O11 0.060489 0.172686 0.500000
O O12 0.000000 0.162588 0.396345
O O13 0.054508 0.000000 0.422891
O O14 0.716516 0.188692 0.890801
O O15 0.726884 0.000000 0.837027
O O16 0.694865 0.691978 0.000000
#
# Coordination Sequence:
#
# PCOD8286929 Si02
#       6
#    16  16  16  16  16  16
#     4   9  17  25  35  52  71  91 124 157 179 216
#     4   9  16  26  39  52  70  97 124 153 188 217
#     4  10  17  24  37  54  74 100 124 150 182 212
#     4   8  14  24  37  54  76 100 123 146 176 213
#     4   9  16  25  35  46  68 100 124 151 191 219
#     4   9  17  25  34  52  72  94 131 164 180 207
#
# _framework density 13.912337000000001
#
# number of rings (size 3 to 8) (size 9 to 14) (size 15 to 20)
#    0.000    3.000    0.000    3.500    0.000    2.000 
#    0.000    0.000    0.000    1.500    0.000    0.000 
#    0.000   17.333    0.000   59.500    0.000    4.167 
#
# Total GULP energy -595027.625844 kJ/mol
# GULP energy per Si atom -12396.408872 kJ/mol
# Density = 1.388067 g / cm^3
# Si number density = 13.912337 Si / 1000 Ang^3
#
#
#
# Elastic Constant Matrix: (Units=GPa)
#
#
# Indices 1 2 3 4 5 6 
#
# 1 54.2948 14.2192 34.5588 0.0000 0.0000 0.0000
# 2 14.2192 63.8884 31.6744 0.0000 0.0000 0.0000
# 3 34.5588 31.6744 103.3012 0.0000 0.0000 0.0000
# 4 0.0000 0.0000 0.0000 21.1204 0.0000 0.0000
# 5 0.0000 0.0000 0.0000 0.0000 21.8280 0.0000
# 6 0.0000 0.0000 0.0000 0.0000 0.0000 8.9880
#
#
#
# Elastic Compliance Matrix: (Units=1/GPa)
#
#
# Indices 1 2 3 4 5 6 
#
# 1 0.023534 -0.001574 -0.007391 0.000000 0.000000 0.000000
# 2 -0.001574 0.018563 -0.005165 0.000000 0.000000 0.000000
# 3 -0.007391 -0.005165 0.013737 0.000000 0.000000 0.000000
# 4 0.000000 0.000000 0.000000 0.047348 0.000000 0.000000
# 5 0.000000 0.000000 0.000000 0.000000 0.045813 0.000000
# 6 0.000000 0.000000 0.000000 0.000000 0.000000 0.111259
#
#
# Mechanical properties :
#
#
# Convention : Reuss Voigt Hill
#
# Bulk Modulus (GPa) = 36.26509 42.48769 39.37639
# Shear Modulus (GPa) = 16.79511 19.78941 18.29226
#
# Velocity S-wave (km/s) = 3.47826 3.77561 3.62998
# Velocity P-wave (km/s) = 6.50035 7.04364 6.77744
#
# Compressibility (1/GPa) = 0.02757473
#
# Stress axis : x y z
#
# Youngs Moduli (GPa) = 42.49111 53.86926 72.79716
#
# Poissons Ratio (x) = 0.08478 0.53802
# Poissons Ratio (y) = 0.06687 0.37603
# Poissons Ratio (z) = 0.31404 0.27826
#
# Static dielectric constant tensor:
#      x y z
#    x 2.515090 0.000000 0.000000 
#    y 0.000000 2.510590 0.000000 
#    z 0.000000 0.000000 2.959800 
# 
# 
# High freq. dielectric constant tensor:
#      x y z
#    x 1.482490 0.000000 0.000000 
#    y 0.000000 1.511110 0.000000 
#    z 0.000000 0.000000 1.535620 
# 
# From -- ./inp_files/24442.got.cif
#   From: 2010.06.25/outbox.cif.g09.slc.cpg/sg71_13_cif.got.tgz:24442.got - 2010.06.28 04:59:45.
