data_PCOD8286440
_publ_section_title
;
Structure prediction by ZEFSAII (Michael W. Deem and Ramdas Pophale) SiO2 
 PCOD8286440
Probable space group: F D D D
;
_chemical_formula_sum "Si O2"
_cell_formula_units_Z 176
_cell_length_a 12.723994
_cell_length_b 24.417750
_cell_length_c 27.362998
_cell_angle_alpha 90.000000
_cell_angle_beta 90.000000
_cell_angle_gamma 90.000000
_cell_volume 8501.445543
_symmetry_space_group_name_H-M "F D D D"
_symmetry_group_IT_number 70
_space_group.IT_coordinate_system_code '2'
_symmetry_cell_setting 'orthorhombic'
loop_
_space_group_symop_operation_xyz
x,y,z
1/4-x,1/4-y,z
x,1/4-y,1/4-z
1/4-x,y,1/4-z
-x,-y,-z
3/4+x,3/4+y,-z
-x,3/4+y,3/4+z
3/4+x,-y,3/4+z
x,1/2+y,1/2+z
1/4-x,3/4-y,1/2+z
x,3/4-y,3/4-z
1/4-x,1/2+y,3/4-z
-x,1/2-y,1/2-z
3/4+x,1/4+y,1/2-z
-x,1/4+y,1/4+z
3/4+x,1/2-y,1/4+z
1/2+x,y,1/2+z
3/4-x,1/4-y,1/2+z
1/2+x,1/4-y,3/4-z
3/4-x,y,3/4-z
1/2-x,-y,1/2-z
1/4+x,3/4+y,1/2-z
1/2-x,3/4+y,1/4+z
1/4+x,-y,1/4+z
1/2+x,1/2+y,z
3/4-x,3/4-y,z
1/2+x,3/4-y,1/4-z
3/4-x,1/2+y,1/4-z
1/2-x,1/2-y,-z
1/4+x,1/4+y,-z
1/2-x,1/4+y,3/4+z
1/4+x,1/2-y,3/4+z
loop_
_atom_site_type_symbol
_atom_site_label
_atom_site_fract_x
_atom_site_fract_y
_atom_site_fract_z
Si Si1 0.244669 0.582487 0.534392
Si Si2 0.125000 0.125000 0.735584
Si Si3 0.348417 0.763976 0.034223
Si Si4 0.625000 0.125000 0.445672
Si Si5 0.875000 0.290712 0.375000
Si Si6 0.599311 0.513640 0.891651
Si Si7 0.078299 0.903205 0.323299
O O1 0.306109 0.526665 0.524838
O O2 0.210727 0.598558 0.480446
O O3 0.152132 0.575896 0.575646
O O4 0.316917 0.633221 0.547826
O O5 0.133771 0.175814 0.771119
O O6 0.227044 0.127876 0.702136
O O7 0.329048 0.763707 0.092506
O O8 0.250000 0.750000 0.000000
O O9 0.586992 0.074530 0.412513
O O10 0.771017 0.254929 0.384091
O O11 0.662609 0.469541 0.925292
O O12 0.079313 0.875000 0.375000
#
# Coordination Sequence:
#
# PCOD8286440 Si02
#       7
#    32  16  32  16  16  32  32
#     4  11  24  41  71  98 137 176 231 277 340 394
#     4  12  24  38  70  95 135 172 224 276 338 402
#     4  11  22  45  67  96 130 181 222 276 329 404
#     4  12  27  43  60 107 143 172 217 283 344 410
#     4  10  22  45  74  96 128 186 227 282 326 408
#     4  11  25  44  68  99 138 174 223 275 342 399
#     4  12  22  42  69  98 128 175 231 278 325 393
#
# _framework density 20.702362000000001
#
# number of rings (size 3 to 8) (size 9 to 14) (size 15 to 20)
#    0.000    0.727    5.455    3.000    0.000    6.545 
#    3.273    1.818    0.000    0.000    0.000    0.000 
#    0.000    0.000    0.000    0.000    0.000    0.000 
#
# Total GULP energy -545121.694878 kJ/mol
# GULP energy per Si atom -12389.129429 kJ/mol
# Density = 2.065524 g / cm^3
# Si number density = 20.702362 Si / 1000 Ang^3
#
#
#
# Elastic Constant Matrix: (Units=GPa)
#
#
# Indices 1 2 3 4 5 6 
#
# 1 101.0100 30.9069 55.1519 0.0000 0.0000 0.0000
# 2 30.9069 173.3598 63.1712 0.0000 0.0000 0.0000
# 3 55.1519 63.1712 117.9901 0.0000 0.0000 0.0000
# 4 0.0000 0.0000 0.0000 60.3689 0.0000 0.0000
# 5 0.0000 0.0000 0.0000 0.0000 28.5146 0.0000
# 6 0.0000 0.0000 0.0000 0.0000 0.0000 82.2955
#
#
#
# Elastic Compliance Matrix: (Units=1/GPa)
#
#
# Indices 1 2 3 4 5 6 
#
# 1 0.013295 -0.000131 -0.006144 0.000000 0.000000 0.000000
# 2 -0.000131 0.007168 -0.003776 0.000000 0.000000 0.000000
# 3 -0.006144 -0.003776 0.013369 0.000000 0.000000 0.000000
# 4 0.000000 0.000000 0.000000 0.016565 0.000000 0.000000
# 5 0.000000 0.000000 0.000000 0.000000 0.035070 0.000000
# 6 0.000000 0.000000 0.000000 0.000000 0.000000 0.012151
#
#
# Mechanical properties :
#
#
# Convention : Reuss Voigt Hill
#
# Bulk Modulus (GPa) = 72.84188 76.75777 74.79983
# Shear Modulus (GPa) = 40.88412 50.44447 45.66429
#
# Velocity S-wave (km/s) = 4.44875 4.94160 4.70164
# Velocity P-wave (km/s) = 7.85177 8.34964 8.10453
#
# Compressibility (1/GPa) = 0.01372837
#
# Stress axis : x y z
#
# Youngs Moduli (GPa) = 75.21682 139.51307 74.80017
#
# Poissons Ratio (x) = 0.01833 0.45958
# Poissons Ratio (y) = 0.00988 0.28246
# Poissons Ratio (z) = 0.46214 0.52683
#
# Static dielectric constant tensor:
#      x y z
#    x 3.620130 0.000000 0.000000 
#    y 0.000000 3.853560 0.000000 
#    z 0.000000 0.000000 3.620100 
# 
# 
# High freq. dielectric constant tensor:
#      x y z
#    x 1.806240 0.000000 0.000000 
#    y 0.000000 1.832140 0.000000 
#    z 0.000000 0.000000 1.815850 
# 
# From -- ./inp_files/51238.got.cif
#   From: 2010.03.12/outbox.cif.g09.slc.cpg/sg70_26_cif.got.tgz:51238.got - 2010.04.16 13:46:32.
