data_PCOD8286168
_publ_section_title
;
Structure prediction by ZEFSAII (Michael W. Deem and Ramdas Pophale) SiO2 
 PCOD8286168
Probable space group: F D D D
;
_chemical_formula_sum "Si O2"
_cell_formula_units_Z 80
_cell_length_a 10.185604
_cell_length_b 22.013065
_cell_length_c 12.719104
_cell_angle_alpha 90.000000
_cell_angle_beta 90.000000
_cell_angle_gamma 90.000000
_cell_volume 2851.831238
_symmetry_space_group_name_H-M "F D D D"
_symmetry_group_IT_number 70
_space_group.IT_coordinate_system_code '2'
_symmetry_cell_setting 'orthorhombic'
loop_
_space_group_symop_operation_xyz
x,y,z
1/4-x,1/4-y,z
x,1/4-y,1/4-z
1/4-x,y,1/4-z
-x,-y,-z
3/4+x,3/4+y,-z
-x,3/4+y,3/4+z
3/4+x,-y,3/4+z
x,1/2+y,1/2+z
1/4-x,3/4-y,1/2+z
x,3/4-y,3/4-z
1/4-x,1/2+y,3/4-z
-x,1/2-y,1/2-z
3/4+x,1/4+y,1/2-z
-x,1/4+y,1/4+z
3/4+x,1/2-y,1/4+z
1/2+x,y,1/2+z
3/4-x,1/4-y,1/2+z
1/2+x,1/4-y,3/4-z
3/4-x,y,3/4-z
1/2-x,-y,1/2-z
1/4+x,3/4+y,1/2-z
1/2-x,3/4+y,1/4+z
1/4+x,-y,1/4+z
1/2+x,1/2+y,z
3/4-x,3/4-y,z
1/2+x,3/4-y,1/4-z
3/4-x,1/2+y,1/4-z
1/2-x,1/2-y,-z
1/4+x,1/4+y,-z
1/2-x,1/4+y,3/4+z
1/4+x,1/2-y,3/4+z
loop_
_atom_site_type_symbol
_atom_site_label
_atom_site_fract_x
_atom_site_fract_y
_atom_site_fract_z
Si Si1 0.649856 0.966646 0.896024
Si Si2 0.241583 0.339483 0.058122
Si Si3 0.375000 0.728479 0.875000
O O1 0.694253 0.916224 0.812349
O O2 0.736725 0.025734 0.869156
O O3 0.494471 0.976934 0.900012
O O4 0.677890 0.943648 0.016875
O O5 0.375000 0.375000 0.068637
O O6 0.125000 0.372831 0.125000
#
# Coordination Sequence:
#
# PCOD8286168 Si02
#       3
#    32  32  16
#     4  10  22  44  78 110 150 209 249 319 399 466
#     4  11  24  45  76 113 159 200 271 323 383 470
#     4  10  20  42  81 104 148 208 250 306 411 460
#
# _framework density 28.052150999999999
#
# number of rings (size 3 to 8) (size 9 to 14) (size 15 to 20)
#    0.000    1.600    4.000    0.000    2.800    0.000 
#    0.000    5.000    0.000    2.400    0.000    0.000 
#    0.000    0.000    0.000    0.000    0.000    0.000 
#
# Total GULP energy -247944.362133 kJ/mol
# GULP energy per Si atom -12397.218107 kJ/mol
# Density = 2.798830 g / cm^3
# Si number density = 28.052151 Si / 1000 Ang^3
#
#
#
# Elastic Constant Matrix: (Units=GPa)
#
#
# Indices 1 2 3 4 5 6 
#
# 1 212.1915 35.7916 88.8500 0.0000 0.0000 0.0000
# 2 35.7916 68.9939 108.8519 0.0000 0.0000 0.0000
# 3 88.8500 108.8519 303.2473 0.0000 0.0000 0.0000
# 4 0.0000 0.0000 0.0000 28.1631 0.0000 0.0000
# 5 0.0000 0.0000 0.0000 0.0000 54.5654 0.0000
# 6 0.0000 0.0000 0.0000 0.0000 0.0000 29.5664
#
#
#
# Elastic Compliance Matrix: (Units=1/GPa)
#
#
# Indices 1 2 3 4 5 6 
#
# 1 0.005386 -0.000702 -0.001326 0.000000 0.000000 0.000000
# 2 -0.000702 0.033513 -0.011824 0.000000 0.000000 0.000000
# 3 -0.001326 -0.011824 0.007930 0.000000 0.000000 0.000000
# 4 0.000000 0.000000 0.000000 0.035507 0.000000 0.000000
# 5 0.000000 0.000000 0.000000 0.000000 0.018327 0.000000
# 6 0.000000 0.000000 0.000000 0.000000 0.000000 0.033822
#
#
# Mechanical properties :
#
#
# Convention : Reuss Voigt Hill
#
# Bulk Modulus (GPa) = 52.28577 116.82441 84.55509
# Shear Modulus (GPa) = 29.66211 45.85494 37.75853
#
# Velocity S-wave (km/s) = 3.25528 4.04744 3.67278
# Velocity P-wave (km/s) = 5.72786 7.97360 6.94214
#
# Compressibility (1/GPa) = 0.01912566
#
# Stress axis : x y z
#
# Youngs Moduli (GPa) = 185.65099 29.83936 126.09572
#
# Poissons Ratio (x) = 0.02094 0.16724
# Poissons Ratio (y) = 0.13029 1.49095
# Poissons Ratio (z) = 0.24623 0.35282
#
# Static dielectric constant tensor:
#      x y z
#    x 5.281440 0.000000 0.000000 
#    y 0.000000 5.023630 0.000000 
#    z 0.000000 0.000000 6.257080 
# 
# 
# High freq. dielectric constant tensor:
#      x y z
#    x 2.150180 0.000000 0.000000 
#    y 0.000000 2.159230 0.000000 
#    z 0.000000 0.000000 2.174320 
# 
# From -- ./inp_files/13806.got.cif
#   From: 2010.03.12/outbox.cif.g09.slc.cpg/sg70_7_cif.got.tgz:13806.got - 2010.04.16 13:46:32.
