data_PCOD8286849
_publ_section_title
;
Structure prediction by ZEFSAII (Michael W. Deem and Ramdas Pophale) SiO2 
 PCOD8286849
Probable space group: F D D D
;
_chemical_formula_sum "Si O2"
_cell_formula_units_Z 80
_cell_length_a 23.497127
_cell_length_b 15.601311
_cell_length_c 9.388443
_cell_angle_alpha 90.000000
_cell_angle_beta 90.000000
_cell_angle_gamma 90.000000
_cell_volume 3441.671634
_symmetry_space_group_name_H-M "F D D D"
_symmetry_group_IT_number 70
_space_group.IT_coordinate_system_code '2'
_symmetry_cell_setting 'orthorhombic'
loop_
_space_group_symop_operation_xyz
x,y,z
1/4-x,1/4-y,z
x,1/4-y,1/4-z
1/4-x,y,1/4-z
-x,-y,-z
3/4+x,3/4+y,-z
-x,3/4+y,3/4+z
3/4+x,-y,3/4+z
x,1/2+y,1/2+z
1/4-x,3/4-y,1/2+z
x,3/4-y,3/4-z
1/4-x,1/2+y,3/4-z
-x,1/2-y,1/2-z
3/4+x,1/4+y,1/2-z
-x,1/4+y,1/4+z
3/4+x,1/2-y,1/4+z
1/2+x,y,1/2+z
3/4-x,1/4-y,1/2+z
1/2+x,1/4-y,3/4-z
3/4-x,y,3/4-z
1/2-x,-y,1/2-z
1/4+x,3/4+y,1/2-z
1/2-x,3/4+y,1/4+z
1/4+x,-y,1/4+z
1/2+x,1/2+y,z
3/4-x,3/4-y,z
1/2+x,3/4-y,1/4-z
3/4-x,1/2+y,1/4-z
1/2-x,1/2-y,-z
1/4+x,1/4+y,-z
1/2-x,1/4+y,3/4+z
1/4+x,1/2-y,3/4+z
loop_
_atom_site_type_symbol
_atom_site_label
_atom_site_fract_x
_atom_site_fract_y
_atom_site_fract_z
Si Si1 0.039683 0.994707 0.862521
Si Si2 0.487830 0.662471 0.827965
Si Si3 0.860007 0.125000 0.125000
O O1 0.037151 0.091445 0.797232
O O2 0.016334 0.925994 0.747547
O O3 0.103463 0.962722 0.895152
O O4 0.000000 0.000000 0.000000
O O5 0.500000 0.750000 0.750000
O O6 0.427960 0.627829 0.767540
#
# Coordination Sequence:
#
# PCOD8286849 Si02
#       3
#    32  32  16
#     4  12  25  46  77 111 154 201 259 330 395 481
#     4  12  25  49  75 112 153 201 267 326 393 482
#     4  12  26  46  82 108 158 204 266 326 410 464
#
# _framework density 23.244517999999999
#
# number of rings (size 3 to 8) (size 9 to 14) (size 15 to 20)
#    0.000    0.000    8.000    1.200    0.000    1.600 
#    0.000    4.000    8.800    0.000    0.000    0.000 
#    0.000    0.000    0.000    0.000    0.000    0.000 
#
# Total GULP energy -247904.817685 kJ/mol
# GULP energy per Si atom -12395.240884 kJ/mol
# Density = 2.319161 g / cm^3
# Si number density = 23.244518 Si / 1000 Ang^3
#
#
#
# Elastic Constant Matrix: (Units=GPa)
#
#
# Indices 1 2 3 4 5 6 
#
# 1 134.9347 99.0796 58.6729 0.0000 0.0000 0.0000
# 2 99.0796 197.0212 42.7891 0.0000 0.0000 0.0000
# 3 58.6729 42.7891 157.6408 0.0000 0.0000 0.0000
# 4 0.0000 0.0000 0.0000 44.1008 0.0000 0.0000
# 5 0.0000 0.0000 0.0000 0.0000 49.3759 0.0000
# 6 0.0000 0.0000 0.0000 0.0000 0.0000 63.9822
#
#
#
# Elastic Compliance Matrix: (Units=1/GPa)
#
#
# Indices 1 2 3 4 5 6 
#
# 1 0.013192 -0.005917 -0.003304 0.000000 0.000000 0.000000
# 2 -0.005917 0.008047 0.000018 0.000000 0.000000 0.000000
# 3 -0.003304 0.000018 0.007568 0.000000 0.000000 0.000000
# 4 0.000000 0.000000 0.000000 0.022675 0.000000 0.000000
# 5 0.000000 0.000000 0.000000 0.000000 0.020253 0.000000
# 6 0.000000 0.000000 0.000000 0.000000 0.000000 0.015629
#
#
# Mechanical properties :
#
#
# Convention : Reuss Voigt Hill
#
# Bulk Modulus (GPa) = 96.13461 98.96442 97.54952
# Shear Modulus (GPa) = 45.77164 50.76213 48.26689
#
# Velocity S-wave (km/s) = 4.44231 4.67822 4.56179
# Velocity P-wave (km/s) = 8.23164 8.47637 8.35490
#
# Compressibility (1/GPa) = 0.01040208
#
# Stress axis : x y z
#
# Youngs Moduli (GPa) = 75.80305 124.26859 132.12770
#
# Poissons Ratio (x) = 0.73524 0.43656
# Poissons Ratio (y) = 0.44849 -0.00236
# Poissons Ratio (z) = 0.25046 -0.00222
#
# Static dielectric constant tensor:
#      x y z
#    x 4.182190 0.000000 0.000000 
#    y 0.000000 5.139020 0.000000 
#    z 0.000000 0.000000 6.604260 
# 
# 
# High freq. dielectric constant tensor:
#      x y z
#    x 1.886590 0.000000 0.000000 
#    y 0.000000 1.945460 0.000000 
#    z 0.000000 0.000000 1.943750 
# 
# From -- ./inp_files/10136.got.cif
#   From: 2010.03.12/outbox.cif.g09.slc.cpg/sg70_6_cif.got.tgz:10136.got - 2010.04.16 13:46:32.
