data_PCOD8286174
_publ_section_title
;
Structure prediction by ZEFSAII (Michael W. Deem and Ramdas Pophale) SiO2 
 PCOD8286174
Probable space group: F D D D
;
_chemical_formula_sum "Si O2"
_cell_formula_units_Z 184
_cell_length_a 16.673385
_cell_length_b 20.296644
_cell_length_c 27.328599
_cell_angle_alpha 90.000000
_cell_angle_beta 90.000000
_cell_angle_gamma 90.000000
_cell_volume 9248.373933
_symmetry_space_group_name_H-M "F D D D"
_symmetry_group_IT_number 70
_space_group.IT_coordinate_system_code '2'
_symmetry_cell_setting 'orthorhombic'
loop_
_space_group_symop_operation_xyz
x,y,z
1/4-x,1/4-y,z
x,1/4-y,1/4-z
1/4-x,y,1/4-z
-x,-y,-z
3/4+x,3/4+y,-z
-x,3/4+y,3/4+z
3/4+x,-y,3/4+z
x,1/2+y,1/2+z
1/4-x,3/4-y,1/2+z
x,3/4-y,3/4-z
1/4-x,1/2+y,3/4-z
-x,1/2-y,1/2-z
3/4+x,1/4+y,1/2-z
-x,1/4+y,1/4+z
3/4+x,1/2-y,1/4+z
1/2+x,y,1/2+z
3/4-x,1/4-y,1/2+z
1/2+x,1/4-y,3/4-z
3/4-x,y,3/4-z
1/2-x,-y,1/2-z
1/4+x,3/4+y,1/2-z
1/2-x,3/4+y,1/4+z
1/4+x,-y,1/4+z
1/2+x,1/2+y,z
3/4-x,3/4-y,z
1/2+x,3/4-y,1/4-z
3/4-x,1/2+y,1/4-z
1/2-x,1/2-y,-z
1/4+x,1/4+y,-z
1/2-x,1/4+y,3/4+z
1/4+x,1/2-y,3/4+z
loop_
_atom_site_type_symbol
_atom_site_label
_atom_site_fract_x
_atom_site_fract_y
_atom_site_fract_z
Si Si1 0.625000 0.625000 0.625000
Si Si2 0.046703 0.288388 0.091955
Si Si3 0.783691 0.846879 0.537583
Si Si4 0.131840 0.203352 0.016866
Si Si5 0.243925 0.448126 0.316492
Si Si6 0.382838 0.125000 0.625000
Si Si7 0.207451 0.984223 0.321047
O O1 0.675247 0.572541 0.656182
O O2 0.125000 0.296706 0.125000
O O3 0.058454 0.234195 0.048309
O O4 0.025940 0.357077 0.067440
O O5 0.972019 0.269302 0.126642
O O6 0.875000 0.875000 0.538302
O O7 0.770956 0.775295 0.560434
O O8 0.747813 0.843300 0.483335
O O9 0.125000 0.125000 0.017757
O O10 0.210929 0.231622 0.041489
O O11 0.137491 0.228527 0.960304
O O12 0.168736 0.430275 0.349142
O O13 0.434459 0.090899 0.582485
#
# Coordination Sequence:
#
# PCOD8286174 Si02
#       7
#     8  32  32  32  32  16  32
#     4  10  20  44  60  92 118 160 212 256 310 384
#     4  10  22  39  60  88 123 160 199 254 309 374
#     4  11  22  40  59  88 121 160 207 258 310 367
#     4  10  21  38  59  86 120 157 195 251 308 364
#     4  10  23  37  62  84 120 160 203 255 307 370
#     4  11  20  37  59  86 115 158 198 248 307 366
#     4  10  21  36  59  88 118 152 205 246 298 384
#
# _framework density 19.895389999999999
#
# number of rings (size 3 to 8) (size 9 to 14) (size 15 to 20)
#    0.000    1.739    0.870    3.130    1.217    4.522 
#    0.000    3.478    0.000    0.000    0.000    0.000 
#    0.000    0.000    0.000    0.000    0.000    0.000 
#
# Total GULP energy -570076.078613 kJ/mol
# GULP energy per Si atom -12392.958231 kJ/mol
# Density = 1.985011 g / cm^3
# Si number density = 19.895390 Si / 1000 Ang^3
#
#
#
# Elastic Constant Matrix: (Units=GPa)
#
#
# Indices 1 2 3 4 5 6 
#
# 1 47.1126 25.6051 33.5115 0.0000 0.0000 0.0000
# 2 25.6051 109.9412 63.6069 0.0000 0.0000 0.0000
# 3 33.5115 63.6069 131.2281 0.0000 0.0000 0.0000
# 4 0.0000 0.0000 0.0000 32.7297 0.0000 0.0000
# 5 0.0000 0.0000 0.0000 0.0000 21.3969 0.0000
# 6 0.0000 0.0000 0.0000 0.0000 0.0000-3164.9664
#
#
#
# Elastic Compliance Matrix: (Units=1/GPa)
#
#
# Indices 1 2 3 4 5 6 
#
# 1 0.026704 -0.003160 -0.005288 0.000000 0.000000 0.000000
# 2 -0.003160 0.013014 -0.005501 0.000000 0.000000 0.000000
# 3 -0.005288 -0.005501 0.011637 0.000000 0.000000 0.000000
# 4 0.000000 0.000000 0.000000 0.030553 0.000000 0.000000
# 5 0.000000 0.000000 0.000000 0.000000 0.046736 0.000000
# 6 0.000000 0.000000 0.000000 0.000000 0.000000 -0.000316
#
#
# Mechanical properties :
#
#
# Convention : Reuss Voigt Hill
#
# Bulk Modulus (GPa) = 42.62964 59.30321 50.96643
# Shear Modulus (GPa) = 30.47915 -611.13075 -290.32580
#
# Velocity S-wave (km/s) = 3.91829 -17.54534 -12.09310
# Velocity P-wave (km/s) = 6.47642 19.50845 13.01222
#
# Compressibility (1/GPa) = 0.02345786
#
# Stress axis : x y z
#
# Youngs Moduli (GPa) = 37.44699 76.83743 85.93227
#
# Poissons Ratio (x) = 0.24282 0.45438
# Poissons Ratio (y) = 0.11834 0.47273
# Poissons Ratio (z) = 0.19801 0.42270
#
# Static dielectric constant tensor:
#      x y z
#    x 3.688720 0.000000 0.000000 
#    y 0.000000 3.453880 0.000000 
#    z 0.000000 0.000000 4.145790 
# 
# 
# High freq. dielectric constant tensor:
#      x y z
#    x 1.768960 0.000000 0.000000 
#    y 0.000000 1.778350 0.000000 
#    z 0.000000 0.000000 1.794500 
# 
# From -- ./inp_files/37603.got.cif
#   From: 2010.03.12/outbox.cif.g09.slc.cpg/sg70_19_cif.got.tgz:37603.got - 2010.04.16 13:46:32.
