data_PCOD8286673
_publ_section_title
;
Structure prediction by ZEFSAII (Michael W. Deem and Ramdas Pophale) SiO2 
 PCOD8286673
Probable space group: F D D D
;
_chemical_formula_sum "Si O2"
_cell_formula_units_Z 176
_cell_length_a 20.574588
_cell_length_b 11.841477
_cell_length_c 29.239305
_cell_angle_alpha 90.000000
_cell_angle_beta 90.000000
_cell_angle_gamma 90.000000
_cell_volume 7123.674524
_symmetry_space_group_name_H-M "F D D D"
_symmetry_group_IT_number 70
_space_group.IT_coordinate_system_code '2'
_symmetry_cell_setting 'orthorhombic'
loop_
_space_group_symop_operation_xyz
x,y,z
1/4-x,1/4-y,z
x,1/4-y,1/4-z
1/4-x,y,1/4-z
-x,-y,-z
3/4+x,3/4+y,-z
-x,3/4+y,3/4+z
3/4+x,-y,3/4+z
x,1/2+y,1/2+z
1/4-x,3/4-y,1/2+z
x,3/4-y,3/4-z
1/4-x,1/2+y,3/4-z
-x,1/2-y,1/2-z
3/4+x,1/4+y,1/2-z
-x,1/4+y,1/4+z
3/4+x,1/2-y,1/4+z
1/2+x,y,1/2+z
3/4-x,1/4-y,1/2+z
1/2+x,1/4-y,3/4-z
3/4-x,y,3/4-z
1/2-x,-y,1/2-z
1/4+x,3/4+y,1/2-z
1/2-x,3/4+y,1/4+z
1/4+x,-y,1/4+z
1/2+x,1/2+y,z
3/4-x,3/4-y,z
1/2+x,3/4-y,1/4-z
3/4-x,1/2+y,1/4-z
1/2-x,1/2-y,-z
1/4+x,1/4+y,-z
1/2-x,1/4+y,3/4+z
1/4+x,1/2-y,3/4+z
loop_
_atom_site_type_symbol
_atom_site_label
_atom_site_fract_x
_atom_site_fract_y
_atom_site_fract_z
Si Si1 0.259912 0.161689 0.430400
Si Si2 0.563984 0.807112 0.419790
Si Si3 0.202263 0.545288 0.694805
Si Si4 0.625000 0.925156 0.625000
Si Si5 0.055847 0.620260 0.794103
Si Si6 0.940612 0.616437 0.032327
O O1 0.315027 0.153481 0.391169
O O2 0.293995 0.152279 0.479564
O O3 0.227416 0.285582 0.431450
O O4 0.198440 0.078002 0.419000
O O5 0.588885 0.875000 0.375000
O O6 0.489393 0.842547 0.429577
O O7 0.613072 0.844970 0.460235
O O8 0.138615 0.512845 0.666518
O O9 0.180690 0.561121 0.746802
O O10 0.250097 0.440808 0.681596
O O11 0.125000 0.625000 0.820893
O O12 0.033493 0.491801 0.791965
#
# Coordination Sequence:
#
# PCOD8286673 Si02
#       6
#    32  32  32  16  32  32
#     4  11  26  46  72 103 148 197 239 295 371 443
#     4  12  24  45  72 107 142 185 241 311 362 423
#     4  11  25  40  71 108 139 182 238 305 367 422
#     4  12  26  47  71 112 150 186 241 313 372 438
#     4  11  22  43  72 102 140 186 247 298 356 434
#     4  11  25  47  71 102 144 196 244 292 364 450
#
# _framework density 24.70635
#
# number of rings (size 3 to 8) (size 9 to 14) (size 15 to 20)
#    0.000    0.727    5.455    1.636    2.545    2.182 
#    3.273    1.818    0.000    0.000    0.000    0.000 
#    0.000    0.000    0.000    0.000    0.000    0.000 
#
# Total GULP energy -545277.357738 kJ/mol
# GULP energy per Si atom -12392.667221 kJ/mol
# Density = 2.465012 g / cm^3
# Si number density = 24.706350 Si / 1000 Ang^3
#
#
#
# Elastic Constant Matrix: (Units=GPa)
#
#
# Indices 1 2 3 4 5 6 
#
# 1 100.0233 34.4293 19.6027 0.0000 0.0000 0.0000
# 2 34.4293 152.9481 18.6614 0.0000 0.0000 0.0000
# 3 19.6027 18.6614 77.9180 0.0000 0.0000 0.0000
# 4 0.0000 0.0000 0.0000 20.2840 0.0000 0.0000
# 5 0.0000 0.0000 0.0000 0.0000 27.3185 0.0000
# 6 0.0000 0.0000 0.0000 0.0000 0.0000 28.5057
#
#
#
# Elastic Compliance Matrix: (Units=1/GPa)
#
#
# Indices 1 2 3 4 5 6 
#
# 1 0.011219 -0.002247 -0.002284 0.000000 0.000000 0.000000
# 2 -0.002247 0.007185 -0.001156 0.000000 0.000000 0.000000
# 3 -0.002284 -0.001156 0.013685 0.000000 0.000000 0.000000
# 4 0.000000 0.000000 0.000000 0.049300 0.000000 0.000000
# 5 0.000000 0.000000 0.000000 0.000000 0.036605 0.000000
# 6 0.000000 0.000000 0.000000 0.000000 0.000000 0.035081
#
#
# Mechanical properties :
#
#
# Convention : Reuss Voigt Hill
#
# Bulk Modulus (GPa) = 48.27207 52.91959 50.59583
# Shear Modulus (GPa) = 29.17948 32.43471 30.80709
#
# Velocity S-wave (km/s) = 3.44037 3.62720 3.53502
# Velocity P-wave (km/s) = 5.94662 6.24564 6.09796
#
# Compressibility (1/GPa) = 0.02071591
#
# Stress axis : x y z
#
# Youngs Moduli (GPa) = 89.13695 139.18094 73.07021
#
# Poissons Ratio (x) = 0.31269 0.16692
# Poissons Ratio (y) = 0.20026 0.08444
# Poissons Ratio (z) = 0.20362 0.16083
#
# Static dielectric constant tensor:
#      x y z
#    x 4.733580 0.000000 0.000000 
#    y 0.000000 4.756380 0.000000 
#    z 0.000000 0.000000 4.323820 
# 
# 
# High freq. dielectric constant tensor:
#      x y z
#    x 1.992290 0.000000 0.000000 
#    y 0.000000 1.989090 0.000000 
#    z 0.000000 0.000000 1.972500 
# 
# From -- ./inp_files/67778.got.cif
#   From: 2010.03.12/outbox.cif.g09.slc.cpg/sg70_34_cif.got.tgz:67778.got - 2010.04.16 13:46:32.
