data_PCOD8286427
_publ_section_title
;
Structure prediction by ZEFSAII (Michael W. Deem and Ramdas Pophale) SiO2 
 PCOD8286427
Probable space group: F D D D
;
_chemical_formula_sum "Si O2"
_cell_formula_units_Z 216
_cell_length_a 14.652008
_cell_length_b 24.881621
_cell_length_c 28.164690
_cell_angle_alpha 90.000000
_cell_angle_beta 90.000000
_cell_angle_gamma 90.000000
_cell_volume 10267.880205
_symmetry_space_group_name_H-M "F D D D"
_symmetry_group_IT_number 70
_space_group.IT_coordinate_system_code '2'
_symmetry_cell_setting 'orthorhombic'
loop_
_space_group_symop_operation_xyz
x,y,z
1/4-x,1/4-y,z
x,1/4-y,1/4-z
1/4-x,y,1/4-z
-x,-y,-z
3/4+x,3/4+y,-z
-x,3/4+y,3/4+z
3/4+x,-y,3/4+z
x,1/2+y,1/2+z
1/4-x,3/4-y,1/2+z
x,3/4-y,3/4-z
1/4-x,1/2+y,3/4-z
-x,1/2-y,1/2-z
3/4+x,1/4+y,1/2-z
-x,1/4+y,1/4+z
3/4+x,1/2-y,1/4+z
1/2+x,y,1/2+z
3/4-x,1/4-y,1/2+z
1/2+x,1/4-y,3/4-z
3/4-x,y,3/4-z
1/2-x,-y,1/2-z
1/4+x,3/4+y,1/2-z
1/2-x,3/4+y,1/4+z
1/4+x,-y,1/4+z
1/2+x,1/2+y,z
3/4-x,3/4-y,z
1/2+x,3/4-y,1/4-z
3/4-x,1/2+y,1/4-z
1/2-x,1/2-y,-z
1/4+x,1/4+y,-z
1/2-x,1/4+y,3/4+z
1/4+x,1/2-y,3/4+z
loop_
_atom_site_type_symbol
_atom_site_label
_atom_site_fract_x
_atom_site_fract_y
_atom_site_fract_z
Si Si1 0.875000 0.375000 0.495879
Si Si2 0.625610 0.565020 0.336592
Si Si3 0.232008 0.343762 0.827940
Si Si4 0.767721 0.375814 0.705718
Si Si5 0.976826 0.076288 0.557899
Si Si6 0.220976 0.776708 0.103584
Si Si7 0.375000 0.875000 0.875000
Si Si8 0.280644 0.025187 0.400358
O O1 0.868813 0.321589 0.529390
O O2 0.782293 0.376239 0.465408
O O3 0.625000 0.625000 0.360082
O O4 0.536290 0.530968 0.350487
O O5 0.709521 0.532576 0.357765
O O6 0.261349 0.375000 0.875000
O O7 0.123086 0.346035 0.822891
O O8 0.270708 0.283780 0.828171
O O9 0.875000 0.375000 0.697095
O O10 0.746823 0.396055 0.758280
O O11 0.713542 0.415033 0.670230
O O12 0.730990 0.316056 0.694683
O O13 0.057454 0.089930 0.593796
O O14 0.984360 0.011311 0.562151
O O15 0.125000 0.757141 0.125000
O O16 0.375000 0.034626 0.375000
#
# Coordination Sequence:
#
# PCOD8286427 Si02
#       8
#    16  32  32  32  32  32   8  32
#     4  10  25  46  69  98 134 177 234 283 340 420
#     4  10  22  44  68 102 143 174 230 294 343 421
#     4  12  26  50  72  97 139 187 232 289 356 418
#     4  12  23  43  67 104 143 180 235 289 338 424
#     4  12  26  43  70  99 142 183 233 282 347 416
#     4  12  23  42  72 101 142 187 229 284 359 407
#     4  12  24  52  58  98 136 194 216 276 346 418
#     4  12  24  44  73 101 138 183 229 290 357 407
#
# _framework density 21.036473999999998
#
# number of rings (size 3 to 8) (size 9 to 14) (size 15 to 20)
#    0.444    0.000    6.667    2.000    4.148    0.000 
#    5.333    1.481    0.000    0.000    0.000    0.000 
#    0.000    0.000    0.000    0.000    0.000    0.000 
#
# Total GULP energy -669366.129700 kJ/mol
# GULP energy per Si atom -12395.669069 kJ/mol
# Density = 2.098859 g / cm^3
# Si number density = 21.036474 Si / 1000 Ang^3
#
#
#
# Elastic Constant Matrix: (Units=GPa)
#
#
# Indices 1 2 3 4 5 6 
#
# 1 148.3912 37.5074 61.6704 0.0000 0.0000 0.0000
# 2 37.5074 104.8483 56.1291 0.0000 0.0000 0.0000
# 3 61.6704 56.1291 154.1301 0.0000 0.0000 0.0000
# 4 0.0000 0.0000 0.0000 1643.7305 0.0000 0.0000
# 5 0.0000 0.0000 0.0000 0.0000 31.8586 0.0000
# 6 0.0000 0.0000 0.0000 0.0000 0.0000 -6.2277
#
#
#
# Elastic Compliance Matrix: (Units=1/GPa)
#
#
# Indices 1 2 3 4 5 6 
#
# 1 0.008262 -0.001473 -0.002769 0.000000 0.000000 0.000000
# 2 -0.001473 0.012110 -0.003821 0.000000 0.000000 0.000000
# 3 -0.002769 -0.003821 0.008987 0.000000 0.000000 0.000000
# 4 0.000000 0.000000 0.000000 0.000608 0.000000 0.000000
# 5 0.000000 0.000000 0.000000 0.000000 0.031389 0.000000
# 6 0.000000 0.000000 0.000000 0.000000 0.000000 -0.160573
#
#
# Mechanical properties :
#
#
# Convention : Reuss Voigt Hill
#
# Bulk Modulus (GPa) = 75.56670 79.77591 77.67130
# Shear Modulus (GPa) = -63.54969 350.67646 143.56339
#
# Velocity S-wave (km/s) = -5.50226 12.92521 8.27001
# Velocity P-wave (km/s) = 2.08968 16.14785 11.32224
#
# Compressibility (1/GPa) = 0.01323334
#
# Stress axis : x y z
#
# Youngs Moduli (GPa) = 121.03259 82.57733 111.26613
#
# Poissons Ratio (x) = 0.12164 0.30814
# Poissons Ratio (y) = 0.17829 0.42510
# Poissons Ratio (z) = 0.33519 0.31550
#
# Static dielectric constant tensor:
#      x y z
#    x 3.844340 0.000000 0.000000 
#    y 0.000000 3.896680 0.000000 
#    z 0.000000 0.000000 3.713230 
# 
# 
# High freq. dielectric constant tensor:
#      x y z
#    x 1.836230 0.000000 0.000000 
#    y 0.000000 1.824060 0.000000 
#    z 0.000000 0.000000 1.822720 
# 
# From -- ./inp_files/58801.got.cif
#   From: 2010.03.12/outbox.cif.g09.slc.cpg/sg70_30_cif.got.tgz:58801.got - 2010.04.16 13:46:32.
