data_PCOD8286374
_publ_section_title
;
Structure prediction by ZEFSAII (Michael W. Deem and Ramdas Pophale) SiO2 
 PCOD8286374
Probable space group: F D D D
;
_chemical_formula_sum "Si O2"
_cell_formula_units_Z 240
_cell_length_a 28.845517
_cell_length_b 18.677706
_cell_length_c 22.149533
_cell_angle_alpha 90.000000
_cell_angle_beta 90.000000
_cell_angle_gamma 90.000000
_cell_volume 11933.461499
_symmetry_space_group_name_H-M "F D D D"
_symmetry_group_IT_number 70
_space_group.IT_coordinate_system_code '2'
_symmetry_cell_setting 'orthorhombic'
loop_
_space_group_symop_operation_xyz
x,y,z
1/4-x,1/4-y,z
x,1/4-y,1/4-z
1/4-x,y,1/4-z
-x,-y,-z
3/4+x,3/4+y,-z
-x,3/4+y,3/4+z
3/4+x,-y,3/4+z
x,1/2+y,1/2+z
1/4-x,3/4-y,1/2+z
x,3/4-y,3/4-z
1/4-x,1/2+y,3/4-z
-x,1/2-y,1/2-z
3/4+x,1/4+y,1/2-z
-x,1/4+y,1/4+z
3/4+x,1/2-y,1/4+z
1/2+x,y,1/2+z
3/4-x,1/4-y,1/2+z
1/2+x,1/4-y,3/4-z
3/4-x,y,3/4-z
1/2-x,-y,1/2-z
1/4+x,3/4+y,1/2-z
1/2-x,3/4+y,1/4+z
1/4+x,-y,1/4+z
1/2+x,1/2+y,z
3/4-x,3/4-y,z
1/2+x,3/4-y,1/4-z
3/4-x,1/2+y,1/4-z
1/2-x,1/2-y,-z
1/4+x,1/4+y,-z
1/2-x,1/4+y,3/4+z
1/4+x,1/2-y,3/4+z
loop_
_atom_site_type_symbol
_atom_site_label
_atom_site_fract_x
_atom_site_fract_y
_atom_site_fract_z
Si Si1 0.535170 0.802330 0.028251
Si Si2 0.289153 0.547317 0.113317
Si Si3 0.521673 0.318616 0.716356
Si Si4 0.273278 0.857174 0.105051
Si Si5 0.378311 0.110569 0.441575
Si Si6 0.872962 0.717728 0.198823
Si Si7 0.625000 0.125000 0.317232
Si Si8 0.227932 0.925010 0.428870
O O1 0.502394 0.872053 0.041893
O O2 0.585909 0.806438 0.055784
O O3 0.512132 0.740711 0.067546
O O4 0.542414 0.787505 0.958055
O O5 0.264587 0.625000 0.125000
O O6 0.260890 0.477304 0.135800
O O7 0.338471 0.549650 0.148259
O O8 0.500000 0.250000 0.750000
O O9 0.495123 0.338503 0.655623
O O10 0.576379 0.311583 0.702351
O O11 0.516802 0.387007 0.757863
O O12 0.328568 0.869193 0.107321
O O13 0.375000 0.146577 0.375000
O O14 0.370230 0.172192 0.490962
O O15 0.873210 0.801094 0.220859
O O16 0.824426 0.700854 0.166512
O O17 0.244918 0.875000 0.375000
#
# Coordination Sequence:
#
# PCOD8286374 Si02
#       8
#    32  32  32  32  32  32  16  32
#     4  12  23  43  66 100 138 173 228 287 339 410
#     4  11  23  42  66  99 131 175 231 278 339 402
#     4  11  24  42  66  98 131 177 225 276 343 411
#     4  11  23  42  66  96 134 173 224 282 343 399
#     4  11  24  42  69  92 138 182 223 273 348 412
#     4  10  22  42  68  97 128 177 232 274 333 414
#     4  10  22  40  69  96 131 168 226 288 330 392
#     4  11  23  40  69  94 133 176 224 279 336 414
#
# _framework density 20.111516000000002
#
# number of rings (size 3 to 8) (size 9 to 14) (size 15 to 20)
#    0.000    1.067    5.333    1.200    1.867    1.600 
#    0.000    0.333    0.000    0.000    0.000    0.000 
#    0.000    0.000    0.000    0.000    0.000    0.000 
#
# Total GULP energy -743473.508433 kJ/mol
# GULP energy per Si atom -12391.225141 kJ/mol
# Density = 2.006574 g / cm^3
# Si number density = 20.111516 Si / 1000 Ang^3
#
#
#
# Elastic Constant Matrix: (Units=GPa)
#
#
# Indices 1 2 3 4 5 6 
#
# 1 124.5257 54.8324 50.8212 0.0000 0.0000 0.0000
# 2 54.8324 144.3038 49.6423 0.0000 0.0000 0.0000
# 3 50.8212 49.6423 122.8558 0.0000 0.0000 0.0000
# 4 0.0000 0.0000 0.0000 19.7271 0.0000 0.0000
# 5 0.0000 0.0000 0.0000 0.0000 20.9407 0.0000
# 6 0.0000 0.0000 0.0000 0.0000 0.0000 23.2022
#
#
#
# Elastic Compliance Matrix: (Units=1/GPa)
#
#
# Indices 1 2 3 4 5 6 
#
# 1 0.010634 -0.002936 -0.003213 0.000000 0.000000 0.000000
# 2 -0.002936 0.008859 -0.002365 0.000000 0.000000 0.000000
# 3 -0.003213 -0.002365 0.010424 0.000000 0.000000 0.000000
# 4 0.000000 0.000000 0.000000 0.050692 0.000000 0.000000
# 5 0.000000 0.000000 0.000000 0.000000 0.047754 0.000000
# 6 0.000000 0.000000 0.000000 0.000000 0.000000 0.043099
#
#
# Mechanical properties :
#
#
# Convention : Reuss Voigt Hill
#
# Bulk Modulus (GPa) = 77.57807 78.03080 77.80444
# Shear Modulus (GPa) = 25.93540 28.53330 27.23435
#
# Velocity S-wave (km/s) = 3.59497 3.77072 3.68389
# Velocity P-wave (km/s) = 7.47592 7.60533 7.54091
#
# Compressibility (1/GPa) = 0.01289024
#
# Stress axis : x y z
#
# Youngs Moduli (GPa) = 94.03518 112.88001 95.92851
#
# Poissons Ratio (x) = 0.33136 0.30821
# Poissons Ratio (y) = 0.27604 0.22690
# Poissons Ratio (z) = 0.30212 0.26700
#
# Static dielectric constant tensor:
#      x y z
#    x 3.846840 0.000000 0.000000 
#    y 0.000000 4.021080 0.000000 
#    z 0.000000 0.000000 3.826020 
# 
# 
# High freq. dielectric constant tensor:
#      x y z
#    x 1.783560 0.000000 0.000000 
#    y 0.000000 1.793900 0.000000 
#    z 0.000000 0.000000 1.785440 
# 
# From -- ./inp_files/47113.got.cif
#   From: 2010.03.12/outbox.cif.g09.slc.cpg/sg70_24_cif.got.tgz:47113.got - 2010.04.16 13:46:32.
