data_PCOD8286785
_publ_section_title
;
Structure prediction by ZEFSAII (Michael W. Deem and Ramdas Pophale) SiO2 
 PCOD8286785
Probable space group: F D D D
;
_chemical_formula_sum "Si O2"
_cell_formula_units_Z 112
_cell_length_a 26.495204
_cell_length_b 19.426055
_cell_length_c 9.701564
_cell_angle_alpha 90.000000
_cell_angle_beta 90.000000
_cell_angle_gamma 90.000000
_cell_volume 4993.368701
_symmetry_space_group_name_H-M "F D D D"
_symmetry_group_IT_number 70
_space_group.IT_coordinate_system_code '2'
_symmetry_cell_setting 'orthorhombic'
loop_
_space_group_symop_operation_xyz
x,y,z
1/4-x,1/4-y,z
x,1/4-y,1/4-z
1/4-x,y,1/4-z
-x,-y,-z
3/4+x,3/4+y,-z
-x,3/4+y,3/4+z
3/4+x,-y,3/4+z
x,1/2+y,1/2+z
1/4-x,3/4-y,1/2+z
x,3/4-y,3/4-z
1/4-x,1/2+y,3/4-z
-x,1/2-y,1/2-z
3/4+x,1/4+y,1/2-z
-x,1/4+y,1/4+z
3/4+x,1/2-y,1/4+z
1/2+x,y,1/2+z
3/4-x,1/4-y,1/2+z
1/2+x,1/4-y,3/4-z
3/4-x,y,3/4-z
1/2-x,-y,1/2-z
1/4+x,3/4+y,1/2-z
1/2-x,3/4+y,1/4+z
1/4+x,-y,1/4+z
1/2+x,1/2+y,z
3/4-x,3/4-y,z
1/2+x,3/4-y,1/4-z
3/4-x,1/2+y,1/4-z
1/2-x,1/2-y,-z
1/4+x,1/4+y,-z
1/2-x,1/4+y,3/4+z
1/4+x,1/2-y,3/4+z
loop_
_atom_site_type_symbol
_atom_site_label
_atom_site_fract_x
_atom_site_fract_y
_atom_site_fract_z
Si Si1 0.527286 0.267970 0.053111
Si Si2 0.430274 0.549007 0.583606
Si Si3 0.902215 0.806653 0.652721
Si Si4 0.783059 0.875000 0.875000
O O1 0.568448 0.291811 0.167089
O O2 0.486036 0.218094 0.117117
O O3 0.554435 0.218434 0.947142
O O4 0.502592 0.334948 0.982197
O O5 0.414102 0.625000 0.625000
O O6 0.390648 0.501003 0.663412
O O7 0.875000 0.875000 0.594389
O O8 0.929655 0.821500 0.798349
#
# Coordination Sequence:
#
# PCOD8286785 Si02
#       4
#    32  32  32  16
#     4  11  26  47  75 107 146 197 249 309 381 445
#     4  11  26  47  72 108 149 190 252 307 375 454
#     4  12  26  48  75 107 149 197 251 310 381 453
#     4  12  25  52  76 110 146 198 252 318 375 454
#
# _framework density 22.429748
#
# number of rings (size 3 to 8) (size 9 to 14) (size 15 to 20)
#    0.000    0.571    2.857    3.857    6.000    1.143 
#    5.143    0.000    0.000    0.000    0.000    0.000 
#    0.000    0.000    0.000    0.000    0.000    0.000 
#
# Total GULP energy -347273.985057 kJ/mol
# GULP energy per Si atom -12402.642323 kJ/mol
# Density = 2.237870 g / cm^3
# Si number density = 22.429748 Si / 1000 Ang^3
#
#
#
# Elastic Constant Matrix: (Units=GPa)
#
#
# Indices 1 2 3 4 5 6 
#
# 1 111.4503 50.4363 45.0856 -0.0001 0.0000 0.0000
# 2 50.4363 160.7518 47.0191 -0.0001 -0.0001 0.0000
# 3 45.0856 47.0191 123.1217 -0.0004 -0.0001 0.0001
# 4 -0.0001 -0.0001 -0.0004 42.7143 -0.0001 0.0000
# 5 0.0000 -0.0001 -0.0001 -0.0001 57.4967 0.0000
# 6 0.0000 0.0000 0.0001 0.0000 0.0000 50.8288
#
#
#
# Elastic Compliance Matrix: (Units=1/GPa)
#
#
# Indices 1 2 3 4 5 6 
#
# 1 0.011466 -0.002667 -0.003180 0.000000 0.000000 0.000000
# 2 -0.002667 0.007624 -0.001935 0.000000 0.000000 0.000000
# 3 -0.003180 -0.001935 0.010025 0.000000 0.000000 0.000000
# 4 0.000000 0.000000 0.000000 0.023411 0.000000 0.000000
# 5 0.000000 0.000000 0.000000 0.000000 0.017392 0.000000
# 6 0.000000 0.000000 0.000000 0.000000 0.000000 0.019674
#
#
# Mechanical properties :
#
#
# Convention : Reuss Voigt Hill
#
# Bulk Modulus (GPa) = 73.79589 75.60064 74.69827
# Shear Modulus (GPa) = 45.58975 47.06015 46.32495
#
# Velocity S-wave (km/s) = 4.51328 4.58549 4.54953
# Velocity P-wave (km/s) = 7.75448 7.86221 7.80853
#
# Compressibility (1/GPa) = 0.01355089
#
# Stress axis : x y z
#
# Youngs Moduli (GPa) = 87.21294 131.17296 99.74689
#
# Poissons Ratio (x) = 0.34989 0.31721
# Poissons Ratio (y) = 0.23263 0.19297
# Poissons Ratio (z) = 0.27735 0.25377
#
# Static dielectric constant tensor:
#      x y z
#    x 4.235870 0.000000 0.000000 
#    y 0.000000 4.952170 0.000010 
#    z 0.000000 0.000010 4.902980 
# 
# 
# High freq. dielectric constant tensor:
#      x y z
#    x 1.902900 0.000000 0.000000 
#    y 0.000000 1.886710 0.000000 
#    z 0.000000 0.000000 1.889350 
# 
# From -- ./inp_files/10692.got.cif
#   From: 2010.03.12/outbox.cif.g09.slc.cpg/sg70_6_cif.got.tgz:10692.got - 2010.04.16 13:46:32.
