data_PCOD8286365
_publ_section_title
;
Structure prediction by ZEFSAII (Michael W. Deem and Ramdas Pophale) SiO2 
 PCOD8286365
Probable space group: F D D D
;
_chemical_formula_sum "Si O2"
_cell_formula_units_Z 160
_cell_length_a 25.233441
_cell_length_b 21.915841
_cell_length_c 13.562756
_cell_angle_alpha 90.000000
_cell_angle_beta 90.000000
_cell_angle_gamma 90.000000
_cell_volume 7500.367917
_symmetry_space_group_name_H-M "F D D D"
_symmetry_group_IT_number 70
_space_group.IT_coordinate_system_code '2'
_symmetry_cell_setting 'orthorhombic'
loop_
_space_group_symop_operation_xyz
x,y,z
1/4-x,1/4-y,z
x,1/4-y,1/4-z
1/4-x,y,1/4-z
-x,-y,-z
3/4+x,3/4+y,-z
-x,3/4+y,3/4+z
3/4+x,-y,3/4+z
x,1/2+y,1/2+z
1/4-x,3/4-y,1/2+z
x,3/4-y,3/4-z
1/4-x,1/2+y,3/4-z
-x,1/2-y,1/2-z
3/4+x,1/4+y,1/2-z
-x,1/4+y,1/4+z
3/4+x,1/2-y,1/4+z
1/2+x,y,1/2+z
3/4-x,1/4-y,1/2+z
1/2+x,1/4-y,3/4-z
3/4-x,y,3/4-z
1/2-x,-y,1/2-z
1/4+x,3/4+y,1/2-z
1/2-x,3/4+y,1/4+z
1/4+x,-y,1/4+z
1/2+x,1/2+y,z
3/4-x,3/4-y,z
1/2+x,3/4-y,1/4-z
3/4-x,1/2+y,1/4-z
1/2-x,1/2-y,-z
1/4+x,1/4+y,-z
1/2-x,1/4+y,3/4+z
1/4+x,1/2-y,3/4+z
loop_
_atom_site_type_symbol
_atom_site_label
_atom_site_fract_x
_atom_site_fract_y
_atom_site_fract_z
Si Si1 0.789503 0.375000 0.875000
Si Si2 0.036808 0.912270 0.779882
Si Si3 0.895428 0.753475 0.643820
Si Si4 0.068050 0.297149 0.169099
Si Si5 0.278976 0.731601 0.217258
Si Si6 0.875000 0.875000 0.216324
O O1 0.754997 0.316173 0.846019
O O2 0.826015 0.396707 0.783919
O O3 0.013589 0.875000 0.875000
O O4 0.083657 0.958401 0.809573
O O5 0.063050 0.866208 0.703857
O O6 0.992846 0.949070 0.716581
O O7 0.935781 0.749674 0.737766
O O8 0.837560 0.729619 0.673869
O O9 0.894585 0.821486 0.604266
O O10 0.125000 0.285955 0.125000
O O11 0.024977 0.284773 0.084110
#
# Coordination Sequence:
#
# PCOD8286365 Si02
#       6
#    16  32  32  32  32  16
#     4  11  26  42  62  98 134 178 216 270 337 416
#     4  10  22  40  64  94 126 170 215 272 331 393
#     4  10  23  42  66  94 129 175 214 278 335 394
#     4   9  22  41  64  92 127 166 222 276 324 397
#     4  11  24  41  65  98 128 171 226 267 337 409
#     4  11  24  46  63  92 146 168 219 280 336 405
#
# _framework density 21.332286
#
# number of rings (size 3 to 8) (size 9 to 14) (size 15 to 20)
#    0.000    1.800    2.000    0.000    9.800    7.200 
#    0.000    3.500    0.000    0.000    0.000    0.000 
#    0.000    0.000    0.000    0.000    0.000    0.000 
#
# Total GULP energy -495919.935461 kJ/mol
# GULP energy per Si atom -12397.998387 kJ/mol
# Density = 2.128373 g / cm^3
# Si number density = 21.332286 Si / 1000 Ang^3
#
#
#
# Elastic Constant Matrix: (Units=GPa)
#
#
# Indices 1 2 3 4 5 6 
#
# 1 52.1177 15.0464 24.2017 0.0000 0.0000 0.0000
# 2 15.0464 128.8071 55.4743 0.0000 0.0000 0.0000
# 3 24.2017 55.4743 100.3898 0.0000 0.0000 0.0000
# 4 0.0000 0.0000 0.0000 40.8395 0.0000 0.0000
# 5 0.0000 0.0000 0.0000 0.0000 10.4592 0.0000
# 6 0.0000 0.0000 0.0000 0.0000 0.0000 16.0134
#
#
#
# Elastic Compliance Matrix: (Units=1/GPa)
#
#
# Indices 1 2 3 4 5 6 
#
# 1 0.021619 -0.000368 -0.005008 0.000000 0.000000 0.000000
# 2 -0.000368 0.010194 -0.005545 0.000000 0.000000 0.000000
# 3 -0.005008 -0.005545 0.014232 0.000000 0.000000 0.000000
# 4 0.000000 0.000000 0.000000 0.024486 0.000000 0.000000
# 5 0.000000 0.000000 0.000000 0.000000 0.095609 0.000000
# 6 0.000000 0.000000 0.000000 0.000000 0.000000 0.062448
#
#
# Mechanical properties :
#
#
# Convention : Reuss Voigt Hill
#
# Bulk Modulus (GPa) = 41.31608 52.30660 46.81134
# Shear Modulus (GPa) = 19.34238 25.90193 22.62215
#
# Velocity S-wave (km/s) = 3.01444 3.48834 3.26001
# Velocity P-wave (km/s) = 5.61478 6.38732 6.01347
#
# Compressibility (1/GPa) = 0.02420365
#
# Stress axis : x y z
#
# Youngs Moduli (GPa) = 46.25473 98.09215 70.26215
#
# Poissons Ratio (x) = 0.03614 0.35190
# Poissons Ratio (y) = 0.01704 0.38957
# Poissons Ratio (z) = 0.23166 0.54388
#
# Static dielectric constant tensor:
#      x y z
#    x 3.909890 0.000000 0.000000 
#    y 0.000000 3.765000 0.000000 
#    z 0.000000 0.000000 4.317300 
# 
# 
# High freq. dielectric constant tensor:
#      x y z
#    x 1.838780 0.000000 0.000000 
#    y 0.000000 1.834380 0.000000 
#    z 0.000000 0.000000 1.846740 
# 
# From -- ./inp_files/29952.got.cif
#   From: 2010.03.12/outbox.cif.g09.slc.cpg/sg70_15_cif.got.tgz:29952.got - 2010.04.16 13:46:32.
