data_PCOD8286691
_publ_section_title
;
Structure prediction by ZEFSAII (Michael W. Deem and Ramdas Pophale) SiO2 
 PCOD8286691
Probable space group: F D D D
;
_chemical_formula_sum "Si O2"
_cell_formula_units_Z 136
_cell_length_a 21.065848
_cell_length_b 11.586451
_cell_length_c 26.358176
_cell_angle_alpha 90.000000
_cell_angle_beta 90.000000
_cell_angle_gamma 90.000000
_cell_volume 6433.461837
_symmetry_space_group_name_H-M "F D D D"
_symmetry_group_IT_number 70
_space_group.IT_coordinate_system_code '2'
_symmetry_cell_setting 'orthorhombic'
loop_
_space_group_symop_operation_xyz
x,y,z
1/4-x,1/4-y,z
x,1/4-y,1/4-z
1/4-x,y,1/4-z
-x,-y,-z
3/4+x,3/4+y,-z
-x,3/4+y,3/4+z
3/4+x,-y,3/4+z
x,1/2+y,1/2+z
1/4-x,3/4-y,1/2+z
x,3/4-y,3/4-z
1/4-x,1/2+y,3/4-z
-x,1/2-y,1/2-z
3/4+x,1/4+y,1/2-z
-x,1/4+y,1/4+z
3/4+x,1/2-y,1/4+z
1/2+x,y,1/2+z
3/4-x,1/4-y,1/2+z
1/2+x,1/4-y,3/4-z
3/4-x,y,3/4-z
1/2-x,-y,1/2-z
1/4+x,3/4+y,1/2-z
1/2-x,3/4+y,1/4+z
1/4+x,-y,1/4+z
1/2+x,1/2+y,z
3/4-x,3/4-y,z
1/2+x,3/4-y,1/4-z
3/4-x,1/2+y,1/4-z
1/2-x,1/2-y,-z
1/4+x,1/4+y,-z
1/2-x,1/4+y,3/4+z
1/4+x,1/2-y,3/4+z
loop_
_atom_site_type_symbol
_atom_site_label
_atom_site_fract_x
_atom_site_fract_y
_atom_site_fract_z
Si Si1 0.056996 0.572590 0.935907
Si Si2 0.524661 0.311474 0.087109
Si Si3 0.537009 0.907192 0.763729
Si Si4 0.616400 0.991237 0.566034
Si Si5 0.625000 0.625000 0.625000
O O1 0.125000 0.625000 0.921591
O O2 0.063486 0.437208 0.946938
O O3 0.007682 0.593692 0.890332
O O4 0.030606 0.627463 0.988080
O O5 0.470716 0.269827 0.048196
O O6 0.548432 0.429315 0.058989
O O7 0.579135 0.210928 0.092461
O O8 0.585255 0.921571 0.718004
O O9 0.625000 0.965374 0.625000
O O10 0.625000 0.125000 0.552681
#
# Coordination Sequence:
#
# PCOD8286691 Si02
#       5
#    32  32  32  32   8
#     4  11  23  40  64 102 141 168 224 297 355 411
#     4  12  23  42  70 101 135 182 232 292 351 416
#     4  11  23  41  67 102 129 181 236 280 350 415
#     4  11  24  44  66  93 137 186 228 275 343 429
#     4  12  20  40  70 104 136 176 228 296 348 416
#
# _framework density 21.139474
#
# number of rings (size 3 to 8) (size 9 to 14) (size 15 to 20)
#    0.000    0.706    5.882    1.412    4.941    1.882 
#    0.000    4.706    0.000    0.000    0.000    0.000 
#    0.000    0.000    0.000    0.000    0.000    0.000 
#
# Total GULP energy -421308.322997 kJ/mol
# GULP energy per Si atom -12391.421265 kJ/mol
# Density = 2.109136 g / cm^3
# Si number density = 21.139474 Si / 1000 Ang^3
#
#
#
# Elastic Constant Matrix: (Units=GPa)
#
#
# Indices 1 2 3 4 5 6 
#
# 1 109.6484 55.3232 41.5362 0.0000 0.0000 0.0000
# 2 55.3232 131.5103 34.3827 0.0000 0.0000 0.0000
# 3 41.5362 34.3827 70.8728 0.0000 0.0000 0.0000
# 4 0.0000 0.0000 0.0000 19.9930 0.0000 0.0000
# 5 0.0000 0.0000 0.0000 0.0000 42.9076 0.0000
# 6 0.0000 0.0000 0.0000 0.0000 0.0000 28.4496
#
#
#
# Elastic Compliance Matrix: (Units=1/GPa)
#
#
# Indices 1 2 3 4 5 6 
#
# 1 0.013417 -0.004110 -0.005870 0.000000 0.000000 0.000000
# 2 -0.004110 0.009967 -0.002427 0.000000 0.000000 0.000000
# 3 -0.005870 -0.002427 0.018727 0.000000 0.000000 0.000000
# 4 0.000000 0.000000 0.000000 0.050017 0.000000 0.000000
# 5 0.000000 0.000000 0.000000 0.000000 0.023306 0.000000
# 6 0.000000 0.000000 0.000000 0.000000 0.000000 0.035150
#
#
# Mechanical properties :
#
#
# Convention : Reuss Voigt Hill
#
# Bulk Modulus (GPa) = 57.80618 63.83507 60.82062
# Shear Modulus (GPa) = 27.59939 30.32268 28.96103
#
# Velocity S-wave (km/s) = 3.61721 3.79147 3.70536
# Velocity P-wave (km/s) = 6.69702 7.03062 6.86585
#
# Compressibility (1/GPa) = 0.01729919
#
# Stress axis : x y z
#
# Youngs Moduli (GPa) = 74.53203 100.32792 53.39845
#
# Poissons Ratio (x) = 0.41231 0.31343
# Poissons Ratio (y) = 0.30630 0.12959
# Poissons Ratio (z) = 0.43747 0.24349
#
# Static dielectric constant tensor:
#      x y z
#    x 3.690110 0.000000 0.000000 
#    y 0.000000 3.892130 0.000000 
#    z 0.000000 0.000000 3.744550 
# 
# 
# High freq. dielectric constant tensor:
#      x y z
#    x 1.813110 0.000000 0.000000 
#    y 0.000000 1.827220 0.000000 
#    z 0.000000 0.000000 1.836270 
# 
# From -- ./inp_files/17661.got.cif
#   From: 2010.03.12/outbox.cif.g09.slc.cpg/sg70_9_cif.got.tgz:17661.got - 2010.04.16 13:46:32.
