data_PCOD8286307
_publ_section_title
;
Structure prediction by ZEFSAII (Michael W. Deem and Ramdas Pophale) SiO2 
 PCOD8286307
Probable space group: F D D D
;
_chemical_formula_sum "Si O2"
_cell_formula_units_Z 168
_cell_length_a 14.324808
_cell_length_b 21.217168
_cell_length_c 27.534917
_cell_angle_alpha 90.000000
_cell_angle_beta 90.000000
_cell_angle_gamma 90.000000
_cell_volume 8368.738481
_symmetry_space_group_name_H-M "F D D D"
_symmetry_group_IT_number 70
_space_group.IT_coordinate_system_code '2'
_symmetry_cell_setting 'orthorhombic'
loop_
_space_group_symop_operation_xyz
x,y,z
1/4-x,1/4-y,z
x,1/4-y,1/4-z
1/4-x,y,1/4-z
-x,-y,-z
3/4+x,3/4+y,-z
-x,3/4+y,3/4+z
3/4+x,-y,3/4+z
x,1/2+y,1/2+z
1/4-x,3/4-y,1/2+z
x,3/4-y,3/4-z
1/4-x,1/2+y,3/4-z
-x,1/2-y,1/2-z
3/4+x,1/4+y,1/2-z
-x,1/4+y,1/4+z
3/4+x,1/2-y,1/4+z
1/2+x,y,1/2+z
3/4-x,1/4-y,1/2+z
1/2+x,1/4-y,3/4-z
3/4-x,y,3/4-z
1/2-x,-y,1/2-z
1/4+x,3/4+y,1/2-z
1/2-x,3/4+y,1/4+z
1/4+x,-y,1/4+z
1/2+x,1/2+y,z
3/4-x,3/4-y,z
1/2+x,3/4-y,1/4-z
3/4-x,1/2+y,1/4-z
1/2-x,1/2-y,-z
1/4+x,1/4+y,-z
1/2-x,1/4+y,3/4+z
1/4+x,1/2-y,3/4+z
loop_
_atom_site_type_symbol
_atom_site_label
_atom_site_fract_x
_atom_site_fract_y
_atom_site_fract_z
Si Si1 0.321867 0.993854 0.329069
Si Si2 0.531055 0.762067 0.997771
Si Si3 0.875000 0.875000 0.875000
Si Si4 0.593073 0.506429 0.445178
Si Si5 0.627032 0.050385 0.837397
Si Si6 0.775883 0.352199 0.980418
O O1 0.375000 0.027376 0.375000
O O2 0.307152 0.919673 0.342610
O O3 0.383700 0.994390 0.281510
O O4 0.225818 0.027800 0.316240
O O5 0.434073 0.740937 0.022390
O O6 0.537255 0.836894 0.989308
O O7 0.543723 0.725023 0.946882
O O8 0.619026 0.521247 0.390547
O O9 0.525606 0.445603 0.444007
O O10 0.541060 0.566887 0.468048
O O11 0.625000 0.125000 0.839666
O O12 0.875000 0.375000 0.957904
#
# Coordination Sequence:
#
# PCOD8286307 Si02
#       6
#    32  32   8  32  32  32
#     4  10  22  41  62  94 129 176 215 275 332 394
#     4  11  23  39  65  95 129 175 215 277 332 397
#     4   8  20  36  68  80 120 188 210 262 348 380
#     4  10  21  44  65  94 134 172 213 280 332 394
#     4  12  26  40  64  99 132 171 226 275 334 410
#     4   9  21  42  69  91 128 174 217 266 337 393
#
# _framework density 20.07471
#
# number of rings (size 3 to 8) (size 9 to 14) (size 15 to 20)
#    0.571    1.143    1.905    2.286    4.000    3.810 
#    0.000   11.429    0.000    0.000    0.000    0.000 
#    0.000    0.000    0.000    0.000    0.000    0.000 
#
# Total GULP energy -520732.957825 kJ/mol
# GULP energy per Si atom -12398.403758 kJ/mol
# Density = 2.002902 g / cm^3
# Si number density = 20.074710 Si / 1000 Ang^3
#
#
#
# Elastic Constant Matrix: (Units=GPa)
#
#
# Indices 1 2 3 4 5 6 
#
# 1 92.5355 65.9802 39.8873 0.0000 0.0000 0.0000
# 2 65.9802 139.1703 36.0444 0.0000 0.0000 0.0000
# 3 39.8873 36.0444 90.4598 0.0000 0.0000 0.0000
# 4 0.0000 0.0000 0.0000 13.3726 0.0000 0.0000
# 5 0.0000 0.0000 0.0000 0.0000 28.2947 0.0000
# 6 0.0000 0.0000 0.0000 0.0000 0.0000 30.7782
#
#
#
# Elastic Compliance Matrix: (Units=1/GPa)
#
#
# Indices 1 2 3 4 5 6 
#
# 1 0.018232 -0.007317 -0.005124 0.000000 0.000000 0.000000
# 2 -0.007317 0.010949 -0.001136 0.000000 0.000000 0.000000
# 3 -0.005124 -0.001136 0.013767 0.000000 0.000000 0.000000
# 4 0.000000 0.000000 0.000000 0.074780 0.000000 0.000000
# 5 0.000000 0.000000 0.000000 0.000000 0.035342 0.000000
# 6 0.000000 0.000000 0.000000 0.000000 0.000000 0.032490
#
#
# Mechanical properties :
#
#
# Convention : Reuss Voigt Hill
#
# Bulk Modulus (GPa) = 63.31658 67.33215 65.32436
# Shear Modulus (GPa) = 22.93795 26.50601 24.72198
#
# Velocity S-wave (km/s) = 3.38395 3.63763 3.51308
# Velocity P-wave (km/s) = 6.84668 7.15938 7.00478
#
# Compressibility (1/GPa) = 0.01579365
#
# Stress axis : x y z
#
# Youngs Moduli (GPa) = 54.84722 91.33564 72.63883
#
# Poissons Ratio (x) = 0.66829 0.37220
# Poissons Ratio (y) = 0.40131 0.08254
# Poissons Ratio (z) = 0.28103 0.10378
#
# Static dielectric constant tensor:
#      x y z
#    x 3.814830 0.000000 0.000000 
#    y 0.000000 3.819330 0.000000 
#    z 0.000000 0.000000 3.543070 
# 
# 
# High freq. dielectric constant tensor:
#      x y z
#    x 1.779110 0.000000 0.000000 
#    y 0.000000 1.789290 0.000000 
#    z 0.000000 0.000000 1.776360 
# 
# From -- ./inp_files/53638.got.cif
#   From: 2010.03.12/outbox.cif.g09.slc.cpg/sg70_27_cif.got.tgz:53638.got - 2010.04.16 13:46:32.
