data_PCOD8286687
_publ_section_title
;
Structure prediction by ZEFSAII (Michael W. Deem and Ramdas Pophale) SiO2 
 PCOD8286687
Probable space group: F D D D
;
_chemical_formula_sum "Si O2"
_cell_formula_units_Z 160
_cell_length_a 31.053986
_cell_length_b 29.244103
_cell_length_c 7.728494
_cell_angle_alpha 90.000000
_cell_angle_beta 90.000000
_cell_angle_gamma 90.000000
_cell_volume 7018.600643
_symmetry_space_group_name_H-M "F D D D"
_symmetry_group_IT_number 70
_space_group.IT_coordinate_system_code '2'
_symmetry_cell_setting 'orthorhombic'
loop_
_space_group_symop_operation_xyz
x,y,z
1/4-x,1/4-y,z
x,1/4-y,1/4-z
1/4-x,y,1/4-z
-x,-y,-z
3/4+x,3/4+y,-z
-x,3/4+y,3/4+z
3/4+x,-y,3/4+z
x,1/2+y,1/2+z
1/4-x,3/4-y,1/2+z
x,3/4-y,3/4-z
1/4-x,1/2+y,3/4-z
-x,1/2-y,1/2-z
3/4+x,1/4+y,1/2-z
-x,1/4+y,1/4+z
3/4+x,1/2-y,1/4+z
1/2+x,y,1/2+z
3/4-x,1/4-y,1/2+z
1/2+x,1/4-y,3/4-z
3/4-x,y,3/4-z
1/2-x,-y,1/2-z
1/4+x,3/4+y,1/2-z
1/2-x,3/4+y,1/4+z
1/4+x,-y,1/4+z
1/2+x,1/2+y,z
3/4-x,3/4-y,z
1/2+x,3/4-y,1/4-z
3/4-x,1/2+y,1/4-z
1/2-x,1/2-y,-z
1/4+x,1/4+y,-z
1/2-x,1/4+y,3/4+z
1/4+x,1/2-y,3/4+z
loop_
_atom_site_type_symbol
_atom_site_label
_atom_site_fract_x
_atom_site_fract_y
_atom_site_fract_z
Si Si1 0.625000 0.004904 0.125000
Si Si2 0.532345 0.841426 0.227999
Si Si3 0.235889 0.375000 0.375000
Si Si4 0.214225 0.709788 0.985330
Si Si5 0.844531 0.014627 0.728045
Si Si6 0.440295 0.325579 0.857752
O O1 0.615671 0.974168 0.293115
O O2 0.669023 0.032228 0.165885
O O3 0.551489 0.875000 0.375000
O O4 0.549450 0.790303 0.255337
O O5 0.481183 0.837792 0.240148
O O6 0.544097 0.861726 0.038967
O O7 0.266154 0.333194 0.420782
O O8 0.204381 0.699046 0.785125
O O9 0.250000 0.750000 0.000000
O O10 0.875000 0.035492 0.875000
O O11 0.839682 0.959703 0.752007
O O12 0.416141 0.375000 0.875000
#
# Coordination Sequence:
#
# PCOD8286687 Si02
#       6
#    16  32  16  32  32  32
#     4  12  28  45  76 106 144 196 246 300 381 444
#     4  11  24  45  73 103 139 187 245 294 360 442
#     4  12  24  45  78 108 136 194 246 298 376 439
#     4  12  25  47  76 106 146 192 243 303 369 450
#     4  12  26  47  67 104 145 189 232 305 368 432
#     4  11  22  47  70 102 140 184 238 300 364 435
#
# _framework density 22.796568000000001
#
# number of rings (size 3 to 8) (size 9 to 14) (size 15 to 20)
#    0.000    0.400    6.000    4.200    0.000    0.800 
#    3.600    0.000    0.000    0.000    0.000    0.000 
#    0.000    0.000    0.000    0.000    0.000    0.000 
#
# Total GULP energy -495851.792257 kJ/mol
# GULP energy per Si atom -12396.294806 kJ/mol
# Density = 2.274468 g / cm^3
# Si number density = 22.796568 Si / 1000 Ang^3
#
#
#
# Elastic Constant Matrix: (Units=GPa)
#
#
# Indices 1 2 3 4 5 6 
#
# 1 79.7063 53.4770 29.0218 0.0030 0.0006 -0.0124
# 2 53.4770 111.0420 39.7036 0.0246 -0.0614 -0.0383
# 3 29.0218 39.7036 196.2590 0.1077 -0.1231 -0.1092
# 4 0.0030 0.0246 0.1077 22.8790 -0.1132 -0.0774
# 5 0.0006 -0.0614 -0.1231 -0.1132 24.4615 0.1057
# 6 -0.0124 -0.0383 -0.1092 -0.0774 0.1057 3.5869
#
#
#
# Elastic Compliance Matrix: (Units=1/GPa)
#
#
# Indices 1 2 3 4 5 6 
#
# 1 0.018722 -0.008652 -0.001018 0.000011 -0.000027 -0.000058
# 2 -0.008652 0.013706 -0.001493 -0.000006 0.000027 0.000070
# 3 -0.001018 -0.001493 0.005548 -0.000024 0.000023 0.000148
# 4 0.000011 -0.000006 -0.000024 0.043713 0.000198 0.000936
# 5 -0.000027 0.000027 0.000023 0.000198 0.040887 -0.001199
# 6 -0.000058 0.000070 0.000148 0.000936 -0.001199 0.278851
#
#
# Mechanical properties :
#
#
# Convention : Reuss Voigt Hill
#
# Bulk Modulus (GPa) = 63.90263 70.15689 67.02976
# Shear Modulus (GPa) = 11.65582 27.83914 19.74748
#
# Velocity S-wave (km/s) = 2.26364 3.49836 2.94640
# Velocity P-wave (km/s) = 5.90971 6.86731 6.40643
#
# Compressibility (1/GPa) = 0.01564881
#
# Stress axis : x y z
#
# Youngs Moduli (GPa) = 53.41370 72.95834 180.24240
#
# Poissons Ratio (x) = 0.63125 0.18352
# Poissons Ratio (y) = 0.46215 0.26916
# Poissons Ratio (z) = 0.05438 0.10895
#
# Static dielectric constant tensor:
#      x y z
#    x 3.986840 0.000010 0.000020 
#    y 0.000010 4.108360 -0.000120 
#    z 0.000020 -0.000120 4.576840 
# 
# 
# High freq. dielectric constant tensor:
#      x y z
#    x 1.886800 0.000000 0.000010 
#    y 0.000000 1.896970 -0.000010 
#    z 0.000010 -0.000010 1.924310 
# 
# From -- ./inp_files/12368.got.cif
#   From: 2010.03.12/outbox.cif.g09.slc.cpg/sg70_7_cif.got.tgz:12368.got - 2010.04.16 13:46:32.
