data_PCOD8286829
_publ_section_title
;
Structure prediction by ZEFSAII (Michael W. Deem and Ramdas Pophale) SiO2 
 PCOD8286829
Probable space group: F D D D
;
_chemical_formula_sum "Si O2"
_cell_formula_units_Z 208
_cell_length_a 20.477406
_cell_length_b 18.746693
_cell_length_c 25.535029
_cell_angle_alpha 90.000000
_cell_angle_beta 90.000000
_cell_angle_gamma 90.000000
_cell_volume 9802.479975
_symmetry_space_group_name_H-M "F D D D"
_symmetry_group_IT_number 70
_space_group.IT_coordinate_system_code '2'
_symmetry_cell_setting 'orthorhombic'
loop_
_space_group_symop_operation_xyz
x,y,z
1/4-x,1/4-y,z
x,1/4-y,1/4-z
1/4-x,y,1/4-z
-x,-y,-z
3/4+x,3/4+y,-z
-x,3/4+y,3/4+z
3/4+x,-y,3/4+z
x,1/2+y,1/2+z
1/4-x,3/4-y,1/2+z
x,3/4-y,3/4-z
1/4-x,1/2+y,3/4-z
-x,1/2-y,1/2-z
3/4+x,1/4+y,1/2-z
-x,1/4+y,1/4+z
3/4+x,1/2-y,1/4+z
1/2+x,y,1/2+z
3/4-x,1/4-y,1/2+z
1/2+x,1/4-y,3/4-z
3/4-x,y,3/4-z
1/2-x,-y,1/2-z
1/4+x,3/4+y,1/2-z
1/2-x,3/4+y,1/4+z
1/4+x,-y,1/4+z
1/2+x,1/2+y,z
3/4-x,3/4-y,z
1/2+x,3/4-y,1/4-z
3/4-x,1/2+y,1/4-z
1/2-x,1/2-y,-z
1/4+x,1/4+y,-z
1/2-x,1/4+y,3/4+z
1/4+x,1/2-y,3/4+z
loop_
_atom_site_type_symbol
_atom_site_label
_atom_site_fract_x
_atom_site_fract_y
_atom_site_fract_z
Si Si1 0.625000 0.625000 0.195301
Si Si2 0.185940 0.075574 0.882728
Si Si3 0.454845 0.249581 0.845046
Si Si4 0.099854 0.796573 0.853362
Si Si5 0.485730 0.954284 0.244417
Si Si6 0.844781 0.651737 0.993694
Si Si7 0.280684 0.587579 0.940607
O O1 0.578927 0.673766 0.158882
O O2 0.581103 0.574048 0.230861
O O3 0.125000 0.125000 0.899653
O O4 0.227235 0.109509 0.834741
O O5 0.154067 0.000026 0.865550
O O6 0.233403 0.058364 0.931759
O O7 0.530882 0.257946 0.858686
O O8 0.448499 0.202205 0.793489
O O9 0.430050 0.209879 0.897421
O O10 0.099304 0.875000 0.875000
O O11 0.118844 0.799034 0.791847
O O12 0.548338 0.910489 0.265537
O O13 0.498963 0.035316 0.264362
O O14 0.909325 0.618270 0.966339
#
# Coordination Sequence:
#
# PCOD8286829 Si02
#       7
#    16  32  32  32  32  32  32
#     4  12  24  33  58 100 140 190 210 266 341 446
#     4  12  24  44  68  94 137 185 235 288 355 417
#     4  12  24  37  61 100 145 178 219 275 351 444
#     4  12  25  44  68  95 136 187 233 284 354 422
#     4  12  24  39  64  96 141 181 227 275 341 430
#     4  12  24  41  63  99 137 179 226 281 348 420
#     4  12  26  41  65 100 133 184 232 283 343 422
#
# _framework density 21.21912
#
# number of rings (size 3 to 8) (size 9 to 14) (size 15 to 20)
#    0.000    0.000    8.462    1.846    0.000    0.615 
#    0.000    0.769    0.000    0.000    0.000    1.077 
#    0.000    0.000    0.000    0.000    0.000    0.000 
#
# Total GULP energy -644735.751065 kJ/mol
# GULP energy per Si atom -12398.764444 kJ/mol
# Density = 2.117082 g / cm^3
# Si number density = 21.219120 Si / 1000 Ang^3
#
#
#
# Elastic Constant Matrix: (Units=GPa)
#
#
# Indices 1 2 3 4 5 6 
#
# 1 113.0063 59.8699 34.4053 0.0000 0.0000 0.0000
# 2 59.8699 78.3071 37.3070 0.0000 0.0000 0.0000
# 3 34.4053 37.3070 71.6760 0.0000 0.0000 0.0000
# 4 0.0000 0.0000 0.0000 29.6676 0.0000 0.0000
# 5 0.0000 0.0000 0.0000 0.0000 22.7540 0.0000
# 6 0.0000 0.0000 0.0000 0.0000 0.0000 41.7984
#
#
#
# Elastic Compliance Matrix: (Units=1/GPa)
#
#
# Indices 1 2 3 4 5 6 
#
# 1 0.015017 -0.010701 -0.001639 0.000000 0.000000 0.000000
# 2 -0.010701 0.024606 -0.007671 0.000000 0.000000 0.000000
# 3 -0.001639 -0.007671 0.018731 0.000000 0.000000 0.000000
# 4 0.000000 0.000000 0.000000 0.033707 0.000000 0.000000
# 5 0.000000 0.000000 0.000000 0.000000 0.043948 0.000000
# 6 0.000000 0.000000 0.000000 0.000000 0.000000 0.023924
#
#
# Mechanical properties :
#
#
# Convention : Reuss Voigt Hill
#
# Bulk Modulus (GPa) = 54.54489 58.46151 56.50320
# Shear Modulus (GPa) = 24.26416 27.60448 25.93432
#
# Velocity S-wave (km/s) = 3.38524 3.61075 3.49981
# Velocity P-wave (km/s) = 6.40634 6.70779 6.55880
#
# Compressibility (1/GPa) = 0.01833352
#
# Stress axis : x y z
#
# Youngs Moduli (GPa) = 66.59074 40.64053 53.38754
#
# Poissons Ratio (x) = 0.43488 0.08749
# Poissons Ratio (y) = 0.71256 0.40953
# Poissons Ratio (z) = 0.10913 0.31175
#
# Static dielectric constant tensor:
#      x y z
#    x 3.874140 0.000000 0.000000 
#    y 0.000000 3.754830 0.000000 
#    z 0.000000 0.000000 3.908810 
# 
# 
# High freq. dielectric constant tensor:
#      x y z
#    x 1.831200 0.000000 0.000000 
#    y 0.000000 1.812100 0.000000 
#    z 0.000000 0.000000 1.830670 
# 
# From -- ./inp_files/60433.got.cif
#   From: 2010.03.12/outbox.cif.g09.slc.cpg/sg70_31_cif.got.tgz:60433.got - 2010.04.16 13:46:32.
