data_PCOD8286969
_publ_section_title
;
Structure prediction by ZEFSAII (Michael W. Deem and Ramdas Pophale) SiO2 
 PCOD8286969
Probable space group: I M M M
;
_chemical_formula_sum "Si O2"
_cell_formula_units_Z 88
_cell_length_a 12.297801
_cell_length_b 17.850711
_cell_length_c 24.925608
_cell_angle_alpha 90.000000
_cell_angle_beta 90.000000
_cell_angle_gamma 90.000000
_cell_volume 5471.781424
_symmetry_space_group_name_H-M "I M M M"
_symmetry_group_IT_number 71
_symmetry_cell_setting 'orthorhombic'
loop_
_space_group_symop_operation_xyz
x,y,z
-x,-y,z
x,-y,-z
-x,y,-z
-x,-y,-z
x,y,-z
-x,y,z
x,-y,z
1/2+x,1/2+y,1/2+z
1/2-x,1/2-y,1/2+z
1/2+x,1/2-y,1/2-z
1/2-x,1/2+y,1/2-z
1/2-x,1/2-y,1/2-z
1/2+x,1/2+y,1/2-z
1/2-x,1/2+y,1/2+z
1/2+x,1/2-y,1/2+z
loop_
_atom_site_type_symbol
_atom_site_label
_atom_site_fract_x
_atom_site_fract_y
_atom_site_fract_z
Si Si1 0.375160 0.321265 0.760716
Si Si2 0.752353 0.776681 0.159662
Si Si3 0.121529 0.350249 0.881676
Si Si4 0.621992 0.084253 0.845458
Si Si5 0.871012 0.500000 0.061281
Si Si6 0.676290 0.916613 0.275228
O O1 0.500000 0.343651 0.766457
O O2 0.345490 0.258848 0.805268
O O3 0.351706 0.292928 0.700350
O O4 0.303124 0.394947 0.771149
O O5 0.798207 0.721879 0.112369
O O6 0.704708 0.852482 0.131695
O O7 0.172779 0.423076 0.911525
O O8 0.114647 0.364864 0.817893
O O9 0.000000 0.332275 0.903505
O O10 0.500000 0.096721 0.867889
O O11 0.617258 0.092734 0.781306
O O12 0.662703 0.000000 0.860812
O O13 0.000000 0.500000 0.067394
O O14 0.832100 0.500000 0.000000
O O15 0.668024 0.000000 0.297444
#
# Coordination Sequence:
#
# PCOD8286969 Si02
#       6
#    16  16  16  16   8  16
#     4   9  16  24  33  47  75 106 131 171 208 226
#     4   9  17  25  36  54  75 102 139 167 193 241
#     4  10  17  26  42  58  77 104 132 166 200 240
#     4   9  16  25  38  55  80 110 137 170 201 223
#     4   9  18  30  44  64  85 103 127 167 214 246
#     4   9  16  24  35  54  75 102 144 172 192 232
#
# _framework density 16.082514
#
# number of rings (size 3 to 8) (size 9 to 14) (size 15 to 20)
#    0.000    2.818    0.909    2.727    0.000    1.091 
#    0.000    0.000    0.000    1.636    0.000    0.000 
#    0.000   37.091    0.000    6.545    0.000    0.000 
#
# Total GULP energy -545216.420663 kJ/mol
# GULP energy per Si atom -12391.282288 kJ/mol
# Density = 1.604591 g / cm^3
# Si number density = 16.082514 Si / 1000 Ang^3
#
#
#
# Elastic Constant Matrix: (Units=GPa)
#
#
# Indices 1 2 3 4 5 6 
#
# 1 80.6500 36.9990 6.7401 0.0000 0.0000 0.0000
# 2 36.9990 127.6299 19.0988 0.0000 0.0000 0.0000
# 3 6.7401 19.0988 26.8170 0.0000 0.0000 0.0000
# 4 0.0000 0.0000 0.0000 12.0391 0.0000 0.0000
# 5 0.0000 0.0000 0.0000 0.0000 6.6803 0.0000
# 6 0.0000 0.0000 0.0000 0.0000 0.0000 24.5568
#
#
#
# Elastic Compliance Matrix: (Units=1/GPa)
#
#
# Indices 1 2 3 4 5 6 
#
# 1 0.014314 -0.004042 -0.000719 0.000000 0.000000 0.000000
# 2 -0.004042 0.009911 -0.006043 0.000000 0.000000 0.000000
# 3 -0.000719 -0.006043 0.041774 0.000000 0.000000 0.000000
# 4 0.000000 0.000000 0.000000 0.083063 0.000000 0.000000
# 5 0.000000 0.000000 0.000000 0.000000 0.149693 0.000000
# 6 0.000000 0.000000 0.000000 0.000000 0.000000 0.040722
#
#
# Mechanical properties :
#
#
# Convention : Reuss Voigt Hill
#
# Bulk Modulus (GPa) = 22.52674 40.08586 31.30630
# Shear Modulus (GPa) = 13.30207 20.13917 16.72062
#
# Velocity S-wave (km/s) = 2.87908 3.54254 3.22790
# Velocity P-wave (km/s) = 5.00894 6.45848 5.77934
#
# Compressibility (1/GPa) = 0.04439169
#
# Stress axis : x y z
#
# Youngs Moduli (GPa) = 69.86377 100.89696 23.93829
#
# Poissons Ratio (x) = 0.40781 0.01721
# Poissons Ratio (y) = 0.28238 0.14465
# Poissons Ratio (z) = 0.05023 0.60969
#
# Static dielectric constant tensor:
#      x y z
#    x 2.843840 0.000000 0.000000 
#    y 0.000000 3.436820 0.000000 
#    z 0.000000 0.000000 2.478780 
# 
# 
# High freq. dielectric constant tensor:
#      x y z
#    x 1.599080 0.000000 0.000000 
#    y 0.000000 1.633840 0.000000 
#    z 0.000000 0.000000 1.541350 
# 
# From -- ./inp_files/69379.got.cif
#   From: 2010.06.25/outbox.cif.g09.slc.cpg/sg71_35_cif.got.tgz:69379.got - 2010.06.28 04:59:45.
