data_PCOD8286388
_publ_section_title
;
Structure prediction by ZEFSAII (Michael W. Deem and Ramdas Pophale) SiO2 
 PCOD8286388
Probable space group: F D D D
;
_chemical_formula_sum "Si O2"
_cell_formula_units_Z 176
_cell_length_a 12.309002
_cell_length_b 31.193852
_cell_length_c 21.545275
_cell_angle_alpha 90.000000
_cell_angle_beta 90.000000
_cell_angle_gamma 90.000000
_cell_volume 8272.635537
_symmetry_space_group_name_H-M "F D D D"
_symmetry_group_IT_number 70
_space_group.IT_coordinate_system_code '2'
_symmetry_cell_setting 'orthorhombic'
loop_
_space_group_symop_operation_xyz
x,y,z
1/4-x,1/4-y,z
x,1/4-y,1/4-z
1/4-x,y,1/4-z
-x,-y,-z
3/4+x,3/4+y,-z
-x,3/4+y,3/4+z
3/4+x,-y,3/4+z
x,1/2+y,1/2+z
1/4-x,3/4-y,1/2+z
x,3/4-y,3/4-z
1/4-x,1/2+y,3/4-z
-x,1/2-y,1/2-z
3/4+x,1/4+y,1/2-z
-x,1/4+y,1/4+z
3/4+x,1/2-y,1/4+z
1/2+x,y,1/2+z
3/4-x,1/4-y,1/2+z
1/2+x,1/4-y,3/4-z
3/4-x,y,3/4-z
1/2-x,-y,1/2-z
1/4+x,3/4+y,1/2-z
1/2-x,3/4+y,1/4+z
1/4+x,-y,1/4+z
1/2+x,1/2+y,z
3/4-x,3/4-y,z
1/2+x,3/4-y,1/4-z
3/4-x,1/2+y,1/4-z
1/2-x,1/2-y,-z
1/4+x,1/4+y,-z
1/2-x,1/4+y,3/4+z
1/4+x,1/2-y,3/4+z
loop_
_atom_site_type_symbol
_atom_site_label
_atom_site_fract_x
_atom_site_fract_y
_atom_site_fract_z
Si Si1 0.224733 0.713653 0.083708
Si Si2 0.215316 0.786914 0.374951
Si Si3 0.501159 0.060697 0.948275
Si Si4 0.371745 0.324302 0.970345
Si Si5 0.125000 0.374204 0.125000
Si Si6 0.189438 0.058820 0.354999
O O1 0.125000 0.697085 0.125000
O O2 0.336454 0.705755 0.120858
O O3 0.207487 0.763590 0.068391
O O4 0.223223 0.685927 0.021003
O O5 0.260884 0.810103 0.436040
O O6 0.272950 0.804914 0.313446
O O7 0.243498 0.736645 0.379399
O O8 0.409881 0.095771 0.932401
O O9 0.608560 0.072236 0.909708
O O10 0.375000 0.375000 0.968806
O O11 0.374883 0.306124 0.039996
O O12 0.220349 0.345103 0.098021
#
# Coordination Sequence:
#
# PCOD8286388 Si02
#       6
#    32  32  32  32  16  32
#     4  10  22  41  66  92 130 178 220 273 324 404
#     4  10  23  41  67  96 132 169 226 267 330 404
#     4  10  23  39  63  97 127 173 225 267 334 396
#     4  11  23  43  68  98 131 172 221 276 342 383
#     4  12  22  40  64  94 135 164 225 282 332 384
#     4  11  25  40  66  98 131 175 216 281 328 393
#
# _framework density 21.274961999999999
#
# number of rings (size 3 to 8) (size 9 to 14) (size 15 to 20)
#    0.000    1.455    0.909    4.364    5.091    5.818 
#    0.000    0.000    0.000    0.000    0.000    0.000 
#    0.000    0.000    0.000    0.000    0.000    0.000 
#
# Total GULP energy -545856.055570 kJ/mol
# GULP energy per Si atom -12405.819445 kJ/mol
# Density = 2.122654 g / cm^3
# Si number density = 21.274962 Si / 1000 Ang^3
#
#
#
# Elastic Constant Matrix: (Units=GPa)
#
#
# Indices 1 2 3 4 5 6 
#
# 1 131.0339 44.8573 64.6021 0.0000 0.0000 0.0000
# 2 44.8573 106.8124 48.8962 0.0000 0.0000 0.0000
# 3 64.6021 48.8962 128.7192 0.0000 0.0000 0.0000
# 4 0.0000 0.0000 0.0000 21.9198 0.0000 0.0000
# 5 0.0000 0.0000 0.0000 0.0000 25.8874 0.0000
# 6 0.0000 0.0000 0.0000 0.0000 0.0000 4.5938
#
#
#
# Elastic Compliance Matrix: (Units=1/GPa)
#
#
# Indices 1 2 3 4 5 6 
#
# 1 0.010646 -0.002451 -0.004412 0.000000 0.000000 0.000000
# 2 -0.002451 0.011897 -0.003289 0.000000 0.000000 0.000000
# 3 -0.004412 -0.003289 0.011233 0.000000 0.000000 0.000000
# 4 0.000000 0.000000 0.000000 0.045621 0.000000 0.000000
# 5 0.000000 0.000000 0.000000 0.000000 0.038629 0.000000
# 6 0.000000 0.000000 0.000000 0.000000 0.000000 0.217687
#
#
# Mechanical properties :
#
#
# Convention : Reuss Voigt Hill
#
# Bulk Modulus (GPa) = 74.23224 75.91962 75.07593
# Shear Modulus (GPa) = 13.86936 24.36085 19.11510
#
# Velocity S-wave (km/s) = 2.55602 3.38753 3.00072
# Velocity P-wave (km/s) = 6.60898 7.14583 6.88264
#
# Compressibility (1/GPa) = 0.01347123
#
# Stress axis : x y z
#
# Youngs Moduli (GPa) = 93.93303 84.05236 89.02711
#
# Poissons Ratio (x) = 0.20603 0.39277
# Poissons Ratio (y) = 0.23025 0.29283
# Poissons Ratio (z) = 0.41442 0.27646
#
# Static dielectric constant tensor:
#      x y z
#    x 3.900140 0.000000 0.000000 
#    y 0.000000 3.890010 0.000000 
#    z 0.000000 0.000000 3.959570 
# 
# 
# High freq. dielectric constant tensor:
#      x y z
#    x 1.836350 0.000000 0.000000 
#    y 0.000000 1.837160 0.000000 
#    z 0.000000 0.000000 1.837400 
# 
# From -- ./inp_files/50398.got.cif
#   From: 2010.03.12/outbox.cif.g09.slc.cpg/sg70_26_cif.got.tgz:50398.got - 2010.04.16 13:46:32.
