data_PCOD8286842
_publ_section_title
;
Structure prediction by ZEFSAII (Michael W. Deem and Ramdas Pophale) SiO2 
 PCOD8286842
Probable space group: F D D D
;
_chemical_formula_sum "Si O2"
_cell_formula_units_Z 160
_cell_length_a 28.033120
_cell_length_b 10.904029
_cell_length_c 22.935540
_cell_angle_alpha 90.000000
_cell_angle_beta 90.000000
_cell_angle_gamma 90.000000
_cell_volume 7010.797186
_symmetry_space_group_name_H-M "F D D D"
_symmetry_group_IT_number 70
_space_group.IT_coordinate_system_code '2'
_symmetry_cell_setting 'orthorhombic'
loop_
_space_group_symop_operation_xyz
x,y,z
1/4-x,1/4-y,z
x,1/4-y,1/4-z
1/4-x,y,1/4-z
-x,-y,-z
3/4+x,3/4+y,-z
-x,3/4+y,3/4+z
3/4+x,-y,3/4+z
x,1/2+y,1/2+z
1/4-x,3/4-y,1/2+z
x,3/4-y,3/4-z
1/4-x,1/2+y,3/4-z
-x,1/2-y,1/2-z
3/4+x,1/4+y,1/2-z
-x,1/4+y,1/4+z
3/4+x,1/2-y,1/4+z
1/2+x,y,1/2+z
3/4-x,1/4-y,1/2+z
1/2+x,1/4-y,3/4-z
3/4-x,y,3/4-z
1/2-x,-y,1/2-z
1/4+x,3/4+y,1/2-z
1/2-x,3/4+y,1/4+z
1/4+x,-y,1/4+z
1/2+x,1/2+y,z
3/4-x,3/4-y,z
1/2+x,3/4-y,1/4-z
3/4-x,1/2+y,1/4-z
1/2-x,1/2-y,-z
1/4+x,1/4+y,-z
1/2-x,1/4+y,3/4+z
1/4+x,1/2-y,3/4+z
loop_
_atom_site_type_symbol
_atom_site_label
_atom_site_fract_x
_atom_site_fract_y
_atom_site_fract_z
Si Si1 0.625000 0.125000 0.708652
Si Si2 0.666514 0.875000 0.875000
Si Si3 0.152388 0.744494 0.963645
Si Si4 0.084855 0.869732 0.582860
Si Si5 0.988556 0.267696 0.627805
Si Si6 0.791740 0.945065 0.711666
O O1 0.654813 0.223179 0.670338
O O2 0.588770 0.199008 0.749391
O O3 0.632784 0.819067 0.826687
O O4 0.700899 0.775518 0.903839
O O5 0.125000 0.625000 0.986115
O O6 0.199886 0.709540 0.928224
O O7 0.165792 0.823685 0.019130
O O8 0.125000 0.929380 0.625000
O O9 0.033633 0.895033 0.610835
O O10 0.969001 0.308445 0.563711
O O11 0.003244 0.125000 0.625000
O O12 0.750000 0.000000 0.750000
#
# Coordination Sequence:
#
# PCOD8286842 Si02
#       6
#    16  16  32  32  32  32
#     4  12  25  52  74 104 154 194 257 310 386 456
#     4  12  24  48  74 113 149 200 260 310 380 462
#     4  12  25  47  78 106 152 204 255 314 382 467
#     4  12  29  48  74 109 151 201 247 324 389 454
#     4  12  27  47  76 111 153 197 256 313 387 465
#     4  12  27  46  79 110 149 199 258 318 382 462
#
# _framework density 22.821940999999999
#
# number of rings (size 3 to 8) (size 9 to 14) (size 15 to 20)
#    0.000    0.000    5.000    4.500    5.600    0.000 
#    0.000    0.000    0.000    0.000    0.000    0.000 
#    0.000    0.000    0.000    0.000    0.000    0.000 
#
# Total GULP energy -496184.501136 kJ/mol
# GULP energy per Si atom -12404.612528 kJ/mol
# Density = 2.277000 g / cm^3
# Si number density = 22.821941 Si / 1000 Ang^3
#
#
#
# Elastic Constant Matrix: (Units=GPa)
#
#
# Indices 1 2 3 4 5 6 
#
# 1 137.3965 35.3689 37.0105 0.0000 0.0000 0.0000
# 2 35.3689 108.9765 11.1538 0.0000 0.0000 0.0000
# 3 37.0105 11.1538 85.8637 0.0000 0.0000 0.0000
# 4 0.0000 0.0000 0.0000 45.4971 0.0000 0.0000
# 5 0.0000 0.0000 0.0000 0.0000 31.2520 0.0000
# 6 0.0000 0.0000 0.0000 0.0000 0.0000 41.7384
#
#
#
# Elastic Compliance Matrix: (Units=1/GPa)
#
#
# Indices 1 2 3 4 5 6 
#
# 1 0.008869 -0.002521 -0.003495 0.000000 0.000000 0.000000
# 2 -0.002521 0.010016 -0.000215 0.000000 0.000000 0.000000
# 3 -0.003495 -0.000215 0.013181 0.000000 0.000000 0.000000
# 4 0.000000 0.000000 0.000000 0.021979 0.000000 0.000000
# 5 0.000000 0.000000 0.000000 0.000000 0.031998 0.000000
# 6 0.000000 0.000000 0.000000 0.000000 0.000000 0.023959
#
#
# Mechanical properties :
#
#
# Convention : Reuss Voigt Hill
#
# Bulk Modulus (GPa) = 51.00816 55.47811 53.24314
# Shear Modulus (GPa) = 38.76034 40.27773 39.51903
#
# Velocity S-wave (km/s) = 4.12561 4.20559 4.16579
# Velocity P-wave (km/s) = 6.71515 6.92420 6.82048
#
# Compressibility (1/GPa) = 0.01960471
#
# Stress axis : x y z
#
# Youngs Moduli (GPa) = 112.75750 99.83685 75.86766
#
# Poissons Ratio (x) = 0.25165 0.26518
# Poissons Ratio (y) = 0.28422 0.01629
# Poissons Ratio (z) = 0.39412 0.02143
#
# Static dielectric constant tensor:
#      x y z
#    x 3.846850 0.000000 0.000000 
#    y 0.000000 4.212830 0.000000 
#    z 0.000000 0.000000 4.844480 
# 
# 
# High freq. dielectric constant tensor:
#      x y z
#    x 1.910810 0.000000 0.000000 
#    y 0.000000 1.907540 0.000000 
#    z 0.000000 0.000000 1.914980 
# 
# From -- ./inp_files/54898.got.cif
#   From: 2010.03.12/outbox.cif.g09.slc.cpg/sg70_28_cif.got.tgz:54898.got - 2010.04.16 13:46:32.
