data_PCOD8286874
_publ_section_title
;
Structure prediction by ZEFSAII (Michael W. Deem and Ramdas Pophale) SiO2 
 PCOD8286874
Probable space group: I M M M
;
_chemical_formula_sum "Si O2"
_cell_formula_units_Z 120
_cell_length_a 21.524537
_cell_length_b 23.137428
_cell_length_c 14.753885
_cell_angle_alpha 90.000000
_cell_angle_beta 90.000000
_cell_angle_gamma 90.000000
_cell_volume 7347.765587
_symmetry_space_group_name_H-M "I M M M"
_symmetry_group_IT_number 71
_symmetry_cell_setting 'orthorhombic'
loop_
_space_group_symop_operation_xyz
x,y,z
-x,-y,z
x,-y,-z
-x,y,-z
-x,-y,-z
x,y,-z
-x,y,z
x,-y,z
1/2+x,1/2+y,1/2+z
1/2-x,1/2-y,1/2+z
1/2+x,1/2-y,1/2-z
1/2-x,1/2+y,1/2-z
1/2-x,1/2-y,1/2-z
1/2+x,1/2+y,1/2-z
1/2-x,1/2+y,1/2+z
1/2+x,1/2-y,1/2+z
loop_
_atom_site_type_symbol
_atom_site_label
_atom_site_fract_x
_atom_site_fract_y
_atom_site_fract_z
Si Si1 0.569160 0.732679 0.896181
Si Si2 0.320609 0.350221 0.102145
Si Si3 0.370754 0.065378 0.312504
Si Si4 0.750009 0.349220 0.602681
Si Si5 0.569473 0.068000 0.500000
Si Si6 0.127996 0.326705 0.711765
Si Si7 0.271190 0.434444 0.760808
Si Si8 0.784824 0.267672 0.839679
O O1 0.500000 0.706676 0.884622
O O2 0.620111 0.686459 0.864202
O O3 0.573623 0.789179 0.832605
O O4 0.581717 0.750770 0.000000
O O5 0.317795 0.405459 0.167600
O O6 0.257725 0.312510 0.105153
O O7 0.330710 0.372301 0.000000
O O8 0.392332 0.087123 0.411317
O O9 0.398308 0.109469 0.237143
O O10 0.296522 0.068785 0.305995
O O11 0.394177 0.000000 0.292044
O O12 0.753488 0.372441 0.500000
O O13 0.817887 0.330347 0.636697
O O14 0.724368 0.400472 0.665859
O O15 0.705190 0.292172 0.604935
O O16 0.500000 0.095583 0.500000
O O17 0.563039 0.000000 0.500000
O O18 0.151565 0.298449 0.807402
O O19 0.291999 0.500000 0.742816
O O20 0.750000 0.250000 0.750000
#
# Coordination Sequence:
#
# PCOD8286874 Si02
#       8
#    16  16  16  16   8  16  16  16
#     4  10  20  32  48  71  95 123 163 204 238 284
#     4  11  19  31  51  71  98 130 158 194 248 298
#     4   9  18  30  45  66  93 123 159 200 237 280
#     4  10  17  28  46  67  96 130 157 188 232 286
#     4   9  18  32  46  58  80 120 163 197 232 280
#     4  10  17  29  46  68  97 126 157 196 242 283
#     4  10  20  32  46  71 101 125 158 201 240 290
#     4  10  15  27  46  71  94 120 155 191 236 288
#
# _framework density 16.331496000000001
#
# number of rings (size 3 to 8) (size 9 to 14) (size 15 to 20)
#    0.000    2.067    6.667    0.800    0.933    1.067 
#    1.200    0.000    0.000    1.600    0.000    2.800 
#    0.000    0.000    0.000    4.800    0.000    0.000 
#
# Total GULP energy -743644.135548 kJ/mol
# GULP energy per Si atom -12394.068926 kJ/mol
# Density = 1.629432 g / cm^3
# Si number density = 16.331496 Si / 1000 Ang^3
#
#
#
# Elastic Constant Matrix: (Units=GPa)
#
#
# Indices 1 2 3 4 5 6 
#
# 1 47.9873 27.9099 25.3332 0.0000 0.0000 0.0000
# 2 27.9099 108.6612 46.1766 0.0000 0.0000 0.0000
# 3 25.3332 46.1766 93.7304 0.0000 0.0000 0.0000
# 4 0.0000 0.0000 0.0000 18.5062 0.0000 0.0000
# 5 0.0000 0.0000 0.0000 0.0000 16.4963 0.0000
# 6 0.0000 0.0000 0.0000 0.0000 0.0000 12.1436
#
#
#
# Elastic Compliance Matrix: (Units=1/GPa)
#
#
# Indices 1 2 3 4 5 6 
#
# 1 0.026063 -0.004681 -0.004738 0.000000 0.000000 0.000000
# 2 -0.004681 0.012480 -0.004883 0.000000 0.000000 0.000000
# 3 -0.004738 -0.004883 0.014355 0.000000 0.000000 0.000000
# 4 0.000000 0.000000 0.000000 0.054036 0.000000 0.000000
# 5 0.000000 0.000000 0.000000 0.000000 0.060620 0.000000
# 6 0.000000 0.000000 0.000000 0.000000 0.000000 0.082348
#
#
# Mechanical properties :
#
#
# Convention : Reuss Voigt Hill
#
# Bulk Modulus (GPa) = 41.16290 49.91315 45.53803
# Shear Modulus (GPa) = 17.44564 19.49315 18.46940
#
# Velocity S-wave (km/s) = 3.27191 3.45859 3.36654
# Velocity P-wave (km/s) = 6.28754 6.82481 6.56168
#
# Compressibility (1/GPa) = 0.02429372
#
# Stress axis : x y z
#
# Youngs Moduli (GPa) = 38.36930 80.12541 69.66037
#
# Poissons Ratio (x) = 0.37504 0.33006
# Poissons Ratio (y) = 0.17960 0.34018
# Poissons Ratio (z) = 0.18180 0.39129
#
# Static dielectric constant tensor:
#      x y z
#    x 2.931580 0.000000 0.000000 
#    y 0.000000 3.409240 0.000000 
#    z 0.000000 0.000000 3.144170 
# 
# 
# High freq. dielectric constant tensor:
#      x y z
#    x 1.583240 0.000000 0.000000 
#    y 0.000000 1.624050 0.000000 
#    z 0.000000 0.000000 1.627270 
# 
# From -- ./inp_files/38528.got.cif
#   From: 2010.06.25/outbox.cif.g09.slc.cpg/sg71_20_cif.got.tgz:38528.got - 2010.06.28 04:59:45.
