data_PCOD8286823
_publ_section_title
;
Structure prediction by ZEFSAII (Michael W. Deem and Ramdas Pophale) SiO2 
 PCOD8286823
Probable space group: F D D D
;
_chemical_formula_sum "Si O2"
_cell_formula_units_Z 144
_cell_length_a 22.428423
_cell_length_b 24.651181
_cell_length_c 11.871533
_cell_angle_alpha 90.000000
_cell_angle_beta 90.000000
_cell_angle_gamma 90.000000
_cell_volume 6563.617630
_symmetry_space_group_name_H-M "F D D D"
_symmetry_group_IT_number 70
_space_group.IT_coordinate_system_code '2'
_symmetry_cell_setting 'orthorhombic'
loop_
_space_group_symop_operation_xyz
x,y,z
1/4-x,1/4-y,z
x,1/4-y,1/4-z
1/4-x,y,1/4-z
-x,-y,-z
3/4+x,3/4+y,-z
-x,3/4+y,3/4+z
3/4+x,-y,3/4+z
x,1/2+y,1/2+z
1/4-x,3/4-y,1/2+z
x,3/4-y,3/4-z
1/4-x,1/2+y,3/4-z
-x,1/2-y,1/2-z
3/4+x,1/4+y,1/2-z
-x,1/4+y,1/4+z
3/4+x,1/2-y,1/4+z
1/2+x,y,1/2+z
3/4-x,1/4-y,1/2+z
1/2+x,1/4-y,3/4-z
3/4-x,y,3/4-z
1/2-x,-y,1/2-z
1/4+x,3/4+y,1/2-z
1/2-x,3/4+y,1/4+z
1/4+x,-y,1/4+z
1/2+x,1/2+y,z
3/4-x,3/4-y,z
1/2+x,3/4-y,1/4-z
3/4-x,1/2+y,1/4-z
1/2-x,1/2-y,-z
1/4+x,1/4+y,-z
1/2-x,1/4+y,3/4+z
1/4+x,1/2-y,3/4+z
loop_
_atom_site_type_symbol
_atom_site_label
_atom_site_fract_x
_atom_site_fract_y
_atom_site_fract_z
Si Si1 0.120548 0.563934 0.302187
Si Si2 0.625000 0.978862 0.125000
Si Si3 0.426666 0.448727 0.790905
Si Si4 0.491377 0.538876 0.892690
Si Si5 0.547448 0.355814 0.988866
O O1 0.125000 0.625000 0.252410
O O2 0.151727 0.520600 0.218026
O O3 0.158095 0.562469 0.414983
O O4 0.052582 0.546833 0.325404
O O5 0.672694 0.941579 0.061620
O O6 0.375000 0.428465 0.875000
O O7 0.442094 0.512023 0.810767
O O8 0.486299 0.415518 0.815911
O O9 0.463186 0.595822 0.925197
O O10 0.500000 0.500000 0.000000
O O11 0.583788 0.375000 0.875000
#
# Coordination Sequence:
#
# PCOD8286823 Si02
#       5
#    32  16  32  32  32
#     4  12  25  47  72 102 146 198 241 299 364 450
#     4  12  29  48  68 106 158 193 240 292 380 458
#     4  12  25  42  79 106 138 183 253 312 366 414
#     4  12  23  42  69 110 141 179 250 310 362 419
#     4  12  25  45  73 104 145 192 246 307 364 432
#
# _framework density 21.939119999999999
#
# number of rings (size 3 to 8) (size 9 to 14) (size 15 to 20)
#    0.000    0.000    8.889    0.333    1.556    0.889 
#    0.000    0.000    0.000    0.000    0.000    0.000 
#    0.000    0.000    0.000    0.000    0.000    0.000 
#
# Total GULP energy -446282.217226 kJ/mol
# GULP energy per Si atom -12396.728256 kJ/mol
# Density = 2.188919 g / cm^3
# Si number density = 21.939120 Si / 1000 Ang^3
#
#
#
# Elastic Constant Matrix: (Units=GPa)
#
#
# Indices 1 2 3 4 5 6 
#
# 1 76.0282 47.7138 27.3199 0.0000 0.0000 0.0000
# 2 47.7138 183.3432 65.3633 0.0000 0.0000 0.0000
# 3 27.3199 65.3633 116.5489 0.0000 0.0000 0.0000
# 4 0.0000 0.0000 0.0000 -84.4873 0.0000 0.0001
# 5 0.0000 0.0000 0.0000 0.0000 15.8403 0.0000
# 6 0.0000 0.0000 0.0000 0.0001 0.0000 18.2807
#
#
#
# Elastic Compliance Matrix: (Units=1/GPa)
#
#
# Indices 1 2 3 4 5 6 
#
# 1 0.016007 -0.003535 -0.001770 0.000000 0.000000 0.000000
# 2 -0.003535 0.007598 -0.003432 0.000000 0.000000 0.000000
# 3 -0.001770 -0.003432 0.010920 0.000000 0.000000 0.000000
# 4 0.000000 0.000000 0.000000 -0.011836 0.000000 0.000000
# 5 0.000000 0.000000 0.000000 0.000000 0.063130 0.000000
# 6 0.000000 0.000000 0.000000 0.000000 0.000000 0.054702
#
#
# Mechanical properties :
#
#
# Convention : Reuss Voigt Hill
#
# Bulk Modulus (GPa) = 58.64781 72.96824 65.80802
# Shear Modulus (GPa) = 30.54745 5.62828 18.08786
#
# Velocity S-wave (km/s) = 3.73550 1.60343 2.87445
# Velocity P-wave (km/s) = 6.73761 6.06297 6.40917
#
# Compressibility (1/GPa) = 0.01705094
#
# Stress axis : x y z
#
# Youngs Moduli (GPa) = 62.47112 131.61569 91.57547
#
# Poissons Ratio (x) = 0.46524 0.16207
# Poissons Ratio (y) = 0.22083 0.31433
# Poissons Ratio (z) = 0.11056 0.45177
#
# Static dielectric constant tensor:
#      x y z
#    x 3.511570 0.000000 0.000000 
#    y 0.000000 4.799300 0.000000 
#    z 0.000000 0.000000 3.854030 
# 
# 
# High freq. dielectric constant tensor:
#      x y z
#    x 1.837100 0.000000 0.000000 
#    y 0.000000 1.895000 0.000000 
#    z 0.000000 0.000000 1.866690 
# 
# From -- ./inp_files/19213.got.cif
#   From: 2010.03.12/outbox.cif.g09.slc.cpg/sg70_10_cif.got.tgz:19213.got - 2010.04.16 13:46:32.
