data_PCOD8286638
_publ_section_title
;
Structure prediction by ZEFSAII (Michael W. Deem and Ramdas Pophale) SiO2 
 PCOD8286638
Probable space group: F D D D
;
_chemical_formula_sum "Si O2"
_cell_formula_units_Z 200
_cell_length_a 15.936480
_cell_length_b 24.383898
_cell_length_c 24.837540
_cell_angle_alpha 90.000000
_cell_angle_beta 90.000000
_cell_angle_gamma 90.000000
_cell_volume 9651.706670
_symmetry_space_group_name_H-M "F D D D"
_symmetry_group_IT_number 70
_space_group.IT_coordinate_system_code '2'
_symmetry_cell_setting 'orthorhombic'
loop_
_space_group_symop_operation_xyz
x,y,z
1/4-x,1/4-y,z
x,1/4-y,1/4-z
1/4-x,y,1/4-z
-x,-y,-z
3/4+x,3/4+y,-z
-x,3/4+y,3/4+z
3/4+x,-y,3/4+z
x,1/2+y,1/2+z
1/4-x,3/4-y,1/2+z
x,3/4-y,3/4-z
1/4-x,1/2+y,3/4-z
-x,1/2-y,1/2-z
3/4+x,1/4+y,1/2-z
-x,1/4+y,1/4+z
3/4+x,1/2-y,1/4+z
1/2+x,y,1/2+z
3/4-x,1/4-y,1/2+z
1/2+x,1/4-y,3/4-z
3/4-x,y,3/4-z
1/2-x,-y,1/2-z
1/4+x,3/4+y,1/2-z
1/2-x,3/4+y,1/4+z
1/4+x,-y,1/4+z
1/2+x,1/2+y,z
3/4-x,3/4-y,z
1/2+x,3/4-y,1/4-z
3/4-x,1/2+y,1/4-z
1/2-x,1/2-y,-z
1/4+x,1/4+y,-z
1/2-x,1/4+y,3/4+z
1/4+x,1/2-y,3/4+z
loop_
_atom_site_type_symbol
_atom_site_label
_atom_site_fract_x
_atom_site_fract_y
_atom_site_fract_z
Si Si1 0.249995 0.317086 0.709587
Si Si2 0.683528 0.174783 0.907915
Si Si3 0.245006 0.125000 0.125000
Si Si4 0.181324 0.847620 0.007597
Si Si5 0.125000 0.125000 0.625000
Si Si6 0.367126 0.543757 0.152828
Si Si7 0.625000 0.125000 0.535411
Si Si8 0.997891 0.058135 0.695506
O O1 0.276986 0.335327 0.650345
O O2 0.165718 0.350275 0.724224
O O3 0.328077 0.330234 0.748712
O O4 0.227324 0.252875 0.714013
O O5 0.625000 0.125000 0.926004
O O6 0.761374 0.182472 0.948380
O O7 0.624458 0.228470 0.909266
O O8 0.294638 0.174776 0.153619
O O9 0.191685 0.153041 0.076526
O O10 0.191490 0.815812 0.950961
O O11 0.217323 0.908861 0.998225
O O12 0.075188 0.085560 0.665114
O O13 0.329283 0.557979 0.095301
#
# Coordination Sequence:
#
# PCOD8286638 Si02
#       8
#    32  32  16  32   8  32  16  32
#     4  11  25  46  64  96 138 177 215 280 337 398
#     4  11  27  41  63  96 137 179 218 267 340 408
#     4  11  21  42  75 101 118 174 229 286 329 395
#     4  12  23  42  68  94 130 177 222 275 330 395
#     4  12  22  40  64 100 130 166 224 272 326 398
#     4  11  21  44  63  97 132 164 220 283 325 387
#     4  11  22  44  73  96 129 172 227 278 340 392
#     4  11  25  40  67  97 132 171 223 273 331 395
#
# _framework density 20.721723999999998
#
# number of rings (size 3 to 8) (size 9 to 14) (size 15 to 20)
#    0.000    0.800    5.600    0.960    7.840    0.000 
#    2.880    2.400    0.000    0.000    0.000    0.000 
#    0.000    0.000    0.000    0.000    0.000    0.000 
#
# Total GULP energy -619980.404663 kJ/mol
# GULP energy per Si atom -12399.608093 kJ/mol
# Density = 2.067456 g / cm^3
# Si number density = 20.721724 Si / 1000 Ang^3
#
#
#
# Elastic Constant Matrix: (Units=GPa)
#
#
# Indices 1 2 3 4 5 6 
#
# 1 121.7533 66.5407 46.8072 0.0000 0.0000 0.0000
# 2 66.5407 111.9531 42.9649 0.0000 0.0000 0.0000
# 3 46.8072 42.9649 112.3995 0.0000 0.0000 0.0000
# 4 0.0000 0.0000 0.0000 21.2454 0.0000 0.0000
# 5 0.0000 0.0000 0.0000 0.0000 40.2706 0.0000
# 6 0.0000 0.0000 0.0000 0.0000 0.0000 18.0298
#
#
#
# Elastic Compliance Matrix: (Units=1/GPa)
#
#
# Indices 1 2 3 4 5 6 
#
# 1 0.012905 -0.006572 -0.002862 0.000000 0.000000 0.000000
# 2 -0.006572 0.013815 -0.002544 0.000000 0.000000 0.000000
# 3 -0.002862 -0.002544 0.011061 0.000000 0.000000 0.000000
# 4 0.000000 0.000000 0.000000 0.047069 0.000000 0.000000
# 5 0.000000 0.000000 0.000000 0.000000 0.024832 0.000000
# 6 0.000000 0.000000 0.000000 0.000000 0.000000 0.055464
#
#
# Mechanical properties :
#
#
# Convention : Reuss Voigt Hill
#
# Bulk Modulus (GPa) = 72.33156 73.19237 72.76197
# Shear Modulus (GPa) = 25.81169 28.56203 27.18686
#
# Velocity S-wave (km/s) = 3.53318 3.71666 3.62608
# Velocity P-wave (km/s) = 7.18515 7.33596 7.26095
#
# Compressibility (1/GPa) = 0.01382522
#
# Stress axis : x y z
#
# Youngs Moduli (GPa) = 77.48678 72.38617 90.40683
#
# Poissons Ratio (x) = 0.47573 0.25875
# Poissons Ratio (y) = 0.50925 0.22998
# Poissons Ratio (z) = 0.22177 0.18414
#
# Static dielectric constant tensor:
#      x y z
#    x 3.740680 0.000000 0.000000 
#    y 0.000000 3.816290 0.000000 
#    z 0.000000 0.000000 3.973850 
# 
# 
# High freq. dielectric constant tensor:
#      x y z
#    x 1.813450 0.000000 0.000000 
#    y 0.000000 1.795440 0.000000 
#    z 0.000000 0.000000 1.832060 
# 
# From -- ./inp_files/58776.got.cif
#   From: 2010.03.12/outbox.cif.g09.slc.cpg/sg70_30_cif.got.tgz:58776.got - 2010.04.16 13:46:32.
