data_PCOD8286526
_publ_section_title
;
Structure prediction by ZEFSAII (Michael W. Deem and Ramdas Pophale) SiO2 
 PCOD8286526
Probable space group: F D D D
;
_chemical_formula_sum "Si O2"
_cell_formula_units_Z 96
_cell_length_a 17.754534
_cell_length_b 25.518750
_cell_length_c 8.778390
_cell_angle_alpha 90.000000
_cell_angle_beta 90.000000
_cell_angle_gamma 90.000000
_cell_volume 3977.256009
_symmetry_space_group_name_H-M "F D D D"
_symmetry_group_IT_number 70
_space_group.IT_coordinate_system_code '2'
_symmetry_cell_setting 'orthorhombic'
loop_
_space_group_symop_operation_xyz
x,y,z
1/4-x,1/4-y,z
x,1/4-y,1/4-z
1/4-x,y,1/4-z
-x,-y,-z
3/4+x,3/4+y,-z
-x,3/4+y,3/4+z
3/4+x,-y,3/4+z
x,1/2+y,1/2+z
1/4-x,3/4-y,1/2+z
x,3/4-y,3/4-z
1/4-x,1/2+y,3/4-z
-x,1/2-y,1/2-z
3/4+x,1/4+y,1/2-z
-x,1/4+y,1/4+z
3/4+x,1/2-y,1/4+z
1/2+x,y,1/2+z
3/4-x,1/4-y,1/2+z
1/2+x,1/4-y,3/4-z
3/4-x,y,3/4-z
1/2-x,-y,1/2-z
1/4+x,3/4+y,1/2-z
1/2-x,3/4+y,1/4+z
1/4+x,-y,1/4+z
1/2+x,1/2+y,z
3/4-x,3/4-y,z
1/2+x,3/4-y,1/4-z
3/4-x,1/2+y,1/4-z
1/2-x,1/2-y,-z
1/4+x,1/4+y,-z
1/2-x,1/4+y,3/4+z
1/4+x,1/2-y,3/4+z
loop_
_atom_site_type_symbol
_atom_site_label
_atom_site_fract_x
_atom_site_fract_y
_atom_site_fract_z
Si Si1 0.125000 0.125000 0.334737
Si Si2 0.125000 0.871388 0.625000
Si Si3 0.249682 0.444188 0.168284
Si Si4 0.255581 0.692367 0.559403
O O1 0.170662 0.164808 0.444960
O O2 0.181720 0.091359 0.229617
O O3 0.181088 0.907889 0.727136
O O4 0.170972 0.835316 0.508323
O O5 0.250000 0.500000 0.250000
O O6 0.235916 0.448611 0.988567
O O7 0.250000 0.750000 0.500000
#
# Coordination Sequence:
#
# PCOD8286526 Si02
#       4
#    16  16  32  32
#     4  10  23  50  75 106 143 193 246 293 360 439
#     4  10  24  46  70 110 148 186 242 294 372 444
#     4  11  25  45  77 107 146 186 244 308 366 429
#     4  11  25  44  78 106 141 196 243 299 367 436
#
# _framework density 24.137243999999999
#
# number of rings (size 3 to 8) (size 9 to 14) (size 15 to 20)
#    0.000    1.333    0.000    6.000    9.333    2.667 
#    0.000    6.667    0.000    0.000    0.000    0.000 
#    0.000    0.000    0.000    0.000    0.000    0.000 
#
# Total GULP energy -297503.133788 kJ/mol
# GULP energy per Si atom -12395.963908 kJ/mol
# Density = 2.408231 g / cm^3
# Si number density = 24.137244 Si / 1000 Ang^3
#
#
#
# Elastic Constant Matrix: (Units=GPa)
#
#
# Indices 1 2 3 4 5 6 
#
# 1 203.4414 115.1090 84.6687 0.0000 0.0000 0.0000
# 2 115.1090 268.0760 95.7328 0.0000 0.0000 0.0000
# 3 84.6687 95.7328 77.4418 0.0000 0.0000 0.0000
# 4 0.0000 0.0000 0.0000 60.6491 0.0000 0.0000
# 5 0.0000 0.0000 0.0000 0.0000 23.4965 0.0000
# 6 0.0000 0.0000 0.0000 0.0000 0.0000 10.1968
#
#
#
# Elastic Compliance Matrix: (Units=1/GPa)
#
#
# Indices 1 2 3 4 5 6 
#
# 1 0.009079 -0.000633 -0.009144 0.000000 0.000000 0.000000
# 2 -0.000633 0.006723 -0.007618 0.000000 0.000000 0.000000
# 3 -0.009144 -0.007618 0.032328 0.000000 0.000000 0.000000
# 4 0.000000 0.000000 0.000000 0.016488 0.000000 0.000000
# 5 0.000000 0.000000 0.000000 0.000000 0.042560 0.000000
# 6 0.000000 0.000000 0.000000 0.000000 0.000000 0.098070
#
#
# Mechanical properties :
#
#
# Convention : Reuss Voigt Hill
#
# Bulk Modulus (GPa) = 74.96745 126.66447 100.81596
# Shear Modulus (GPa) = 20.45127 35.76507 28.10817
#
# Velocity S-wave (km/s) = 2.91398 3.85351 3.41620
# Velocity P-wave (km/s) = 6.51521 8.50824 7.57754
#
# Compressibility (1/GPa) = 0.01333912
#
# Stress axis : x y z
#
# Youngs Moduli (GPa) = 110.14307 148.74854 30.93333
#
# Poissons Ratio (x) = 0.09418 0.28284
# Poissons Ratio (y) = 0.06974 0.23566
# Poissons Ratio (z) = 1.00711 1.13322
#
# Static dielectric constant tensor:
#      x y z
#    x 4.949180 0.000000 0.000000 
#    y 0.000000 4.994030 0.000000 
#    z 0.000000 0.000000 4.099770 
# 
# 
# High freq. dielectric constant tensor:
#      x y z
#    x 1.984040 0.000000 0.000000 
#    y 0.000000 1.982940 0.000000 
#    z 0.000000 0.000000 1.941710 
# 
# From -- ./inp_files/8129.got.cif
#   From: 2010.03.12/outbox.cif.g09.slc.cpg/sg70_5_cif.got.tgz:8129.got - 2010.04.16 13:46:32.
