data_PCOD8286337
_publ_section_title
;
Structure prediction by ZEFSAII (Michael W. Deem and Ramdas Pophale) SiO2 
 PCOD8286337
Probable space group: F D D D
;
_chemical_formula_sum "Si O2"
_cell_formula_units_Z 168
_cell_length_a 15.340189
_cell_length_b 24.061895
_cell_length_c 20.049972
_cell_angle_alpha 90.000000
_cell_angle_beta 90.000000
_cell_angle_gamma 90.000000
_cell_volume 7400.725706
_symmetry_space_group_name_H-M "F D D D"
_symmetry_group_IT_number 70
_space_group.IT_coordinate_system_code '2'
_symmetry_cell_setting 'orthorhombic'
loop_
_space_group_symop_operation_xyz
x,y,z
1/4-x,1/4-y,z
x,1/4-y,1/4-z
1/4-x,y,1/4-z
-x,-y,-z
3/4+x,3/4+y,-z
-x,3/4+y,3/4+z
3/4+x,-y,3/4+z
x,1/2+y,1/2+z
1/4-x,3/4-y,1/2+z
x,3/4-y,3/4-z
1/4-x,1/2+y,3/4-z
-x,1/2-y,1/2-z
3/4+x,1/4+y,1/2-z
-x,1/4+y,1/4+z
3/4+x,1/2-y,1/4+z
1/2+x,y,1/2+z
3/4-x,1/4-y,1/2+z
1/2+x,1/4-y,3/4-z
3/4-x,y,3/4-z
1/2-x,-y,1/2-z
1/4+x,3/4+y,1/2-z
1/2-x,3/4+y,1/4+z
1/4+x,-y,1/4+z
1/2+x,1/2+y,z
3/4-x,3/4-y,z
1/2+x,3/4-y,1/4-z
3/4-x,1/2+y,1/4-z
1/2-x,1/2-y,-z
1/4+x,1/4+y,-z
1/2-x,1/4+y,3/4+z
1/4+x,1/2-y,3/4+z
loop_
_atom_site_type_symbol
_atom_site_label
_atom_site_fract_x
_atom_site_fract_y
_atom_site_fract_z
Si Si1 0.875000 0.875000 0.375000
Si Si2 0.002926 0.313921 0.773739
Si Si3 0.159523 0.739080 0.699023
Si Si4 0.693662 0.902814 0.943739
Si Si5 0.458897 0.646031 0.413317
Si Si6 0.451900 0.832485 0.216654
O O1 0.930673 0.916990 0.422108
O O2 0.000000 0.250000 0.750000
O O3 0.094956 0.326844 0.807737
O O4 0.992386 0.349353 0.705978
O O5 0.125000 0.727785 0.625000
O O6 0.247448 0.705575 0.711701
O O7 0.179280 0.803747 0.711070
O O8 0.081991 0.725304 0.751615
O O9 0.722148 0.875000 0.875000
O O10 0.709489 0.855761 0.999770
O O11 0.375000 0.619974 0.375000
O O12 0.528447 0.673112 0.361605
O O13 0.375000 0.875000 0.232941
#
# Coordination Sequence:
#
# PCOD8286337 Si02
#       6
#     8  32  32  32  32  32
#     4  12  32  56  76 108 146 200 258 308 370 444
#     4  12  30  52  77 103 144 196 255 307 359 437
#     4  10  22  38  71 111 151 190 231 298 365 443
#     4  11  21  43  70 104 145 193 242 293 370 430
#     4  11  25  45  68 107 146 185 248 295 364 430
#     4  10  22  40  69 106 149 190 232 296 361 431
#
# _framework density 22.700476999999999
#
# number of rings (size 3 to 8) (size 9 to 14) (size 15 to 20)
#    0.000    1.143    4.762    0.000    5.333    4.571 
#    3.429    0.000    0.000    0.000    0.000    0.000 
#    0.000    0.000    0.000    0.000    0.000    0.000 
#
# Total GULP energy -520697.415812 kJ/mol
# GULP energy per Si atom -12397.557519 kJ/mol
# Density = 2.264881 g / cm^3
# Si number density = 22.700477 Si / 1000 Ang^3
#
#
#
# Elastic Constant Matrix: (Units=GPa)
#
#
# Indices 1 2 3 4 5 6 
#
# 1 122.8860 54.4305 41.7675 0.0000 0.0000 0.0000
# 2 54.4305 156.5703 75.9818 0.0000 0.0000 0.0000
# 3 41.7675 75.9818 127.6008 0.0000 0.0000 0.0000
# 4 0.0000 0.0000 0.0000 11.0738 0.0000 0.0000
# 5 0.0000 0.0000 0.0000 0.0000 46.3096 0.0000
# 6 0.0000 0.0000 0.0000 0.0000 0.0000 28.9702
#
#
#
# Elastic Compliance Matrix: (Units=1/GPa)
#
#
# Indices 1 2 3 4 5 6 
#
# 1 0.009865 -0.002619 -0.001669 0.000000 0.000000 0.000000
# 2 -0.002619 0.009678 -0.004906 0.000000 0.000000 0.000000
# 3 -0.001669 -0.004906 0.011304 0.000000 0.000000 0.000000
# 4 0.000000 0.000000 0.000000 0.090303 0.000000 0.000000
# 5 0.000000 0.000000 0.000000 0.000000 0.021594 0.000000
# 6 0.000000 0.000000 0.000000 0.000000 0.000000 0.034518
#
#
# Mechanical properties :
#
#
# Convention : Reuss Voigt Hill
#
# Bulk Modulus (GPa) = 80.26293 83.49076 81.87685
# Shear Modulus (GPa) = 25.02439 32.92921 28.97680
#
# Velocity S-wave (km/s) = 3.32380 3.81280 3.57667
# Velocity P-wave (km/s) = 7.08268 7.49949 7.29406
#
# Compressibility (1/GPa) = 0.01245905
#
# Stress axis : x y z
#
# Youngs Moduli (GPa) = 101.36563 103.32537 88.46039
#
# Poissons Ratio (x) = 0.27066 0.14768
# Poissons Ratio (y) = 0.26552 0.43395
# Poissons Ratio (z) = 0.16922 0.50687
#
# Static dielectric constant tensor:
#      x y z
#    x 4.203010 0.000000 0.000000 
#    y 0.000000 4.127590 0.000000 
#    z 0.000000 0.000000 4.030940 
# 
# 
# High freq. dielectric constant tensor:
#      x y z
#    x 1.908960 0.000000 0.000000 
#    y 0.000000 1.894160 0.000000 
#    z 0.000000 0.000000 1.892550 
# 
# From -- ./inp_files/42840.got.cif
#   From: 2010.03.12/outbox.cif.g09.slc.cpg/sg70_22_cif.got.tgz:42840.got - 2010.04.16 13:46:32.
