data_PCOD8286486
_publ_section_title
;
Structure prediction by ZEFSAII (Michael W. Deem and Ramdas Pophale) SiO2 
 PCOD8286486
Probable space group: F D D D
;
_chemical_formula_sum "Si O2"
_cell_formula_units_Z 176
_cell_length_a 26.318676
_cell_length_b 19.588866
_cell_length_c 17.008670
_cell_angle_alpha 90.000000
_cell_angle_beta 90.000000
_cell_angle_gamma 90.000000
_cell_volume 8768.871142
_symmetry_space_group_name_H-M "F D D D"
_symmetry_group_IT_number 70
_space_group.IT_coordinate_system_code '2'
_symmetry_cell_setting 'orthorhombic'
loop_
_space_group_symop_operation_xyz
x,y,z
1/4-x,1/4-y,z
x,1/4-y,1/4-z
1/4-x,y,1/4-z
-x,-y,-z
3/4+x,3/4+y,-z
-x,3/4+y,3/4+z
3/4+x,-y,3/4+z
x,1/2+y,1/2+z
1/4-x,3/4-y,1/2+z
x,3/4-y,3/4-z
1/4-x,1/2+y,3/4-z
-x,1/2-y,1/2-z
3/4+x,1/4+y,1/2-z
-x,1/4+y,1/4+z
3/4+x,1/2-y,1/4+z
1/2+x,y,1/2+z
3/4-x,1/4-y,1/2+z
1/2+x,1/4-y,3/4-z
3/4-x,y,3/4-z
1/2-x,-y,1/2-z
1/4+x,3/4+y,1/2-z
1/2-x,3/4+y,1/4+z
1/4+x,-y,1/4+z
1/2+x,1/2+y,z
3/4-x,3/4-y,z
1/2+x,3/4-y,1/4-z
3/4-x,1/2+y,1/4-z
1/2-x,1/2-y,-z
1/4+x,1/4+y,-z
1/2-x,1/4+y,3/4+z
1/4+x,1/2-y,3/4+z
loop_
_atom_site_type_symbol
_atom_site_label
_atom_site_fract_x
_atom_site_fract_y
_atom_site_fract_z
Si Si1 0.446776 0.124614 0.463400
Si Si2 0.875000 0.720127 0.375000
Si Si3 0.779645 0.933278 0.146661
Si Si4 0.830056 0.779897 0.936760
Si Si5 0.467486 0.308020 0.326193
Si Si6 0.125000 0.125000 0.933736
Si Si7 0.253658 0.125000 0.125000
O O1 0.400199 0.173053 0.441237
O O2 0.493268 0.133880 0.403188
O O3 0.462101 0.146052 0.551184
O O4 0.428854 0.046951 0.462635
O O5 0.834438 0.765261 0.421730
O O6 0.771120 0.917060 0.238192
O O7 0.837516 0.920203 0.120451
O O8 0.763452 0.012938 0.136478
O O9 0.875000 0.786362 0.875000
O O10 0.779810 0.808994 0.895944
O O11 0.842266 0.823481 0.013957
O O12 0.460095 0.375000 0.375000
#
# Coordination Sequence:
#
# PCOD8286486 Si02
#       7
#    32  16  32  32  32  16  16
#     4  11  24  43  65  94 133 171 213 275 327 392
#     4  10  23  42  66  99 128 170 228 270 326 391
#     4  10  24  43  65  95 132 166 220 267 329 396
#     4  12  22  42  65  93 133 173 213 270 329 396
#     4  10  23  45  67  95 128 176 218 278 329 386
#     4  12  23  40  65 102 128 174 218 266 333 401
#     4  12  23  40  62  98 128 176 222 259 332 400
#
# _framework density 20.070997999999999
#
# number of rings (size 3 to 8) (size 9 to 14) (size 15 to 20)
#    0.000    1.091    4.545    0.818    2.545    5.818 
#    3.273    0.000    0.000    0.000    0.000    0.000 
#    0.000    0.000    0.000    0.000    0.000    0.000 
#
# Total GULP energy -545763.347181 kJ/mol
# GULP energy per Si atom -12403.712436 kJ/mol
# Density = 2.002532 g / cm^3
# Si number density = 20.070998 Si / 1000 Ang^3
#
#
#
# Elastic Constant Matrix: (Units=GPa)
#
#
# Indices 1 2 3 4 5 6 
#
# 1 122.7574 56.5688 63.8546 0.0000 0.0000 0.0000
# 2 56.5688 131.0435 59.9737 0.0000 0.0000 0.0000
# 3 63.8546 59.9737 129.5058 0.0000 0.0000 0.0000
# 4 0.0000 0.0000 0.0000 23.0491 0.0000 0.0000
# 5 0.0000 0.0000 0.0000 0.0000 48.9072 0.0000
# 6 0.0000 0.0000 0.0000 0.0000 0.0000 28.3865
#
#
#
# Elastic Compliance Matrix: (Units=1/GPa)
#
#
# Indices 1 2 3 4 5 6 
#
# 1 0.011874 -0.003104 -0.004417 0.000000 0.000000 0.000000
# 2 -0.003104 0.010495 -0.003330 0.000000 0.000000 0.000000
# 3 -0.004417 -0.003330 0.011442 0.000000 0.000000 0.000000
# 4 0.000000 0.000000 0.000000 0.043386 0.000000 0.000000
# 5 0.000000 0.000000 0.000000 0.000000 0.020447 0.000000
# 6 0.000000 0.000000 0.000000 0.000000 0.000000 0.035228
#
#
# Mechanical properties :
#
#
# Convention : Reuss Voigt Hill
#
# Bulk Modulus (GPa) = 82.58544 82.67786 82.63165
# Shear Modulus (GPa) = 31.52390 33.59586 32.55988
#
# Velocity S-wave (km/s) = 3.96740 4.09571 4.03207
# Velocity P-wave (km/s) = 7.88816 7.97801 7.93321
#
# Compressibility (1/GPa) = 0.01210867
#
# Stress axis : x y z
#
# Youngs Moduli (GPa) = 84.21496 95.28409 87.40088
#
# Poissons Ratio (x) = 0.29579 0.38607
# Poissons Ratio (y) = 0.26143 0.29100
# Poissons Ratio (z) = 0.37200 0.31725
#
# Static dielectric constant tensor:
#      x y z
#    x 3.822650 0.000000 0.000000 
#    y 0.000000 4.411000 0.000000 
#    z 0.000000 0.000000 3.777540 
# 
# 
# High freq. dielectric constant tensor:
#      x y z
#    x 1.791150 0.000000 0.000000 
#    y 0.000000 1.787430 0.000000 
#    z 0.000000 0.000000 1.789710 
# 
# From -- ./inp_files/38570.got.cif
#   From: 2010.03.12/outbox.cif.g09.slc.cpg/sg70_20_cif.got.tgz:38570.got - 2010.04.16 13:46:32.
