data_PCOD8286685
_publ_section_title
;
Structure prediction by ZEFSAII (Michael W. Deem and Ramdas Pophale) SiO2 
 PCOD8286685
Probable space group: F D D D
;
_chemical_formula_sum "Si O2"
_cell_formula_units_Z 168
_cell_length_a 15.081352
_cell_length_b 25.864713
_cell_length_c 19.102706
_cell_angle_alpha 90.000000
_cell_angle_beta 90.000000
_cell_angle_gamma 90.000000
_cell_volume 7451.485008
_symmetry_space_group_name_H-M "F D D D"
_symmetry_group_IT_number 70
_space_group.IT_coordinate_system_code '2'
_symmetry_cell_setting 'orthorhombic'
loop_
_space_group_symop_operation_xyz
x,y,z
1/4-x,1/4-y,z
x,1/4-y,1/4-z
1/4-x,y,1/4-z
-x,-y,-z
3/4+x,3/4+y,-z
-x,3/4+y,3/4+z
3/4+x,-y,3/4+z
x,1/2+y,1/2+z
1/4-x,3/4-y,1/2+z
x,3/4-y,3/4-z
1/4-x,1/2+y,3/4-z
-x,1/2-y,1/2-z
3/4+x,1/4+y,1/2-z
-x,1/4+y,1/4+z
3/4+x,1/2-y,1/4+z
1/2+x,y,1/2+z
3/4-x,1/4-y,1/2+z
1/2+x,1/4-y,3/4-z
3/4-x,y,3/4-z
1/2-x,-y,1/2-z
1/4+x,3/4+y,1/2-z
1/2-x,3/4+y,1/4+z
1/4+x,-y,1/4+z
1/2+x,1/2+y,z
3/4-x,3/4-y,z
1/2+x,3/4-y,1/4-z
3/4-x,1/2+y,1/4-z
1/2-x,1/2-y,-z
1/4+x,1/4+y,-z
1/2-x,1/4+y,3/4+z
1/4+x,1/2-y,3/4+z
loop_
_atom_site_type_symbol
_atom_site_label
_atom_site_fract_x
_atom_site_fract_y
_atom_site_fract_z
Si Si1 0.375000 0.375000 0.875000
Si Si2 0.605743 0.970681 0.939812
Si Si3 0.225568 0.175210 0.246726
Si Si4 0.945826 0.917706 0.505762
Si Si5 0.521851 0.396651 0.118651
Si Si6 0.070262 0.011956 0.938764
O O1 0.310669 0.339858 0.828986
O O2 0.677114 0.949222 0.994208
O O3 0.594182 0.030559 0.960779
O O4 0.643764 0.964672 0.859912
O O5 0.515831 0.936166 0.946191
O O6 0.235382 0.124922 0.294935
O O7 0.159279 0.216335 0.278638
O O8 0.875000 0.875000 0.475578
O O9 0.995329 0.889911 0.568731
O O10 0.625000 0.405656 0.125000
O O11 0.475476 0.452223 0.120389
O O12 0.000000 0.000000 0.000000
#
# Coordination Sequence:
#
# PCOD8286685 Si02
#       6
#     8  32  32  32  32  32
#     4  12  24  44  72 100 146 188 228 306 384 436
#     4  11  25  41  74 107 141 194 255 312 379 460
#     4  12  24  45  66 101 144 186 243 311 377 452
#     4  11  22  46  73 105 144 194 255 315 377 466
#     4  12  23  45  74 101 141 200 247 302 392 462
#     4  12  26  44  70 107 148 190 250 318 382 466
#
# _framework density 22.545842
#
# number of rings (size 3 to 8) (size 9 to 14) (size 15 to 20)
#    0.000    0.381    7.619    1.143    2.667    0.000 
#    0.000    0.000    0.000    3.429    0.000    0.000 
#    0.000    0.000    0.000    0.000    0.000    0.000 
#
# Total GULP energy -520542.112443 kJ/mol
# GULP energy per Si atom -12393.859820 kJ/mol
# Density = 2.249453 g / cm^3
# Si number density = 22.545842 Si / 1000 Ang^3
#
#
#
# Elastic Constant Matrix: (Units=GPa)
#
#
# Indices 1 2 3 4 5 6 
#
# 1 163.4143 51.2483 49.7702 0.0000 0.0000 0.0000
# 2 51.2483 87.9570 29.9322 0.0000 0.0000 0.0000
# 3 49.7702 29.9322 113.8190 0.0000 0.0000 0.0000
# 4 0.0000 0.0000 0.0000 42.1704 0.0000 0.0000
# 5 0.0000 0.0000 0.0000 0.0000 41.3920 0.0000
# 6 0.0000 0.0000 0.0000 0.0000 0.0000 39.4203
#
#
#
# Elastic Compliance Matrix: (Units=1/GPa)
#
#
# Indices 1 2 3 4 5 6 
#
# 1 0.008099 -0.003859 -0.002527 0.000000 0.000000 0.000000
# 2 -0.003859 0.014326 -0.002080 0.000000 0.000000 0.000000
# 3 -0.002527 -0.002080 0.010438 0.000000 0.000000 0.000000
# 4 0.000000 0.000000 0.000000 0.023713 0.000000 0.000000
# 5 0.000000 0.000000 0.000000 0.000000 0.024159 0.000000
# 6 0.000000 0.000000 0.000000 0.000000 0.000000 0.025368
#
#
# Mechanical properties :
#
#
# Convention : Reuss Voigt Hill
#
# Bulk Modulus (GPa) = 62.77048 69.67687 66.22367
# Shear Modulus (GPa) = 38.95766 40.21250 39.58508
#
# Velocity S-wave (km/s) = 4.16135 4.22784 4.19472
# Velocity P-wave (km/s) = 7.14078 7.40300 7.27307
#
# Compressibility (1/GPa) = 0.01593105
#
# Stress axis : x y z
#
# Youngs Moduli (GPa) = 123.46836 69.80542 95.80664
#
# Poissons Ratio (x) = 0.26939 0.24207
# Poissons Ratio (y) = 0.47649 0.19926
# Poissons Ratio (z) = 0.31197 0.14518
#
# Static dielectric constant tensor:
#      x y z
#    x 4.387080 0.000000 0.000000 
#    y 0.000000 4.246340 0.000000 
#    z 0.000000 0.000000 4.278700 
# 
# 
# High freq. dielectric constant tensor:
#      x y z
#    x 1.914960 0.000000 0.000000 
#    y 0.000000 1.885450 0.000000 
#    z 0.000000 0.000000 1.881520 
# 
# From -- ./inp_files/42827.got.cif
#   From: 2010.03.12/outbox.cif.g09.slc.cpg/sg70_22_cif.got.tgz:42827.got - 2010.04.16 13:46:32.
