data_PCOD8286060
_publ_section_title
;
Structure prediction by ZEFSAII (Michael W. Deem and Ramdas Pophale) SiO2 
 PCOD8286060
Probable space group: F D D D
;
_chemical_formula_sum "Si O2"
_cell_formula_units_Z 192
_cell_length_a 27.791116
_cell_length_b 15.457126
_cell_length_c 22.228858
_cell_angle_alpha 90.000000
_cell_angle_beta 90.000000
_cell_angle_gamma 90.000000
_cell_volume 9548.867907
_symmetry_space_group_name_H-M "F D D D"
_symmetry_group_IT_number 70
_space_group.IT_coordinate_system_code '2'
_symmetry_cell_setting 'orthorhombic'
loop_
_space_group_symop_operation_xyz
x,y,z
1/4-x,1/4-y,z
x,1/4-y,1/4-z
1/4-x,y,1/4-z
-x,-y,-z
3/4+x,3/4+y,-z
-x,3/4+y,3/4+z
3/4+x,-y,3/4+z
x,1/2+y,1/2+z
1/4-x,3/4-y,1/2+z
x,3/4-y,3/4-z
1/4-x,1/2+y,3/4-z
-x,1/2-y,1/2-z
3/4+x,1/4+y,1/2-z
-x,1/4+y,1/4+z
3/4+x,1/2-y,1/4+z
1/2+x,y,1/2+z
3/4-x,1/4-y,1/2+z
1/2+x,1/4-y,3/4-z
3/4-x,y,3/4-z
1/2-x,-y,1/2-z
1/4+x,3/4+y,1/2-z
1/2-x,3/4+y,1/4+z
1/4+x,-y,1/4+z
1/2+x,1/2+y,z
3/4-x,3/4-y,z
1/2+x,3/4-y,1/4-z
3/4-x,1/2+y,1/4-z
1/2-x,1/2-y,-z
1/4+x,1/4+y,-z
1/2-x,1/4+y,3/4+z
1/4+x,1/2-y,3/4+z
loop_
_atom_site_type_symbol
_atom_site_label
_atom_site_fract_x
_atom_site_fract_y
_atom_site_fract_z
Si Si1 0.621937 0.375000 0.875000
Si Si2 0.680424 0.635644 0.253332
Si Si3 0.821305 0.396667 0.031049
Si Si4 0.791619 0.030431 0.177083
Si Si5 0.491899 0.708995 0.546871
Si Si6 0.281073 0.875000 0.375000
Si Si7 0.549303 0.005473 0.400279
O O1 0.653690 0.446731 0.841607
O O2 0.586824 0.320505 0.830545
O O3 0.625000 0.625000 0.273108
O O4 0.702313 0.729515 0.266670
O O5 0.684825 0.620266 0.182683
O O6 0.710866 0.565320 0.291726
O O7 0.875000 0.375000 0.008102
O O8 0.791596 0.306525 0.034334
O O9 0.822455 0.437791 0.097095
O O10 0.794892 0.462917 0.984210
O O11 0.757040 0.020794 0.118183
O O12 0.774232 0.110809 0.216669
O O13 0.249610 0.787417 0.375977
#
# Coordination Sequence:
#
# PCOD8286060 Si02
#       7
#    16  32  32  32  32  16  32
#     4   9  18  34  57  94 112 148 213 254 288 359
#     4  12  22  40  62  89 122 163 201 249 312 372
#     4  12  21  37  62  92 117 154 209 255 303 363
#     4  10  20  38  60  84 120 159 196 250 308 364
#     4  10  22  37  59  89 119 155 202 249 305 364
#     4  11  25  40  57  88 126 158 201 250 307 367
#     4  11  21  37  61  86 122 157 204 254 301 359
#
# _framework density 20.107095000000001
#
# number of rings (size 3 to 8) (size 9 to 14) (size 15 to 20)
#    0.000    1.333    5.000    3.750    0.000    0.000 
#    0.000    1.667    0.000    0.000    0.000    0.000 
#    0.000    0.000    0.000    0.000    0.000    0.000 
#
# Total GULP energy -594897.591228 kJ/mol
# GULP energy per Si atom -12393.699817 kJ/mol
# Density = 2.006133 g / cm^3
# Si number density = 20.107095 Si / 1000 Ang^3
#
#
#
# Elastic Constant Matrix: (Units=GPa)
#
#
# Indices 1 2 3 4 5 6 
#
# 1 92.9293 34.7596 39.6582 0.0000 0.0000 0.0000
# 2 34.7596 86.6564 44.5994 0.0000 0.0000 0.0000
# 3 39.6582 44.5994 84.0999 0.0000 0.0000 0.0000
# 4 0.0000 0.0000 0.0000 25.6952 0.0000 0.0000
# 5 0.0000 0.0000 0.0000 0.0000 21.4397 0.0000
# 6 0.0000 0.0000 0.0000 0.0000 0.0000 26.6461
#
#
#
# Elastic Compliance Matrix: (Units=1/GPa)
#
#
# Indices 1 2 3 4 5 6 
#
# 1 0.014038 -0.003059 -0.004998 0.000000 0.000000 0.000000
# 2 -0.003059 0.016538 -0.007328 0.000000 0.000000 0.000000
# 3 -0.004998 -0.007328 0.018133 0.000000 0.000000 0.000000
# 4 0.000000 0.000000 0.000000 0.038918 0.000000 0.000000
# 5 0.000000 0.000000 0.000000 0.000000 0.046642 0.000000
# 6 0.000000 0.000000 0.000000 0.000000 0.000000 0.037529
#
#
# Mechanical properties :
#
#
# Convention : Reuss Voigt Hill
#
# Bulk Modulus (GPa) = 55.73920 55.74668 55.74294
# Shear Modulus (GPa) = 23.97534 24.40077 24.18806
#
# Velocity S-wave (km/s) = 3.45683 3.48737 3.47214
# Velocity P-wave (km/s) = 6.61168 6.63330 6.62250
#
# Compressibility (1/GPa) = 0.01794069
#
# Stress axis : x y z
#
# Youngs Moduli (GPa) = 71.23675 60.46563 55.14656
#
# Poissons Ratio (x) = 0.18495 0.27560
# Poissons Ratio (y) = 0.21789 0.40412
# Poissons Ratio (z) = 0.35601 0.44310
#
# Static dielectric constant tensor:
#      x y z
#    x 3.546210 0.000000 0.000000 
#    y 0.000000 3.876870 0.000000 
#    z 0.000000 0.000000 3.420410 
# 
# 
# High freq. dielectric constant tensor:
#      x y z
#    x 1.775490 0.000000 0.000000 
#    y 0.000000 1.799670 0.000000 
#    z 0.000000 0.000000 1.762050 
# 
# From -- ./inp_files/55115.got.cif
#   From: 2010.03.12/outbox.cif.g09.slc.cpg/sg70_28_cif.got.tgz:55115.got - 2010.04.16 13:46:32.
