data_PCOD8286567
_publ_section_title
;
Structure prediction by ZEFSAII (Michael W. Deem and Ramdas Pophale) SiO2 
 PCOD8286567
Probable space group: F D D D
;
_chemical_formula_sum "Si O2"
_cell_formula_units_Z 176
_cell_length_a 23.034011
_cell_length_b 13.548482
_cell_length_c 25.826812
_cell_angle_alpha 90.000000
_cell_angle_beta 90.000000
_cell_angle_gamma 90.000000
_cell_volume 8059.925171
_symmetry_space_group_name_H-M "F D D D"
_symmetry_group_IT_number 70
_space_group.IT_coordinate_system_code '2'
_symmetry_cell_setting 'orthorhombic'
loop_
_space_group_symop_operation_xyz
x,y,z
1/4-x,1/4-y,z
x,1/4-y,1/4-z
1/4-x,y,1/4-z
-x,-y,-z
3/4+x,3/4+y,-z
-x,3/4+y,3/4+z
3/4+x,-y,3/4+z
x,1/2+y,1/2+z
1/4-x,3/4-y,1/2+z
x,3/4-y,3/4-z
1/4-x,1/2+y,3/4-z
-x,1/2-y,1/2-z
3/4+x,1/4+y,1/2-z
-x,1/4+y,1/4+z
3/4+x,1/2-y,1/4+z
1/2+x,y,1/2+z
3/4-x,1/4-y,1/2+z
1/2+x,1/4-y,3/4-z
3/4-x,y,3/4-z
1/2-x,-y,1/2-z
1/4+x,3/4+y,1/2-z
1/2-x,3/4+y,1/4+z
1/4+x,-y,1/4+z
1/2+x,1/2+y,z
3/4-x,3/4-y,z
1/2+x,3/4-y,1/4-z
3/4-x,1/2+y,1/4-z
1/2-x,1/2-y,-z
1/4+x,1/4+y,-z
1/2-x,1/4+y,3/4+z
1/4+x,1/2-y,3/4+z
loop_
_atom_site_type_symbol
_atom_site_label
_atom_site_fract_x
_atom_site_fract_y
_atom_site_fract_z
Si Si1 0.125000 0.125000 0.042577
Si Si2 0.597048 0.913321 0.674903
Si Si3 0.252784 0.385422 0.744116
Si Si4 0.365464 0.170485 0.216672
Si Si5 0.009636 0.162812 0.877832
Si Si6 0.557199 0.875000 0.875000
Si Si7 0.625000 0.125000 0.331197
O O1 0.124658 0.225264 0.076194
O O2 0.067990 0.145659 0.007916
O O3 0.625000 0.858634 0.625000
O O4 0.611692 0.859823 0.727616
O O5 0.528784 0.896355 0.664612
O O6 0.250000 0.500000 0.750000
O O7 0.204649 0.341685 0.783892
O O8 0.236534 0.353361 0.685973
O O9 0.399371 0.105264 0.173673
O O10 0.382469 0.282970 0.206706
O O11 0.015431 0.280537 0.867063
O O12 0.071741 0.111812 0.870415
#
# Coordination Sequence:
#
# PCOD8286567 Si02
#       7
#    16  32  32  32  32  16  16
#     4  12  24  42  68  99 142 187 225 291 350 430
#     4  12  24  45  65 100 140 179 230 287 355 414
#     4  12  24  41  71 103 140 182 230 293 355 424
#     4  11  24  46  68 104 138 180 241 287 357 424
#     4  11  24  45  70 102 140 182 236 290 356 425
#     4  10  26  46  75  99 138 188 236 296 350 424
#     4  10  25  42  69  99 136 188 231 294 344 428
#
# _framework density 21.836431000000001
#
# number of rings (size 3 to 8) (size 9 to 14) (size 15 to 20)
#    0.000    0.727    3.636    3.000    5.091    4.364 
#    3.273    0.000    0.000    0.000    0.000    0.000 
#    0.000    0.000    0.000    0.000    0.000    0.000 
#
# Total GULP energy -545298.008494 kJ/mol
# GULP energy per Si atom -12393.136557 kJ/mol
# Density = 2.178673 g / cm^3
# Si number density = 21.836431 Si / 1000 Ang^3
#
#
#
# Elastic Constant Matrix: (Units=GPa)
#
#
# Indices 1 2 3 4 5 6 
#
# 1 109.0072 13.8577 23.5131 0.0000 0.0000 0.0000
# 2 13.8577 93.4760 23.0623 0.0000 0.0000 0.0000
# 3 23.5131 23.0623 116.7326 0.0000 0.0000 0.0000
# 4 0.0000 0.0000 0.0000 23.6569 0.0000 0.0000
# 5 0.0000 0.0000 0.0000 0.0000 23.8724 0.0000
# 6 0.0000 0.0000 0.0000 0.0000 0.0000 35.1498
#
#
#
# Elastic Compliance Matrix: (Units=1/GPa)
#
#
# Indices 1 2 3 4 5 6 
#
# 1 0.009679 -0.001003 -0.001752 0.000000 0.000000 0.000000
# 2 -0.001003 0.011350 -0.002040 0.000000 0.000000 0.000000
# 3 -0.001752 -0.002040 0.009322 0.000000 0.000000 0.000000
# 4 0.000000 0.000000 0.000000 0.042271 0.000000 0.000000
# 5 0.000000 0.000000 0.000000 0.000000 0.041889 0.000000
# 6 0.000000 0.000000 0.000000 0.000000 0.000000 0.028450
#
#
# Mechanical properties :
#
#
# Convention : Reuss Voigt Hill
#
# Bulk Modulus (GPa) = 48.16450 48.89800 48.53125
# Shear Modulus (GPa) = 31.35358 33.78801 32.57079
#
# Velocity S-wave (km/s) = 3.79336 3.93787 3.86629
# Velocity P-wave (km/s) = 6.42580 6.56637 6.49647
#
# Compressibility (1/GPa) = 0.02076218
#
# Stress axis : x y z
#
# Youngs Moduli (GPa) = 103.31662 88.10581 107.26742
#
# Poissons Ratio (x) = 0.08835 0.18788
# Poissons Ratio (y) = 0.10360 0.21887
# Poissons Ratio (z) = 0.18096 0.17977
#
# Static dielectric constant tensor:
#      x y z
#    x 3.691010 0.000000 0.000000 
#    y 0.000000 3.836650 0.000000 
#    z 0.000000 0.000000 3.001440 
# 
# 
# High freq. dielectric constant tensor:
#      x y z
#    x 1.872860 0.000000 0.000000 
#    y 0.000000 1.853160 0.000000 
#    z 0.000000 0.000000 1.862660 
# 
# From -- ./inp_files/30039.got.cif
#   From: 2010.03.12/outbox.cif.g09.slc.cpg/sg70_16_cif.got.tgz:30039.got - 2010.04.16 13:46:32.
