data_PCOD8286386
_publ_section_title
;
Structure prediction by ZEFSAII (Michael W. Deem and Ramdas Pophale) SiO2 
 PCOD8286386
Probable space group: F D D D
;
_chemical_formula_sum "Si O2"
_cell_formula_units_Z 144
_cell_length_a 21.676809
_cell_length_b 17.618336
_cell_length_c 19.446632
_cell_angle_alpha 90.000000
_cell_angle_beta 90.000000
_cell_angle_gamma 90.000000
_cell_volume 7426.849699
_symmetry_space_group_name_H-M "F D D D"
_symmetry_group_IT_number 70
_space_group.IT_coordinate_system_code '2'
_symmetry_cell_setting 'orthorhombic'
loop_
_space_group_symop_operation_xyz
x,y,z
1/4-x,1/4-y,z
x,1/4-y,1/4-z
1/4-x,y,1/4-z
-x,-y,-z
3/4+x,3/4+y,-z
-x,3/4+y,3/4+z
3/4+x,-y,3/4+z
x,1/2+y,1/2+z
1/4-x,3/4-y,1/2+z
x,3/4-y,3/4-z
1/4-x,1/2+y,3/4-z
-x,1/2-y,1/2-z
3/4+x,1/4+y,1/2-z
-x,1/4+y,1/4+z
3/4+x,1/2-y,1/4+z
1/2+x,y,1/2+z
3/4-x,1/4-y,1/2+z
1/2+x,1/4-y,3/4-z
3/4-x,y,3/4-z
1/2-x,-y,1/2-z
1/4+x,3/4+y,1/2-z
1/2-x,3/4+y,1/4+z
1/4+x,-y,1/4+z
1/2+x,1/2+y,z
3/4-x,3/4-y,z
1/2+x,3/4-y,1/4-z
3/4-x,1/2+y,1/4-z
1/2-x,1/2-y,-z
1/4+x,1/4+y,-z
1/2-x,1/4+y,3/4+z
1/4+x,1/2-y,3/4+z
loop_
_atom_site_type_symbol
_atom_site_label
_atom_site_fract_x
_atom_site_fract_y
_atom_site_fract_z
Si Si1 0.457210 0.309030 0.711871
Si Si2 0.721254 0.682691 0.686673
Si Si3 0.875000 0.716352 0.375000
Si Si4 0.473163 0.652942 0.425847
Si Si5 0.822374 0.471956 0.513077
O O1 0.500000 0.250000 0.750000
O O2 0.484387 0.329634 0.638497
O O3 0.449084 0.386456 0.755635
O O4 0.389929 0.272262 0.703583
O O5 0.726406 0.625000 0.625000
O O6 0.656880 0.729230 0.682176
O O7 0.730074 0.638244 0.759531
O O8 0.776477 0.744038 0.679025
O O9 0.823582 0.666541 0.413946
O O10 0.431719 0.727658 0.443368
#
# Coordination Sequence:
#
# PCOD8286386 Si02
#       5
#    32  32  16  32  32
#     4  11  21  42  67  92 137 168 215 275 321 399
#     4  10  24  43  61  99 129 167 225 268 326 394
#     4  12  21  44  68  93 132 168 228 266 329 402
#     4  10  22  41  65  94 130 176 208 274 333 384
#     4   9  23  40  60 101 125 166 224 258 334 397
#
# _framework density 19.389109000000001
#
# number of rings (size 3 to 8) (size 9 to 14) (size 15 to 20)
#    1.333    0.444    2.222    1.667    0.000    3.556 
#   12.000    2.222    0.000    0.000    0.000    0.000 
#    0.000    0.000    0.000    0.000    0.000    0.000 
#
# Total GULP energy -446034.331941 kJ/mol
# GULP energy per Si atom -12389.842554 kJ/mol
# Density = 1.934498 g / cm^3
# Si number density = 19.389109 Si / 1000 Ang^3
#
#
#
# Elastic Constant Matrix: (Units=GPa)
#
#
# Indices 1 2 3 4 5 6 
#
# 1 121.9052 41.6932 26.8638 0.0000 0.0000 0.0000
# 2 41.6932 84.0406 25.8520 0.0000 0.0000 0.0000
# 3 26.8638 25.8520 78.1983 0.0000 0.0000 0.0000
# 4 0.0000 0.0000 0.0000 28.0784 0.0000 0.0000
# 5 0.0000 0.0000 0.0000 0.0000 32.2438 0.0000
# 6 0.0000 0.0000 0.0000 0.0000 0.0000 38.6672
#
#
#
# Elastic Compliance Matrix: (Units=1/GPa)
#
#
# Indices 1 2 3 4 5 6 
#
# 1 0.010161 -0.004416 -0.002031 0.000000 0.000000 0.000000
# 2 -0.004416 0.015166 -0.003497 0.000000 0.000000 0.000000
# 3 -0.002031 -0.003497 0.014642 0.000000 0.000000 0.000000
# 4 0.000000 0.000000 0.000000 0.035615 0.000000 0.000000
# 5 0.000000 0.000000 0.000000 0.000000 0.031014 0.000000
# 6 0.000000 0.000000 0.000000 0.000000 0.000000 0.025862
#
#
# Mechanical properties :
#
#
# Convention : Reuss Voigt Hill
#
# Bulk Modulus (GPa) = 49.79789 52.55134 51.17461
# Shear Modulus (GPa) = 31.43889 32.44689 31.94289
#
# Velocity S-wave (km/s) = 4.03112 4.09523 4.06330
# Velocity P-wave (km/s) = 6.88518 7.03730 6.96166
#
# Compressibility (1/GPa) = 0.02008117
#
# Stress axis : x y z
#
# Youngs Moduli (GPa) = 98.41536 65.93898 68.29885
#
# Poissons Ratio (x) = 0.29121 0.13869
# Poissons Ratio (y) = 0.43463 0.23881
# Poissons Ratio (z) = 0.19985 0.23056
#
# Static dielectric constant tensor:
#      x y z
#    x 3.725450 0.000000 0.000000 
#    y 0.000000 4.600420 0.000000 
#    z 0.000000 0.000000 3.166250 
# 
# 
# High freq. dielectric constant tensor:
#      x y z
#    x 1.767810 0.000000 0.000000 
#    y 0.000000 1.766440 0.000000 
#    z 0.000000 0.000000 1.728190 
# 
# From -- ./inp_files/37440.got.cif
#   From: 2010.03.12/outbox.cif.g09.slc.cpg/sg70_19_cif.got.tgz:37440.got - 2010.04.16 13:46:32.
