data_PCOD8286663
_publ_section_title
;
Structure prediction by ZEFSAII (Michael W. Deem and Ramdas Pophale) SiO2 
 PCOD8286663
Probable space group: F D D D
;
_chemical_formula_sum "Si O2"
_cell_formula_units_Z 168
_cell_length_a 21.436776
_cell_length_b 15.926409
_cell_length_c 24.136529
_cell_angle_alpha 90.000000
_cell_angle_beta 90.000000
_cell_angle_gamma 90.000000
_cell_volume 8240.473177
_symmetry_space_group_name_H-M "F D D D"
_symmetry_group_IT_number 70
_space_group.IT_coordinate_system_code '2'
_symmetry_cell_setting 'orthorhombic'
loop_
_space_group_symop_operation_xyz
x,y,z
1/4-x,1/4-y,z
x,1/4-y,1/4-z
1/4-x,y,1/4-z
-x,-y,-z
3/4+x,3/4+y,-z
-x,3/4+y,3/4+z
3/4+x,-y,3/4+z
x,1/2+y,1/2+z
1/4-x,3/4-y,1/2+z
x,3/4-y,3/4-z
1/4-x,1/2+y,3/4-z
-x,1/2-y,1/2-z
3/4+x,1/4+y,1/2-z
-x,1/4+y,1/4+z
3/4+x,1/2-y,1/4+z
1/2+x,y,1/2+z
3/4-x,1/4-y,1/2+z
1/2+x,1/4-y,3/4-z
3/4-x,y,3/4-z
1/2-x,-y,1/2-z
1/4+x,3/4+y,1/2-z
1/2-x,3/4+y,1/4+z
1/4+x,-y,1/4+z
1/2+x,1/2+y,z
3/4-x,3/4-y,z
1/2+x,3/4-y,1/4-z
3/4-x,1/2+y,1/4-z
1/2-x,1/2-y,-z
1/4+x,1/4+y,-z
1/2-x,1/4+y,3/4+z
1/4+x,1/2-y,3/4+z
loop_
_atom_site_type_symbol
_atom_site_label
_atom_site_fract_x
_atom_site_fract_y
_atom_site_fract_z
Si Si1 0.342474 0.270239 0.978220
Si Si2 0.125000 0.125000 0.125000
Si Si3 0.445745 0.584262 0.394036
Si Si4 0.745925 0.366594 0.219151
Si Si5 0.057364 0.654761 0.187211
Si Si6 0.274093 0.044728 0.485806
O O1 0.337698 0.313152 0.916884
O O2 0.308754 0.182055 0.976137
O O3 0.311574 0.336428 0.020580
O O4 0.409465 0.245868 0.003240
O O5 0.375000 0.597762 0.375000
O O6 0.492180 0.574454 0.341948
O O7 0.448857 0.505641 0.436145
O O8 0.469708 0.667763 0.424822
O O9 0.731591 0.289448 0.261878
O O10 0.125000 0.625000 0.210711
O O11 0.050053 0.625000 0.125000
O O12 0.001590 0.616472 0.223380
#
# Coordination Sequence:
#
# PCOD8286663 Si02
#       6
#    32   8  32  32  32  32
#     4  11  24  39  67  98 133 170 220 279 330 403
#     4  12  20  44  72  96 124 186 236 260 336 420
#     4  12  22  42  71  97 126 178 231 272 335 417
#     4  11  23  41  63  98 138 166 221 286 326 396
#     4  11  22  42  69  95 134 176 226 284 339 403
#     4  12  23  42  69  97 131 179 223 278 344 400
#
# _framework density 20.387179
#
# number of rings (size 3 to 8) (size 9 to 14) (size 15 to 20)
#    0.000    0.571    7.619    1.714    0.000    0.000 
#    0.000    3.810    0.000    0.000    0.000    0.000 
#    0.000    0.000    0.000    0.000    0.000    0.000 
#
# Total GULP energy -520387.359245 kJ/mol
# GULP energy per Si atom -12390.175220 kJ/mol
# Density = 2.034078 g / cm^3
# Si number density = 20.387179 Si / 1000 Ang^3
#
#
#
# Elastic Constant Matrix: (Units=GPa)
#
#
# Indices 1 2 3 4 5 6 
#
# 1 86.4032 49.9213 58.3906 0.0000 0.0000 0.0000
# 2 49.9213 179.8296 62.2020 0.0000 0.0000 0.0000
# 3 58.3906 62.2020 70.8803 0.0000 0.0000 0.0000
# 4 0.0000 0.0000 0.0000 51.9241 0.0000 0.0000
# 5 0.0000 0.0000 0.0000 0.0000 28.9630 0.0000
# 6 0.0000 0.0000 0.0000 0.0000 0.0000 6.0735
#
#
#
# Elastic Compliance Matrix: (Units=1/GPa)
#
#
# Indices 1 2 3 4 5 6 
#
# 1 0.026118 0.000275 -0.021758 0.000000 0.000000 0.000000
# 2 0.000275 0.007987 -0.007236 0.000000 0.000000 0.000000
# 3 -0.021758 -0.007236 0.038382 0.000000 0.000000 0.000000
# 4 0.000000 0.000000 0.000000 0.019259 0.000000 0.000000
# 5 0.000000 0.000000 0.000000 0.000000 0.034527 0.000000
# 6 0.000000 0.000000 0.000000 0.000000 0.000000 0.164651
#
#
# Mechanical properties :
#
#
# Convention : Reuss Voigt Hill
#
# Bulk Modulus (GPa) = 66.44137 75.34897 70.89517
# Shear Modulus (GPa) = 14.14916 28.49872 21.32394
#
# Velocity S-wave (km/s) = 2.63729 3.74287 3.23762
# Velocity P-wave (km/s) = 6.47567 7.46445 6.98757
#
# Compressibility (1/GPa) = 0.01505086
#
# Stress axis : x y z
#
# Youngs Moduli (GPa) = 38.28755 125.19792 26.05374
#
# Poissons Ratio (x) = -0.03447 0.56686
# Poissons Ratio (y) = -0.01054 0.18853
# Poissons Ratio (z) = 0.83304 0.90596
#
# Static dielectric constant tensor:
#      x y z
#    x 3.790250 0.000000 0.000000 
#    y 0.000000 4.348590 0.000000 
#    z 0.000000 0.000000 3.684310 
# 
# 
# High freq. dielectric constant tensor:
#      x y z
#    x 1.779420 0.000000 0.000000 
#    y 0.000000 1.840370 0.000000 
#    z 0.000000 0.000000 1.772040 
# 
# From -- ./inp_files/53630.got.cif
#   From: 2010.03.12/outbox.cif.g09.slc.cpg/sg70_27_cif.got.tgz:53630.got - 2010.04.16 13:46:32.
