data_PCOD8286548
_publ_section_title
;
Structure prediction by ZEFSAII (Michael W. Deem and Ramdas Pophale) SiO2 
 PCOD8286548
Probable space group: F D D D
;
_chemical_formula_sum "Si O2"
_cell_formula_units_Z 208
_cell_length_a 20.228500
_cell_length_b 27.876438
_cell_length_c 16.609657
_cell_angle_alpha 90.000000
_cell_angle_beta 90.000000
_cell_angle_gamma 90.000000
_cell_volume 9366.161101
_symmetry_space_group_name_H-M "F D D D"
_symmetry_group_IT_number 70
_space_group.IT_coordinate_system_code '2'
_symmetry_cell_setting 'orthorhombic'
loop_
_space_group_symop_operation_xyz
x,y,z
1/4-x,1/4-y,z
x,1/4-y,1/4-z
1/4-x,y,1/4-z
-x,-y,-z
3/4+x,3/4+y,-z
-x,3/4+y,3/4+z
3/4+x,-y,3/4+z
x,1/2+y,1/2+z
1/4-x,3/4-y,1/2+z
x,3/4-y,3/4-z
1/4-x,1/2+y,3/4-z
-x,1/2-y,1/2-z
3/4+x,1/4+y,1/2-z
-x,1/4+y,1/4+z
3/4+x,1/2-y,1/4+z
1/2+x,y,1/2+z
3/4-x,1/4-y,1/2+z
1/2+x,1/4-y,3/4-z
3/4-x,y,3/4-z
1/2-x,-y,1/2-z
1/4+x,3/4+y,1/2-z
1/2-x,3/4+y,1/4+z
1/4+x,-y,1/4+z
1/2+x,1/2+y,z
3/4-x,3/4-y,z
1/2+x,3/4-y,1/4-z
3/4-x,1/2+y,1/4-z
1/2-x,1/2-y,-z
1/4+x,1/4+y,-z
1/2-x,1/4+y,3/4+z
1/4+x,1/2-y,3/4+z
loop_
_atom_site_type_symbol
_atom_site_label
_atom_site_fract_x
_atom_site_fract_y
_atom_site_fract_z
Si Si1 0.070806 0.517118 0.691831
Si Si2 0.420478 0.018153 0.702644
Si Si3 0.907055 0.824293 0.245235
Si Si4 0.579087 0.862053 0.548366
Si Si5 0.810642 0.343385 0.169440
Si Si6 0.100705 0.433907 0.803896
Si Si7 0.238196 0.125000 0.625000
O O1 0.125000 0.532198 0.625000
O O2 0.072745 0.556172 0.760471
O O3 0.094357 0.466613 0.725979
O O4 0.993973 0.512282 0.663420
O O5 0.419036 0.056061 0.775262
O O6 0.371954 0.035836 0.631865
O O7 0.395660 0.969239 0.746440
O O8 0.875000 0.875000 0.226509
O O9 0.951931 0.815207 0.165657
O O10 0.946150 0.833499 0.328668
O O11 0.625000 0.872549 0.625000
O O12 0.503661 0.876387 0.567576
O O13 0.597020 0.892842 0.469390
O O14 0.875000 0.375000 0.167500
O O15 0.031562 0.406439 0.814784
#
# Coordination Sequence:
#
# PCOD8286548 Si02
#       7
#    32  32  32  32  32  32  16
#     4  11  26  44  70 102 133 186 238 294 370 432
#     4  11  25  46  71 102 145 184 243 295 363 443
#     4  11  24  44  70 105 142 183 237 301 357 437
#     4  11  24  44  71 103 141 191 237 302 370 433
#     4  10  24  44  68 100 139 184 237 295 365 436
#     4  12  24  46  67 104 141 183 238 303 354 437
#     4  12  25  42  74 102 141 192 236 288 366 426
#
# _framework density 22.207604
#
# number of rings (size 3 to 8) (size 9 to 14) (size 15 to 20)
#    0.000    0.923    3.077    2.538    2.154    8.923 
#    0.000    0.000    0.000    0.000    0.000    0.000 
#    0.000    0.000    0.000    0.000    0.000    0.000 
#
# Total GULP energy -644378.193061 kJ/mol
# GULP energy per Si atom -12391.888328 kJ/mol
# Density = 2.215706 g / cm^3
# Si number density = 22.207604 Si / 1000 Ang^3
#
#
#
# Elastic Constant Matrix: (Units=GPa)
#
#
# Indices 1 2 3 4 5 6 
#
# 1 149.8827 52.1218 50.1711 0.0000 0.0000 0.0000
# 2 52.1218 96.5659 27.2291 0.0000 0.0000 0.0000
# 3 50.1711 27.2291 101.3219 0.0000 0.0000 0.0000
# 4 0.0000 0.0000 0.0000 37.6733 0.0000 0.0000
# 5 0.0000 0.0000 0.0000 0.0000 31.5915 0.0000
# 6 0.0000 0.0000 0.0000 0.0000 0.0000 28.4331
#
#
#
# Elastic Compliance Matrix: (Units=1/GPa)
#
#
# Indices 1 2 3 4 5 6 
#
# 1 0.009233 -0.003997 -0.003497 0.000000 0.000000 0.000000
# 2 -0.003997 0.012935 -0.001497 0.000000 0.000000 0.000000
# 3 -0.003497 -0.001497 0.012004 0.000000 0.000000 0.000000
# 4 0.000000 0.000000 0.000000 0.026544 0.000000 0.000000
# 5 0.000000 0.000000 0.000000 0.000000 0.031654 0.000000
# 6 0.000000 0.000000 0.000000 0.000000 0.000000 0.035170
#
#
# Mechanical properties :
#
#
# Convention : Reuss Voigt Hill
#
# Bulk Modulus (GPa) = 61.77289 67.42383 64.59836
# Shear Modulus (GPa) = 33.13033 34.08948 33.60991
#
# Velocity S-wave (km/s) = 3.86663 3.92220 3.89452
# Velocity P-wave (km/s) = 6.91455 7.13710 7.02670
#
# Compressibility (1/GPa) = 0.01618833
#
# Stress axis : x y z
#
# Youngs Moduli (GPa) = 108.31150 77.30845 83.30797
#
# Poissons Ratio (x) = 0.30901 0.29137
# Poissons Ratio (y) = 0.43294 0.12471
# Poissons Ratio (z) = 0.37882 0.11573
#
# Static dielectric constant tensor:
#      x y z
#    x 5.899260 0.000000 0.000000 
#    y 0.000000 4.044350 0.000000 
#    z 0.000000 0.000000 4.820770 
# 
# 
# High freq. dielectric constant tensor:
#      x y z
#    x 1.879690 0.000000 0.000000 
#    y 0.000000 1.877420 0.000000 
#    z 0.000000 0.000000 1.882860 
# 
# From -- ./inp_files/36728.got.cif
#   From: 2010.03.12/outbox.cif.g09.slc.cpg/sg70_19_cif.got.tgz:36728.got - 2010.04.16 13:46:32.
