data_PCOD8286867
_publ_section_title
;
Structure prediction by ZEFSAII (Michael W. Deem and Ramdas Pophale) SiO2 
 PCOD8286867
Probable space group: F D D D
;
_chemical_formula_sum "Si O2"
_cell_formula_units_Z 192
_cell_length_a 9.413334
_cell_length_b 30.584782
_cell_length_c 28.675388
_cell_angle_alpha 90.000000
_cell_angle_beta 90.000000
_cell_angle_gamma 90.000000
_cell_volume 8255.780938
_symmetry_space_group_name_H-M "F D D D"
_symmetry_group_IT_number 70
_space_group.IT_coordinate_system_code '2'
_symmetry_cell_setting 'orthorhombic'
loop_
_space_group_symop_operation_xyz
x,y,z
1/4-x,1/4-y,z
x,1/4-y,1/4-z
1/4-x,y,1/4-z
-x,-y,-z
3/4+x,3/4+y,-z
-x,3/4+y,3/4+z
3/4+x,-y,3/4+z
x,1/2+y,1/2+z
1/4-x,3/4-y,1/2+z
x,3/4-y,3/4-z
1/4-x,1/2+y,3/4-z
-x,1/2-y,1/2-z
3/4+x,1/4+y,1/2-z
-x,1/4+y,1/4+z
3/4+x,1/2-y,1/4+z
1/2+x,y,1/2+z
3/4-x,1/4-y,1/2+z
1/2+x,1/4-y,3/4-z
3/4-x,y,3/4-z
1/2-x,-y,1/2-z
1/4+x,3/4+y,1/2-z
1/2-x,3/4+y,1/4+z
1/4+x,-y,1/4+z
1/2+x,1/2+y,z
3/4-x,3/4-y,z
1/2+x,3/4-y,1/4-z
3/4-x,1/2+y,1/4-z
1/2-x,1/2-y,-z
1/4+x,1/4+y,-z
1/2-x,1/4+y,3/4+z
1/4+x,1/2-y,3/4+z
loop_
_atom_site_type_symbol
_atom_site_label
_atom_site_fract_x
_atom_site_fract_y
_atom_site_fract_z
Si Si1 0.375000 0.598589 0.375000
Si Si2 0.625000 0.204026 0.125000
Si Si3 0.606267 0.223874 0.381981
Si Si4 0.898734 0.947425 0.018716
Si Si5 0.293282 0.754794 0.713995
Si Si6 0.346646 0.126445 0.274806
Si Si7 0.456939 0.934368 0.972674
O O1 0.514077 0.568745 0.380340
O O2 0.375650 0.630133 0.420099
O O3 0.492209 0.234066 0.112090
O O4 0.594616 0.174048 0.170172
O O5 0.685906 0.217766 0.430951
O O6 0.718836 0.231446 0.340130
O O7 0.761993 0.916618 0.022427
O O8 0.033709 0.918342 0.003006
O O9 0.859507 0.985364 0.981233
O O10 0.418671 0.720116 0.720603
O O11 0.329366 0.797297 0.745243
O O12 0.485877 0.139021 0.244926
#
# Coordination Sequence:
#
# PCOD8286867 Si02
#       7
#    16  16  32  32  32  32  32
#     4   9  14  22  36  54  78 124 178 233 294 344
#     4   9  14  20  36  56  84 120 179 239 296 344
#     4   9  14  21  36  55  81 122 177 241 295 337
#     4   9  16  24  34  56  88 126 177 246 294 345
#     4   9  14  22  35  54  83 123 178 238 293 346
#     4   9  16  24  35  54  88 128 177 237 302 349
#     4   9  14  22  34  56  82 125 178 235 296 350
#
# _framework density 23.256432
#
# number of rings (size 3 to 8) (size 9 to 14) (size 15 to 20)
#    0.000    3.000    3.333    0.000    0.000    0.000 
#    0.000    0.000    0.000    0.000    0.000    1.167 
#    0.000    0.000    0.000    4.500    2.000    1.583 
#
# Total GULP energy -595046.220621 kJ/mol
# GULP energy per Si atom -12396.796263 kJ/mol
# Density = 2.320350 g / cm^3
# Si number density = 23.256432 Si / 1000 Ang^3
#
#
#
# Elastic Constant Matrix: (Units=GPa)
#
#
# Indices 1 2 3 4 5 6 
#
# 1 65.8395 38.5825 64.0118 0.0000 0.0000 0.0000
# 2 38.5825 86.9576 65.9130 0.0000 0.0000 0.0000
# 3 64.0118 65.9130 182.1357 0.0000 0.0000 0.0000
# 4 0.0000 0.0000 0.0000 12.8078 0.0000 0.0000
# 5 0.0000 0.0000 0.0000 0.0000 24.6754 0.0000
# 6 0.0000 0.0000 0.0000 0.0000 0.0000 12.5338
#
#
#
# Elastic Compliance Matrix: (Units=1/GPa)
#
#
# Indices 1 2 3 4 5 6 
#
# 1 0.025268 -0.006173 -0.006646 0.000000 0.000000 0.000000
# 2 -0.006173 0.017355 -0.004111 0.000000 0.000000 0.000000
# 3 -0.006646 -0.004111 0.009314 0.000000 0.000000 0.000000
# 4 0.000000 0.000000 0.000000 0.078077 0.000000 0.000000
# 5 0.000000 0.000000 0.000000 0.000000 0.040526 0.000000
# 6 0.000000 0.000000 0.000000 0.000000 0.000000 0.079784
#
#
# Mechanical properties :
#
#
# Convention : Reuss Voigt Hill
#
# Bulk Modulus (GPa) = 55.32323 74.66081 64.99202
# Shear Modulus (GPa) = 17.22882 21.09843 19.16363
#
# Velocity S-wave (km/s) = 2.72475 3.01526 2.87368
# Velocity P-wave (km/s) = 5.80853 6.65548 6.24638
#
# Compressibility (1/GPa) = 0.01807559
#
# Stress axis : x y z
#
# Youngs Moduli (GPa) = 39.57580 57.62026 107.36520
#
# Poissons Ratio (x) = 0.35571 0.71359
# Poissons Ratio (y) = 0.24432 0.44137
# Poissons Ratio (z) = 0.26304 0.23687
#
# Static dielectric constant tensor:
#      x y z
#    x 3.925470 0.000000 0.000000 
#    y 0.000000 3.954870 0.000000 
#    z 0.000000 0.000000 4.269500 
# 
# 
# High freq. dielectric constant tensor:
#      x y z
#    x 1.902810 0.000000 0.000000 
#    y 0.000000 1.906300 0.000000 
#    z 0.000000 0.000000 1.913170 
# 
# From -- ./inp_files/64982.got.cif
#   From: 2010.03.12/outbox.cif.g09.slc.cpg/sg70_33_cif.got.tgz:64982.got - 2010.04.16 13:46:32.
