data_PCOD8286603
_publ_section_title
;
Structure prediction by ZEFSAII (Michael W. Deem and Ramdas Pophale) SiO2 
 PCOD8286603
Probable space group: F D D D
;
_chemical_formula_sum "Si O2"
_cell_formula_units_Z 128
_cell_length_a 16.379393
_cell_length_b 25.768119
_cell_length_c 14.573432
_cell_angle_alpha 90.000000
_cell_angle_beta 90.000000
_cell_angle_gamma 90.000000
_cell_volume 6150.952307
_symmetry_space_group_name_H-M "F D D D"
_symmetry_group_IT_number 70
_space_group.IT_coordinate_system_code '2'
_symmetry_cell_setting 'orthorhombic'
loop_
_space_group_symop_operation_xyz
x,y,z
1/4-x,1/4-y,z
x,1/4-y,1/4-z
1/4-x,y,1/4-z
-x,-y,-z
3/4+x,3/4+y,-z
-x,3/4+y,3/4+z
3/4+x,-y,3/4+z
x,1/2+y,1/2+z
1/4-x,3/4-y,1/2+z
x,3/4-y,3/4-z
1/4-x,1/2+y,3/4-z
-x,1/2-y,1/2-z
3/4+x,1/4+y,1/2-z
-x,1/4+y,1/4+z
3/4+x,1/2-y,1/4+z
1/2+x,y,1/2+z
3/4-x,1/4-y,1/2+z
1/2+x,1/4-y,3/4-z
3/4-x,y,3/4-z
1/2-x,-y,1/2-z
1/4+x,3/4+y,1/2-z
1/2-x,3/4+y,1/4+z
1/4+x,-y,1/4+z
1/2+x,1/2+y,z
3/4-x,3/4-y,z
1/2+x,3/4-y,1/4-z
3/4-x,1/2+y,1/4-z
1/2-x,1/2-y,-z
1/4+x,1/4+y,-z
1/2-x,1/4+y,3/4+z
1/4+x,1/2-y,3/4+z
loop_
_atom_site_type_symbol
_atom_site_label
_atom_site_fract_x
_atom_site_fract_y
_atom_site_fract_z
Si Si1 0.478478 0.760769 0.564357
Si Si2 0.925199 0.957681 0.164470
Si Si3 0.464942 0.134019 0.363889
Si Si4 0.040519 0.078414 0.557096
O O1 0.380671 0.762769 0.587970
O O2 0.502284 0.741826 0.461769
O O3 0.517547 0.817684 0.570057
O O4 0.517719 0.723898 0.640812
O O5 0.869425 0.934426 0.245307
O O6 0.969306 0.910296 0.112852
O O7 0.375000 0.111055 0.375000
O O8 0.467832 0.152996 0.258264
O O9 0.061538 0.125000 0.625000
#
# Coordination Sequence:
#
# PCOD8286603 Si02
#       4
#    32  32  32  32
#     4  11  21  35  57  90 118 153 190 249 308 357
#     4  11  23  36  59  86 122 155 193 242 307 356
#     4  11  22  36  53  85 120 156 195 243 296 359
#     4  11  20  33  58  87 117 144 186 243 304 354
#
# _framework density 20.809785000000002
#
# number of rings (size 3 to 8) (size 9 to 14) (size 15 to 20)
#    0.000    1.000    2.500    9.750    3.500    0.000 
#    0.000    1.250    0.000    0.000    0.000    0.000 
#    0.000    0.000    0.000    0.000    0.000    0.000 
#
# Total GULP energy -396538.371311 kJ/mol
# GULP energy per Si atom -12391.824103 kJ/mol
# Density = 2.076242 g / cm^3
# Si number density = 20.809785 Si / 1000 Ang^3
#
#
#
# Elastic Constant Matrix: (Units=GPa)
#
#
# Indices 1 2 3 4 5 6 
#
# 1 144.1126 57.1179 37.8684 0.0000 0.0000 0.0000
# 2 57.1179 115.8971 20.1554 0.0000 0.0000 0.0000
# 3 37.8684 20.1554 35.3598 0.0000 0.0000 0.0000
# 4 0.0000 0.0000 0.0000 17.7264 0.0000 0.0000
# 5 0.0000 0.0000 0.0000 0.0000 36.7809 0.0000
# 6 0.0000 0.0000 0.0000 0.0000 0.0000 -32.3631
#
#
#
# Elastic Compliance Matrix: (Units=1/GPa)
#
#
# Indices 1 2 3 4 5 6 
#
# 1 0.010933 -0.003721 -0.009588 0.000000 0.000000 0.000000
# 2 -0.003721 0.010844 -0.002196 0.000000 0.000000 0.000000
# 3 -0.009588 -0.002196 0.039801 0.000000 0.000000 0.000000
# 4 0.000000 0.000000 0.000000 0.056413 0.000000 0.000000
# 5 0.000000 0.000000 0.000000 0.000000 0.027188 0.000000
# 6 0.000000 0.000000 0.000000 0.000000 0.000000 -0.030899
#
#
# Mechanical properties :
#
#
# Convention : Reuss Voigt Hill
#
# Bulk Modulus (GPa) = 32.71429 58.40589 45.56009
# Shear Modulus (GPa) = 32.15865 16.44402 24.30133
#
# Velocity S-wave (km/s) = 3.93537 2.81411 3.42099
# Velocity P-wave (km/s) = 6.03360 6.21984 6.12743
#
# Compressibility (1/GPa) = 0.03056769
#
# Stress axis : x y z
#
# Youngs Moduli (GPa) = 91.46514 92.21639 25.12516
#
# Poissons Ratio (x) = 0.34312 0.24090
# Poissons Ratio (y) = 0.34032 0.05519
# Poissons Ratio (z) = 0.87696 0.20255
#
# Static dielectric constant tensor:
#      x y z
#    x 3.974670 0.000000 0.000000 
#    y 0.000000 4.019880 0.000000 
#    z 0.000000 0.000000 3.707970 
# 
# 
# High freq. dielectric constant tensor:
#      x y z
#    x 1.816400 0.000000 0.000000 
#    y 0.000000 1.826550 0.000000 
#    z 0.000000 0.000000 1.766400 
# 
# From -- ./inp_files/34809.got.cif
#   From: 2010.03.12/outbox.cif.g09.slc.cpg/sg70_18_cif.got.tgz:34809.got - 2010.04.16 13:46:32.
