data_PCOD8286397
_publ_section_title
;
Structure prediction by ZEFSAII (Michael W. Deem and Ramdas Pophale) SiO2 
 PCOD8286397
Probable space group: F D D D
;
_chemical_formula_sum "Si O2"
_cell_formula_units_Z 136
_cell_length_a 19.149395
_cell_length_b 18.781416
_cell_length_c 19.801917
_cell_angle_alpha 90.000000
_cell_angle_beta 90.000000
_cell_angle_gamma 90.000000
_cell_volume 7121.813976
_symmetry_space_group_name_H-M "F D D D"
_symmetry_group_IT_number 70
_space_group.IT_coordinate_system_code '2'
_symmetry_cell_setting 'orthorhombic'
loop_
_space_group_symop_operation_xyz
x,y,z
1/4-x,1/4-y,z
x,1/4-y,1/4-z
1/4-x,y,1/4-z
-x,-y,-z
3/4+x,3/4+y,-z
-x,3/4+y,3/4+z
3/4+x,-y,3/4+z
x,1/2+y,1/2+z
1/4-x,3/4-y,1/2+z
x,3/4-y,3/4-z
1/4-x,1/2+y,3/4-z
-x,1/2-y,1/2-z
3/4+x,1/4+y,1/2-z
-x,1/4+y,1/4+z
3/4+x,1/2-y,1/4+z
1/2+x,y,1/2+z
3/4-x,1/4-y,1/2+z
1/2+x,1/4-y,3/4-z
3/4-x,y,3/4-z
1/2-x,-y,1/2-z
1/4+x,3/4+y,1/2-z
1/2-x,3/4+y,1/4+z
1/4+x,-y,1/4+z
1/2+x,1/2+y,z
3/4-x,3/4-y,z
1/2+x,3/4-y,1/4-z
3/4-x,1/2+y,1/4-z
1/2-x,1/2-y,-z
1/4+x,1/4+y,-z
1/2-x,1/4+y,3/4+z
1/4+x,1/2-y,3/4+z
loop_
_atom_site_type_symbol
_atom_site_label
_atom_site_fract_x
_atom_site_fract_y
_atom_site_fract_z
Si Si1 0.625000 0.125000 0.625000
Si Si2 0.748400 0.444346 0.309535
Si Si3 0.235515 0.801784 0.939214
Si Si4 0.061414 0.568280 0.195093
Si Si5 0.326974 0.702912 0.689946
O O1 0.577681 0.172373 0.674600
O O2 0.750000 0.500000 0.250000
O O3 0.701172 0.375607 0.290347
O O4 0.717353 0.482100 0.376593
O O5 0.292351 0.786035 0.879237
O O6 0.245126 0.882949 0.965766
O O7 0.156383 0.796563 0.914197
O O8 0.250000 0.750000 0.000000
O O9 0.125000 0.625000 0.194403
O O10 0.070831 0.503959 0.245988
#
# Coordination Sequence:
#
# PCOD8286397 Si02
#       5
#     8  32  32  32  32
#     4   8  20  40  64  88 116 164 204 254 332 352
#     4  10  22  42  64  87 125 162 210 267 305 377
#     4  11  22  37  62  88 126 170 200 256 318 378
#     4  11  22  39  60  89 129 160 206 261 309 371
#     4  10  23  40  60  93 120 163 209 250 321 369
#
# _framework density 19.096259
#
# number of rings (size 3 to 8) (size 9 to 14) (size 15 to 20)
#    0.000    1.882    2.353    4.235    0.000    9.412 
#    2.118    0.000    0.000    0.000    0.000    0.000 
#    0.000    0.000    0.000    0.000    0.000    0.000 
#
# Total GULP energy -421195.408621 kJ/mol
# GULP energy per Si atom -12388.100254 kJ/mol
# Density = 1.905279 g / cm^3
# Si number density = 19.096259 Si / 1000 Ang^3
#
#
#
# Elastic Constant Matrix: (Units=GPa)
#
#
# Indices 1 2 3 4 5 6 
#
# 1 133.8946 36.9110 63.3507 0.0000 0.0000 0.0000
# 2 36.9110 97.1795 97.8032 0.0000 0.0000 0.0000
# 3 63.3507 97.8032 156.6731 0.0000 0.0000 0.0000
# 4 0.0000 0.0000 0.0000 57.7817 0.0000 0.0000
# 5 0.0000 0.0000 0.0000 0.0000 26.8932 0.0000
# 6 0.0000 0.0000 0.0000 0.0000 0.0000 26.0065
#
#
#
# Elastic Compliance Matrix: (Units=1/GPa)
#
#
# Indices 1 2 3 4 5 6 
#
# 1 0.009252 0.000675 -0.004162 0.000000 0.000000 0.000000
# 2 0.000675 0.027730 -0.017584 0.000000 0.000000 0.000000
# 3 -0.004162 -0.017584 0.019042 0.000000 0.000000 0.000000
# 4 0.000000 0.000000 0.000000 0.017307 0.000000 0.000000
# 5 0.000000 0.000000 0.000000 0.000000 0.037184 0.000000
# 6 0.000000 0.000000 0.000000 0.000000 0.000000 0.038452
#
#
# Mechanical properties :
#
#
# Convention : Reuss Voigt Hill
#
# Bulk Modulus (GPa) = 72.03261 87.09743 79.56502
# Shear Modulus (GPa) = 25.54457 34.78178 30.16318
#
# Velocity S-wave (km/s) = 3.66139 4.27241 3.97865
# Velocity P-wave (km/s) = 7.46171 8.36939 7.92855
#
# Compressibility (1/GPa) = 0.01388260
#
# Stress axis : x y z
#
# Youngs Moduli (GPa) = 108.08649 36.06168 52.51464
#
# Poissons Ratio (x) = -0.02434 0.21858
# Poissons Ratio (y) = -0.07296 0.92339
# Poissons Ratio (z) = 0.44989 0.63409
#
# Static dielectric constant tensor:
#      x y z
#    x 4.241460 0.000000 0.000000 
#    y 0.000000 3.237580 0.000000 
#    z 0.000000 0.000000 3.466680 
# 
# 
# High freq. dielectric constant tensor:
#      x y z
#    x 1.768040 0.000000 0.000000 
#    y 0.000000 1.728900 0.000000 
#    z 0.000000 0.000000 1.738510 
# 
# From -- ./inp_files/34700.got.cif
#   From: 2010.03.12/outbox.cif.g09.slc.cpg/sg70_18_cif.got.tgz:34700.got - 2010.04.16 13:46:32.
