data_PCOD8286537
_publ_section_title
;
Structure prediction by ZEFSAII (Michael W. Deem and Ramdas Pophale) SiO2 
 PCOD8286537
Probable space group: F D D D
;
_chemical_formula_sum "Si O2"
_cell_formula_units_Z 224
_cell_length_a 18.064464
_cell_length_b 18.130390
_cell_length_c 30.779831
_cell_angle_alpha 90.000000
_cell_angle_beta 90.000000
_cell_angle_gamma 90.000000
_cell_volume 10080.880280
_symmetry_space_group_name_H-M "F D D D"
_symmetry_group_IT_number 70
_space_group.IT_coordinate_system_code '2'
_symmetry_cell_setting 'orthorhombic'
loop_
_space_group_symop_operation_xyz
x,y,z
1/4-x,1/4-y,z
x,1/4-y,1/4-z
1/4-x,y,1/4-z
-x,-y,-z
3/4+x,3/4+y,-z
-x,3/4+y,3/4+z
3/4+x,-y,3/4+z
x,1/2+y,1/2+z
1/4-x,3/4-y,1/2+z
x,3/4-y,3/4-z
1/4-x,1/2+y,3/4-z
-x,1/2-y,1/2-z
3/4+x,1/4+y,1/2-z
-x,1/4+y,1/4+z
3/4+x,1/2-y,1/4+z
1/2+x,y,1/2+z
3/4-x,1/4-y,1/2+z
1/2+x,1/4-y,3/4-z
3/4-x,y,3/4-z
1/2-x,-y,1/2-z
1/4+x,3/4+y,1/2-z
1/2-x,3/4+y,1/4+z
1/4+x,-y,1/4+z
1/2+x,1/2+y,z
3/4-x,3/4-y,z
1/2+x,3/4-y,1/4-z
3/4-x,1/2+y,1/4-z
1/2-x,1/2-y,-z
1/4+x,1/4+y,-z
1/2-x,1/4+y,3/4+z
1/4+x,1/2-y,3/4+z
loop_
_atom_site_type_symbol
_atom_site_label
_atom_site_fract_x
_atom_site_fract_y
_atom_site_fract_z
Si Si1 0.737222 0.293173 0.870551
Si Si2 0.488506 0.652455 0.030029
Si Si3 0.338370 0.017501 0.952929
Si Si4 0.125000 0.625000 0.993948
Si Si5 0.291783 0.288889 0.865620
Si Si6 0.660801 0.269895 0.425987
Si Si7 0.125000 0.625000 0.771253
Si Si8 0.997439 0.205727 0.794289
O O1 0.771884 0.375000 0.875000
O O2 0.792609 0.243765 0.841401
O O3 0.655347 0.302008 0.852141
O O4 0.723956 0.256875 0.917097
O O5 0.511561 0.714422 0.066083
O O6 0.431099 0.588840 0.043370
O O7 0.461052 0.693844 0.988008
O O8 0.559976 0.611479 0.012703
O O9 0.412452 0.067010 0.944399
O O10 0.363395 0.940768 0.972881
O O11 0.053572 0.613107 0.962243
O O12 0.291070 0.375000 0.875000
O O13 0.375000 0.256992 0.875000
O O14 0.232954 0.247569 0.897055
O O15 0.627063 0.198307 0.449487
O O16 0.000000 0.250000 0.750000
#
# Coordination Sequence:
#
# PCOD8286537 Si02
#       8
#    32  32  32  16  32  32  16  32
#     4  12  24  43  73 101 138 186 241 290 354 437
#     4  11  23  42  71 102 143 187 241 294 361 434
#     4  11  24  43  68 106 137 184 236 291 350 433
#     4  10  24  43  69 100 139 183 218 294 352 410
#     4   9  19  40  67  99 133 184 242 292 357 426
#     4  11  25  41  71 102 142 190 239 304 360 436
#     4  12  24  47  69 104 147 183 238 299 375 430
#     4  10  24  42  68  98 139 179 232 282 351 418
#
# _framework density 22.220282999999998
#
# number of rings (size 3 to 8) (size 9 to 14) (size 15 to 20)
#    0.000    1.286    1.429    5.571   10.000    1.143 
#    0.000    0.000    0.000    0.000    0.000    0.000 
#    0.000    0.000    0.000    0.000    0.000    0.000 
#
# Total GULP energy -693947.470616 kJ/mol
# GULP energy per Si atom -12391.919118 kJ/mol
# Density = 2.216971 g / cm^3
# Si number density = 22.220283 Si / 1000 Ang^3
#
#
#
# Elastic Constant Matrix: (Units=GPa)
#
#
# Indices 1 2 3 4 5 6 
#
# 1 147.4086 10.1822 41.8776 0.0000 0.0000 0.0000
# 2 10.1822 31.1577 27.5335 0.0000 0.0000 0.0000
# 3 41.8776 27.5335 128.1754 0.0000 0.0000 0.0000
# 4 0.0000 0.0000 0.0000 33.6101 0.0000 0.0000
# 5 0.0000 0.0000 0.0000 0.0000 40.0587 0.0000
# 6 0.0000 0.0000 0.0000 0.0000 0.0000 0.3825
#
#
#
# Elastic Compliance Matrix: (Units=1/GPa)
#
#
# Indices 1 2 3 4 5 6 
#
# 1 0.007481 -0.000352 -0.002369 0.000000 0.000000 0.000000
# 2 -0.000352 0.039631 -0.008398 0.000000 0.000000 0.000000
# 3 -0.002369 -0.008398 0.010380 0.000000 0.000000 0.000000
# 4 0.000000 0.000000 0.000000 0.029753 0.000000 0.000000
# 5 0.000000 0.000000 0.000000 0.000000 0.024963 0.000000
# 6 0.000000 0.000000 0.000000 0.000000 0.000000 2.614588
#
#
# Mechanical properties :
#
#
# Convention : Reuss Voigt Hill
#
# Bulk Modulus (GPa) = 28.36503 51.76980 40.06742
# Shear Modulus (GPa) = 1.81108 29.95350 15.88229
#
# Velocity S-wave (km/s) = 0.90378 3.67553 2.67641
# Velocity P-wave (km/s) = 3.72588 6.43131 5.25566
#
# Compressibility (1/GPa) = 0.03525468
#
# Stress axis : x y z
#
# Youngs Moduli (GPa) = 133.67053 25.23272 96.34135
#
# Poissons Ratio (x) = 0.00887 0.22820
# Poissons Ratio (y) = 0.04700 0.80911
# Poissons Ratio (z) = 0.31662 0.21191
#
# Static dielectric constant tensor:
#      x y z
#    x 4.789600 0.000000 0.000000 
#    y 0.000000 3.609280 0.000000 
#    z 0.000000 0.000000 4.262960 
# 
# 
# High freq. dielectric constant tensor:
#      x y z
#    x 1.900750 0.000000 0.000000 
#    y 0.000000 1.839470 0.000000 
#    z 0.000000 0.000000 1.888680 
# 
# From -- ./inp_files/66830.got.cif
#   From: 2010.03.12/outbox.cif.g09.slc.cpg/sg70_34_cif.got.tgz:66830.got - 2010.04.16 13:46:32.
