data_PCOD8286920
_publ_section_title
;
Structure prediction by ZEFSAII (Michael W. Deem and Ramdas Pophale) SiO2 
 PCOD8286920
Probable space group: I M M M
;
_chemical_formula_sum "Si O2"
_cell_formula_units_Z 88
_cell_length_a 22.846598
_cell_length_b 16.497673
_cell_length_c 14.251816
_cell_angle_alpha 90.000000
_cell_angle_beta 90.000000
_cell_angle_gamma 90.000000
_cell_volume 5371.733246
_symmetry_space_group_name_H-M "I M M M"
_symmetry_group_IT_number 71
_symmetry_cell_setting 'orthorhombic'
loop_
_space_group_symop_operation_xyz
x,y,z
-x,-y,z
x,-y,-z
-x,y,-z
-x,-y,-z
x,y,-z
-x,y,z
x,-y,z
1/2+x,1/2+y,1/2+z
1/2-x,1/2-y,1/2+z
1/2+x,1/2-y,1/2-z
1/2-x,1/2+y,1/2-z
1/2-x,1/2-y,1/2-z
1/2+x,1/2+y,1/2-z
1/2-x,1/2+y,1/2+z
1/2+x,1/2-y,1/2+z
loop_
_atom_site_type_symbol
_atom_site_label
_atom_site_fract_x
_atom_site_fract_y
_atom_site_fract_z
Si Si1 0.829562 0.188415 0.178750
Si Si2 0.251880 0.826717 0.347745
Si Si3 0.099754 0.000000 0.387630
Si Si4 0.306970 0.219768 0.000000
Si Si5 0.063732 0.167629 0.687359
Si Si6 0.064947 0.730478 0.500000
Si Si7 0.202402 0.902954 0.000000
Si Si8 0.728811 0.500000 0.104999
O O1 0.774032 0.165244 0.243346
O O2 0.813826 0.279711 0.143952
O O3 0.890224 0.191705 0.233130
O O4 0.833345 0.125303 0.092372
O O5 0.203833 0.779441 0.411147
O O6 0.266017 0.918949 0.376883
O O7 0.067601 0.924537 0.343024
O O8 0.094327 0.000000 0.500000
O O9 0.165765 0.000000 0.343728
O O10 0.373178 0.181148 0.000000
O O11 0.265323 0.141460 0.000000
O O12 0.070846 0.217431 0.592797
O O13 0.000000 0.183588 0.732189
O O14 0.000000 0.685398 0.500000
O O15 0.210225 0.000000 0.000000
O O16 0.707531 0.500000 0.000000
#
# Coordination Sequence:
#
# PCOD8286920 Si02
#       8
#    16  16   8   8  16   8   8   8
#     4  10  21  36  49  67 100 133 176 210 242 278
#     4  10  19  31  52  75 100 131 156 207 256 301
#     4  11  19  28  43  74 114 135 154 195 247 308
#     4  10  16  35  52  74 107 125 155 202 260 303
#     4  11  21  32  49  72 101 136 168 199 245 302
#     4  10  18  29  48  77 105 126 154 193 253 319
#     4  10  24  36  50  68  94 139 181 213 238 277
#     4  11  18  27  52  81 108 127 151 193 265 320
#
# _framework density 16.38205
#
# number of rings (size 3 to 8) (size 9 to 14) (size 15 to 20)
#    0.000    1.636    5.455    0.273    2.545    0.364 
#    0.000    0.455    0.000    0.818    0.000    0.636 
#    0.000    0.727    0.000    0.000    0.000    0.000 
#
# Total GULP energy -545078.249455 kJ/mol
# GULP energy per Si atom -12388.142033 kJ/mol
# Density = 1.634476 g / cm^3
# Si number density = 16.382050 Si / 1000 Ang^3
#
#
#
# Elastic Constant Matrix: (Units=GPa)
#
#
# Indices 1 2 3 4 5 6 
#
# 1 115.4874 41.6505 38.9855 0.0000 0.0000 0.0000
# 2 41.6505 93.1316 27.7249 0.0000 0.0000 0.0000
# 3 38.9855 27.7249 86.5347 0.0000 0.0000 0.0000
# 4 0.0000 0.0000 0.0000 17.3926 0.0000 0.0000
# 5 0.0000 0.0000 0.0000 0.0000 27.1410 0.0000
# 6 0.0000 0.0000 0.0000 0.0000 0.0000 11.3374
#
#
#
# Elastic Compliance Matrix: (Units=1/GPa)
#
#
# Indices 1 2 3 4 5 6 
#
# 1 0.011385 -0.003941 -0.003867 0.000000 0.000000 0.000000
# 2 -0.003941 0.013234 -0.002465 0.000000 0.000000 0.000000
# 3 -0.003867 -0.002465 0.014088 0.000000 0.000000 0.000000
# 4 0.000000 0.000000 0.000000 0.057496 0.000000 0.000000
# 5 0.000000 0.000000 0.000000 0.000000 0.036845 0.000000
# 6 0.000000 0.000000 0.000000 0.000000 0.000000 0.088204
#
#
# Mechanical properties :
#
#
# Convention : Reuss Voigt Hill
#
# Bulk Modulus (GPa) = 55.05800 56.87505 55.96653
# Shear Modulus (GPa) = 20.17354 23.62705 21.90030
#
# Velocity S-wave (km/s) = 3.51300 3.80182 3.66026
# Velocity P-wave (km/s) = 7.08072 7.35289 7.21809
#
# Compressibility (1/GPa) = 0.01816267
#
# Stress axis : x y z
#
# Youngs Moduli (GPa) = 87.83103 75.56555 70.98367
#
# Poissons Ratio (x) = 0.29778 0.27448
# Poissons Ratio (y) = 0.34612 0.17494
# Poissons Ratio (z) = 0.33963 0.18623
#
# Static dielectric constant tensor:
#      x y z
#    x 3.149820 0.000000 0.000000 
#    y 0.000000 3.171690 0.000000 
#    z 0.000000 0.000000 3.190310 
# 
# 
# High freq. dielectric constant tensor:
#      x y z
#    x 1.610670 0.000000 0.000000 
#    y 0.000000 1.608760 0.000000 
#    z 0.000000 0.000000 1.633530 
# 
# From -- ./inp_files/38053.got.cif
#   From: 2010.06.25/outbox.cif.g09.slc.cpg/sg71_20_cif.got.tgz:38053.got - 2010.06.28 04:59:45.
