data_PCOD8286727
_publ_section_title
;
Structure prediction by ZEFSAII (Michael W. Deem and Ramdas Pophale) SiO2 
 PCOD8286727
Probable space group: F D D D
;
_chemical_formula_sum "Si O2"
_cell_formula_units_Z 208
_cell_length_a 25.690294
_cell_length_b 21.748289
_cell_length_c 16.625810
_cell_angle_alpha 90.000000
_cell_angle_beta 90.000000
_cell_angle_gamma 90.000000
_cell_volume 9289.171539
_symmetry_space_group_name_H-M "F D D D"
_symmetry_group_IT_number 70
_space_group.IT_coordinate_system_code '2'
_symmetry_cell_setting 'orthorhombic'
loop_
_space_group_symop_operation_xyz
x,y,z
1/4-x,1/4-y,z
x,1/4-y,1/4-z
1/4-x,y,1/4-z
-x,-y,-z
3/4+x,3/4+y,-z
-x,3/4+y,3/4+z
3/4+x,-y,3/4+z
x,1/2+y,1/2+z
1/4-x,3/4-y,1/2+z
x,3/4-y,3/4-z
1/4-x,1/2+y,3/4-z
-x,1/2-y,1/2-z
3/4+x,1/4+y,1/2-z
-x,1/4+y,1/4+z
3/4+x,1/2-y,1/4+z
1/2+x,y,1/2+z
3/4-x,1/4-y,1/2+z
1/2+x,1/4-y,3/4-z
3/4-x,y,3/4-z
1/2-x,-y,1/2-z
1/4+x,3/4+y,1/2-z
1/2-x,3/4+y,1/4+z
1/4+x,-y,1/4+z
1/2+x,1/2+y,z
3/4-x,3/4-y,z
1/2+x,3/4-y,1/4-z
3/4-x,1/2+y,1/4-z
1/2-x,1/2-y,-z
1/4+x,1/4+y,-z
1/2-x,1/4+y,3/4+z
1/4+x,1/2-y,3/4+z
loop_
_atom_site_type_symbol
_atom_site_label
_atom_site_fract_x
_atom_site_fract_y
_atom_site_fract_z
Si Si1 0.828656 0.692958 0.103919
Si Si2 0.722773 0.195985 0.843153
Si Si3 0.125000 0.125000 0.310709
Si Si4 0.066712 0.881033 0.590805
Si Si5 0.192063 0.815467 0.918517
Si Si6 0.338115 0.984662 0.299455
Si Si7 0.013659 0.499392 0.673991
O O1 0.806995 0.625000 0.125000
O O2 0.888306 0.699210 0.125417
O O3 0.798348 0.744269 0.158420
O O4 0.827774 0.705874 0.007514
O O5 0.673777 0.150297 0.864102
O O6 0.778916 0.163907 0.845571
O O7 0.725952 0.254070 0.904128
O O8 0.714677 0.216761 0.751926
O O9 0.106038 0.178869 0.253652
O O10 0.125000 0.873360 0.625000
O O11 0.067936 0.922926 0.511752
O O12 0.037022 0.818382 0.569626
O O13 0.218310 0.875000 0.875000
O O14 0.375000 0.003178 0.375000
O O15 0.284298 0.966565 0.342990
#
# Coordination Sequence:
#
# PCOD8286727 Si02
#       7
#    32  32  16  32  32  32  32
#     4  11  26  42  69 104 144 188 242 292 354 437
#     4  12  26  47  75 102 144 188 241 302 363 437
#     4  12  25  44  66 106 139 192 234 280 361 432
#     4  12  28  47  76 104 138 190 246 297 366 430
#     4  11  23  49  72 101 141 185 241 300 361 428
#     4  12  24  42  65  97 147 190 233 284 357 429
#     4  12  26  42  66 106 145 188 235 291 356 430
#
# _framework density 22.391663000000001
#
# number of rings (size 3 to 8) (size 9 to 14) (size 15 to 20)
#    0.000    0.308    4.615    3.462   10.769    0.000 
#    0.000    0.000    0.000    0.462    0.000    0.000 
#    0.000    0.000    0.000    0.000    0.000    0.000 
#
# Total GULP energy -644448.488178 kJ/mol
# GULP energy per Si atom -12393.240157 kJ/mol
# Density = 2.234070 g / cm^3
# Si number density = 22.391663 Si / 1000 Ang^3
#
#
#
# Elastic Constant Matrix: (Units=GPa)
#
#
# Indices 1 2 3 4 5 6 
#
# 1 80.1147 59.3386 19.1947 0.0000 0.0000 0.0000
# 2 59.3386 123.2237 47.0956 0.0000 0.0000 0.0000
# 3 19.1947 47.0956 103.7560 0.0000 0.0000 0.0000
# 4 0.0000 0.0000 0.0000 26.6094 0.0000 0.0000
# 5 0.0000 0.0000 0.0000 0.0000 29.2431 0.0000
# 6 0.0000 0.0000 0.0000 0.0000 0.0000 32.7253
#
#
#
# Elastic Compliance Matrix: (Units=1/GPa)
#
#
# Indices 1 2 3 4 5 6 
#
# 1 0.019456 -0.009671 0.000790 0.000000 0.000000 0.000000
# 2 -0.009671 0.014626 -0.004850 0.000000 0.000000 0.000000
# 3 0.000790 -0.004850 0.011693 0.000000 0.000000 0.000000
# 4 0.000000 0.000000 0.000000 0.037581 0.000000 0.000000
# 5 0.000000 0.000000 0.000000 0.000000 0.034196 0.000000
# 6 0.000000 0.000000 0.000000 0.000000 0.000000 0.030557
#
#
# Mechanical properties :
#
#
# Convention : Reuss Voigt Hill
#
# Bulk Modulus (GPa) = 54.60232 62.03914 58.32073
# Shear Modulus (GPa) = 27.52173 29.81324 28.66749
#
# Velocity S-wave (km/s) = 3.50966 3.65285 3.58197
# Velocity P-wave (km/s) = 6.39232 6.74964 6.57341
#
# Compressibility (1/GPa) = 0.01831424
#
# Stress axis : x y z
#
# Youngs Moduli (GPa) = 51.39851 68.37137 85.52073
#
# Poissons Ratio (x) = 0.66123 -0.06760
# Poissons Ratio (y) = 0.49708 0.41475
# Poissons Ratio (z) = -0.04063 0.33158
#
# Static dielectric constant tensor:
#      x y z
#    x 4.504470 0.000000 0.000000 
#    y 0.000000 4.569480 0.000000 
#    z 0.000000 0.000000 4.115660 
# 
# 
# High freq. dielectric constant tensor:
#      x y z
#    x 1.885340 0.000000 0.000000 
#    y 0.000000 1.889560 0.000000 
#    z 0.000000 0.000000 1.879370 
# 
# From -- ./inp_files/38708.got.cif
#   From: 2010.03.12/outbox.cif.g09.slc.cpg/sg70_20_cif.got.tgz:38708.got - 2010.04.16 13:46:32.
