data_PCOD8286787
_publ_section_title
;
Structure prediction by ZEFSAII (Michael W. Deem and Ramdas Pophale) SiO2 
 PCOD8286787
Probable space group: F D D D
;
_chemical_formula_sum "Si O2"
_cell_formula_units_Z 112
_cell_length_a 16.496708
_cell_length_b 12.689384
_cell_length_c 22.372046
_cell_angle_alpha 90.000000
_cell_angle_beta 90.000000
_cell_angle_gamma 90.000000
_cell_volume 4683.208905
_symmetry_space_group_name_H-M "F D D D"
_symmetry_group_IT_number 70
_space_group.IT_coordinate_system_code '2'
_symmetry_cell_setting 'orthorhombic'
loop_
_space_group_symop_operation_xyz
x,y,z
1/4-x,1/4-y,z
x,1/4-y,1/4-z
1/4-x,y,1/4-z
-x,-y,-z
3/4+x,3/4+y,-z
-x,3/4+y,3/4+z
3/4+x,-y,3/4+z
x,1/2+y,1/2+z
1/4-x,3/4-y,1/2+z
x,3/4-y,3/4-z
1/4-x,1/2+y,3/4-z
-x,1/2-y,1/2-z
3/4+x,1/4+y,1/2-z
-x,1/4+y,1/4+z
3/4+x,1/2-y,1/4+z
1/2+x,y,1/2+z
3/4-x,1/4-y,1/2+z
1/2+x,1/4-y,3/4-z
3/4-x,y,3/4-z
1/2-x,-y,1/2-z
1/4+x,3/4+y,1/2-z
1/2-x,3/4+y,1/4+z
1/4+x,-y,1/4+z
1/2+x,1/2+y,z
3/4-x,3/4-y,z
1/2+x,3/4-y,1/4-z
3/4-x,1/2+y,1/4-z
1/2-x,1/2-y,-z
1/4+x,1/4+y,-z
1/2-x,1/4+y,3/4+z
1/4+x,1/2-y,3/4+z
loop_
_atom_site_type_symbol
_atom_site_label
_atom_site_fract_x
_atom_site_fract_y
_atom_site_fract_z
Si Si1 0.729454 0.315444 0.689483
Si Si2 0.625000 0.125000 0.021895
Si Si3 0.092645 0.242367 0.270443
Si Si4 0.875000 0.208047 0.875000
Si Si5 0.052525 0.375000 0.375000
O O1 0.797437 0.373635 0.728660
O O2 0.645676 0.310766 0.725437
O O3 0.707012 0.387192 0.631600
O O4 0.749351 0.196590 0.669593
O O5 0.619166 0.226206 0.064073
O O6 0.125000 0.125000 0.275482
O O7 0.106060 0.295746 0.335469
O O8 0.000000 0.250000 0.250000
#
# Coordination Sequence:
#
# PCOD8286787 Si02
#       5
#    32  16  32  16  16
#     4  12  27  49  77 115 153 201 264 318 389 469
#     4  11  28  50  72 114 158 206 258 317 388 474
#     4  12  27  51  79 115 157 202 263 328 387 466
#     4  11  26  47  76 106 160 207 250 321 388 464
#     4  12  28  47  84 115 154 208 254 331 394 464
#
# _framework density 23.915226000000001
#
# number of rings (size 3 to 8) (size 9 to 14) (size 15 to 20)
#    0.000    0.286    2.857    4.286    6.000    3.429 
#    0.000    0.000    0.000    0.000    0.000    0.000 
#    0.000    0.000    0.000    0.000    0.000    0.000 
#
# Total GULP energy -347225.945118 kJ/mol
# GULP energy per Si atom -12400.926611 kJ/mol
# Density = 2.386079 g / cm^3
# Si number density = 23.915226 Si / 1000 Ang^3
#
#
#
# Elastic Constant Matrix: (Units=GPa)
#
#
# Indices 1 2 3 4 5 6 
#
# 1 166.4636 71.7806 77.0304 0.0000 0.0000 0.0000
# 2 71.7806 159.3845 68.3533 0.0000 0.0000 0.0000
# 3 77.0304 68.3533 139.3582 0.0000 0.0000 0.0000
# 4 0.0000 0.0000 0.0000 55.9952 0.0000 0.0000
# 5 0.0000 0.0000 0.0000 0.0000 42.1622 0.0000
# 6 0.0000 0.0000 0.0000 0.0000 0.0000 38.9760
#
#
#
# Elastic Compliance Matrix: (Units=1/GPa)
#
#
# Indices 1 2 3 4 5 6 
#
# 1 0.008718 -0.002355 -0.003664 0.000000 0.000000 0.000000
# 2 -0.002355 0.008582 -0.002907 0.000000 0.000000 0.000000
# 3 -0.003664 -0.002907 0.010627 0.000000 0.000000 0.000000
# 4 0.000000 0.000000 0.000000 0.017859 0.000000 0.000000
# 5 0.000000 0.000000 0.000000 0.000000 0.023718 0.000000
# 6 0.000000 0.000000 0.000000 0.000000 0.000000 0.025657
#
#
# Mechanical properties :
#
#
# Convention : Reuss Voigt Hill
#
# Bulk Modulus (GPa) = 99.26378 99.94831 99.60604
# Shear Modulus (GPa) = 42.96592 43.96280 43.46436
#
# Velocity S-wave (km/s) = 4.24322 4.29216 4.26776
# Velocity P-wave (km/s) = 8.09958 8.15151 8.12558
#
# Compressibility (1/GPa) = 0.01007417
#
# Stress axis : x y z
#
# Youngs Moduli (GPa) = 114.70098 116.52795 94.09972
#
# Poissons Ratio (x) = 0.27443 0.34477
# Poissons Ratio (y) = 0.27013 0.27358
# Poissons Ratio (z) = 0.42026 0.33879
#
# Static dielectric constant tensor:
#      x y z
#    x 4.310360 0.000000 0.000000 
#    y 0.000000 4.574600 0.000000 
#    z 0.000000 0.000000 4.544840 
# 
# 
# High freq. dielectric constant tensor:
#      x y z
#    x 1.937360 0.000000 0.000000 
#    y 0.000000 1.973570 0.000000 
#    z 0.000000 0.000000 1.966250 
# 
# From -- ./inp_files/28303.got.cif
#   From: 2010.03.12/outbox.cif.g09.slc.cpg/sg70_15_cif.got.tgz:28303.got - 2010.04.16 13:46:32.
