data_PCOD8286689
_publ_section_title
;
Structure prediction by ZEFSAII (Michael W. Deem and Ramdas Pophale) SiO2 
 PCOD8286689
Probable space group: F D D D
;
_chemical_formula_sum "Si O2"
_cell_formula_units_Z 160
_cell_length_a 32.716926
_cell_length_b 24.721666
_cell_length_c 10.131960
_cell_angle_alpha 90.000000
_cell_angle_beta 90.000000
_cell_angle_gamma 90.000000
_cell_volume 8194.900652
_symmetry_space_group_name_H-M "F D D D"
_symmetry_group_IT_number 70
_space_group.IT_coordinate_system_code '2'
_symmetry_cell_setting 'orthorhombic'
loop_
_space_group_symop_operation_xyz
x,y,z
1/4-x,1/4-y,z
x,1/4-y,1/4-z
1/4-x,y,1/4-z
-x,-y,-z
3/4+x,3/4+y,-z
-x,3/4+y,3/4+z
3/4+x,-y,3/4+z
x,1/2+y,1/2+z
1/4-x,3/4-y,1/2+z
x,3/4-y,3/4-z
1/4-x,1/2+y,3/4-z
-x,1/2-y,1/2-z
3/4+x,1/4+y,1/2-z
-x,1/4+y,1/4+z
3/4+x,1/2-y,1/4+z
1/2+x,y,1/2+z
3/4-x,1/4-y,1/2+z
1/2+x,1/4-y,3/4-z
3/4-x,y,3/4-z
1/2-x,-y,1/2-z
1/4+x,3/4+y,1/2-z
1/2-x,3/4+y,1/4+z
1/4+x,-y,1/4+z
1/2+x,1/2+y,z
3/4-x,3/4-y,z
1/2+x,3/4-y,1/4-z
3/4-x,1/2+y,1/4-z
1/2-x,1/2-y,-z
1/4+x,1/4+y,-z
1/2-x,1/4+y,3/4+z
1/4+x,1/2-y,3/4+z
loop_
_atom_site_type_symbol
_atom_site_label
_atom_site_fract_x
_atom_site_fract_y
_atom_site_fract_z
Si Si1 0.556940 0.501232 0.391143
Si Si2 0.478176 0.156854 0.996821
Si Si3 0.118922 0.187316 0.278140
Si Si4 0.970962 0.197375 0.898895
Si Si5 0.033991 0.735968 0.858974
O O1 0.556539 0.449645 0.291192
O O2 0.599535 0.530570 0.369225
O O3 0.519508 0.541581 0.360560
O O4 0.554220 0.482792 0.543180
O O5 0.493393 0.125000 0.125000
O O6 0.462562 0.116159 0.881870
O O7 0.517927 0.188652 0.951985
O O8 0.125000 0.125000 0.318262
O O9 0.125000 0.195926 0.125000
O O10 0.074392 0.212287 0.296102
O O11 0.956457 0.211843 0.047600
O O12 0.000000 0.750000 0.750000
#
# Coordination Sequence:
#
# PCOD8286689 Si02
#       5
#    32  32  32  32  32
#     4   9  18  35  59  85 117 149 192 245 294 361
#     4   9  18  36  63  85 113 156 193 235 301 368
#     4  11  23  38  58  85 118 158 197 257 311 355
#     4   9  18  35  60  85 112 156 195 234 296 366
#     4  11  23  37  59  87 120 155 202 256 297 362
#
# _framework density 19.524338
#
# number of rings (size 3 to 8) (size 9 to 14) (size 15 to 20)
#    0.000    2.200    0.000    4.800    0.000    3.200 
#    0.000    1.000   35.200    0.000    0.000    0.000 
#    0.000    0.000    0.000    0.000    0.000    0.000 
#
# Total GULP energy -495820.308029 kJ/mol
# GULP energy per Si atom -12395.507701 kJ/mol
# Density = 1.947990 g / cm^3
# Si number density = 19.524338 Si / 1000 Ang^3
#
#
#
# Elastic Constant Matrix: (Units=GPa)
#
#
# Indices 1 2 3 4 5 6 
#
# 1 128.7265 51.5501 49.6701 0.0004 -0.0001 0.0000
# 2 51.5501 107.0952 63.8998 0.0021 -0.0005 0.0002
# 3 49.6701 63.8998 105.8407 0.0018 -0.0004 0.0011
# 4 0.0004 0.0021 0.0018 23.0088 -0.0002 0.0006
# 5 -0.0001 -0.0005 -0.0004 -0.0002 30.9994 -0.0001
# 6 0.0000 0.0002 0.0011 0.0006 -0.0001 24.4687
#
#
#
# Elastic Compliance Matrix: (Units=1/GPa)
#
#
# Indices 1 2 3 4 5 6 
#
# 1 0.010139 -0.003191 -0.002832 0.000000 0.000000 0.000000
# 2 -0.003191 0.015599 -0.007920 -0.000001 0.000000 0.000000
# 3 -0.002832 -0.007920 0.015559 0.000000 0.000000 -0.000001
# 4 0.000000 -0.000001 0.000000 0.043462 0.000000 -0.000001
# 5 0.000000 0.000000 0.000000 0.000000 0.032259 0.000000
# 6 0.000000 0.000000 -0.000001 -0.000001 0.000000 0.040869
#
#
# Mechanical properties :
#
#
# Convention : Reuss Voigt Hill
#
# Bulk Modulus (GPa) = 74.56449 74.65582 74.61015
# Shear Modulus (GPa) = 26.28236 27.46488 26.87362
#
# Velocity S-wave (km/s) = 3.67295 3.75467 3.71403
# Velocity P-wave (km/s) = 7.50072 7.55758 7.52921
#
# Compressibility (1/GPa) = 0.01341121
#
# Stress axis : x y z
#
# Youngs Moduli (GPa) = 98.63098 64.10610 64.27203
#
# Poissons Ratio (x) = 0.20454 0.18200
# Poissons Ratio (y) = 0.31470 0.50906
# Poissons Ratio (z) = 0.27929 0.50774
#
# Static dielectric constant tensor:
#      x y z
#    x 3.223940 0.000000 0.000000 
#    y 0.000000 3.915630 0.000000 
#    z 0.000000 0.000000 3.771310 
# 
# 
# High freq. dielectric constant tensor:
#      x y z
#    x 1.728450 0.000000 0.000000 
#    y 0.000000 1.770160 0.000000 
#    z 0.000000 0.000000 1.769510 
# 
# From -- ./inp_files/22173.got.cif
#   From: 2010.03.12/outbox.cif.g09.slc.cpg/sg70_12_cif.got.tgz:22173.got - 2010.04.16 13:46:32.
