data_PCOD8286756
_publ_section_title
;
Structure prediction by ZEFSAII (Michael W. Deem and Ramdas Pophale) SiO2 
 PCOD8286756
Probable space group: F D D D
;
_chemical_formula_sum "Si O2"
_cell_formula_units_Z 176
_cell_length_a 18.262695
_cell_length_b 16.155921
_cell_length_c 25.836384
_cell_angle_alpha 90.000000
_cell_angle_beta 90.000000
_cell_angle_gamma 90.000000
_cell_volume 7623.042091
_symmetry_space_group_name_H-M "F D D D"
_symmetry_group_IT_number 70
_space_group.IT_coordinate_system_code '2'
_symmetry_cell_setting 'orthorhombic'
loop_
_space_group_symop_operation_xyz
x,y,z
1/4-x,1/4-y,z
x,1/4-y,1/4-z
1/4-x,y,1/4-z
-x,-y,-z
3/4+x,3/4+y,-z
-x,3/4+y,3/4+z
3/4+x,-y,3/4+z
x,1/2+y,1/2+z
1/4-x,3/4-y,1/2+z
x,3/4-y,3/4-z
1/4-x,1/2+y,3/4-z
-x,1/2-y,1/2-z
3/4+x,1/4+y,1/2-z
-x,1/4+y,1/4+z
3/4+x,1/2-y,1/4+z
1/2+x,y,1/2+z
3/4-x,1/4-y,1/2+z
1/2+x,1/4-y,3/4-z
3/4-x,y,3/4-z
1/2-x,-y,1/2-z
1/4+x,3/4+y,1/2-z
1/2-x,3/4+y,1/4+z
1/4+x,-y,1/4+z
1/2+x,1/2+y,z
3/4-x,3/4-y,z
1/2+x,3/4-y,1/4-z
3/4-x,1/2+y,1/4-z
1/2-x,1/2-y,-z
1/4+x,1/4+y,-z
1/2-x,1/4+y,3/4+z
1/4+x,1/2-y,3/4+z
loop_
_atom_site_type_symbol
_atom_site_label
_atom_site_fract_x
_atom_site_fract_y
_atom_site_fract_z
Si Si1 0.375000 0.875000 0.784972
Si Si2 0.442802 0.935961 0.244214
Si Si3 0.720705 0.330958 0.924222
Si Si4 0.701936 0.162620 0.876056
Si Si5 0.419359 0.680249 0.420369
Si Si6 0.394352 0.190218 0.493153
O O1 0.447782 0.865802 0.818727
O O2 0.362132 0.790329 0.752590
O O3 0.375000 0.875000 0.255931
O O4 0.451340 0.949884 0.182405
O O5 0.524902 0.907502 0.261137
O O6 0.426528 0.017506 0.277190
O O7 0.684718 0.375000 0.875000
O O8 0.723979 0.233174 0.916304
O O9 0.667506 0.351598 0.971399
O O10 0.625000 0.125000 0.890529
O O11 0.755847 0.088132 0.890072
O O12 0.375000 0.728077 0.375000
O O13 0.374594 0.595885 0.435950
#
# Coordination Sequence:
#
# PCOD8286756 Si02
#       6
#    16  32  32  32  32  32
#     4  12  25  42  74 110 154 190 242 310 383 462
#     4  11  27  50  73 103 148 196 262 314 361 447
#     4  12  26  42  71 111 150 190 243 308 386 453
#     4  11  24  47  75 107 147 199 243 311 378 452
#     4  12  25  47  74 106 145 200 248 305 389 443
#     4  12  25  46  72 108 152 193 246 313 378 461
#
# _framework density 23.087896000000001
#
# number of rings (size 3 to 8) (size 9 to 14) (size 15 to 20)
#    0.000    0.364    3.636    5.182    3.818    1.091 
#    6.545    0.000    0.000    0.000    0.000    0.000 
#    0.000    0.000    0.000    0.000    0.000    0.000 
#
# Total GULP energy -545172.185549 kJ/mol
# GULP energy per Si atom -12390.276944 kJ/mol
# Density = 2.303535 g / cm^3
# Si number density = 23.087896 Si / 1000 Ang^3
#
#
#
# Elastic Constant Matrix: (Units=GPa)
#
#
# Indices 1 2 3 4 5 6 
#
# 1 191.8712 56.0630 61.6007 0.0000 0.0000 0.0000
# 2 56.0630 72.6875 53.2048 0.0000 0.0000 0.0000
# 3 61.6007 53.2048 114.2123 0.0000 0.0000 0.0000
# 4 0.0000 0.0000 0.0000 38.3157 0.0000 0.0000
# 5 0.0000 0.0000 0.0000 0.0000 11.6763 0.0000
# 6 0.0000 0.0000 0.0000 0.0000 0.0000 34.8673
#
#
#
# Elastic Compliance Matrix: (Units=1/GPa)
#
#
# Indices 1 2 3 4 5 6 
#
# 1 0.006992 -0.003995 -0.001910 0.000000 0.000000 0.000000
# 2 -0.003995 0.023158 -0.008633 0.000000 0.000000 0.000000
# 3 -0.001910 -0.008633 0.013808 0.000000 0.000000 0.000000
# 4 0.000000 0.000000 0.000000 0.026099 0.000000 0.000000
# 5 0.000000 0.000000 0.000000 0.000000 0.085643 0.000000
# 6 0.000000 0.000000 0.000000 0.000000 0.000000 0.028680
#
#
# Mechanical properties :
#
#
# Convention : Reuss Voigt Hill
#
# Bulk Modulus (GPa) = 67.19958 80.05643 73.62801
# Shear Modulus (GPa) = 22.89187 30.83202 26.86194
#
# Velocity S-wave (km/s) = 3.15224 3.65830 3.41466
# Velocity P-wave (km/s) = 6.51291 7.25218 6.89246
#
# Compressibility (1/GPa) = 0.01488105
#
# Stress axis : x y z
#
# Youngs Moduli (GPa) = 143.01195 43.18162 72.42282
#
# Poissons Ratio (x) = 0.17250 0.13836
# Poissons Ratio (y) = 0.57130 0.62525
# Poissons Ratio (z) = 0.27322 0.37280
#
# Static dielectric constant tensor:
#      x y z
#    x 4.399910 0.000000 0.000000 
#    y 0.000000 4.036770 0.000000 
#    z 0.000000 0.000000 4.086330 
# 
# 
# High freq. dielectric constant tensor:
#      x y z
#    x 1.933530 0.000000 0.000000 
#    y 0.000000 1.892800 0.000000 
#    z 0.000000 0.000000 1.916630 
# 
# From -- ./inp_files/59467.got.cif
#   From: 2010.03.12/outbox.cif.g09.slc.cpg/sg70_30_cif.got.tgz:59467.got - 2010.04.16 13:46:32.
