data_PCOD8286014
_publ_section_title
;
Structure prediction by ZEFSAII (Michael W. Deem and Ramdas Pophale) SiO2 
 PCOD8286014
Probable space group: F D D D
;
_chemical_formula_sum "Si O2"
_cell_formula_units_Z 192
_cell_length_a 22.381822
_cell_length_b 15.377916
_cell_length_c 28.004108
_cell_angle_alpha 90.000000
_cell_angle_beta 90.000000
_cell_angle_gamma 90.000000
_cell_volume 9638.615717
_symmetry_space_group_name_H-M "F D D D"
_symmetry_group_IT_number 70
_space_group.IT_coordinate_system_code '2'
_symmetry_cell_setting 'orthorhombic'
loop_
_space_group_symop_operation_xyz
x,y,z
1/4-x,1/4-y,z
x,1/4-y,1/4-z
1/4-x,y,1/4-z
-x,-y,-z
3/4+x,3/4+y,-z
-x,3/4+y,3/4+z
3/4+x,-y,3/4+z
x,1/2+y,1/2+z
1/4-x,3/4-y,1/2+z
x,3/4-y,3/4-z
1/4-x,1/2+y,3/4-z
-x,1/2-y,1/2-z
3/4+x,1/4+y,1/2-z
-x,1/4+y,1/4+z
3/4+x,1/2-y,1/4+z
1/2+x,y,1/2+z
3/4-x,1/4-y,1/2+z
1/2+x,1/4-y,3/4-z
3/4-x,y,3/4-z
1/2-x,-y,1/2-z
1/4+x,3/4+y,1/2-z
1/2-x,3/4+y,1/4+z
1/4+x,-y,1/4+z
1/2+x,1/2+y,z
3/4-x,3/4-y,z
1/2+x,3/4-y,1/4-z
3/4-x,1/2+y,1/4-z
1/2-x,1/2-y,-z
1/4+x,1/4+y,-z
1/2-x,1/4+y,3/4+z
1/4+x,1/2-y,3/4+z
loop_
_atom_site_type_symbol
_atom_site_label
_atom_site_fract_x
_atom_site_fract_y
_atom_site_fract_z
Si Si1 0.875000 0.375000 0.875000
Si Si2 0.000699 0.362093 0.569693
Si Si3 0.453693 0.790197 0.993032
Si Si4 0.148937 0.258434 0.053176
Si Si5 0.875000 0.375000 0.224098
Si Si6 0.926824 0.780074 0.289180
Si Si7 0.125000 0.625000 0.625000
Si Si8 0.279983 0.604824 0.928520
O O1 0.912015 0.442185 0.906828
O O2 0.932195 0.381593 0.559402
O O3 0.015242 0.267990 0.547610
O O4 0.043594 0.431813 0.543090
O O5 0.007674 0.368315 0.626357
O O6 0.383195 0.767617 0.993308
O O7 0.465574 0.891072 0.981117
O O8 0.485311 0.784849 0.045511
O O9 0.167692 0.183985 0.091469
O O10 0.095572 0.314050 0.076309
O O11 0.124991 0.213180 0.005226
O O12 0.964972 0.692423 0.289810
#
# Coordination Sequence:
#
# PCOD8286014 Si02
#       8
#     8  32  32  32  16  32   8  32
#     4   8  16  30  54  88 112 158 214 264 290 366
#     4  12  23  41  65  95 126 165 219 263 326 391
#     4  10  22  37  59  93 126 165 213 261 319 379
#     4  11  22  40  67  91 122 168 216 265 318 392
#     4  11  26  43  61  90 134 164 201 275 342 369
#     4  10  20  36  60  90 127 164 209 261 316 380
#     4  10  20  38  64 100 114 148 228 272 304 370
#     4  12  21  38  67  94 124 170 216 264 320 385
#
# _framework density 19.919872999999999
#
# number of rings (size 3 to 8) (size 9 to 14) (size 15 to 20)
#    0.000    1.333    5.000    3.000    0.000    1.333 
#    0.000    0.000    0.000    2.000    0.000    0.000 
#    0.000    0.000    0.000    0.000    0.000    0.000 
#
# Total GULP energy -594842.663622 kJ/mol
# GULP energy per Si atom -12392.555492 kJ/mol
# Density = 1.987453 g / cm^3
# Si number density = 19.919873 Si / 1000 Ang^3
#
#
#
# Elastic Constant Matrix: (Units=GPa)
#
#
# Indices 1 2 3 4 5 6 
#
# 1 120.2633 53.0736 62.9012 0.0000 0.0000 0.0000
# 2 53.0736 89.0830 40.5501 0.0000 0.0000 0.0000
# 3 62.9012 40.5501 107.0627 0.0000 0.0000 0.0000
# 4 0.0000 0.0000 0.0000 26.9863 0.0000 0.0000
# 5 0.0000 0.0000 0.0000 0.0000 35.9927 0.0000
# 6 0.0000 0.0000 0.0000 0.0000 0.0000 20.6666
#
#
#
# Elastic Compliance Matrix: (Units=1/GPa)
#
#
# Indices 1 2 3 4 5 6 
#
# 1 0.013946 -0.005533 -0.006098 0.000000 0.000000 0.000000
# 2 -0.005533 0.015759 -0.002718 0.000000 0.000000 0.000000
# 3 -0.006098 -0.002718 0.013953 0.000000 0.000000 0.000000
# 4 0.000000 0.000000 0.000000 0.037056 0.000000 0.000000
# 5 0.000000 0.000000 0.000000 0.000000 0.027783 0.000000
# 6 0.000000 0.000000 0.000000 0.000000 0.000000 0.048387
#
#
# Mechanical properties :
#
#
# Convention : Reuss Voigt Hill
#
# Bulk Modulus (GPa) = 66.84635 69.93988 68.39311
# Shear Modulus (GPa) = 26.23715 27.38807 26.81261
#
# Velocity S-wave (km/s) = 3.63317 3.71200 3.67280
# Velocity P-wave (km/s) = 7.15754 7.31839 7.23841
#
# Compressibility (1/GPa) = 0.01495968
#
# Stress axis : x y z
#
# Youngs Moduli (GPa) = 71.70308 63.45493 71.67172
#
# Poissons Ratio (x) = 0.35110 0.43706
# Poissons Ratio (y) = 0.39674 0.19480
# Poissons Ratio (z) = 0.43725 0.17247
#
# Static dielectric constant tensor:
#      x y z
#    x 3.486780 0.000000 0.000000 
#    y 0.000000 3.861870 0.000000 
#    z 0.000000 0.000000 3.614010 
# 
# 
# High freq. dielectric constant tensor:
#      x y z
#    x 1.761950 0.000000 0.000000 
#    y 0.000000 1.788670 0.000000 
#    z 0.000000 0.000000 1.772010 
# 
# From -- ./inp_files/67963.got.cif
#   From: 2010.03.12/outbox.cif.g09.slc.cpg/sg70_34_cif.got.tgz:67963.got - 2010.04.16 13:46:32.
