data_PCOD8286167
_publ_section_title
;
Structure prediction by ZEFSAII (Michael W. Deem and Ramdas Pophale) SiO2 
 PCOD8286167
Probable space group: F D D D
;
_chemical_formula_sum "Si O2"
_cell_formula_units_Z 112
_cell_length_a 9.448667
_cell_length_b 33.120903
_cell_length_c 14.852214
_cell_angle_alpha 90.000000
_cell_angle_beta 90.000000
_cell_angle_gamma 90.000000
_cell_volume 4647.976358
_symmetry_space_group_name_H-M "F D D D"
_symmetry_group_IT_number 70
_space_group.IT_coordinate_system_code '2'
_symmetry_cell_setting 'orthorhombic'
loop_
_space_group_symop_operation_xyz
x,y,z
1/4-x,1/4-y,z
x,1/4-y,1/4-z
1/4-x,y,1/4-z
-x,-y,-z
3/4+x,3/4+y,-z
-x,3/4+y,3/4+z
3/4+x,-y,3/4+z
x,1/2+y,1/2+z
1/4-x,3/4-y,1/2+z
x,3/4-y,3/4-z
1/4-x,1/2+y,3/4-z
-x,1/2-y,1/2-z
3/4+x,1/4+y,1/2-z
-x,1/4+y,1/4+z
3/4+x,1/2-y,1/4+z
1/2+x,y,1/2+z
3/4-x,1/4-y,1/2+z
1/2+x,1/4-y,3/4-z
3/4-x,y,3/4-z
1/2-x,-y,1/2-z
1/4+x,3/4+y,1/2-z
1/2-x,3/4+y,1/4+z
1/4+x,-y,1/4+z
1/2+x,1/2+y,z
3/4-x,3/4-y,z
1/2+x,3/4-y,1/4-z
3/4-x,1/2+y,1/4-z
1/2-x,1/2-y,-z
1/4+x,1/4+y,-z
1/2-x,1/4+y,3/4+z
1/4+x,1/2-y,3/4+z
loop_
_atom_site_type_symbol
_atom_site_label
_atom_site_fract_x
_atom_site_fract_y
_atom_site_fract_z
Si Si1 0.021149 0.954949 0.324102
Si Si2 0.888614 0.289757 0.116387
Si Si3 0.625000 0.909141 0.125000
Si Si4 0.753133 0.599182 0.235725
O O1 0.137033 0.918895 0.338163
O O2 0.875000 0.944868 0.375000
O O3 0.997092 0.959945 0.216853
O O4 0.095252 0.994291 0.363169
O O5 0.749102 0.313330 0.085627
O O6 0.951489 0.311317 0.204256
O O7 0.585854 0.881277 0.206619
O O8 0.625000 0.625000 0.190826
#
# Coordination Sequence:
#
# PCOD8286167 Si02
#       4
#    32  32  16  32
#     4  12  24  42  72 108 145 187 242 304 366 435
#     4  11  23  42  73 100 141 188 242 294 365 433
#     4  10  20  42  72  96 134 193 251 280 364 428
#     4  10  22  43  73  97 141 194 246 294 362 434
#
# _framework density 24.096509000000001
#
# number of rings (size 3 to 8) (size 9 to 14) (size 15 to 20)
#    0.000    1.143    4.286    1.714    0.000    0.000 
#    0.000    2.857    6.286    0.000    0.000    0.000 
#    0.000    0.000    0.000    0.000    0.000    0.000 
#
# Total GULP energy -347126.799506 kJ/mol
# GULP energy per Si atom -12397.385697 kJ/mol
# Density = 2.404166 g / cm^3
# Si number density = 24.096509 Si / 1000 Ang^3
#
#
#
# Elastic Constant Matrix: (Units=GPa)
#
#
# Indices 1 2 3 4 5 6 
#
# 1 156.3959 89.4884 37.8385 0.0000 0.0000 0.0000
# 2 89.4884 164.7975 33.6856 0.0000 0.0000 0.0000
# 3 37.8385 33.6856 74.4239 0.0000 0.0000 0.0000
# 4 0.0000 0.0000 0.0000 730.1016 0.0000 0.0000
# 5 0.0000 0.0000 0.0000 0.0000 22.1354 0.0000
# 6 0.0000 0.0000 0.0000 0.0000 0.0000 -2.2586
#
#
#
# Elastic Compliance Matrix: (Units=1/GPa)
#
#
# Indices 1 2 3 4 5 6 
#
# 1 0.009790 -0.004737 -0.002833 0.000000 0.000000 0.000000
# 2 -0.004737 0.008979 -0.001656 0.000000 0.000000 0.000000
# 3 -0.002833 -0.001656 0.015626 0.000000 0.000000 0.000000
# 4 0.000000 0.000000 0.000000 0.001370 0.000000 0.000000
# 5 0.000000 0.000000 0.000000 0.000000 0.045176 0.000000
# 6 0.000000 0.000000 0.000000 0.000000 0.000000 -0.442757
#
#
# Mechanical properties :
#
#
# Convention : Reuss Voigt Hill
#
# Bulk Modulus (GPa) = 62.72229 79.73804 71.23017
# Shear Modulus (GPa) = -14.79074 165.63602 75.42264
#
# Velocity S-wave (km/s) = -2.48021 8.29987 5.60073
# Velocity P-wave (km/s) = 4.22897 11.18094 8.45274
#
# Compressibility (1/GPa) = 0.01594330
#
# Stress axis : x y z
#
# Youngs Moduli (GPa) = 102.14484 111.37390 63.99426
#
# Poissons Ratio (x) = 0.52758 0.18132
# Poissons Ratio (y) = 0.48386 0.10595
# Poissons Ratio (z) = 0.28941 0.18439
#
# Static dielectric constant tensor:
#      x y z
#    x 4.769880 0.000000 0.000000 
#    y 0.000000 4.611600 0.000000 
#    z 0.000000 0.000000 4.530620 
# 
# 
# High freq. dielectric constant tensor:
#      x y z
#    x 1.979430 0.000000 0.000000 
#    y 0.000000 1.970380 0.000000 
#    z 0.000000 0.000000 1.947650 
# 
# From -- ./inp_files/24447.got.cif
#   From: 2010.03.12/outbox.cif.g09.slc.cpg/sg70_13_cif.got.tgz:24447.got - 2010.04.16 13:46:32.
