data_PCOD8286933
_publ_section_title
;
Structure prediction by ZEFSAII (Michael W. Deem and Ramdas Pophale) SiO2 
 PCOD8286933
Probable space group: I M M M
;
_chemical_formula_sum "Si O2"
_cell_formula_units_Z 112
_cell_length_a 19.077998
_cell_length_b 18.207615
_cell_length_c 20.605527
_cell_angle_alpha 90.000000
_cell_angle_beta 90.000000
_cell_angle_gamma 90.000000
_cell_volume 7157.635642
_symmetry_space_group_name_H-M "I M M M"
_symmetry_group_IT_number 71
_symmetry_cell_setting 'orthorhombic'
loop_
_space_group_symop_operation_xyz
x,y,z
-x,-y,z
x,-y,-z
-x,y,-z
-x,-y,-z
x,y,-z
-x,y,z
x,-y,z
1/2+x,1/2+y,1/2+z
1/2-x,1/2-y,1/2+z
1/2+x,1/2-y,1/2-z
1/2-x,1/2+y,1/2-z
1/2-x,1/2-y,1/2-z
1/2+x,1/2+y,1/2-z
1/2-x,1/2+y,1/2+z
1/2+x,1/2-y,1/2+z
loop_
_atom_site_type_symbol
_atom_site_label
_atom_site_fract_x
_atom_site_fract_y
_atom_site_fract_z
Si Si1 0.804751 0.918521 0.175966
Si Si2 0.419422 0.828972 0.576141
Si Si3 0.421679 0.285703 0.801778
Si Si4 0.921969 0.817366 0.850369
Si Si5 0.161373 0.079850 0.672282
Si Si6 0.801311 0.313419 0.277934
Si Si7 0.316050 0.085108 0.659193
O O1 0.870230 0.885472 0.135787
O O2 0.821733 0.921954 0.251754
O O3 0.738823 0.863592 0.169031
O O4 0.788036 0.000000 0.148932
O O5 0.408801 0.821541 0.500000
O O6 0.500000 0.848003 0.593949
O O7 0.396620 0.752425 0.608618
O O8 0.369084 0.893481 0.601723
O O9 0.500000 0.265139 0.825152
O O10 0.419589 0.297837 0.725088
O O11 0.397219 0.358605 0.841097
O O12 0.366813 0.221015 0.816955
O O13 0.000000 0.841436 0.871425
O O14 0.235152 0.097246 0.636203
O O15 0.132088 0.000000 0.650300
O O16 0.750000 0.250000 0.250000
O O17 0.832523 0.363905 0.220882
O O18 0.327861 0.000000 0.678123
#
# Coordination Sequence:
#
# PCOD8286933 Si02
#       7
#    16  16  16  16  16  16  16
#     4   9  16  25  40  62  83 107 137 169 212 256
#     4  10  20  32  44  59  82 113 151 193 226 246
#     4  10  17  24  40  62  85 114 142 169 203 249
#     4   9  16  27  42  60  81 109 146 179 210 251
#     4   8  15  26  39  60  85 108 134 170 213 256
#     4  11  15  26  42  59  84 114 141 174 206 248
#     4  10  18  28  43  59  78 111 149 181 213 253
#
# _framework density 15.647625
#
# number of rings (size 3 to 8) (size 9 to 14) (size 15 to 20)
#    0.000    2.429    5.714    1.286    0.000    1.143 
#    0.000    3.571    0.000    1.714    0.000    2.000 
#    0.000    0.571    0.000    3.143    0.000    3.571 
#
# Total GULP energy -694022.541877 kJ/mol
# GULP energy per Si atom -12393.259676 kJ/mol
# Density = 1.561201 g / cm^3
# Si number density = 15.647625 Si / 1000 Ang^3
#
#
#
# Elastic Constant Matrix: (Units=GPa)
#
#
# Indices 1 2 3 4 5 6 
#
# 1 115.8189 71.1802 16.8083 0.0000 0.0000 0.0000
# 2 71.1802 123.1268 17.9786 0.0000 0.0000 0.0000
# 3 16.8083 17.9786 23.5378 0.0000 0.0000 0.0000
# 4 0.0000 0.0000 0.0000 8.3011 0.0000 0.0000
# 5 0.0000 0.0000 0.0000 0.0000 14.0636 0.0000
# 6 0.0000 0.0000 0.0000 0.0000 0.0000 25.7774
#
#
#
# Elastic Compliance Matrix: (Units=1/GPa)
#
#
# Indices 1 2 3 4 5 6 
#
# 1 0.013755 -0.007336 -0.004219 0.000000 0.000000 0.000000
# 2 -0.007336 0.013053 -0.004732 0.000000 0.000000 0.000000
# 3 -0.004219 -0.004732 0.049112 0.000000 0.000000 0.000000
# 4 0.000000 0.000000 0.000000 0.120466 0.000000 0.000000
# 5 0.000000 0.000000 0.000000 0.000000 0.071105 0.000000
# 6 0.000000 0.000000 0.000000 0.000000 0.000000 0.038794
#
#
# Mechanical properties :
#
#
# Convention : Reuss Voigt Hill
#
# Bulk Modulus (GPa) = 23.06984 52.71308 37.89146
# Shear Modulus (GPa) = 14.15196 20.06285 17.10741
#
# Velocity S-wave (km/s) = 3.01061 3.58462 3.31008
# Velocity P-wave (km/s) = 5.18270 7.13396 6.23513
#
# Compressibility (1/GPa) = 0.04334663
#
# Stress axis : x y z
#
# Youngs Moduli (GPa) = 72.70156 76.60796 20.36155
#
# Poissons Ratio (x) = 0.56197 0.08591
# Poissons Ratio (y) = 0.53332 0.09635
# Poissons Ratio (z) = 0.30674 0.36252
#
# Static dielectric constant tensor:
#      x y z
#    x 3.277110 0.000000 0.000000 
#    y 0.000000 3.309570 0.000000 
#    z 0.000000 0.000000 2.425800 
# 
# 
# High freq. dielectric constant tensor:
#      x y z
#    x 1.604720 0.000000 0.000000 
#    y 0.000000 1.612020 0.000000 
#    z 0.000000 0.000000 1.520490 
# 
# From -- ./inp_files/54398.got.cif
#   From: 2010.06.25/outbox.cif.g09.slc.cpg/sg71_28_cif.got.tgz:54398.got - 2010.06.28 04:59:45.
