data_PCOD8286134
_publ_section_title
;
Structure prediction by ZEFSAII (Michael W. Deem and Ramdas Pophale) SiO2 
 PCOD8286134
Probable space group: F D D D
;
_chemical_formula_sum "Si O2"
_cell_formula_units_Z 208
_cell_length_a 17.655591
_cell_length_b 20.851569
_cell_length_c 26.273720
_cell_angle_alpha 90.000000
_cell_angle_beta 90.000000
_cell_angle_gamma 90.000000
_cell_volume 9672.585258
_symmetry_space_group_name_H-M "F D D D"
_symmetry_group_IT_number 70
_space_group.IT_coordinate_system_code '2'
_symmetry_cell_setting 'orthorhombic'
loop_
_space_group_symop_operation_xyz
x,y,z
1/4-x,1/4-y,z
x,1/4-y,1/4-z
1/4-x,y,1/4-z
-x,-y,-z
3/4+x,3/4+y,-z
-x,3/4+y,3/4+z
3/4+x,-y,3/4+z
x,1/2+y,1/2+z
1/4-x,3/4-y,1/2+z
x,3/4-y,3/4-z
1/4-x,1/2+y,3/4-z
-x,1/2-y,1/2-z
3/4+x,1/4+y,1/2-z
-x,1/4+y,1/4+z
3/4+x,1/2-y,1/4+z
1/2+x,y,1/2+z
3/4-x,1/4-y,1/2+z
1/2+x,1/4-y,3/4-z
3/4-x,y,3/4-z
1/2-x,-y,1/2-z
1/4+x,3/4+y,1/2-z
1/2-x,3/4+y,1/4+z
1/4+x,-y,1/4+z
1/2+x,1/2+y,z
3/4-x,3/4-y,z
1/2+x,3/4-y,1/4-z
3/4-x,1/2+y,1/4-z
1/2-x,1/2-y,-z
1/4+x,1/4+y,-z
1/2-x,1/4+y,3/4+z
1/4+x,1/2-y,3/4+z
loop_
_atom_site_type_symbol
_atom_site_label
_atom_site_fract_x
_atom_site_fract_y
_atom_site_fract_z
Si Si1 0.427373 0.516793 0.830863
Si Si2 0.674589 0.964233 0.765573
Si Si3 0.327223 0.435173 0.066233
Si Si4 0.668948 0.757796 0.524261
Si Si5 0.035899 0.822333 0.977211
Si Si6 0.247360 0.644991 0.916807
Si Si7 0.125000 0.625000 0.001941
O O1 0.375000 0.487342 0.875000
O O2 0.379773 0.542255 0.783006
O O3 0.484549 0.460043 0.816000
O O4 0.469969 0.578367 0.854889
O O5 0.699665 0.895831 0.787599
O O6 0.750000 0.000000 0.750000
O O7 0.628736 0.001479 0.809746
O O8 0.375000 0.375000 0.045794
O O9 0.251441 0.437094 0.032782
O O10 0.306839 0.428085 0.125430
O O11 0.750000 0.750000 0.500000
O O12 0.616990 0.788431 0.480389
O O13 0.682572 0.805861 0.571784
O O14 0.630735 0.688463 0.537981
O O15 0.200001 0.625862 0.967027
#
# Coordination Sequence:
#
# PCOD8286134 Si02
#       7
#    32  32  32  32  32  32  16
#     4  11  24  39  70 100 132 177 229 274 337 412
#     4  11  23  43  67  96 135 181 221 276 341 410
#     4  11  23  37  68  99 132 176 229 281 334 403
#     4  10  22  38  66  97 125 176 221 280 338 405
#     4  11  22  43  66  95 139 177 221 279 345 404
#     4  11  21  38  67 100 129 171 235 279 333 403
#     4  10  20  40  66  91 136 170 221 274 342 394
#
# _framework density 21.504075
#
# number of rings (size 3 to 8) (size 9 to 14) (size 15 to 20)
#    0.000    1.231    5.385    0.923    0.000    0.000 
#    0.000    1.538    0.000    9.231    0.000    0.000 
#    0.000    0.000    0.000    0.000    0.000    0.000 
#
# Total GULP energy -644758.331735 kJ/mol
# GULP energy per Si atom -12399.198687 kJ/mol
# Density = 2.145513 g / cm^3
# Si number density = 21.504075 Si / 1000 Ang^3
#
#
#
# Elastic Constant Matrix: (Units=GPa)
#
#
# Indices 1 2 3 4 5 6 
#
# 1 124.1803 72.2093 39.7142 0.0000 0.0000 0.0000
# 2 72.2093 200.9025 48.1045 0.0000 0.0000 0.0000
# 3 39.7142 48.1045 75.3987 0.0000 0.0000 0.0000
# 4 0.0000 0.0000 0.0000 23.2582 0.0000 0.0000
# 5 0.0000 0.0000 0.0000 0.0000 32.4248 0.0000
# 6 0.0000 0.0000 0.0000 0.0000 0.0000 44.0251
#
#
#
# Elastic Compliance Matrix: (Units=1/GPa)
#
#
# Indices 1 2 3 4 5 6 
#
# 1 0.011067 -0.003048 -0.003885 0.000000 0.000000 0.000000
# 2 -0.003048 0.006714 -0.002678 0.000000 0.000000 0.000000
# 3 -0.003885 -0.002678 0.017018 0.000000 0.000000 0.000000
# 4 0.000000 0.000000 0.000000 0.042996 0.000000 0.000000
# 5 0.000000 0.000000 0.000000 0.000000 0.030841 0.000000
# 6 0.000000 0.000000 0.000000 0.000000 0.000000 0.022714
#
#
# Mechanical properties :
#
#
# Convention : Reuss Voigt Hill
#
# Bulk Modulus (GPa) = 64.19551 80.05973 72.12762
# Shear Modulus (GPa) = 32.09962 35.97185 34.03574
#
# Velocity S-wave (km/s) = 3.86777 4.09442 3.98270
# Velocity P-wave (km/s) = 7.06142 7.72419 7.40023
#
# Compressibility (1/GPa) = 0.01557741
#
# Stress axis : x y z
#
# Youngs Moduli (GPa) = 90.35478 148.93623 58.76123
#
# Poissons Ratio (x) = 0.45391 0.22829
# Poissons Ratio (y) = 0.27537 0.15739
# Poissons Ratio (z) = 0.35103 0.39892
#
# Static dielectric constant tensor:
#      x y z
#    x 4.260740 0.000000 0.000000 
#    y 0.000000 4.469560 0.000000 
#    z 0.000000 0.000000 3.572870 
# 
# 
# High freq. dielectric constant tensor:
#      x y z
#    x 1.866720 0.000000 0.000000 
#    y 0.000000 1.856420 0.000000 
#    z 0.000000 0.000000 1.802270 
# 
# From -- ./inp_files/66799.got.cif
#   From: 2010.03.12/outbox.cif.g09.slc.cpg/sg70_34_cif.got.tgz:66799.got - 2010.04.16 13:46:32.
