data_PCOD8286713
_publ_section_title
;
Structure prediction by ZEFSAII (Michael W. Deem and Ramdas Pophale) SiO2 
 PCOD8286713
Probable space group: F D D D
;
_chemical_formula_sum "Si O2"
_cell_formula_units_Z 208
_cell_length_a 15.867782
_cell_length_b 22.470500
_cell_length_c 25.459506
_cell_angle_alpha 90.000000
_cell_angle_beta 90.000000
_cell_angle_gamma 90.000000
_cell_volume 9077.764965
_symmetry_space_group_name_H-M "F D D D"
_symmetry_group_IT_number 70
_space_group.IT_coordinate_system_code '2'
_symmetry_cell_setting 'orthorhombic'
loop_
_space_group_symop_operation_xyz
x,y,z
1/4-x,1/4-y,z
x,1/4-y,1/4-z
1/4-x,y,1/4-z
-x,-y,-z
3/4+x,3/4+y,-z
-x,3/4+y,3/4+z
3/4+x,-y,3/4+z
x,1/2+y,1/2+z
1/4-x,3/4-y,1/2+z
x,3/4-y,3/4-z
1/4-x,1/2+y,3/4-z
-x,1/2-y,1/2-z
3/4+x,1/4+y,1/2-z
-x,1/4+y,1/4+z
3/4+x,1/2-y,1/4+z
1/2+x,y,1/2+z
3/4-x,1/4-y,1/2+z
1/2+x,1/4-y,3/4-z
3/4-x,y,3/4-z
1/2-x,-y,1/2-z
1/4+x,3/4+y,1/2-z
1/2-x,3/4+y,1/4+z
1/4+x,-y,1/4+z
1/2+x,1/2+y,z
3/4-x,3/4-y,z
1/2+x,3/4-y,1/4-z
3/4-x,1/2+y,1/4-z
1/2-x,1/2-y,-z
1/4+x,1/4+y,-z
1/2-x,1/4+y,3/4+z
1/4+x,1/2-y,3/4+z
loop_
_atom_site_type_symbol
_atom_site_label
_atom_site_fract_x
_atom_site_fract_y
_atom_site_fract_z
Si Si1 0.118207 0.524871 0.219346
Si Si2 0.586808 0.819845 0.448608
Si Si3 0.988035 0.375335 0.934436
Si Si4 0.375000 0.185991 0.375000
Si Si5 0.709542 0.654359 0.013020
Si Si6 0.215246 0.648303 0.393901
Si Si7 0.777680 0.773666 0.887669
O O1 0.113995 0.493548 0.276374
O O2 0.191327 0.574486 0.219094
O O3 0.140283 0.475994 0.175850
O O4 0.030013 0.559556 0.208292
O O5 0.664247 0.861817 0.434537
O O6 0.532500 0.854839 0.491518
O O7 0.530364 0.817234 0.396385
O O8 0.952965 0.375000 0.875000
O O9 0.289551 0.148847 0.365463
O O10 0.625000 0.625000 0.036517
O O11 0.735258 0.709758 0.050644
O O12 0.696991 0.671929 0.952845
O O13 0.125000 0.625000 0.370846
O O14 0.247032 0.709004 0.367869
O O15 0.875000 0.781369 0.875000
#
# Coordination Sequence:
#
# PCOD8286713 Si02
#       7
#    32  32  32  16  32  32  32
#     4  11  24  45  72 101 142 186 236 300 357 431
#     4  12  26  42  71 107 137 187 240 294 359 432
#     4  11  23  45  72 104 137 189 243 297 361 425
#     4  12  22  45  74  96 145 186 234 296 362 428
#     4  11  23  45  69  98 138 181 236 290 353 424
#     4  11  27  45  70 104 138 188 238 293 367 429
#     4  12  25  45  70 102 146 188 236 302 357 431
#
# _framework density 22.913129000000001
#
# number of rings (size 3 to 8) (size 9 to 14) (size 15 to 20)
#    0.000    0.615    5.385    2.769    2.154    3.692 
#    2.769    0.000    0.000    0.000    0.000    0.000 
#    0.000    0.000    0.000    0.000    0.000    0.000 
#
# Total GULP energy -644586.197375 kJ/mol
# GULP energy per Si atom -12395.888411 kJ/mol
# Density = 2.286098 g / cm^3
# Si number density = 22.913129 Si / 1000 Ang^3
#
#
#
# Elastic Constant Matrix: (Units=GPa)
#
#
# Indices 1 2 3 4 5 6 
#
# 1 170.9286 45.8084 27.4968 0.0000 0.0000 0.0000
# 2 45.8084 97.5781 11.2280 0.0000 0.0000 0.0000
# 3 27.4968 11.2280 65.0344 0.0000 0.0000 0.0000
# 4 0.0000 0.0000 0.0000 26.4671 0.0000 0.0000
# 5 0.0000 0.0000 0.0000 0.0000 2.4538 0.0000
# 6 0.0000 0.0000 0.0000 0.0000 0.0000 30.2877
#
#
#
# Elastic Compliance Matrix: (Units=1/GPa)
#
#
# Indices 1 2 3 4 5 6 
#
# 1 0.007058 -0.003030 -0.002461 0.000000 0.000000 0.000000
# 2 -0.003030 0.011757 -0.000749 0.000000 0.000000 0.000000
# 3 -0.002461 -0.000749 0.016546 0.000000 0.000000 0.000000
# 4 0.000000 0.000000 0.000000 0.037783 0.000000 0.000000
# 5 0.000000 0.000000 0.000000 0.000000 0.407536 0.000000
# 6 0.000000 0.000000 0.000000 0.000000 0.000000 0.033017
#
#
# Mechanical properties :
#
#
# Convention : Reuss Voigt Hill
#
# Bulk Modulus (GPa) = 43.70340 55.84527 49.77434
# Shear Modulus (GPa) = 9.36672 28.44225 18.90449
#
# Velocity S-wave (km/s) = 2.02406 3.52704 2.87549
# Velocity P-wave (km/s) = 4.95755 6.40408 5.72667
#
# Compressibility (1/GPa) = 0.02288151
#
# Stress axis : x y z
#
# Youngs Moduli (GPa) = 141.67401 85.05592 60.43652
#
# Poissons Ratio (x) = 0.25776 0.14874
# Poissons Ratio (y) = 0.42933 0.04524
# Poissons Ratio (z) = 0.34868 0.06367
#
# Static dielectric constant tensor:
#      x y z
#    x 4.169440 0.000000 0.000000 
#    y 0.000000 4.204480 0.000000 
#    z 0.000000 0.000000 3.913210 
# 
# 
# High freq. dielectric constant tensor:
#      x y z
#    x 1.914370 0.000000 0.000000 
#    y 0.000000 1.911230 0.000000 
#    z 0.000000 0.000000 1.895210 
# 
# From -- ./inp_files/59624.got.cif
#   From: 2010.03.12/outbox.cif.g09.slc.cpg/sg70_30_cif.got.tgz:59624.got - 2010.04.16 13:46:32.
