data_PCOD8286712
_publ_section_title
;
Structure prediction by ZEFSAII (Michael W. Deem and Ramdas Pophale) SiO2 
 PCOD8286712
Probable space group: F D D D
;
_chemical_formula_sum "Si O2"
_cell_formula_units_Z 96
_cell_length_a 24.445525
_cell_length_b 13.896141
_cell_length_c 13.048204
_cell_angle_alpha 90.000000
_cell_angle_beta 90.000000
_cell_angle_gamma 90.000000
_cell_volume 4432.454834
_symmetry_space_group_name_H-M "F D D D"
_symmetry_group_IT_number 70
_space_group.IT_coordinate_system_code '2'
_symmetry_cell_setting 'orthorhombic'
loop_
_space_group_symop_operation_xyz
x,y,z
1/4-x,1/4-y,z
x,1/4-y,1/4-z
1/4-x,y,1/4-z
-x,-y,-z
3/4+x,3/4+y,-z
-x,3/4+y,3/4+z
3/4+x,-y,3/4+z
x,1/2+y,1/2+z
1/4-x,3/4-y,1/2+z
x,3/4-y,3/4-z
1/4-x,1/2+y,3/4-z
-x,1/2-y,1/2-z
3/4+x,1/4+y,1/2-z
-x,1/4+y,1/4+z
3/4+x,1/2-y,1/4+z
1/2+x,y,1/2+z
3/4-x,1/4-y,1/2+z
1/2+x,1/4-y,3/4-z
3/4-x,y,3/4-z
1/2-x,-y,1/2-z
1/4+x,3/4+y,1/2-z
1/2-x,3/4+y,1/4+z
1/4+x,-y,1/4+z
1/2+x,1/2+y,z
3/4-x,3/4-y,z
1/2+x,3/4-y,1/4-z
3/4-x,1/2+y,1/4-z
1/2-x,1/2-y,-z
1/4+x,1/4+y,-z
1/2-x,1/4+y,3/4+z
1/4+x,1/2-y,3/4+z
loop_
_atom_site_type_symbol
_atom_site_label
_atom_site_fract_x
_atom_site_fract_y
_atom_site_fract_z
Si Si1 0.704174 0.187413 0.442066
Si Si2 0.152971 0.253200 0.235543
Si Si3 0.498154 0.111861 0.012936
O O1 0.750000 0.250000 0.500000
O O2 0.647168 0.245449 0.434691
O O3 0.719255 0.168028 0.324563
O O4 0.694700 0.087134 0.503111
O O5 0.125000 0.253019 0.125000
O O6 0.185513 0.350779 0.258962
O O7 0.524684 0.125000 0.125000
O O8 0.500000 0.000000 0.000000
#
# Coordination Sequence:
#
# PCOD8286712 Si02
#       3
#    32  32  32
#     4  11  23  44  77 110 145 198 247 314 368 440
#     4  11  24  47  75 111 145 194 268 299 357 470
#     4  12  26  50  70 108 158 191 241 321 384 444
#
# _framework density 21.658428000000001
#
# number of rings (size 3 to 8) (size 9 to 14) (size 15 to 20)
#    0.000    0.667    6.667    2.000    0.000    0.000 
#   12.000    3.333    0.000    0.000    0.000    0.000 
#    0.000    0.000    0.000    0.000    0.000    0.000 
#
# Total GULP energy -297489.727865 kJ/mol
# GULP energy per Si atom -12395.405328 kJ/mol
# Density = 2.160913 g / cm^3
# Si number density = 21.658428 Si / 1000 Ang^3
#
#
#
# Elastic Constant Matrix: (Units=GPa)
#
#
# Indices 1 2 3 4 5 6 
#
# 1 148.4304 93.0827 63.6125 0.0000 0.0000 0.0000
# 2 93.0827 157.8196 64.2630 0.0000 0.0000 0.0000
# 3 63.6125 64.2630 207.7642 0.0000 0.0000 0.0000
# 4 0.0000 0.0000 0.0000 37.4665 0.0000 0.0000
# 5 0.0000 0.0000 0.0000 0.0000 44.8932 0.0000
# 6 0.0000 0.0000 0.0000 0.0000 0.0000 54.1613
#
#
#
# Elastic Compliance Matrix: (Units=1/GPa)
#
#
# Indices 1 2 3 4 5 6 
#
# 1 0.011125 -0.005920 -0.001575 0.000000 0.000000 0.000000
# 2 -0.005920 0.010400 -0.001404 0.000000 0.000000 0.000000
# 3 -0.001575 -0.001404 0.005730 0.000000 0.000000 0.000000
# 4 0.000000 0.000000 0.000000 0.026691 0.000000 0.000000
# 5 0.000000 0.000000 0.000000 0.000000 0.022275 0.000000
# 6 0.000000 0.000000 0.000000 0.000000 0.000000 0.018463
#
#
# Mechanical properties :
#
#
# Convention : Reuss Voigt Hill
#
# Bulk Modulus (GPa) = 105.75572 106.21449 105.98510
# Shear Modulus (GPa) = 43.24002 46.84125 45.04063
#
# Velocity S-wave (km/s) = 4.47302 4.65556 4.56520
# Velocity P-wave (km/s) = 8.69552 8.83437 8.76522
#
# Compressibility (1/GPa) = 0.00945575
#
# Stress axis : x y z
#
# Youngs Moduli (GPa) = 89.88983 96.15568 174.52960
#
# Poissons Ratio (x) = 0.56925 0.27488
# Poissons Ratio (y) = 0.53216 0.24506
# Poissons Ratio (z) = 0.14158 0.13502
#
# Static dielectric constant tensor:
#      x y z
#    x 4.145300 0.000000 0.000000 
#    y 0.000000 4.119470 0.000000 
#    z 0.000000 0.000000 4.087590 
# 
# 
# High freq. dielectric constant tensor:
#      x y z
#    x 1.848150 0.000000 0.000000 
#    y 0.000000 1.854980 0.000000 
#    z 0.000000 0.000000 1.864080 
# 
# From -- ./inp_files/18401.got.cif
#   From: 2010.03.12/outbox.cif.g09.slc.cpg/sg70_10_cif.got.tgz:18401.got - 2010.04.16 13:46:32.
