data_PCOD8286264
_publ_section_title
;
Structure prediction by ZEFSAII (Michael W. Deem and Ramdas Pophale) SiO2 
 PCOD8286264
Probable space group: F D D D
;
_chemical_formula_sum "Si O2"
_cell_formula_units_Z 136
_cell_length_a 19.556901
_cell_length_b 16.763457
_cell_length_c 20.719369
_cell_angle_alpha 90.000000
_cell_angle_beta 90.000000
_cell_angle_gamma 90.000000
_cell_volume 6792.664225
_symmetry_space_group_name_H-M "F D D D"
_symmetry_group_IT_number 70
_space_group.IT_coordinate_system_code '2'
_symmetry_cell_setting 'orthorhombic'
loop_
_space_group_symop_operation_xyz
x,y,z
1/4-x,1/4-y,z
x,1/4-y,1/4-z
1/4-x,y,1/4-z
-x,-y,-z
3/4+x,3/4+y,-z
-x,3/4+y,3/4+z
3/4+x,-y,3/4+z
x,1/2+y,1/2+z
1/4-x,3/4-y,1/2+z
x,3/4-y,3/4-z
1/4-x,1/2+y,3/4-z
-x,1/2-y,1/2-z
3/4+x,1/4+y,1/2-z
-x,1/4+y,1/4+z
3/4+x,1/2-y,1/4+z
1/2+x,y,1/2+z
3/4-x,1/4-y,1/2+z
1/2+x,1/4-y,3/4-z
3/4-x,y,3/4-z
1/2-x,-y,1/2-z
1/4+x,3/4+y,1/2-z
1/2-x,3/4+y,1/4+z
1/4+x,-y,1/4+z
1/2+x,1/2+y,z
3/4-x,3/4-y,z
1/2+x,3/4-y,1/4-z
3/4-x,1/2+y,1/4-z
1/2-x,1/2-y,-z
1/4+x,1/4+y,-z
1/2-x,1/4+y,3/4+z
1/4+x,1/2-y,3/4+z
loop_
_atom_site_type_symbol
_atom_site_label
_atom_site_fract_x
_atom_site_fract_y
_atom_site_fract_z
Si Si1 0.414685 0.177847 0.437840
Si Si2 0.805204 0.550456 0.711160
Si Si3 0.802980 0.519499 0.565229
Si Si4 0.574224 0.750672 0.220219
Si Si5 0.875000 0.875000 0.875000
O O1 0.375000 0.212314 0.375000
O O2 0.376559 0.206149 0.501974
O O3 0.490752 0.209902 0.445812
O O4 0.415124 0.082693 0.432062
O O5 0.750000 0.500000 0.750000
O O6 0.820802 0.515899 0.640764
O O7 0.780188 0.642098 0.706890
O O8 0.868234 0.488750 0.525313
O O9 0.500000 0.750000 0.250000
O O10 0.576381 0.679325 0.168963
#
# Coordination Sequence:
#
# PCOD8286264 Si02
#       5
#    32  32  32  32   8
#     4  11  21  41  65  91 132 167 213 277 321 387
#     4  10  21  40  64  94 132 167 214 267 324 390
#     4  10  23  41  63  97 128 169 217 263 334 382
#     4  11  25  43  66  94 130 173 221 274 324 402
#     4  12  24  44  68 100 124 174 228 260 352 392
#
# _framework density 20.021598999999998
#
# number of rings (size 3 to 8) (size 9 to 14) (size 15 to 20)
#    0.000    1.412    3.529    1.412    0.000    6.588 
#    0.000    2.353    0.000    0.000    0.000    0.000 
#    0.000    0.000    0.000    0.000    0.000    0.000 
#
# Total GULP energy -421701.575313 kJ/mol
# GULP energy per Si atom -12402.987509 kJ/mol
# Density = 1.997603 g / cm^3
# Si number density = 20.021599 Si / 1000 Ang^3
#
#
#
# Elastic Constant Matrix: (Units=GPa)
#
#
# Indices 1 2 3 4 5 6 
#
# 1 165.3037 65.4728 82.1285 0.0000 0.0000 0.0000
# 2 65.4728 90.4806 72.2405 0.0000 0.0000 0.0000
# 3 82.1285 72.2405 157.1234 0.0000 0.0000 0.0000
# 4 0.0000 0.0000 0.0000 37.5580 0.0000 0.0000
# 5 0.0000 0.0000 0.0000 0.0000 32.6502 0.0000
# 6 0.0000 0.0000 0.0000 0.0000 0.0000 33.4240
#
#
#
# Elastic Compliance Matrix: (Units=1/GPa)
#
#
# Indices 1 2 3 4 5 6 
#
# 1 0.009177 -0.004441 -0.002755 0.000000 0.000000 0.000000
# 2 -0.004441 0.019611 -0.006695 0.000000 0.000000 0.000000
# 3 -0.002755 -0.006695 0.010883 0.000000 0.000000 0.000000
# 4 0.000000 0.000000 0.000000 0.026626 0.000000 0.000000
# 5 0.000000 0.000000 0.000000 0.000000 0.030628 0.000000
# 6 0.000000 0.000000 0.000000 0.000000 0.000000 0.029919
#
#
# Mechanical properties :
#
#
# Convention : Reuss Voigt Hill
#
# Bulk Modulus (GPa) = 84.11557 94.73237 89.42397
# Shear Modulus (GPa) = 31.52800 33.59750 32.56275
#
# Velocity S-wave (km/s) = 3.97255 4.10086 4.03722
# Velocity P-wave (km/s) = 7.94639 8.35707 8.15432
#
# Compressibility (1/GPa) = 0.01188841
#
# Stress axis : x y z
#
# Youngs Moduli (GPa) = 108.96434 50.99088 91.88791
#
# Poissons Ratio (x) = 0.22646 0.25316
# Poissons Ratio (y) = 0.48392 0.61522
# Poissons Ratio (z) = 0.30021 0.34140
#
# Static dielectric constant tensor:
#      x y z
#    x 3.614750 0.000000 0.000000 
#    y 0.000000 3.941930 0.000000 
#    z 0.000000 0.000000 3.954920 
# 
# 
# High freq. dielectric constant tensor:
#      x y z
#    x 1.778840 0.000000 0.000000 
#    y 0.000000 1.785470 0.000000 
#    z 0.000000 0.000000 1.798760 
# 
# From -- ./inp_files/27437.got.cif
#   From: 2010.03.12/outbox.cif.g09.slc.cpg/sg70_14_cif.got.tgz:27437.got - 2010.04.16 13:46:32.
