data_PCOD8286775
_publ_section_title
;
Structure prediction by ZEFSAII (Michael W. Deem and Ramdas Pophale) SiO2 
 PCOD8286775
Probable space group: F D D D
;
_chemical_formula_sum "Si O2"
_cell_formula_units_Z 144
_cell_length_a 18.663944
_cell_length_b 28.920201
_cell_length_c 11.387394
_cell_angle_alpha 90.000000
_cell_angle_beta 90.000000
_cell_angle_gamma 90.000000
_cell_volume 6146.516858
_symmetry_space_group_name_H-M "F D D D"
_symmetry_group_IT_number 70
_space_group.IT_coordinate_system_code '2'
_symmetry_cell_setting 'orthorhombic'
loop_
_space_group_symop_operation_xyz
x,y,z
1/4-x,1/4-y,z
x,1/4-y,1/4-z
1/4-x,y,1/4-z
-x,-y,-z
3/4+x,3/4+y,-z
-x,3/4+y,3/4+z
3/4+x,-y,3/4+z
x,1/2+y,1/2+z
1/4-x,3/4-y,1/2+z
x,3/4-y,3/4-z
1/4-x,1/2+y,3/4-z
-x,1/2-y,1/2-z
3/4+x,1/4+y,1/2-z
-x,1/4+y,1/4+z
3/4+x,1/2-y,1/4+z
1/2+x,y,1/2+z
3/4-x,1/4-y,1/2+z
1/2+x,1/4-y,3/4-z
3/4-x,y,3/4-z
1/2-x,-y,1/2-z
1/4+x,3/4+y,1/2-z
1/2-x,3/4+y,1/4+z
1/4+x,-y,1/4+z
1/2+x,1/2+y,z
3/4-x,3/4-y,z
1/2+x,3/4-y,1/4-z
3/4-x,1/2+y,1/4-z
1/2-x,1/2-y,-z
1/4+x,1/4+y,-z
1/2-x,1/4+y,3/4+z
1/4+x,1/2-y,3/4+z
loop_
_atom_site_type_symbol
_atom_site_label
_atom_site_fract_x
_atom_site_fract_y
_atom_site_fract_z
Si Si1 0.401873 0.825859 0.684426
Si Si2 0.702789 0.672312 0.176504
Si Si3 0.773377 0.988964 0.515683
Si Si4 0.875000 0.044700 0.375000
Si Si5 0.534005 0.926767 0.915133
O O1 0.375000 0.875000 0.730435
O O2 0.446186 0.833321 0.565542
O O3 0.333803 0.791535 0.667913
O O4 0.458271 0.806829 0.778724
O O5 0.739919 0.625000 0.125000
O O6 0.625000 0.677126 0.125000
O O7 0.744263 0.720483 0.146759
O O8 0.709471 0.958679 0.453588
O O9 0.806866 0.014511 0.404682
O O10 0.898822 0.071956 0.494031
O O11 0.528194 0.875000 0.875000
#
# Coordination Sequence:
#
# PCOD8286775 Si02
#       5
#    32  32  32  16  32
#     4  12  22  44  75 102 138 188 241 294 348 434
#     4  11  25  47  68 101 149 194 231 292 368 439
#     4  12  24  42  77 103 132 185 248 294 353 423
#     4  12  24  42  65 102 144 170 225 308 354 402
#     4  12  25  44  70 107 140 184 240 294 365 427
#
# _framework density 23.427903000000001
#
# number of rings (size 3 to 8) (size 9 to 14) (size 15 to 20)
#    0.000    0.222    8.889    2.000    0.000    1.778 
#    2.000    0.000    0.000    0.000    0.000    0.000 
#    0.000    0.000    0.000    0.000    0.000    0.000 
#
# Total GULP energy -445974.074156 kJ/mol
# GULP energy per Si atom -12388.168727 kJ/mol
# Density = 2.337458 g / cm^3
# Si number density = 23.427903 Si / 1000 Ang^3
#
#
#
# Elastic Constant Matrix: (Units=GPa)
#
#
# Indices 1 2 3 4 5 6 
#
# 1 54.2632 58.9546 12.2517 0.0000 0.0000 0.0000
# 2 58.9546 181.2083 47.1239 0.0000 0.0000 0.0000
# 3 12.2517 47.1239 68.0755 0.0000 0.0000 0.0000
# 4 0.0000 0.0000 0.0000 43.0098 0.0000 0.0000
# 5 0.0000 0.0000 0.0000 0.0000 36.8712 0.0000
# 6 0.0000 0.0000 0.0000 0.0000 0.0000 28.8531
#
#
#
# Elastic Compliance Matrix: (Units=1/GPa)
#
#
# Indices 1 2 3 4 5 6 
#
# 1 0.028643 -0.009730 0.001580 0.000000 0.000000 0.000000
# 2 -0.009730 0.010035 -0.005196 0.000000 0.000000 0.000000
# 3 0.001580 -0.005196 0.018002 0.000000 0.000000 0.000000
# 4 0.000000 0.000000 0.000000 0.023251 0.000000 0.000000
# 5 0.000000 0.000000 0.000000 0.000000 0.027121 0.000000
# 6 0.000000 0.000000 0.000000 0.000000 0.000000 0.034658
#
#
# Mechanical properties :
#
#
# Convention : Reuss Voigt Hill
#
# Bulk Modulus (GPa) = 33.34487 60.02304 46.68396
# Shear Modulus (GPa) = 28.02754 34.09461 31.06108
#
# Velocity S-wave (km/s) = 3.46255 3.81898 3.64513
# Velocity P-wave (km/s) = 5.49996 6.71730 6.13888
#
# Compressibility (1/GPa) = 0.02998962
#
# Stress axis : x y z
#
# Youngs Moduli (GPa) = 34.91294 99.65067 55.55043
#
# Poissons Ratio (x) = 0.96956 -0.08778
# Poissons Ratio (y) = 0.33969 0.28861
# Poissons Ratio (z) = -0.05517 0.51774
#
# Static dielectric constant tensor:
#      x y z
#    x 8.520900 0.000000 0.000000 
#    y 0.000000 4.696220 0.000000 
#    z 0.000000 0.000000 6.935010 
# 
# 
# High freq. dielectric constant tensor:
#      x y z
#    x 1.908030 0.000000 0.000000 
#    y 0.000000 1.945240 0.000000 
#    z 0.000000 0.000000 1.913250 
# 
# From -- ./inp_files/19232.got.cif
#   From: 2010.03.12/outbox.cif.g09.slc.cpg/sg70_10_cif.got.tgz:19232.got - 2010.04.16 13:46:32.
