data_PCOD8286637
_publ_section_title
;
Structure prediction by ZEFSAII (Michael W. Deem and Ramdas Pophale) SiO2 
 PCOD8286637
Probable space group: F D D D
;
_chemical_formula_sum "Si O2"
_cell_formula_units_Z 176
_cell_length_a 15.510866
_cell_length_b 23.258501
_cell_length_c 22.120510
_cell_angle_alpha 90.000000
_cell_angle_beta 90.000000
_cell_angle_gamma 90.000000
_cell_volume 7980.183959
_symmetry_space_group_name_H-M "F D D D"
_symmetry_group_IT_number 70
_space_group.IT_coordinate_system_code '2'
_symmetry_cell_setting 'orthorhombic'
loop_
_space_group_symop_operation_xyz
x,y,z
1/4-x,1/4-y,z
x,1/4-y,1/4-z
1/4-x,y,1/4-z
-x,-y,-z
3/4+x,3/4+y,-z
-x,3/4+y,3/4+z
3/4+x,-y,3/4+z
x,1/2+y,1/2+z
1/4-x,3/4-y,1/2+z
x,3/4-y,3/4-z
1/4-x,1/2+y,3/4-z
-x,1/2-y,1/2-z
3/4+x,1/4+y,1/2-z
-x,1/4+y,1/4+z
3/4+x,1/2-y,1/4+z
1/2+x,y,1/2+z
3/4-x,1/4-y,1/2+z
1/2+x,1/4-y,3/4-z
3/4-x,y,3/4-z
1/2-x,-y,1/2-z
1/4+x,3/4+y,1/2-z
1/2-x,3/4+y,1/4+z
1/4+x,-y,1/4+z
1/2+x,1/2+y,z
3/4-x,3/4-y,z
1/2+x,3/4-y,1/4-z
3/4-x,1/2+y,1/4-z
1/2-x,1/2-y,-z
1/4+x,1/4+y,-z
1/2-x,1/4+y,3/4+z
1/4+x,1/2-y,3/4+z
loop_
_atom_site_type_symbol
_atom_site_label
_atom_site_fract_x
_atom_site_fract_y
_atom_site_fract_z
Si Si1 0.490722 0.472795 0.716534
Si Si2 0.469891 0.523480 0.150462
Si Si3 0.875000 0.052835 0.875000
Si Si4 0.836017 0.659867 0.676376
Si Si5 0.655112 0.342482 0.041350
Si Si6 0.168210 0.183681 0.401186
O O1 0.482035 0.454508 0.787487
O O2 0.471851 0.540625 0.706637
O O3 0.583991 0.454693 0.690772
O O4 0.425301 0.438826 0.672093
O O5 0.540782 0.486650 0.113438
O O6 0.427900 0.569173 0.103718
O O7 0.392092 0.484269 0.176018
O O8 0.861344 0.094300 0.931523
O O9 0.782869 0.625000 0.625000
O O10 0.854117 0.606665 0.721006
O O11 0.742920 0.313104 0.062594
O O12 0.125000 0.125000 0.419076
#
# Coordination Sequence:
#
# PCOD8286637 Si02
#       6
#    32  32  16  32  32  32
#     4  11  22  41  66 100 133 181 225 281 357 415
#     4  11  24  42  67  96 142 177 236 288 348 405
#     4  12  22  44  69 102 129 186 242 278 344 418
#     4  11  24  44  68  99 145 179 227 301 343 409
#     4  12  22  42  71  95 138 181 230 286 347 418
#     4  11  21  41  67  96 130 182 228 285 337 421
#
# _framework density 22.054628999999998
#
# number of rings (size 3 to 8) (size 9 to 14) (size 15 to 20)
#    0.000    0.727    7.273    0.000    0.000    1.455 
#    6.545    0.455    4.000    0.000    0.000    0.000 
#    0.000    0.000    0.000    0.000    0.000    0.000 
#
# Total GULP energy -545079.734730 kJ/mol
# GULP energy per Si atom -12388.175789 kJ/mol
# Density = 2.200443 g / cm^3
# Si number density = 22.054629 Si / 1000 Ang^3
#
#
#
# Elastic Constant Matrix: (Units=GPa)
#
#
# Indices 1 2 3 4 5 6 
#
# 1 93.6065 29.0085 11.8026 0.0000 0.0000 0.0000
# 2 29.0085 70.6660 6.2530 0.0000 0.0000 0.0000
# 3 11.8026 6.2530 97.7934 0.0000 0.0000 0.0000
# 4 0.0000 0.0000 0.0000 25.5998 0.0000 0.0000
# 5 0.0000 0.0000 0.0000 0.0000 22.0710 0.0000
# 6 0.0000 0.0000 0.0000 0.0000 0.0000 38.3073
#
#
#
# Elastic Compliance Matrix: (Units=1/GPa)
#
#
# Indices 1 2 3 4 5 6 
#
# 1 0.012373 -0.004975 -0.001175 0.000000 0.000000 0.000000
# 2 -0.004975 0.016232 -0.000437 0.000000 0.000000 0.000000
# 3 -0.001175 -0.000437 0.010395 0.000000 0.000000 0.000000
# 4 0.000000 0.000000 0.000000 0.039063 0.000000 0.000000
# 5 0.000000 0.000000 0.000000 0.000000 0.045308 0.000000
# 6 0.000000 0.000000 0.000000 0.000000 0.000000 0.026105
#
#
# Mechanical properties :
#
#
# Convention : Reuss Voigt Hill
#
# Bulk Modulus (GPa) = 38.72219 39.57713 39.14966
# Shear Modulus (GPa) = 29.19534 31.52907 30.36220
#
# Velocity S-wave (km/s) = 3.64232 3.78509 3.71439
# Velocity P-wave (km/s) = 5.94005 6.08987 6.01543
#
# Compressibility (1/GPa) = 0.02582498
#
# Stress axis : x y z
#
# Youngs Moduli (GPa) = 80.82121 61.60634 96.19607
#
# Poissons Ratio (x) = 0.30650 0.11305
# Poissons Ratio (y) = 0.40210 0.04208
# Poissons Ratio (z) = 0.09498 0.02695
#
# Static dielectric constant tensor:
#      x y z
#    x 4.269550 0.000000 0.000000 
#    y 0.000000 4.021840 0.000000 
#    z 0.000000 0.000000 4.082070 
# 
# 
# High freq. dielectric constant tensor:
#      x y z
#    x 1.851750 0.000000 0.000000 
#    y 0.000000 1.870230 0.000000 
#    z 0.000000 0.000000 1.878130 
# 
# From -- ./inp_files/29066.got.cif
#   From: 2010.03.12/outbox.cif.g09.slc.cpg/sg70_15_cif.got.tgz:29066.got - 2010.04.16 13:46:32.
