data_PCOD8286553
_publ_section_title
;
Structure prediction by ZEFSAII (Michael W. Deem and Ramdas Pophale) SiO2 
 PCOD8286553
Probable space group: F D D D
;
_chemical_formula_sum "Si O2"
_cell_formula_units_Z 176
_cell_length_a 12.176822
_cell_length_b 25.311265
_cell_length_c 24.690405
_cell_angle_alpha 90.000000
_cell_angle_beta 90.000000
_cell_angle_gamma 90.000000
_cell_volume 7609.848700
_symmetry_space_group_name_H-M "F D D D"
_symmetry_group_IT_number 70
_space_group.IT_coordinate_system_code '2'
_symmetry_cell_setting 'orthorhombic'
loop_
_space_group_symop_operation_xyz
x,y,z
1/4-x,1/4-y,z
x,1/4-y,1/4-z
1/4-x,y,1/4-z
-x,-y,-z
3/4+x,3/4+y,-z
-x,3/4+y,3/4+z
3/4+x,-y,3/4+z
x,1/2+y,1/2+z
1/4-x,3/4-y,1/2+z
x,3/4-y,3/4-z
1/4-x,1/2+y,3/4-z
-x,1/2-y,1/2-z
3/4+x,1/4+y,1/2-z
-x,1/4+y,1/4+z
3/4+x,1/2-y,1/4+z
1/2+x,y,1/2+z
3/4-x,1/4-y,1/2+z
1/2+x,1/4-y,3/4-z
3/4-x,y,3/4-z
1/2-x,-y,1/2-z
1/4+x,3/4+y,1/2-z
1/2-x,3/4+y,1/4+z
1/4+x,-y,1/4+z
1/2+x,1/2+y,z
3/4-x,3/4-y,z
1/2+x,3/4-y,1/4-z
3/4-x,1/2+y,1/4-z
1/2-x,1/2-y,-z
1/4+x,1/4+y,-z
1/2-x,1/4+y,3/4+z
1/4+x,1/2-y,3/4+z
loop_
_atom_site_type_symbol
_atom_site_label
_atom_site_fract_x
_atom_site_fract_y
_atom_site_fract_z
Si Si1 0.816944 0.483867 0.516362
Si Si2 0.875000 0.875000 0.237732
Si Si3 0.625000 0.625000 0.214332
Si Si4 0.333618 0.268123 0.455999
Si Si5 0.289315 0.560468 0.924472
Si Si6 0.605814 0.484919 0.380425
Si Si7 0.795857 0.125000 0.625000
O O1 0.846403 0.424178 0.502032
O O2 0.691272 0.482987 0.536378
O O3 0.851886 0.525875 0.469907
O O4 0.883838 0.502214 0.568623
O O5 0.889602 0.828496 0.280652
O O6 0.766405 0.863868 0.199342
O O7 0.724562 0.607015 0.176301
O O8 0.250000 0.250000 0.500000
O O9 0.273016 0.259448 0.397573
O O10 0.375000 0.572286 0.875000
O O11 0.184418 0.523821 0.912941
O O12 0.632529 0.424339 0.394070
#
# Coordination Sequence:
#
# PCOD8286553 Si02
#       7
#    32  16  16  32  32  32  16
#     4  11  25  45  72 104 142 192 239 299 361 436
#     4  10  24  45  75 107 135 194 246 288 368 434
#     4  11  22  47  70 103 143 192 249 299 364 428
#     4  11  22  49  73  99 148 186 237 301 362 426
#     4  11  24  49  69 102 150 189 237 305 356 428
#     4  12  25  45  70 107 147 190 241 301 362 432
#     4  11  24  40  75 102 142 198 247 300 355 426
#
# _framework density 23.127922999999999
#
# number of rings (size 3 to 8) (size 9 to 14) (size 15 to 20)
#    0.000    0.909    5.455    1.636    5.091    3.636 
#    6.545    0.000    0.000    0.000    0.000    0.000 
#    0.000    0.000    0.000    0.000    0.000    0.000 
#
# Total GULP energy -545310.273908 kJ/mol
# GULP energy per Si atom -12393.415316 kJ/mol
# Density = 2.307528 g / cm^3
# Si number density = 23.127923 Si / 1000 Ang^3
#
#
#
# Elastic Constant Matrix: (Units=GPa)
#
#
# Indices 1 2 3 4 5 6 
#
# 1 73.3879 44.7305 23.8727 0.0000 0.0000 0.0000
# 2 44.7305 103.2168 35.2963 0.0000 0.0000 0.0000
# 3 23.8727 35.2963 128.1129 0.0000 0.0000 0.0000
# 4 0.0000 0.0000 0.0000 29.7437 0.0000 0.0000
# 5 0.0000 0.0000 0.0000 0.0000 40.3206 0.0000
# 6 0.0000 0.0000 0.0000 0.0000 0.0000 39.8109
#
#
#
# Elastic Compliance Matrix: (Units=1/GPa)
#
#
# Indices 1 2 3 4 5 6 
#
# 1 0.018737 -0.007647 -0.001385 0.000000 0.000000 0.000000
# 2 -0.007647 0.013817 -0.002382 0.000000 0.000000 0.000000
# 3 -0.001385 -0.002382 0.008720 0.000000 0.000000 0.000000
# 4 0.000000 0.000000 0.000000 0.033621 0.000000 0.000000
# 5 0.000000 0.000000 0.000000 0.000000 0.024801 0.000000
# 6 0.000000 0.000000 0.000000 0.000000 0.000000 0.025119
#
#
# Mechanical properties :
#
#
# Convention : Reuss Voigt Hill
#
# Bulk Modulus (GPa) = 54.20780 56.94629 55.57704
# Shear Modulus (GPa) = 32.51197 35.36293 33.93745
#
# Velocity S-wave (km/s) = 3.75339 3.91450 3.83480
# Velocity P-wave (km/s) = 6.50178 6.71617 6.60984
#
# Compressibility (1/GPa) = 0.01844753
#
# Stress axis : x y z
#
# Youngs Moduli (GPa) = 53.36948 72.37708 114.68082
#
# Poissons Ratio (x) = 0.55343 0.15882
# Poissons Ratio (y) = 0.40809 0.27314
# Poissons Ratio (z) = 0.07391 0.17238
#
# Static dielectric constant tensor:
#      x y z
#    x 4.798020 0.000000 0.000000 
#    y 0.000000 3.857490 0.000000 
#    z 0.000000 0.000000 4.310940 
# 
# 
# High freq. dielectric constant tensor:
#      x y z
#    x 1.917570 0.000000 0.000000 
#    y 0.000000 1.907360 0.000000 
#    z 0.000000 0.000000 1.928470 
# 
# From -- ./inp_files/57802.got.cif
#   From: 2010.03.12/outbox.cif.g09.slc.cpg/sg70_29_cif.got.tgz:57802.got - 2010.04.16 13:46:32.
