data_PCOD8286227
_publ_section_title
;
Structure prediction by ZEFSAII (Michael W. Deem and Ramdas Pophale) SiO2 
 PCOD8286227
Probable space group: F D D D
;
_chemical_formula_sum "Si O2"
_cell_formula_units_Z 176
_cell_length_a 29.316504
_cell_length_b 11.637852
_cell_length_c 24.261681
_cell_angle_alpha 90.000000
_cell_angle_beta 90.000000
_cell_angle_gamma 90.000000
_cell_volume 8277.627854
_symmetry_space_group_name_H-M "F D D D"
_symmetry_group_IT_number 70
_space_group.IT_coordinate_system_code '2'
_symmetry_cell_setting 'orthorhombic'
loop_
_space_group_symop_operation_xyz
x,y,z
1/4-x,1/4-y,z
x,1/4-y,1/4-z
1/4-x,y,1/4-z
-x,-y,-z
3/4+x,3/4+y,-z
-x,3/4+y,3/4+z
3/4+x,-y,3/4+z
x,1/2+y,1/2+z
1/4-x,3/4-y,1/2+z
x,3/4-y,3/4-z
1/4-x,1/2+y,3/4-z
-x,1/2-y,1/2-z
3/4+x,1/4+y,1/2-z
-x,1/4+y,1/4+z
3/4+x,1/2-y,1/4+z
1/2+x,y,1/2+z
3/4-x,1/4-y,1/2+z
1/2+x,1/4-y,3/4-z
3/4-x,y,3/4-z
1/2-x,-y,1/2-z
1/4+x,3/4+y,1/2-z
1/2-x,3/4+y,1/4+z
1/4+x,-y,1/4+z
1/2+x,1/2+y,z
3/4-x,3/4-y,z
1/2+x,3/4-y,1/4-z
3/4-x,1/2+y,1/4-z
1/2-x,1/2-y,-z
1/4+x,1/4+y,-z
1/2-x,1/4+y,3/4+z
1/4+x,1/2-y,3/4+z
loop_
_atom_site_type_symbol
_atom_site_label
_atom_site_fract_x
_atom_site_fract_y
_atom_site_fract_z
Si Si1 0.557426 0.805012 0.694590
Si Si2 0.625000 0.928170 0.625000
Si Si3 0.035159 0.211470 0.169941
Si Si4 0.487333 0.439480 0.639541
Si Si5 0.321016 0.871711 0.039902
Si Si6 0.991716 0.484057 0.256911
O O1 0.606800 0.839644 0.671740
O O2 0.526631 0.747510 0.646371
O O3 0.556207 0.728642 0.748404
O O4 0.533003 0.926838 0.703325
O O5 0.662047 0.008828 0.655511
O O6 0.014505 0.125000 0.125000
O O7 0.026523 0.143787 0.227553
O O8 0.006421 0.326755 0.170396
O O9 0.443135 0.413367 0.602125
O O10 0.476652 0.515327 0.693847
O O11 0.375000 0.875000 0.038029
O O12 0.296197 0.989954 0.018960
#
# Coordination Sequence:
#
# PCOD8286227 Si02
#       6
#    32  16  32  32  32  32
#     4  10  23  40  64  88 127 162 212 262 308 372
#     4  10  21  38  63 100 120 156 221 268 307 362
#     4  11  19  38  67  92 128 162 205 264 315 370
#     4  10  22  42  63  92 125 165 210 251 325 383
#     4  11  25  43  60  91 130 163 212 265 311 378
#     4  11  22  41  66  90 123 175 206 253 321 381
#
# _framework density 21.262129999999999
#
# number of rings (size 3 to 8) (size 9 to 14) (size 15 to 20)
#    0.000    1.455    5.455    3.000    5.091    2.909 
#    3.273    1.818    0.000    0.000    0.000    0.000 
#    0.000    0.000    0.000    0.000    0.000    0.000 
#
# Total GULP energy -545105.817275 kJ/mol
# GULP energy per Si atom -12388.768574 kJ/mol
# Density = 2.121374 g / cm^3
# Si number density = 21.262130 Si / 1000 Ang^3
#
#
#
# Elastic Constant Matrix: (Units=GPa)
#
#
# Indices 1 2 3 4 5 6 
#
# 1 87.2640 21.6111 31.4665 0.0000 0.0000 0.0000
# 2 21.6111 51.2290 8.7955 0.0000 0.0000 0.0000
# 3 31.4665 8.7955 131.6862 0.0000 0.0000 0.0000
# 4 0.0000 0.0000 0.0000 32.1582 0.0000 0.0000
# 5 0.0000 0.0000 0.0000 0.0000 23.9385 0.0000
# 6 0.0000 0.0000 0.0000 0.0000 0.0000 18.6782
#
#
#
# Elastic Compliance Matrix: (Units=1/GPa)
#
#
# Indices 1 2 3 4 5 6 
#
# 1 0.013845 -0.005334 -0.002952 0.000000 0.000000 0.000000
# 2 -0.005334 0.021801 -0.000182 0.000000 0.000000 0.000000
# 3 -0.002952 -0.000182 0.008311 0.000000 0.000000 0.000000
# 4 0.000000 0.000000 0.000000 0.031096 0.000000 0.000000
# 5 0.000000 0.000000 0.000000 0.000000 0.041774 0.000000
# 6 0.000000 0.000000 0.000000 0.000000 0.000000 0.053538
#
#
# Mechanical properties :
#
#
# Convention : Reuss Voigt Hill
#
# Bulk Modulus (GPa) = 37.00557 43.76947 40.38752
# Shear Modulus (GPa) = 25.47017 28.84207 27.15612
#
# Velocity S-wave (km/s) = 3.46484 3.68706 3.57768
# Velocity P-wave (km/s) = 5.78352 6.22545 6.00855
#
# Compressibility (1/GPa) = 0.02702296
#
# Stress axis : x y z
#
# Youngs Moduli (GPa) = 72.22918 45.86860 120.31776
#
# Poissons Ratio (x) = 0.24465 0.35518
# Poissons Ratio (y) = 0.38524 0.02186
# Poissons Ratio (z) = 0.21322 0.00833
#
# Static dielectric constant tensor:
#      x y z
#    x 3.856270 0.000000 0.000000 
#    y 0.000000 3.788870 0.000000 
#    z 0.000000 0.000000 4.101150 
# 
# 
# High freq. dielectric constant tensor:
#      x y z
#    x 1.813160 0.000000 0.000000 
#    y 0.000000 1.827270 0.000000 
#    z 0.000000 0.000000 1.852100 
# 
# From -- ./inp_files/19659.got.cif
#   From: 2010.03.12/outbox.cif.g09.slc.cpg/sg70_10_cif.got.tgz:19659.got - 2010.04.16 13:46:32.
