data_PCOD8286509
_publ_section_title
;
Structure prediction by ZEFSAII (Michael W. Deem and Ramdas Pophale) SiO2 
 PCOD8286509
Probable space group: F D D D
;
_chemical_formula_sum "Si O2"
_cell_formula_units_Z 136
_cell_length_a 21.927901
_cell_length_b 10.430487
_cell_length_c 27.675816
_cell_angle_alpha 90.000000
_cell_angle_beta 90.000000
_cell_angle_gamma 90.000000
_cell_volume 6329.976278
_symmetry_space_group_name_H-M "F D D D"
_symmetry_group_IT_number 70
_space_group.IT_coordinate_system_code '2'
_symmetry_cell_setting 'orthorhombic'
loop_
_space_group_symop_operation_xyz
x,y,z
1/4-x,1/4-y,z
x,1/4-y,1/4-z
1/4-x,y,1/4-z
-x,-y,-z
3/4+x,3/4+y,-z
-x,3/4+y,3/4+z
3/4+x,-y,3/4+z
x,1/2+y,1/2+z
1/4-x,3/4-y,1/2+z
x,3/4-y,3/4-z
1/4-x,1/2+y,3/4-z
-x,1/2-y,1/2-z
3/4+x,1/4+y,1/2-z
-x,1/4+y,1/4+z
3/4+x,1/2-y,1/4+z
1/2+x,y,1/2+z
3/4-x,1/4-y,1/2+z
1/2+x,1/4-y,3/4-z
3/4-x,y,3/4-z
1/2-x,-y,1/2-z
1/4+x,3/4+y,1/2-z
1/2-x,3/4+y,1/4+z
1/4+x,-y,1/4+z
1/2+x,1/2+y,z
3/4-x,3/4-y,z
1/2+x,3/4-y,1/4-z
3/4-x,1/2+y,1/4-z
1/2-x,1/2-y,-z
1/4+x,1/4+y,-z
1/2-x,1/4+y,3/4+z
1/4+x,1/2-y,3/4+z
loop_
_atom_site_type_symbol
_atom_site_label
_atom_site_fract_x
_atom_site_fract_y
_atom_site_fract_z
Si Si1 0.978500 0.034173 0.828381
Si Si2 0.087027 0.004149 0.896681
Si Si3 0.615198 0.772218 0.681601
Si Si4 0.550392 0.897512 0.490047
Si Si5 0.125000 0.125000 0.125000
O O1 0.954462 0.175167 0.810530
O O2 0.916285 0.957912 0.838753
O O3 0.017898 0.031134 0.878043
O O4 0.020295 0.975786 0.786097
O O5 0.115546 0.875000 0.875000
O O6 0.093223 0.977803 0.953619
O O7 0.125000 0.125000 0.879455
O O8 0.625000 0.625000 0.697127
O O9 0.625000 0.792159 0.625000
O O10 0.663437 0.854854 0.712477
O O11 0.500000 0.000000 0.500000
#
# Coordination Sequence:
#
# PCOD8286509 Si02
#       5
#    32  32  32  32   8
#     4  11  22  42  70  98 139 184 222 293 354 416
#     4  10  23  45  67 102 138 179 233 287 353 418
#     4  11  25  45  65  97 141 183 230 286 354 422
#     4  11  23  40  66 104 131 174 239 278 345 415
#     4  12  16  40  70 100 136 180 224 284 356 408
#
# _framework density 21.485071000000001
#
# number of rings (size 3 to 8) (size 9 to 14) (size 15 to 20)
#    0.000    1.176    4.706    2.824    3.294    4.706 
#    8.471    0.000    0.000    0.000    0.000    0.000 
#    0.000    0.000    0.000    0.000    0.000    0.000 
#
# Total GULP energy -421225.288112 kJ/mol
# GULP energy per Si atom -12388.979062 kJ/mol
# Density = 2.143617 g / cm^3
# Si number density = 21.485071 Si / 1000 Ang^3
#
#
#
# Elastic Constant Matrix: (Units=GPa)
#
#
# Indices 1 2 3 4 5 6 
#
# 1 91.7110 61.7133 43.3518 0.0000 0.0000 0.0000
# 2 61.7133 154.1458 40.9808 0.0000 0.0000 0.0000
# 3 43.3518 40.9808 114.8025 0.0000 0.0000 0.0000
# 4 0.0000 0.0000 0.0000 23.7982 0.0000 0.0000
# 5 0.0000 0.0000 0.0000 0.0000 23.5399 0.0000
# 6 0.0000 0.0000 0.0000 0.0000 0.0000 36.2944
#
#
#
# Elastic Compliance Matrix: (Units=1/GPa)
#
#
# Indices 1 2 3 4 5 6 
#
# 1 0.016662 -0.005522 -0.004321 0.000000 0.000000 0.000000
# 2 -0.005522 0.008998 -0.001127 0.000000 0.000000 0.000000
# 3 -0.004321 -0.001127 0.010744 0.000000 0.000000 0.000000
# 4 0.000000 0.000000 0.000000 0.042020 0.000000 0.000000
# 5 0.000000 0.000000 0.000000 0.000000 0.042481 0.000000
# 6 0.000000 0.000000 0.000000 0.000000 0.000000 0.027552
#
#
# Mechanical properties :
#
#
# Convention : Reuss Voigt Hill
#
# Bulk Modulus (GPa) = 69.13118 72.52790 70.82954
# Shear Modulus (GPa) = 28.53583 31.03407 29.78495
#
# Velocity S-wave (km/s) = 3.64836 3.80471 3.72736
# Velocity P-wave (km/s) = 7.07062 7.28915 7.18072
#
# Compressibility (1/GPa) = 0.01446525
#
# Stress axis : x y z
#
# Youngs Moduli (GPa) = 60.01639 111.13958 93.07180
#
# Poissons Ratio (x) = 0.61372 0.40214
# Poissons Ratio (y) = 0.33142 0.10486
# Poissons Ratio (z) = 0.25932 0.12521
#
# Static dielectric constant tensor:
#      x y z
#    x 3.795660 0.000000 0.000000 
#    y 0.000000 4.273600 0.000000 
#    z 0.000000 0.000000 4.218100 
# 
# 
# High freq. dielectric constant tensor:
#      x y z
#    x 1.827380 0.000000 0.000000 
#    y 0.000000 1.852200 0.000000 
#    z 0.000000 0.000000 1.847060 
# 
# From -- ./inp_files/17839.got.cif
#   From: 2010.03.12/outbox.cif.g09.slc.cpg/sg70_9_cif.got.tgz:17839.got - 2010.04.16 13:46:32.
