data_PCOD8286520
_publ_section_title
;
Structure prediction by ZEFSAII (Michael W. Deem and Ramdas Pophale) SiO2 
 PCOD8286520
Probable space group: F D D D
;
_chemical_formula_sum "Si O2"
_cell_formula_units_Z 176
_cell_length_a 16.591615
_cell_length_b 29.512848
_cell_length_c 15.605150
_cell_angle_alpha 90.000000
_cell_angle_beta 90.000000
_cell_angle_gamma 90.000000
_cell_volume 7641.308439
_symmetry_space_group_name_H-M "F D D D"
_symmetry_group_IT_number 70
_space_group.IT_coordinate_system_code '2'
_symmetry_cell_setting 'orthorhombic'
loop_
_space_group_symop_operation_xyz
x,y,z
1/4-x,1/4-y,z
x,1/4-y,1/4-z
1/4-x,y,1/4-z
-x,-y,-z
3/4+x,3/4+y,-z
-x,3/4+y,3/4+z
3/4+x,-y,3/4+z
x,1/2+y,1/2+z
1/4-x,3/4-y,1/2+z
x,3/4-y,3/4-z
1/4-x,1/2+y,3/4-z
-x,1/2-y,1/2-z
3/4+x,1/4+y,1/2-z
-x,1/4+y,1/4+z
3/4+x,1/2-y,1/4+z
1/2+x,y,1/2+z
3/4-x,1/4-y,1/2+z
1/2+x,1/4-y,3/4-z
3/4-x,y,3/4-z
1/2-x,-y,1/2-z
1/4+x,3/4+y,1/2-z
1/2-x,3/4+y,1/4+z
1/4+x,-y,1/4+z
1/2+x,1/2+y,z
3/4-x,3/4-y,z
1/2+x,3/4-y,1/4-z
3/4-x,1/2+y,1/4-z
1/2-x,1/2-y,-z
1/4+x,1/4+y,-z
1/2-x,1/4+y,3/4+z
1/4+x,1/2-y,3/4+z
loop_
_atom_site_type_symbol
_atom_site_label
_atom_site_fract_x
_atom_site_fract_y
_atom_site_fract_z
Si Si1 0.375000 0.257013 0.375000
Si Si2 0.375000 0.375000 0.589651
Si Si3 0.150277 0.938445 0.476255
Si Si4 0.125000 0.791923 0.625000
Si Si5 0.776974 0.414567 0.807726
Si Si6 0.255729 0.601720 0.774741
Si Si7 0.746126 0.223621 0.588991
O O1 0.401683 0.225935 0.451988
O O2 0.451997 0.287633 0.350899
O O3 0.419973 0.410871 0.528507
O O4 0.308051 0.399817 0.647491
O O5 0.220131 0.902453 0.499340
O O6 0.169859 0.963826 0.387124
O O7 0.066031 0.912598 0.468507
O O8 0.162086 0.824363 0.551732
O O9 0.192860 0.754517 0.654334
O O10 0.797026 0.375000 0.875000
O O11 0.215291 0.576372 0.692550
O O12 0.750000 0.250000 0.500000
#
# Coordination Sequence:
#
# PCOD8286520 Si02
#       7
#    16  16  32  16  32  32  32
#     4  12  26  44  70 119 144 193 250 314 396 466
#     4  12  25  44  77 106 154 196 260 308 389 475
#     4  12  27  47  75 107 152 194 258 317 392 485
#     4  10  23  46  71  99 144 185 257 298 383 444
#     4  12  25  49  74 106 148 202 251 324 396 468
#     4  11  25  46  71 106 143 204 241 311 390 456
#     4  10  25  44  71 107 136 195 247 315 376 455
#
# _framework density 23.032703000000001
#
# number of rings (size 3 to 8) (size 9 to 14) (size 15 to 20)
#    0.000    0.727    1.818    4.909    7.636    5.818 
#    0.000    0.000    0.000    0.000    0.000    0.000 
#    0.000    0.000    0.000    0.000    0.000    0.000 
#
# Total GULP energy -545124.166718 kJ/mol
# GULP energy per Si atom -12389.185607 kJ/mol
# Density = 2.298028 g / cm^3
# Si number density = 23.032703 Si / 1000 Ang^3
#
#
#
# Elastic Constant Matrix: (Units=GPa)
#
#
# Indices 1 2 3 4 5 6 
#
# 1 114.9349 42.9170 57.2272 0.0000 0.0000 0.0000
# 2 42.9170 149.7351 63.1940 0.0000 0.0000 0.0000
# 3 57.2272 63.1940 142.6129 0.0000 0.0000 0.0000
# 4 0.0000 0.0000 0.0000 36.2826 0.0000 0.0000
# 5 0.0000 0.0000 0.0000 0.0000 43.4009 0.0000
# 6 0.0000 0.0000 0.0000 0.0000 0.0000 13.4827
#
#
#
# Elastic Compliance Matrix: (Units=1/GPa)
#
#
# Indices 1 2 3 4 5 6 
#
# 1 0.011181 -0.001613 -0.003772 0.000000 0.000000 0.000000
# 2 -0.001613 0.008447 -0.003096 0.000000 0.000000 0.000000
# 3 -0.003772 -0.003096 0.009897 0.000000 0.000000 0.000000
# 4 0.000000 0.000000 0.000000 0.027561 0.000000 0.000000
# 5 0.000000 0.000000 0.000000 0.000000 0.023041 0.000000
# 6 0.000000 0.000000 0.000000 0.000000 0.000000 0.074169
#
#
# Mechanical properties :
#
#
# Convention : Reuss Voigt Hill
#
# Bulk Modulus (GPa) = 79.59088 81.55105 80.57096
# Shear Modulus (GPa) = 28.49870 34.89623 31.69747
#
# Velocity S-wave (km/s) = 3.52136 3.89662 3.71373
# Velocity P-wave (km/s) = 7.15290 7.46514 7.31069
#
# Compressibility (1/GPa) = 0.01256425
#
# Stress axis : x y z
#
# Youngs Moduli (GPa) = 89.43829 118.38061 101.03569
#
# Poissons Ratio (x) = 0.19092 0.38111
# Poissons Ratio (y) = 0.14424 0.31281
# Poissons Ratio (z) = 0.33736 0.36651
#
# Static dielectric constant tensor:
#      x y z
#    x 2.451420 0.000000 0.000000 
#    y 0.000000 4.600810 0.000000 
#    z 0.000000 0.000000 -7.616550 
# 
# 
# High freq. dielectric constant tensor:
#      x y z
#    x 1.899830 0.000000 0.000000 
#    y 0.000000 1.929110 0.000000 
#    z 0.000000 0.000000 1.911890 
# 
# From -- ./inp_files/35470.got.cif
#   From: 2010.03.12/outbox.cif.g09.slc.cpg/sg70_18_cif.got.tgz:35470.got - 2010.04.16 13:46:32.
