data_PCOD8286967
_publ_section_title
;
Structure prediction by ZEFSAII (Michael W. Deem and Ramdas Pophale) SiO2 
 PCOD8286967
Probable space group: I M M M
;
_chemical_formula_sum "Si O2"
_cell_formula_units_Z 96
_cell_length_a 27.402485
_cell_length_b 29.894377
_cell_length_c 9.235362
_cell_angle_alpha 90.000000
_cell_angle_beta 90.000000
_cell_angle_gamma 90.000000
_cell_volume 7565.425850
_symmetry_space_group_name_H-M "I M M M"
_symmetry_group_IT_number 71
_symmetry_cell_setting 'orthorhombic'
loop_
_space_group_symop_operation_xyz
x,y,z
-x,-y,z
x,-y,-z
-x,y,-z
-x,-y,-z
x,y,-z
-x,y,z
x,-y,z
1/2+x,1/2+y,1/2+z
1/2-x,1/2-y,1/2+z
1/2+x,1/2-y,1/2-z
1/2-x,1/2+y,1/2-z
1/2-x,1/2-y,1/2-z
1/2+x,1/2+y,1/2-z
1/2-x,1/2+y,1/2+z
1/2+x,1/2-y,1/2+z
loop_
_atom_site_type_symbol
_atom_site_label
_atom_site_fract_x
_atom_site_fract_y
_atom_site_fract_z
Si Si1 0.322294 0.768033 0.837696
Si Si2 0.843041 0.133593 0.670223
Si Si3 0.598689 0.549339 0.171050
Si Si4 0.251346 0.316647 0.839252
Si Si5 0.000000 0.093941 0.327816
Si Si6 0.605673 0.712767 0.667716
Si Si7 0.000000 0.814842 0.163401
O O1 0.286437 0.726087 0.836041
O O2 0.294144 0.810621 0.768761
O O3 0.370262 0.755750 0.745492
O O4 0.337997 0.780918 0.000000
O O5 0.852789 0.143304 0.500000
O O6 0.857293 0.082914 0.713282
O O7 0.785571 0.141267 0.706227
O O8 0.876914 0.166522 0.761650
O O9 0.609107 0.500000 0.237208
O O10 0.547516 0.568110 0.232041
O O11 0.594393 0.545638 0.000000
O O12 0.229879 0.323427 0.000000
O O13 0.000000 0.144369 0.273354
O O14 0.000000 0.096208 0.500000
O O15 0.621441 0.713128 0.500000
O O16 0.547419 0.716205 0.687950
O O17 0.000000 0.834242 0.000000
#
# Coordination Sequence:
#
# PCOD8286967 Si02
#       7
#    16  16  16  16   8  16   8
#     4   9  16  25  37  53  69  85 107 133 164 203
#     4   9  16  26  39  54  68  86 112 142 174 211
#     4   9  16  25  38  56  72  86 112 151 188 218
#     4   8  14  23  35  51  70  87 105 130 166 207
#     4  10  17  26  42  54  64  86 118 152 186 219
#     4  10  18  27  38  50  68  90 112 139 173 208
#     4  10  20  29  37  51  70  92 116 144 179 217
#
# _framework density 12.689304999999999
#
# number of rings (size 3 to 8) (size 9 to 14) (size 15 to 20)
#    0.000    2.833    1.667    2.250    0.000    5.667 
#    0.000    0.000    0.000    2.500    0.000    0.000 
#    0.000    0.000    0.000    0.000    0.000    0.000 
#
# Total GULP energy -594904.232071 kJ/mol
# GULP energy per Si atom -12393.838168 kJ/mol
# Density = 1.266042 g / cm^3
# Si number density = 12.689305 Si / 1000 Ang^3
#
#
#
# Elastic Constant Matrix: (Units=GPa)
#
#
# Indices 1 2 3 4 5 6 
#
# 1 78.2770 52.0018 39.9238 0.0000 0.0000 0.0000
# 2 52.0018 57.0830 25.1382 0.0000 0.0000 0.0000
# 3 39.9238 25.1382 62.1420 0.0000 0.0000 0.0000
# 4 0.0000 0.0000 0.0000 9.2298 0.0000 0.0000
# 5 0.0000 0.0000 0.0000 0.0000 15.5498 0.0000
# 6 0.0000 0.0000 0.0000 0.0000 0.0000 18.6070
#
#
#
# Elastic Compliance Matrix: (Units=1/GPa)
#
#
# Indices 1 2 3 4 5 6 
#
# 1 0.039635 -0.030289 -0.013211 0.000000 0.000000 0.000000
# 2 -0.030289 0.044463 0.001473 0.000000 0.000000 0.000000
# 3 -0.013211 0.001473 0.023984 0.000000 0.000000 0.000000
# 4 0.000000 0.000000 0.000000 0.108345 0.000000 0.000000
# 5 0.000000 0.000000 0.000000 0.000000 0.064309 0.000000
# 6 0.000000 0.000000 0.000000 0.000000 0.000000 0.053743
#
#
# Mechanical properties :
#
#
# Convention : Reuss Voigt Hill
#
# Bulk Modulus (GPa) = 41.61925 47.95885 44.78905
# Shear Modulus (GPa) = 11.72213 14.03987 12.88100
#
# Velocity S-wave (km/s) = 3.04267 3.32992 3.18953
# Velocity P-wave (km/s) = 6.72411 7.25681 6.99553
#
# Compressibility (1/GPa) = 0.02402735
#
# Stress axis : x y z
#
# Youngs Moduli (GPa) = 25.22992 22.49077 41.69459
#
# Poissons Ratio (x) = 0.68123 0.55084
# Poissons Ratio (y) = 0.76420 -0.06143
# Poissons Ratio (z) = 0.33332 -0.03314
#
# Static dielectric constant tensor:
#      x y z
#    x 2.659550 0.000000 0.000000 
#    y 0.000000 2.484070 0.000000 
#    z 0.000000 0.000000 2.609760 
# 
# 
# High freq. dielectric constant tensor:
#      x y z
#    x 1.467560 0.000000 0.000000 
#    y 0.000000 1.436820 0.000000 
#    z 0.000000 0.000000 1.481120 
# 
# From -- ./inp_files/17586.got.cif
#   From: 2010.06.25/outbox.cif.g09.slc.cpg/sg71_9_cif.got.tgz:17586.got - 2010.06.28 04:59:45.
