data_PCOD8286467
_publ_section_title
;
Structure prediction by ZEFSAII (Michael W. Deem and Ramdas Pophale) SiO2 
 PCOD8286467
Probable space group: F D D D
;
_chemical_formula_sum "Si O2"
_cell_formula_units_Z 168
_cell_length_a 20.478874
_cell_length_b 27.669977
_cell_length_c 13.983500
_cell_angle_alpha 90.000000
_cell_angle_beta 90.000000
_cell_angle_gamma 90.000000
_cell_volume 7923.749891
_symmetry_space_group_name_H-M "F D D D"
_symmetry_group_IT_number 70
_space_group.IT_coordinate_system_code '2'
_symmetry_cell_setting 'orthorhombic'
loop_
_space_group_symop_operation_xyz
x,y,z
1/4-x,1/4-y,z
x,1/4-y,1/4-z
1/4-x,y,1/4-z
-x,-y,-z
3/4+x,3/4+y,-z
-x,3/4+y,3/4+z
3/4+x,-y,3/4+z
x,1/2+y,1/2+z
1/4-x,3/4-y,1/2+z
x,3/4-y,3/4-z
1/4-x,1/2+y,3/4-z
-x,1/2-y,1/2-z
3/4+x,1/4+y,1/2-z
-x,1/4+y,1/4+z
3/4+x,1/2-y,1/4+z
1/2+x,y,1/2+z
3/4-x,1/4-y,1/2+z
1/2+x,1/4-y,3/4-z
3/4-x,y,3/4-z
1/2-x,-y,1/2-z
1/4+x,3/4+y,1/2-z
1/2-x,3/4+y,1/4+z
1/4+x,-y,1/4+z
1/2+x,1/2+y,z
3/4-x,3/4-y,z
1/2+x,3/4-y,1/4-z
3/4-x,1/2+y,1/4-z
1/2-x,1/2-y,-z
1/4+x,1/4+y,-z
1/2-x,1/4+y,3/4+z
1/4+x,1/2-y,3/4+z
loop_
_atom_site_type_symbol
_atom_site_label
_atom_site_fract_x
_atom_site_fract_y
_atom_site_fract_z
Si Si1 0.152404 0.459503 0.224811
Si Si2 0.789941 0.821272 0.021828
Si Si3 0.875000 0.875000 0.375000
Si Si4 0.289909 0.941861 0.752812
Si Si5 0.279707 0.730769 0.648321
Si Si6 0.562050 0.181150 0.462266
O O1 0.125000 0.437816 0.125000
O O2 0.213187 0.427123 0.261187
O O3 0.190090 0.508718 0.194010
O O4 0.100040 0.465332 0.309640
O O5 0.778490 0.787142 0.115460
O O6 0.865850 0.818073 0.991040
O O7 0.776641 0.878299 0.037805
O O8 0.740238 0.803858 0.939793
O O9 0.921788 0.900800 0.446633
O O10 0.316418 0.947971 0.645804
O O11 0.227976 0.722088 0.732019
#
# Coordination Sequence:
#
# PCOD8286467 Si02
#       6
#    32  32   8  32  32  32
#     4  11  22  43  64  93 127 172 216 275 339 407
#     4  10  23  40  66 101 129 177 226 271 338 415
#     4  12  24  44  64  96 126 172 230 284 324 412
#     4  11  24  40  67  91 124 171 224 274 334 406
#     4  11  22  40  67  95 134 170 222 276 341 412
#     4  11  21  42  68  93 134 177 224 280 335 412
#
# _framework density 21.202082999999998
#
# number of rings (size 3 to 8) (size 9 to 14) (size 15 to 20)
#    0.000    1.143    4.762    2.286    0.000    1.524 
#    3.429    0.000   12.571    0.000    0.000    0.000 
#    0.000    0.000    0.000    0.000    0.000    0.000 
#
# Total GULP energy -520459.466817 kJ/mol
# GULP energy per Si atom -12391.892067 kJ/mol
# Density = 2.115383 g / cm^3
# Si number density = 21.202083 Si / 1000 Ang^3
#
#
#
# Elastic Constant Matrix: (Units=GPa)
#
#
# Indices 1 2 3 4 5 6 
#
# 1 159.9215 39.4323 61.6093 0.0000 0.0000 0.0000
# 2 39.4323 92.5252 34.9872 0.0000 0.0000 0.0000
# 3 61.6093 34.9872 120.0768 0.0000 0.0000 0.0000
# 4 0.0000 0.0000 0.0000 26.0905 0.0000 0.0000
# 5 0.0000 0.0000 0.0000 0.0000 43.4233 0.0000
# 6 0.0000 0.0000 0.0000 0.0000 0.0000 28.8273
#
#
#
# Elastic Compliance Matrix: (Units=1/GPa)
#
#
# Indices 1 2 3 4 5 6 
#
# 1 0.008150 -0.002126 -0.003562 0.000000 0.000000 0.000000
# 2 -0.002126 0.012701 -0.002610 0.000000 0.000000 0.000000
# 3 -0.003562 -0.002610 0.010916 0.000000 0.000000 0.000000
# 4 0.000000 0.000000 0.000000 0.038328 0.000000 0.000000
# 5 0.000000 0.000000 0.000000 0.000000 0.023029 0.000000
# 6 0.000000 0.000000 0.000000 0.000000 0.000000 0.034689
#
#
# Mechanical properties :
#
#
# Convention : Reuss Voigt Hill
#
# Bulk Modulus (GPa) = 65.91691 71.62011 68.76851
# Shear Modulus (GPa) = 33.45253 35.43453 34.44353
#
# Velocity S-wave (km/s) = 3.97646 4.09256 4.03493
# Velocity P-wave (km/s) = 7.22774 7.49567 7.36293
#
# Compressibility (1/GPa) = 0.01517061
#
# Stress axis : x y z
#
# Youngs Moduli (GPa) = 122.70621 78.73465 91.60925
#
# Poissons Ratio (x) = 0.16741 0.32630
# Poissons Ratio (y) = 0.26091 0.23908
# Poissons Ratio (z) = 0.43706 0.20548
#
# Static dielectric constant tensor:
#      x y z
#    x 3.934890 0.000000 0.000000 
#    y 0.000000 3.742490 0.000000 
#    z 0.000000 0.000000 3.802000 
# 
# 
# High freq. dielectric constant tensor:
#      x y z
#    x 1.845810 0.000000 0.000000 
#    y 0.000000 1.811640 0.000000 
#    z 0.000000 0.000000 1.834110 
# 
# From -- ./inp_files/27681.got.cif
#   From: 2010.03.12/outbox.cif.g09.slc.cpg/sg70_14_cif.got.tgz:27681.got - 2010.04.16 13:46:32.
