data_PCOD8286539
_publ_section_title
;
Structure prediction by ZEFSAII (Michael W. Deem and Ramdas Pophale) SiO2 
 PCOD8286539
Probable space group: F D D D
;
_chemical_formula_sum "Si O2"
_cell_formula_units_Z 80
_cell_length_a 5.207515
_cell_length_b 29.430928
_cell_length_c 24.037710
_cell_angle_alpha 90.000000
_cell_angle_beta 90.000000
_cell_angle_gamma 90.000000
_cell_volume 3684.067487
_symmetry_space_group_name_H-M "F D D D"
_symmetry_group_IT_number 70
_space_group.IT_coordinate_system_code '2'
_symmetry_cell_setting 'orthorhombic'
loop_
_space_group_symop_operation_xyz
x,y,z
1/4-x,1/4-y,z
x,1/4-y,1/4-z
1/4-x,y,1/4-z
-x,-y,-z
3/4+x,3/4+y,-z
-x,3/4+y,3/4+z
3/4+x,-y,3/4+z
x,1/2+y,1/2+z
1/4-x,3/4-y,1/2+z
x,3/4-y,3/4-z
1/4-x,1/2+y,3/4-z
-x,1/2-y,1/2-z
3/4+x,1/4+y,1/2-z
-x,1/4+y,1/4+z
3/4+x,1/2-y,1/4+z
1/2+x,y,1/2+z
3/4-x,1/4-y,1/2+z
1/2+x,1/4-y,3/4-z
3/4-x,y,3/4-z
1/2-x,-y,1/2-z
1/4+x,3/4+y,1/2-z
1/2-x,3/4+y,1/4+z
1/4+x,-y,1/4+z
1/2+x,1/2+y,z
3/4-x,3/4-y,z
1/2+x,3/4-y,1/4-z
3/4-x,1/2+y,1/4-z
1/2-x,1/2-y,-z
1/4+x,1/4+y,-z
1/2-x,1/4+y,3/4+z
1/4+x,1/2-y,3/4+z
loop_
_atom_site_type_symbol
_atom_site_label
_atom_site_fract_x
_atom_site_fract_y
_atom_site_fract_z
Si Si1 0.370939 0.704185 0.095394
Si Si2 0.875000 0.708375 0.375000
Si Si3 0.883264 0.095605 0.265783
O O1 0.625000 0.684816 0.125000
O O2 0.358402 0.759014 0.104364
O O3 0.125000 0.680525 0.125000
O O4 0.355088 0.693672 0.030168
O O5 0.959982 0.676806 0.425777
O O6 0.625000 0.125000 0.271319
O O7 0.125000 0.125000 0.246517
#
# Coordination Sequence:
#
# PCOD8286539 Si02
#       3
#    32  16  32
#     4  10  24  42  70  91 130 170 220 257 321 387
#     4  10  26  44  69  92 132 174 220 256 321 390
#     4  12  26  42  67  98 133 167 215 272 323 372
#
# _framework density 21.715129000000001
#
# number of rings (size 3 to 8) (size 9 to 14) (size 15 to 20)
#    1.200    0.000    0.000    4.800    5.600    6.400 
#    0.000    0.000    0.000    0.000    0.000    0.000 
#    0.000    0.000    0.000    0.000    0.000    0.000 
#
# Total GULP energy -247940.066569 kJ/mol
# GULP energy per Si atom -12397.003328 kJ/mol
# Density = 2.166570 g / cm^3
# Si number density = 21.715129 Si / 1000 Ang^3
#
#
#
# Elastic Constant Matrix: (Units=GPa)
#
#
# Indices 1 2 3 4 5 6 
#
# 1 150.4910 38.3023 30.7048 0.0000 0.0000 0.0000
# 2 38.3023 92.5492 55.1109 0.0000 0.0000 0.0000
# 3 30.7048 55.1109 154.4373 0.0000 0.0000 0.0000
# 4 0.0000 0.0000 0.0000 28.2791 0.0000 0.0000
# 5 0.0000 0.0000 0.0000 0.0000 26.1507 0.0000
# 6 0.0000 0.0000 0.0000 0.0000 0.0000 12.7146
#
#
#
# Elastic Compliance Matrix: (Units=1/GPa)
#
#
# Indices 1 2 3 4 5 6 
#
# 1 0.007456 -0.002797 -0.000484 0.000000 0.000000 0.000000
# 2 -0.002797 0.014770 -0.004715 0.000000 0.000000 0.000000
# 3 -0.000484 -0.004715 0.008254 0.000000 0.000000 0.000000
# 4 0.000000 0.000000 0.000000 0.035362 0.000000 0.000000
# 5 0.000000 0.000000 0.000000 0.000000 0.038240 0.000000
# 6 0.000000 0.000000 0.000000 0.000000 0.000000 0.078650
#
#
# Mechanical properties :
#
#
# Convention : Reuss Voigt Hill
#
# Bulk Modulus (GPa) = 69.02449 71.74595 70.38522
# Shear Modulus (GPa) = 24.56372 31.65285 28.10829
#
# Velocity S-wave (km/s) = 3.36695 3.82205 3.60169
# Velocity P-wave (km/s) = 6.85350 7.25181 7.05547
#
# Compressibility (1/GPa) = 0.01448761
#
# Stress axis : x y z
#
# Youngs Moduli (GPa) = 134.12657 67.70401 121.15691
#
# Poissons Ratio (x) = 0.18939 0.05865
# Poissons Ratio (y) = 0.37519 0.57120
# Poissons Ratio (z) = 0.06493 0.31920
#
# Static dielectric constant tensor:
#      x y z
#    x 3.810480 0.000000 0.000000 
#    y 0.000000 3.718590 0.000000 
#    z 0.000000 0.000000 3.803260 
# 
# 
# High freq. dielectric constant tensor:
#      x y z
#    x 1.851760 0.000000 0.000000 
#    y 0.000000 1.844390 0.000000 
#    z 0.000000 0.000000 1.865450 
# 
# From -- ./inp_files/2406.got.cif
#   From: 2010.03.12/outbox.cif.g09.slc.cpg/sg70_2_cif.got.tgz:2406.got - 2010.04.16 13:46:32.
