data_PCOD8286235
_publ_section_title
;
Structure prediction by ZEFSAII (Michael W. Deem and Ramdas Pophale) SiO2 
 PCOD8286235
Probable space group: F D D D
;
_chemical_formula_sum "Si O2"
_cell_formula_units_Z 160
_cell_length_a 28.845146
_cell_length_b 12.867569
_cell_length_c 19.054056
_cell_angle_alpha 90.000000
_cell_angle_beta 90.000000
_cell_angle_gamma 90.000000
_cell_volume 7072.235021
_symmetry_space_group_name_H-M "F D D D"
_symmetry_group_IT_number 70
_space_group.IT_coordinate_system_code '2'
_symmetry_cell_setting 'orthorhombic'
loop_
_space_group_symop_operation_xyz
x,y,z
1/4-x,1/4-y,z
x,1/4-y,1/4-z
1/4-x,y,1/4-z
-x,-y,-z
3/4+x,3/4+y,-z
-x,3/4+y,3/4+z
3/4+x,-y,3/4+z
x,1/2+y,1/2+z
1/4-x,3/4-y,1/2+z
x,3/4-y,3/4-z
1/4-x,1/2+y,3/4-z
-x,1/2-y,1/2-z
3/4+x,1/4+y,1/2-z
-x,1/4+y,1/4+z
3/4+x,1/2-y,1/4+z
1/2+x,y,1/2+z
3/4-x,1/4-y,1/2+z
1/2+x,1/4-y,3/4-z
3/4-x,y,3/4-z
1/2-x,-y,1/2-z
1/4+x,3/4+y,1/2-z
1/2-x,3/4+y,1/4+z
1/4+x,-y,1/4+z
1/2+x,1/2+y,z
3/4-x,3/4-y,z
1/2+x,3/4-y,1/4-z
3/4-x,1/2+y,1/4-z
1/2-x,1/2-y,-z
1/4+x,1/4+y,-z
1/2-x,1/4+y,3/4+z
1/4+x,1/2-y,3/4+z
loop_
_atom_site_type_symbol
_atom_site_label
_atom_site_fract_x
_atom_site_fract_y
_atom_site_fract_z
Si Si1 0.242711 0.125000 0.125000
Si Si2 0.375000 0.875000 0.875000
Si Si3 0.813873 0.441685 0.138919
Si Si4 0.537808 0.227457 0.490742
Si Si5 0.636266 0.285447 0.510799
Si Si6 0.817723 0.758190 0.262146
Si Si7 0.625000 0.625000 0.125000
O O1 0.273167 0.224421 0.106793
O O2 0.210653 0.149185 0.192331
O O3 0.408219 0.805165 0.920913
O O4 0.794643 0.332374 0.167145
O O5 0.856120 0.477026 0.187417
O O6 0.833855 0.435488 0.059633
O O7 0.580264 0.307745 0.507868
O O8 0.487503 0.279797 0.484167
O O9 0.668276 0.387189 0.513105
O O10 0.651752 0.207343 0.573651
#
# Coordination Sequence:
#
# PCOD8286235 Si02
#       7
#    16   8  32  32  32  32   8
#     4  10  21  38  64 102 146 182 213 287 352 419
#     4  12  30  54  66  86 142 198 240 292 320 416
#     4  11  21  43  70 100 145 179 217 289 354 415
#     4  11  23  40  72 108 137 177 235 283 357 420
#     4  12  23  42  68 109 140 179 222 294 354 420
#     4  11  28  50  70  97 138 192 237 287 351 411
#     4  12  24  34  72 110 146 174 226 288 360 418
#
# _framework density 22.623683
#
# number of rings (size 3 to 8) (size 9 to 14) (size 15 to 20)
#    0.000    0.800    6.000    1.800    2.800    4.800 
#    3.600    2.000    0.000    0.000    0.000    0.000 
#    0.000    0.000    0.000    0.000    0.000    0.000 
#
# Total GULP energy -495556.027611 kJ/mol
# GULP energy per Si atom -12388.900690 kJ/mol
# Density = 2.257219 g / cm^3
# Si number density = 22.623683 Si / 1000 Ang^3
#
#
#
# Elastic Constant Matrix: (Units=GPa)
#
#
# Indices 1 2 3 4 5 6 
#
# 1 133.9091 3.8840 24.6650 0.0000 0.0000 0.0000
# 2 3.8840 37.2369 27.6133 0.0000 0.0000 0.0000
# 3 24.6650 27.6133 181.2905 0.0000 0.0000 0.0000
# 4 0.0000 0.0000 0.0000 30.1782 0.0000 0.0000
# 5 0.0000 0.0000 0.0000 0.0000 -40.4246 0.0000
# 6 0.0000 0.0000 0.0000 0.0000 0.0000 23.3578
#
#
#
# Elastic Compliance Matrix: (Units=1/GPa)
#
#
# Indices 1 2 3 4 5 6 
#
# 1 0.007660 -0.000029 -0.001038 0.000000 0.000000 0.000000
# 2 -0.000029 0.030275 -0.004607 0.000000 0.000000 0.000000
# 3 -0.001038 -0.004607 0.006359 0.000000 0.000000 0.000000
# 4 0.000000 0.000000 0.000000 0.033137 0.000000 0.000000
# 5 0.000000 0.000000 0.000000 0.000000 -0.024737 0.000000
# 6 0.000000 0.000000 0.000000 0.000000 0.000000 0.042812
#
#
# Mechanical properties :
#
#
# Convention : Reuss Voigt Hill
#
# Bulk Modulus (GPa) = 30.35399 51.64012 40.99706
# Shear Modulus (GPa) = 42.43214 22.37388 32.40301
#
# Velocity S-wave (km/s) = 4.33548 3.14818 3.78863
# Velocity P-wave (km/s) = 6.20547 6.00749 6.10728
#
# Compressibility (1/GPa) = 0.03294460
#
# Stress axis : x y z
#
# Youngs Moduli (GPa) = 130.55288 33.03083 157.25883
#
# Poissons Ratio (x) = 0.00097 0.16318
# Poissons Ratio (y) = 0.00385 0.72454
# Poissons Ratio (z) = 0.13547 0.15218
#
# Static dielectric constant tensor:
#      x y z
#    x 4.218110 0.000000 0.000000 
#    y 0.000000 3.942750 0.000000 
#    z 0.000000 0.000000 4.593040 
# 
# 
# High freq. dielectric constant tensor:
#      x y z
#    x 1.915380 0.000000 0.000000 
#    y 0.000000 1.850740 0.000000 
#    z 0.000000 0.000000 1.908390 
# 
# From -- ./inp_files/30965.got.cif
#   From: 2010.03.12/outbox.cif.g09.slc.cpg/sg70_16_cif.got.tgz:30965.got - 2010.04.16 13:46:32.
