data_PCOD8286036
_publ_section_title
;
Structure prediction by ZEFSAII (Michael W. Deem and Ramdas Pophale) SiO2 
 PCOD8286036
Probable space group: F D D D
;
_chemical_formula_sum "Si O2"
_cell_formula_units_Z 160
_cell_length_a 36.087141
_cell_length_b 9.031331
_cell_length_c 25.236139
_cell_angle_alpha 90.000000
_cell_angle_beta 90.000000
_cell_angle_gamma 90.000000
_cell_volume 8224.834103
_symmetry_space_group_name_H-M "F D D D"
_symmetry_group_IT_number 70
_space_group.IT_coordinate_system_code '2'
_symmetry_cell_setting 'orthorhombic'
loop_
_space_group_symop_operation_xyz
x,y,z
1/4-x,1/4-y,z
x,1/4-y,1/4-z
1/4-x,y,1/4-z
-x,-y,-z
3/4+x,3/4+y,-z
-x,3/4+y,3/4+z
3/4+x,-y,3/4+z
x,1/2+y,1/2+z
1/4-x,3/4-y,1/2+z
x,3/4-y,3/4-z
1/4-x,1/2+y,3/4-z
-x,1/2-y,1/2-z
3/4+x,1/4+y,1/2-z
-x,1/4+y,1/4+z
3/4+x,1/2-y,1/4+z
1/2+x,y,1/2+z
3/4-x,1/4-y,1/2+z
1/2+x,1/4-y,3/4-z
3/4-x,y,3/4-z
1/2-x,-y,1/2-z
1/4+x,3/4+y,1/2-z
1/2-x,3/4+y,1/4+z
1/4+x,-y,1/4+z
1/2+x,1/2+y,z
3/4-x,3/4-y,z
1/2+x,3/4-y,1/4-z
3/4-x,1/2+y,1/4-z
1/2-x,1/2-y,-z
1/4+x,1/4+y,-z
1/2-x,1/4+y,3/4+z
1/4+x,1/2-y,3/4+z
loop_
_atom_site_type_symbol
_atom_site_label
_atom_site_fract_x
_atom_site_fract_y
_atom_site_fract_z
Si Si1 0.152293 0.875000 0.375000
Si Si2 0.026169 0.125000 0.125000
Si Si3 0.283668 0.419919 0.586893
Si Si4 0.875000 0.875000 0.051867
Si Si5 0.982468 0.722673 0.475483
Si Si6 0.446349 0.821641 0.264523
Si Si7 0.740522 0.875000 0.375000
O O1 0.178090 0.759006 0.343258
O O2 0.126662 0.776075 0.413543
O O3 0.052106 0.114285 0.176160
O O4 0.998685 0.266381 0.125538
O O5 0.270817 0.420319 0.526003
O O6 0.287794 0.250053 0.604062
O O7 0.839934 0.881382 0.013674
O O8 0.948237 0.606803 0.479486
O O9 0.982150 0.819640 0.421989
O O10 0.020292 0.628407 0.477793
#
# Coordination Sequence:
#
# PCOD8286036 Si02
#       7
#    16  16  32  16  32  32  16
#     4  11  24  41  60  89 126 167 203 258 316 376
#     4   9  18  37  64  88 120 162 207 266 305 354
#     4  10  20  37  62  91 125 159 211 261 306 367
#     4  12  24  39  64  90 126 169 204 252 322 392
#     4  10  20  37  60  92 126 162 207 264 307 366
#     4  10  20  38  61  90 123 165 209 257 314 370
#     4  12  20  31  62 103 123 158 204 270 320 356
#
# _framework density 19.453278999999998
#
# number of rings (size 3 to 8) (size 9 to 14) (size 15 to 20)
#    0.000    1.600    4.000    1.800    0.000    3.600 
#    0.000    0.000    0.000    0.000    0.000    5.600 
#    0.000    0.000    0.000    0.000    0.000    0.000 
#
# Total GULP energy -495875.656091 kJ/mol
# GULP energy per Si atom -12396.891402 kJ/mol
# Density = 1.940900 g / cm^3
# Si number density = 19.453279 Si / 1000 Ang^3
#
#
#
# Elastic Constant Matrix: (Units=GPa)
#
#
# Indices 1 2 3 4 5 6 
#
# 1 93.5299 46.9946 56.8152 0.0000 0.0000 -0.0001
# 2 46.9946 138.5744 61.4849 0.0000 0.0000 0.0000
# 3 56.8152 61.4849 143.3532 0.0000 0.0000 0.0000
# 4 0.0000 0.0000 0.0000 37.0089 0.0000 0.0000
# 5 0.0000 0.0000 0.0000 0.0000 22.1851 0.0000
# 6 -0.0001 0.0000 0.0000 0.0000 0.0000 28.4039
#
#
#
# Elastic Compliance Matrix: (Units=1/GPa)
#
#
# Indices 1 2 3 4 5 6 
#
# 1 0.015049 -0.003035 -0.004663 0.000000 0.000000 0.000000
# 2 -0.003035 0.009524 -0.002882 0.000000 0.000000 0.000000
# 3 -0.004663 -0.002882 0.010060 0.000000 0.000000 0.000000
# 4 0.000000 0.000000 0.000000 0.027021 0.000000 0.000000
# 5 0.000000 0.000000 0.000000 0.000000 0.045075 0.000000
# 6 0.000000 0.000000 0.000000 0.000000 0.000000 0.035206
#
#
# Mechanical properties :
#
#
# Convention : Reuss Voigt Hill
#
# Bulk Modulus (GPa) = 74.21803 78.44964 76.33384
# Shear Modulus (GPa) = 29.83535 31.53042 30.68289
#
# Velocity S-wave (km/s) = 3.92049 4.03032 3.97578
# Velocity P-wave (km/s) = 7.66345 7.87862 7.77178
#
# Compressibility (1/GPa) = 0.01347381
#
# Stress axis : x y z
#
# Youngs Moduli (GPa) = 66.44964 104.99386 99.40351
#
# Poissons Ratio (x) = 0.31863 0.46350
# Poissons Ratio (y) = 0.20166 0.28651
# Poissons Ratio (z) = 0.30984 0.30262
#
# Static dielectric constant tensor:
#      x y z
#    x 3.172250 0.000000 0.000000 
#    y 0.000000 3.649240 0.000000 
#    z 0.000000 0.000000 3.707160 
# 
# 
# High freq. dielectric constant tensor:
#      x y z
#    x 1.710990 0.000000 0.000000 
#    y 0.000000 1.760180 0.000000 
#    z 0.000000 0.000000 1.777890 
# 
# From -- ./inp_files/68875.got.cif
#   From: 2010.03.12/outbox.cif.g09.slc.cpg/sg70_35_cif.got.tgz:68875.got - 2010.04.16 13:46:32.
