data_PCOD8286560
_publ_section_title
;
Structure prediction by ZEFSAII (Michael W. Deem and Ramdas Pophale) SiO2 
 PCOD8286560
Probable space group: F D D D
;
_chemical_formula_sum "Si O2"
_cell_formula_units_Z 112
_cell_length_a 18.513257
_cell_length_b 10.869926
_cell_length_c 23.546703
_cell_angle_alpha 90.000000
_cell_angle_beta 90.000000
_cell_angle_gamma 90.000000
_cell_volume 4738.485146
_symmetry_space_group_name_H-M "F D D D"
_symmetry_group_IT_number 70
_space_group.IT_coordinate_system_code '2'
_symmetry_cell_setting 'orthorhombic'
loop_
_space_group_symop_operation_xyz
x,y,z
1/4-x,1/4-y,z
x,1/4-y,1/4-z
1/4-x,y,1/4-z
-x,-y,-z
3/4+x,3/4+y,-z
-x,3/4+y,3/4+z
3/4+x,-y,3/4+z
x,1/2+y,1/2+z
1/4-x,3/4-y,1/2+z
x,3/4-y,3/4-z
1/4-x,1/2+y,3/4-z
-x,1/2-y,1/2-z
3/4+x,1/4+y,1/2-z
-x,1/4+y,1/4+z
3/4+x,1/2-y,1/4+z
1/2+x,y,1/2+z
3/4-x,1/4-y,1/2+z
1/2+x,1/4-y,3/4-z
3/4-x,y,3/4-z
1/2-x,-y,1/2-z
1/4+x,3/4+y,1/2-z
1/2-x,3/4+y,1/4+z
1/4+x,-y,1/4+z
1/2+x,1/2+y,z
3/4-x,3/4-y,z
1/2+x,3/4-y,1/4-z
3/4-x,1/2+y,1/4-z
1/2-x,1/2-y,-z
1/4+x,1/4+y,-z
1/2-x,1/4+y,3/4+z
1/4+x,1/2-y,3/4+z
loop_
_atom_site_type_symbol
_atom_site_label
_atom_site_fract_x
_atom_site_fract_y
_atom_site_fract_z
Si Si1 0.917443 0.747814 0.231047
Si Si2 0.280114 0.625000 0.125000
Si Si3 0.712080 0.825638 0.707824
Si Si4 0.709482 0.646436 0.062540
O O1 0.875000 0.875000 0.228499
O O2 0.915385 0.689409 0.168661
O O3 0.873934 0.672481 0.279326
O O4 0.000000 0.750000 0.250000
O O5 0.231022 0.724974 0.159258
O O6 0.753541 0.801340 0.767853
O O7 0.734905 0.962632 0.692829
O O8 0.625000 0.625000 0.056724
O O9 0.738885 0.625000 0.125000
#
# Coordination Sequence:
#
# PCOD8286560 Si02
#       4
#    32  16  32  32
#     4  12  28  49  75 112 161 212 265 329 414 492
#     4  12  28  47  80 116 159 214 270 352 411 498
#     4  11  26  47  74 113 154 196 276 321 412 476
#     4  10  24  46  75 102 146 201 254 328 397 483
#
# _framework density 23.636246
#
# number of rings (size 3 to 8) (size 9 to 14) (size 15 to 20)
#    0.000    0.857    2.857    1.714    6.000    8.000 
#    0.000    0.000    0.000    0.000    0.000    0.000 
#    0.000    0.000    0.000    0.000    0.000    0.000 
#
# Total GULP energy -346933.218800 kJ/mol
# GULP energy per Si atom -12390.472100 kJ/mol
# Density = 2.358245 g / cm^3
# Si number density = 23.636246 Si / 1000 Ang^3
#
#
#
# Elastic Constant Matrix: (Units=GPa)
#
#
# Indices 1 2 3 4 5 6 
#
# 1 104.6327 44.2133 36.5216 0.0000 0.0000 0.0000
# 2 44.2133 105.7839 58.0013 0.0000 0.0000 0.0000
# 3 36.5216 58.0013 146.3058 0.0000 0.0000 0.0000
# 4 0.0000 0.0000 0.0000 47.2480 0.0000 0.0000
# 5 0.0000 0.0000 0.0000 0.0000 36.4124 0.0000
# 6 0.0000 0.0000 0.0000 0.0000 0.0000 36.7116
#
#
#
# Elastic Compliance Matrix: (Units=1/GPa)
#
#
# Indices 1 2 3 4 5 6 
#
# 1 0.011787 -0.004234 -0.001264 0.000000 0.000000 0.000000
# 2 -0.004234 0.013599 -0.004334 0.000000 0.000000 0.000000
# 3 -0.001264 -0.004334 0.008869 0.000000 0.000000 0.000000
# 4 0.000000 0.000000 0.000000 0.021165 0.000000 0.000000
# 5 0.000000 0.000000 0.000000 0.000000 0.027463 0.000000
# 6 0.000000 0.000000 0.000000 0.000000 0.000000 0.027239
#
#
# Mechanical properties :
#
#
# Convention : Reuss Voigt Hill
#
# Bulk Modulus (GPa) = 68.53379 70.46608 69.49993
# Shear Modulus (GPa) = 37.13304 38.60681 37.86992
#
# Velocity S-wave (km/s) = 3.96791 4.04589 4.00709
# Velocity P-wave (km/s) = 7.07464 7.19048 7.13280
#
# Compressibility (1/GPa) = 0.01459134
#
# Stress axis : x y z
#
# Youngs Moduli (GPa) = 84.83655 73.53337 112.75346
#
# Poissons Ratio (x) = 0.31131 0.14253
# Poissons Ratio (y) = 0.35916 0.48873
# Poissons Ratio (z) = 0.10724 0.31873
#
# Static dielectric constant tensor:
#      x y z
#    x -3.804060 0.000000 0.000000 
#    y 0.000000 4.525690 0.000000 
#    z 0.000000 0.000000 4.676640 
# 
# 
# High freq. dielectric constant tensor:
#      x y z
#    x 1.936490 0.000000 0.000000 
#    y 0.000000 1.948480 0.000000 
#    z 0.000000 0.000000 1.951360 
# 
# From -- ./inp_files/33054.got.cif
#   From: 2010.03.12/outbox.cif.g09.slc.cpg/sg70_17_cif.got.tgz:33054.got - 2010.04.16 13:46:32.
