data_PCOD8286280
_publ_section_title
;
Structure prediction by ZEFSAII (Michael W. Deem and Ramdas Pophale) SiO2 
 PCOD8286280
Probable space group: F D D D
;
_chemical_formula_sum "Si O2"
_cell_formula_units_Z 208
_cell_length_a 18.501395
_cell_length_b 21.624139
_cell_length_c 26.095692
_cell_angle_alpha 90.000000
_cell_angle_beta 90.000000
_cell_angle_gamma 90.000000
_cell_volume 10440.279310
_symmetry_space_group_name_H-M "F D D D"
_symmetry_group_IT_number 70
_space_group.IT_coordinate_system_code '2'
_symmetry_cell_setting 'orthorhombic'
loop_
_space_group_symop_operation_xyz
x,y,z
1/4-x,1/4-y,z
x,1/4-y,1/4-z
1/4-x,y,1/4-z
-x,-y,-z
3/4+x,3/4+y,-z
-x,3/4+y,3/4+z
3/4+x,-y,3/4+z
x,1/2+y,1/2+z
1/4-x,3/4-y,1/2+z
x,3/4-y,3/4-z
1/4-x,1/2+y,3/4-z
-x,1/2-y,1/2-z
3/4+x,1/4+y,1/2-z
-x,1/4+y,1/4+z
3/4+x,1/2-y,1/4+z
1/2+x,y,1/2+z
3/4-x,1/4-y,1/2+z
1/2+x,1/4-y,3/4-z
3/4-x,y,3/4-z
1/2-x,-y,1/2-z
1/4+x,3/4+y,1/2-z
1/2-x,3/4+y,1/4+z
1/4+x,-y,1/4+z
1/2+x,1/2+y,z
3/4-x,3/4-y,z
1/2+x,3/4-y,1/4-z
3/4-x,1/2+y,1/4-z
1/2-x,1/2-y,-z
1/4+x,1/4+y,-z
1/2-x,1/4+y,3/4+z
1/4+x,1/2-y,3/4+z
loop_
_atom_site_type_symbol
_atom_site_label
_atom_site_fract_x
_atom_site_fract_y
_atom_site_fract_z
Si Si1 0.668594 0.883079 0.047695
Si Si2 0.217432 0.403681 0.599590
Si Si3 0.893088 0.625000 0.625000
Si Si4 0.734697 0.486167 0.333643
Si Si5 0.690048 0.075617 0.753158
Si Si6 0.829936 0.052975 0.217623
Si Si7 0.812321 0.916364 0.225577
O O1 0.600226 0.837831 0.060536
O O2 0.701909 0.896195 0.104145
O O3 0.730263 0.854900 0.011542
O O4 0.634218 0.940127 0.016513
O O5 0.233290 0.471232 0.621727
O O6 0.285942 0.376152 0.571002
O O7 0.943054 0.569238 0.608796
O O8 0.845269 0.600876 0.672060
O O9 0.678505 0.526010 0.298674
O O10 0.802957 0.460194 0.300779
O O11 0.625000 0.125000 0.752307
O O12 0.747808 0.068456 0.232383
O O13 0.839460 0.981549 0.201488
O O14 0.875000 0.875000 0.252003
#
# Coordination Sequence:
#
# PCOD8286280 Si02
#       7
#    32  32  16  32  32  32  32
#     4   9  18  39  60  89 120 162 203 250 314 364
#     4   9  19  37  68  87 120 164 209 256 309 378
#     4  12  22  40  58  94 126 168 202 266 314 378
#     4  10  22  40  60  91 128 160 215 257 311 384
#     4  10  21  42  61  87 128 164 209 256 308 378
#     4  10  22  40  63  87 129 157 206 260 312 372
#     4  10  21  42  64  93 117 162 211 259 311 382
#
# _framework density 19.922839
#
# number of rings (size 3 to 8) (size 9 to 14) (size 15 to 20)
#    0.000    2.154    1.538    0.923    0.000    4.923 
#   19.385    0.385    0.000    0.000    0.000    0.000 
#    0.000    0.000    0.000    0.000    0.000    0.000 
#
# Total GULP energy -644249.382942 kJ/mol
# GULP energy per Si atom -12389.411210 kJ/mol
# Density = 1.987749 g / cm^3
# Si number density = 19.922839 Si / 1000 Ang^3
#
#
#
# Elastic Constant Matrix: (Units=GPa)
#
#
# Indices 1 2 3 4 5 6 
#
# 1 100.0284 77.6995 45.4695 0.0000 0.0000 0.0000
# 2 77.6995 135.9879 58.0054 0.0000 0.0000 0.0000
# 3 45.4695 58.0054 74.8312 0.0000 0.0000 0.0000
# 4 0.0000 0.0000 0.0000 35.6879 0.0000 0.0000
# 5 0.0000 0.0000 0.0000 0.0000 16.0588 0.0000
# 6 0.0000 0.0000 0.0000 0.0000 0.0000 40.5351
#
#
#
# Elastic Compliance Matrix: (Units=1/GPa)
#
#
# Indices 1 2 3 4 5 6 
#
# 1 0.019012 -0.008867 -0.004679 0.000000 0.000000 0.000000
# 2 -0.008867 0.015122 -0.006334 0.000000 0.000000 0.000000
# 3 -0.004679 -0.006334 0.021116 0.000000 0.000000 0.000000
# 4 0.000000 0.000000 0.000000 0.028021 0.000000 0.000000
# 5 0.000000 0.000000 0.000000 0.000000 0.062271 0.000000
# 6 0.000000 0.000000 0.000000 0.000000 0.000000 0.024670
#
#
# Mechanical properties :
#
#
# Convention : Reuss Voigt Hill
#
# Bulk Modulus (GPa) = 64.55653 74.79956 69.67804
# Shear Modulus (GPa) = 23.24144 27.10124 25.17134
#
# Velocity S-wave (km/s) = 3.41922 3.69224 3.55835
# Velocity P-wave (km/s) = 6.93265 7.47014 7.20641
#
# Compressibility (1/GPa) = 0.01549030
#
# Stress axis : x y z
#
# Youngs Moduli (GPa) = 52.59958 66.13100 47.35776
#
# Poissons Ratio (x) = 0.58638 0.22157
# Poissons Ratio (y) = 0.46640 0.29995
# Poissons Ratio (z) = 0.24610 0.41885
#
# Static dielectric constant tensor:
#      x y z
#    x 3.617540 0.000000 0.000000 
#    y 0.000000 3.690240 0.000000 
#    z 0.000000 0.000000 3.735930 
# 
# 
# High freq. dielectric constant tensor:
#      x y z
#    x 1.776170 0.000000 0.000000 
#    y 0.000000 1.768610 0.000000 
#    z 0.000000 0.000000 1.777020 
# 
# From -- ./inp_files/59630.got.cif
#   From: 2010.03.12/outbox.cif.g09.slc.cpg/sg70_30_cif.got.tgz:59630.got - 2010.04.16 13:46:32.
