data_PCOD8286773
_publ_section_title
;
Structure prediction by ZEFSAII (Michael W. Deem and Ramdas Pophale) SiO2 
 PCOD8286773
Probable space group: F D D D
;
_chemical_formula_sum "Si O2"
_cell_formula_units_Z 120
_cell_length_a 31.996376
_cell_length_b 12.440107
_cell_length_c 13.427250
_cell_angle_alpha 90.000000
_cell_angle_beta 90.000000
_cell_angle_gamma 90.000000
_cell_volume 5344.560315
_symmetry_space_group_name_H-M "F D D D"
_symmetry_group_IT_number 70
_space_group.IT_coordinate_system_code '2'
_symmetry_cell_setting 'orthorhombic'
loop_
_space_group_symop_operation_xyz
x,y,z
1/4-x,1/4-y,z
x,1/4-y,1/4-z
1/4-x,y,1/4-z
-x,-y,-z
3/4+x,3/4+y,-z
-x,3/4+y,3/4+z
3/4+x,-y,3/4+z
x,1/2+y,1/2+z
1/4-x,3/4-y,1/2+z
x,3/4-y,3/4-z
1/4-x,1/2+y,3/4-z
-x,1/2-y,1/2-z
3/4+x,1/4+y,1/2-z
-x,1/4+y,1/4+z
3/4+x,1/2-y,1/4+z
1/2+x,y,1/2+z
3/4-x,1/4-y,1/2+z
1/2+x,1/4-y,3/4-z
3/4-x,y,3/4-z
1/2-x,-y,1/2-z
1/4+x,3/4+y,1/2-z
1/2-x,3/4+y,1/4+z
1/4+x,-y,1/4+z
1/2+x,1/2+y,z
3/4-x,3/4-y,z
1/2+x,3/4-y,1/4-z
3/4-x,1/2+y,1/4-z
1/2-x,1/2-y,-z
1/4+x,1/4+y,-z
1/2-x,1/4+y,3/4+z
1/4+x,1/2-y,3/4+z
loop_
_atom_site_type_symbol
_atom_site_label
_atom_site_fract_x
_atom_site_fract_y
_atom_site_fract_z
Si Si1 0.911339 0.625000 0.625000
Si Si2 0.375000 0.875000 0.875000
Si Si3 0.718877 0.992537 0.404598
Si Si4 0.948309 0.809827 0.512252
Si Si5 0.889648 0.485242 0.262847
O O1 0.941874 0.722700 0.597906
O O2 0.881280 0.660832 0.714174
O O3 0.344422 0.809937 0.801495
O O4 0.703146 0.875000 0.375000
O O5 0.766992 0.986258 0.436554
O O6 0.712165 0.076678 0.312588
O O7 0.689847 0.018690 0.500170
O O8 0.875000 0.484497 0.375000
O O9 0.875000 0.375000 0.208699
#
# Coordination Sequence:
#
# PCOD8286773 Si02
#       5
#    16   8  32  32  32
#     4  12  26  45  72 112 145 187 246 308 363 452
#     4  12  28  50  72 108 144 204 260 292 398 434
#     4  12  26  49  72 109 147 194 255 310 372 442
#     4  12  29  46  75 107 149 195 248 320 371 455
#     4  11  25  46  75 104 148 200 244 300 374 448
#
# _framework density 22.452735000000001
#
# number of rings (size 3 to 8) (size 9 to 14) (size 15 to 20)
#    0.000    0.267    5.333    2.400    5.600    3.200 
#    0.000    0.000    0.000    0.000    0.000    0.000 
#    0.000    0.000    0.000    0.000    0.000    0.000 
#
# Total GULP energy -371814.584723 kJ/mol
# GULP energy per Si atom -12393.819491 kJ/mol
# Density = 2.240163 g / cm^3
# Si number density = 22.452735 Si / 1000 Ang^3
#
#
#
# Elastic Constant Matrix: (Units=GPa)
#
#
# Indices 1 2 3 4 5 6 
#
# 1 173.5797 47.7346 58.4677 0.0000 0.0000 0.0000
# 2 47.7346 141.7911 45.8936 0.0000 0.0000 0.0000
# 3 58.4677 45.8936 104.8188 0.0000 0.0000 0.0000
# 4 0.0000 0.0000 0.0000 30.1684 0.0000 0.0000
# 5 0.0000 0.0000 0.0000 0.0000 36.9677 0.0000
# 6 0.0000 0.0000 0.0000 0.0000 0.0000 52.5108
#
#
#
# Elastic Compliance Matrix: (Units=1/GPa)
#
#
# Indices 1 2 3 4 5 6 
#
# 1 0.007302 -0.001328 -0.003492 0.000000 0.000000 0.000000
# 2 -0.001328 0.008459 -0.002963 0.000000 0.000000 0.000000
# 3 -0.003492 -0.002963 0.012785 0.000000 0.000000 0.000000
# 4 0.000000 0.000000 0.000000 0.033147 0.000000 0.000000
# 5 0.000000 0.000000 0.000000 0.000000 0.027051 0.000000
# 6 0.000000 0.000000 0.000000 0.000000 0.000000 0.019044
#
#
# Mechanical properties :
#
#
# Convention : Reuss Voigt Hill
#
# Bulk Modulus (GPa) = 77.03552 80.48681 78.76117
# Shear Modulus (GPa) = 39.16035 41.80229 40.48132
#
# Velocity S-wave (km/s) = 4.18080 4.31953 4.25073
# Velocity P-wave (km/s) = 7.59540 7.79762 7.69717
#
# Compressibility (1/GPa) = 0.01298102
#
# Stress axis : x y z
#
# Youngs Moduli (GPa) = 136.94037 118.22135 78.21590
#
# Poissons Ratio (x) = 0.15702 0.27311
# Poissons Ratio (y) = 0.18189 0.23173
# Poissons Ratio (z) = 0.47816 0.35025
#
# Static dielectric constant tensor:
#      x y z
#    x 4.098060 0.000000 0.000000 
#    y 0.000000 4.902490 0.000000 
#    z 0.000000 0.000000 4.075470 
# 
# 
# High freq. dielectric constant tensor:
#      x y z
#    x 1.896750 0.000000 0.000000 
#    y 0.000000 1.897010 0.000000 
#    z 0.000000 0.000000 1.882080 
# 
# From -- ./inp_files/30684.got.cif
#   From: 2010.03.12/outbox.cif.g09.slc.cpg/sg70_16_cif.got.tgz:30684.got - 2010.04.16 13:46:32.
