data_PCOD8286615
_publ_section_title
;
Structure prediction by ZEFSAII (Michael W. Deem and Ramdas Pophale) SiO2 
 PCOD8286615
Probable space group: F D D D
;
_chemical_formula_sum "Si O2"
_cell_formula_units_Z 192
_cell_length_a 30.179842
_cell_length_b 28.641738
_cell_length_c 10.856249
_cell_angle_alpha 90.000000
_cell_angle_beta 90.000000
_cell_angle_gamma 90.000000
_cell_volume 9384.175588
_symmetry_space_group_name_H-M "F D D D"
_symmetry_group_IT_number 70
_space_group.IT_coordinate_system_code '2'
_symmetry_cell_setting 'orthorhombic'
loop_
_space_group_symop_operation_xyz
x,y,z
1/4-x,1/4-y,z
x,1/4-y,1/4-z
1/4-x,y,1/4-z
-x,-y,-z
3/4+x,3/4+y,-z
-x,3/4+y,3/4+z
3/4+x,-y,3/4+z
x,1/2+y,1/2+z
1/4-x,3/4-y,1/2+z
x,3/4-y,3/4-z
1/4-x,1/2+y,3/4-z
-x,1/2-y,1/2-z
3/4+x,1/4+y,1/2-z
-x,1/4+y,1/4+z
3/4+x,1/2-y,1/4+z
1/2+x,y,1/2+z
3/4-x,1/4-y,1/2+z
1/2+x,1/4-y,3/4-z
3/4-x,y,3/4-z
1/2-x,-y,1/2-z
1/4+x,3/4+y,1/2-z
1/2-x,3/4+y,1/4+z
1/4+x,-y,1/4+z
1/2+x,1/2+y,z
3/4-x,3/4-y,z
1/2+x,3/4-y,1/4-z
3/4-x,1/2+y,1/4-z
1/2-x,1/2-y,-z
1/4+x,1/4+y,-z
1/2-x,1/4+y,3/4+z
1/4+x,1/2-y,3/4+z
loop_
_atom_site_type_symbol
_atom_site_label
_atom_site_fract_x
_atom_site_fract_y
_atom_site_fract_z
Si Si1 0.056682 0.125000 0.625000
Si Si2 0.827687 0.673461 0.930640
Si Si3 0.402711 0.833453 0.634318
Si Si4 0.281667 0.297758 0.795314
Si Si5 0.032042 0.375000 0.375000
Si Si6 0.921431 0.977993 0.032937
Si Si7 0.495712 0.950236 0.717597
O O1 0.087783 0.151990 0.723965
O O2 0.026631 0.083928 0.682932
O O3 0.875000 0.663463 0.875000
O O4 0.792458 0.678942 0.821553
O O5 0.813161 0.627736 0.005518
O O6 0.829233 0.716098 0.028897
O O7 0.375000 0.875000 0.570422
O O8 0.449805 0.827797 0.568564
O O9 0.372773 0.787569 0.607991
O O10 0.246945 0.328394 0.869813
O O11 0.257313 0.252560 0.735637
O O12 0.322841 0.286204 0.888164
O O13 0.963635 0.956219 0.101099
#
# Coordination Sequence:
#
# PCOD8286615 Si02
#       7
#    16  32  32  32  16  32  32
#     4  12  27  45  64  93 148 179 216 255 342 425
#     4  11  23  41  63  91 123 166 217 273 324 379
#     4  12  24  39  65 100 131 171 211 274 328 398
#     4  11  22  40  68  99 124 164 226 278 333 390
#     4  12  20  37  63  89 128 161 210 270 330 384
#     4  11  20  41  67  96 126 160 213 276 338 383
#     4  11  22  44  67  92 130 178 212 268 335 401
#
# _framework density 20.459975
#
# number of rings (size 3 to 8) (size 9 to 14) (size 15 to 20)
#    0.000    0.667    5.000    5.750    0.000    2.000 
#    0.000    1.667    0.000    0.000    0.000    0.000 
#    0.000    0.000    0.000    0.000    0.000    0.000 
#
# Total GULP energy -594891.500718 kJ/mol
# GULP energy per Si atom -12393.572932 kJ/mol
# Density = 2.041341 g / cm^3
# Si number density = 20.459975 Si / 1000 Ang^3
#
#
#
# Elastic Constant Matrix: (Units=GPa)
#
#
# Indices 1 2 3 4 5 6 
#
# 1 114.6961 32.8509 44.2012 0.0044 -0.0036 -0.0028
# 2 32.8509 92.8781 42.1632 0.0134 -0.0103 -0.0079
# 3 44.2012 42.1632 93.4809 0.0174 -0.0129 -0.0097
# 4 0.0044 0.0134 0.0174 39.0657 -0.0086 -0.0074
# 5 -0.0036 -0.0103 -0.0129 -0.0086 39.6330 0.0048
# 6 -0.0028 -0.0079 -0.0097 -0.0074 0.0048 39.1511
#
#
#
# Elastic Compliance Matrix: (Units=1/GPa)
#
#
# Indices 1 2 3 4 5 6 
#
# 1 0.010924 -0.001910 -0.004304 0.000001 -0.000001 -0.000001
# 2 -0.001910 0.013873 -0.005354 -0.000002 0.000002 0.000001
# 3 -0.004304 -0.005354 0.015147 -0.000004 0.000003 0.000002
# 4 0.000001 -0.000002 -0.000004 0.025598 0.000006 0.000005
# 5 -0.000001 0.000002 0.000003 0.000006 0.025232 -0.000003
# 6 -0.000001 0.000001 0.000002 0.000005 -0.000003 0.025542
#
#
# Mechanical properties :
#
#
# Convention : Reuss Voigt Hill
#
# Bulk Modulus (GPa) = 59.49372 59.94286 59.71829
# Shear Modulus (GPa) = 34.46967 35.69261 35.08114
#
# Velocity S-wave (km/s) = 4.10901 4.18126 4.14529
# Velocity P-wave (km/s) = 7.18701 7.25754 7.22236
#
# Compressibility (1/GPa) = 0.01680850
#
# Stress axis : x y z
#
# Youngs Moduli (GPa) = 91.53806 72.08280 66.01848
#
# Poissons Ratio (x) = 0.13769 0.28414
# Poissons Ratio (y) = 0.17485 0.35346
# Poissons Ratio (z) = 0.39397 0.38593
#
# Static dielectric constant tensor:
#      x y z
#    x 3.881000 0.000000 0.000010 
#    y 0.000000 3.789780 -0.000010 
#    z 0.000010 -0.000010 3.465580 
# 
# 
# High freq. dielectric constant tensor:
#      x y z
#    x 1.812030 0.000000 0.000000 
#    y 0.000000 1.797820 0.000000 
#    z 0.000000 0.000000 1.777740 
# 
# From -- ./inp_files/22478.got.cif
#   From: 2010.03.12/outbox.cif.g09.slc.cpg/sg70_12_cif.got.tgz:22478.got - 2010.04.16 13:46:32.
