data_PCOD8286333
_publ_section_title
;
Structure prediction by ZEFSAII (Michael W. Deem and Ramdas Pophale) SiO2 
 PCOD8286333
Probable space group: F D D D
;
_chemical_formula_sum "Si O2"
_cell_formula_units_Z 168
_cell_length_a 17.397926
_cell_length_b 18.597637
_cell_length_c 20.505882
_cell_angle_alpha 90.000000
_cell_angle_beta 90.000000
_cell_angle_gamma 90.000000
_cell_volume 6634.889584
_symmetry_space_group_name_H-M "F D D D"
_symmetry_group_IT_number 70
_space_group.IT_coordinate_system_code '2'
_symmetry_cell_setting 'orthorhombic'
loop_
_space_group_symop_operation_xyz
x,y,z
1/4-x,1/4-y,z
x,1/4-y,1/4-z
1/4-x,y,1/4-z
-x,-y,-z
3/4+x,3/4+y,-z
-x,3/4+y,3/4+z
3/4+x,-y,3/4+z
x,1/2+y,1/2+z
1/4-x,3/4-y,1/2+z
x,3/4-y,3/4-z
1/4-x,1/2+y,3/4-z
-x,1/2-y,1/2-z
3/4+x,1/4+y,1/2-z
-x,1/4+y,1/4+z
3/4+x,1/2-y,1/4+z
1/2+x,y,1/2+z
3/4-x,1/4-y,1/2+z
1/2+x,1/4-y,3/4-z
3/4-x,y,3/4-z
1/2-x,-y,1/2-z
1/4+x,3/4+y,1/2-z
1/2-x,3/4+y,1/4+z
1/4+x,-y,1/4+z
1/2+x,1/2+y,z
3/4-x,3/4-y,z
1/2+x,3/4-y,1/4-z
3/4-x,1/2+y,1/4-z
1/2-x,1/2-y,-z
1/4+x,1/4+y,-z
1/2-x,1/4+y,3/4+z
1/4+x,1/2-y,3/4+z
loop_
_atom_site_type_symbol
_atom_site_label
_atom_site_fract_x
_atom_site_fract_y
_atom_site_fract_z
Si Si1 0.010123 0.621416 0.017030
Si Si2 0.872002 0.053513 0.946211
Si Si3 0.875000 0.375000 0.875000
Si Si4 0.637570 0.542628 0.938122
Si Si5 0.399854 0.498722 0.554367
Si Si6 0.315234 0.041236 0.932097
O O1 0.065720 0.662758 0.071856
O O2 0.954866 0.568319 0.057976
O O3 0.055021 0.574020 0.964128
O O4 0.962935 0.676164 0.972279
O O5 0.875000 0.015141 0.875000
O O6 0.925925 0.122781 0.937997
O O7 0.901744 0.998366 0.001214
O O8 0.625000 0.625000 0.953283
O O9 0.600885 0.513980 0.870803
O O10 0.726497 0.524313 0.919667
O O11 0.334209 0.507893 0.501523
O O12 0.375000 0.011348 0.875000
#
# Coordination Sequence:
#
# PCOD8286333 Si02
#       6
#    32  32   8  32  32  32
#     4  10  22  38  65 108 141 188 216 278 373 456
#     4  10  23  47  70  92 141 197 247 290 360 419
#     4  12  24  32  68 112 152 164 216 292 378 452
#     4  12  27  44  69 104 135 185 257 305 347 419
#     4  10  22  39  63 100 146 182 227 273 363 445
#     4  10  23  44  73 103 148 187 223 296 370 445
#
# _framework density 25.320692000000001
#
# number of rings (size 3 to 8) (size 9 to 14) (size 15 to 20)
#    0.000    1.524    0.000    5.714    8.000    6.476 
#    1.714    1.905    0.000    0.000    0.000    0.000 
#    0.000    0.000    0.000    0.000    0.000    0.000 
#
# Total GULP energy -520393.133085 kJ/mol
# GULP energy per Si atom -12390.312693 kJ/mol
# Density = 2.526306 g / cm^3
# Si number density = 25.320692 Si / 1000 Ang^3
#
#
#
# Elastic Constant Matrix: (Units=GPa)
#
#
# Indices 1 2 3 4 5 6 
#
# 1 60.9840 6.5833 16.7133 0.0000 0.0000 0.0000
# 2 6.5833 70.1674 71.7041 0.0000 0.0000 0.0000
# 3 16.7133 71.7041 231.9614 0.0000 0.0000 0.0000
# 4 0.0000 0.0000 0.0000 40.1837 0.0000 0.0000
# 5 0.0000 0.0000 0.0000 0.0000 44.2271 0.0000
# 6 0.0000 0.0000 0.0000 0.0000 0.0000 26.1905
#
#
#
# Elastic Compliance Matrix: (Units=1/GPa)
#
#
# Indices 1 2 3 4 5 6 
#
# 1 0.016740 -0.000494 -0.001053 0.000000 0.000000 0.000000
# 2 -0.000494 0.020847 -0.006409 0.000000 0.000000 0.000000
# 3 -0.001053 -0.006409 0.006368 0.000000 0.000000 0.000000
# 4 0.000000 0.000000 0.000000 0.024886 0.000000 0.000000
# 5 0.000000 0.000000 0.000000 0.000000 0.022611 0.000000
# 6 0.000000 0.000000 0.000000 0.000000 0.000000 0.038182
#
#
# Mechanical properties :
#
#
# Convention : Reuss Voigt Hill
#
# Bulk Modulus (GPa) = 35.66017 61.45715 48.55866
# Shear Modulus (GPa) = 32.28042 39.99438 36.13740
#
# Velocity S-wave (km/s) = 3.57440 3.97862 3.78191
# Velocity P-wave (km/s) = 5.58113 6.74019 6.18786
#
# Compressibility (1/GPa) = 0.02804249
#
# Stress axis : x y z
#
# Youngs Moduli (GPa) = 59.73792 47.96858 157.03503
#
# Poissons Ratio (x) = 0.02370 0.16542
# Poissons Ratio (y) = 0.02952 1.00638
# Poissons Ratio (z) = 0.06293 0.30741
#
# Static dielectric constant tensor:
#      x y z
#    x 4.484590 0.000000 0.000000 
#    y 0.000000 4.928130 0.000000 
#    z 0.000000 0.000000 4.886410 
# 
# 
# High freq. dielectric constant tensor:
#      x y z
#    x 1.984240 0.000000 0.000000 
#    y 0.000000 2.017870 0.000000 
#    z 0.000000 0.000000 2.031150 
# 
# From -- ./inp_files/44901.got.cif
#   From: 2010.03.12/outbox.cif.g09.slc.cpg/sg70_23_cif.got.tgz:44901.got - 2010.04.16 13:46:32.
