data_PCOD8286885
_publ_section_title
;
Structure prediction by ZEFSAII (Michael W. Deem and Ramdas Pophale) SiO2 
 PCOD8286885
Probable space group: I M M M
;
_chemical_formula_sum "Si O2"
_cell_formula_units_Z 120
_cell_length_a 23.342239
_cell_length_b 25.973738
_cell_length_c 13.201700
_cell_angle_alpha 90.000000
_cell_angle_beta 90.000000
_cell_angle_gamma 90.000000
_cell_volume 8003.995326
_symmetry_space_group_name_H-M "I M M M"
_symmetry_group_IT_number 71
_symmetry_cell_setting 'orthorhombic'
loop_
_space_group_symop_operation_xyz
x,y,z
-x,-y,z
x,-y,-z
-x,y,-z
-x,-y,-z
x,y,-z
-x,y,z
x,-y,z
1/2+x,1/2+y,1/2+z
1/2-x,1/2-y,1/2+z
1/2+x,1/2-y,1/2-z
1/2-x,1/2+y,1/2-z
1/2-x,1/2-y,1/2-z
1/2+x,1/2+y,1/2-z
1/2-x,1/2+y,1/2+z
1/2+x,1/2-y,1/2+z
loop_
_atom_site_type_symbol
_atom_site_label
_atom_site_fract_x
_atom_site_fract_y
_atom_site_fract_z
Si Si1 0.319319 0.841003 0.884141
Si Si2 0.251727 0.734637 0.888856
Si Si3 0.856314 0.200270 0.115033
Si Si4 0.065226 0.806241 0.703788
Si Si5 0.722734 0.359755 0.745743
Si Si6 0.564279 0.500000 0.120183
Si Si7 0.365205 0.401505 0.880826
Si Si8 0.061844 0.695487 0.381457
O O1 0.291510 0.784612 0.878609
O O2 0.282679 0.877495 0.807022
O O3 0.384470 0.838108 0.840990
O O4 0.317002 0.861835 0.000000
O O5 0.184902 0.749875 0.877566
O O6 0.269284 0.694398 0.803949
O O7 0.261444 0.709827 0.000000
O O8 0.912602 0.207290 0.183610
O O9 0.822024 0.150033 0.154566
O O10 0.876031 0.190434 0.000000
O O11 0.102285 0.849217 0.647076
O O12 0.071336 0.755572 0.636910
O O13 0.000000 0.825505 0.711121
O O14 0.696433 0.402101 0.822563
O O15 0.500000 0.500000 0.166019
O O16 0.597735 0.449607 0.158447
O O17 0.560533 0.500000 0.000000
O O18 0.353719 0.404986 0.000000
O O19 0.060449 0.687064 0.500000
O O20 0.000000 0.677731 0.334476
#
# Coordination Sequence:
#
# PCOD8286885 Si02
#       8
#    16  16  16  16  16   8  16  16
#     4   9  15  23  35  51  74 103 129 152 181 216
#     4   9  15  22  34  51  72  97 122 153 193 231
#     4   9  17  26  34  48  71  98 127 158 192 226
#     4  10  18  26  38  54  71  97 132 167 197 222
#     4  10  16  24  38  55  72  93 123 157 191 226
#     4   9  18  32  46  58  77 103 122 143 189 249
#     4  10  19  29  42  60  78  94 118 155 196 238
#     4   9  16  24  35  54  80 107 133 160 188 218
#
# _framework density 14.992513000000001
#
# number of rings (size 3 to 8) (size 9 to 14) (size 15 to 20)
#    0.000    2.600    0.000    6.400    0.000    2.667 
#    0.000    0.000    0.000    0.000    0.000   11.667 
#    0.000   17.600    0.000    0.600    0.000    9.533 
#
# Total GULP energy -743433.886160 kJ/mol
# GULP energy per Si atom -12390.564769 kJ/mol
# Density = 1.495839 g / cm^3
# Si number density = 14.992513 Si / 1000 Ang^3
#
#
#
# Elastic Constant Matrix: (Units=GPa)
#
#
# Indices 1 2 3 4 5 6 
#
# 1 116.1788 25.6853 35.5210 0.0000 0.0000 0.0000
# 2 25.6853 27.8163 14.9988 0.0000 0.0000 0.0000
# 3 35.5210 14.9988 59.2330 0.0000 0.0000 0.0000
# 4 0.0000 0.0000 0.0000 8.9324 0.0000 0.0000
# 5 0.0000 0.0000 0.0000 0.0000 23.9823 0.0000
# 6 0.0000 0.0000 0.0000 0.0000 0.0000 17.9041
#
#
#
# Elastic Compliance Matrix: (Units=1/GPa)
#
#
# Indices 1 2 3 4 5 6 
#
# 1 0.012008 -0.008344 -0.005088 0.000000 0.000000 0.000000
# 2 -0.008344 0.047434 -0.007007 0.000000 0.000000 0.000000
# 3 -0.005088 -0.007007 0.021708 0.000000 0.000000 0.000000
# 4 0.000000 0.000000 0.000000 0.111952 0.000000 0.000000
# 5 0.000000 0.000000 0.000000 0.000000 0.041697 0.000000
# 6 0.000000 0.000000 0.000000 0.000000 0.000000 0.055853
#
#
# Mechanical properties :
#
#
# Convention : Reuss Voigt Hill
#
# Bulk Modulus (GPa) = 24.83202 39.51537 32.17370
# Shear Modulus (GPa) = 14.49468 18.63197 16.56332
#
# Velocity S-wave (km/s) = 3.11270 3.52909 3.32742
# Velocity P-wave (km/s) = 5.43300 6.55896 6.02235
#
# Compressibility (1/GPa) = 0.04027058
#
# Stress axis : x y z
#
# Youngs Moduli (GPa) = 83.27875 21.08213 46.06623
#
# Poissons Ratio (x) = 0.17592 0.23438
# Poissons Ratio (y) = 0.69492 0.32278
# Poissons Ratio (z) = 0.42372 0.14772
#
# Static dielectric constant tensor:
#      x y z
#    x 3.434250 0.000000 0.000000 
#    y 0.000000 2.414690 0.000000 
#    z 0.000000 0.000000 3.082890 
# 
# 
# High freq. dielectric constant tensor:
#      x y z
#    x 1.583480 0.000000 0.000000 
#    y 0.000000 1.499810 0.000000 
#    z 0.000000 0.000000 1.575500 
# 
# From -- ./inp_files/39733.got.cif
#   From: 2010.06.25/outbox.cif.g09.slc.cpg/sg71_20_cif.got.tgz:39733.got - 2010.06.28 04:59:45.
