data_PCOD8286219
_publ_section_title
;
Structure prediction by ZEFSAII (Michael W. Deem and Ramdas Pophale) SiO2 
 PCOD8286219
Probable space group: F D D D
;
_chemical_formula_sum "Si O2"
_cell_formula_units_Z 168
_cell_length_a 19.695958
_cell_length_b 14.568977
_cell_length_c 28.218436
_cell_angle_alpha 90.000000
_cell_angle_beta 90.000000
_cell_angle_gamma 90.000000
_cell_volume 8097.279056
_symmetry_space_group_name_H-M "F D D D"
_symmetry_group_IT_number 70
_space_group.IT_coordinate_system_code '2'
_symmetry_cell_setting 'orthorhombic'
loop_
_space_group_symop_operation_xyz
x,y,z
1/4-x,1/4-y,z
x,1/4-y,1/4-z
1/4-x,y,1/4-z
-x,-y,-z
3/4+x,3/4+y,-z
-x,3/4+y,3/4+z
3/4+x,-y,3/4+z
x,1/2+y,1/2+z
1/4-x,3/4-y,1/2+z
x,3/4-y,3/4-z
1/4-x,1/2+y,3/4-z
-x,1/2-y,1/2-z
3/4+x,1/4+y,1/2-z
-x,1/4+y,1/4+z
3/4+x,1/2-y,1/4+z
1/2+x,y,1/2+z
3/4-x,1/4-y,1/2+z
1/2+x,1/4-y,3/4-z
3/4-x,y,3/4-z
1/2-x,-y,1/2-z
1/4+x,3/4+y,1/2-z
1/2-x,3/4+y,1/4+z
1/4+x,-y,1/4+z
1/2+x,1/2+y,z
3/4-x,3/4-y,z
1/2+x,3/4-y,1/4-z
3/4-x,1/2+y,1/4-z
1/2-x,1/2-y,-z
1/4+x,1/4+y,-z
1/2-x,1/4+y,3/4+z
1/4+x,1/2-y,3/4+z
loop_
_atom_site_type_symbol
_atom_site_label
_atom_site_fract_x
_atom_site_fract_y
_atom_site_fract_z
Si Si1 0.367551 0.090269 0.051941
Si Si2 0.125000 0.125000 0.125000
Si Si3 0.701644 0.814311 0.531294
Si Si4 0.743024 0.276921 0.886000
Si Si5 0.530611 0.526072 0.200254
Si Si6 0.830266 0.292184 0.197829
O O1 0.420794 0.038992 0.086482
O O2 0.292182 0.063383 0.066330
O O3 0.375654 0.199614 0.054941
O O4 0.380310 0.063473 0.996619
O O5 0.081473 0.056190 0.158264
O O6 0.750000 0.750000 0.500000
O O7 0.698432 0.772008 0.583471
O O8 0.727268 0.918085 0.539184
O O9 0.774814 0.375000 0.875000
O O10 0.732897 0.218655 0.838133
O O11 0.554184 0.570209 0.249953
O O12 0.875000 0.375000 0.178211
#
# Coordination Sequence:
#
# PCOD8286219 Si02
#       6
#    32   8  32  32  32  32
#     4   9  21  39  64  88 123 169 212 255 324 397
#     4  12  28  44  64  92 138 176 228 282 332 404
#     4   9  20  41  66  93 129 164 213 267 324 392
#     4   9  19  36  61  93 126 156 207 267 317 385
#     4  11  24  44  62  91 131 174 221 273 331 396
#     4  10  21  38  57  92 122 163 213 266 321 385
#
# _framework density 20.747710999999999
#
# number of rings (size 3 to 8) (size 9 to 14) (size 15 to 20)
#    0.000    2.286    0.952    1.143    6.667    3.048 
#    6.857    0.000    0.000    3.429    0.000    0.000 
#    0.000    0.000    0.000    0.000    0.000    0.000 
#
# Total GULP energy -520418.789572 kJ/mol
# GULP energy per Si atom -12390.923561 kJ/mol
# Density = 2.070049 g / cm^3
# Si number density = 20.747711 Si / 1000 Ang^3
#
#
#
# Elastic Constant Matrix: (Units=GPa)
#
#
# Indices 1 2 3 4 5 6 
#
# 1 62.9545 24.0713 29.9222 0.0000 0.0000 0.0000
# 2 24.0713 93.0232 44.1498 0.0000 0.0000 0.0000
# 3 29.9222 44.1498 141.2303 0.0000 0.0000 0.0000
# 4 0.0000 0.0000 0.0000 38.6256 0.0000 0.0000
# 5 0.0000 0.0000 0.0000 0.0000 14.1738 0.0000
# 6 0.0000 0.0000 0.0000 0.0000 0.0000 17.2873
#
#
#
# Elastic Compliance Matrix: (Units=1/GPa)
#
#
# Indices 1 2 3 4 5 6 
#
# 1 0.018559 -0.003448 -0.002854 0.000000 0.000000 0.000000
# 2 -0.003448 0.013263 -0.003416 0.000000 0.000000 0.000000
# 3 -0.002854 -0.003416 0.008753 0.000000 0.000000 0.000000
# 4 0.000000 0.000000 0.000000 0.025890 0.000000 0.000000
# 5 0.000000 0.000000 0.000000 0.000000 0.070553 0.000000
# 6 0.000000 0.000000 0.000000 0.000000 0.000000 0.057846
#
#
# Mechanical properties :
#
#
# Convention : Reuss Voigt Hill
#
# Bulk Modulus (GPa) = 47.30347 54.83273 51.06810
# Shear Modulus (GPa) = 22.58898 27.28833 24.93866
#
# Velocity S-wave (km/s) = 3.30319 3.63057 3.47074
# Velocity P-wave (km/s) = 6.11531 6.63780 6.38190
#
# Compressibility (1/GPa) = 0.02114010
#
# Stress axis : x y z
#
# Youngs Moduli (GPa) = 53.88086 75.39581 114.24436
#
# Poissons Ratio (x) = 0.25995 0.32609
# Poissons Ratio (y) = 0.18577 0.39023
# Poissons Ratio (z) = 0.15379 0.25753
#
# Static dielectric constant tensor:
#      x y z
#    x 3.370620 0.000000 0.000000 
#    y 0.000000 3.829300 0.000000 
#    z 0.000000 0.000000 4.372400 
# 
# 
# High freq. dielectric constant tensor:
#      x y z
#    x 1.774400 0.000000 0.000000 
#    y 0.000000 1.816380 0.000000 
#    z 0.000000 0.000000 1.834730 
# 
# From -- ./inp_files/27814.got.cif
#   From: 2010.03.12/outbox.cif.g09.slc.cpg/sg70_14_cif.got.tgz:27814.got - 2010.04.16 13:46:32.
