data_PCOD8286613
_publ_section_title
;
Structure prediction by ZEFSAII (Michael W. Deem and Ramdas Pophale) SiO2 
 PCOD8286613
Probable space group: F D D D
;
_chemical_formula_sum "Si O2"
_cell_formula_units_Z 176
_cell_length_a 13.107740
_cell_length_b 25.168129
_cell_length_c 25.810463
_cell_angle_alpha 90.000000
_cell_angle_beta 90.000000
_cell_angle_gamma 90.000000
_cell_volume 8514.801829
_symmetry_space_group_name_H-M "F D D D"
_symmetry_group_IT_number 70
_space_group.IT_coordinate_system_code '2'
_symmetry_cell_setting 'orthorhombic'
loop_
_space_group_symop_operation_xyz
x,y,z
1/4-x,1/4-y,z
x,1/4-y,1/4-z
1/4-x,y,1/4-z
-x,-y,-z
3/4+x,3/4+y,-z
-x,3/4+y,3/4+z
3/4+x,-y,3/4+z
x,1/2+y,1/2+z
1/4-x,3/4-y,1/2+z
x,3/4-y,3/4-z
1/4-x,1/2+y,3/4-z
-x,1/2-y,1/2-z
3/4+x,1/4+y,1/2-z
-x,1/4+y,1/4+z
3/4+x,1/2-y,1/4+z
1/2+x,y,1/2+z
3/4-x,1/4-y,1/2+z
1/2+x,1/4-y,3/4-z
3/4-x,y,3/4-z
1/2-x,-y,1/2-z
1/4+x,3/4+y,1/2-z
1/2-x,3/4+y,1/4+z
1/4+x,-y,1/4+z
1/2+x,1/2+y,z
3/4-x,3/4-y,z
1/2+x,3/4-y,1/4-z
3/4-x,1/2+y,1/4-z
1/2-x,1/2-y,-z
1/4+x,1/4+y,-z
1/2-x,1/4+y,3/4+z
1/4+x,1/2-y,3/4+z
loop_
_atom_site_type_symbol
_atom_site_label
_atom_site_fract_x
_atom_site_fract_y
_atom_site_fract_z
Si Si1 0.375000 0.375000 0.173352
Si Si2 0.597766 0.769056 0.280983
Si Si3 0.059382 0.369642 0.751298
Si Si4 0.375830 0.260157 0.607074
Si Si5 0.058159 0.480964 0.246906
Si Si6 0.313000 0.803165 0.923384
O O1 0.272815 0.370605 0.207081
O O2 0.374070 0.426311 0.136529
O O3 0.500000 0.750000 0.250000
O O4 0.626395 0.827939 0.262876
O O5 0.574806 0.767261 0.342386
O O6 0.691432 0.728617 0.271217
O O7 0.137543 0.324155 0.732677
O O8 0.001445 0.352092 0.803760
O O9 0.442445 0.241607 0.558198
O O10 0.259029 0.243194 0.598272
O O11 0.116153 0.529999 0.219185
O O12 0.375000 0.825888 0.875000
#
# Coordination Sequence:
#
# PCOD8286613 Si02
#       6
#    16  32  32  32  32  32
#     4  12  20  42  73 106 134 181 224 290 368 408
#     4  12  28  47  63  95 143 192 242 279 331 416
#     4  11  23  43  71 100 141 185 222 293 356 413
#     4  11  23  41  68 103 141 175 223 283 356 419
#     4  11  22  44  69 104 141 169 232 293 347 428
#     4  11  20  40  71 114 145 164 215 303 374 425
#
# _framework density 20.669888
#
# number of rings (size 3 to 8) (size 9 to 14) (size 15 to 20)
#    0.000    0.727    7.273    1.091    0.000    5.818 
#    3.273    1.818    0.000    4.364    0.000    0.000 
#    0.000    0.000    0.000    0.000    0.000    0.000 
#
# Total GULP energy -545794.488075 kJ/mol
# GULP energy per Si atom -12404.420184 kJ/mol
# Density = 2.062284 g / cm^3
# Si number density = 20.669888 Si / 1000 Ang^3
#
#
#
# Elastic Constant Matrix: (Units=GPa)
#
#
# Indices 1 2 3 4 5 6 
#
# 1 122.5004 48.3817 47.5771 0.0000 0.0000 0.0000
# 2 48.3817 119.6751 23.7569 0.0000 0.0000 0.0000
# 3 47.5771 23.7569 112.6895 0.0000 0.0000 0.0000
# 4 0.0000 0.0000 0.0000 22.7985 0.0000 0.0000
# 5 0.0000 0.0000 0.0000 0.0000 28.3363 0.0000
# 6 0.0000 0.0000 0.0000 0.0000 0.0000 28.4643
#
#
#
# Elastic Compliance Matrix: (Units=1/GPa)
#
#
# Indices 1 2 3 4 5 6 
#
# 1 0.011162 -0.003733 -0.003926 0.000000 0.000000 0.000000
# 2 -0.003733 0.009970 -0.000526 0.000000 0.000000 0.000000
# 3 -0.003926 -0.000526 0.010642 0.000000 0.000000 0.000000
# 4 0.000000 0.000000 0.000000 0.043863 0.000000 0.000000
# 5 0.000000 0.000000 0.000000 0.000000 0.035290 0.000000
# 6 0.000000 0.000000 0.000000 0.000000 0.000000 0.035132
#
#
# Mechanical properties :
#
#
# Convention : Reuss Voigt Hill
#
# Bulk Modulus (GPa) = 64.91424 66.03297 65.47360
# Shear Modulus (GPa) = 29.83954 31.59645 30.71799
#
# Velocity S-wave (km/s) = 3.80363 3.91400 3.85921
# Velocity P-wave (km/s) = 7.12485 7.24166 7.18349
#
# Compressibility (1/GPa) = 0.01540494
#
# Stress axis : x y z
#
# Youngs Moduli (GPa) = 89.58634 100.30486 93.96609
#
# Poissons Ratio (x) = 0.37448 0.36888
# Poissons Ratio (y) = 0.33446 0.04938
# Poissons Ratio (z) = 0.35169 0.05271
#
# Static dielectric constant tensor:
#      x y z
#    x 3.709010 0.000000 0.000000 
#    y 0.000000 3.863510 0.000000 
#    z 0.000000 0.000000 3.868650 
# 
# 
# High freq. dielectric constant tensor:
#      x y z
#    x 1.794720 0.000000 0.000000 
#    y 0.000000 1.816900 0.000000 
#    z 0.000000 0.000000 1.809090 
# 
# From -- ./inp_files/58597.got.cif
#   From: 2010.03.12/outbox.cif.g09.slc.cpg/sg70_30_cif.got.tgz:58597.got - 2010.04.16 13:46:32.
