data_PCOD8286783
_publ_section_title
;
Structure prediction by ZEFSAII (Michael W. Deem and Ramdas Pophale) SiO2 
 PCOD8286783
Probable space group: F D D D
;
_chemical_formula_sum "Si O2"
_cell_formula_units_Z 112
_cell_length_a 11.010068
_cell_length_b 18.194299
_cell_length_c 23.935671
_cell_angle_alpha 90.000000
_cell_angle_beta 90.000000
_cell_angle_gamma 90.000000
_cell_volume 4794.804845
_symmetry_space_group_name_H-M "F D D D"
_symmetry_group_IT_number 70
_space_group.IT_coordinate_system_code '2'
_symmetry_cell_setting 'orthorhombic'
loop_
_space_group_symop_operation_xyz
x,y,z
1/4-x,1/4-y,z
x,1/4-y,1/4-z
1/4-x,y,1/4-z
-x,-y,-z
3/4+x,3/4+y,-z
-x,3/4+y,3/4+z
3/4+x,-y,3/4+z
x,1/2+y,1/2+z
1/4-x,3/4-y,1/2+z
x,3/4-y,3/4-z
1/4-x,1/2+y,3/4-z
-x,1/2-y,1/2-z
3/4+x,1/4+y,1/2-z
-x,1/4+y,1/4+z
3/4+x,1/2-y,1/4+z
1/2+x,y,1/2+z
3/4-x,1/4-y,1/2+z
1/2+x,1/4-y,3/4-z
3/4-x,y,3/4-z
1/2-x,-y,1/2-z
1/4+x,3/4+y,1/2-z
1/2-x,3/4+y,1/4+z
1/4+x,-y,1/4+z
1/2+x,1/2+y,z
3/4-x,3/4-y,z
1/2+x,3/4-y,1/4-z
3/4-x,1/2+y,1/4-z
1/2-x,1/2-y,-z
1/4+x,1/4+y,-z
1/2-x,1/4+y,3/4+z
1/4+x,1/2-y,3/4+z
loop_
_atom_site_type_symbol
_atom_site_label
_atom_site_fract_x
_atom_site_fract_y
_atom_site_fract_z
Si Si1 0.682224 0.010492 0.808411
Si Si2 0.552920 0.844220 0.571821
Si Si3 0.637339 0.375000 0.875000
Si Si4 0.001083 0.584750 0.013562
O O1 0.538624 0.030134 0.799832
O O2 0.736346 0.080864 0.840802
O O3 0.750000 0.000000 0.750000
O O4 0.696978 0.938734 0.847649
O O5 0.625000 0.811910 0.625000
O O6 0.641480 0.869725 0.521812
O O7 0.726143 0.342011 0.921190
O O8 0.125000 0.625000 0.996229
O O9 0.000000 0.500000 0.000000
#
# Coordination Sequence:
#
# PCOD8286783 Si02
#       4
#    32  32  16  32
#     4  11  25  50  77 112 155 207 260 327 399 479
#     4  11  26  47  76 109 161 201 264 323 400 475
#     4  12  25  48  79 112 152 201 267 320 392 486
#     4  12  27  46  79 114 156 208 266 331 407 476
#
# _framework density 23.358613999999999
#
# number of rings (size 3 to 8) (size 9 to 14) (size 15 to 20)
#    0.000    0.571    2.857    3.857    8.000    0.000 
#    0.000    1.429    0.000    0.000    0.000    0.000 
#    0.000    0.000    0.000    0.000    0.000    0.000 
#
# Total GULP energy -347221.977996 kJ/mol
# GULP energy per Si atom -12400.784928 kJ/mol
# Density = 2.330545 g / cm^3
# Si number density = 23.358614 Si / 1000 Ang^3
#
#
#
# Elastic Constant Matrix: (Units=GPa)
#
#
# Indices 1 2 3 4 5 6 
#
# 1 149.8112 61.2733 79.5529 0.0000 0.0000 0.0000
# 2 61.2733 169.0784 50.9346 0.0000 0.0000 0.0000
# 3 79.5529 50.9346 160.1349 0.0000 0.0000 0.0000
# 4 0.0000 0.0000 0.0000 44.0412 0.0000 0.0000
# 5 0.0000 0.0000 0.0000 0.0000 51.0552 0.0000
# 6 0.0000 0.0000 0.0000 0.0000 0.0000 40.7184
#
#
#
# Elastic Compliance Matrix: (Units=1/GPa)
#
#
# Indices 1 2 3 4 5 6 
#
# 1 0.009821 -0.002311 -0.004144 0.000000 0.000000 0.000000
# 2 -0.002311 0.007085 -0.001106 0.000000 0.000000 0.000000
# 3 -0.004144 -0.001106 0.008655 0.000000 0.000000 0.000000
# 4 0.000000 0.000000 0.000000 0.022706 0.000000 0.000000
# 5 0.000000 0.000000 0.000000 0.000000 0.019587 0.000000
# 6 0.000000 0.000000 0.000000 0.000000 0.000000 0.024559
#
#
# Mechanical properties :
#
#
# Convention : Reuss Voigt Hill
#
# Bulk Modulus (GPa) = 95.78222 95.83846 95.81034
# Shear Modulus (GPa) = 45.04014 46.31386 45.67700
#
# Velocity S-wave (km/s) = 4.39589 4.45762 4.42686
# Velocity P-wave (km/s) = 8.17675 8.22266 8.19974
#
# Compressibility (1/GPa) = 0.01044035
#
# Stress axis : x y z
#
# Youngs Moduli (GPa) = 101.82733 141.14652 115.54052
#
# Poissons Ratio (x) = 0.32614 0.47877
# Poissons Ratio (y) = 0.23528 0.12774
# Poissons Ratio (z) = 0.42195 0.15605
#
# Static dielectric constant tensor:
#      x y z
#    x 5.085850 0.000000 0.000000 
#    y 0.000000 4.406760 0.000000 
#    z 0.000000 0.000000 4.324440 
# 
# 
# High freq. dielectric constant tensor:
#      x y z
#    x 1.926930 0.000000 0.000000 
#    y 0.000000 1.945040 0.000000 
#    z 0.000000 0.000000 1.920480 
# 
# From -- ./inp_files/16242.got.cif
#   From: 2010.03.12/outbox.cif.g09.slc.cpg/sg70_9_cif.got.tgz:16242.got - 2010.04.16 13:46:32.
