data_PCOD8286935
_publ_section_title
;
Structure prediction by ZEFSAII (Michael W. Deem and Ramdas Pophale) SiO2 
 PCOD8286935
Probable space group: I M M M
;
_chemical_formula_sum "Si O2"
_cell_formula_units_Z 72
_cell_length_a 33.978569
_cell_length_b 9.291738
_cell_length_c 14.501337
_cell_angle_alpha 90.000000
_cell_angle_beta 90.000000
_cell_angle_gamma 90.000000
_cell_volume 4578.361549
_symmetry_space_group_name_H-M "I M M M"
_symmetry_group_IT_number 71
_symmetry_cell_setting 'orthorhombic'
loop_
_space_group_symop_operation_xyz
x,y,z
-x,-y,z
x,-y,-z
-x,y,-z
-x,-y,-z
x,y,-z
-x,y,z
x,-y,z
1/2+x,1/2+y,1/2+z
1/2-x,1/2-y,1/2+z
1/2+x,1/2-y,1/2-z
1/2-x,1/2+y,1/2-z
1/2-x,1/2-y,1/2-z
1/2+x,1/2+y,1/2-z
1/2-x,1/2+y,1/2+z
1/2+x,1/2-y,1/2+z
loop_
_atom_site_type_symbol
_atom_site_label
_atom_site_fract_x
_atom_site_fract_y
_atom_site_fract_z
Si Si1 0.725750 0.329143 0.101784
Si Si2 0.500000 0.342852 0.109161
Si Si3 0.155758 0.171189 0.270914
Si Si4 0.814280 0.332310 0.106155
Si Si5 0.915514 0.827796 0.396360
O O1 0.724373 0.500000 0.098669
O O2 0.694132 0.270488 0.174616
O O3 0.769786 0.279295 0.128008
O O4 0.714814 0.269880 0.000000
O O5 0.500000 0.500000 0.156501
O O6 0.541426 0.264934 0.135984
O O7 0.500000 0.361921 0.000000
O O8 0.155954 0.241909 0.169853
O O9 0.117370 0.227131 0.325369
O O10 0.155758 0.000000 0.261349
O O11 0.819068 0.500000 0.128560
O O12 0.824947 0.300889 0.000000
O O13 0.905023 0.774345 0.500000
O O14 0.917450 0.000000 0.396769
#
# Coordination Sequence:
#
# PCOD8286935 Si02
#       5
#    16   8  16  16  16
#     4   8  14  25  40  57  78 104 131 157 189 232
#     4   7  10  18  32  52  82 113 130 142 171 225
#     4  10  17  24  40  64  82  97 125 167 201 221
#     4   9  18  31  42  51  71 107 141 163 191 233
#     4   8  13  21  35  58  86 110 128 148 182 230
#
# _framework density 15.726150000000001
#
# number of rings (size 3 to 8) (size 9 to 14) (size 15 to 20)
#    0.000    3.444    0.000    4.000    0.000    3.111 
#    0.000    0.000    0.000    4.000    0.000    1.556 
#    0.000    8.889    0.000    0.000    0.000    0.000 
#
# Total GULP energy -445993.674240 kJ/mol
# GULP energy per Si atom -12388.713173 kJ/mol
# Density = 1.569036 g / cm^3
# Si number density = 15.726150 Si / 1000 Ang^3
#
#
#
# Elastic Constant Matrix: (Units=GPa)
#
#
# Indices 1 2 3 4 5 6 
#
# 1 114.9610 22.3172 70.6476 0.0000 0.0000 0.0000
# 2 22.3172 16.5722 26.0459 0.0000 0.0000 0.0000
# 3 70.6476 26.0459 97.7261 0.0000 0.0000 0.0000
# 4 0.0000 0.0000 0.0000 21.2626 0.0000 0.0000
# 5 0.0000 0.0000 0.0000 0.0000 21.1431 0.0000
# 6 0.0000 0.0000 0.0000 0.0000 0.0000 9.5332
#
#
#
# Elastic Compliance Matrix: (Units=1/GPa)
#
#
# Indices 1 2 3 4 5 6 
#
# 1 0.015968 -0.005784 -0.010002 0.000000 0.000000 0.000000
# 2 -0.005784 0.105932 -0.024052 0.000000 0.000000 0.000000
# 3 -0.010002 -0.024052 0.023874 0.000000 0.000000 0.000000
# 4 0.000000 0.000000 0.000000 0.047031 0.000000 0.000000
# 5 0.000000 0.000000 0.000000 0.000000 0.047297 0.000000
# 6 0.000000 0.000000 0.000000 0.000000 0.000000 0.104897
#
#
# Mechanical properties :
#
#
# Convention : Reuss Voigt Hill
#
# Bulk Modulus (GPa) = 15.12892 51.92008 33.52450
# Shear Modulus (GPa) = 11.19304 17.73769 14.46536
#
# Velocity S-wave (km/s) = 2.67075 3.36208 3.03616
# Velocity P-wave (km/s) = 4.37626 6.93961 5.80129
#
# Compressibility (1/GPa) = 0.06609859
#
# Stress axis : x y z
#
# Youngs Moduli (GPa) = 62.62533 9.44000 41.88736
#
# Poissons Ratio (x) = 0.05460 0.41896
# Poissons Ratio (y) = 0.36221 1.00747
# Poissons Ratio (z) = 0.62638 0.22705
#
# Static dielectric constant tensor:
#      x y z
#    x 3.342760 0.000000 0.000000 
#    y 0.000000 2.423760 0.000000 
#    z 0.000000 0.000000 2.924910 
# 
# 
# High freq. dielectric constant tensor:
#      x y z
#    x 1.599840 0.000000 0.000000 
#    y 0.000000 1.546130 0.000000 
#    z 0.000000 0.000000 1.589140 
# 
# From -- ./inp_files/29608.got.cif
#   From: 2010.06.25/outbox.cif.g09.slc.cpg/sg71_15_cif.got.tgz:29608.got - 2010.06.28 04:59:45.
