data_PCOD8286692
_publ_section_title
;
Structure prediction by ZEFSAII (Michael W. Deem and Ramdas Pophale) SiO2 
 PCOD8286692
Probable space group: F D D D
;
_chemical_formula_sum "Si O2"
_cell_formula_units_Z 160
_cell_length_a 21.575265
_cell_length_b 15.787270
_cell_length_c 22.134720
_cell_angle_alpha 90.000000
_cell_angle_beta 90.000000
_cell_angle_gamma 90.000000
_cell_volume 7539.407335
_symmetry_space_group_name_H-M "F D D D"
_symmetry_group_IT_number 70
_space_group.IT_coordinate_system_code '2'
_symmetry_cell_setting 'orthorhombic'
loop_
_space_group_symop_operation_xyz
x,y,z
1/4-x,1/4-y,z
x,1/4-y,1/4-z
1/4-x,y,1/4-z
-x,-y,-z
3/4+x,3/4+y,-z
-x,3/4+y,3/4+z
3/4+x,-y,3/4+z
x,1/2+y,1/2+z
1/4-x,3/4-y,1/2+z
x,3/4-y,3/4-z
1/4-x,1/2+y,3/4-z
-x,1/2-y,1/2-z
3/4+x,1/4+y,1/2-z
-x,1/4+y,1/4+z
3/4+x,1/2-y,1/4+z
1/2+x,y,1/2+z
3/4-x,1/4-y,1/2+z
1/2+x,1/4-y,3/4-z
3/4-x,y,3/4-z
1/2-x,-y,1/2-z
1/4+x,3/4+y,1/2-z
1/2-x,3/4+y,1/4+z
1/4+x,-y,1/4+z
1/2+x,1/2+y,z
3/4-x,3/4-y,z
1/2+x,3/4-y,1/4-z
3/4-x,1/2+y,1/4-z
1/2-x,1/2-y,-z
1/4+x,1/4+y,-z
1/2-x,1/4+y,3/4+z
1/4+x,1/2-y,3/4+z
loop_
_atom_site_type_symbol
_atom_site_label
_atom_site_fract_x
_atom_site_fract_y
_atom_site_fract_z
Si Si1 0.036586 0.011616 0.410292
Si Si2 0.144937 0.756341 0.797391
Si Si3 0.282233 0.397753 0.682822
Si Si4 0.907677 0.463452 0.962665
Si Si5 0.394421 0.111404 0.440304
O O1 0.071424 0.956894 0.357816
O O2 0.972683 0.966308 0.427401
O O3 0.024509 0.107338 0.384778
O O4 0.082003 0.022525 0.466594
O O5 0.074332 0.731875 0.816326
O O6 0.183217 0.672983 0.775698
O O7 0.148942 0.823783 0.743299
O O8 0.213834 0.418183 0.707011
O O9 0.875000 0.375000 0.948102
O O10 0.861699 0.536987 0.939426
O O11 0.375000 0.074201 0.375000
#
# Coordination Sequence:
#
# PCOD8286692 Si02
#       5
#    32  32  32  32  32
#     4   9  20  44  67  92 129 176 214 267 337 399
#     4   9  20  41  68  88 128 166 217 259 326 396
#     4   9  19  42  66  90 125 169 206 273 324 389
#     4  11  23  40  66  98 135 173 219 274 335 400
#     4  12  23  40  61  96 130 168 217 271 327 387
#
# _framework density 21.221827000000001
#
# number of rings (size 3 to 8) (size 9 to 14) (size 15 to 20)
#    1.200    0.800    2.000    1.800    0.000    4.400 
#    7.200    2.000    4.400    0.000    0.000    0.000 
#    0.000    0.000    0.000    0.000    0.000    0.000 
#
# Total GULP energy -495688.041947 kJ/mol
# GULP energy per Si atom -12392.201049 kJ/mol
# Density = 2.117353 g / cm^3
# Si number density = 21.221827 Si / 1000 Ang^3
#
#
#
# Elastic Constant Matrix: (Units=GPa)
#
#
# Indices 1 2 3 4 5 6 
#
# 1 122.7810 36.7908 43.2816 0.0000 0.0000 0.0000
# 2 36.7908 73.6091 44.9928 0.0000 0.0000 0.0000
# 3 43.2816 44.9928 142.7205 0.0000 0.0000 0.0000
# 4 0.0000 0.0000 0.0000 25.3114 0.0000 0.0000
# 5 0.0000 0.0000 0.0000 0.0000 31.3247 0.0000
# 6 0.0000 0.0000 0.0000 0.0000 0.0000 26.1270
#
#
#
# Elastic Compliance Matrix: (Units=1/GPa)
#
#
# Indices 1 2 3 4 5 6 
#
# 1 0.009936 -0.003870 -0.001793 0.000000 0.000000 0.000000
# 2 -0.003870 0.018335 -0.004607 0.000000 0.000000 0.000000
# 3 -0.001793 -0.004607 0.009003 0.000000 0.000000 0.000000
# 4 0.000000 0.000000 0.000000 0.039508 0.000000 0.000000
# 5 0.000000 0.000000 0.000000 0.000000 0.031924 0.000000
# 6 0.000000 0.000000 0.000000 0.000000 0.000000 0.038275
#
#
# Mechanical properties :
#
#
# Convention : Reuss Voigt Hill
#
# Bulk Modulus (GPa) = 59.75690 65.47121 62.61405
# Shear Modulus (GPa) = 28.88522 30.82232 29.85377
#
# Velocity S-wave (km/s) = 3.69332 3.81516 3.75473
# Velocity P-wave (km/s) = 6.81226 7.09402 6.95456
#
# Compressibility (1/GPa) = 0.01673447
#
# Stress axis : x y z
#
# Youngs Moduli (GPa) = 100.63985 54.53937 111.07737
#
# Poissons Ratio (x) = 0.21108 0.19919
# Poissons Ratio (y) = 0.38950 0.51168
# Poissons Ratio (z) = 0.18047 0.25124
#
# Static dielectric constant tensor:
#      x y z
#    x 3.793270 0.000000 0.000000 
#    y 0.000000 3.426240 0.000000 
#    z 0.000000 0.000000 3.715530 
# 
# 
# High freq. dielectric constant tensor:
#      x y z
#    x 1.839650 0.000000 0.000000 
#    y 0.000000 1.804150 0.000000 
#    z 0.000000 0.000000 1.825610 
# 
# From -- ./inp_files/61055.got.cif
#   From: 2010.03.12/outbox.cif.g09.slc.cpg/sg70_31_cif.got.tgz:61055.got - 2010.04.16 13:46:32.
