data_PCOD8286234
_publ_section_title
;
Structure prediction by ZEFSAII (Michael W. Deem and Ramdas Pophale) SiO2 
 PCOD8286234
Probable space group: F D D D
;
_chemical_formula_sum "Si O2"
_cell_formula_units_Z 112
_cell_length_a 5.127790
_cell_length_b 34.909477
_cell_length_c 29.745867
_cell_angle_alpha 90.000000
_cell_angle_beta 90.000000
_cell_angle_gamma 90.000000
_cell_volume 5324.762053
_symmetry_space_group_name_H-M "F D D D"
_symmetry_group_IT_number 70
_space_group.IT_coordinate_system_code '2'
_symmetry_cell_setting 'orthorhombic'
loop_
_space_group_symop_operation_xyz
x,y,z
1/4-x,1/4-y,z
x,1/4-y,1/4-z
1/4-x,y,1/4-z
-x,-y,-z
3/4+x,3/4+y,-z
-x,3/4+y,3/4+z
3/4+x,-y,3/4+z
x,1/2+y,1/2+z
1/4-x,3/4-y,1/2+z
x,3/4-y,3/4-z
1/4-x,1/2+y,3/4-z
-x,1/2-y,1/2-z
3/4+x,1/4+y,1/2-z
-x,1/4+y,1/4+z
3/4+x,1/2-y,1/4+z
1/2+x,y,1/2+z
3/4-x,1/4-y,1/2+z
1/2+x,1/4-y,3/4-z
3/4-x,y,3/4-z
1/2-x,-y,1/2-z
1/4+x,3/4+y,1/2-z
1/2-x,3/4+y,1/4+z
1/4+x,-y,1/4+z
1/2+x,1/2+y,z
3/4-x,3/4-y,z
1/2+x,3/4-y,1/4-z
3/4-x,1/2+y,1/4-z
1/2-x,1/2-y,-z
1/4+x,1/4+y,-z
1/2-x,1/4+y,3/4+z
1/4+x,1/2-y,3/4+z
loop_
_atom_site_type_symbol
_atom_site_label
_atom_site_fract_x
_atom_site_fract_y
_atom_site_fract_z
Si Si1 0.964749 0.288025 0.279869
Si Si2 0.945163 0.418154 0.998049
Si Si3 0.875000 0.496070 0.375000
Si Si4 0.875056 0.319460 0.102205
O O1 0.741005 0.317025 0.260990
O O2 0.914328 0.280153 0.331852
O O3 0.000000 0.250000 0.250000
O O4 0.247532 0.306839 0.280724
O O5 0.875000 0.375000 0.983561
O O6 0.874158 0.423166 0.049798
O O7 0.630196 0.523918 0.386334
O O8 0.625000 0.338374 0.125000
O O9 0.125000 0.339987 0.125000
#
# Coordination Sequence:
#
# PCOD8286234 Si02
#       4
#    32  32  16  32
#     4  12  24  44  71  98 133 174 233 276 325 402
#     4  12  26  44  65  98 141 180 214 276 351 404
#     4  10  24  38  71  98 126 168 232 280 326 374
#     4  10  21  38  63  99 127 164 222 271 341 386
#
# _framework density 21.033805999999998
#
# number of rings (size 3 to 8) (size 9 to 14) (size 15 to 20)
#    0.857    0.000    2.857    5.143    4.000    1.143 
#    0.000    4.286    0.000    0.000    0.000    0.000 
#    0.000    0.000    0.000    0.000    0.000    0.000 
#
# Total GULP energy -346906.467539 kJ/mol
# GULP energy per Si atom -12389.516698 kJ/mol
# Density = 2.098593 g / cm^3
# Si number density = 21.033806 Si / 1000 Ang^3
#
#
#
# Elastic Constant Matrix: (Units=GPa)
#
#
# Indices 1 2 3 4 5 6 
#
# 1 117.0124 18.4869 12.9850 0.0000 0.0000 0.0000
# 2 18.4869 108.2505 24.8688 0.0000 0.0000 0.0000
# 3 12.9850 24.8688 136.5753 0.0000 0.0000 0.0000
# 4 0.0000 0.0000 0.0000 63.2135 0.0000 0.0000
# 5 0.0000 0.0000 0.0000 0.0000 23.1194 0.0000
# 6 0.0000 0.0000 0.0000 0.0000 0.0000 61.0174
#
#
#
# Elastic Compliance Matrix: (Units=1/GPa)
#
#
# Indices 1 2 3 4 5 6 
#
# 1 0.008828 -0.001372 -0.000589 0.000000 0.000000 0.000000
# 2 -0.001372 0.009854 -0.001664 0.000000 0.000000 0.000000
# 3 -0.000589 -0.001664 0.007681 0.000000 0.000000 0.000000
# 4 0.000000 0.000000 0.000000 0.015819 0.000000 0.000000
# 5 0.000000 0.000000 0.000000 0.000000 0.043254 0.000000
# 6 0.000000 0.000000 0.000000 0.000000 0.000000 0.016389
#
#
# Mechanical properties :
#
#
# Convention : Reuss Voigt Hill
#
# Bulk Modulus (GPa) = 52.32197 52.72441 52.52319
# Shear Modulus (GPa) = 43.30961 49.83656 46.57309
#
# Velocity S-wave (km/s) = 4.54260 4.87288 4.71064
# Velocity P-wave (km/s) = 7.24174 7.53531 7.38998
#
# Compressibility (1/GPa) = 0.01911243
#
# Stress axis : x y z
#
# Youngs Moduli (GPa) = 113.27180 101.47702 130.19145
#
# Poissons Ratio (x) = 0.13925 0.07675
# Poissons Ratio (y) = 0.15544 0.21663
# Poissons Ratio (z) = 0.06677 0.16885
#
# Static dielectric constant tensor:
#      x y z
#    x 4.043360 0.000000 0.000000 
#    y 0.000000 3.932180 0.000000 
#    z 0.000000 0.000000 3.783280 
# 
# 
# High freq. dielectric constant tensor:
#      x y z
#    x 1.837610 0.000000 0.000000 
#    y 0.000000 1.823470 0.000000 
#    z 0.000000 0.000000 1.822320 
# 
# From -- ./inp_files/62930.got.cif
#   From: 2010.03.12/outbox.cif.g09.slc.cpg/sg70_32_cif.got.tgz:62930.got - 2010.04.16 13:46:32.
