data_PCOD8286794
_publ_section_title
;
Structure prediction by ZEFSAII (Michael W. Deem and Ramdas Pophale) SiO2 
 PCOD8286794
Probable space group: F D D D
;
_chemical_formula_sum "Si O2"
_cell_formula_units_Z 176
_cell_length_a 12.013285
_cell_length_b 26.032263
_cell_length_c 25.137826
_cell_angle_alpha 90.000000
_cell_angle_beta 90.000000
_cell_angle_gamma 90.000000
_cell_volume 7861.427603
_symmetry_space_group_name_H-M "F D D D"
_symmetry_group_IT_number 70
_space_group.IT_coordinate_system_code '2'
_symmetry_cell_setting 'orthorhombic'
loop_
_space_group_symop_operation_xyz
x,y,z
1/4-x,1/4-y,z
x,1/4-y,1/4-z
1/4-x,y,1/4-z
-x,-y,-z
3/4+x,3/4+y,-z
-x,3/4+y,3/4+z
3/4+x,-y,3/4+z
x,1/2+y,1/2+z
1/4-x,3/4-y,1/2+z
x,3/4-y,3/4-z
1/4-x,1/2+y,3/4-z
-x,1/2-y,1/2-z
3/4+x,1/4+y,1/2-z
-x,1/4+y,1/4+z
3/4+x,1/2-y,1/4+z
1/2+x,y,1/2+z
3/4-x,1/4-y,1/2+z
1/2+x,1/4-y,3/4-z
3/4-x,y,3/4-z
1/2-x,-y,1/2-z
1/4+x,3/4+y,1/2-z
1/2-x,3/4+y,1/4+z
1/4+x,-y,1/4+z
1/2+x,1/2+y,z
3/4-x,3/4-y,z
1/2+x,3/4-y,1/4-z
3/4-x,1/2+y,1/4-z
1/2-x,1/2-y,-z
1/4+x,1/4+y,-z
1/2-x,1/4+y,3/4+z
1/4+x,1/2-y,3/4+z
loop_
_atom_site_type_symbol
_atom_site_label
_atom_site_fract_x
_atom_site_fract_y
_atom_site_fract_z
Si Si1 0.317213 0.495706 0.111013
Si Si2 0.502983 0.601750 0.676610
Si Si3 0.625000 0.328956 0.125000
Si Si4 0.535884 0.506892 0.170980
Si Si5 0.634590 0.343375 0.719390
Si Si6 0.851066 0.316204 0.514091
O O1 0.247422 0.540319 0.081305
O O2 0.230706 0.456789 0.138841
O O3 0.408636 0.517624 0.152746
O O4 0.385952 0.465311 0.067505
O O5 0.625000 0.625000 0.677882
O O6 0.439047 0.625000 0.625000
O O7 0.447597 0.619678 0.731520
O O8 0.651305 0.363092 0.177133
O O9 0.625000 0.516363 0.125000
O O10 0.537308 0.447902 0.190203
O O11 0.568878 0.546180 0.217601
O O12 0.531434 0.312573 0.746534
O O13 0.875000 0.375000 0.525112
#
# Coordination Sequence:
#
# PCOD8286794 Si02
#       6
#    32  32  16  32  32  32
#     4  12  26  48  72 106 149 190 250 308 364 452
#     4  11  27  50  72 102 148 197 247 305 365 437
#     4  12  26  42  75 108 145 200 252 304 378 438
#     4  12  25  44  75 108 145 192 241 302 384 439
#     4  12  24  44  73 108 150 192 241 312 371 450
#     4  12  25  47  70 108 150 189 242 313 372 438
#
# _framework density 22.387792000000001
#
# number of rings (size 3 to 8) (size 9 to 14) (size 15 to 20)
#    0.000    0.182    6.364    2.727    5.091    0.364 
#    0.000    2.727    0.000    0.000    0.000    0.000 
#    0.000    0.000    0.000    0.000    0.000    0.000 
#
# Total GULP energy -545611.214565 kJ/mol
# GULP energy per Si atom -12400.254876 kJ/mol
# Density = 2.233684 g / cm^3
# Si number density = 22.387792 Si / 1000 Ang^3
#
#
#
# Elastic Constant Matrix: (Units=GPa)
#
#
# Indices 1 2 3 4 5 6 
#
# 1 143.0126 41.8316 50.6186 0.0000 0.0000 0.0000
# 2 41.8316 108.8769 32.2997 0.0000 0.0000 0.0000
# 3 50.6186 32.2997 121.5918 0.0000 0.0000 0.0000
# 4 0.0000 0.0000 0.0000 -39.7931 0.0000 0.0000
# 5 0.0000 0.0000 0.0000 0.0000 35.8505 0.0000
# 6 0.0000 0.0000 0.0000 0.0000 0.0000 30.1915
#
#
#
# Elastic Compliance Matrix: (Units=1/GPa)
#
#
# Indices 1 2 3 4 5 6 
#
# 1 0.008779 -0.002485 -0.002995 0.000000 0.000000 0.000000
# 2 -0.002485 0.010674 -0.001801 0.000000 0.000000 0.000000
# 3 -0.002995 -0.001801 0.009949 0.000000 0.000000 0.000000
# 4 0.000000 0.000000 0.000000 -0.025130 0.000000 0.000000
# 5 0.000000 0.000000 0.000000 0.000000 0.027894 0.000000
# 6 0.000000 0.000000 0.000000 0.000000 0.000000 0.033122
#
#
# Mechanical properties :
#
#
# Convention : Reuss Voigt Hill
#
# Bulk Modulus (GPa) = 67.37910 69.22014 68.29962
# Shear Modulus (GPa) = 58.96548 21.83187 40.39867
#
# Velocity S-wave (km/s) = 5.13765 3.12616 4.25254
# Velocity P-wave (km/s) = 8.08428 6.63448 7.39499
#
# Compressibility (1/GPa) = 0.01484140
#
# Stress axis : x y z
#
# Youngs Moduli (GPa) = 113.90670 93.68924 100.50895
#
# Poissons Ratio (x) = 0.23278 0.30100
# Poissons Ratio (y) = 0.28301 0.18102
# Poissons Ratio (z) = 0.34112 0.16873
#
# Static dielectric constant tensor:
#      x y z
#    x 4.127210 0.000000 0.000000 
#    y 0.000000 4.115630 0.000000 
#    z 0.000000 0.000000 4.299320 
# 
# 
# High freq. dielectric constant tensor:
#      x y z
#    x 1.883650 0.000000 0.000000 
#    y 0.000000 1.890350 0.000000 
#    z 0.000000 0.000000 1.885910 
# 
# From -- ./inp_files/57603.got.cif
#   From: 2010.03.12/outbox.cif.g09.slc.cpg/sg70_29_cif.got.tgz:57603.got - 2010.04.16 13:46:32.
