data_PCOD8286583
_publ_section_title
;
Structure prediction by ZEFSAII (Michael W. Deem and Ramdas Pophale) SiO2 
 PCOD8286583
Probable space group: F D D D
;
_chemical_formula_sum "Si O2"
_cell_formula_units_Z 120
_cell_length_a 25.454038
_cell_length_b 11.624331
_cell_length_c 16.679900
_cell_angle_alpha 90.000000
_cell_angle_beta 90.000000
_cell_angle_gamma 90.000000
_cell_volume 4935.351610
_symmetry_space_group_name_H-M "F D D D"
_symmetry_group_IT_number 70
_space_group.IT_coordinate_system_code '2'
_symmetry_cell_setting 'orthorhombic'
loop_
_space_group_symop_operation_xyz
x,y,z
1/4-x,1/4-y,z
x,1/4-y,1/4-z
1/4-x,y,1/4-z
-x,-y,-z
3/4+x,3/4+y,-z
-x,3/4+y,3/4+z
3/4+x,-y,3/4+z
x,1/2+y,1/2+z
1/4-x,3/4-y,1/2+z
x,3/4-y,3/4-z
1/4-x,1/2+y,3/4-z
-x,1/2-y,1/2-z
3/4+x,1/4+y,1/2-z
-x,1/4+y,1/4+z
3/4+x,1/2-y,1/4+z
1/2+x,y,1/2+z
3/4-x,1/4-y,1/2+z
1/2+x,1/4-y,3/4-z
3/4-x,y,3/4-z
1/2-x,-y,1/2-z
1/4+x,3/4+y,1/2-z
1/2-x,3/4+y,1/4+z
1/4+x,-y,1/4+z
1/2+x,1/2+y,z
3/4-x,3/4-y,z
1/2+x,3/4-y,1/4-z
3/4-x,1/2+y,1/4-z
1/2-x,1/2-y,-z
1/4+x,1/4+y,-z
1/2-x,1/4+y,3/4+z
1/4+x,1/2-y,3/4+z
loop_
_atom_site_type_symbol
_atom_site_label
_atom_site_fract_x
_atom_site_fract_y
_atom_site_fract_z
Si Si1 0.699100 0.743471 0.141433
Si Si2 0.269191 0.125000 0.625000
Si Si3 0.783595 0.184665 0.768098
Si Si4 0.875000 0.375000 0.875000
Si Si5 0.653045 0.308623 0.009312
O O1 0.667440 0.625000 0.125000
O O2 0.748566 0.693651 0.190279
O O3 0.720128 0.811998 0.063539
O O4 0.660244 0.821547 0.193840
O O5 0.233050 0.215678 0.670378
O O6 0.307128 0.051806 0.684893
O O7 0.842480 0.203909 0.734633
O O8 0.835787 0.296077 0.928914
#
# Coordination Sequence:
#
# PCOD8286583 Si02
#       5
#    32  16  32   8  32
#     4  11  25  45  67 104 144 190 242 299 368 449
#     4  10  27  46  69 118 146 184 255 308 371 442
#     4  11  24  44  73 103 145 191 243 306 368 441
#     4  12  22  44  78 108 132 198 252 298 366 436
#     4  11  25  45  74 105 147 191 245 311 367 435
#
# _framework density 24.314377
#
# number of rings (size 3 to 8) (size 9 to 14) (size 15 to 20)
#    0.000    1.067    2.667    1.600    5.600    4.267 
#    0.000    0.000    0.000    0.000    0.000    0.000 
#    0.000    0.000    0.000    0.000    0.000    0.000 
#
# Total GULP energy -371860.001109 kJ/mol
# GULP energy per Si atom -12395.333370 kJ/mol
# Density = 2.425904 g / cm^3
# Si number density = 24.314377 Si / 1000 Ang^3
#
#
#
# Elastic Constant Matrix: (Units=GPa)
#
#
# Indices 1 2 3 4 5 6 
#
# 1 126.1487 28.6880 15.2130 0.0000 0.0000 0.0000
# 2 28.6880 158.8816 16.3672 0.0000 0.0000 0.0000
# 3 15.2130 16.3672 54.4901 0.0000 0.0000 0.0000
# 4 0.0000 0.0000 0.0000 29.8426 0.0000 0.0000
# 5 0.0000 0.0000 0.0000 0.0000 20.3806 0.0000
# 6 0.0000 0.0000 0.0000 0.0000 0.0000 -4.8220
#
#
#
# Elastic Compliance Matrix: (Units=1/GPa)
#
#
# Indices 1 2 3 4 5 6 
#
# 1 0.008466 -0.001326 -0.001965 0.000000 0.000000 0.000000
# 2 -0.001326 0.006703 -0.001643 0.000000 0.000000 0.000000
# 3 -0.001965 -0.001643 0.019394 0.000000 0.000000 0.000000
# 4 0.000000 0.000000 0.000000 0.033509 0.000000 0.000000
# 5 0.000000 0.000000 0.000000 0.000000 0.049066 0.000000
# 6 0.000000 0.000000 0.000000 0.000000 0.000000 -0.207383
#
#
# Mechanical properties :
#
#
# Convention : Reuss Voigt Hill
#
# Bulk Modulus (GPa) = 40.49600 51.11743 45.80671
# Shear Modulus (GPa) = -69.30479 27.69705 -20.80387
#
# Velocity S-wave (km/s) = -5.34467 3.37875 -2.92827
# Velocity P-wave (km/s) = 4.62558 6.02416 2.72896
#
# Compressibility (1/GPa) = 0.02469380
#
# Stress axis : x y z
#
# Youngs Moduli (GPa) = 118.12332 149.19352 51.56194
#
# Poissons Ratio (x) = 0.19785 0.10133
# Poissons Ratio (y) = 0.15665 0.08472
# Poissons Ratio (z) = 0.23214 0.24513
#
# Static dielectric constant tensor:
#      x y z
#    x 4.354660 0.000000 0.000000 
#    y 0.000000 4.827190 0.000000 
#    z 0.000000 0.000000 4.515260 
# 
# 
# High freq. dielectric constant tensor:
#      x y z
#    x 1.984890 0.000000 0.000000 
#    y 0.000000 1.984170 0.000000 
#    z 0.000000 0.000000 1.957260 
# 
# From -- ./inp_files/33073.got.cif
#   From: 2010.03.12/outbox.cif.g09.slc.cpg/sg70_17_cif.got.tgz:33073.got - 2010.04.16 13:46:32.
