data_PCOD8286131
_publ_section_title
;
Structure prediction by ZEFSAII (Michael W. Deem and Ramdas Pophale) SiO2 
 PCOD8286131
Probable space group: F D D D
;
_chemical_formula_sum "Si O2"
_cell_formula_units_Z 160
_cell_length_a 24.910958
_cell_length_b 9.862867
_cell_length_c 29.264970
_cell_angle_alpha 90.000000
_cell_angle_beta 90.000000
_cell_angle_gamma 90.000000
_cell_volume 7190.211900
_symmetry_space_group_name_H-M "F D D D"
_symmetry_group_IT_number 70
_space_group.IT_coordinate_system_code '2'
_symmetry_cell_setting 'orthorhombic'
loop_
_space_group_symop_operation_xyz
x,y,z
1/4-x,1/4-y,z
x,1/4-y,1/4-z
1/4-x,y,1/4-z
-x,-y,-z
3/4+x,3/4+y,-z
-x,3/4+y,3/4+z
3/4+x,-y,3/4+z
x,1/2+y,1/2+z
1/4-x,3/4-y,1/2+z
x,3/4-y,3/4-z
1/4-x,1/2+y,3/4-z
-x,1/2-y,1/2-z
3/4+x,1/4+y,1/2-z
-x,1/4+y,1/4+z
3/4+x,1/2-y,1/4+z
1/2+x,y,1/2+z
3/4-x,1/4-y,1/2+z
1/2+x,1/4-y,3/4-z
3/4-x,y,3/4-z
1/2-x,-y,1/2-z
1/4+x,3/4+y,1/2-z
1/2-x,3/4+y,1/4+z
1/4+x,-y,1/4+z
1/2+x,1/2+y,z
3/4-x,3/4-y,z
1/2+x,3/4-y,1/4-z
3/4-x,1/2+y,1/4-z
1/2-x,1/2-y,-z
1/4+x,1/4+y,-z
1/2-x,1/4+y,3/4+z
1/4+x,1/2-y,3/4+z
loop_
_atom_site_type_symbol
_atom_site_label
_atom_site_fract_x
_atom_site_fract_y
_atom_site_fract_z
Si Si1 0.971516 0.947642 0.739020
Si Si2 0.743968 0.674825 0.452667
Si Si3 0.904592 0.648659 0.177995
Si Si4 0.918596 0.574305 0.494439
Si Si5 0.103644 0.272354 0.673546
O O1 0.925809 0.837093 0.750493
O O2 0.026812 0.880141 0.721596
O O3 0.991687 0.019090 0.786071
O O4 0.947484 0.040939 0.698798
O O5 0.750000 0.750000 0.500000
O O6 0.684268 0.703585 0.432414
O O7 0.789328 0.733967 0.418804
O O8 0.891412 0.625000 0.125000
O O9 0.848913 0.639018 0.206364
O O10 0.869705 0.613019 0.460677
O O11 0.125000 0.125000 0.689074
O O12 0.125000 0.318010 0.625000
#
# Coordination Sequence:
#
# PCOD8286131 Si02
#       5
#    32  32  32  32  32
#     4  10  23  44  67  90 136 178 225 273 350 414
#     4  10  20  40  64  94 127 171 221 280 335 405
#     4  11  24  42  70 102 137 180 238 293 341 411
#     4  11  23  44  67  94 135 185 215 284 354 412
#     4  11  23  37  65  98 128 170 229 285 340 408
#
# _framework density 22.252473999999999
#
# number of rings (size 3 to 8) (size 9 to 14) (size 15 to 20)
#    0.000    1.400    4.000    3.000    5.600    0.000 
#    7.200    2.000    0.000    0.000    0.000    0.000 
#    0.000    0.000    0.000    0.000    0.000    0.000 
#
# Total GULP energy -495639.169067 kJ/mol
# GULP energy per Si atom -12390.979227 kJ/mol
# Density = 2.220183 g / cm^3
# Si number density = 22.252474 Si / 1000 Ang^3
#
#
#
# Elastic Constant Matrix: (Units=GPa)
#
#
# Indices 1 2 3 4 5 6 
#
# 1 99.1128 20.7534 19.2183 0.0000 0.0000 -0.0001
# 2 20.7534 85.8478 25.2603 0.0000 0.0000 -0.0002
# 3 19.2183 25.2603 128.9886 0.0000 0.0000 0.0000
# 4 0.0000 0.0000 0.0000 24.6220 0.0000 0.0000
# 5 0.0000 0.0000 0.0000 0.0000 39.1706 0.0000
# 6 -0.0001 -0.0002 0.0000 0.0000 0.0000 31.7460
#
#
#
# Elastic Compliance Matrix: (Units=1/GPa)
#
#
# Indices 1 2 3 4 5 6 
#
# 1 0.010790 -0.002266 -0.001164 0.000000 0.000000 0.000000
# 2 -0.002266 0.012837 -0.002176 0.000000 0.000000 0.000000
# 3 -0.001164 -0.002176 0.008352 0.000000 0.000000 0.000000
# 4 0.000000 0.000000 0.000000 0.040614 0.000000 0.000000
# 5 0.000000 0.000000 0.000000 0.000000 0.025529 0.000000
# 6 0.000000 0.000000 0.000000 0.000000 0.000000 0.031500
#
#
# Mechanical properties :
#
#
# Convention : Reuss Voigt Hill
#
# Bulk Modulus (GPa) = 48.15439 49.37923 48.76681
# Shear Modulus (GPa) = 33.83953 35.68885 34.76419
#
# Velocity S-wave (km/s) = 3.90386 4.00911 3.95683
# Velocity P-wave (km/s) = 6.48129 6.60827 6.54509
#
# Compressibility (1/GPa) = 0.02076654
#
# Stress axis : x y z
#
# Youngs Moduli (GPa) = 92.68140 77.90190 119.72881
#
# Poissons Ratio (x) = 0.17652 0.13934
# Poissons Ratio (y) = 0.21001 0.26056
# Poissons Ratio (z) = 0.10787 0.16953
#
# Static dielectric constant tensor:
#      x y z
#    x 4.304090 0.000000 0.000000 
#    y 0.000000 4.404120 0.000000 
#    z 0.000000 0.000000 3.634260 
# 
# 
# High freq. dielectric constant tensor:
#      x y z
#    x 1.898170 0.000000 0.000000 
#    y 0.000000 1.871940 0.000000 
#    z 0.000000 0.000000 1.841090 
# 
# From -- ./inp_files/61607.got.cif
#   From: 2010.03.12/outbox.cif.g09.slc.cpg/sg70_31_cif.got.tgz:61607.got - 2010.04.16 13:46:32.
