data_PCOD8286597
_publ_section_title
;
Structure prediction by ZEFSAII (Michael W. Deem and Ramdas Pophale) SiO2 
 PCOD8286597
Probable space group: F D D D
;
_chemical_formula_sum "Si O2"
_cell_formula_units_Z 176
_cell_length_a 18.436430
_cell_length_b 26.876648
_cell_length_c 16.625748
_cell_angle_alpha 90.000000
_cell_angle_beta 90.000000
_cell_angle_gamma 90.000000
_cell_volume 8238.215073
_symmetry_space_group_name_H-M "F D D D"
_symmetry_group_IT_number 70
_space_group.IT_coordinate_system_code '2'
_symmetry_cell_setting 'orthorhombic'
loop_
_space_group_symop_operation_xyz
x,y,z
1/4-x,1/4-y,z
x,1/4-y,1/4-z
1/4-x,y,1/4-z
-x,-y,-z
3/4+x,3/4+y,-z
-x,3/4+y,3/4+z
3/4+x,-y,3/4+z
x,1/2+y,1/2+z
1/4-x,3/4-y,1/2+z
x,3/4-y,3/4-z
1/4-x,1/2+y,3/4-z
-x,1/2-y,1/2-z
3/4+x,1/4+y,1/2-z
-x,1/4+y,1/4+z
3/4+x,1/2-y,1/4+z
1/2+x,y,1/2+z
3/4-x,1/4-y,1/2+z
1/2+x,1/4-y,3/4-z
3/4-x,y,3/4-z
1/2-x,-y,1/2-z
1/4+x,3/4+y,1/2-z
1/2-x,3/4+y,1/4+z
1/4+x,-y,1/4+z
1/2+x,1/2+y,z
3/4-x,3/4-y,z
1/2+x,3/4-y,1/4-z
3/4-x,1/2+y,1/4-z
1/2-x,1/2-y,-z
1/4+x,1/4+y,-z
1/2-x,1/4+y,3/4+z
1/4+x,1/2-y,3/4+z
loop_
_atom_site_type_symbol
_atom_site_label
_atom_site_fract_x
_atom_site_fract_y
_atom_site_fract_z
Si Si1 0.680953 0.998529 0.183674
Si Si2 0.806762 0.808700 0.648719
Si Si3 0.397718 0.720563 0.087378
Si Si4 0.949734 0.353852 0.756438
Si Si5 0.301444 0.821953 0.334141
Si Si6 0.817051 0.125000 0.125000
O O1 0.625000 0.026274 0.125000
O O2 0.517910 0.969400 0.128283
O O3 0.634347 0.965804 0.246895
O O4 0.719680 0.044328 0.230001
O O5 0.874775 0.772171 0.629506
O O6 0.806501 0.857631 0.590396
O O7 0.813149 0.829099 0.738736
O O8 0.485162 0.716848 0.093422
O O9 0.366190 0.673195 0.133557
O O10 0.875000 0.375000 0.794086
O O11 0.016328 0.382301 0.796193
O O12 0.283315 0.875000 0.375000
O O13 0.375000 0.800088 0.375000
#
# Coordination Sequence:
#
# PCOD8286597 Si02
#       6
#    32  32  32  32  32  16
#     4  11  19  38  63  96 131 168 204 258 330 391
#     4  11  23  42  66  93 131 174 214 268 334 394
#     4  11  22  38  68  95 129 170 214 267 329 397
#     4  11  23  34  60 101 138 165 198 258 333 403
#     4  11  26  45  68  89 122 175 233 281 318 383
#     4  12  19  36  59 100 136 164 202 256 329 400
#
# _framework density 21.363851
#
# number of rings (size 3 to 8) (size 9 to 14) (size 15 to 20)
#    0.000    0.909    6.364    2.455    2.545    0.727 
#    0.000    0.000    4.000    0.000    0.000    0.000 
#    0.000    0.000    0.000    0.000    0.000    0.000 
#
# Total GULP energy -545137.702979 kJ/mol
# GULP energy per Si atom -12389.493250 kJ/mol
# Density = 2.131523 g / cm^3
# Si number density = 21.363851 Si / 1000 Ang^3
#
#
#
# Elastic Constant Matrix: (Units=GPa)
#
#
# Indices 1 2 3 4 5 6 
#
# 1 142.4534 22.6976 51.5893 0.0000 0.0000 0.0000
# 2 22.6976 54.3315 31.4312 0.0000 0.0000 0.0000
# 3 51.5893 31.4312 155.8996 0.0000 0.0000 0.0000
# 4 0.0000 0.0000 0.0000 19.0834 0.0000 0.0000
# 5 0.0000 0.0000 0.0000 0.0000 32.7223 0.0000
# 6 0.0000 0.0000 0.0000 0.0000 0.0000 32.9638
#
#
#
# Elastic Compliance Matrix: (Units=1/GPa)
#
#
# Indices 1 2 3 4 5 6 
#
# 1 0.008181 -0.002096 -0.002285 0.000000 0.000000 0.000000
# 2 -0.002096 0.021373 -0.003615 0.000000 0.000000 0.000000
# 3 -0.002285 -0.003615 0.007899 0.000000 0.000000 0.000000
# 4 0.000000 0.000000 0.000000 0.052402 0.000000 0.000000
# 5 0.000000 0.000000 0.000000 0.000000 0.030560 0.000000
# 6 0.000000 0.000000 0.000000 0.000000 0.000000 0.030336
#
#
# Mechanical properties :
#
#
# Convention : Reuss Voigt Hill
#
# Bulk Modulus (GPa) = 46.59623 62.68009 54.63816
# Shear Modulus (GPa) = 28.75260 33.41832 31.08546
#
# Velocity S-wave (km/s) = 3.67257 3.95935 3.81865
# Velocity P-wave (km/s) = 6.31204 7.09260 6.71367
#
# Compressibility (1/GPa) = 0.02146096
#
# Stress axis : x y z
#
# Youngs Moduli (GPa) = 122.23137 46.78867 126.59326
#
# Poissons Ratio (x) = 0.09807 0.28922
# Poissons Ratio (y) = 0.25621 0.45768
# Poissons Ratio (z) = 0.27926 0.16916
#
# Static dielectric constant tensor:
#      x y z
#    x 4.081860 0.000000 0.000000 
#    y 0.000000 3.584260 0.000000 
#    z 0.000000 0.000000 4.066200 
# 
# 
# High freq. dielectric constant tensor:
#      x y z
#    x 1.852490 0.000000 0.000000 
#    y 0.000000 1.810820 0.000000 
#    z 0.000000 0.000000 1.840530 
# 
# From -- ./inp_files/35268.got.cif
#   From: 2010.03.12/outbox.cif.g09.slc.cpg/sg70_18_cif.got.tgz:35268.got - 2010.04.16 13:46:32.
