data_PCOD8286090
_publ_section_title
;
Structure prediction by ZEFSAII (Michael W. Deem and Ramdas Pophale) SiO2 
 PCOD8286090
Probable space group: F D D D
;
_chemical_formula_sum "Si O2"
_cell_formula_units_Z 240
_cell_length_a 29.603901
_cell_length_b 20.356376
_cell_length_c 19.956228
_cell_angle_alpha 90.000000
_cell_angle_beta 90.000000
_cell_angle_gamma 90.000000
_cell_volume 12026.184558
_symmetry_space_group_name_H-M "F D D D"
_symmetry_group_IT_number 70
_space_group.IT_coordinate_system_code '2'
_symmetry_cell_setting 'orthorhombic'
loop_
_space_group_symop_operation_xyz
x,y,z
1/4-x,1/4-y,z
x,1/4-y,1/4-z
1/4-x,y,1/4-z
-x,-y,-z
3/4+x,3/4+y,-z
-x,3/4+y,3/4+z
3/4+x,-y,3/4+z
x,1/2+y,1/2+z
1/4-x,3/4-y,1/2+z
x,3/4-y,3/4-z
1/4-x,1/2+y,3/4-z
-x,1/2-y,1/2-z
3/4+x,1/4+y,1/2-z
-x,1/4+y,1/4+z
3/4+x,1/2-y,1/4+z
1/2+x,y,1/2+z
3/4-x,1/4-y,1/2+z
1/2+x,1/4-y,3/4-z
3/4-x,y,3/4-z
1/2-x,-y,1/2-z
1/4+x,3/4+y,1/2-z
1/2-x,3/4+y,1/4+z
1/4+x,-y,1/4+z
1/2+x,1/2+y,z
3/4-x,3/4-y,z
1/2+x,3/4-y,1/4-z
3/4-x,1/2+y,1/4-z
1/2-x,1/2-y,-z
1/4+x,1/4+y,-z
1/2-x,1/4+y,3/4+z
1/4+x,1/2-y,3/4+z
loop_
_atom_site_type_symbol
_atom_site_label
_atom_site_fract_x
_atom_site_fract_y
_atom_site_fract_z
Si Si1 0.286166 0.342941 0.486803
Si Si2 0.263277 0.212812 0.780323
Si Si3 0.500834 0.094006 0.784642
Si Si4 0.675582 0.408257 0.303169
Si Si5 0.399252 0.617680 0.805385
Si Si6 0.466918 0.031823 0.914462
Si Si7 0.125000 0.125000 0.808080
Si Si8 0.442111 0.797699 0.144368
O O1 0.262624 0.414270 0.477220
O O2 0.261455 0.307444 0.548561
O O3 0.283356 0.297956 0.419592
O O4 0.337953 0.345419 0.508403
O O5 0.275846 0.282386 0.748542
O O6 0.310191 0.183953 0.804427
O O7 0.231053 0.224759 0.843643
O O8 0.470999 0.132221 0.730805
O O9 0.467829 0.061618 0.840051
O O10 0.539628 0.141541 0.812003
O O11 0.668475 0.375000 0.375000
O O12 0.632668 0.390567 0.258200
O O13 0.679291 0.486854 0.308550
O O14 0.375000 0.604055 0.875000
O O15 0.420842 0.690809 0.801723
O O16 0.147185 0.180961 0.854662
#
# Coordination Sequence:
#
# PCOD8286090 Si02
#       8
#    32  32  32  32  32  32  16  32
#     4   9  20  38  61  93 126 162 210 269 321 396
#     4  10  22  42  64  94 128 169 219 266 330 400
#     4  12  22  43  69  87 130 178 213 269 331 392
#     4  12  26  41  66  99 130 171 226 274 320 394
#     4  11  22  42  65  95 131 172 220 276 327 387
#     4  10  20  39  65  89 124 172 212 262 337 388
#     4  10  20  38  66  91 131 162 208 280 328 386
#     4  11  23  43  63  95 127 167 221 265 330 381
#
# _framework density 19.956454000000001
#
# number of rings (size 3 to 8) (size 9 to 14) (size 15 to 20)
#    0.000    1.333    6.667    0.400    3.733    0.533 
#    4.800    0.000    0.000    0.800    0.000    0.000 
#    0.000    0.000    0.000    0.000    0.000    0.000 
#
# Total GULP energy -743893.328300 kJ/mol
# GULP energy per Si atom -12398.222138 kJ/mol
# Density = 1.991103 g / cm^3
# Si number density = 19.956454 Si / 1000 Ang^3
#
#
#
# Elastic Constant Matrix: (Units=GPa)
#
#
# Indices 1 2 3 4 5 6 
#
# 1 102.5701 27.5459 27.5636 0.0000 0.0000 0.0000
# 2 27.5459 115.6571 29.2465 0.0000 0.0000 0.0000
# 3 27.5636 29.2465 84.6502 0.0000 0.0000 0.0000
# 4 0.0000 0.0000 0.0000 31.6476 0.0000 0.0000
# 5 0.0000 0.0000 0.0000 0.0000 24.4126 0.0000
# 6 0.0000 0.0000 0.0000 0.0000 0.0000 14.4603
#
#
#
# Elastic Compliance Matrix: (Units=1/GPa)
#
#
# Indices 1 2 3 4 5 6 
#
# 1 0.011048 -0.001886 -0.002946 0.000000 0.000000 0.000000
# 2 -0.001886 0.009796 -0.002770 0.000000 0.000000 0.000000
# 3 -0.002946 -0.002770 0.013730 0.000000 0.000000 0.000000
# 4 0.000000 0.000000 0.000000 0.031598 0.000000 0.000000
# 5 0.000000 0.000000 0.000000 0.000000 0.040962 0.000000
# 6 0.000000 0.000000 0.000000 0.000000 0.000000 0.069155
#
#
# Mechanical properties :
#
#
# Convention : Reuss Voigt Hill
#
# Bulk Modulus (GPa) = 51.62937 52.39883 52.01410
# Shear Modulus (GPa) = 25.25904 28.67221 26.96563
#
# Velocity S-wave (km/s) = 3.56154 3.79455 3.67989
# Velocity P-wave (km/s) = 6.54522 6.74624 6.64649
#
# Compressibility (1/GPa) = 0.01936882
#
# Stress axis : x y z
#
# Youngs Moduli (GPa) = 90.51765 102.08197 72.83544
#
# Poissons Ratio (x) = 0.19256 0.21454
# Poissons Ratio (y) = 0.17075 0.20178
# Poissons Ratio (z) = 0.26662 0.28280
#
# Static dielectric constant tensor:
#      x y z
#    x 3.626030 0.000000 0.000000 
#    y 0.000000 3.876250 0.000000 
#    z 0.000000 0.000000 3.599370 
# 
# 
# High freq. dielectric constant tensor:
#      x y z
#    x 1.780040 0.000000 0.000000 
#    y 0.000000 1.787070 0.000000 
#    z 0.000000 0.000000 1.770110 
# 
# From -- ./inp_files/47135.got.cif
#   From: 2010.03.12/outbox.cif.g09.slc.cpg/sg70_24_cif.got.tgz:47135.got - 2010.04.16 13:46:32.
