data_PCOD8286750
_publ_section_title
;
Structure prediction by ZEFSAII (Michael W. Deem and Ramdas Pophale) SiO2 
 PCOD8286750
Probable space group: F D D D
;
_chemical_formula_sum "Si O2"
_cell_formula_units_Z 216
_cell_length_a 14.732340
_cell_length_b 26.346346
_cell_length_c 24.653371
_cell_angle_alpha 90.000000
_cell_angle_beta 90.000000
_cell_angle_gamma 90.000000
_cell_volume 9569.041442
_symmetry_space_group_name_H-M "F D D D"
_symmetry_group_IT_number 70
_space_group.IT_coordinate_system_code '2'
_symmetry_cell_setting 'orthorhombic'
loop_
_space_group_symop_operation_xyz
x,y,z
1/4-x,1/4-y,z
x,1/4-y,1/4-z
1/4-x,y,1/4-z
-x,-y,-z
3/4+x,3/4+y,-z
-x,3/4+y,3/4+z
3/4+x,-y,3/4+z
x,1/2+y,1/2+z
1/4-x,3/4-y,1/2+z
x,3/4-y,3/4-z
1/4-x,1/2+y,3/4-z
-x,1/2-y,1/2-z
3/4+x,1/4+y,1/2-z
-x,1/4+y,1/4+z
3/4+x,1/2-y,1/4+z
1/2+x,y,1/2+z
3/4-x,1/4-y,1/2+z
1/2+x,1/4-y,3/4-z
3/4-x,y,3/4-z
1/2-x,-y,1/2-z
1/4+x,3/4+y,1/2-z
1/2-x,3/4+y,1/4+z
1/4+x,-y,1/4+z
1/2+x,1/2+y,z
3/4-x,3/4-y,z
1/2+x,3/4-y,1/4-z
3/4-x,1/2+y,1/4-z
1/2-x,1/2-y,-z
1/4+x,1/4+y,-z
1/2-x,1/4+y,3/4+z
1/4+x,1/2-y,3/4+z
loop_
_atom_site_type_symbol
_atom_site_label
_atom_site_fract_x
_atom_site_fract_y
_atom_site_fract_z
Si Si1 0.283452 0.577737 0.592819
Si Si2 0.475199 0.386994 0.735125
Si Si3 0.083407 0.785073 0.735109
Si Si4 0.416925 0.992900 0.063965
Si Si5 0.625000 0.625000 0.625000
Si Si6 0.898733 0.790664 0.299177
Si Si7 0.875000 0.262709 0.375000
Si Si8 0.718741 0.510297 0.930222
O O1 0.328376 0.625000 0.625000
O O2 0.215424 0.600732 0.548364
O O3 0.361871 0.545874 0.562890
O O4 0.218131 0.544620 0.631558
O O5 0.375000 0.375000 0.712429
O O6 0.549493 0.342819 0.727751
O O7 0.507092 0.438263 0.705973
O O8 0.132298 0.771187 0.678785
O O9 0.156198 0.775874 0.782513
O O10 0.000000 0.750000 0.750000
O O11 0.411809 0.973651 0.126269
O O12 0.523396 0.998967 0.052438
O O13 0.378647 0.954689 0.016768
O O14 0.682196 0.591172 0.668729
O O15 0.808041 0.773411 0.331479
#
# Coordination Sequence:
#
# PCOD8286750 Si02
#       8
#    32  32  32  32   8  32  16  32
#     4  12  23  39  72 105 136 187 249 300 370 454
#     4  12  24  43  69 102 141 193 234 294 380 448
#     4  12  24  43  70 103 148 191 240 302 374 450
#     4  11  24  45  71 100 140 185 241 308 371 433
#     4  12  24  48  78  96 144 188 248 302 364 414
#     4  11  25  47  72 104 140 184 245 311 361 435
#     4  12  23  44  63 104 156 187 236 315 366 444
#     4  12  23  48  70  99 154 188 236 317 375 437
#
# _framework density 22.572793999999998
#
# number of rings (size 3 to 8) (size 9 to 14) (size 15 to 20)
#    0.000    0.296    5.926    3.778    1.037    1.185 
#    4.000    0.000    0.000    0.000    0.000    0.000 
#    0.000    0.000    0.000    0.000    0.000    0.000 
#
# Total GULP energy -669117.142068 kJ/mol
# GULP energy per Si atom -12391.058186 kJ/mol
# Density = 2.252142 g / cm^3
# Si number density = 22.572794 Si / 1000 Ang^3
#
#
#
# Elastic Constant Matrix: (Units=GPa)
#
#
# Indices 1 2 3 4 5 6 
#
# 1 93.1873 33.9679 12.3185 0.0000 0.0000 0.0000
# 2 33.9679 124.0888 53.8653 0.0000 0.0000 0.0000
# 3 12.3185 53.8653 162.2863 0.0000 0.0000 0.0000
# 4 0.0000 0.0000 0.0000 42.1696 0.0000 0.0000
# 5 0.0000 0.0000 0.0000 0.0000 32.1675 0.0000
# 6 0.0000 0.0000 0.0000 0.0000 0.0000 26.7016
#
#
#
# Elastic Compliance Matrix: (Units=1/GPa)
#
#
# Indices 1 2 3 4 5 6 
#
# 1 0.011927 -0.003355 0.000208 0.000000 0.000000 0.000000
# 2 -0.003355 0.010359 -0.003184 0.000000 0.000000 0.000000
# 3 0.000208 -0.003184 0.007203 0.000000 0.000000 0.000000
# 4 0.000000 0.000000 0.000000 0.023714 0.000000 0.000000
# 5 0.000000 0.000000 0.000000 0.000000 0.031087 0.000000
# 6 0.000000 0.000000 0.000000 0.000000 0.000000 0.037451
#
#
# Mechanical properties :
#
#
# Convention : Reuss Voigt Hill
#
# Bulk Modulus (GPa) = 59.42656 64.42954 61.92805
# Shear Modulus (GPa) = 35.71152 38.83511 37.27332
#
# Velocity S-wave (km/s) = 3.98183 4.15232 4.06797
# Velocity P-wave (km/s) = 6.89374 7.18289 7.03980
#
# Compressibility (1/GPa) = 0.01682749
#
# Stress axis : x y z
#
# Youngs Moduli (GPa) = 83.84661 96.53262 138.83392
#
# Poissons Ratio (x) = 0.32389 -0.02892
# Poissons Ratio (y) = 0.28132 0.44200
# Poissons Ratio (z) = -0.01747 0.30733
#
# Static dielectric constant tensor:
#      x y z
#    x 3.935220 0.000000 0.000000 
#    y 0.000000 4.052860 0.000000 
#    z 0.000000 0.000000 4.537300 
# 
# 
# High freq. dielectric constant tensor:
#      x y z
#    x 1.885200 0.000000 0.000000 
#    y 0.000000 1.865290 0.000000 
#    z 0.000000 0.000000 1.913140 
# 
# From -- ./inp_files/58811.got.cif
#   From: 2010.03.12/outbox.cif.g09.slc.cpg/sg70_30_cif.got.tgz:58811.got - 2010.04.16 13:46:32.
