data_PCOD8286474
_publ_section_title
;
Structure prediction by ZEFSAII (Michael W. Deem and Ramdas Pophale) SiO2 
 PCOD8286474
Probable space group: F D D D
;
_chemical_formula_sum "Si O2"
_cell_formula_units_Z 208
_cell_length_a 18.039313
_cell_length_b 27.638817
_cell_length_c 19.759031
_cell_angle_alpha 90.000000
_cell_angle_beta 90.000000
_cell_angle_gamma 90.000000
_cell_volume 9851.561822
_symmetry_space_group_name_H-M "F D D D"
_symmetry_group_IT_number 70
_space_group.IT_coordinate_system_code '2'
_symmetry_cell_setting 'orthorhombic'
loop_
_space_group_symop_operation_xyz
x,y,z
1/4-x,1/4-y,z
x,1/4-y,1/4-z
1/4-x,y,1/4-z
-x,-y,-z
3/4+x,3/4+y,-z
-x,3/4+y,3/4+z
3/4+x,-y,3/4+z
x,1/2+y,1/2+z
1/4-x,3/4-y,1/2+z
x,3/4-y,3/4-z
1/4-x,1/2+y,3/4-z
-x,1/2-y,1/2-z
3/4+x,1/4+y,1/2-z
-x,1/4+y,1/4+z
3/4+x,1/2-y,1/4+z
1/2+x,y,1/2+z
3/4-x,1/4-y,1/2+z
1/2+x,1/4-y,3/4-z
3/4-x,y,3/4-z
1/2-x,-y,1/2-z
1/4+x,3/4+y,1/2-z
1/2-x,3/4+y,1/4+z
1/4+x,-y,1/4+z
1/2+x,1/2+y,z
3/4-x,3/4-y,z
1/2+x,3/4-y,1/4-z
3/4-x,1/2+y,1/4-z
1/2-x,1/2-y,-z
1/4+x,1/4+y,-z
1/2-x,1/4+y,3/4+z
1/4+x,1/2-y,3/4+z
loop_
_atom_site_type_symbol
_atom_site_label
_atom_site_fract_x
_atom_site_fract_y
_atom_site_fract_z
Si Si1 0.273278 0.375000 0.875000
Si Si2 0.042676 0.468404 0.442212
Si Si3 0.710109 0.880790 0.123677
Si Si4 0.939353 0.407162 0.237986
Si Si5 0.701685 0.985958 0.452847
Si Si6 0.276212 0.473388 0.183443
Si Si7 0.303836 0.957713 0.072149
O O1 0.234814 0.414265 0.825181
O O2 0.317522 0.343823 0.819760
O O3 0.126820 0.455451 0.465100
O O4 0.039020 0.498473 0.373093
O O5 0.000000 0.500000 0.500000
O O6 0.625000 0.863776 0.125000
O O7 0.732530 0.890702 0.045204
O O8 0.720063 0.929504 0.167601
O O9 0.764043 0.840306 0.152906
O O10 0.875000 0.375000 0.204770
O O11 0.920419 0.460613 0.216060
O O12 0.769208 0.970978 0.499640
O O13 0.728448 0.985406 0.374898
O O14 0.250000 0.500000 0.250000
O O15 0.358676 0.450830 0.189883
#
# Coordination Sequence:
#
# PCOD8286474 Si02
#       7
#    16  32  32  32  32  32  32
#     4  12  23  38  66  98 136 175 232 272 343 418
#     4  11  24  40  63  96 140 182 223 282 344 416
#     4  11  25  41  71  97 131 177 225 277 348 424
#     4  11  22  42  63  92 128 176 220 272 337 418
#     4  10  23  41  63  93 134 170 222 286 343 408
#     4  10  24  44  72  95 129 176 231 287 344 413
#     4  11  23  44  63  97 136 174 228 284 350 408
#
# _framework density 21.113403000000002
#
# number of rings (size 3 to 8) (size 9 to 14) (size 15 to 20)
#    0.000    1.231    1.538    5.308    8.615    0.000 
#    0.000    0.000    0.000    1.846    0.000    0.000 
#    0.000    0.000    0.000    0.000    0.000    0.000 
#
# Total GULP energy -644352.024979 kJ/mol
# GULP energy per Si atom -12391.385096 kJ/mol
# Density = 2.106535 g / cm^3
# Si number density = 21.113403 Si / 1000 Ang^3
#
#
#
# Elastic Constant Matrix: (Units=GPa)
#
#
# Indices 1 2 3 4 5 6 
#
# 1 110.3025 17.0214 39.4088 0.0000 0.0000 0.0000
# 2 17.0214 69.5003 25.1322 0.0000 0.0000 0.0000
# 3 39.4088 25.1322 141.8745 0.0000 0.0000 0.0000
# 4 0.0000 0.0000 0.0000 25.3655 0.0000 0.0000
# 5 0.0000 0.0000 0.0000 0.0000 23.9444 0.0000
# 6 0.0000 0.0000 0.0000 0.0000 0.0000 32.6637
#
#
#
# Elastic Compliance Matrix: (Units=1/GPa)
#
#
# Indices 1 2 3 4 5 6 
#
# 1 0.010224 -0.001578 -0.002560 0.000000 0.000000 0.000000
# 2 -0.001578 0.015617 -0.002328 0.000000 0.000000 0.000000
# 3 -0.002560 -0.002328 0.008172 0.000000 0.000000 0.000000
# 4 0.000000 0.000000 0.000000 0.039424 0.000000 0.000000
# 5 0.000000 0.000000 0.000000 0.000000 0.041763 0.000000
# 6 0.000000 0.000000 0.000000 0.000000 0.000000 0.030615
#
#
# Mechanical properties :
#
#
# Convention : Reuss Voigt Hill
#
# Bulk Modulus (GPa) = 47.43862 53.86688 50.65275
# Shear Modulus (GPa) = 30.16130 32.40237 31.28183
#
# Velocity S-wave (km/s) = 3.78370 3.92175 3.85334
# Velocity P-wave (km/s) = 6.45025 6.78788 6.62122
#
# Compressibility (1/GPa) = 0.02107987
#
# Stress axis : x y z
#
# Youngs Moduli (GPa) = 97.80605 64.03362 122.36741
#
# Poissons Ratio (x) = 0.10106 0.31332
# Poissons Ratio (y) = 0.15435 0.28488
# Poissons Ratio (z) = 0.25043 0.14907
#
# Static dielectric constant tensor:
#      x y z
#    x 3.858070 0.000000 0.000000 
#    y 0.000000 4.382230 0.000000 
#    z 0.000000 0.000000 1.895800 
# 
# 
# High freq. dielectric constant tensor:
#      x y z
#    x 1.826520 0.000000 0.000000 
#    y 0.000000 1.822780 0.000000 
#    z 0.000000 0.000000 1.839830 
# 
# From -- ./inp_files/38705.got.cif
#   From: 2010.03.12/outbox.cif.g09.slc.cpg/sg70_20_cif.got.tgz:38705.got - 2010.04.16 13:46:32.
