data_PCOD8286744
_publ_section_title
;
Structure prediction by ZEFSAII (Michael W. Deem and Ramdas Pophale) SiO2 
 PCOD8286744
Probable space group: F D D D
;
_chemical_formula_sum "Si O2"
_cell_formula_units_Z 112
_cell_length_a 15.377979
_cell_length_b 10.104158
_cell_length_c 30.272194
_cell_angle_alpha 90.000000
_cell_angle_beta 90.000000
_cell_angle_gamma 90.000000
_cell_volume 4703.739806
_symmetry_space_group_name_H-M "F D D D"
_symmetry_group_IT_number 70
_space_group.IT_coordinate_system_code '2'
_symmetry_cell_setting 'orthorhombic'
loop_
_space_group_symop_operation_xyz
x,y,z
1/4-x,1/4-y,z
x,1/4-y,1/4-z
1/4-x,y,1/4-z
-x,-y,-z
3/4+x,3/4+y,-z
-x,3/4+y,3/4+z
3/4+x,-y,3/4+z
x,1/2+y,1/2+z
1/4-x,3/4-y,1/2+z
x,3/4-y,3/4-z
1/4-x,1/2+y,3/4-z
-x,1/2-y,1/2-z
3/4+x,1/4+y,1/2-z
-x,1/4+y,1/4+z
3/4+x,1/2-y,1/4+z
1/2+x,y,1/2+z
3/4-x,1/4-y,1/2+z
1/2+x,1/4-y,3/4-z
3/4-x,y,3/4-z
1/2-x,-y,1/2-z
1/4+x,3/4+y,1/2-z
1/2-x,3/4+y,1/4+z
1/4+x,-y,1/4+z
1/2+x,1/2+y,z
3/4-x,3/4-y,z
1/2+x,3/4-y,1/4-z
3/4-x,1/2+y,1/4-z
1/2-x,1/2-y,-z
1/4+x,1/4+y,-z
1/2-x,1/4+y,3/4+z
1/4+x,1/2-y,3/4+z
loop_
_atom_site_type_symbol
_atom_site_label
_atom_site_fract_x
_atom_site_fract_y
_atom_site_fract_z
Si Si1 0.125000 0.125000 0.244003
Si Si2 0.252323 0.331591 0.828898
Si Si3 0.281017 0.704281 0.896879
Si Si4 0.815617 0.060875 0.069403
O O1 0.203610 0.082975 0.210850
O O2 0.167094 0.242249 0.272581
O O3 0.296043 0.375000 0.875000
O O4 0.270993 0.175476 0.822935
O O5 0.150996 0.358283 0.831499
O O6 0.375000 0.716966 0.875000
O O7 0.262440 0.830292 0.929218
O O8 0.209899 0.701563 0.856556
#
# Coordination Sequence:
#
# PCOD8286744 Si02
#       4
#    16  32  32  32
#     4  12  27  42  68 112 152 184 244 304 355 428
#     4  12  24  45  72 104 143 195 241 298 362 432
#     4  11  24  46  77 103 140 192 244 298 365 433
#     4  11  24  44  73 102 140 192 242 299 359 432
#
# _framework density 23.810842999999998
#
# number of rings (size 3 to 8) (size 9 to 14) (size 15 to 20)
#    0.000    0.571    2.857    7.286    0.000    3.429 
#    0.000    2.857    0.000    0.000    0.000    0.000 
#    0.000    0.000    0.000    0.000    0.000    0.000 
#
# Total GULP energy -346944.410012 kJ/mol
# GULP energy per Si atom -12390.871786 kJ/mol
# Density = 2.375665 g / cm^3
# Si number density = 23.810843 Si / 1000 Ang^3
#
#
#
# Elastic Constant Matrix: (Units=GPa)
#
#
# Indices 1 2 3 4 5 6 
#
# 1 161.9084 42.3950 48.8515 0.0000 0.0000 0.0000
# 2 42.3950 97.5783 60.5855 0.0000 0.0000 0.0000
# 3 48.8515 60.5855 161.9767 0.0000 0.0000 0.0000
# 4 0.0000 0.0000 0.0000 36.1638 0.0000 0.0000
# 5 0.0000 0.0000 0.0000 0.0000 33.8258 0.0000
# 6 0.0000 0.0000 0.0000 0.0000 0.0000 27.0114
#
#
#
# Elastic Compliance Matrix: (Units=1/GPa)
#
#
# Indices 1 2 3 4 5 6 
#
# 1 0.007173 -0.002310 -0.001299 0.000000 0.000000 0.000000
# 2 -0.002310 0.014092 -0.004574 0.000000 0.000000 0.000000
# 3 -0.001299 -0.004574 0.008277 0.000000 0.000000 0.000000
# 4 0.000000 0.000000 0.000000 0.027652 0.000000 0.000000
# 5 0.000000 0.000000 0.000000 0.000000 0.029563 0.000000
# 6 0.000000 0.000000 0.000000 0.000000 0.000000 0.037021
#
#
# Mechanical properties :
#
#
# Convention : Reuss Voigt Hill
#
# Bulk Modulus (GPa) = 75.90328 80.56972 78.23650
# Shear Modulus (GPa) = 34.59326 37.37561 35.98444
#
# Velocity S-wave (km/s) = 3.81574 3.96623 3.89171
# Velocity P-wave (km/s) = 7.16659 7.40847 7.28854
#
# Compressibility (1/GPa) = 0.01317466
#
# Stress axis : x y z
#
# Youngs Moduli (GPa) = 139.40773 70.96318 120.82249
#
# Poissons Ratio (x) = 0.16390 0.15701
# Poissons Ratio (y) = 0.32199 0.55268
# Poissons Ratio (z) = 0.18116 0.32461
#
# Static dielectric constant tensor:
#      x y z
#    x 4.380010 0.000000 0.000000 
#    y 0.000000 4.243470 0.000000 
#    z 0.000000 0.000000 4.300360 
# 
# 
# High freq. dielectric constant tensor:
#      x y z
#    x 1.961710 0.000000 0.000000 
#    y 0.000000 1.938170 0.000000 
#    z 0.000000 0.000000 1.929490 
# 
# From -- ./inp_files/21751.got.cif
#   From: 2010.03.12/outbox.cif.g09.slc.cpg/sg70_11_cif.got.tgz:21751.got - 2010.04.16 13:46:32.
