data_PCOD8286506
_publ_section_title
;
Structure prediction by ZEFSAII (Michael W. Deem and Ramdas Pophale) SiO2 
 PCOD8286506
Probable space group: F D D D
;
_chemical_formula_sum "Si O2"
_cell_formula_units_Z 112
_cell_length_a 15.337474
_cell_length_b 14.259036
_cell_length_c 19.970233
_cell_angle_alpha 90.000000
_cell_angle_beta 90.000000
_cell_angle_gamma 90.000000
_cell_volume 4367.441907
_symmetry_space_group_name_H-M "F D D D"
_symmetry_group_IT_number 70
_space_group.IT_coordinate_system_code '2'
_symmetry_cell_setting 'orthorhombic'
loop_
_space_group_symop_operation_xyz
x,y,z
1/4-x,1/4-y,z
x,1/4-y,1/4-z
1/4-x,y,1/4-z
-x,-y,-z
3/4+x,3/4+y,-z
-x,3/4+y,3/4+z
3/4+x,-y,3/4+z
x,1/2+y,1/2+z
1/4-x,3/4-y,1/2+z
x,3/4-y,3/4-z
1/4-x,1/2+y,3/4-z
-x,1/2-y,1/2-z
3/4+x,1/4+y,1/2-z
-x,1/4+y,1/4+z
3/4+x,1/2-y,1/4+z
1/2+x,y,1/2+z
3/4-x,1/4-y,1/2+z
1/2+x,1/4-y,3/4-z
3/4-x,y,3/4-z
1/2-x,-y,1/2-z
1/4+x,3/4+y,1/2-z
1/2-x,3/4+y,1/4+z
1/4+x,-y,1/4+z
1/2+x,1/2+y,z
3/4-x,3/4-y,z
1/2+x,3/4-y,1/4-z
3/4-x,1/2+y,1/4-z
1/2-x,1/2-y,-z
1/4+x,1/4+y,-z
1/2-x,1/4+y,3/4+z
1/4+x,1/2-y,3/4+z
loop_
_atom_site_type_symbol
_atom_site_label
_atom_site_fract_x
_atom_site_fract_y
_atom_site_fract_z
Si Si1 0.280819 0.625000 0.625000
Si Si2 0.257100 0.267174 0.755767
Si Si3 0.418064 0.568619 0.447255
Si Si4 0.417436 0.282738 0.132539
O O1 0.220155 0.655513 0.687204
O O2 0.344130 0.711086 0.610781
O O3 0.148739 0.266684 0.749197
O O4 0.298749 0.166940 0.771812
O O5 0.288957 0.312028 0.687505
O O6 0.375000 0.589703 0.375000
O O7 0.503221 0.500850 0.432918
O O8 0.375000 0.375000 0.164570
#
# Coordination Sequence:
#
# PCOD8286506 Si02
#       4
#    16  32  32  32
#     4  12  24  42  70 102 134 184 236 278 368 404
#     4  11  23  44  70 104 138 186 234 293 349 427
#     4  10  23  44  71 103 143 185 235 290 358 419
#     4  11  24  44  69 101 143 183 239 291 350 428
#
# _framework density 25.644302
#
# number of rings (size 3 to 8) (size 9 to 14) (size 15 to 20)
#    0.000    1.143    5.714    0.000    0.000    4.571 
#    5.143    5.000    0.000    0.000    0.000    0.000 
#    0.000    0.000    0.000    0.000    0.000    0.000 
#
# Total GULP energy -346918.712139 kJ/mol
# GULP energy per Si atom -12389.954005 kJ/mol
# Density = 2.558593 g / cm^3
# Si number density = 25.644302 Si / 1000 Ang^3
#
#
#
# Elastic Constant Matrix: (Units=GPa)
#
#
# Indices 1 2 3 4 5 6 
#
# 1 68.2330 17.4694 -17.2751 0.0000 0.0000 0.0000
# 2 17.4694 107.4151 -15.4630 0.0000 0.0000 0.0000
# 3 -17.2751 -15.4630 35.1920 0.0000 0.0000 0.0000
# 4 0.0000 0.0000 0.0000 4.9146 0.0000 0.0000
# 5 0.0000 0.0000 0.0000 0.0000 12.0345 0.0000
# 6 0.0000 0.0000 0.0000 0.0000 0.0000 43.6427
#
#
#
# Elastic Compliance Matrix: (Units=1/GPa)
#
#
# Indices 1 2 3 4 5 6 
#
# 1 0.017012 -0.001670 0.007617 0.000000 0.000000 0.000000
# 2 -0.001670 0.010102 0.003619 0.000000 0.000000 0.000000
# 3 0.007617 0.003619 0.033745 0.000000 0.000000 0.000000
# 4 0.000000 0.000000 0.000000 0.203475 0.000000 0.000000
# 5 0.000000 0.000000 0.000000 0.000000 0.083094 0.000000
# 6 0.000000 0.000000 0.000000 0.000000 0.000000 0.022913
#
#
# Mechanical properties :
#
#
# Convention : Reuss Voigt Hill
#
# Bulk Modulus (GPa) = 12.50159 20.03364 16.26762
# Shear Modulus (GPa) = 13.23194 27.19229 20.21211
#
# Velocity S-wave (km/s) = 2.27398 3.25986 2.81049
# Velocity P-wave (km/s) = 3.43224 4.69020 4.10964
#
# Compressibility (1/GPa) = 0.07998981
#
# Stress axis : x y z
#
# Youngs Moduli (GPa) = 58.78307 98.98753 29.63435
#
# Poissons Ratio (x) = 0.16533 -0.22572
# Poissons Ratio (y) = 0.09818 -0.10725
# Poissons Ratio (z) = -0.44774 -0.35823
#
# Static dielectric constant tensor:
#      x y z
#    x 5.357210 0.000000 0.000000 
#    y 0.000000 3.613570 0.000000 
#    z 0.000000 0.000000 5.376740 
# 
# 
# High freq. dielectric constant tensor:
#      x y z
#    x 2.045000 0.000000 0.000000 
#    y 0.000000 1.989700 0.000000 
#    z 0.000000 0.000000 2.066930 
# 
# From -- ./inp_files/25204.got.cif
#   From: 2010.03.12/outbox.cif.g09.slc.cpg/sg70_13_cif.got.tgz:25204.got - 2010.04.16 13:46:32.
