data_PCOD8286188
_publ_section_title
;
Structure prediction by ZEFSAII (Michael W. Deem and Ramdas Pophale) SiO2 
 PCOD8286188
Probable space group: F D D D
;
_chemical_formula_sum "Si O2"
_cell_formula_units_Z 160
_cell_length_a 16.785577
_cell_length_b 19.603361
_cell_length_c 25.894411
_cell_angle_alpha 90.000000
_cell_angle_beta 90.000000
_cell_angle_gamma 90.000000
_cell_volume 8520.652410
_symmetry_space_group_name_H-M "F D D D"
_symmetry_group_IT_number 70
_space_group.IT_coordinate_system_code '2'
_symmetry_cell_setting 'orthorhombic'
loop_
_space_group_symop_operation_xyz
x,y,z
1/4-x,1/4-y,z
x,1/4-y,1/4-z
1/4-x,y,1/4-z
-x,-y,-z
3/4+x,3/4+y,-z
-x,3/4+y,3/4+z
3/4+x,-y,3/4+z
x,1/2+y,1/2+z
1/4-x,3/4-y,1/2+z
x,3/4-y,3/4-z
1/4-x,1/2+y,3/4-z
-x,1/2-y,1/2-z
3/4+x,1/4+y,1/2-z
-x,1/4+y,1/4+z
3/4+x,1/2-y,1/4+z
1/2+x,y,1/2+z
3/4-x,1/4-y,1/2+z
1/2+x,1/4-y,3/4-z
3/4-x,y,3/4-z
1/2-x,-y,1/2-z
1/4+x,3/4+y,1/2-z
1/2-x,3/4+y,1/4+z
1/4+x,-y,1/4+z
1/2+x,1/2+y,z
3/4-x,3/4-y,z
1/2+x,3/4-y,1/4-z
3/4-x,1/2+y,1/4-z
1/2-x,1/2-y,-z
1/4+x,1/4+y,-z
1/2-x,1/4+y,3/4+z
1/4+x,1/2-y,3/4+z
loop_
_atom_site_type_symbol
_atom_site_label
_atom_site_fract_x
_atom_site_fract_y
_atom_site_fract_z
Si Si1 0.697322 0.176479 0.822364
Si Si2 0.062321 0.182056 0.485319
Si Si3 0.311784 0.583565 0.071858
Si Si4 0.945342 0.614286 0.342235
Si Si5 0.904884 0.672141 0.495224
O O1 0.625000 0.125000 0.815299
O O2 0.665777 0.253977 0.829570
O O3 0.746942 0.159249 0.873051
O O4 0.752538 0.166596 0.771650
O O5 0.125000 0.125000 0.469495
O O6 0.110842 0.251953 0.484507
O O7 0.021244 0.163364 0.540071
O O8 0.995511 0.190213 0.440507
O O9 0.300122 0.625000 0.125000
O O10 0.384158 0.617350 0.039507
O O11 0.875000 0.576598 0.375000
O O12 0.903140 0.666481 0.303462
#
# Coordination Sequence:
#
# PCOD8286188 Si02
#       5
#    32  32  32  32  32
#     4  10  21  37  60  83 105 150 193 224 278 334
#     4  10  21  34  58  84 112 155 180 221 280 340
#     4  10  23  36  54  84 118 145 181 234 278 327
#     4   9  19  35  56  81 113 145 184 229 270 333
#     4   9  21  39  54  81 117 144 184 232 280 327
#
# _framework density 18.777905000000001
#
# number of rings (size 3 to 8) (size 9 to 14) (size 15 to 20)
#    0.000    2.400    0.000    0.600    8.400    2.800 
#    0.000    0.000    0.000    0.000    0.000    0.000 
#    0.000    0.000    0.000    0.000    0.000    0.000 
#
# Total GULP energy -495839.456714 kJ/mol
# GULP energy per Si atom -12395.986418 kJ/mol
# Density = 1.873517 g / cm^3
# Si number density = 18.777905 Si / 1000 Ang^3
#
#
#
# Elastic Constant Matrix: (Units=GPa)
#
#
# Indices 1 2 3 4 5 6 
#
# 1 76.0421 24.7111 22.5632 0.0000 0.0000 0.0000
# 2 24.7111 58.1741 6.4023 0.0000 0.0000 0.0000
# 3 22.5632 6.4023 80.6585 0.0000 0.0000 0.0000
# 4 0.0000 0.0000 0.0000 19.6376 0.0000 0.0000
# 5 0.0000 0.0000 0.0000 0.0000 19.3644 0.0000
# 6 0.0000 0.0000 0.0000 0.0000 0.0000 27.9484
#
#
#
# Elastic Compliance Matrix: (Units=1/GPa)
#
#
# Indices 1 2 3 4 5 6 
#
# 1 0.016496 -0.006557 -0.004094 0.000000 0.000000 0.000000
# 2 -0.006557 0.019947 0.000251 0.000000 0.000000 0.000000
# 3 -0.004094 0.000251 0.013523 0.000000 0.000000 0.000000
# 4 0.000000 0.000000 0.000000 0.050923 0.000000 0.000000
# 5 0.000000 0.000000 0.000000 0.000000 0.051641 0.000000
# 6 0.000000 0.000000 0.000000 0.000000 0.000000 0.035780
#
#
# Mechanical properties :
#
#
# Convention : Reuss Voigt Hill
#
# Bulk Modulus (GPa) = 34.28552 35.80308 35.04430
# Shear Modulus (GPa) = 22.84849 24.13662 23.49255
#
# Velocity S-wave (km/s) = 3.49201 3.58910 3.54089
# Velocity P-wave (km/s) = 5.87852 6.02358 5.95149
#
# Compressibility (1/GPa) = 0.02916684
#
# Stress axis : x y z
#
# Youngs Moduli (GPa) = 60.62041 50.13212 73.94624
#
# Poissons Ratio (x) = 0.32870 0.30275
# Poissons Ratio (y) = 0.39746 -0.01855
# Poissons Ratio (z) = 0.24819 -0.01257
#
# Static dielectric constant tensor:
#      x y z
#    x 3.581380 0.000000 0.000000 
#    y 0.000000 3.338310 0.000000 
#    z 0.000000 0.000000 3.639940 
# 
# 
# High freq. dielectric constant tensor:
#      x y z
#    x 1.729210 0.000000 0.000000 
#    y 0.000000 1.713650 0.000000 
#    z 0.000000 0.000000 1.737970 
# 
# From -- ./inp_files/28620.got.cif
#   From: 2010.03.12/outbox.cif.g09.slc.cpg/sg70_15_cif.got.tgz:28620.got - 2010.04.16 13:46:32.
