data_PCOD8286196
_publ_section_title
;
Structure prediction by ZEFSAII (Michael W. Deem and Ramdas Pophale) SiO2 
 PCOD8286196
Probable space group: F D D D
;
_chemical_formula_sum "Si O2"
_cell_formula_units_Z 160
_cell_length_a 29.459352
_cell_length_b 14.835601
_cell_length_c 19.256150
_cell_angle_alpha 90.000000
_cell_angle_beta 90.000000
_cell_angle_gamma 90.000000
_cell_volume 8415.846286
_symmetry_space_group_name_H-M "F D D D"
_symmetry_group_IT_number 70
_space_group.IT_coordinate_system_code '2'
_symmetry_cell_setting 'orthorhombic'
loop_
_space_group_symop_operation_xyz
x,y,z
1/4-x,1/4-y,z
x,1/4-y,1/4-z
1/4-x,y,1/4-z
-x,-y,-z
3/4+x,3/4+y,-z
-x,3/4+y,3/4+z
3/4+x,-y,3/4+z
x,1/2+y,1/2+z
1/4-x,3/4-y,1/2+z
x,3/4-y,3/4-z
1/4-x,1/2+y,3/4-z
-x,1/2-y,1/2-z
3/4+x,1/4+y,1/2-z
-x,1/4+y,1/4+z
3/4+x,1/2-y,1/4+z
1/2+x,y,1/2+z
3/4-x,1/4-y,1/2+z
1/2+x,1/4-y,3/4-z
3/4-x,y,3/4-z
1/2-x,-y,1/2-z
1/4+x,3/4+y,1/2-z
1/2-x,3/4+y,1/4+z
1/4+x,-y,1/4+z
1/2+x,1/2+y,z
3/4-x,3/4-y,z
1/2+x,3/4-y,1/4-z
3/4-x,1/2+y,1/4-z
1/2-x,1/2-y,-z
1/4+x,1/4+y,-z
1/2-x,1/4+y,3/4+z
1/4+x,1/2-y,3/4+z
loop_
_atom_site_type_symbol
_atom_site_label
_atom_site_fract_x
_atom_site_fract_y
_atom_site_fract_z
Si Si1 0.573893 0.815350 0.639198
Si Si2 0.279546 0.588185 0.004196
Si Si3 0.324642 0.344137 0.727707
Si Si4 0.034098 0.625000 0.125000
Si Si5 0.040550 0.125000 0.125000
Si Si6 0.499440 0.806249 0.141117
O O1 0.625000 0.843501 0.625000
O O2 0.563655 0.837912 0.720385
O O3 0.566229 0.711493 0.620144
O O4 0.541429 0.876680 0.589968
O O5 0.248568 0.637871 0.059628
O O6 0.308836 0.507894 0.041214
O O7 0.244688 0.554762 0.943334
O O8 0.375000 0.375000 0.706094
O O9 0.321671 0.342754 0.811481
O O10 0.294143 0.413794 0.684199
O O11 0.010222 0.203147 0.160425
#
# Coordination Sequence:
#
# PCOD8286196 Si02
#       6
#    32  32  32  16  16  32
#     4  10  22  37  63  87 116 156 209 239 291 362
#     4   9  21  38  62  84 119 160 190 247 304 350
#     4  11  21  37  61  89 118 156 203 242 300 365
#     4  12  19  42  65  86 120 164 196 253 305 344
#     4  10  21  36  63  82 118 162 192 247 301 350
#     4   9  21  39  58  86 122 153 195 246 299 355
#
# _framework density 19.011755000000001
#
# number of rings (size 3 to 8) (size 9 to 14) (size 15 to 20)
#    1.200    0.800    2.000    1.800    2.800    0.000 
#    0.000    5.000    0.000    0.000    0.000    0.000 
#    0.000    0.000    0.000    0.000    0.000    0.000 
#
# Total GULP energy -495549.449640 kJ/mol
# GULP energy per Si atom -12388.736241 kJ/mol
# Density = 1.896848 g / cm^3
# Si number density = 19.011755 Si / 1000 Ang^3
#
#
#
# Elastic Constant Matrix: (Units=GPa)
#
#
# Indices 1 2 3 4 5 6 
#
# 1 128.0675 35.3445 28.6241 0.0000 0.0000 0.0000
# 2 35.3445 115.1024 -0.0751 0.0000 0.0000 0.0000
# 3 28.6241 -0.0751 49.3914 0.0000 0.0000 0.0000
# 4 0.0000 0.0000 0.0000 20.2590 0.0000 0.0000
# 5 0.0000 0.0000 0.0000 0.0000 11.0959 0.0000
# 6 0.0000 0.0000 0.0000 0.0000 0.0000 16.5232
#
#
#
# Elastic Compliance Matrix: (Units=1/GPa)
#
#
# Indices 1 2 3 4 5 6 
#
# 1 0.009940 -0.003056 -0.005766 0.000000 0.000000 0.000000
# 2 -0.003056 0.009628 0.001786 0.000000 0.000000 0.000000
# 3 -0.005766 0.001786 0.023590 0.000000 0.000000 0.000000
# 4 0.000000 0.000000 0.000000 0.049361 0.000000 0.000000
# 5 0.000000 0.000000 0.000000 0.000000 0.090123 0.000000
# 6 0.000000 0.000000 0.000000 0.000000 0.000000 0.060521
#
#
# Mechanical properties :
#
#
# Convention : Reuss Voigt Hill
#
# Bulk Modulus (GPa) = 34.37994 46.70535 40.54264
# Shear Modulus (GPa) = 18.73145 24.82016 21.77581
#
# Velocity S-wave (km/s) = 3.14228 3.61711 3.38803
# Velocity P-wave (km/s) = 5.59357 6.48572 6.05610
#
# Compressibility (1/GPa) = 0.02908673
#
# Stress axis : x y z
#
# Youngs Moduli (GPa) = 100.59887 103.86866 42.39001
#
# Poissons Ratio (x) = 0.31744 0.24440
# Poissons Ratio (y) = 0.30745 -0.07570
# Poissons Ratio (z) = 0.58000 -0.18549
#
# Static dielectric constant tensor:
#      x y z
#    x 3.136190 0.000000 0.000000 
#    y 0.000000 3.549070 0.000000 
#    z 0.000000 0.000000 3.345190 
# 
# 
# High freq. dielectric constant tensor:
#      x y z
#    x 1.713290 0.000000 0.000000 
#    y 0.000000 1.749630 0.000000 
#    z 0.000000 0.000000 1.725320 
# 
# From -- ./inp_files/54288.got.cif
#   From: 2010.03.12/outbox.cif.g09.slc.cpg/sg70_28_cif.got.tgz:54288.got - 2010.04.16 13:46:32.
