data_PCOD8286038
_publ_section_title
;
Structure prediction by ZEFSAII (Michael W. Deem and Ramdas Pophale) SiO2 
 PCOD8286038
Probable space group: F D D D
;
_chemical_formula_sum "Si O2"
_cell_formula_units_Z 168
_cell_length_a 23.558871
_cell_length_b 20.767459
_cell_length_c 18.430975
_cell_angle_alpha 90.000000
_cell_angle_beta 90.000000
_cell_angle_gamma 90.000000
_cell_volume 9017.499895
_symmetry_space_group_name_H-M "F D D D"
_symmetry_group_IT_number 70
_space_group.IT_coordinate_system_code '2'
_symmetry_cell_setting 'orthorhombic'
loop_
_space_group_symop_operation_xyz
x,y,z
1/4-x,1/4-y,z
x,1/4-y,1/4-z
1/4-x,y,1/4-z
-x,-y,-z
3/4+x,3/4+y,-z
-x,3/4+y,3/4+z
3/4+x,-y,3/4+z
x,1/2+y,1/2+z
1/4-x,3/4-y,1/2+z
x,3/4-y,3/4-z
1/4-x,1/2+y,3/4-z
-x,1/2-y,1/2-z
3/4+x,1/4+y,1/2-z
-x,1/4+y,1/4+z
3/4+x,1/2-y,1/4+z
1/2+x,y,1/2+z
3/4-x,1/4-y,1/2+z
1/2+x,1/4-y,3/4-z
3/4-x,y,3/4-z
1/2-x,-y,1/2-z
1/4+x,3/4+y,1/2-z
1/2-x,3/4+y,1/4+z
1/4+x,-y,1/4+z
1/2+x,1/2+y,z
3/4-x,3/4-y,z
1/2+x,3/4-y,1/4-z
3/4-x,1/2+y,1/4-z
1/2-x,1/2-y,-z
1/4+x,1/4+y,-z
1/2-x,1/4+y,3/4+z
1/4+x,1/2-y,3/4+z
loop_
_atom_site_type_symbol
_atom_site_label
_atom_site_fract_x
_atom_site_fract_y
_atom_site_fract_z
Si Si1 0.341512 0.994956 0.443268
Si Si2 0.766014 0.283819 0.075726
Si Si3 0.437111 0.808067 0.905912
Si Si4 0.379311 0.299300 0.658627
Si Si5 0.772783 0.931076 0.559903
Si Si6 0.375000 0.875000 0.375000
O O1 0.375000 0.028685 0.375000
O O2 0.375631 0.995453 0.519537
O O3 0.333304 0.919505 0.423317
O O4 0.281398 0.026141 0.456120
O O5 0.727807 0.251183 0.137311
O O6 0.831857 0.277235 0.099626
O O7 0.750589 0.358935 0.072970
O O8 0.750000 0.250000 0.000000
O O9 0.462134 0.875000 0.875000
O O10 0.375000 0.794175 0.875000
O O11 0.434170 0.816257 0.992178
O O12 0.375000 0.375000 0.676769
O O13 0.442171 0.288587 0.626479
#
# Coordination Sequence:
#
# PCOD8286038 Si02
#       6
#    32  32  32  32  32   8
#     4  10  20  40  64  86 116 154 198 250 298 353
#     4  11  21  36  60  86 126 158 194 248 297 351
#     4  11  22  37  59  86 122 162 200 240 294 360
#     4  10  20  37  61  87 113 158 202 240 292 362
#     4  11  23  36  62  93 117 156 207 241 297 363
#     4   8  20  40  68  80 116 152 200 240 314 340
#
# _framework density 18.630441000000001
#
# number of rings (size 3 to 8) (size 9 to 14) (size 15 to 20)
#    0.571    0.952    4.762    1.143    5.333    1.524 
#    0.000    0.000   10.476    0.000    0.000    0.000 
#    0.000    0.000    0.000    0.000    0.000    0.000 
#
# Total GULP energy -520484.687339 kJ/mol
# GULP energy per Si atom -12392.492556 kJ/mol
# Density = 1.858804 g / cm^3
# Si number density = 18.630441 Si / 1000 Ang^3
#
#
#
# Elastic Constant Matrix: (Units=GPa)
#
#
# Indices 1 2 3 4 5 6 
#
# 1 95.3388 53.5864 48.5211 0.0000 0.0000 0.0000
# 2 53.5864 89.5695 33.4407 0.0000 0.0000 0.0000
# 3 48.5211 33.4407 127.5290 0.0000 0.0000 0.0000
# 4 0.0000 0.0000 0.0000 25.0233 0.0000 0.0000
# 5 0.0000 0.0000 0.0000 0.0000 32.7766 0.0000
# 6 0.0000 0.0000 0.0000 0.0000 0.0000 32.4950
#
#
#
# Elastic Compliance Matrix: (Units=1/GPa)
#
#
# Indices 1 2 3 4 5 6 
#
# 1 0.017790 -0.008997 -0.004409 0.000000 0.000000 0.000000
# 2 -0.008997 0.016926 -0.001015 0.000000 0.000000 0.000000
# 3 -0.004409 -0.001015 0.009785 0.000000 0.000000 0.000000
# 4 0.000000 0.000000 0.000000 0.039963 0.000000 0.000000
# 5 0.000000 0.000000 0.000000 0.000000 0.030510 0.000000
# 6 0.000000 0.000000 0.000000 0.000000 0.000000 0.030774
#
#
# Mechanical properties :
#
#
# Convention : Reuss Voigt Hill
#
# Bulk Modulus (GPa) = 63.86474 64.83709 64.35091
# Shear Modulus (GPa) = 27.80720 29.85158 28.82939
#
# Velocity S-wave (km/s) = 3.86757 4.00722 3.93801
# Velocity P-wave (km/s) = 7.36874 7.50251 7.43592
#
# Compressibility (1/GPa) = 0.01565809
#
# Stress axis : x y z
#
# Youngs Moduli (GPa) = 56.21221 59.08056 102.19489
#
# Poissons Ratio (x) = 0.53153 0.45061
# Poissons Ratio (y) = 0.50573 0.10376
# Poissons Ratio (z) = 0.24786 0.05999
#
# Static dielectric constant tensor:
#      x y z
#    x 3.275420 0.000000 0.000000 
#    y 0.000000 3.352620 0.000000 
#    z 0.000000 0.000000 3.671460 
# 
# 
# High freq. dielectric constant tensor:
#      x y z
#    x 1.707910 0.000000 0.000000 
#    y 0.000000 1.706450 0.000000 
#    z 0.000000 0.000000 1.741690 
# 
# From -- ./inp_files/44823.got.cif
#   From: 2010.03.12/outbox.cif.g09.slc.cpg/sg70_23_cif.got.tgz:44823.got - 2010.04.16 13:46:32.
