data_PCOD8286922
_publ_section_title
;
Structure prediction by ZEFSAII (Michael W. Deem and Ramdas Pophale) SiO2 
 PCOD8286922
Probable space group: I M M M
;
_chemical_formula_sum "Si O2"
_cell_formula_units_Z 96
_cell_length_a 19.028797
_cell_length_b 13.111446
_cell_length_c 29.946583
_cell_angle_alpha 90.000000
_cell_angle_beta 90.000000
_cell_angle_gamma 90.000000
_cell_volume 7471.524053
_symmetry_space_group_name_H-M "I M M M"
_symmetry_group_IT_number 71
_symmetry_cell_setting 'orthorhombic'
loop_
_space_group_symop_operation_xyz
x,y,z
-x,-y,z
x,-y,-z
-x,y,-z
-x,-y,-z
x,y,-z
-x,y,z
x,-y,z
1/2+x,1/2+y,1/2+z
1/2-x,1/2-y,1/2+z
1/2+x,1/2-y,1/2-z
1/2-x,1/2+y,1/2-z
1/2-x,1/2-y,1/2-z
1/2+x,1/2+y,1/2-z
1/2-x,1/2+y,1/2+z
1/2+x,1/2-y,1/2+z
loop_
_atom_site_type_symbol
_atom_site_label
_atom_site_fract_x
_atom_site_fract_y
_atom_site_fract_z
Si Si1 0.343014 0.879947 0.364361
Si Si2 0.078730 0.620949 0.950864
Si Si3 0.796122 0.386778 0.271802
Si Si4 0.578510 0.615789 0.221236
Si Si5 0.919742 0.305630 0.220384
Si Si6 0.215036 0.182428 0.314574
O O1 0.366086 0.841520 0.413452
O O2 0.389311 0.816712 0.329228
O O3 0.260344 0.854495 0.357147
O O4 0.356909 0.000000 0.357734
O O5 0.078042 0.500000 0.951735
O O6 0.000000 0.660190 0.939346
O O7 0.101615 0.661927 0.000000
O O8 0.785230 0.500000 0.291370
O O9 0.876233 0.375748 0.254654
O O10 0.780082 0.305299 0.310781
O O11 0.744446 0.369470 0.230287
O O12 0.500000 0.631336 0.201369
O O13 0.589733 0.500000 0.237357
O O14 0.589278 0.687727 0.264576
O O15 0.634014 0.645439 0.182035
O O16 0.000000 0.342268 0.221393
#
# Coordination Sequence:
#
# PCOD8286922 Si02
#       6
#    16  16  16  16  16  16
#     4  10  17  23  34  50  68  89 110 137 169 197
#     4   8  14  24  36  50  69  91 110 128 159 204
#     4   9  16  24  33  44  63  90 111 135 172 199
#     4   9  16  25  35  45  63  92 119 144 171 192
#     4   9  16  23  32  49  68  87 117 145 162 192
#     4   9  16  24  33  47  64  83 113 143 164 195
#
# _framework density 12.848784
#
# number of rings (size 3 to 8) (size 9 to 14) (size 15 to 20)
#    0.000    3.000    0.000    5.000    0.000    2.000 
#    0.000    0.000    0.000    0.000    0.000    0.000 
#    0.000    3.333    0.000   18.000    0.000    0.667 
#
# Total GULP energy -594815.189031 kJ/mol
# GULP energy per Si atom -12391.983105 kJ/mol
# Density = 1.281954 g / cm^3
# Si number density = 12.848784 Si / 1000 Ang^3
#
#
#
# Elastic Constant Matrix: (Units=GPa)
#
#
# Indices 1 2 3 4 5 6 
#
# 1 92.7989 24.5978 39.6767 0.0000 0.0000 0.0000
# 2 24.5978 72.6320 17.7458 0.0000 0.0000 0.0000
# 3 39.6767 17.7458 68.3235 0.0000 0.0000 0.0000
# 4 0.0000 0.0000 0.0000 9.2094 0.0000 0.0000
# 5 0.0000 0.0000 0.0000 0.0000 18.0615 0.0000
# 6 0.0000 0.0000 0.0000 0.0000 0.0000 15.5097
#
#
#
# Elastic Compliance Matrix: (Units=1/GPa)
#
#
# Indices 1 2 3 4 5 6 
#
# 1 0.014980 -0.003148 -0.007882 0.000000 0.000000 0.000000
# 2 -0.003148 0.015362 -0.002162 0.000000 0.000000 0.000000
# 3 -0.007882 -0.002162 0.019775 0.000000 0.000000 0.000000
# 4 0.000000 0.000000 0.000000 0.108585 0.000000 0.000000
# 5 0.000000 0.000000 0.000000 0.000000 0.055366 0.000000
# 6 0.000000 0.000000 0.000000 0.000000 0.000000 0.064476
#
#
# Mechanical properties :
#
#
# Convention : Reuss Voigt Hill
#
# Bulk Modulus (GPa) = 42.13305 44.19945 43.16625
# Shear Modulus (GPa) = 15.98265 18.67172 17.32718
#
# Velocity S-wave (km/s) = 3.53073 3.81621 3.67624
# Velocity P-wave (km/s) = 7.03449 7.34114 7.18945
#
# Compressibility (1/GPa) = 0.02373433
#
# Stress axis : x y z
#
# Youngs Moduli (GPa) = 66.75486 65.09445 50.56900
#
# Poissons Ratio (x) = 0.20489 0.39857
# Poissons Ratio (y) = 0.21011 0.10934
# Poissons Ratio (z) = 0.52615 0.14075
#
# Static dielectric constant tensor:
#      x y z
#    x 2.922150 0.000000 0.000000 
#    y 0.000000 2.576360 0.000000 
#    z 0.000000 0.000000 2.399380 
# 
# 
# High freq. dielectric constant tensor:
#      x y z
#    x 1.500410 0.000000 0.000000 
#    y 0.000000 1.478320 0.000000 
#    z 0.000000 0.000000 1.431750 
# 
# From -- ./inp_files/66524.got.cif
#   From: 2010.06.25/outbox.cif.g09.slc.cpg/sg71_34_cif.got.tgz:66524.got - 2010.06.28 04:59:45.
