data_PCOD8286682
_publ_section_title
;
Structure prediction by ZEFSAII (Michael W. Deem and Ramdas Pophale) SiO2 
 PCOD8286682
Probable space group: F D D D
;
_chemical_formula_sum "Si O2"
_cell_formula_units_Z 136
_cell_length_a 15.249337
_cell_length_b 16.507851
_cell_length_c 25.368790
_cell_angle_alpha 90.000000
_cell_angle_beta 90.000000
_cell_angle_gamma 90.000000
_cell_volume 6386.181478
_symmetry_space_group_name_H-M "F D D D"
_symmetry_group_IT_number 70
_space_group.IT_coordinate_system_code '2'
_symmetry_cell_setting 'orthorhombic'
loop_
_space_group_symop_operation_xyz
x,y,z
1/4-x,1/4-y,z
x,1/4-y,1/4-z
1/4-x,y,1/4-z
-x,-y,-z
3/4+x,3/4+y,-z
-x,3/4+y,3/4+z
3/4+x,-y,3/4+z
x,1/2+y,1/2+z
1/4-x,3/4-y,1/2+z
x,3/4-y,3/4-z
1/4-x,1/2+y,3/4-z
-x,1/2-y,1/2-z
3/4+x,1/4+y,1/2-z
-x,1/4+y,1/4+z
3/4+x,1/2-y,1/4+z
1/2+x,y,1/2+z
3/4-x,1/4-y,1/2+z
1/2+x,1/4-y,3/4-z
3/4-x,y,3/4-z
1/2-x,-y,1/2-z
1/4+x,3/4+y,1/2-z
1/2-x,3/4+y,1/4+z
1/4+x,-y,1/4+z
1/2+x,1/2+y,z
3/4-x,3/4-y,z
1/2+x,3/4-y,1/4-z
3/4-x,1/2+y,1/4-z
1/2-x,1/2-y,-z
1/4+x,1/4+y,-z
1/2-x,1/4+y,3/4+z
1/4+x,1/2-y,3/4+z
loop_
_atom_site_type_symbol
_atom_site_label
_atom_site_fract_x
_atom_site_fract_y
_atom_site_fract_z
Si Si1 0.625000 0.625000 0.125000
Si Si2 0.475124 0.906323 0.011706
Si Si3 0.726384 0.144363 0.867906
Si Si4 0.001182 0.739610 0.687677
Si Si5 0.556902 0.938026 0.830138
O O1 0.570663 0.676003 0.166964
O O2 0.375000 0.875000 0.002284
O O3 0.535503 0.848389 0.976687
O O4 0.503874 0.891707 0.071383
O O5 0.500000 0.000000 0.000000
O O6 0.625000 0.125000 0.861061
O O7 0.749127 0.230789 0.841497
O O8 0.779330 0.075840 0.836801
O O9 0.908739 0.708334 0.666137
O O10 0.000000 0.750000 0.750000
O O11 0.529985 0.875000 0.875000
#
# Coordination Sequence:
#
# PCOD8286682 Si02
#       5
#     8  32  32  32  32
#     4  12  28  48  72 108 140 180 248 288 354 444
#     4  11  24  43  70 103 139 186 235 292 359 430
#     4   9  22  44  66  96 135 179 227 282 352 418
#     4  11  27  45  70 102 137 185 234 291 356 425
#     4  11  22  45  70  96 142 180 230 295 352 419
#
# _framework density 21.29598
#
# number of rings (size 3 to 8) (size 9 to 14) (size 15 to 20)
#    0.000    1.412    3.529    0.000    8.235    2.353 
#    0.000    0.000    0.000    0.000    0.000    0.000 
#    0.000    0.000    0.000    0.000    0.000    0.000 
#
# Total GULP energy -421499.044934 kJ/mol
# GULP energy per Si atom -12397.030733 kJ/mol
# Density = 2.124751 g / cm^3
# Si number density = 21.295980 Si / 1000 Ang^3
#
#
#
# Elastic Constant Matrix: (Units=GPa)
#
#
# Indices 1 2 3 4 5 6 
#
# 1 62.5346 54.6258 25.1092 0.0000 0.0000 0.0000
# 2 54.6258 215.6398 105.4345 0.0000 0.0000 0.0000
# 3 25.1092 105.4345 167.7240 0.0000 0.0000 0.0000
# 4 0.0000 0.0000 0.0000 52.1389 0.0000 0.0000
# 5 0.0000 0.0000 0.0000 0.0000 30.3448 0.0000
# 6 0.0000 0.0000 0.0000 0.0000 0.0000 28.0276
#
#
#
# Elastic Compliance Matrix: (Units=1/GPa)
#
#
# Indices 1 2 3 4 5 6 
#
# 1 0.020544 -0.005343 0.000283 0.000000 0.000000 0.000000
# 2 -0.005343 0.008085 -0.004282 0.000000 0.000000 0.000000
# 3 0.000283 -0.004282 0.008612 0.000000 0.000000 0.000000
# 4 0.000000 0.000000 0.000000 0.019180 0.000000 0.000000
# 5 0.000000 0.000000 0.000000 0.000000 0.032955 0.000000
# 6 0.000000 0.000000 0.000000 0.000000 0.000000 0.035679
#
#
# Mechanical properties :
#
#
# Convention : Reuss Voigt Hill
#
# Bulk Modulus (GPa) = 53.88890 90.69303 72.29096
# Shear Modulus (GPa) = 33.35032 39.48419 36.41725
#
# Velocity S-wave (km/s) = 3.96161 4.31056 4.13976
# Velocity P-wave (km/s) = 6.80334 8.21304 7.54120
#
# Compressibility (1/GPa) = 0.01855670
#
# Stress axis : x y z
#
# Youngs Moduli (GPa) = 48.67484 123.69321 116.12046
#
# Poissons Ratio (x) = 0.66085 -0.03285
# Poissons Ratio (y) = 0.26005 0.49726
# Poissons Ratio (z) = -0.01377 0.52969
#
# Static dielectric constant tensor:
#      x y z
#    x 3.675960 0.000000 0.000000 
#    y 0.000000 4.198160 0.000000 
#    z 0.000000 0.000000 3.925110 
# 
# 
# High freq. dielectric constant tensor:
#      x y z
#    x 1.818780 0.000000 0.000000 
#    y 0.000000 1.860040 0.000000 
#    z 0.000000 0.000000 1.848810 
# 
# From -- ./inp_files/27438.got.cif
#   From: 2010.03.12/outbox.cif.g09.slc.cpg/sg70_14_cif.got.tgz:27438.got - 2010.04.16 13:46:32.
