data_PCOD8286205
_publ_section_title
;
Structure prediction by ZEFSAII (Michael W. Deem and Ramdas Pophale) SiO2 
 PCOD8286205
Probable space group: F D D D
;
_chemical_formula_sum "Si O2"
_cell_formula_units_Z 176
_cell_length_a 24.089726
_cell_length_b 23.033177
_cell_length_c 16.218254
_cell_angle_alpha 90.000000
_cell_angle_beta 90.000000
_cell_angle_gamma 90.000000
_cell_volume 8998.907818
_symmetry_space_group_name_H-M "F D D D"
_symmetry_group_IT_number 70
_space_group.IT_coordinate_system_code '2'
_symmetry_cell_setting 'orthorhombic'
loop_
_space_group_symop_operation_xyz
x,y,z
1/4-x,1/4-y,z
x,1/4-y,1/4-z
1/4-x,y,1/4-z
-x,-y,-z
3/4+x,3/4+y,-z
-x,3/4+y,3/4+z
3/4+x,-y,3/4+z
x,1/2+y,1/2+z
1/4-x,3/4-y,1/2+z
x,3/4-y,3/4-z
1/4-x,1/2+y,3/4-z
-x,1/2-y,1/2-z
3/4+x,1/4+y,1/2-z
-x,1/4+y,1/4+z
3/4+x,1/2-y,1/4+z
1/2+x,y,1/2+z
3/4-x,1/4-y,1/2+z
1/2+x,1/4-y,3/4-z
3/4-x,y,3/4-z
1/2-x,-y,1/2-z
1/4+x,3/4+y,1/2-z
1/2-x,3/4+y,1/4+z
1/4+x,-y,1/4+z
1/2+x,1/2+y,z
3/4-x,3/4-y,z
1/2+x,3/4-y,1/4-z
3/4-x,1/2+y,1/4-z
1/2-x,1/2-y,-z
1/4+x,1/4+y,-z
1/2-x,1/4+y,3/4+z
1/4+x,1/2-y,3/4+z
loop_
_atom_site_type_symbol
_atom_site_label
_atom_site_fract_x
_atom_site_fract_y
_atom_site_fract_z
Si Si1 0.537155 0.710999 0.462092
Si Si2 0.658305 0.814101 0.205260
Si Si3 0.149912 0.943973 0.371274
Si Si4 0.296749 0.794813 0.905681
Si Si5 0.125000 0.625000 0.254984
Si Si6 0.807897 0.185312 0.007209
O O1 0.471782 0.705551 0.449281
O O2 0.549304 0.766755 0.403652
O O3 0.550238 0.715973 0.558835
O O4 0.576953 0.655484 0.437350
O O5 0.625000 0.794531 0.125000
O O6 0.622397 0.788285 0.280935
O O7 0.661019 0.883176 0.212336
O O8 0.164252 0.875000 0.375000
O O9 0.101125 0.964414 0.431363
O O10 0.288275 0.730097 0.938792
O O11 0.350064 0.826253 0.943641
O O12 0.244520 0.834321 0.936136
#
# Coordination Sequence:
#
# PCOD8286205 Si02
#       6
#    32  32  32  32  16  32
#     4  12  23  40  62  95 135 167 211 264 330 393
#     4  11  25  42  64  86 126 178 225 271 317 368
#     4  10  23  41  62  90 126 170 220 266 317 386
#     4  11  21  35  60  97 137 159 194 253 339 403
#     4  12  23  32  60 106 141 170 181 254 346 414
#     4  10  21  37  60  92 126 162 208 258 322 397
#
# _framework density 19.557929000000001
#
# number of rings (size 3 to 8) (size 9 to 14) (size 15 to 20)
#    0.000    1.091    5.455    1.636    5.091    0.727 
#    0.000    0.000    0.000    0.545    0.000    0.000 
#    0.000    0.000    0.000    0.000    0.000    0.000 
#
# Total GULP energy -545081.943613 kJ/mol
# GULP energy per Si atom -12388.225991 kJ/mol
# Density = 1.951341 g / cm^3
# Si number density = 19.557929 Si / 1000 Ang^3
#
#
#
# Elastic Constant Matrix: (Units=GPa)
#
#
# Indices 1 2 3 4 5 6 
#
# 1 119.1178 35.3786 65.0769 0.0000 0.0000 0.0000
# 2 35.3786 70.3631 46.5280 0.0000 0.0000 0.0000
# 3 65.0769 46.5280 100.3484 0.0000 0.0000 0.0000
# 4 0.0000 0.0000 0.0000 22.7566 0.0000 0.0000
# 5 0.0000 0.0000 0.0000 0.0000 26.8892 0.0000
# 6 0.0000 0.0000 0.0000 0.0000 0.0000 24.2971
#
#
#
# Elastic Compliance Matrix: (Units=1/GPa)
#
#
# Indices 1 2 3 4 5 6 
#
# 1 0.013096 -0.001397 -0.007845 0.000000 0.000000 0.000000
# 2 -0.001397 0.020645 -0.008666 0.000000 0.000000 0.000000
# 3 -0.007845 -0.008666 0.019071 0.000000 0.000000 0.000000
# 4 0.000000 0.000000 0.000000 0.043943 0.000000 0.000000
# 5 0.000000 0.000000 0.000000 0.000000 0.037190 0.000000
# 6 0.000000 0.000000 0.000000 0.000000 0.000000 0.041157
#
#
# Mechanical properties :
#
#
# Convention : Reuss Voigt Hill
#
# Bulk Modulus (GPa) = 58.84019 64.86626 61.85323
# Shear Modulus (GPa) = 23.08567 24.31163 23.69865
#
# Velocity S-wave (km/s) = 3.43938 3.52953 3.48475
# Velocity P-wave (km/s) = 6.77664 7.06033 6.91994
#
# Compressibility (1/GPa) = 0.01699519
#
# Stress axis : x y z
#
# Youngs Moduli (GPa) = 76.35962 48.43755 52.43507
#
# Poissons Ratio (x) = 0.06767 0.41136
# Poissons Ratio (y) = 0.10668 0.45442
# Poissons Ratio (z) = 0.59905 0.41978
#
# Static dielectric constant tensor:
#      x y z
#    x 3.898120 0.000000 0.000000 
#    y 0.000000 3.490740 0.000000 
#    z 0.000000 0.000000 3.487970 
# 
# 
# High freq. dielectric constant tensor:
#      x y z
#    x 1.772830 0.000000 0.000000 
#    y 0.000000 1.746970 0.000000 
#    z 0.000000 0.000000 1.742850 
# 
# From -- ./inp_files/28745.got.cif
#   From: 2010.03.12/outbox.cif.g09.slc.cpg/sg70_15_cif.got.tgz:28745.got - 2010.04.16 13:46:32.
