data_PCOD8286030
_publ_section_title
;
Structure prediction by ZEFSAII (Michael W. Deem and Ramdas Pophale) SiO2 
 PCOD8286030
Probable space group: F D D D
;
_chemical_formula_sum "Si O2"
_cell_formula_units_Z 232
_cell_length_a 18.792741
_cell_length_b 24.567341
_cell_length_c 24.449437
_cell_angle_alpha 90.000000
_cell_angle_beta 90.000000
_cell_angle_gamma 90.000000
_cell_volume 11288.003760
_symmetry_space_group_name_H-M "F D D D"
_symmetry_group_IT_number 70
_space_group.IT_coordinate_system_code '2'
_symmetry_cell_setting 'orthorhombic'
loop_
_space_group_symop_operation_xyz
x,y,z
1/4-x,1/4-y,z
x,1/4-y,1/4-z
1/4-x,y,1/4-z
-x,-y,-z
3/4+x,3/4+y,-z
-x,3/4+y,3/4+z
3/4+x,-y,3/4+z
x,1/2+y,1/2+z
1/4-x,3/4-y,1/2+z
x,3/4-y,3/4-z
1/4-x,1/2+y,3/4-z
-x,1/2-y,1/2-z
3/4+x,1/4+y,1/2-z
-x,1/4+y,1/4+z
3/4+x,1/2-y,1/4+z
1/2+x,y,1/2+z
3/4-x,1/4-y,1/2+z
1/2+x,1/4-y,3/4-z
3/4-x,y,3/4-z
1/2-x,-y,1/2-z
1/4+x,3/4+y,1/2-z
1/2-x,3/4+y,1/4+z
1/4+x,-y,1/4+z
1/2+x,1/2+y,z
3/4-x,3/4-y,z
1/2+x,3/4-y,1/4-z
3/4-x,1/2+y,1/4-z
1/2-x,1/2-y,-z
1/4+x,1/4+y,-z
1/2-x,1/4+y,3/4+z
1/4+x,1/2-y,3/4+z
loop_
_atom_site_type_symbol
_atom_site_label
_atom_site_fract_x
_atom_site_fract_y
_atom_site_fract_z
Si Si1 0.566268 0.998386 0.661891
Si Si2 0.015062 0.708827 0.006336
Si Si3 0.101740 0.994381 0.332635
Si Si4 0.976230 0.833980 0.286223
Si Si5 0.845488 0.431479 0.258775
Si Si6 0.976808 0.677664 0.659802
Si Si7 0.625000 0.625000 0.625000
Si Si8 0.406485 0.251800 0.205537
O O1 0.625000 0.967580 0.625000
O O2 0.604809 0.049328 0.691244
O O3 0.501931 0.020027 0.625059
O O4 0.539727 0.955329 0.706185
O O5 0.080761 0.747654 0.987462
O O6 0.977855 0.737448 0.058604
O O7 0.031651 0.646794 0.019515
O O8 0.141691 0.935532 0.333538
O O9 0.152538 0.029807 0.293575
O O10 0.099135 0.021087 0.392715
O O11 0.924518 0.832883 0.339649
O O12 0.951469 0.797530 0.235873
O O13 0.055277 0.808515 0.297298
O O14 0.875000 0.375000 0.236754
O O15 0.764942 0.425446 0.281113
O O16 0.994577 0.625000 0.625000
#
# Coordination Sequence:
#
# PCOD8286030 Si02
#       8
#    32  32  32  32  32  32   8  32
#     4   9  19  35  60  89 127 171 215 269 331 398
#     4  11  22  44  64  95 137 170 225 280 335 403
#     4  11  25  38  64  95 130 169 214 277 337 396
#     4  11  25  42  72  96 128 173 220 273 336 398
#     4  10  20  37  58  92 125 170 219 263 332 409
#     4  11  20  35  63  92 125 170 221 276 325 401
#     4  12  20  44  76 104 124 172 230 276 330 408
#     4  11  24  45  65  98 130 171 221 274 334 408
#
# _framework density 20.552793000000001
#
# number of rings (size 3 to 8) (size 9 to 14) (size 15 to 20)
#    0.000    1.379    4.138    1.241    1.931    1.103 
#    0.000    1.379    0.000    0.000    0.000    0.000 
#    0.000    0.000    0.000    0.000    0.000    0.000 
#
# Total GULP energy -718685.465772 kJ/mol
# GULP energy per Si atom -12391.128720 kJ/mol
# Density = 2.050601 g / cm^3
# Si number density = 20.552793 Si / 1000 Ang^3
#
#
#
# Elastic Constant Matrix: (Units=GPa)
#
#
# Indices 1 2 3 4 5 6 
#
# 1 116.3703 34.3543 55.4983 0.0000 0.0000 0.0000
# 2 34.3543 69.0245 39.3153 0.0000 0.0000 0.0000
# 3 55.4983 39.3153 128.4508 0.0000 0.0000 0.0000
# 4 0.0000 0.0000 0.0000 19.4810 0.0000 0.0000
# 5 0.0000 0.0000 0.0000 0.0000 38.5387 0.0000
# 6 0.0000 0.0000 0.0000 0.0000 0.0000 29.6352
#
#
#
# Elastic Compliance Matrix: (Units=1/GPa)
#
#
# Indices 1 2 3 4 5 6 
#
# 1 0.011481 -0.003499 -0.003890 0.000000 0.000000 0.000000
# 2 -0.003499 0.018613 -0.004185 0.000000 0.000000 0.000000
# 3 -0.003890 -0.004185 0.010747 0.000000 0.000000 0.000000
# 4 0.000000 0.000000 0.000000 0.051332 0.000000 0.000000
# 5 0.000000 0.000000 0.000000 0.000000 0.025948 0.000000
# 6 0.000000 0.000000 0.000000 0.000000 0.000000 0.033744
#
#
# Mechanical properties :
#
#
# Convention : Reuss Voigt Hill
#
# Bulk Modulus (GPa) = 56.51857 63.57571 60.04714
# Shear Modulus (GPa) = 27.63814 29.84282 28.74048
#
# Velocity S-wave (km/s) = 3.67105 3.81466 3.74354
# Velocity P-wave (km/s) = 6.74742 7.09945 6.92567
#
# Compressibility (1/GPa) = 0.01769330
#
# Stress axis : x y z
#
# Youngs Moduli (GPa) = 87.09900 53.72636 93.05260
#
# Poissons Ratio (x) = 0.18798 0.36194
# Poissons Ratio (y) = 0.30474 0.38944
# Poissons Ratio (z) = 0.33878 0.22485
#
# Static dielectric constant tensor:
#      x y z
#    x 4.084780 0.000000 0.000000 
#    y 0.000000 3.416470 0.000000 
#    z 0.000000 0.000000 3.911100 
# 
# 
# High freq. dielectric constant tensor:
#      x y z
#    x 1.814720 0.000000 0.000000 
#    y 0.000000 1.769340 0.000000 
#    z 0.000000 0.000000 1.816530 
# 
# From -- ./inp_files/59826.got.cif
#   From: 2010.03.12/outbox.cif.g09.slc.cpg/sg70_30_cif.got.tgz:59826.got - 2010.04.16 13:46:32.
