data_PCOD8286622
_publ_section_title
;
Structure prediction by ZEFSAII (Michael W. Deem and Ramdas Pophale) SiO2 
 PCOD8286622
Probable space group: F D D D
;
_chemical_formula_sum "Si O2"
_cell_formula_units_Z 176
_cell_length_a 21.520171
_cell_length_b 31.125141
_cell_length_c 12.064651
_cell_angle_alpha 90.000000
_cell_angle_beta 90.000000
_cell_angle_gamma 90.000000
_cell_volume 8081.124707
_symmetry_space_group_name_H-M "F D D D"
_symmetry_group_IT_number 70
_space_group.IT_coordinate_system_code '2'
_symmetry_cell_setting 'orthorhombic'
loop_
_space_group_symop_operation_xyz
x,y,z
1/4-x,1/4-y,z
x,1/4-y,1/4-z
1/4-x,y,1/4-z
-x,-y,-z
3/4+x,3/4+y,-z
-x,3/4+y,3/4+z
3/4+x,-y,3/4+z
x,1/2+y,1/2+z
1/4-x,3/4-y,1/2+z
x,3/4-y,3/4-z
1/4-x,1/2+y,3/4-z
-x,1/2-y,1/2-z
3/4+x,1/4+y,1/2-z
-x,1/4+y,1/4+z
3/4+x,1/2-y,1/4+z
1/2+x,y,1/2+z
3/4-x,1/4-y,1/2+z
1/2+x,1/4-y,3/4-z
3/4-x,y,3/4-z
1/2-x,-y,1/2-z
1/4+x,3/4+y,1/2-z
1/2-x,3/4+y,1/4+z
1/4+x,-y,1/4+z
1/2+x,1/2+y,z
3/4-x,3/4-y,z
1/2+x,3/4-y,1/4-z
3/4-x,1/2+y,1/4-z
1/2-x,1/2-y,-z
1/4+x,1/4+y,-z
1/2-x,1/4+y,3/4+z
1/4+x,1/2-y,3/4+z
loop_
_atom_site_type_symbol
_atom_site_label
_atom_site_fract_x
_atom_site_fract_y
_atom_site_fract_z
Si Si1 0.404035 0.465892 0.756628
Si Si2 0.407556 0.539328 0.582501
Si Si3 0.726866 0.796199 0.869754
Si Si4 0.032697 0.555420 0.406138
Si Si5 0.023033 0.581606 0.174562
Si Si6 0.625000 0.013907 0.125000
O O1 0.375000 0.479797 0.875000
O O2 0.416495 0.508876 0.688263
O O3 0.469652 0.441482 0.779436
O O4 0.355604 0.436134 0.688161
O O5 0.340635 0.563355 0.582975
O O6 0.463413 0.573214 0.595476
O O7 0.411143 0.514094 0.466571
O O8 0.725639 0.744645 0.877458
O O9 0.741264 0.817736 0.987876
O O10 0.008761 0.585887 0.306114
O O11 0.052978 0.625000 0.125000
O O12 0.072255 0.543086 0.178309
#
# Coordination Sequence:
#
# PCOD8286622 Si02
#       6
#    32  32  32  32  32  16
#     4   9  15  29  58  95 119 142 212 277 309 360
#     4  11  21  36  62  92 122 165 221 271 318 392
#     4   9  16  30  59  93 121 147 210 274 322 364
#     4   9  17  31  55  93 125 157 201 265 326 384
#     4  12  25  40  59  94 134 174 215 272 345 393
#     4  12  23  44  62  84 124 182 234 262 306 400
#
# _framework density 21.779146000000001
#
# number of rings (size 3 to 8) (size 9 to 14) (size 15 to 20)
#    0.000    1.818    5.455    1.909    0.000    0.000 
#    0.000    1.818    0.000    0.000    0.000    7.636 
#    0.000    0.000    0.000    0.000    0.000    0.000 
#
# Total GULP energy -545313.473191 kJ/mol
# GULP energy per Si atom -12393.488027 kJ/mol
# Density = 2.172958 g / cm^3
# Si number density = 21.779146 Si / 1000 Ang^3
#
#
#
# Elastic Constant Matrix: (Units=GPa)
#
#
# Indices 1 2 3 4 5 6 
#
# 1 115.8551 13.3458 31.1419 0.0000 0.0000 0.0000
# 2 13.3458 33.3171 40.6621 0.0000 0.0000 0.0000
# 3 31.1419 40.6621 133.4211 0.0000 0.0000 0.0000
# 4 0.0000 0.0000 0.0000 22.2548 0.0000 0.0000
# 5 0.0000 0.0000 0.0000 0.0000 36.0424 0.0000
# 6 0.0000 0.0000 0.0000 0.0000 0.0000 3.9125
#
#
#
# Elastic Compliance Matrix: (Units=1/GPa)
#
#
# Indices 1 2 3 4 5 6 
#
# 1 0.009270 -0.001708 -0.001643 0.000000 0.000000 0.000000
# 2 -0.001708 0.048105 -0.014262 0.000000 0.000000 0.000000
# 3 -0.001643 -0.014262 0.012225 0.000000 0.000000 0.000000
# 4 0.000000 0.000000 0.000000 0.044934 0.000000 0.000000
# 5 0.000000 0.000000 0.000000 0.000000 0.027745 0.000000
# 6 0.000000 0.000000 0.000000 0.000000 0.000000 0.255589
#
#
# Mechanical properties :
#
#
# Convention : Reuss Voigt Hill
#
# Bulk Modulus (GPa) = 29.09182 50.32142 39.70662
# Shear Modulus (GPa) = 11.24726 25.60484 18.42605
#
# Velocity S-wave (km/s) = 2.27496 3.43251 2.91183
# Velocity P-wave (km/s) = 4.50414 6.23418 5.43839
#
# Compressibility (1/GPa) = 0.03437393
#
# Stress axis : x y z
#
# Youngs Moduli (GPa) = 107.87606 20.78787 81.79822
#
# Poissons Ratio (x) = 0.03550 0.13441
# Poissons Ratio (y) = 0.18422 1.16662
# Poissons Ratio (z) = 0.17727 0.29648
#
# Static dielectric constant tensor:
#      x y z
#    x 4.508320 0.000000 0.000000 
#    y 0.000000 3.124560 0.000000 
#    z 0.000000 0.000000 4.124800 
# 
# 
# High freq. dielectric constant tensor:
#      x y z
#    x 1.870500 0.000000 0.000000 
#    y 0.000000 1.776820 0.000000 
#    z 0.000000 0.000000 1.871590 
# 
# From -- ./inp_files/19627.got.cif
#   From: 2010.03.12/outbox.cif.g09.slc.cpg/sg70_10_cif.got.tgz:19627.got - 2010.04.16 13:46:32.
