data_PCOD8286815
_publ_section_title
;
Structure prediction by ZEFSAII (Michael W. Deem and Ramdas Pophale) SiO2 
 PCOD8286815
Probable space group: F D D D
;
_chemical_formula_sum "Si O2"
_cell_formula_units_Z 128
_cell_length_a 23.057637
_cell_length_b 17.707663
_cell_length_c 15.008526
_cell_angle_alpha 90.000000
_cell_angle_beta 90.000000
_cell_angle_gamma 90.000000
_cell_volume 6127.934123
_symmetry_space_group_name_H-M "F D D D"
_symmetry_group_IT_number 70
_space_group.IT_coordinate_system_code '2'
_symmetry_cell_setting 'orthorhombic'
loop_
_space_group_symop_operation_xyz
x,y,z
1/4-x,1/4-y,z
x,1/4-y,1/4-z
1/4-x,y,1/4-z
-x,-y,-z
3/4+x,3/4+y,-z
-x,3/4+y,3/4+z
3/4+x,-y,3/4+z
x,1/2+y,1/2+z
1/4-x,3/4-y,1/2+z
x,3/4-y,3/4-z
1/4-x,1/2+y,3/4-z
-x,1/2-y,1/2-z
3/4+x,1/4+y,1/2-z
-x,1/4+y,1/4+z
3/4+x,1/2-y,1/4+z
1/2+x,y,1/2+z
3/4-x,1/4-y,1/2+z
1/2+x,1/4-y,3/4-z
3/4-x,y,3/4-z
1/2-x,-y,1/2-z
1/4+x,3/4+y,1/2-z
1/2-x,3/4+y,1/4+z
1/4+x,-y,1/4+z
1/2+x,1/2+y,z
3/4-x,3/4-y,z
1/2+x,3/4-y,1/4-z
3/4-x,1/2+y,1/4-z
1/2-x,1/2-y,-z
1/4+x,1/4+y,-z
1/2-x,1/4+y,3/4+z
1/4+x,1/2-y,3/4+z
loop_
_atom_site_type_symbol
_atom_site_label
_atom_site_fract_x
_atom_site_fract_y
_atom_site_fract_z
Si Si1 0.915631 0.625000 0.125000
Si Si2 0.030860 0.738776 0.476320
Si Si3 0.125000 0.625000 0.514356
Si Si4 0.842397 0.087673 0.460499
Si Si5 0.451245 0.245829 0.823735
O O1 0.958320 0.563979 0.169536
O O2 0.876173 0.672329 0.195812
O O3 0.082978 0.679094 0.455915
O O4 0.023472 0.765030 0.578253
O O5 0.970614 0.698811 0.454177
O O6 0.165279 0.677070 0.576427
O O7 0.875000 0.052474 0.375000
O O8 0.841185 0.178112 0.451467
O O9 0.500000 0.250000 0.750000
#
# Coordination Sequence:
#
# PCOD8286815 Si02
#       5
#    16  32  16  32  32
#     4  12  26  48  71 105 148 192 236 300 372 432
#     4  12  26  42  71 106 143 189 238 298 365 435
#     4  12  23  40  70 110 139 172 235 308 372 414
#     4  12  25  46  70 100 146 190 238 299 360 435
#     4  12  22  42  70 107 140 175 239 308 361 415
#
# _framework density 20.887953
#
# number of rings (size 3 to 8) (size 9 to 14) (size 15 to 20)
#    0.000    0.000    7.500    3.750    0.000    1.000 
#    0.000    0.625    0.000    0.000    0.000    0.000 
#    0.000    0.000    0.000    0.000    0.000    0.000 
#
# Total GULP energy -396754.057029 kJ/mol
# GULP energy per Si atom -12398.564282 kJ/mol
# Density = 2.084041 g / cm^3
# Si number density = 20.887953 Si / 1000 Ang^3
#
#
#
# Elastic Constant Matrix: (Units=GPa)
#
#
# Indices 1 2 3 4 5 6 
#
# 1 118.8146 50.4354 73.8276 0.0000 0.0000 0.0000
# 2 50.4354 124.7976 47.7271 0.0000 0.0000 0.0000
# 3 73.8276 47.7271 150.1416 0.0000 0.0000 0.0000
# 4 0.0000 0.0000 0.0000 35.9326 0.0000 0.0000
# 5 0.0000 0.0000 0.0000 0.0000 42.0158 0.0000
# 6 0.0000 0.0000 0.0000 0.0000 0.0000 26.6840
#
#
#
# Elastic Compliance Matrix: (Units=1/GPa)
#
#
# Indices 1 2 3 4 5 6 
#
# 1 0.013179 -0.003242 -0.005450 0.000000 0.000000 0.000000
# 2 -0.003242 0.009919 -0.001559 0.000000 0.000000 0.000000
# 3 -0.005450 -0.001559 0.009836 0.000000 0.000000 0.000000
# 4 0.000000 0.000000 0.000000 0.027830 0.000000 0.000000
# 5 0.000000 0.000000 0.000000 0.000000 0.023801 0.000000
# 6 0.000000 0.000000 0.000000 0.000000 0.000000 0.037476
#
#
# Mechanical properties :
#
#
# Convention : Reuss Voigt Hill
#
# Bulk Modulus (GPa) = 80.43420 81.97046 81.20233
# Shear Modulus (GPa) = 34.08640 35.71071 34.89855
#
# Velocity S-wave (km/s) = 4.04402 4.13926 4.09192
# Velocity P-wave (km/s) = 7.77152 7.88497 7.82845
#
# Compressibility (1/GPa) = 0.01243252
#
# Stress axis : x y z
#
# Youngs Moduli (GPa) = 75.87842 100.81258 101.66975
#
# Poissons Ratio (x) = 0.32683 0.55408
# Poissons Ratio (y) = 0.24599 0.15851
# Poissons Ratio (z) = 0.41352 0.15717
#
# Static dielectric constant tensor:
#      x y z
#    x 3.678040 0.000000 0.000000 
#    y 0.000000 3.825140 0.000000 
#    z 0.000000 0.000000 3.860330 
# 
# 
# High freq. dielectric constant tensor:
#      x y z
#    x 1.827590 0.000000 0.000000 
#    y 0.000000 1.816250 0.000000 
#    z 0.000000 0.000000 1.819210 
# 
# From -- ./inp_files/26390.got.cif
#   From: 2010.03.12/outbox.cif.g09.slc.cpg/sg70_14_cif.got.tgz:26390.got - 2010.04.16 13:46:32.
