data_PCOD8286984
_publ_section_title
;
Structure prediction by ZEFSAII (Michael W. Deem and Ramdas Pophale) SiO2 
 PCOD8286984
Probable space group: I M M M
;
_chemical_formula_sum "Si O2"
_cell_formula_units_Z 120
_cell_length_a 20.444845
_cell_length_b 25.545745
_cell_length_c 14.155999
_cell_angle_alpha 90.000000
_cell_angle_beta 90.000000
_cell_angle_gamma 90.000000
_cell_volume 7393.378127
_symmetry_space_group_name_H-M "I M M M"
_symmetry_group_IT_number 71
_symmetry_cell_setting 'orthorhombic'
loop_
_space_group_symop_operation_xyz
x,y,z
-x,-y,z
x,-y,-z
-x,y,-z
-x,-y,-z
x,y,-z
-x,y,z
x,-y,z
1/2+x,1/2+y,1/2+z
1/2-x,1/2-y,1/2+z
1/2+x,1/2-y,1/2-z
1/2-x,1/2+y,1/2-z
1/2-x,1/2-y,1/2-z
1/2+x,1/2+y,1/2-z
1/2-x,1/2+y,1/2+z
1/2+x,1/2-y,1/2+z
loop_
_atom_site_type_symbol
_atom_site_label
_atom_site_fract_x
_atom_site_fract_y
_atom_site_fract_z
Si Si1 0.315964 0.249742 0.107371
Si Si2 0.926554 0.437816 0.000000
Si Si3 0.342201 0.059340 0.675337
Si Si4 0.829292 0.280497 0.103634
Si Si5 0.810204 0.652407 0.278300
Si Si6 0.423843 0.686942 0.392527
Si Si7 0.694481 0.441395 0.108932
Si Si8 0.836659 0.848876 0.735675
O O1 0.237549 0.247525 0.114838
O O2 0.340045 0.192350 0.144147
O O3 0.344099 0.295899 0.173190
O O4 0.340347 0.257845 0.000000
O O5 0.892103 0.418688 0.096432
O O6 0.924127 0.500000 0.000000
O O7 0.000000 0.415453 0.000000
O O8 0.343290 0.094528 0.772669
O O9 0.270954 0.063269 0.629173
O O10 0.359248 0.000000 0.705547
O O11 0.828485 0.328139 0.174043
O O12 0.890304 0.243012 0.123033
O O13 0.833692 0.305604 0.000000
O O14 0.732291 0.648855 0.290004
O O15 0.411780 0.666818 0.500000
O O16 0.500000 0.693084 0.370937
O O17 0.392351 0.647549 0.316231
O O18 0.669717 0.500000 0.133487
O O19 0.653721 0.399441 0.169576
O O20 0.681873 0.428187 0.000000
#
# Coordination Sequence:
#
# PCOD8286984 Si02
#       8
#    16   8  16  16  16  16  16  16
#     4  10  17  27  45  69  91 115 148 189 231 270
#     4   9  16  28  44  62  92 132 161 179 212 270
#     4   9  17  27  41  63  94 126 157 190 226 270
#     4   9  16  27  42  65  93 115 146 185 222 273
#     4  10  17  26  45  66  91 120 150 192 234 268
#     4  10  19  31  47  66  94 127 152 181 225 280
#     4   9  16  27  46  72  97 119 147 192 241 275
#     4  10  17  29  46  70  92 119 154 185 227 281
#
# _framework density 16.230740999999998
#
# number of rings (size 3 to 8) (size 9 to 14) (size 15 to 20)
#    0.000    2.467    3.333    1.200    0.933    1.600 
#    0.000    0.667    0.000    2.800    0.000    5.600 
#    0.000    0.000    0.000    3.333    0.000    3.333 
#
# Total GULP energy -743520.039139 kJ/mol
# GULP energy per Si atom -12392.000652 kJ/mol
# Density = 1.619380 g / cm^3
# Si number density = 16.230741 Si / 1000 Ang^3
#
#
#
# Elastic Constant Matrix: (Units=GPa)
#
#
# Indices 1 2 3 4 5 6 
#
# 1 62.2904 21.8804 37.5566 0.0000 0.0000 0.0000
# 2 21.8804 78.0231 33.8755 0.0000 0.0000 0.0000
# 3 37.5566 33.8755 72.1790 0.0000 0.0000 0.0000
# 4 0.0000 0.0000 0.0000 28.2823 0.0000 0.0000
# 5 0.0000 0.0000 0.0000 0.0000 22.0295 0.0000
# 6 0.0000 0.0000 0.0000 0.0000 0.0000 11.4982
#
#
#
# Elastic Compliance Matrix: (Units=1/GPa)
#
#
# Indices 1 2 3 4 5 6 
#
# 1 0.023553 -0.001613 -0.011498 0.000000 0.000000 0.000000
# 2 -0.001613 0.016207 -0.006767 0.000000 0.000000 0.000000
# 3 -0.011498 -0.006767 0.023013 0.000000 0.000000 0.000000
# 4 0.000000 0.000000 0.000000 0.035358 0.000000 0.000000
# 5 0.000000 0.000000 0.000000 0.000000 0.045394 0.000000
# 6 0.000000 0.000000 0.000000 0.000000 0.000000 0.086970
#
#
# Mechanical properties :
#
#
# Convention : Reuss Voigt Hill
#
# Bulk Modulus (GPa) = 43.44659 44.34639 43.89649
# Shear Modulus (GPa) = 17.99050 20.30732 19.14891
#
# Velocity S-wave (km/s) = 3.33291 3.54102 3.43854
# Velocity P-wave (km/s) = 6.45269 6.64080 6.54742
#
# Compressibility (1/GPa) = 0.02301677
#
# Stress axis : x y z
#
# Youngs Moduli (GPa) = 42.45744 61.70109 43.45304
#
# Poissons Ratio (x) = 0.09951 0.49964
# Poissons Ratio (y) = 0.06848 0.29406
# Poissons Ratio (z) = 0.48819 0.41755
#
# Static dielectric constant tensor:
#      x y z
#    x 2.812660 0.000000 0.000000 
#    y 0.000000 3.180090 0.000000 
#    z 0.000000 0.000000 3.107000 
# 
# 
# High freq. dielectric constant tensor:
#      x y z
#    x 1.580370 0.000000 0.000000 
#    y 0.000000 1.618670 0.000000 
#    z 0.000000 0.000000 1.613570 
# 
# From -- ./inp_files/38569.got.cif
#   From: 2010.06.25/outbox.cif.g09.slc.cpg/sg71_20_cif.got.tgz:38569.got - 2010.06.28 04:59:45.
