data_PCOD8286961
_publ_section_title
;
Structure prediction by ZEFSAII (Michael W. Deem and Ramdas Pophale) SiO2 
 PCOD8286961
Probable space group: I M M M
;
_chemical_formula_sum "Si O2"
_cell_formula_units_Z 88
_cell_length_a 24.813024
_cell_length_b 19.635471
_cell_length_c 12.564660
_cell_angle_alpha 90.000000
_cell_angle_beta 90.000000
_cell_angle_gamma 90.000000
_cell_volume 6121.696013
_symmetry_space_group_name_H-M "I M M M"
_symmetry_group_IT_number 71
_symmetry_cell_setting 'orthorhombic'
loop_
_space_group_symop_operation_xyz
x,y,z
-x,-y,z
x,-y,-z
-x,y,-z
-x,-y,-z
x,y,-z
-x,y,z
x,-y,z
1/2+x,1/2+y,1/2+z
1/2-x,1/2-y,1/2+z
1/2+x,1/2-y,1/2-z
1/2-x,1/2+y,1/2-z
1/2-x,1/2-y,1/2-z
1/2+x,1/2+y,1/2-z
1/2-x,1/2+y,1/2+z
1/2+x,1/2-y,1/2+z
loop_
_atom_site_type_symbol
_atom_site_label
_atom_site_fract_x
_atom_site_fract_y
_atom_site_fract_z
Si Si1 0.062245 0.666419 0.876542
Si Si2 0.059697 0.179893 0.873403
Si Si3 0.266054 0.919365 0.882171
Si Si4 0.147984 0.076313 0.127169
Si Si5 0.123274 0.580694 0.708388
Si Si6 0.060521 0.419146 0.500000
O O1 0.073913 0.743459 0.837747
O O2 0.100282 0.615405 0.813234
O O3 0.000000 0.647571 0.855976
O O4 0.076665 0.657964 0.000000
O O5 0.103246 0.127396 0.824938
O O6 0.000000 0.159680 0.831801
O O7 0.059978 0.176439 0.000000
O O8 0.207435 0.898353 0.835144
O O9 0.314323 0.896148 0.804580
O O10 0.267492 0.000000 0.894625
O O11 0.274853 0.887481 0.000000
O O12 0.135641 0.000000 0.169300
O O13 0.147086 0.076284 0.000000
O O14 0.117619 0.500000 0.722161
O O15 0.090772 0.607035 0.605222
O O16 0.060252 0.500000 0.500000
O O17 0.000000 0.389599 0.500000
#
# Coordination Sequence:
#
# PCOD8286961 Si02
#       6
#    16  16  16  16  16   8
#     4   9  18  30  40  51  73 107 139 162 189 226
#     4   8  14  25  38  52  75 105 131 156 188 227
#     4   8  13  23  37  55  79 102 122 150 194 239
#     4   8  13  21  37  59  79  99 124 154 188 231
#     4  10  17  26  40  56  75 100 132 167 197 228
#     4   9  16  24  36  56  76  92 118 162 208 236
#
# _framework density 14.3751
#
# number of rings (size 3 to 8) (size 9 to 14) (size 15 to 20)
#    0.000    3.364    0.909    2.727    0.000    1.818 
#    0.000    3.636    0.000    0.000    0.000    0.000 
#    0.000    0.000    0.000    0.091    0.727    8.727 
#
# Total GULP energy -545251.097987 kJ/mol
# GULP energy per Si atom -12392.070409 kJ/mol
# Density = 1.434238 g / cm^3
# Si number density = 14.375100 Si / 1000 Ang^3
#
#
#
# Elastic Constant Matrix: (Units=GPa)
#
#
# Indices 1 2 3 4 5 6 
#
# 1 133.9641 56.8389 39.4034 0.0000 0.0000 0.0000
# 2 56.8389 55.3675 26.2190 0.0000 0.0000 0.0000
# 3 39.4034 26.2190 40.5742 0.0000 0.0000 0.0000
# 4 0.0000 0.0000 0.0000 8.7734 0.0000 0.0000
# 5 0.0000 0.0000 0.0000 0.0000 14.4017 0.0000
# 6 0.0000 0.0000 0.0000 0.0000 0.0000 17.7475
#
#
#
# Elastic Compliance Matrix: (Units=1/GPa)
#
#
# Indices 1 2 3 4 5 6 
#
# 1 0.014270 -0.011653 -0.006328 0.000000 0.000000 0.000000
# 2 -0.011653 0.035540 -0.011650 0.000000 0.000000 0.000000
# 3 -0.006328 -0.011650 0.038320 0.000000 0.000000 0.000000
# 4 0.000000 0.000000 0.000000 0.113980 0.000000 0.000000
# 5 0.000000 0.000000 0.000000 0.000000 0.069436 0.000000
# 6 0.000000 0.000000 0.000000 0.000000 0.000000 0.056346
#
#
# Mechanical properties :
#
#
# Convention : Reuss Voigt Hill
#
# Bulk Modulus (GPa) = 34.63939 52.75872 43.69906
# Shear Modulus (GPa) = 12.60155 15.34749 13.97452
#
# Velocity S-wave (km/s) = 2.96399 3.27103 3.12129
# Velocity P-wave (km/s) = 5.98856 7.14474 6.59204
#
# Compressibility (1/GPa) = 0.02886886
#
# Stress axis : x y z
#
# Youngs Moduli (GPa) = 70.07664 28.13738 26.09605
#
# Poissons Ratio (x) = 0.32787 0.16515
# Poissons Ratio (y) = 0.81657 0.30401
# Poissons Ratio (z) = 0.44348 0.32779
#
# Static dielectric constant tensor:
#      x y z
#    x 3.258120 0.000000 0.000000 
#    y 0.000000 2.656830 0.000000 
#    z 0.000000 0.000000 2.394990 
# 
# 
# High freq. dielectric constant tensor:
#      x y z
#    x 1.564120 0.000000 0.000000 
#    y 0.000000 1.521030 0.000000 
#    z 0.000000 0.000000 1.496860 
# 
# From -- ./inp_files/39392.got.cif
#   From: 2010.06.25/outbox.cif.g09.slc.cpg/sg71_20_cif.got.tgz:39392.got - 2010.06.28 04:59:45.
