data_PCOD8286772
_publ_section_title
;
Structure prediction by ZEFSAII (Michael W. Deem and Ramdas Pophale) SiO2 
 PCOD8286772
Probable space group: F D D D
;
_chemical_formula_sum "Si O2"
_cell_formula_units_Z 136
_cell_length_a 26.631026
_cell_length_b 10.600621
_cell_length_c 21.842762
_cell_angle_alpha 90.000000
_cell_angle_beta 90.000000
_cell_angle_gamma 90.000000
_cell_volume 6166.329958
_symmetry_space_group_name_H-M "F D D D"
_symmetry_group_IT_number 70
_space_group.IT_coordinate_system_code '2'
_symmetry_cell_setting 'orthorhombic'
loop_
_space_group_symop_operation_xyz
x,y,z
1/4-x,1/4-y,z
x,1/4-y,1/4-z
1/4-x,y,1/4-z
-x,-y,-z
3/4+x,3/4+y,-z
-x,3/4+y,3/4+z
3/4+x,-y,3/4+z
x,1/2+y,1/2+z
1/4-x,3/4-y,1/2+z
x,3/4-y,3/4-z
1/4-x,1/2+y,3/4-z
-x,1/2-y,1/2-z
3/4+x,1/4+y,1/2-z
-x,1/4+y,1/4+z
3/4+x,1/2-y,1/4+z
1/2+x,y,1/2+z
3/4-x,1/4-y,1/2+z
1/2+x,1/4-y,3/4-z
3/4-x,y,3/4-z
1/2-x,-y,1/2-z
1/4+x,3/4+y,1/2-z
1/2-x,3/4+y,1/4+z
1/4+x,-y,1/4+z
1/2+x,1/2+y,z
3/4-x,3/4-y,z
1/2+x,3/4-y,1/4-z
3/4-x,1/2+y,1/4-z
1/2-x,1/2-y,-z
1/4+x,1/4+y,-z
1/2-x,1/4+y,3/4+z
1/4+x,1/2-y,3/4+z
loop_
_atom_site_type_symbol
_atom_site_label
_atom_site_fract_x
_atom_site_fract_y
_atom_site_fract_z
Si Si1 0.375000 0.375000 0.875000
Si Si2 0.184300 0.485785 0.122992
Si Si3 0.200486 0.778214 0.709879
Si Si4 0.866246 0.520604 0.573888
Si Si5 0.713646 0.384022 0.254457
O O1 0.339822 0.291278 0.832709
O O2 0.207955 0.625000 0.125000
O O3 0.125000 0.493197 0.125000
O O4 0.205315 0.419249 0.184160
O O5 0.200730 0.411654 0.063020
O O6 0.181820 0.770711 0.779562
O O7 0.256689 0.721467 0.706465
O O8 0.853970 0.625000 0.625000
O O9 0.875000 0.375000 0.597708
O O10 0.914038 0.572976 0.538326
O O11 0.750000 0.500000 0.250000
#
# Coordination Sequence:
#
# PCOD8286772 Si02
#       5
#     8  32  32  32  32
#     4  12  20  44  78 104 140 192 252 312 364 428
#     4  11  25  46  73 106 149 193 247 313 380 447
#     4  12  23  44  78 103 142 196 248 311 372 448
#     4  12  27  47  69 109 155 194 243 313 387 446
#     4  12  25  44  75 109 138 191 263 298 370 458
#
# _framework density 22.055259
#
# number of rings (size 3 to 8) (size 9 to 14) (size 15 to 20)
#    0.000    0.235    7.059    1.412    4.941    3.765 
#    0.000    0.000    0.000    0.000    0.000    0.000 
#    0.000    0.000    0.000    0.000    0.000    0.000 
#
# Total GULP energy -421597.974299 kJ/mol
# GULP energy per Si atom -12399.940421 kJ/mol
# Density = 2.200506 g / cm^3
# Si number density = 22.055259 Si / 1000 Ang^3
#
#
#
# Elastic Constant Matrix: (Units=GPa)
#
#
# Indices 1 2 3 4 5 6 
#
# 1 72.4818 25.1948 10.3755 0.0000 0.0000 0.0000
# 2 25.1948 180.8725 63.2798 0.0000 0.0000 0.0000
# 3 10.3755 63.2798 104.7204 0.0000 0.0000 0.0000
# 4 0.0000 0.0000 0.0000 -0.5463 0.0000 0.0000
# 5 0.0000 0.0000 0.0000 0.0000 24.2719 0.0000
# 6 0.0000 0.0000 0.0000 0.0000 0.0000 35.4858
#
#
#
# Elastic Compliance Matrix: (Units=1/GPa)
#
#
# Indices 1 2 3 4 5 6 
#
# 1 0.014505 -0.001925 -0.000274 0.000000 0.000000 0.000000
# 2 -0.001925 0.007266 -0.004200 0.000000 0.000000 0.000000
# 3 -0.000274 -0.004200 0.012114 0.000000 0.000000 0.000000
# 4 0.000000 0.000000 0.000000 -1.830431 0.000000 0.000000
# 5 0.000000 0.000000 0.000000 0.000000 0.041200 0.000000
# 6 0.000000 0.000000 0.000000 0.000000 0.000000 0.028180
#
#
# Mechanical properties :
#
#
# Convention : Reuss Voigt Hill
#
# Bulk Modulus (GPa) = 47.42070 61.75276 54.58673
# Shear Modulus (GPa) = -2.92854 29.12391 13.09769
#
# Velocity S-wave (km/s) = -1.15356 3.63781 2.43956
# Velocity P-wave (km/s) = 4.44671 6.76053 5.72180
#
# Compressibility (1/GPa) = 0.02108784
#
# Stress axis : x y z
#
# Youngs Moduli (GPa) = 68.94273 137.62168 82.54606
#
# Poissons Ratio (x) = 0.26486 0.02263
# Poissons Ratio (y) = 0.13268 0.34671
# Poissons Ratio (z) = 0.01890 0.57803
#
# Static dielectric constant tensor:
#      x y z
#    x 3.608510 0.000000 0.000000 
#    y 0.000000 4.735110 0.000000 
#    z 0.000000 0.000000 4.026040 
# 
# 
# High freq. dielectric constant tensor:
#      x y z
#    x 1.873130 0.000000 0.000000 
#    y 0.000000 1.885830 0.000000 
#    z 0.000000 0.000000 1.864370 
# 
# From -- ./inp_files/17840.got.cif
#   From: 2010.03.12/outbox.cif.g09.slc.cpg/sg70_9_cif.got.tgz:17840.got - 2010.04.16 13:46:32.
