data_PCOD8286072
_publ_section_title
;
Structure prediction by ZEFSAII (Michael W. Deem and Ramdas Pophale) SiO2 
 PCOD8286072
Probable space group: F D D D
;
_chemical_formula_sum "Si O2"
_cell_formula_units_Z 208
_cell_length_a 17.787174
_cell_length_b 28.883248
_cell_length_c 21.242417
_cell_angle_alpha 90.000000
_cell_angle_beta 90.000000
_cell_angle_gamma 90.000000
_cell_volume 10913.320578
_symmetry_space_group_name_H-M "F D D D"
_symmetry_group_IT_number 70
_space_group.IT_coordinate_system_code '2'
_symmetry_cell_setting 'orthorhombic'
loop_
_space_group_symop_operation_xyz
x,y,z
1/4-x,1/4-y,z
x,1/4-y,1/4-z
1/4-x,y,1/4-z
-x,-y,-z
3/4+x,3/4+y,-z
-x,3/4+y,3/4+z
3/4+x,-y,3/4+z
x,1/2+y,1/2+z
1/4-x,3/4-y,1/2+z
x,3/4-y,3/4-z
1/4-x,1/2+y,3/4-z
-x,1/2-y,1/2-z
3/4+x,1/4+y,1/2-z
-x,1/4+y,1/4+z
3/4+x,1/2-y,1/4+z
1/2+x,y,1/2+z
3/4-x,1/4-y,1/2+z
1/2+x,1/4-y,3/4-z
3/4-x,y,3/4-z
1/2-x,-y,1/2-z
1/4+x,3/4+y,1/2-z
1/2-x,3/4+y,1/4+z
1/4+x,-y,1/4+z
1/2+x,1/2+y,z
3/4-x,3/4-y,z
1/2+x,3/4-y,1/4-z
3/4-x,1/2+y,1/4-z
1/2-x,1/2-y,-z
1/4+x,1/4+y,-z
1/2-x,1/4+y,3/4+z
1/4+x,1/2-y,3/4+z
loop_
_atom_site_type_symbol
_atom_site_label
_atom_site_fract_x
_atom_site_fract_y
_atom_site_fract_z
Si Si1 0.352162 0.969217 0.079785
Si Si2 0.375000 0.238237 0.875000
Si Si3 0.464534 0.662934 0.446633
Si Si4 0.518938 0.936376 0.102137
Si Si5 0.519829 0.977993 0.434137
Si Si6 0.616297 0.887938 0.445035
Si Si7 0.594309 0.797578 0.521475
O O1 0.301103 0.926174 0.060211
O O2 0.436081 0.950042 0.080806
O O3 0.330589 0.990050 0.147923
O O4 0.333976 0.006664 0.027065
O O5 0.407787 0.203950 0.927794
O O6 0.440870 0.272573 0.852937
O O7 0.458662 0.617873 0.402009
O O8 0.442528 0.653186 0.519145
O O9 0.574494 0.960841 0.052833
O O10 0.531489 0.953362 0.173619
O O11 0.551273 0.926511 0.442703
O O12 0.500000 0.000000 0.500000
O O13 0.641927 0.875000 0.375000
O O14 0.582520 0.844699 0.482643
#
# Coordination Sequence:
#
# PCOD8286072 Si02
#       7
#    32  16  32  32  32  32  32
#     4  11  23  37  63  91 122 154 210 259 306 358
#     4  10  20  38  63  84 116 162 208 245 304 366
#     4  10  21  38  62  86 119 163 201 249 303 375
#     4  10  22  40  62  91 120 160 208 251 306 375
#     4  11  23  38  63  89 121 165 205 254 304 373
#     4  11  21  40  62  88 123 162 206 247 320 366
#     4  10  22  38  64  87 122 165 200 253 312 375
#
# _framework density 19.059277999999999
#
# number of rings (size 3 to 8) (size 9 to 14) (size 15 to 20)
#    0.000    1.538    3.077    2.769    4.308    0.000 
#    0.000    0.385    0.000    3.692    0.000    0.000 
#    0.000    0.000    0.000    0.000    0.000    0.000 
#
# Total GULP energy -644618.892131 kJ/mol
# GULP energy per Si atom -12396.517156 kJ/mol
# Density = 1.901590 g / cm^3
# Si number density = 19.059278 Si / 1000 Ang^3
#
#
#
# Elastic Constant Matrix: (Units=GPa)
#
#
# Indices 1 2 3 4 5 6 
#
# 1 95.5059 25.2551 35.0863 0.0000 0.0000 0.0000
# 2 25.2551 57.8726 39.2895 0.0000 0.0000 0.0000
# 3 35.0863 39.2895 134.4563 0.0000 0.0000 0.0000
# 4 0.0000 0.0000 0.0000 -18.3554 0.0000 0.0000
# 5 0.0000 0.0000 0.0000 0.0000 24.3717 0.0000
# 6 0.0000 0.0000 0.0000 0.0000 0.0000 27.4697
#
#
#
# Elastic Compliance Matrix: (Units=1/GPa)
#
#
# Indices 1 2 3 4 5 6 
#
# 1 0.012270 -0.003968 -0.002042 0.000000 0.000000 0.000000
# 2 -0.003968 0.022839 -0.005638 0.000000 0.000000 0.000000
# 3 -0.002042 -0.005638 0.009618 0.000000 0.000000 0.000000
# 4 0.000000 0.000000 0.000000 -0.054480 0.000000 0.000000
# 5 0.000000 0.000000 0.000000 0.000000 0.041031 0.000000
# 6 0.000000 0.000000 0.000000 0.000000 0.000000 0.036404
#
#
# Mechanical properties :
#
#
# Convention : Reuss Voigt Hill
#
# Bulk Modulus (GPa) = 46.66479 54.12185 50.39332
# Shear Modulus (GPa) = 50.95684 19.24413 35.10049
#
# Velocity S-wave (km/s) = 5.17629 3.18102 4.29610
# Velocity P-wave (km/s) = 7.76290 6.47689 7.14887
#
# Compressibility (1/GPa) = 0.02142943
#
# Stress axis : x y z
#
# Youngs Moduli (GPa) = 81.49858 43.78523 103.97301
#
# Poissons Ratio (x) = 0.17374 0.21235
# Poissons Ratio (y) = 0.32339 0.58623
# Poissons Ratio (z) = 0.16645 0.24687
#
# Static dielectric constant tensor:
#      x y z
#    x 3.564910 0.000000 0.000000 
#    y 0.000000 3.632750 0.000000 
#    z 0.000000 0.000000 3.725160 
# 
# 
# High freq. dielectric constant tensor:
#      x y z
#    x 1.738710 0.000000 0.000000 
#    y 0.000000 1.739480 0.000000 
#    z 0.000000 0.000000 1.752410 
# 
# From -- ./inp_files/38739.got.cif
#   From: 2010.03.12/outbox.cif.g09.slc.cpg/sg70_20_cif.got.tgz:38739.got - 2010.04.16 13:46:32.
