data_PCOD8286001
_publ_section_title
;
Structure prediction by ZEFSAII (Michael W. Deem and Ramdas Pophale) SiO2 
 PCOD8286001
Probable space group: F D D D
;
_chemical_formula_sum "Si O2"
_cell_formula_units_Z 160
_cell_length_a 29.502654
_cell_length_b 22.401626
_cell_length_c 12.479081
_cell_angle_alpha 90.000000
_cell_angle_beta 90.000000
_cell_angle_gamma 90.000000
_cell_volume 8247.517239
_symmetry_space_group_name_H-M "F D D D"
_symmetry_group_IT_number 70
_space_group.IT_coordinate_system_code '2'
_symmetry_cell_setting 'orthorhombic'
loop_
_space_group_symop_operation_xyz
x,y,z
1/4-x,1/4-y,z
x,1/4-y,1/4-z
1/4-x,y,1/4-z
-x,-y,-z
3/4+x,3/4+y,-z
-x,3/4+y,3/4+z
3/4+x,-y,3/4+z
x,1/2+y,1/2+z
1/4-x,3/4-y,1/2+z
x,3/4-y,3/4-z
1/4-x,1/2+y,3/4-z
-x,1/2-y,1/2-z
3/4+x,1/4+y,1/2-z
-x,1/4+y,1/4+z
3/4+x,1/2-y,1/4+z
1/2+x,y,1/2+z
3/4-x,1/4-y,1/2+z
1/2+x,1/4-y,3/4-z
3/4-x,y,3/4-z
1/2-x,-y,1/2-z
1/4+x,3/4+y,1/2-z
1/2-x,3/4+y,1/4+z
1/4+x,-y,1/4+z
1/2+x,1/2+y,z
3/4-x,3/4-y,z
1/2+x,3/4-y,1/4-z
3/4-x,1/2+y,1/4-z
1/2-x,1/2-y,-z
1/4+x,1/4+y,-z
1/2-x,1/4+y,3/4+z
1/4+x,1/2-y,3/4+z
loop_
_atom_site_type_symbol
_atom_site_label
_atom_site_fract_x
_atom_site_fract_y
_atom_site_fract_z
Si Si1 0.175467 0.300845 0.108469
Si Si2 0.743378 0.385993 0.497741
Si Si3 0.800038 0.875000 0.375000
Si Si4 0.498696 0.979713 0.753495
Si Si5 0.433983 0.799678 0.184084
Si Si6 0.375000 0.875000 0.704198
O O1 0.125000 0.324891 0.125000
O O2 0.199024 0.282612 0.221183
O O3 0.203658 0.355447 0.063340
O O4 0.172188 0.244431 0.029684
O O5 0.730795 0.375000 0.375000
O O6 0.744557 0.452957 0.545121
O O7 0.793036 0.358987 0.518341
O O8 0.769015 0.931358 0.409751
O O9 0.831936 0.855009 0.473838
O O10 0.469818 0.981113 0.644291
O O11 0.388734 0.818565 0.119470
#
# Coordination Sequence:
#
# PCOD8286001 Si02
#       6
#    32  32  16  32  32  16
#     4  11  23  38  56  93 123 152 207 263 305 367
#     4  11  19  38  62  86 116 165 195 242 326 368
#     4   9  20  42  62  84 126 166 200 244 300 381
#     4  10  20  41  62  81 121 163 202 243 308 378
#     4  10  20  35  61  86 116 152 204 251 300 361
#     4   9  20  36  59  94 112 150 211 252 294 351
#
# _framework density 19.399778000000001
#
# number of rings (size 3 to 8) (size 9 to 14) (size 15 to 20)
#    0.000    1.800    4.000    1.200    2.800    0.000 
#    9.000    9.000    0.000    0.000    0.000    0.000 
#    0.000    0.000    0.000    0.000    0.000    0.000 
#
# Total GULP energy -495887.536857 kJ/mol
# GULP energy per Si atom -12397.188421 kJ/mol
# Density = 1.935562 g / cm^3
# Si number density = 19.399778 Si / 1000 Ang^3
#
#
#
# Elastic Constant Matrix: (Units=GPa)
#
#
# Indices 1 2 3 4 5 6 
#
# 1 116.4306 48.6475 38.9367 0.0000 0.0000 0.0000
# 2 48.6475 144.1896 49.2449 -0.0001 0.0001 0.0000
# 3 38.9367 49.2449 71.5211 -0.0002 0.0002 0.0001
# 4 0.0000 -0.0001 -0.0002 28.7526 0.0001 0.0000
# 5 0.0000 0.0001 0.0002 0.0001 19.0732 0.0000
# 6 0.0000 0.0000 0.0001 0.0000 0.0000 16.1961
#
#
#
# Elastic Compliance Matrix: (Units=1/GPa)
#
#
# Indices 1 2 3 4 5 6 
#
# 1 0.011000 -0.002178 -0.004489 0.000000 0.000000 0.000000
# 2 -0.002178 0.009499 -0.005355 0.000000 0.000000 0.000000
# 3 -0.004489 -0.005355 0.020112 0.000000 0.000000 0.000000
# 4 0.000000 0.000000 0.000000 0.034779 0.000000 0.000000
# 5 0.000000 0.000000 0.000000 0.000000 0.052429 0.000000
# 6 0.000000 0.000000 0.000000 0.000000 0.000000 0.061743
#
#
# Mechanical properties :
#
#
# Convention : Reuss Voigt Hill
#
# Bulk Modulus (GPa) = 60.35583 67.31104 63.83344
# Shear Modulus (GPa) = 22.81760 25.82522 24.32141
#
# Velocity S-wave (km/s) = 3.43327 3.65254 3.54460
# Velocity P-wave (km/s) = 6.84803 7.24984 7.05180
#
# Compressibility (1/GPa) = 0.01656841
#
# Stress axis : x y z
#
# Youngs Moduli (GPa) = 90.90881 105.27498 49.72068
#
# Poissons Ratio (x) = 0.22931 0.22318
# Poissons Ratio (y) = 0.19802 0.26623
# Poissons Ratio (z) = 0.40806 0.56370
#
# Static dielectric constant tensor:
#      x y z
#    x 3.604760 0.000000 0.000000 
#    y 0.000000 3.456840 0.000000 
#    z 0.000000 0.000000 3.600540 
# 
# 
# High freq. dielectric constant tensor:
#      x y z
#    x 1.753700 0.000000 0.000000 
#    y 0.000000 1.750370 0.000000 
#    z 0.000000 0.000000 1.749790 
# 
# From -- ./inp_files/22204.got.cif
#   From: 2010.03.12/outbox.cif.g09.slc.cpg/sg70_12_cif.got.tgz:22204.got - 2010.04.16 13:46:32.
