data_PCOD8286620
_publ_section_title
;
Structure prediction by ZEFSAII (Michael W. Deem and Ramdas Pophale) SiO2 
 PCOD8286620
Probable space group: F D D D
;
_chemical_formula_sum "Si O2"
_cell_formula_units_Z 128
_cell_length_a 16.870046
_cell_length_b 19.084011
_cell_length_c 19.272976
_cell_angle_alpha 90.000000
_cell_angle_beta 90.000000
_cell_angle_gamma 90.000000
_cell_volume 6204.898842
_symmetry_space_group_name_H-M "F D D D"
_symmetry_group_IT_number 70
_space_group.IT_coordinate_system_code '2'
_symmetry_cell_setting 'orthorhombic'
loop_
_space_group_symop_operation_xyz
x,y,z
1/4-x,1/4-y,z
x,1/4-y,1/4-z
1/4-x,y,1/4-z
-x,-y,-z
3/4+x,3/4+y,-z
-x,3/4+y,3/4+z
3/4+x,-y,3/4+z
x,1/2+y,1/2+z
1/4-x,3/4-y,1/2+z
x,3/4-y,3/4-z
1/4-x,1/2+y,3/4-z
-x,1/2-y,1/2-z
3/4+x,1/4+y,1/2-z
-x,1/4+y,1/4+z
3/4+x,1/2-y,1/4+z
1/2+x,y,1/2+z
3/4-x,1/4-y,1/2+z
1/2+x,1/4-y,3/4-z
3/4-x,y,3/4-z
1/2-x,-y,1/2-z
1/4+x,3/4+y,1/2-z
1/2-x,3/4+y,1/4+z
1/4+x,-y,1/4+z
1/2+x,1/2+y,z
3/4-x,3/4-y,z
1/2+x,3/4-y,1/4-z
3/4-x,1/2+y,1/4-z
1/2-x,1/2-y,-z
1/4+x,1/4+y,-z
1/2-x,1/4+y,3/4+z
1/4+x,1/2-y,3/4+z
loop_
_atom_site_type_symbol
_atom_site_label
_atom_site_fract_x
_atom_site_fract_y
_atom_site_fract_z
Si Si1 0.875000 0.987540 0.375000
Si Si2 0.871698 0.164188 0.001972
Si Si3 0.218756 0.192751 0.173771
Si Si4 0.575226 0.985293 0.544917
Si Si5 0.246335 0.375000 0.375000
O O1 0.845103 0.033767 0.309532
O O2 0.948810 0.939632 0.350489
O O3 0.805611 0.152894 0.060692
O O4 0.949786 0.197760 0.036030
O O5 0.891594 0.090804 0.968476
O O6 0.213958 0.125000 0.125000
O O7 0.206669 0.260642 0.124038
O O8 0.141332 0.203725 0.223206
O O9 0.500000 0.000000 0.500000
#
# Coordination Sequence:
#
# PCOD8286620 Si02
#       5
#    16  32  32  32  16
#     4  11  26  42  70  96 129 170 224 284 333 422
#     4  12  23  43  66  95 129 176 218 273 342 401
#     4  11  22  38  60  89 131 166 215 269 325 384
#     4  11  21  35  60  94 126 170 212 265 318 390
#     4  11  24  48  66  95 130 174 218 277 350 404
#
# _framework density 20.628861000000001
#
# number of rings (size 3 to 8) (size 9 to 14) (size 15 to 20)
#    0.000    0.750    3.750    5.250    0.000    0.000 
#    0.000    0.000    0.000    0.000    0.000    0.000 
#    0.000    0.000    0.000    0.000    0.000    0.000 
#
# Total GULP energy -396506.609913 kJ/mol
# GULP energy per Si atom -12390.831560 kJ/mol
# Density = 2.058191 g / cm^3
# Si number density = 20.628861 Si / 1000 Ang^3
#
#
#
# Elastic Constant Matrix: (Units=GPa)
#
#
# Indices 1 2 3 4 5 6 
#
# 1 140.6774 39.7766 57.9766 0.0000 0.0000 0.0000
# 2 39.7766 98.9738 47.0213 0.0000 0.0000 0.0000
# 3 57.9766 47.0213 105.1554 0.0000 0.0000 0.0000
# 4 0.0000 0.0000 0.0000 44.9929 0.0000 0.0000
# 5 0.0000 0.0000 0.0000 0.0000 44.7248 0.0000
# 6 0.0000 0.0000 0.0000 0.0000 0.0000 39.2995
#
#
#
# Elastic Compliance Matrix: (Units=1/GPa)
#
#
# Indices 1 2 3 4 5 6 
#
# 1 0.009412 -0.001673 -0.004441 0.000000 0.000000 0.000000
# 2 -0.001673 0.013126 -0.004947 0.000000 0.000000 0.000000
# 3 -0.004441 -0.004947 0.014171 0.000000 0.000000 0.000000
# 4 0.000000 0.000000 0.000000 0.022226 0.000000 0.000000
# 5 0.000000 0.000000 0.000000 0.000000 0.022359 0.000000
# 6 0.000000 0.000000 0.000000 0.000000 0.000000 0.025446
#
#
# Mechanical properties :
#
#
# Convention : Reuss Voigt Hill
#
# Bulk Modulus (GPa) = 68.55707 70.48395 69.52051
# Shear Modulus (GPa) = 37.39061 39.13890 38.26476
#
# Velocity S-wave (km/s) = 4.26201 4.36051 4.31154
# Velocity P-wave (km/s) = 7.58455 7.71971 7.65243
#
# Compressibility (1/GPa) = 0.01458639
#
# Stress axis : x y z
#
# Youngs Moduli (GPa) = 106.25096 76.18274 70.56839
#
# Poissons Ratio (x) = 0.12742 0.31341
# Poissons Ratio (y) = 0.17771 0.34913
# Poissons Ratio (z) = 0.47188 0.37691
#
# Static dielectric constant tensor:
#      x y z
#    x 4.122010 0.000000 0.000000 
#    y 0.000000 3.408200 0.000000 
#    z 0.000000 0.000000 3.940730 
# 
# 
# High freq. dielectric constant tensor:
#      x y z
#    x 1.821210 0.000000 0.000000 
#    y 0.000000 1.811240 0.000000 
#    z 0.000000 0.000000 1.800830 
# 
# From -- ./inp_files/43553.got.cif
#   From: 2010.03.12/outbox.cif.g09.slc.cpg/sg70_22_cif.got.tgz:43553.got - 2010.04.16 13:46:32.
