data_PCOD8286282
_publ_section_title
;
Structure prediction by ZEFSAII (Michael W. Deem and Ramdas Pophale) SiO2 
 PCOD8286282
Probable space group: F D D D
;
_chemical_formula_sum "Si O2"
_cell_formula_units_Z 160
_cell_length_a 17.957647
_cell_length_b 20.131010
_cell_length_c 21.061254
_cell_angle_alpha 90.000000
_cell_angle_beta 90.000000
_cell_angle_gamma 90.000000
_cell_volume 7613.760660
_symmetry_space_group_name_H-M "F D D D"
_symmetry_group_IT_number 70
_space_group.IT_coordinate_system_code '2'
_symmetry_cell_setting 'orthorhombic'
loop_
_space_group_symop_operation_xyz
x,y,z
1/4-x,1/4-y,z
x,1/4-y,1/4-z
1/4-x,y,1/4-z
-x,-y,-z
3/4+x,3/4+y,-z
-x,3/4+y,3/4+z
3/4+x,-y,3/4+z
x,1/2+y,1/2+z
1/4-x,3/4-y,1/2+z
x,3/4-y,3/4-z
1/4-x,1/2+y,3/4-z
-x,1/2-y,1/2-z
3/4+x,1/4+y,1/2-z
-x,1/4+y,1/4+z
3/4+x,1/2-y,1/4+z
1/2+x,y,1/2+z
3/4-x,1/4-y,1/2+z
1/2+x,1/4-y,3/4-z
3/4-x,y,3/4-z
1/2-x,-y,1/2-z
1/4+x,3/4+y,1/2-z
1/2-x,3/4+y,1/4+z
1/4+x,-y,1/4+z
1/2+x,1/2+y,z
3/4-x,3/4-y,z
1/2+x,3/4-y,1/4-z
3/4-x,1/2+y,1/4-z
1/2-x,1/2-y,-z
1/4+x,1/4+y,-z
1/2-x,1/4+y,3/4+z
1/4+x,1/2-y,3/4+z
loop_
_atom_site_type_symbol
_atom_site_label
_atom_site_fract_x
_atom_site_fract_y
_atom_site_fract_z
Si Si1 0.687738 0.445361 0.939918
Si Si2 0.448245 0.044245 0.044253
Si Si3 0.530796 0.982212 0.291124
Si Si4 0.295326 0.533954 0.844672
Si Si5 0.478357 0.665467 0.215290
O O1 0.709961 0.372775 0.967684
O O2 0.714337 0.463511 0.869047
O O3 0.598272 0.449240 0.940272
O O4 0.728380 0.499596 0.982468
O O5 0.367170 0.017878 0.023392
O O6 0.500000 0.000000 0.000000
O O7 0.509216 0.907511 0.313503
O O8 0.515239 0.032589 0.349070
O O9 0.375000 0.548380 0.875000
O O10 0.295493 0.463216 0.806992
O O11 0.275133 0.590066 0.792584
#
# Coordination Sequence:
#
# PCOD8286282 Si02
#       5
#    32  32  32  32  32
#     4  10  21  42  63  87 123 159 204 255 305 365
#     4  10  23  42  63  86 119 165 210 253 304 354
#     4  11  22  39  63  88 122 164 198 252 312 362
#     4  11  21  38  62  91 125 157 200 248 307 376
#     4  10  22  39  59  92 126 159 198 247 313 377
#
# _framework density 21.014582000000001
#
# number of rings (size 3 to 8) (size 9 to 14) (size 15 to 20)
#    0.000    1.600    4.000    0.600    0.000    4.800 
#    0.000    2.000    0.000    0.000    0.000    0.000 
#    0.000    0.000    0.000    0.000    0.000    0.000 
#
# Total GULP energy -495794.336625 kJ/mol
# GULP energy per Si atom -12394.858416 kJ/mol
# Density = 2.096675 g / cm^3
# Si number density = 21.014582 Si / 1000 Ang^3
#
#
#
# Elastic Constant Matrix: (Units=GPa)
#
#
# Indices 1 2 3 4 5 6 
#
# 1 43.4307 21.3268 11.3191 0.0000 0.0000 0.0000
# 2 21.3268 36.3470 6.2537 0.0000 0.0000 0.0000
# 3 11.3191 6.2537 84.5819 0.0000 0.0000 0.0000
# 4 0.0000 0.0000 0.0000 35.3413 0.0000 0.0000
# 5 0.0000 0.0000 0.0000 0.0000 37.9484 0.0000
# 6 0.0000 0.0000 0.0000 0.0000 0.0000 29.4891
#
#
#
# Elastic Compliance Matrix: (Units=1/GPa)
#
#
# Indices 1 2 3 4 5 6 
#
# 1 0.033095 -0.018897 -0.003032 0.000000 0.000000 0.000000
# 2 -0.018897 0.038657 -0.000329 0.000000 0.000000 0.000000
# 3 -0.003032 -0.000329 0.012253 0.000000 0.000000 0.000000
# 4 0.000000 0.000000 0.000000 0.028296 0.000000 0.000000
# 5 0.000000 0.000000 0.000000 0.000000 0.026352 0.000000
# 6 0.000000 0.000000 0.000000 0.000000 0.000000 0.033911
#
#
# Mechanical properties :
#
#
# Convention : Reuss Voigt Hill
#
# Bulk Modulus (GPa) = 25.32357 26.90655 26.11506
# Shear Modulus (GPa) = 21.71632 28.91975 25.31804
#
# Velocity S-wave (km/s) = 3.21813 3.71371 3.47477
# Velocity P-wave (km/s) = 5.08774 5.58752 5.34348
#
# Compressibility (1/GPa) = 0.03948891
#
# Stress axis : x y z
#
# Youngs Moduli (GPa) = 30.21627 25.86847 81.61316
#
# Poissons Ratio (x) = 0.48883 0.24743
# Poissons Ratio (y) = 0.57099 0.02688
# Poissons Ratio (z) = 0.09161 0.00852
#
# Static dielectric constant tensor:
#      x y z
#    x 3.600860 0.000000 0.000000 
#    y 0.000000 3.617100 0.000000 
#    z 0.000000 0.000000 4.059010 
# 
# 
# High freq. dielectric constant tensor:
#      x y z
#    x 1.807810 0.000000 0.000000 
#    y 0.000000 1.802180 0.000000 
#    z 0.000000 0.000000 1.845150 
# 
# From -- ./inp_files/36280.got.cif
#   From: 2010.03.12/outbox.cif.g09.slc.cpg/sg70_19_cif.got.tgz:36280.got - 2010.04.16 13:46:32.
