data_PCOD8286743
_publ_section_title
;
Structure prediction by ZEFSAII (Michael W. Deem and Ramdas Pophale) SiO2 
 PCOD8286743
Probable space group: F D D D
;
_chemical_formula_sum "Si O2"
_cell_formula_units_Z 136
_cell_length_a 23.383145
_cell_length_b 11.309698
_cell_length_c 20.362013
_cell_angle_alpha 90.000000
_cell_angle_beta 90.000000
_cell_angle_gamma 90.000000
_cell_volume 5384.862786
_symmetry_space_group_name_H-M "F D D D"
_symmetry_group_IT_number 70
_space_group.IT_coordinate_system_code '2'
_symmetry_cell_setting 'orthorhombic'
loop_
_space_group_symop_operation_xyz
x,y,z
1/4-x,1/4-y,z
x,1/4-y,1/4-z
1/4-x,y,1/4-z
-x,-y,-z
3/4+x,3/4+y,-z
-x,3/4+y,3/4+z
3/4+x,-y,3/4+z
x,1/2+y,1/2+z
1/4-x,3/4-y,1/2+z
x,3/4-y,3/4-z
1/4-x,1/2+y,3/4-z
-x,1/2-y,1/2-z
3/4+x,1/4+y,1/2-z
-x,1/4+y,1/4+z
3/4+x,1/2-y,1/4+z
1/2+x,y,1/2+z
3/4-x,1/4-y,1/2+z
1/2+x,1/4-y,3/4-z
3/4-x,y,3/4-z
1/2-x,-y,1/2-z
1/4+x,3/4+y,1/2-z
1/2-x,3/4+y,1/4+z
1/4+x,-y,1/4+z
1/2+x,1/2+y,z
3/4-x,3/4-y,z
1/2+x,3/4-y,1/4-z
3/4-x,1/2+y,1/4-z
1/2-x,1/2-y,-z
1/4+x,1/4+y,-z
1/2-x,1/4+y,3/4+z
1/4+x,1/2-y,3/4+z
loop_
_atom_site_type_symbol
_atom_site_label
_atom_site_fract_x
_atom_site_fract_y
_atom_site_fract_z
Si Si1 0.186296 0.259599 0.605101
Si Si2 0.592119 0.924627 0.967750
Si Si3 0.625000 0.125000 0.625000
Si Si4 0.183023 0.000685 0.245436
Si Si5 0.944541 0.945832 0.655057
O O1 0.125000 0.316189 0.625000
O O2 0.189930 0.261102 0.526811
O O3 0.239132 0.333612 0.636027
O O4 0.191190 0.125000 0.625000
O O5 0.553332 0.810807 0.951611
O O6 0.594153 0.019199 0.908429
O O7 0.655795 0.877743 0.987542
O O8 0.663682 0.044664 0.673207
O O9 0.165195 0.088820 0.305061
O O10 0.250000 0.000000 0.250000
#
# Coordination Sequence:
#
# PCOD8286743 Si02
#       5
#    32  32   8  32  32
#     4  11  24  44  71 113 148 198 246 312 392 456
#     4  11  24  48  73 109 162 186 255 329 375 465
#     4  12  28  52  72 112 166 192 274 332 378 500
#     4  12  28  51  80 112 152 215 262 322 405 474
#     4  11  24  46  77 111 149 199 254 314 390 465
#
# _framework density 25.255981999999999
#
# number of rings (size 3 to 8) (size 9 to 14) (size 15 to 20)
#    0.000    0.706    4.706    2.118    4.941    1.882 
#   16.941    2.353    0.000    0.000    0.000    0.000 
#    0.000    0.000    0.000    0.000    0.000    0.000 
#
# Total GULP energy -421410.026387 kJ/mol
# GULP energy per Si atom -12394.412541 kJ/mol
# Density = 2.519850 g / cm^3
# Si number density = 25.255982 Si / 1000 Ang^3
#
#
#
# Elastic Constant Matrix: (Units=GPa)
#
#
# Indices 1 2 3 4 5 6 
#
# 1 178.5758 8.3485 35.6556 0.0000 0.0000 0.0000
# 2 8.3485 69.7751 44.0366 0.0000 0.0000 0.0000
# 3 35.6556 44.0366 171.2833 0.0000 0.0000 0.0000
# 4 0.0000 0.0000 0.0000 28.3741 0.0000 0.0000
# 5 0.0000 0.0000 0.0000 0.0000 44.5996 0.0000
# 6 0.0000 0.0000 0.0000 0.0000 0.0000 13.6952
#
#
#
# Elastic Compliance Matrix: (Units=1/GPa)
#
#
# Indices 1 2 3 4 5 6 
#
# 1 0.005843 0.000082 -0.001237 0.000000 0.000000 0.000000
# 2 0.000082 0.017109 -0.004416 0.000000 0.000000 0.000000
# 3 -0.001237 -0.004416 0.007231 0.000000 0.000000 0.000000
# 4 0.000000 0.000000 0.000000 0.035243 0.000000 0.000000
# 5 0.000000 0.000000 0.000000 0.000000 0.022422 0.000000
# 6 0.000000 0.000000 0.000000 0.000000 0.000000 0.073018
#
#
# Mechanical properties :
#
#
# Convention : Reuss Voigt Hill
#
# Bulk Modulus (GPa) = 52.51946 66.19062 59.35504
# Shear Modulus (GPa) = 28.03390 39.44004 33.73697
#
# Velocity S-wave (km/s) = 3.33527 3.95601 3.65883
# Velocity P-wave (km/s) = 5.97260 6.86524 6.43442
#
# Compressibility (1/GPa) = 0.01904056
#
# Stress axis : x y z
#
# Youngs Moduli (GPa) = 171.14204 58.44947 138.29114
#
# Poissons Ratio (x) = -0.00478 0.17112
# Poissons Ratio (y) = -0.01400 0.61065
# Poissons Ratio (z) = 0.21177 0.25809
#
# Static dielectric constant tensor:
#      x y z
#    x 5.031070 0.000000 0.000000 
#    y 0.000000 4.841680 0.000000 
#    z 0.000000 0.000000 5.043980 
# 
# 
# High freq. dielectric constant tensor:
#      x y z
#    x 2.025080 0.000000 0.000000 
#    y 0.000000 1.991340 0.000000 
#    z 0.000000 0.000000 2.026490 
# 
# From -- ./inp_files/46645.got.cif
#   From: 2010.03.12/outbox.cif.g09.slc.cpg/sg70_24_cif.got.tgz:46645.got - 2010.04.16 13:46:32.
