data_PCOD8286331
_publ_section_title
;
Structure prediction by ZEFSAII (Michael W. Deem and Ramdas Pophale) SiO2 
 PCOD8286331
Probable space group: F D D D
;
_chemical_formula_sum "Si O2"
_cell_formula_units_Z 216
_cell_length_a 14.087663
_cell_length_b 25.842548
_cell_length_c 28.415460
_cell_angle_alpha 90.000000
_cell_angle_beta 90.000000
_cell_angle_gamma 90.000000
_cell_volume 10344.963832
_symmetry_space_group_name_H-M "F D D D"
_symmetry_group_IT_number 70
_space_group.IT_coordinate_system_code '2'
_symmetry_cell_setting 'orthorhombic'
loop_
_space_group_symop_operation_xyz
x,y,z
1/4-x,1/4-y,z
x,1/4-y,1/4-z
1/4-x,y,1/4-z
-x,-y,-z
3/4+x,3/4+y,-z
-x,3/4+y,3/4+z
3/4+x,-y,3/4+z
x,1/2+y,1/2+z
1/4-x,3/4-y,1/2+z
x,3/4-y,3/4-z
1/4-x,1/2+y,3/4-z
-x,1/2-y,1/2-z
3/4+x,1/4+y,1/2-z
-x,1/4+y,1/4+z
3/4+x,1/2-y,1/4+z
1/2+x,y,1/2+z
3/4-x,1/4-y,1/2+z
1/2+x,1/4-y,3/4-z
3/4-x,y,3/4-z
1/2-x,-y,1/2-z
1/4+x,3/4+y,1/2-z
1/2-x,3/4+y,1/4+z
1/4+x,-y,1/4+z
1/2+x,1/2+y,z
3/4-x,3/4-y,z
1/2+x,3/4-y,1/4-z
3/4-x,1/2+y,1/4-z
1/2-x,1/2-y,-z
1/4+x,1/4+y,-z
1/2-x,1/4+y,3/4+z
1/4+x,1/2-y,3/4+z
loop_
_atom_site_type_symbol
_atom_site_label
_atom_site_fract_x
_atom_site_fract_y
_atom_site_fract_z
Si Si1 0.438650 0.089864 0.169242
Si Si2 0.961683 0.306802 0.198846
Si Si3 0.349942 0.645544 0.825638
Si Si4 0.272009 0.798000 0.033436
Si Si5 0.875000 0.375000 0.375000
Si Si6 0.292320 0.473445 0.110086
Si Si7 0.875000 0.375000 0.974197
Si Si8 0.259674 0.307746 0.947458
O O1 0.409657 0.125000 0.125000
O O2 0.530415 0.115292 0.193592
O O3 0.346250 0.083009 0.202947
O O4 0.463864 0.032919 0.152357
O O5 0.870754 0.312666 0.165578
O O6 0.931654 0.307317 0.253790
O O7 0.031397 0.355236 0.198748
O O8 0.007172 0.252479 0.182566
O O9 0.375000 0.617322 0.875000
O O10 0.435503 0.660941 0.790364
O O11 0.305373 0.700167 0.841480
O O12 0.307969 0.779538 0.084117
O O13 0.250000 0.750000 0.000000
O O14 0.358906 0.826129 0.007765
O O15 0.937613 0.338281 0.342939
#
# Coordination Sequence:
#
# PCOD8286331 Si02
#       8
#    32  32  32  32   8  32  16  32
#     4  11  22  44  65  94 126 177 221 272 336 414
#     4  10  22  43  65  94 127 175 216 276 334 415
#     4  10  22  38  64  90 129 169 219 271 336 402
#     4  11  24  42  61  99 133 173 228 288 342 415
#     4  12  24  44  70 102 132 174 216 296 354 414
#     4  10  23  40  66  91 130 172 223 273 345 411
#     4  12  25  38  69  92 136 173 222 285 336 404
#     4  10  24  43  66  96 132 163 230 272 340 414
#
# _framework density 20.879724
#
# number of rings (size 3 to 8) (size 9 to 14) (size 15 to 20)
#    0.000    1.481    0.741    3.333    7.259    2.370 
#    0.000    4.444    0.000    0.000    0.000    0.000 
#    0.000    0.000    0.000    0.000    0.000    0.000 
#
# Total GULP energy -669236.471118 kJ/mol
# GULP energy per Si atom -12393.267984 kJ/mol
# Density = 2.083220 g / cm^3
# Si number density = 20.879724 Si / 1000 Ang^3
#
#
#
# Elastic Constant Matrix: (Units=GPa)
#
#
# Indices 1 2 3 4 5 6 
#
# 1 80.3544 27.9658 43.2796 0.0000 0.0000 0.0000
# 2 27.9658 80.8079 35.2905 0.0000 0.0000 0.0000
# 3 43.2796 35.2905 118.8574 0.0000 0.0000 0.0000
# 4 0.0000 0.0000 0.0000 118.1903 0.0000 0.0000
# 5 0.0000 0.0000 0.0000 0.0000 37.1774 0.0000
# 6 0.0000 0.0000 0.0000 0.0000 0.0000 16.8280
#
#
#
# Elastic Compliance Matrix: (Units=1/GPa)
#
#
# Indices 1 2 3 4 5 6 
#
# 1 0.016301 -0.003503 -0.004895 0.000000 0.000000 0.000000
# 2 -0.003503 0.014972 -0.003170 0.000000 0.000000 0.000000
# 3 -0.004895 -0.003170 0.011137 0.000000 0.000000 0.000000
# 4 0.000000 0.000000 0.000000 0.008461 0.000000 0.000000
# 5 0.000000 0.000000 0.000000 0.000000 0.026898 0.000000
# 6 0.000000 0.000000 0.000000 0.000000 0.000000 0.059425
#
#
# Mechanical properties :
#
#
# Convention : Reuss Voigt Hill
#
# Bulk Modulus (GPa) = 51.88667 54.78796 53.33731
# Shear Modulus (GPa) = 29.98413 46.00473 37.99443
#
# Velocity S-wave (km/s) = 3.79362 4.69905 4.27040
# Velocity P-wave (km/s) = 6.64025 7.46580 7.06509
#
# Compressibility (1/GPa) = 0.01927277
#
# Stress axis : x y z
#
# Youngs Moduli (GPa) = 61.34635 66.79250 89.78979
#
# Poissons Ratio (x) = 0.23400 0.43956
# Poissons Ratio (y) = 0.21492 0.28460
# Poissons Ratio (z) = 0.30032 0.21171
#
# Static dielectric constant tensor:
#      x y z
#    x 3.865270 0.000000 0.000000 
#    y 0.000000 3.771680 0.000000 
#    z 0.000000 0.000000 4.299550 
# 
# 
# High freq. dielectric constant tensor:
#      x y z
#    x 1.811250 0.000000 0.000000 
#    y 0.000000 1.831390 0.000000 
#    z 0.000000 0.000000 1.828200 
# 
# From -- ./inp_files/58820.got.cif
#   From: 2010.03.12/outbox.cif.g09.slc.cpg/sg70_30_cif.got.tgz:58820.got - 2010.04.16 13:46:32.
