data_PCOD8286453
_publ_section_title
;
Structure prediction by ZEFSAII (Michael W. Deem and Ramdas Pophale) SiO2 
 PCOD8286453
Probable space group: F D D D
;
_chemical_formula_sum "Si O2"
_cell_formula_units_Z 144
_cell_length_a 19.755896
_cell_length_b 17.025504
_cell_length_c 18.490036
_cell_angle_alpha 90.000000
_cell_angle_beta 90.000000
_cell_angle_gamma 90.000000
_cell_volume 6219.199166
_symmetry_space_group_name_H-M "F D D D"
_symmetry_group_IT_number 70
_space_group.IT_coordinate_system_code '2'
_symmetry_cell_setting 'orthorhombic'
loop_
_space_group_symop_operation_xyz
x,y,z
1/4-x,1/4-y,z
x,1/4-y,1/4-z
1/4-x,y,1/4-z
-x,-y,-z
3/4+x,3/4+y,-z
-x,3/4+y,3/4+z
3/4+x,-y,3/4+z
x,1/2+y,1/2+z
1/4-x,3/4-y,1/2+z
x,3/4-y,3/4-z
1/4-x,1/2+y,3/4-z
-x,1/2-y,1/2-z
3/4+x,1/4+y,1/2-z
-x,1/4+y,1/4+z
3/4+x,1/2-y,1/4+z
1/2+x,y,1/2+z
3/4-x,1/4-y,1/2+z
1/2+x,1/4-y,3/4-z
3/4-x,y,3/4-z
1/2-x,-y,1/2-z
1/4+x,3/4+y,1/2-z
1/2-x,3/4+y,1/4+z
1/4+x,-y,1/4+z
1/2+x,1/2+y,z
3/4-x,3/4-y,z
1/2+x,3/4-y,1/4-z
3/4-x,1/2+y,1/4-z
1/2-x,1/2-y,-z
1/4+x,1/4+y,-z
1/2-x,1/4+y,3/4+z
1/4+x,1/2-y,3/4+z
loop_
_atom_site_type_symbol
_atom_site_label
_atom_site_fract_x
_atom_site_fract_y
_atom_site_fract_z
Si Si1 0.700296 0.975947 0.813847
Si Si2 0.263972 0.875000 0.875000
Si Si3 0.440369 0.470770 0.825692
Si Si4 0.375000 0.875000 0.209321
Si Si5 0.875000 0.248368 0.875000
Si Si6 0.586556 0.372947 0.247376
O O1 0.741826 0.946762 0.882766
O O2 0.652191 0.906229 0.788206
O O3 0.750000 0.000000 0.750000
O O4 0.656927 0.053873 0.837044
O O5 0.310341 0.949006 0.896473
O O6 0.218058 0.902451 0.807370
O O7 0.375000 0.457853 0.875000
O O8 0.435127 0.412539 0.757842
O O9 0.446152 0.561129 0.803493
O O10 0.892161 0.198900 0.803416
#
# Coordination Sequence:
#
# PCOD8286453 Si02
#       6
#    32  16  32  16  16  32
#     4  11  22  37  63  98 133 174 219 271 336 398
#     4  11  28  46  74 104 127 184 238 276 353 412
#     4  11  21  42  64  96 133 179 218 272 346 387
#     4  10  23  38  60  98 134 169 218 268 334 403
#     4  11  24  54  72  93 146 178 224 297 338 412
#     4  11  24  44  69 105 134 180 232 280 344 414
#
# _framework density 23.154105999999999
#
# number of rings (size 3 to 8) (size 9 to 14) (size 15 to 20)
#    0.000    1.111    5.556    1.000    0.000   10.667 
#    0.000    2.222    0.000    0.000    0.000    0.000 
#    0.000    0.000    0.000    0.000    0.000    0.000 
#
# Total GULP energy -446424.032710 kJ/mol
# GULP energy per Si atom -12400.667575 kJ/mol
# Density = 2.310141 g / cm^3
# Si number density = 23.154106 Si / 1000 Ang^3
#
#
#
# Elastic Constant Matrix: (Units=GPa)
#
#
# Indices 1 2 3 4 5 6 
#
# 1 143.8521 56.3116 69.8760 0.0000 0.0000 0.0000
# 2 56.3116 135.4968 46.2343 0.0000 0.0000 0.0000
# 3 69.8760 46.2343 85.6372 0.0000 0.0000 0.0000
# 4 0.0000 0.0000 0.0000 19.2024 0.0000 0.0000
# 5 0.0000 0.0000 0.0000 0.0000 31.6804 0.0000
# 6 0.0000 0.0000 0.0000 0.0000 0.0000 19.3311
#
#
#
# Elastic Compliance Matrix: (Units=1/GPa)
#
#
# Indices 1 2 3 4 5 6 
#
# 1 0.011946 -0.002009 -0.008663 0.000000 0.000000 0.000000
# 2 -0.002009 0.009385 -0.003428 0.000000 0.000000 0.000000
# 3 -0.008663 -0.003428 0.020596 0.000000 0.000000 0.000000
# 4 0.000000 0.000000 0.000000 0.052077 0.000000 0.000000
# 5 0.000000 0.000000 0.000000 0.000000 0.031565 0.000000
# 6 0.000000 0.000000 0.000000 0.000000 0.000000 0.051730
#
#
# Mechanical properties :
#
#
# Convention : Reuss Voigt Hill
#
# Bulk Modulus (GPa) = 72.84178 78.86996 75.85587
# Shear Modulus (GPa) = 23.80124 26.88039 25.34082
#
# Velocity S-wave (km/s) = 3.20964 3.41094 3.31182
# Velocity P-wave (km/s) = 6.72782 7.04626 6.88888
#
# Compressibility (1/GPa) = 0.01372838
#
# Stress axis : x y z
#
# Youngs Moduli (GPa) = 83.71119 106.55728 48.55287
#
# Poissons Ratio (x) = 0.21404 0.42060
# Poissons Ratio (y) = 0.16815 0.16642
# Poissons Ratio (z) = 0.72517 0.36524
#
# Static dielectric constant tensor:
#      x y z
#    x 3.710800 0.000000 0.000000 
#    y 0.000000 4.388450 0.000000 
#    z 0.000000 0.000000 4.621210 
# 
# 
# High freq. dielectric constant tensor:
#      x y z
#    x 1.921030 0.000000 0.000000 
#    y 0.000000 1.933770 0.000000 
#    z 0.000000 0.000000 1.893890 
# 
# From -- ./inp_files/43614.got.cif
#   From: 2010.03.12/outbox.cif.g09.slc.cpg/sg70_22_cif.got.tgz:43614.got - 2010.04.16 13:46:32.
