data_PCOD8286639
_publ_section_title
;
Structure prediction by ZEFSAII (Michael W. Deem and Ramdas Pophale) SiO2 
 PCOD8286639
Probable space group: F D D D
;
_chemical_formula_sum "Si O2"
_cell_formula_units_Z 168
_cell_length_a 27.636581
_cell_length_b 22.034199
_cell_length_c 13.699238
_cell_angle_alpha 90.000000
_cell_angle_beta 90.000000
_cell_angle_gamma 90.000000
_cell_volume 8342.149959
_symmetry_space_group_name_H-M "F D D D"
_symmetry_group_IT_number 70
_space_group.IT_coordinate_system_code '2'
_symmetry_cell_setting 'orthorhombic'
loop_
_space_group_symop_operation_xyz
x,y,z
1/4-x,1/4-y,z
x,1/4-y,1/4-z
1/4-x,y,1/4-z
-x,-y,-z
3/4+x,3/4+y,-z
-x,3/4+y,3/4+z
3/4+x,-y,3/4+z
x,1/2+y,1/2+z
1/4-x,3/4-y,1/2+z
x,3/4-y,3/4-z
1/4-x,1/2+y,3/4-z
-x,1/2-y,1/2-z
3/4+x,1/4+y,1/2-z
-x,1/4+y,1/4+z
3/4+x,1/2-y,1/4+z
1/2+x,y,1/2+z
3/4-x,1/4-y,1/2+z
1/2+x,1/4-y,3/4-z
3/4-x,y,3/4-z
1/2-x,-y,1/2-z
1/4+x,3/4+y,1/2-z
1/2-x,3/4+y,1/4+z
1/4+x,-y,1/4+z
1/2+x,1/2+y,z
3/4-x,3/4-y,z
1/2+x,3/4-y,1/4-z
3/4-x,1/2+y,1/4-z
1/2-x,1/2-y,-z
1/4+x,1/4+y,-z
1/2-x,1/4+y,3/4+z
1/4+x,1/2-y,3/4+z
loop_
_atom_site_type_symbol
_atom_site_label
_atom_site_fract_x
_atom_site_fract_y
_atom_site_fract_z
Si Si1 0.868029 0.696204 0.107597
Si Si2 0.552151 0.246725 0.701825
Si Si3 0.313168 0.790274 0.736536
Si Si4 0.789682 0.499343 0.520843
Si Si5 0.625000 0.625000 0.625000
Si Si6 0.429916 0.883857 0.555880
O O1 0.865373 0.625000 0.125000
O O2 0.845089 0.733117 0.198601
O O3 0.838786 0.709531 0.008768
O O4 0.923878 0.716421 0.093956
O O5 0.500000 0.250000 0.750000
O O6 0.553425 0.265998 0.589834
O O7 0.569615 0.176567 0.709956
O O8 0.265432 0.767652 0.793492
O O9 0.342650 0.831375 0.810062
O O10 0.294788 0.829884 0.644524
O O11 0.791837 0.427485 0.536777
O O12 0.375000 0.875000 0.589704
#
# Coordination Sequence:
#
# PCOD8286639 Si02
#       6
#    32  32  32  32   8  32
#     4  11  25  44  62  97 143 162 215 285 332 395
#     4  11  22  39  65  99 129 172 209 267 335 397
#     4  11  25  45  69  95 128 182 221 284 321 399
#     4  12  23  41  69  99 126 176 220 266 343 393
#     4  12  24  52  68  88 134 180 248 262 328 398
#     4  11  21  43  67  92 134 163 217 274 321 395
#
# _framework density 20.138693
#
# number of rings (size 3 to 8) (size 9 to 14) (size 15 to 20)
#    0.000    0.762    8.571    1.143    4.000    0.762 
#    6.857    1.905    0.000    0.000    0.000    0.000 
#    0.000    0.000    0.000    0.000    0.000    0.000 
#
# Total GULP energy -520833.857498 kJ/mol
# GULP energy per Si atom -12400.806131 kJ/mol
# Density = 2.009286 g / cm^3
# Si number density = 20.138693 Si / 1000 Ang^3
#
#
#
# Elastic Constant Matrix: (Units=GPa)
#
#
# Indices 1 2 3 4 5 6 
#
# 1 152.1362 68.9031 39.0248 0.0000 0.0000 0.0000
# 2 68.9031 173.3737 49.2155 0.0000 0.0000 0.0000
# 3 39.0248 49.2155 60.8953 0.0000 0.0000 0.0000
# 4 0.0000 0.0000 0.0000 22.1036 0.0000 0.0000
# 5 0.0000 0.0000 0.0000 0.0000 29.3359 0.0000
# 6 0.0000 0.0000 0.0000 0.0000 0.0000 36.4116
#
#
#
# Elastic Compliance Matrix: (Units=1/GPa)
#
#
# Indices 1 2 3 4 5 6 
#
# 1 0.008571 -0.002397 -0.003555 0.000000 0.000000 0.000000
# 2 -0.002397 0.008156 -0.005055 0.000000 0.000000 0.000000
# 3 -0.003555 -0.005055 0.022786 0.000000 0.000000 0.000000
# 4 0.000000 0.000000 0.000000 0.045242 0.000000 0.000000
# 5 0.000000 0.000000 0.000000 0.000000 0.034088 0.000000
# 6 0.000000 0.000000 0.000000 0.000000 0.000000 0.027464
#
#
# Mechanical properties :
#
#
# Convention : Reuss Voigt Hill
#
# Bulk Modulus (GPa) = 57.15286 77.85466 67.50376
# Shear Modulus (GPa) = 28.71052 32.85432 30.78242
#
# Velocity S-wave (km/s) = 3.77986 4.04344 3.91387
# Velocity P-wave (km/s) = 6.89137 7.78090 7.34961
#
# Compressibility (1/GPa) = 0.01749694
#
# Stress axis : x y z
#
# Youngs Moduli (GPa) = 116.67769 122.61648 43.88729
#
# Poissons Ratio (x) = 0.29391 0.15603
# Poissons Ratio (y) = 0.27967 0.22186
# Poissons Ratio (z) = 0.41482 0.61985
#
# Static dielectric constant tensor:
#      x y z
#    x 3.885410 0.000000 0.000000 
#    y 0.000000 3.645100 0.000000 
#    z 0.000000 0.000000 3.648480 
# 
# 
# High freq. dielectric constant tensor:
#      x y z
#    x 1.795660 0.000000 0.000000 
#    y 0.000000 1.792430 0.000000 
#    z 0.000000 0.000000 1.770710 
# 
# From -- ./inp_files/29842.got.cif
#   From: 2010.03.12/outbox.cif.g09.slc.cpg/sg70_15_cif.got.tgz:29842.got - 2010.04.16 13:46:32.
