data_PCOD8286317
_publ_section_title
;
Structure prediction by ZEFSAII (Michael W. Deem and Ramdas Pophale) SiO2 
 PCOD8286317
Probable space group: F D D D
;
_chemical_formula_sum "Si O2"
_cell_formula_units_Z 176
_cell_length_a 25.141392
_cell_length_b 12.835918
_cell_length_c 28.648237
_cell_angle_alpha 90.000000
_cell_angle_beta 90.000000
_cell_angle_gamma 90.000000
_cell_volume 9245.154099
_symmetry_space_group_name_H-M "F D D D"
_symmetry_group_IT_number 70
_space_group.IT_coordinate_system_code '2'
_symmetry_cell_setting 'orthorhombic'
loop_
_space_group_symop_operation_xyz
x,y,z
1/4-x,1/4-y,z
x,1/4-y,1/4-z
1/4-x,y,1/4-z
-x,-y,-z
3/4+x,3/4+y,-z
-x,3/4+y,3/4+z
3/4+x,-y,3/4+z
x,1/2+y,1/2+z
1/4-x,3/4-y,1/2+z
x,3/4-y,3/4-z
1/4-x,1/2+y,3/4-z
-x,1/2-y,1/2-z
3/4+x,1/4+y,1/2-z
-x,1/4+y,1/4+z
3/4+x,1/2-y,1/4+z
1/2+x,y,1/2+z
3/4-x,1/4-y,1/2+z
1/2+x,1/4-y,3/4-z
3/4-x,y,3/4-z
1/2-x,-y,1/2-z
1/4+x,3/4+y,1/2-z
1/2-x,3/4+y,1/4+z
1/4+x,-y,1/4+z
1/2+x,1/2+y,z
3/4-x,3/4-y,z
1/2+x,3/4-y,1/4-z
3/4-x,1/2+y,1/4-z
1/2-x,1/2-y,-z
1/4+x,1/4+y,-z
1/2-x,1/4+y,3/4+z
1/4+x,1/2-y,3/4+z
loop_
_atom_site_type_symbol
_atom_site_label
_atom_site_fract_x
_atom_site_fract_y
_atom_site_fract_z
Si Si1 0.625000 0.125000 0.895453
Si Si2 0.092019 0.531572 0.265501
Si Si3 0.387907 0.548377 0.997291
Si Si4 0.021142 0.517428 0.746172
Si Si5 0.207525 0.075456 0.322169
Si Si6 0.949214 0.322043 0.329154
O O1 0.613322 0.223011 0.930383
O O2 0.676629 0.137461 0.862849
O O3 0.125000 0.625000 0.239585
O O4 0.097977 0.419132 0.242165
O O5 0.029213 0.559532 0.260888
O O6 0.403089 0.487155 0.949798
O O7 0.324790 0.546943 0.003745
O O8 0.416362 0.492773 0.041041
O O9 0.011827 0.591227 0.790709
O O10 0.023234 0.589640 0.701189
O O11 0.253180 0.004554 0.344692
O O12 0.923803 0.375000 0.375000
#
# Coordination Sequence:
#
# PCOD8286317 Si02
#       6
#    16  32  32  32  32  32
#     4  10  22  36  58  94 121 151 226 254 280 380
#     4  10  23  40  56  86 124 166 214 252 303 358
#     4  11  21  37  61  87 127 163 197 255 319 371
#     4  11  20  38  60  88 122 161 200 249 325 376
#     4  11  18  35  60  92 123 160 196 260 321 364
#     4  11  21  34  62  91 126 152 194 256 329 373
#
# _framework density 19.036999999999999
#
# number of rings (size 3 to 8) (size 9 to 14) (size 15 to 20)
#    0.545    0.727    5.455    3.818    0.000    2.182 
#    0.000    0.000    0.000    0.000    0.000    2.545 
#    0.000    0.000    0.000    0.000    0.000    0.000 
#
# Total GULP energy -545253.037670 kJ/mol
# GULP energy per Si atom -12392.114493 kJ/mol
# Density = 1.899367 g / cm^3
# Si number density = 19.037000 Si / 1000 Ang^3
#
#
#
# Elastic Constant Matrix: (Units=GPa)
#
#
# Indices 1 2 3 4 5 6 
#
# 1 131.0698 51.3075 16.2656 0.0000 0.0000 0.0000
# 2 51.3075 71.3814 39.1583 0.0000 0.0000 0.0000
# 3 16.2656 39.1583 79.7899 0.0000 0.0000 0.0000
# 4 0.0000 0.0000 0.0000 27.8991 0.0000 0.0000
# 5 0.0000 0.0000 0.0000 0.0000 -75.1291 0.0000
# 6 0.0000 0.0000 0.0000 0.0000 0.0000 34.5062
#
#
#
# Elastic Compliance Matrix: (Units=1/GPa)
#
#
# Indices 1 2 3 4 5 6 
#
# 1 0.010897 -0.009050 0.002220 0.000000 0.000000 0.000000
# 2 -0.009050 0.026687 -0.011252 0.000000 0.000000 0.000000
# 3 0.002220 -0.011252 0.017603 0.000000 0.000000 0.000000
# 4 0.000000 0.000000 0.000000 0.035843 0.000000 0.000000
# 5 0.000000 0.000000 0.000000 0.000000 -0.013310 0.000000
# 6 0.000000 0.000000 0.000000 0.000000 0.000000 0.028980
#
#
# Mechanical properties :
#
#
# Convention : Reuss Voigt Hill
#
# Bulk Modulus (GPa) = 52.57121 55.07819 53.82470
# Shear Modulus (GPa) = 33.51088 9.15588 21.33338
#
# Velocity S-wave (km/s) = 4.20015 2.19544 3.35121
# Velocity P-wave (km/s) = 7.15520 5.95161 6.58098
#
# Compressibility (1/GPa) = 0.01902182
#
# Stress axis : x y z
#
# Youngs Moduli (GPa) = 91.77030 37.47109 56.80992
#
# Poissons Ratio (x) = 0.33913 -0.12613
# Poissons Ratio (y) = 0.83056 0.63924
# Poissons Ratio (z) = -0.20375 0.42163
#
# Static dielectric constant tensor:
#      x y z
#    x 3.655720 0.000000 0.000000 
#    y 0.000000 3.280740 0.000000 
#    z 0.000000 0.000000 3.457080 
# 
# 
# High freq. dielectric constant tensor:
#      x y z
#    x 1.757260 0.000000 0.000000 
#    y 0.000000 1.710010 0.000000 
#    z 0.000000 0.000000 1.722550 
# 
# From -- ./inp_files/29058.got.cif
#   From: 2010.03.12/outbox.cif.g09.slc.cpg/sg70_15_cif.got.tgz:29058.got - 2010.04.16 13:46:32.
