data_PCOD8286290
_publ_section_title
;
Structure prediction by ZEFSAII (Michael W. Deem and Ramdas Pophale) SiO2 
 PCOD8286290
Probable space group: F D D D
;
_chemical_formula_sum "Si O2"
_cell_formula_units_Z 112
_cell_length_a 28.708577
_cell_length_b 16.926934
_cell_length_c 10.286885
_cell_angle_alpha 90.000000
_cell_angle_beta 90.000000
_cell_angle_gamma 90.000000
_cell_volume 4998.893127
_symmetry_space_group_name_H-M "F D D D"
_symmetry_group_IT_number 70
_space_group.IT_coordinate_system_code '2'
_symmetry_cell_setting 'orthorhombic'
loop_
_space_group_symop_operation_xyz
x,y,z
1/4-x,1/4-y,z
x,1/4-y,1/4-z
1/4-x,y,1/4-z
-x,-y,-z
3/4+x,3/4+y,-z
-x,3/4+y,3/4+z
3/4+x,-y,3/4+z
x,1/2+y,1/2+z
1/4-x,3/4-y,1/2+z
x,3/4-y,3/4-z
1/4-x,1/2+y,3/4-z
-x,1/2-y,1/2-z
3/4+x,1/4+y,1/2-z
-x,1/4+y,1/4+z
3/4+x,1/2-y,1/4+z
1/2+x,y,1/2+z
3/4-x,1/4-y,1/2+z
1/2+x,1/4-y,3/4-z
3/4-x,y,3/4-z
1/2-x,-y,1/2-z
1/4+x,3/4+y,1/2-z
1/2-x,3/4+y,1/4+z
1/4+x,-y,1/4+z
1/2+x,1/2+y,z
3/4-x,3/4-y,z
1/2+x,3/4-y,1/4-z
3/4-x,1/2+y,1/4-z
1/2-x,1/2-y,-z
1/4+x,1/4+y,-z
1/2-x,1/4+y,3/4+z
1/4+x,1/2-y,3/4+z
loop_
_atom_site_type_symbol
_atom_site_label
_atom_site_fract_x
_atom_site_fract_y
_atom_site_fract_z
Si Si1 0.422088 0.048844 0.045710
Si Si2 0.322489 0.869615 0.147271
Si Si3 0.316696 0.231029 0.253876
Si Si4 0.994193 0.375000 0.375000
O O1 0.440956 0.125000 0.125000
O O2 0.440408 0.970948 0.118268
O O3 0.366397 0.053562 0.039521
O O4 0.443775 0.044933 0.901405
O O5 0.375000 0.875000 0.201160
O O6 0.288219 0.903088 0.256727
O O7 0.317993 0.923934 0.017231
O O8 0.276517 0.198331 0.161976
#
# Coordination Sequence:
#
# PCOD8286290 Si02
#       4
#    32  32  32  16
#     4  10  21  42  67  95 124 174 219 267 323 390
#     4  10  23  42  65  95 132 175 213 266 331 393
#     4  10  22  41  66  94 130 168 220 271 324 385
#     4  12  23  40  64 100 130 168 220 276 323 380
#
# _framework density 22.404961
#
# number of rings (size 3 to 8) (size 9 to 14) (size 15 to 20)
#    0.000    1.714    1.429    2.143    0.000    9.143 
#    5.143    0.000    0.000    0.000    0.000    0.000 
#    0.000    0.000    0.000    0.000    0.000    0.000 
#
# Total GULP energy -347215.331104 kJ/mol
# GULP energy per Si atom -12400.547539 kJ/mol
# Density = 2.235397 g / cm^3
# Si number density = 22.404961 Si / 1000 Ang^3
#
#
#
# Elastic Constant Matrix: (Units=GPa)
#
#
# Indices 1 2 3 4 5 6 
#
# 1 92.9866 36.4264 54.5832 0.0000 0.0000 0.0000
# 2 36.4264 168.3588 77.5666 0.0000 0.0000 0.0000
# 3 54.5832 77.5666 149.8805 0.0000 0.0000 0.0000
# 4 0.0000 0.0000 0.0000 35.0180 0.0000 0.0000
# 5 0.0000 0.0000 0.0000 0.0000 21.6681 0.0000
# 6 0.0000 0.0000 0.0000 0.0000 0.0000 21.9543
#
#
#
# Elastic Compliance Matrix: (Units=1/GPa)
#
#
# Indices 1 2 3 4 5 6 
#
# 1 0.013777 -0.000879 -0.004562 0.000000 0.000000 0.000000
# 2 -0.000879 0.007855 -0.003745 0.000000 0.000000 0.000000
# 3 -0.004562 -0.003745 0.010272 0.000000 0.000000 0.000000
# 4 0.000000 0.000000 0.000000 0.028557 0.000000 0.000000
# 5 0.000000 0.000000 0.000000 0.000000 0.046151 0.000000
# 6 0.000000 0.000000 0.000000 0.000000 0.000000 0.045549
#
#
# Mechanical properties :
#
#
# Convention : Reuss Voigt Hill
#
# Bulk Modulus (GPa) = 73.90495 83.15315 78.52905
# Shear Modulus (GPa) = 28.56434 31.90474 30.23454
#
# Velocity S-wave (km/s) = 3.57446 3.77769 3.67748
# Velocity P-wave (km/s) = 7.07766 7.49815 7.29094
#
# Compressibility (1/GPa) = 0.01353089
#
# Stress axis : x y z
#
# Youngs Moduli (GPa) = 72.58694 127.30144 97.35406
#
# Poissons Ratio (x) = 0.11187 0.44416
# Poissons Ratio (y) = 0.06379 0.36462
# Poissons Ratio (z) = 0.33117 0.47678
#
# Static dielectric constant tensor:
#      x y z
#    x 3.982160 0.000000 0.000000 
#    y 0.000000 3.872520 0.000000 
#    z 0.000000 0.000000 3.879870 
# 
# 
# High freq. dielectric constant tensor:
#      x y z
#    x 1.887250 0.000000 0.000000 
#    y 0.000000 1.879420 0.000000 
#    z 0.000000 0.000000 1.874840 
# 
# From -- ./inp_files/15069.got.cif
#   From: 2010.03.12/outbox.cif.g09.slc.cpg/sg70_8_cif.got.tgz:15069.got - 2010.04.16 13:46:32.
