data_PCOD8286513
_publ_section_title
;
Structure prediction by ZEFSAII (Michael W. Deem and Ramdas Pophale) SiO2 
 PCOD8286513
Probable space group: F D D D
;
_chemical_formula_sum "Si O2"
_cell_formula_units_Z 240
_cell_length_a 19.852582
_cell_length_b 21.240015
_cell_length_c 25.445471
_cell_angle_alpha 90.000000
_cell_angle_beta 90.000000
_cell_angle_gamma 90.000000
_cell_volume 10729.569860
_symmetry_space_group_name_H-M "F D D D"
_symmetry_group_IT_number 70
_space_group.IT_coordinate_system_code '2'
_symmetry_cell_setting 'orthorhombic'
loop_
_space_group_symop_operation_xyz
x,y,z
1/4-x,1/4-y,z
x,1/4-y,1/4-z
1/4-x,y,1/4-z
-x,-y,-z
3/4+x,3/4+y,-z
-x,3/4+y,3/4+z
3/4+x,-y,3/4+z
x,1/2+y,1/2+z
1/4-x,3/4-y,1/2+z
x,3/4-y,3/4-z
1/4-x,1/2+y,3/4-z
-x,1/2-y,1/2-z
3/4+x,1/4+y,1/2-z
-x,1/4+y,1/4+z
3/4+x,1/2-y,1/4+z
1/2+x,y,1/2+z
3/4-x,1/4-y,1/2+z
1/2+x,1/4-y,3/4-z
3/4-x,y,3/4-z
1/2-x,-y,1/2-z
1/4+x,3/4+y,1/2-z
1/2-x,3/4+y,1/4+z
1/4+x,-y,1/4+z
1/2+x,1/2+y,z
3/4-x,3/4-y,z
1/2+x,3/4-y,1/4-z
3/4-x,1/2+y,1/4-z
1/2-x,1/2-y,-z
1/4+x,1/4+y,-z
1/2-x,1/4+y,3/4+z
1/4+x,1/2-y,3/4+z
loop_
_atom_site_type_symbol
_atom_site_label
_atom_site_fract_x
_atom_site_fract_y
_atom_site_fract_z
Si Si1 0.570014 0.777927 0.668106
Si Si2 0.007245 0.008483 0.208990
Si Si3 0.074962 0.222276 0.869132
Si Si4 0.054705 0.303789 0.357126
Si Si5 0.748962 0.849779 0.997551
Si Si6 0.633417 0.415114 0.065625
Si Si7 0.625000 0.625000 0.303186
Si Si8 0.121927 0.195504 0.494247
O O1 0.625000 0.760968 0.625000
O O2 0.501166 0.757035 0.640337
O O3 0.572038 0.851334 0.684573
O O4 0.579176 0.737901 0.720701
O O5 0.986887 0.009731 0.147203
O O6 0.013373 0.079327 0.228670
O O7 0.076832 0.970144 0.215185
O O8 0.953339 0.973027 0.245535
O O9 0.118211 0.280191 0.892567
O O10 0.075687 0.167388 0.912028
O O11 0.103194 0.195435 0.815115
O O12 0.056711 0.375000 0.375000
O O13 0.019043 0.301827 0.299919
O O14 0.688751 0.847971 0.039421
O O15 0.822165 0.830487 0.021040
O O16 0.625000 0.438356 0.125000
O O17 0.125000 0.125000 0.516752
#
# Coordination Sequence:
#
# PCOD8286513 Si02
#       8
#    32  32  32  32  32  32  16  32
#     4  11  24  43  65  98 137 174 234 294 343 416
#     4  10  23  45  69  99 136 184 227 286 350 420
#     4  11  24  43  68  95 134 182 226 284 347 418
#     4   9  23  46  69  95 138 179 231 284 351 422
#     4  11  25  46  68 104 139 178 233 291 352 421
#     4  11  24  41  70  99 140 183 234 289 358 424
#     4  12  26  42  71 102 135 176 230 290 342 424
#     4  11  22  42  67  97 135 179 232 283 344 414
#
# _framework density 22.368091
#
# number of rings (size 3 to 8) (size 9 to 14) (size 15 to 20)
#    0.000    1.333    2.000    2.800    7.467    1.867 
#    2.400    2.333    0.000    0.000    0.000    0.000 
#    0.000    0.000    0.000    0.000    0.000    0.000 
#
# Total GULP energy -744050.180884 kJ/mol
# GULP energy per Si atom -12400.836348 kJ/mol
# Density = 2.231718 g / cm^3
# Si number density = 22.368091 Si / 1000 Ang^3
#
#
#
# Elastic Constant Matrix: (Units=GPa)
#
#
# Indices 1 2 3 4 5 6 
#
# 1 163.9332 39.1366 55.5828 0.0000 0.0000 0.0000
# 2 39.1366 75.3539 23.9004 0.0000 0.0000 0.0000
# 3 55.5828 23.9004 110.0484 0.0000 0.0000 0.0000
# 4 0.0000 0.0000 0.0000 3.9912 0.0000 0.0000
# 5 0.0000 0.0000 0.0000 0.0000 33.4733 0.0000
# 6 0.0000 0.0000 0.0000 0.0000 0.0000 36.8158
#
#
#
# Elastic Compliance Matrix: (Units=1/GPa)
#
#
# Indices 1 2 3 4 5 6 
#
# 1 0.007973 -0.003076 -0.003359 0.000000 0.000000 0.000000
# 2 -0.003076 0.015439 -0.001800 0.000000 0.000000 0.000000
# 3 -0.003359 -0.001800 0.011174 0.000000 0.000000 0.000000
# 4 0.000000 0.000000 0.000000 0.250550 0.000000 0.000000
# 5 0.000000 0.000000 0.000000 0.000000 0.029875 0.000000
# 6 0.000000 0.000000 0.000000 0.000000 0.000000 0.027162
#
#
# Mechanical properties :
#
#
# Convention : Reuss Voigt Hill
#
# Bulk Modulus (GPa) = 55.19444 65.17503 60.18473
# Shear Modulus (GPa) = 13.71060 30.23711 21.97386
#
# Velocity S-wave (km/s) = 2.47848 3.68067 3.13769
# Velocity P-wave (km/s) = 5.73756 6.87487 6.33180
#
# Compressibility (1/GPa) = 0.01811777
#
# Stress axis : x y z
#
# Youngs Moduli (GPa) = 125.41947 64.77149 89.49055
#
# Poissons Ratio (x) = 0.19921 0.30061
# Poissons Ratio (y) = 0.38574 0.16105
# Poissons Ratio (z) = 0.42130 0.11656
#
# Static dielectric constant tensor:
#      x y z
#    x 4.162270 0.000000 0.000000 
#    y 0.000000 3.934700 0.000000 
#    z 0.000000 0.000000 4.264960 
# 
# 
# High freq. dielectric constant tensor:
#      x y z
#    x 1.884980 0.000000 0.000000 
#    y 0.000000 1.878260 0.000000 
#    z 0.000000 0.000000 1.888650 
# 
# From -- ./inp_files/60544.got.cif
#   From: 2010.03.12/outbox.cif.g09.slc.cpg/sg70_31_cif.got.tgz:60544.got - 2010.04.16 13:46:32.
