data_PCOD8286166
_publ_section_title
;
Structure prediction by ZEFSAII (Michael W. Deem and Ramdas Pophale) SiO2 
 PCOD8286166
Probable space group: F D D D
;
_chemical_formula_sum "Si O2"
_cell_formula_units_Z 88
_cell_length_a 4.756637
_cell_length_b 21.993513
_cell_length_c 29.771144
_cell_angle_alpha 90.000000
_cell_angle_beta 90.000000
_cell_angle_gamma 90.000000
_cell_volume 3114.512924
_symmetry_space_group_name_H-M "F D D D"
_symmetry_group_IT_number 70
_space_group.IT_coordinate_system_code '2'
_symmetry_cell_setting 'orthorhombic'
loop_
_space_group_symop_operation_xyz
x,y,z
1/4-x,1/4-y,z
x,1/4-y,1/4-z
1/4-x,y,1/4-z
-x,-y,-z
3/4+x,3/4+y,-z
-x,3/4+y,3/4+z
3/4+x,-y,3/4+z
x,1/2+y,1/2+z
1/4-x,3/4-y,1/2+z
x,3/4-y,3/4-z
1/4-x,1/2+y,3/4-z
-x,1/2-y,1/2-z
3/4+x,1/4+y,1/2-z
-x,1/4+y,1/4+z
3/4+x,1/2-y,1/4+z
1/2+x,y,1/2+z
3/4-x,1/4-y,1/2+z
1/2+x,1/4-y,3/4-z
3/4-x,y,3/4-z
1/2-x,-y,1/2-z
1/4+x,3/4+y,1/2-z
1/2-x,3/4+y,1/4+z
1/4+x,-y,1/4+z
1/2+x,1/2+y,z
3/4-x,3/4-y,z
1/2+x,3/4-y,1/4-z
3/4-x,1/2+y,1/4-z
1/2-x,1/2-y,-z
1/4+x,1/4+y,-z
1/2-x,1/4+y,3/4+z
1/4+x,1/2-y,3/4+z
loop_
_atom_site_type_symbol
_atom_site_label
_atom_site_fract_x
_atom_site_fract_y
_atom_site_fract_z
Si Si1 0.125000 0.125000 0.625000
Si Si2 0.995033 0.704990 0.824629
Si Si3 0.375000 0.875000 0.728202
Si Si4 0.769808 0.533166 0.695670
O O1 0.312693 0.082655 0.656588
O O2 0.875000 0.702778 0.875000
O O3 0.902293 0.640005 0.802228
O O4 0.829823 0.757343 0.797460
O O5 0.318728 0.726472 0.819928
O O6 0.312867 0.935026 0.757716
#
# Coordination Sequence:
#
# PCOD8286166 Si02
#       4
#     8  32  16  32
#     4  10  20  42  72 102 136 186 236 290 352 406
#     4  12  25  47  71 106 145 189 243 295 357 430
#     4  11  28  45  74 106 146 192 232 303 364 421
#     4  11  25  45  72 107 143 188 245 292 354 431
#
# _framework density 28.254819999999999
#
# number of rings (size 3 to 8) (size 9 to 14) (size 15 to 20)
#    0.000    0.727    3.636    2.182    0.000   14.545 
#    0.000    0.000    0.000    0.000    0.000    0.000 
#    0.000    0.000    0.000    0.000    0.000    0.000 
#
# Total GULP energy -272671.897539 kJ/mol
# GULP energy per Si atom -12394.177161 kJ/mol
# Density = 2.819051 g / cm^3
# Si number density = 28.254820 Si / 1000 Ang^3
#
#
#
# Elastic Constant Matrix: (Units=GPa)
#
#
# Indices 1 2 3 4 5 6 
#
# 1 92.2920 15.0600 -0.6432 0.0000 0.0000 0.0000
# 2 15.0600 148.2690 20.3501 0.0000 0.0000 0.0000
# 3 -0.6432 20.3501 135.5252 0.0000 0.0000 0.0000
# 4 0.0000 0.0000 0.0000 417.2614 0.0000 0.0000
# 5 0.0000 0.0000 0.0000 0.0000 -2.8308 0.0000
# 6 0.0000 0.0000 0.0000 0.0000 0.0000 11.3916
#
#
#
# Elastic Compliance Matrix: (Units=1/GPa)
#
#
# Indices 1 2 3 4 5 6 
#
# 1 0.011025 -0.001151 0.000225 0.000000 0.000000 0.000000
# 2 -0.001151 0.007007 -0.001058 0.000000 0.000000 0.000000
# 3 0.000225 -0.001058 0.007539 0.000000 0.000000 0.000000
# 4 0.000000 0.000000 0.000000 0.002397 0.000000 0.000000
# 5 0.000000 0.000000 0.000000 0.000000 -0.353255 0.000000
# 6 0.000000 0.000000 0.000000 0.000000 0.000000 0.087784
#
#
# Mechanical properties :
#
#
# Convention : Reuss Voigt Hill
#
# Bulk Modulus (GPa) = 46.28908 49.51334 47.90121
# Shear Modulus (GPa) = -22.09088 107.91905 42.91408
#
# Velocity S-wave (km/s) = -2.79918 6.18691 3.90144
# Velocity P-wave (km/s) = 2.44357 8.28245 6.10615
#
# Compressibility (1/GPa) = 0.02160337
#
# Stress axis : x y z
#
# Youngs Moduli (GPa) = 90.70702 142.72413 132.65116
#
# Poissons Ratio (x) = 0.16423 -0.02986
# Poissons Ratio (y) = 0.10437 0.14028
# Poissons Ratio (z) = -0.02042 0.15094
#
# Static dielectric constant tensor:
#      x y z
#    x 5.304880 0.000000 0.000000 
#    y 0.000000 5.622660 0.000000 
#    z 0.000000 0.000000 5.577290 
# 
# 
# High freq. dielectric constant tensor:
#      x y z
#    x 2.130530 0.000000 0.000000 
#    y 0.000000 2.177520 0.000000 
#    z 0.000000 0.000000 2.166190 
# 
# From -- ./inp_files/2578.got.cif
#   From: 2010.03.12/outbox.cif.g09.slc.cpg/sg70_2_cif.got.tgz:2578.got - 2010.04.16 13:46:32.
