data_PCOD8286008
_publ_section_title
;
Structure prediction by ZEFSAII (Michael W. Deem and Ramdas Pophale) SiO2 
 PCOD8286008
Probable space group: F D D D
;
_chemical_formula_sum "Si O2"
_cell_formula_units_Z 176
_cell_length_a 11.728113
_cell_length_b 30.114536
_cell_length_c 24.251461
_cell_angle_alpha 90.000000
_cell_angle_beta 90.000000
_cell_angle_gamma 90.000000
_cell_volume 8565.293024
_symmetry_space_group_name_H-M "F D D D"
_symmetry_group_IT_number 70
_space_group.IT_coordinate_system_code '2'
_symmetry_cell_setting 'orthorhombic'
loop_
_space_group_symop_operation_xyz
x,y,z
1/4-x,1/4-y,z
x,1/4-y,1/4-z
1/4-x,y,1/4-z
-x,-y,-z
3/4+x,3/4+y,-z
-x,3/4+y,3/4+z
3/4+x,-y,3/4+z
x,1/2+y,1/2+z
1/4-x,3/4-y,1/2+z
x,3/4-y,3/4-z
1/4-x,1/2+y,3/4-z
-x,1/2-y,1/2-z
3/4+x,1/4+y,1/2-z
-x,1/4+y,1/4+z
3/4+x,1/2-y,1/4+z
1/2+x,y,1/2+z
3/4-x,1/4-y,1/2+z
1/2+x,1/4-y,3/4-z
3/4-x,y,3/4-z
1/2-x,-y,1/2-z
1/4+x,3/4+y,1/2-z
1/2-x,3/4+y,1/4+z
1/4+x,-y,1/4+z
1/2+x,1/2+y,z
3/4-x,3/4-y,z
1/2+x,3/4-y,1/4-z
3/4-x,1/2+y,1/4-z
1/2-x,1/2-y,-z
1/4+x,1/4+y,-z
1/2-x,1/4+y,3/4+z
1/4+x,1/2-y,3/4+z
loop_
_atom_site_type_symbol
_atom_site_label
_atom_site_fract_x
_atom_site_fract_y
_atom_site_fract_z
Si Si1 0.257498 0.549198 0.400896
Si Si2 0.125000 0.625000 0.911093
Si Si3 0.314846 0.015918 0.118563
Si Si4 0.757501 0.675376 0.229548
Si Si5 0.679910 0.315612 0.678059
Si Si6 0.742307 0.322946 0.473849
O O1 0.375000 0.536032 0.375000
O O2 0.193627 0.592283 0.378459
O O3 0.180126 0.506045 0.390659
O O4 0.303195 0.559097 0.462045
O O5 0.214301 0.596704 0.948861
O O6 0.328653 0.047684 0.065925
O O7 0.272348 0.046106 0.168160
O O8 0.222916 0.980096 0.098598
O O9 0.623448 0.684882 0.237635
O O10 0.783966 0.624516 0.215069
O O11 0.625000 0.341206 0.625000
O O12 0.589137 0.305416 0.726450
#
# Coordination Sequence:
#
# PCOD8286008 Si02
#       6
#    32  16  32  32  32  32
#     4  11  23  40  61  87 122 159 202 248 296 355
#     4  10  20  36  58  88 116 156 204 248 298 350
#     4  11  24  38  59  90 121 157 197 245 304 359
#     4  11  22  38  62  88 119 158 199 248 303 357
#     4  11  21  35  58  87 121 155 197 247 298 356
#     4  11  22  39  61  89 122 155 198 251 304 356
#
# _framework density 20.548041999999999
#
# number of rings (size 3 to 8) (size 9 to 14) (size 15 to 20)
#    0.000    1.091    0.000    9.273    0.000    4.364 
#    0.000    1.818    0.000    1.091    0.000    0.000 
#    0.000    0.000    0.000    0.000    0.000    0.000 
#
# Total GULP energy -545276.270677 kJ/mol
# GULP energy per Si atom -12392.642515 kJ/mol
# Density = 2.050127 g / cm^3
# Si number density = 20.548042 Si / 1000 Ang^3
#
#
#
# Elastic Constant Matrix: (Units=GPa)
#
#
# Indices 1 2 3 4 5 6 
#
# 1 64.7691 44.8544 23.3514 0.0000 0.0000 0.0000
# 2 44.8544 113.4533 45.5521 0.0000 0.0000 0.0000
# 3 23.3514 45.5521 94.0739 0.0000 0.0000 0.0000
# 4 0.0000 0.0000 0.0000 -2.1064 0.0000 0.0000
# 5 0.0000 0.0000 0.0000 0.0000 28.3444 0.0000
# 6 0.0000 0.0000 0.0000 0.0000 0.0000 60.6238
#
#
#
# Elastic Compliance Matrix: (Units=1/GPa)
#
#
# Indices 1 2 3 4 5 6 
#
# 1 0.021432 -0.007867 -0.001511 0.000000 0.000000 0.000000
# 2 -0.007867 0.013829 -0.004743 0.000000 0.000000 0.000000
# 3 -0.001511 -0.004743 0.013302 0.000000 0.000000 0.000000
# 4 0.000000 0.000000 0.000000 -0.474744 0.000000 0.000000
# 5 0.000000 0.000000 0.000000 0.000000 0.035280 0.000000
# 6 0.000000 0.000000 0.000000 0.000000 0.000000 0.016495
#
#
# Mechanical properties :
#
#
# Convention : Reuss Voigt Hill
#
# Bulk Modulus (GPa) = 49.21049 55.53467 52.37258
# Shear Modulus (GPa) = -14.73230 27.94158 6.60464
#
# Velocity S-wave (km/s) = -2.68053 3.69157 1.79478
# Velocity P-wave (km/s) = 3.79745 6.72723 5.46243
#
# Compressibility (1/GPa) = 0.02032087
#
# Stress axis : x y z
#
# Youngs Moduli (GPa) = 46.65912 72.31254 75.17775
#
# Poissons Ratio (x) = 0.56886 0.11358
# Poissons Ratio (y) = 0.36705 0.35660
# Poissons Ratio (z) = 0.07049 0.34301
#
# Static dielectric constant tensor:
#      x y z
#    x 5.911810 0.000000 0.000000 
#    y 0.000000 3.954250 0.000000 
#    z 0.000000 0.000000 3.754220 
# 
# 
# High freq. dielectric constant tensor:
#      x y z
#    x 1.799540 0.000000 0.000000 
#    y 0.000000 1.818320 0.000000 
#    z 0.000000 0.000000 1.797360 
# 
# From -- ./inp_files/22296.got.cif
#   From: 2010.03.12/outbox.cif.g09.slc.cpg/sg70_12_cif.got.tgz:22296.got - 2010.04.16 13:46:32.
