data_PCOD8286879
_publ_section_title
;
Structure prediction by ZEFSAII (Michael W. Deem and Ramdas Pophale) SiO2 
 PCOD8286879
Probable space group: I M M M
;
_chemical_formula_sum "Si O2"
_cell_formula_units_Z 96
_cell_length_a 22.934146
_cell_length_b 18.323150
_cell_length_c 17.780763
_cell_angle_alpha 90.000000
_cell_angle_beta 90.000000
_cell_angle_gamma 90.000000
_cell_volume 7471.935308
_symmetry_space_group_name_H-M "I M M M"
_symmetry_group_IT_number 71
_symmetry_cell_setting 'orthorhombic'
loop_
_space_group_symop_operation_xyz
x,y,z
-x,-y,z
x,-y,-z
-x,y,-z
-x,-y,-z
x,y,-z
-x,y,z
x,-y,z
1/2+x,1/2+y,1/2+z
1/2-x,1/2-y,1/2+z
1/2+x,1/2-y,1/2-z
1/2-x,1/2+y,1/2-z
1/2-x,1/2-y,1/2-z
1/2+x,1/2+y,1/2-z
1/2-x,1/2+y,1/2+z
1/2+x,1/2-y,1/2+z
loop_
_atom_site_type_symbol
_atom_site_label
_atom_site_fract_x
_atom_site_fract_y
_atom_site_fract_z
Si Si1 0.069215 0.580728 0.000000
Si Si2 0.282682 0.581032 0.589038
Si Si3 0.890515 0.824393 0.910385
Si Si4 0.846295 0.413392 0.416740
Si Si5 0.500000 0.418927 0.588923
Si Si6 0.567225 0.915407 0.211080
Si Si7 0.931473 0.673763 0.140281
O O1 0.091287 0.621950 0.926098
O O2 0.096714 0.500000 0.000000
O O3 0.000000 0.575542 0.000000
O O4 0.286998 0.574471 0.500000
O O5 0.294294 0.500000 0.623292
O O6 0.330712 0.638321 0.617594
O O7 0.218288 0.610106 0.611430
O O8 0.896209 0.748980 0.865331
O O9 0.942653 0.876793 0.884070
O O10 0.892547 0.809969 0.000000
O O11 0.859546 0.380771 0.500000
O O12 0.848199 0.500000 0.422118
O O13 0.894560 0.385275 0.358242
O O14 0.500000 0.500000 0.624577
O O15 0.500000 0.425185 0.500000
O O16 0.500000 0.906165 0.188295
O O17 0.583292 0.866234 0.282240
O O18 0.581042 0.000000 0.230040
O O19 0.000000 0.690181 0.131335
#
# Coordination Sequence:
#
# PCOD8286879 Si02
#       7
#     8  16  16  16   8  16  16
#     4   9  16  24  36  48  64  96 134 164 183 208
#     4   8  14  24  38  54  72  95 123 149 178 217
#     4  10  16  23  35  51  73  99 127 155 182 209
#     4   8  14  26  42  57  72  92 118 148 181 222
#     4   9  16  22  32  50  72  96 125 158 183 207
#     4   9  17  27  39  55  74  94 120 153 187 221
#     4  10  17  25  35  50  74  99 126 155 189 213
#
# _framework density 12.848076000000001
#
# number of rings (size 3 to 8) (size 9 to 14) (size 15 to 20)
#    0.000    3.000    1.667    2.000    0.000    4.333 
#    0.000    2.500    0.000    0.000    0.000    0.000 
#    0.000    0.000    0.000    0.000    0.000    2.333 
#
# Total GULP energy -594967.518703 kJ/mol
# GULP energy per Si atom -12395.156640 kJ/mol
# Density = 1.281883 g / cm^3
# Si number density = 12.848076 Si / 1000 Ang^3
#
#
#
# Elastic Constant Matrix: (Units=GPa)
#
#
# Indices 1 2 3 4 5 6 
#
# 1 82.1843 44.4548 47.4150 0.0000 0.0000 0.0000
# 2 44.4548 86.1273 38.1490 0.0000 0.0000 0.0000
# 3 47.4150 38.1490 64.3776 0.0000 0.0000 0.0000
# 4 0.0000 0.0000 0.0000 9.3428 0.0000 0.0000
# 5 0.0000 0.0000 0.0000 0.0000 11.5410 0.0000
# 6 0.0000 0.0000 0.0000 0.0000 0.0000 10.0440
#
#
#
# Elastic Compliance Matrix: (Units=1/GPa)
#
#
# Indices 1 2 3 4 5 6 
#
# 1 0.023229 -0.005982 -0.013564 0.000000 0.000000 0.000000
# 2 -0.005982 0.017283 -0.005836 0.000000 0.000000 0.000000
# 3 -0.013564 -0.005836 0.028982 0.000000 0.000000 0.000000
# 4 0.000000 0.000000 0.000000 0.107034 0.000000 0.000000
# 5 0.000000 0.000000 0.000000 0.000000 0.086648 0.000000
# 6 0.000000 0.000000 0.000000 0.000000 0.000000 0.099562
#
#
# Mechanical properties :
#
#
# Convention : Reuss Voigt Hill
#
# Bulk Modulus (GPa) = 53.38863 54.74741 54.06802
# Shear Modulus (GPa) = 11.91203 13.03025 12.47114
#
# Velocity S-wave (km/s) = 3.04821 3.18807 3.11893
# Velocity P-wave (km/s) = 7.35070 7.50037 7.42591
#
# Compressibility (1/GPa) = 0.01873058
#
# Stress axis : x y z
#
# Youngs Moduli (GPa) = 43.05018 57.85957 34.50470
#
# Poissons Ratio (x) = 0.34610 0.46801
# Poissons Ratio (y) = 0.25751 0.20137
# Poissons Ratio (z) = 0.58392 0.33768
#
# Static dielectric constant tensor:
#      x y z
#    x 2.685620 0.000000 0.000000 
#    y 0.000000 2.578070 0.000000 
#    z 0.000000 0.000000 2.445170 
# 
# 
# High freq. dielectric constant tensor:
#      x y z
#    x 1.478400 0.000000 0.000000 
#    y 0.000000 1.475570 0.000000 
#    z 0.000000 0.000000 1.453490 
# 
# From -- ./inp_files/46541.got.cif
#   From: 2010.06.25/outbox.cif.g09.slc.cpg/sg71_24_cif.got.tgz:46541.got - 2010.06.28 04:59:45.
