data_PCOD8286592
_publ_section_title
;
Structure prediction by ZEFSAII (Michael W. Deem and Ramdas Pophale) SiO2 
 PCOD8286592
Probable space group: F D D D
;
_chemical_formula_sum "Si O2"
_cell_formula_units_Z 128
_cell_length_a 23.192231
_cell_length_b 20.944860
_cell_length_c 13.384665
_cell_angle_alpha 90.000000
_cell_angle_beta 90.000000
_cell_angle_gamma 90.000000
_cell_volume 6501.708521
_symmetry_space_group_name_H-M "F D D D"
_symmetry_group_IT_number 70
_space_group.IT_coordinate_system_code '2'
_symmetry_cell_setting 'orthorhombic'
loop_
_space_group_symop_operation_xyz
x,y,z
1/4-x,1/4-y,z
x,1/4-y,1/4-z
1/4-x,y,1/4-z
-x,-y,-z
3/4+x,3/4+y,-z
-x,3/4+y,3/4+z
3/4+x,-y,3/4+z
x,1/2+y,1/2+z
1/4-x,3/4-y,1/2+z
x,3/4-y,3/4-z
1/4-x,1/2+y,3/4-z
-x,1/2-y,1/2-z
3/4+x,1/4+y,1/2-z
-x,1/4+y,1/4+z
3/4+x,1/2-y,1/4+z
1/2+x,y,1/2+z
3/4-x,1/4-y,1/2+z
1/2+x,1/4-y,3/4-z
3/4-x,y,3/4-z
1/2-x,-y,1/2-z
1/4+x,3/4+y,1/2-z
1/2-x,3/4+y,1/4+z
1/4+x,-y,1/4+z
1/2+x,1/2+y,z
3/4-x,3/4-y,z
1/2+x,3/4-y,1/4-z
3/4-x,1/2+y,1/4-z
1/2-x,1/2-y,-z
1/4+x,1/4+y,-z
1/2-x,1/4+y,3/4+z
1/4+x,1/2-y,3/4+z
loop_
_atom_site_type_symbol
_atom_site_label
_atom_site_fract_x
_atom_site_fract_y
_atom_site_fract_z
Si Si1 0.982377 0.315207 0.985943
Si Si2 0.615269 0.336199 0.510437
Si Si3 0.299857 0.949535 0.764343
Si Si4 0.901762 0.028244 0.181657
O O1 0.965253 0.251230 0.047064
O O2 0.050964 0.320735 0.972539
O O3 0.947044 0.310768 0.882800
O O4 0.964157 0.381738 0.039161
O O5 0.625000 0.315981 0.625000
O O6 0.653414 0.292846 0.436515
O O7 0.634710 0.409472 0.496199
O O8 0.250000 0.000000 0.750000
O O9 0.358330 0.972594 0.713831
#
# Coordination Sequence:
#
# PCOD8286592 Si02
#       4
#    32  32  32  32
#     4  11  22  35  62  89 119 158 194 255 307 359
#     4  11  23  39  59  85 121 161 204 247 293 365
#     4  11  18  36  60  90 122 146 197 257 314 353
#     4  11  22  38  60  90 117 159 203 249 313 360
#
# _framework density 19.687132999999999
#
# number of rings (size 3 to 8) (size 9 to 14) (size 15 to 20)
#    0.000    1.000    5.000    4.500    0.000    3.000 
#    0.000    0.000    0.000    3.000    0.000    0.000 
#    0.000    0.000    0.000    0.000    0.000    0.000 
#
# Total GULP energy -396565.865053 kJ/mol
# GULP energy per Si atom -12392.683283 kJ/mol
# Density = 1.964232 g / cm^3
# Si number density = 19.687133 Si / 1000 Ang^3
#
#
#
# Elastic Constant Matrix: (Units=GPa)
#
#
# Indices 1 2 3 4 5 6 
#
# 1 49.1631 48.0897 7.0165 0.0000 0.0000 0.0000
# 2 48.0897 122.3620 37.6034 0.0000 0.0000 0.0000
# 3 7.0165 37.6034 113.4714 0.0000 0.0000 0.0000
# 4 0.0000 0.0000 0.0000 28.2897 0.0000 0.0000
# 5 0.0000 0.0000 0.0000 0.0000 21.8093 0.0000
# 6 0.0000 0.0000 0.0000 0.0000 0.0000 45.3621
#
#
#
# Elastic Compliance Matrix: (Units=1/GPa)
#
#
# Indices 1 2 3 4 5 6 
#
# 1 0.033702 -0.014034 0.002567 0.000000 0.000000 0.000000
# 2 -0.014034 0.014943 -0.004084 0.000000 0.000000 0.000000
# 3 0.002567 -0.004084 0.010008 0.000000 0.000000 0.000000
# 4 0.000000 0.000000 0.000000 0.035349 0.000000 0.000000
# 5 0.000000 0.000000 0.000000 0.000000 0.045852 0.000000
# 6 0.000000 0.000000 0.000000 0.000000 0.000000 0.022045
#
#
# Mechanical properties :
#
#
# Convention : Reuss Voigt Hill
#
# Bulk Modulus (GPa) = 36.29828 52.26842 44.28335
# Shear Modulus (GPa) = 24.73000 31.91133 28.32067
#
# Velocity S-wave (km/s) = 3.54807 4.03044 3.79692
# Velocity P-wave (km/s) = 5.93823 6.94740 6.46255
#
# Compressibility (1/GPa) = 0.02754952
#
# Stress axis : x y z
#
# Youngs Moduli (GPa) = 29.67217 66.92052 99.92451
#
# Poissons Ratio (x) = 0.93916 -0.25648
# Poissons Ratio (y) = 0.41642 0.40811
# Poissons Ratio (z) = -0.07616 0.27332
#
# Static dielectric constant tensor:
#      x y z
#    x 3.724870 0.000000 0.000000 
#    y 0.000000 3.762830 0.000000 
#    z 0.000000 0.000000 3.771450 
# 
# 
# High freq. dielectric constant tensor:
#      x y z
#    x 1.757000 0.000000 0.000000 
#    y 0.000000 1.778680 0.000000 
#    z 0.000000 0.000000 1.745180 
# 
# From -- ./inp_files/20556.got.cif
#   From: 2010.03.12/outbox.cif.g09.slc.cpg/sg70_11_cif.got.tgz:20556.got - 2010.04.16 13:46:32.
