data_PCOD8286304
_publ_section_title
;
Structure prediction by ZEFSAII (Michael W. Deem and Ramdas Pophale) SiO2 
 PCOD8286304
Probable space group: F D D D
;
_chemical_formula_sum "Si O2"
_cell_formula_units_Z 176
_cell_length_a 26.006604
_cell_length_b 23.776323
_cell_length_c 14.269135
_cell_angle_alpha 90.000000
_cell_angle_beta 90.000000
_cell_angle_gamma 90.000000
_cell_volume 8823.197153
_symmetry_space_group_name_H-M "F D D D"
_symmetry_group_IT_number 70
_space_group.IT_coordinate_system_code '2'
_symmetry_cell_setting 'orthorhombic'
loop_
_space_group_symop_operation_xyz
x,y,z
1/4-x,1/4-y,z
x,1/4-y,1/4-z
1/4-x,y,1/4-z
-x,-y,-z
3/4+x,3/4+y,-z
-x,3/4+y,3/4+z
3/4+x,-y,3/4+z
x,1/2+y,1/2+z
1/4-x,3/4-y,1/2+z
x,3/4-y,3/4-z
1/4-x,1/2+y,3/4-z
-x,1/2-y,1/2-z
3/4+x,1/4+y,1/2-z
-x,1/4+y,1/4+z
3/4+x,1/2-y,1/4+z
1/2+x,y,1/2+z
3/4-x,1/4-y,1/2+z
1/2+x,1/4-y,3/4-z
3/4-x,y,3/4-z
1/2-x,-y,1/2-z
1/4+x,3/4+y,1/2-z
1/2-x,3/4+y,1/4+z
1/4+x,-y,1/4+z
1/2+x,1/2+y,z
3/4-x,3/4-y,z
1/2+x,3/4-y,1/4-z
3/4-x,1/2+y,1/4-z
1/2-x,1/2-y,-z
1/4+x,1/4+y,-z
1/2-x,1/4+y,3/4+z
1/4+x,1/2-y,3/4+z
loop_
_atom_site_type_symbol
_atom_site_label
_atom_site_fract_x
_atom_site_fract_y
_atom_site_fract_z
Si Si1 0.213536 0.803524 0.270634
Si Si2 0.961273 0.875000 0.875000
Si Si3 0.875000 0.875000 0.024618
Si Si4 0.767896 0.740388 0.603485
Si Si5 0.383744 0.494649 0.111983
Si Si6 0.383853 0.598439 0.983902
Si Si7 0.797112 0.625000 0.625000
O O1 0.254508 0.819900 0.351538
O O2 0.242751 0.783351 0.177003
O O3 0.177409 0.753328 0.308652
O O4 0.181644 0.859847 0.248816
O O5 0.926148 0.865693 0.785104
O O6 0.873578 0.820234 0.088048
O O7 0.750000 0.750000 0.500000
O O8 0.829223 0.739148 0.596909
O O9 0.756441 0.676113 0.631161
O O10 0.396885 0.536653 0.025719
O O11 0.375000 0.589473 0.875000
O O12 0.333772 0.625272 0.032862
#
# Coordination Sequence:
#
# PCOD8286304 Si02
#       7
#    32  16  16  32  32  32  16
#     4  12  22  44  70  97 131 176 231 280 340 408
#     4  11  23  44  65  96 136 175 218 280 348 404
#     4  11  26  42  64  95 146 176 215 278 350 409
#     4  11  24  41  68  96 133 173 224 278 345 399
#     4  11  24  43  62  98 136 171 225 279 325 421
#     4  11  21  38  69  95 126 171 221 278 332 390
#     4  10  21  44  59  97 136 162 230 279 310 414
#
# _framework density 19.947417000000002
#
# number of rings (size 3 to 8) (size 9 to 14) (size 15 to 20)
#    0.000    0.909    7.273    1.091    2.545    2.182 
#    6.545    0.000    0.000    2.182    0.000    0.000 
#    0.000    0.000    0.000    0.000    0.000    0.000 
#
# Total GULP energy -545288.435397 kJ/mol
# GULP energy per Si atom -12392.918986 kJ/mol
# Density = 1.990202 g / cm^3
# Si number density = 19.947417 Si / 1000 Ang^3
#
#
#
# Elastic Constant Matrix: (Units=GPa)
#
#
# Indices 1 2 3 4 5 6 
#
# 1 92.8274 42.5051 55.8872 0.0000 0.0000 0.0000
# 2 42.5051 145.3113 44.3446 0.0000 0.0000 0.0000
# 3 55.8872 44.3446 130.6265 0.0000 0.0000 0.0000
# 4 0.0000 0.0000 0.0000 30.1053 0.0000 0.0000
# 5 0.0000 0.0000 0.0000 0.0000 9.9739 0.0000
# 6 0.0000 0.0000 0.0000 0.0000 0.0000 30.4753
#
#
#
# Elastic Compliance Matrix: (Units=1/GPa)
#
#
# Indices 1 2 3 4 5 6 
#
# 1 0.015464 -0.002794 -0.005668 0.000000 0.000000 0.000000
# 2 -0.002794 0.008182 -0.001582 0.000000 0.000000 0.000000
# 3 -0.005668 -0.001582 0.010617 0.000000 0.000000 0.000000
# 4 0.000000 0.000000 0.000000 0.033217 0.000000 0.000000
# 5 0.000000 0.000000 0.000000 0.000000 0.100261 0.000000
# 6 0.000000 0.000000 0.000000 0.000000 0.000000 0.032814
#
#
# Mechanical properties :
#
#
# Convention : Reuss Voigt Hill
#
# Bulk Modulus (GPa) = 70.54238 72.69321 71.61780
# Shear Modulus (GPa) = 22.18592 29.17944 25.68268
#
# Velocity S-wave (km/s) = 3.33861 3.82883 3.59209
# Velocity P-wave (km/s) = 7.09244 7.48786 7.29283
#
# Compressibility (1/GPa) = 0.01417588
#
# Stress axis : x y z
#
# Youngs Moduli (GPa) = 64.66509 122.22172 94.18445
#
# Poissons Ratio (x) = 0.34147 0.53382
# Poissons Ratio (y) = 0.18066 0.14902
# Poissons Ratio (z) = 0.36651 0.19338
#
# Static dielectric constant tensor:
#      x y z
#    x 3.819280 0.000000 0.000000 
#    y 0.000000 2.898070 0.000000 
#    z 0.000000 0.000000 3.560490 
# 
# 
# High freq. dielectric constant tensor:
#      x y z
#    x 1.781530 0.000000 0.000000 
#    y 0.000000 1.785810 0.000000 
#    z 0.000000 0.000000 1.772190 
# 
# From -- ./inp_files/30040.got.cif
#   From: 2010.03.12/outbox.cif.g09.slc.cpg/sg70_16_cif.got.tgz:30040.got - 2010.04.16 13:46:32.
