data_PCOD8286183
_publ_section_title
;
Structure prediction by ZEFSAII (Michael W. Deem and Ramdas Pophale) SiO2 
 PCOD8286183
Probable space group: F D D D
;
_chemical_formula_sum "Si O2"
_cell_formula_units_Z 240
_cell_length_a 27.160718
_cell_length_b 23.701522
_cell_length_c 18.332395
_cell_angle_alpha 90.000000
_cell_angle_beta 90.000000
_cell_angle_gamma 90.000000
_cell_volume 11801.485793
_symmetry_space_group_name_H-M "F D D D"
_symmetry_group_IT_number 70
_space_group.IT_coordinate_system_code '2'
_symmetry_cell_setting 'orthorhombic'
loop_
_space_group_symop_operation_xyz
x,y,z
1/4-x,1/4-y,z
x,1/4-y,1/4-z
1/4-x,y,1/4-z
-x,-y,-z
3/4+x,3/4+y,-z
-x,3/4+y,3/4+z
3/4+x,-y,3/4+z
x,1/2+y,1/2+z
1/4-x,3/4-y,1/2+z
x,3/4-y,3/4-z
1/4-x,1/2+y,3/4-z
-x,1/2-y,1/2-z
3/4+x,1/4+y,1/2-z
-x,1/4+y,1/4+z
3/4+x,1/2-y,1/4+z
1/2+x,y,1/2+z
3/4-x,1/4-y,1/2+z
1/2+x,1/4-y,3/4-z
3/4-x,y,3/4-z
1/2-x,-y,1/2-z
1/4+x,3/4+y,1/2-z
1/2-x,3/4+y,1/4+z
1/4+x,-y,1/4+z
1/2+x,1/2+y,z
3/4-x,3/4-y,z
1/2+x,3/4-y,1/4-z
3/4-x,1/2+y,1/4-z
1/2-x,1/2-y,-z
1/4+x,1/4+y,-z
1/2-x,1/4+y,3/4+z
1/4+x,1/2-y,3/4+z
loop_
_atom_site_type_symbol
_atom_site_label
_atom_site_fract_x
_atom_site_fract_y
_atom_site_fract_z
Si Si1 0.789245 0.773256 0.160164
Si Si2 0.475396 0.119265 0.409578
Si Si3 0.308483 0.670572 0.565625
Si Si4 0.818205 0.435451 0.854453
Si Si5 0.747380 0.011585 0.446985
Si Si6 0.082800 0.933337 0.353908
Si Si7 0.625000 0.326311 0.125000
Si Si8 0.136427 0.003953 0.761735
O O1 0.758373 0.828779 0.140822
O O2 0.795359 0.734388 0.088995
O O3 0.760855 0.735101 0.218496
O O4 0.841488 0.788239 0.199564
O O5 0.465212 0.090499 0.487462
O O6 0.509247 0.174754 0.419194
O O7 0.423685 0.134205 0.370088
O O8 0.289411 0.625000 0.625000
O O9 0.367660 0.666732 0.560793
O O10 0.794774 0.375000 0.875000
O O11 0.875000 0.436537 0.875000
O O12 0.788983 0.482881 0.897319
O O13 0.821520 0.452139 0.768266
O O14 0.698001 0.974990 0.446382
O O15 0.054810 0.875000 0.375000
O O16 0.089094 0.964339 0.429916
O O17 0.631828 0.287410 0.196600
#
# Coordination Sequence:
#
# PCOD8286183 Si02
#       8
#    32  32  32  32  32  32  16  32
#     4  11  23  39  67  92 125 164 214 263 317 384
#     4  12  24  38  68  94 125 168 214 266 316 386
#     4  10  20  45  67  90 125 167 205 267 332 376
#     4  11  21  36  58  81 120 173 207 242 306 386
#     4  12  23  41  55  96 129 159 212 267 306 375
#     4  10  24  37  64  90 124 162 207 266 319 372
#     4  12  20  42  65  94 127 166 212 268 320 378
#     4  11  20  44  60  87 130 166 206 260 321 380
#
# _framework density 20.336421999999999
#
# number of rings (size 3 to 8) (size 9 to 14) (size 15 to 20)
#    0.000    0.933    6.000    2.400    3.733    1.600 
#    0.000    2.000    0.000    0.000    0.000    0.467 
#    0.000    0.000    0.000    0.000    0.000    0.000 
#
# Total GULP energy -743540.955497 kJ/mol
# GULP energy per Si atom -12392.349258 kJ/mol
# Density = 2.029014 g / cm^3
# Si number density = 20.336422 Si / 1000 Ang^3
#
#
#
# Elastic Constant Matrix: (Units=GPa)
#
#
# Indices 1 2 3 4 5 6 
#
# 1 64.7782 43.6896 29.2178 0.0000 0.0000 0.0000
# 2 43.6896 122.8410 28.4676 0.0000 0.0000 0.0000
# 3 29.2178 28.4676 84.2749 0.0000 0.0000 0.0000
# 4 0.0000 0.0000 0.0000 35.8176 0.0000 0.0000
# 5 0.0000 0.0000 0.0000 0.0000 23.2004 0.0000
# 6 0.0000 0.0000 0.0000 0.0000 0.0000 82.1159
#
#
#
# Elastic Compliance Matrix: (Units=1/GPa)
#
#
# Indices 1 2 3 4 5 6 
#
# 1 0.022448 -0.006705 -0.005518 0.000000 0.000000 0.000000
# 2 -0.006705 0.010835 -0.001335 0.000000 0.000000 0.000000
# 3 -0.005518 -0.001335 0.014230 0.000000 0.000000 0.000000
# 4 0.000000 0.000000 0.000000 0.027919 0.000000 0.000000
# 5 0.000000 0.000000 0.000000 0.000000 0.043103 0.000000
# 6 0.000000 0.000000 0.000000 0.000000 0.000000 0.012178
#
#
# Mechanical properties :
#
#
# Convention : Reuss Voigt Hill
#
# Bulk Modulus (GPa) = 49.02777 52.73821 50.88299
# Shear Modulus (GPa) = 30.37141 39.59473 34.98307
#
# Velocity S-wave (km/s) = 3.86871 4.41725 4.15205
# Velocity P-wave (km/s) = 6.64203 7.21147 6.93260
#
# Compressibility (1/GPa) = 0.02039660
#
# Stress axis : x y z
#
# Youngs Moduli (GPa) = 44.54654 92.29482 70.27431
#
# Poissons Ratio (x) = 0.61886 0.38776
# Poissons Ratio (y) = 0.29870 0.09383
# Poissons Ratio (z) = 0.24580 0.12324
#
# Static dielectric constant tensor:
#      x y z
#    x 5.511550 0.000000 0.000000 
#    y 0.000000 4.093370 0.000000 
#    z 0.000000 0.000000 3.999440 
# 
# 
# High freq. dielectric constant tensor:
#      x y z
#    x 1.778920 0.000000 0.000000 
#    y 0.000000 1.801490 0.000000 
#    z 0.000000 0.000000 1.792340 
# 
# From -- ./inp_files/38992.got.cif
#   From: 2010.03.12/outbox.cif.g09.slc.cpg/sg70_20_cif.got.tgz:38992.got - 2010.04.16 13:46:32.
