data_PCOD8286679
_publ_section_title
;
Structure prediction by ZEFSAII (Michael W. Deem and Ramdas Pophale) SiO2 
 PCOD8286679
Probable space group: F D D D
;
_chemical_formula_sum "Si O2"
_cell_formula_units_Z 208
_cell_length_a 17.340341
_cell_length_b 19.061951
_cell_length_c 27.455102
_cell_angle_alpha 90.000000
_cell_angle_beta 90.000000
_cell_angle_gamma 90.000000
_cell_volume 9075.029470
_symmetry_space_group_name_H-M "F D D D"
_symmetry_group_IT_number 70
_space_group.IT_coordinate_system_code '2'
_symmetry_cell_setting 'orthorhombic'
loop_
_space_group_symop_operation_xyz
x,y,z
1/4-x,1/4-y,z
x,1/4-y,1/4-z
1/4-x,y,1/4-z
-x,-y,-z
3/4+x,3/4+y,-z
-x,3/4+y,3/4+z
3/4+x,-y,3/4+z
x,1/2+y,1/2+z
1/4-x,3/4-y,1/2+z
x,3/4-y,3/4-z
1/4-x,1/2+y,3/4-z
-x,1/2-y,1/2-z
3/4+x,1/4+y,1/2-z
-x,1/4+y,1/4+z
3/4+x,1/2-y,1/4+z
1/2+x,y,1/2+z
3/4-x,1/4-y,1/2+z
1/2+x,1/4-y,3/4-z
3/4-x,y,3/4-z
1/2-x,-y,1/2-z
1/4+x,3/4+y,1/2-z
1/2-x,3/4+y,1/4+z
1/4+x,-y,1/4+z
1/2+x,1/2+y,z
3/4-x,3/4-y,z
1/2+x,3/4-y,1/4-z
3/4-x,1/2+y,1/4-z
1/2-x,1/2-y,-z
1/4+x,1/4+y,-z
1/2-x,1/4+y,3/4+z
1/4+x,1/2-y,3/4+z
loop_
_atom_site_type_symbol
_atom_site_label
_atom_site_fract_x
_atom_site_fract_y
_atom_site_fract_z
Si Si1 0.203722 0.933064 0.599757
Si Si2 0.643210 0.545420 0.226255
Si Si3 0.231284 0.038149 0.325802
Si Si4 0.375000 0.875000 0.766482
Si Si5 0.261192 0.814687 0.910229
Si Si6 0.662914 0.309096 0.347326
Si Si7 0.727647 0.750262 0.754022
O O1 0.125000 0.910732 0.625000
O O2 0.254259 0.863889 0.598764
O O3 0.240718 0.989398 0.635605
O O4 0.196540 0.967362 0.546276
O O5 0.625000 0.625000 0.209157
O O6 0.689812 0.506543 0.182569
O O7 0.694589 0.551543 0.273887
O O8 0.570585 0.496540 0.242963
O O9 0.171736 0.004297 0.364321
O O10 0.319520 0.929980 0.794677
O O11 0.315484 0.824922 0.736657
O O12 0.293050 0.875000 0.875000
O O13 0.172315 0.827692 0.922641
O O14 0.698706 0.375000 0.375000
O O15 0.710799 0.301160 0.298598
#
# Coordination Sequence:
#
# PCOD8286679 Si02
#       7
#    32  32  32  16  32  32  32
#     4  12  24  45  74 105 142 192 248 305 370 451
#     4  11  24  48  79 102 143 194 251 316 384 453
#     4  11  27  46  73 108 139 193 252 314 374 448
#     4  12  25  46  74 110 150 200 254 306 381 476
#     4  11  22  44  75  99 145 197 240 299 378 453
#     4  11  28  47  70 108 148 196 248 314 379 452
#     4  12  26  45  74 110 149 198 247 310 381 453
#
# _framework density 22.920034999999999
#
# number of rings (size 3 to 8) (size 9 to 14) (size 15 to 20)
#    0.000    0.615    4.615    2.077    6.462    1.846 
#    0.000    1.538    0.000    0.000    0.000    0.000 
#    0.000    0.000    0.000    0.000    0.000    0.000 
#
# Total GULP energy -644478.656715 kJ/mol
# GULP energy per Si atom -12393.820321 kJ/mol
# Density = 2.286787 g / cm^3
# Si number density = 22.920035 Si / 1000 Ang^3
#
#
#
# Elastic Constant Matrix: (Units=GPa)
#
#
# Indices 1 2 3 4 5 6 
#
# 1 111.8654 47.6664 21.2294 0.0000 0.0000 0.0000
# 2 47.6664 135.7532 11.5265 0.0000 0.0000 0.0000
# 3 21.2294 11.5265 66.4711 0.0000 0.0000 0.0000
# 4 0.0000 0.0000 0.0000 29.7313 0.0000 0.0000
# 5 0.0000 0.0000 0.0000 0.0000 22.8788 0.0000
# 6 0.0000 0.0000 0.0000 0.0000 0.0000 39.9150
#
#
#
# Elastic Compliance Matrix: (Units=1/GPa)
#
#
# Indices 1 2 3 4 5 6 
#
# 1 0.011035 -0.003629 -0.002895 0.000000 0.000000 0.000000
# 2 -0.003629 0.008670 -0.000344 0.000000 0.000000 0.000000
# 3 -0.002895 -0.000344 0.016028 0.000000 0.000000 0.000000
# 4 0.000000 0.000000 0.000000 0.033635 0.000000 0.000000
# 5 0.000000 0.000000 0.000000 0.000000 0.043709 0.000000
# 6 0.000000 0.000000 0.000000 0.000000 0.000000 0.025053
#
#
# Mechanical properties :
#
#
# Convention : Reuss Voigt Hill
#
# Bulk Modulus (GPa) = 45.46167 52.77047 49.11607
# Shear Modulus (GPa) = 31.40736 34.08287 32.74511
#
# Velocity S-wave (km/s) = 3.70577 3.86039 3.78387
# Velocity P-wave (km/s) = 6.17967 6.55316 6.36915
#
# Compressibility (1/GPa) = 0.02199655
#
# Stress axis : x y z
#
# Youngs Moduli (GPa) = 90.62076 115.34383 62.38893
#
# Poissons Ratio (x) = 0.41857 0.18062
# Poissons Ratio (y) = 0.32885 0.02149
# Poissons Ratio (z) = 0.26235 0.03972
#
# Static dielectric constant tensor:
#      x y z
#    x 4.440920 0.000000 0.000000 
#    y 0.000000 4.433640 0.000000 
#    z 0.000000 0.000000 4.086250 
# 
# 
# High freq. dielectric constant tensor:
#      x y z
#    x 1.918010 0.000000 0.000000 
#    y 0.000000 1.913050 0.000000 
#    z 0.000000 0.000000 1.890370 
# 
# From -- ./inp_files/59623.got.cif
#   From: 2010.03.12/outbox.cif.g09.slc.cpg/sg70_30_cif.got.tgz:59623.got - 2010.04.16 13:46:32.
