data_PCOD8286065
_publ_section_title
;
Structure prediction by ZEFSAII (Michael W. Deem and Ramdas Pophale) SiO2 
 PCOD8286065
Probable space group: F D D D
;
_chemical_formula_sum "Si O2"
_cell_formula_units_Z 160
_cell_length_a 35.137944
_cell_length_b 22.048123
_cell_length_c 10.428512
_cell_angle_alpha 90.000000
_cell_angle_beta 90.000000
_cell_angle_gamma 90.000000
_cell_volume 8079.236377
_symmetry_space_group_name_H-M "F D D D"
_symmetry_group_IT_number 70
_space_group.IT_coordinate_system_code '2'
_symmetry_cell_setting 'orthorhombic'
loop_
_space_group_symop_operation_xyz
x,y,z
1/4-x,1/4-y,z
x,1/4-y,1/4-z
1/4-x,y,1/4-z
-x,-y,-z
3/4+x,3/4+y,-z
-x,3/4+y,3/4+z
3/4+x,-y,3/4+z
x,1/2+y,1/2+z
1/4-x,3/4-y,1/2+z
x,3/4-y,3/4-z
1/4-x,1/2+y,3/4-z
-x,1/2-y,1/2-z
3/4+x,1/4+y,1/2-z
-x,1/4+y,1/4+z
3/4+x,1/2-y,1/4+z
1/2+x,y,1/2+z
3/4-x,1/4-y,1/2+z
1/2+x,1/4-y,3/4-z
3/4-x,y,3/4-z
1/2-x,-y,1/2-z
1/4+x,3/4+y,1/2-z
1/2-x,3/4+y,1/4+z
1/4+x,-y,1/4+z
1/2+x,1/2+y,z
3/4-x,3/4-y,z
1/2+x,3/4-y,1/4-z
3/4-x,1/2+y,1/4-z
1/2-x,1/2-y,-z
1/4+x,1/4+y,-z
1/2-x,1/4+y,3/4+z
1/4+x,1/2-y,3/4+z
loop_
_atom_site_type_symbol
_atom_site_label
_atom_site_fract_x
_atom_site_fract_y
_atom_site_fract_z
Si Si1 0.790483 0.554545 0.624010
Si Si2 0.055790 0.488351 0.414776
Si Si3 0.491030 0.346473 0.740205
Si Si4 0.523992 0.785336 0.596611
Si Si5 0.629581 0.427277 0.979874
O O1 0.780029 0.625000 0.625000
O O2 0.755821 0.518015 0.560632
O O3 0.795493 0.527534 0.768217
O O4 0.828810 0.543567 0.542445
O O5 0.044192 0.558513 0.432815
O O6 0.054639 0.466546 0.266826
O O7 0.098851 0.480471 0.462053
O O8 0.028120 0.445840 0.498080
O O9 0.501652 0.400802 0.644336
O O10 0.478340 0.375000 0.875000
O O11 0.622457 0.375000 0.875000
O O12 0.625000 0.401314 0.125000
#
# Coordination Sequence:
#
# PCOD8286065 Si02
#       5
#    32  32  32  32  32
#     4  10  23  37  60  86 124 152 200 250 302 360
#     4  10  21  35  60  86 118 156 201 245 300 353
#     4   9  19  33  61  84 118 152 205 246 291 354
#     4  10  20  38  61  88 113 162 198 246 303 355
#     4  11  26  38  60  88 126 157 197 252 308 360
#
# _framework density 19.803851000000002
#
# number of rings (size 3 to 8) (size 9 to 14) (size 15 to 20)
#    0.000    2.000    0.000    3.000   19.600    0.000 
#    0.000    1.000    0.000    0.000    0.000    4.200 
#    0.000    0.000    0.000    0.000    0.000    0.000 
#
# Total GULP energy -496004.710484 kJ/mol
# GULP energy per Si atom -12400.117762 kJ/mol
# Density = 1.975878 g / cm^3
# Si number density = 19.803851 Si / 1000 Ang^3
#
#
#
# Elastic Constant Matrix: (Units=GPa)
#
#
# Indices 1 2 3 4 5 6 
#
# 1 82.7591 35.6600 43.4614 0.0000 0.0000 0.0000
# 2 35.6600 89.2285 13.6871 0.0000 0.0000 0.0000
# 3 43.4614 13.6871 101.8541 0.0001 0.0000 0.0000
# 4 0.0000 0.0000 0.0001 25.8081 0.0000 0.0000
# 5 0.0000 0.0000 0.0000 0.0000 28.5348 0.0000
# 6 0.0000 0.0000 0.0000 0.0000 0.0000 17.8430
#
#
#
# Elastic Compliance Matrix: (Units=1/GPa)
#
#
# Indices 1 2 3 4 5 6 
#
# 1 0.018505 -0.006315 -0.007048 0.000000 0.000000 0.000000
# 2 -0.006315 0.013598 0.000867 0.000000 0.000000 0.000000
# 3 -0.007048 0.000867 0.012709 0.000000 0.000000 0.000000
# 4 0.000000 0.000000 0.000000 0.038748 0.000000 0.000000
# 5 0.000000 0.000000 0.000000 0.000000 0.035045 0.000000
# 6 0.000000 0.000000 0.000000 0.000000 0.000000 0.056044
#
#
# Mechanical properties :
#
#
# Convention : Reuss Voigt Hill
#
# Bulk Modulus (GPa) = 50.45002 51.05099 50.75050
# Shear Modulus (GPa) = 24.24290 26.50605 25.37448
#
# Velocity S-wave (km/s) = 3.50258 3.66242 3.58339
# Velocity P-wave (km/s) = 6.47206 6.61201 6.54241
#
# Compressibility (1/GPa) = 0.01982160
#
# Stress axis : x y z
#
# Youngs Moduli (GPa) = 54.03868 73.54154 78.68617
#
# Poissons Ratio (x) = 0.46438 0.55456
# Poissons Ratio (y) = 0.34123 -0.06823
# Poissons Ratio (z) = 0.38085 -0.06377
#
# Static dielectric constant tensor:
#      x y z
#    x 3.438560 0.000000 0.000000 
#    y 0.000000 3.596660 0.000000 
#    z 0.000000 0.000000 3.727330 
# 
# 
# High freq. dielectric constant tensor:
#      x y z
#    x 1.746010 0.000000 0.000000 
#    y 0.000000 1.759970 0.000000 
#    z 0.000000 0.000000 1.790210 
# 
# From -- ./inp_files/22158.got.cif
#   From: 2010.03.12/outbox.cif.g09.slc.cpg/sg70_12_cif.got.tgz:22158.got - 2010.04.16 13:46:32.
