data_PCOD8286982
_publ_section_title
;
Structure prediction by ZEFSAII (Michael W. Deem and Ramdas Pophale) SiO2 
 PCOD8286982
Probable space group: I M M M
;
_chemical_formula_sum "Si O2"
_cell_formula_units_Z 80
_cell_length_a 24.161483
_cell_length_b 9.076895
_cell_length_c 19.910171
_cell_angle_alpha 90.000000
_cell_angle_beta 90.000000
_cell_angle_gamma 90.000000
_cell_volume 4366.524375
_symmetry_space_group_name_H-M "I M M M"
_symmetry_group_IT_number 71
_symmetry_cell_setting 'orthorhombic'
loop_
_space_group_symop_operation_xyz
x,y,z
-x,-y,z
x,-y,-z
-x,y,-z
-x,-y,-z
x,y,-z
-x,y,z
x,-y,z
1/2+x,1/2+y,1/2+z
1/2-x,1/2-y,1/2+z
1/2+x,1/2-y,1/2-z
1/2-x,1/2+y,1/2-z
1/2-x,1/2-y,1/2-z
1/2+x,1/2+y,1/2-z
1/2-x,1/2+y,1/2+z
1/2+x,1/2-y,1/2+z
loop_
_atom_site_type_symbol
_atom_site_label
_atom_site_fract_x
_atom_site_fract_y
_atom_site_fract_z
Si Si1 0.310773 0.676337 0.744967
Si Si2 0.365390 0.334922 0.607968
Si Si3 0.435397 0.828471 0.500000
Si Si4 0.774089 0.843350 0.000000
Si Si5 0.884255 0.175196 0.368932
Si Si6 0.671660 0.329098 0.000000
Si Si7 0.500000 0.675078 0.077824
O O1 0.302369 0.500000 0.745421
O O2 0.250000 0.750000 0.750000
O O3 0.345705 0.728466 0.679716
O O4 0.350803 0.734396 0.804581
O O5 0.390114 0.500000 0.615523
O O6 0.410698 0.237418 0.569109
O O7 0.309836 0.337160 0.566149
O O8 0.500000 0.794210 0.500000
O O9 0.421833 0.000000 0.500000
O O10 0.736502 0.700032 0.000000
O O11 0.741057 0.000000 0.000000
O O12 0.853947 0.242614 0.433772
O O13 0.947662 0.229384 0.377581
O O14 0.881916 0.000000 0.367098
O O15 0.658553 0.500000 0.000000
O O16 0.500000 0.500000 0.072060
O O17 0.500000 0.735531 0.000000
#
# Coordination Sequence:
#
# PCOD8286982 Si02
#       7
#    16  16   8   8  16   8   8
#     4  10  20  34  51  77 110 141 176 216 260 314
#     4   9  19  35  52  73 104 138 172 212 262 317
#     4  10  21  37  58  81 102 129 172 223 272 326
#     4   9  17  29  45  65  92 127 164 202 247 305
#     4   9  17  28  45  71 101 131 167 209 251 296
#     4  10  17  26  44  72  99 126 165 210 252 293
#     4   9  14  26  46  68 100 133 160 207 263 294
#
# _framework density 18.321207999999999
#
# number of rings (size 3 to 8) (size 9 to 14) (size 15 to 20)
#    0.000    2.600    1.000    2.100    0.000    3.200 
#    1.800    0.000    0.000    0.000    0.000    2.800 
#    0.000    0.000    0.000    0.000    0.000    0.000 
#
# Total GULP energy -495534.850640 kJ/mol
# GULP energy per Si atom -12388.371266 kJ/mol
# Density = 1.827951 g / cm^3
# Si number density = 18.321208 Si / 1000 Ang^3
#
#
#
# Elastic Constant Matrix: (Units=GPa)
#
#
# Indices 1 2 3 4 5 6 
#
# 1 143.1878 39.6097 81.2184 0.0000 0.0000 0.0000
# 2 39.6097 39.5309 32.4611 0.0000 0.0000 0.0000
# 3 81.2184 32.4611 174.6495 0.0000 0.0000 0.0000
# 4 0.0000 0.0000 0.0000 19.4702 0.0000 0.0000
# 5 0.0000 0.0000 0.0000 0.0000 1201.7048 0.0000
# 6 0.0000 0.0000 0.0000 0.0000 0.0000 22.9326
#
#
#
# Elastic Compliance Matrix: (Units=1/GPa)
#
#
# Indices 1 2 3 4 5 6 
#
# 1 0.011431 -0.008366 -0.003761 0.000000 0.000000 0.000000
# 2 -0.008366 0.035975 -0.002796 0.000000 0.000000 0.000000
# 3 -0.003761 -0.002796 0.007995 0.000000 0.000000 0.000000
# 4 0.000000 0.000000 0.000000 0.051360 0.000000 0.000000
# 5 0.000000 0.000000 0.000000 0.000000 0.000832 0.000000
# 6 0.000000 0.000000 0.000000 0.000000 0.000000 0.043606
#
#
# Mechanical properties :
#
#
# Convention : Reuss Voigt Hill
#
# Bulk Modulus (GPa) = 39.13112 73.77186 56.45149
# Shear Modulus (GPa) = 26.37630 262.42678 144.40154
#
# Velocity S-wave (km/s) = 3.79840 11.98113 8.88750
# Velocity P-wave (km/s) = 6.37510 15.22334 11.67030
#
# Compressibility (1/GPa) = 0.02555511
#
# Stress axis : x y z
#
# Youngs Moduli (GPa) = 87.47833 27.79697 125.08575
#
# Poissons Ratio (x) = 0.23254 0.47046
# Poissons Ratio (y) = 0.73182 0.34975
# Poissons Ratio (z) = 0.32902 0.07772
#
# Static dielectric constant tensor:
#      x y z
#    x 3.395480 0.000000 0.000000 
#    y 0.000000 3.089480 0.000000 
#    z 0.000000 0.000000 4.141240 
# 
# 
# High freq. dielectric constant tensor:
#      x y z
#    x 1.710830 0.000000 0.000000 
#    y 0.000000 1.667570 0.000000 
#    z 0.000000 0.000000 1.722110 
# 
# From -- ./inp_files/10318.got.cif
#   From: 2010.06.25/outbox.cif.g09.slc.cpg/sg71_6_cif.got.tgz:10318.got - 2010.06.28 04:59:45.
