data_PCOD8286222
_publ_section_title
;
Structure prediction by ZEFSAII (Michael W. Deem and Ramdas Pophale) SiO2 
 PCOD8286222
Probable space group: F D D D
;
_chemical_formula_sum "Si O2"
_cell_formula_units_Z 168
_cell_length_a 20.312128
_cell_length_b 20.981500
_cell_length_c 19.524531
_cell_angle_alpha 90.000000
_cell_angle_beta 90.000000
_cell_angle_gamma 90.000000
_cell_volume 8320.943411
_symmetry_space_group_name_H-M "F D D D"
_symmetry_group_IT_number 70
_space_group.IT_coordinate_system_code '2'
_symmetry_cell_setting 'orthorhombic'
loop_
_space_group_symop_operation_xyz
x,y,z
1/4-x,1/4-y,z
x,1/4-y,1/4-z
1/4-x,y,1/4-z
-x,-y,-z
3/4+x,3/4+y,-z
-x,3/4+y,3/4+z
3/4+x,-y,3/4+z
x,1/2+y,1/2+z
1/4-x,3/4-y,1/2+z
x,3/4-y,3/4-z
1/4-x,1/2+y,3/4-z
-x,1/2-y,1/2-z
3/4+x,1/4+y,1/2-z
-x,1/4+y,1/4+z
3/4+x,1/2-y,1/4+z
1/2+x,y,1/2+z
3/4-x,1/4-y,1/2+z
1/2+x,1/4-y,3/4-z
3/4-x,y,3/4-z
1/2-x,-y,1/2-z
1/4+x,3/4+y,1/2-z
1/2-x,3/4+y,1/4+z
1/4+x,-y,1/4+z
1/2+x,1/2+y,z
3/4-x,3/4-y,z
1/2+x,3/4-y,1/4-z
3/4-x,1/2+y,1/4-z
1/2-x,1/2-y,-z
1/4+x,1/4+y,-z
1/2-x,1/4+y,3/4+z
1/4+x,1/2-y,3/4+z
loop_
_atom_site_type_symbol
_atom_site_label
_atom_site_fract_x
_atom_site_fract_y
_atom_site_fract_z
Si Si1 0.454715 0.940133 0.232094
Si Si2 0.722692 0.041074 0.937934
Si Si3 0.157004 0.029636 0.729308
Si Si4 0.193323 0.544324 0.781913
Si Si5 0.487443 0.179876 0.333291
Si Si6 0.125000 0.625000 0.125000
O O1 0.382435 0.972723 0.232808
O O2 0.454201 0.865094 0.247536
O O3 0.496922 0.946331 0.162226
O O4 0.486823 0.977585 0.295349
O O5 0.693303 0.037174 0.863026
O O6 0.766437 0.105514 0.937505
O O7 0.666640 0.043226 0.995619
O O8 0.203595 0.035501 0.794124
O O9 0.173275 0.081975 0.671436
O O10 0.168447 0.960908 0.692318
O O11 0.250000 0.500000 0.750000
#
# Coordination Sequence:
#
# PCOD8286222 Si02
#       6
#    32  32  32  32  32   8
#     4  10  22  41  67  89 120 170 206 253 324 376
#     4  11  21  41  64  88 127 166 205 257 314 376
#     4  11  21  35  58  92 127 162 196 247 304 375
#     4  10  23  43  64  89 122 162 215 268 312 365
#     4  10  21  38  59  90 127 162 201 243 308 379
#     4  12  20  32  60  92 128 160 210 250 314 388
#
# _framework density 20.190017999999998
#
# number of rings (size 3 to 8) (size 9 to 14) (size 15 to 20)
#    0.000    1.524    3.810    1.143    0.000    3.048 
#    0.000    5.714    0.000    0.000    0.000    0.000 
#    0.000    0.000    0.000    0.000    0.000    0.000 
#
# Total GULP energy -520323.977185 kJ/mol
# GULP energy per Si atom -12388.666123 kJ/mol
# Density = 2.014406 g / cm^3
# Si number density = 20.190018 Si / 1000 Ang^3
#
#
#
# Elastic Constant Matrix: (Units=GPa)
#
#
# Indices 1 2 3 4 5 6 
#
# 1 57.0650 42.3584 20.8399 0.0000 0.0000 0.0000
# 2 42.3584 105.1093 31.2507 0.0000 0.0000 0.0000
# 3 20.8399 31.2507 26.8677 0.0000 0.0000 0.0000
# 4 0.0000 0.0000 0.0000 40.7448 0.0000 0.0000
# 5 0.0000 0.0000 0.0000 0.0000 26.6463 0.0000
# 6 0.0000 0.0000 0.0000 0.0000 0.0000 35.9109
#
#
#
# Elastic Compliance Matrix: (Units=1/GPa)
#
#
# Indices 1 2 3 4 5 6 
#
# 1 0.027681 -0.007294 -0.012987 0.000000 0.000000 0.000000
# 2 -0.007294 0.016465 -0.013494 0.000000 0.000000 0.000000
# 3 -0.012987 -0.013494 0.062987 0.000000 0.000000 0.000000
# 4 0.000000 0.000000 0.000000 0.024543 0.000000 0.000000
# 5 0.000000 0.000000 0.000000 0.000000 0.037529 0.000000
# 6 0.000000 0.000000 0.000000 0.000000 0.000000 0.027847
#
#
# Mechanical properties :
#
#
# Convention : Reuss Voigt Hill
#
# Bulk Modulus (GPa) = 25.26221 41.99333 33.62777
# Shear Modulus (GPa) = 17.99887 26.96660 22.48273
#
# Velocity S-wave (km/s) = 2.98899 3.65861 3.34062
# Velocity P-wave (km/s) = 4.94485 6.22024 5.61885
#
# Compressibility (1/GPa) = 0.03958481
#
# Stress axis : x y z
#
# Youngs Moduli (GPa) = 36.12619 60.73403 15.87621
#
# Poissons Ratio (x) = 0.44300 0.20618
# Poissons Ratio (y) = 0.26351 0.21423
# Poissons Ratio (z) = 0.46916 0.81952
#
# Static dielectric constant tensor:
#      x y z
#    x 3.631220 0.000000 0.000000 
#    y 0.000000 4.166320 0.000000 
#    z 0.000000 0.000000 3.718480 
# 
# 
# High freq. dielectric constant tensor:
#      x y z
#    x 1.776840 0.000000 0.000000 
#    y 0.000000 1.788080 0.000000 
#    z 0.000000 0.000000 1.794750 
# 
# From -- ./inp_files/44831.got.cif
#   From: 2010.03.12/outbox.cif.g09.slc.cpg/sg70_23_cif.got.tgz:44831.got - 2010.04.16 13:46:32.
