data_PCOD8286888
_publ_section_title
;
Structure prediction by ZEFSAII (Michael W. Deem and Ramdas Pophale) SiO2 
 PCOD8286888
Probable space group: I M M M
;
_chemical_formula_sum "Si O2"
_cell_formula_units_Z 88
_cell_length_a 8.678930
_cell_length_b 23.868002
_cell_length_c 31.018011
_cell_angle_alpha 90.000000
_cell_angle_beta 90.000000
_cell_angle_gamma 90.000000
_cell_volume 6425.341232
_symmetry_space_group_name_H-M "I M M M"
_symmetry_group_IT_number 71
_symmetry_cell_setting 'orthorhombic'
loop_
_space_group_symop_operation_xyz
x,y,z
-x,-y,z
x,-y,-z
-x,y,-z
-x,-y,-z
x,y,-z
-x,y,z
x,-y,z
1/2+x,1/2+y,1/2+z
1/2-x,1/2-y,1/2+z
1/2+x,1/2-y,1/2-z
1/2-x,1/2+y,1/2-z
1/2-x,1/2-y,1/2-z
1/2+x,1/2+y,1/2-z
1/2-x,1/2+y,1/2+z
1/2+x,1/2-y,1/2+z
loop_
_atom_site_type_symbol
_atom_site_label
_atom_site_fract_x
_atom_site_fract_y
_atom_site_fract_z
Si Si1 0.316363 0.435227 0.500000
Si Si2 0.817309 0.184393 0.164112
Si Si3 0.317643 0.718504 0.791121
Si Si4 0.825359 0.500000 0.271898
Si Si5 0.317216 0.394121 0.590366
Si Si6 0.678833 0.123225 0.246127
Si Si7 0.179767 0.000000 0.138996
O O1 0.256197 0.500000 0.500000
O O2 0.500000 0.437244 0.500000
O O3 0.254435 0.400060 0.541429
O O4 0.745464 0.246970 0.167681
O O5 0.768769 0.162051 0.116395
O O6 0.755579 0.142271 0.201049
O O7 0.000000 0.187418 0.169579
O O8 0.500000 0.718360 0.791385
O O9 0.250000 0.750000 0.750000
O O10 0.254888 0.654903 0.787363
O O11 0.796186 0.556888 0.244802
O O12 0.706760 0.500000 0.310601
O O13 0.000000 0.500000 0.289891
O O14 0.500000 0.397890 0.589489
O O15 0.245547 0.445534 0.617234
O O16 0.500000 0.139216 0.243421
O O17 0.000000 0.000000 0.129801
#
# Coordination Sequence:
#
# PCOD8286888 Si02
#       7
#     8  16  16   8  16  16   8
#     4   9  14  22  34  52  78 100 120 155 198 231
#     4  10  17  26  39  55  72  93 122 157 191 224
#     4  10  18  28  40  54  70  92 119 151 188 223
#     4  10  20  28  37  55  77 100 122 149 189 228
#     4   9  16  23  36  55  74  96 124 158 197 230
#     4  10  18  28  39  54  74  96 120 149 184 223
#     4  10  16  25  38  54  72  94 126 162 191 225
#
# _framework density 13.69577
#
# number of rings (size 3 to 8) (size 9 to 14) (size 15 to 20)
#    0.000    2.273    2.727    4.909    0.000    0.727 
#    0.000    0.000    0.000    0.000    0.000    6.364 
#    0.000    0.000    0.000    0.000    0.000    0.909 
#
# Total GULP energy -545098.362842 kJ/mol
# GULP energy per Si atom -12388.599156 kJ/mol
# Density = 1.366460 g / cm^3
# Si number density = 13.695770 Si / 1000 Ang^3
#
#
#
# Elastic Constant Matrix: (Units=GPa)
#
#
# Indices 1 2 3 4 5 6 
#
# 1 62.5542 32.7008 22.9038 0.0000 0.0000 0.0000
# 2 32.7008 105.1642 57.9239 0.0000 0.0000 0.0000
# 3 22.9038 57.9239 75.7702 0.0000 0.0000 0.0000
# 4 0.0000 0.0000 0.0000 23.6121 0.0000 0.0000
# 5 0.0000 0.0000 0.0000 0.0000 8.1495 0.0000
# 6 0.0000 0.0000 0.0000 0.0000 0.0000 16.0339
#
#
#
# Elastic Compliance Matrix: (Units=1/GPa)
#
#
# Indices 1 2 3 4 5 6 
#
# 1 0.019290 -0.004813 -0.002151 0.000000 0.000000 0.000000
# 2 -0.004813 0.017626 -0.012019 0.000000 0.000000 0.000000
# 3 -0.002151 -0.012019 0.023037 0.000000 0.000000 0.000000
# 4 0.000000 0.000000 0.000000 0.042351 0.000000 0.000000
# 5 0.000000 0.000000 0.000000 0.000000 0.122706 0.000000
# 6 0.000000 0.000000 0.000000 0.000000 0.000000 0.062368
#
#
# Mechanical properties :
#
#
# Convention : Reuss Voigt Hill
#
# Bulk Modulus (GPa) = 45.48706 52.28283 48.88495
# Shear Modulus (GPa) = 15.02972 18.22312 16.62642
#
# Velocity S-wave (km/s) = 3.31629 3.65165 3.48800
# Velocity P-wave (km/s) = 6.92447 7.48577 7.21058
#
# Compressibility (1/GPa) = 0.02198427
#
# Stress axis : x y z
#
# Youngs Moduli (GPa) = 51.84028 56.73474 43.40908
#
# Poissons Ratio (x) = 0.27308 0.09339
# Poissons Ratio (y) = 0.24952 0.52175
# Poissons Ratio (z) = 0.11153 0.68192
#
# Static dielectric constant tensor:
#      x y z
#    x 2.628230 0.000000 0.000000 
#    y 0.000000 3.143680 0.000000 
#    z 0.000000 0.000000 2.726620 
# 
# 
# High freq. dielectric constant tensor:
#      x y z
#    x 1.517680 0.000000 0.000000 
#    y 0.000000 1.514130 0.000000 
#    z 0.000000 0.000000 1.476350 
# 
# From -- ./inp_files/68532.got.cif
#   From: 2010.06.25/outbox.cif.g09.slc.cpg/sg71_35_cif.got.tgz:68532.got - 2010.06.28 04:59:45.
