data_PCOD8286591
_publ_section_title
;
Structure prediction by ZEFSAII (Michael W. Deem and Ramdas Pophale) SiO2 
 PCOD8286591
Probable space group: F D D D
;
_chemical_formula_sum "Si O2"
_cell_formula_units_Z 168
_cell_length_a 14.897815
_cell_length_b 20.140826
_cell_length_c 25.779210
_cell_angle_alpha 90.000000
_cell_angle_beta 90.000000
_cell_angle_gamma 90.000000
_cell_volume 7735.162803
_symmetry_space_group_name_H-M "F D D D"
_symmetry_group_IT_number 70
_space_group.IT_coordinate_system_code '2'
_symmetry_cell_setting 'orthorhombic'
loop_
_space_group_symop_operation_xyz
x,y,z
1/4-x,1/4-y,z
x,1/4-y,1/4-z
1/4-x,y,1/4-z
-x,-y,-z
3/4+x,3/4+y,-z
-x,3/4+y,3/4+z
3/4+x,-y,3/4+z
x,1/2+y,1/2+z
1/4-x,3/4-y,1/2+z
x,3/4-y,3/4-z
1/4-x,1/2+y,3/4-z
-x,1/2-y,1/2-z
3/4+x,1/4+y,1/2-z
-x,1/4+y,1/4+z
3/4+x,1/2-y,1/4+z
1/2+x,y,1/2+z
3/4-x,1/4-y,1/2+z
1/2+x,1/4-y,3/4-z
3/4-x,y,3/4-z
1/2-x,-y,1/2-z
1/4+x,3/4+y,1/2-z
1/2-x,3/4+y,1/4+z
1/4+x,-y,1/4+z
1/2+x,1/2+y,z
3/4-x,3/4-y,z
1/2+x,3/4-y,1/4-z
3/4-x,1/2+y,1/4-z
1/2-x,1/2-y,-z
1/4+x,1/4+y,-z
1/2-x,1/4+y,3/4+z
1/4+x,1/2-y,3/4+z
loop_
_atom_site_type_symbol
_atom_site_label
_atom_site_fract_x
_atom_site_fract_y
_atom_site_fract_z
Si Si1 0.875000 0.875000 0.875000
Si Si2 0.462905 0.620346 0.441199
Si Si3 0.436081 0.531239 0.284266
Si Si4 0.806174 0.493973 0.629469
Si Si5 0.700985 0.079451 0.204022
Si Si6 0.745524 0.482377 0.421179
O O1 0.812149 0.825787 0.843521
O O2 0.359299 0.595621 0.438486
O O3 0.529827 0.576126 0.405832
O O4 0.499563 0.619051 0.500147
O O5 0.457041 0.696209 0.423453
O O6 0.515957 0.503986 0.321064
O O7 0.349584 0.484847 0.273770
O O8 0.470249 0.545380 0.227423
O O9 0.767877 0.557852 0.659100
O O10 0.912931 0.506511 0.630950
O O11 0.625000 0.125000 0.178112
#
# Coordination Sequence:
#
# PCOD8286591 Si02
#       6
#     8  32  32  32  32  32
#     4  12  36  52  72  88 138 208 238 320 340 418
#     4  11  20  42  73 105 145 186 223 302 359 421
#     4  11  23  40  72 111 143 178 241 289 361 437
#     4  11  23  40  72 108 143 184 233 294 352 436
#     4  11  18  35  65 114 149 182 215 285 373 418
#     4  12  26  53  68  98 140 190 250 289 369 424
#
# _framework density 21.719000000000001
#
# number of rings (size 3 to 8) (size 9 to 14) (size 15 to 20)
#    0.000    0.762    5.714    4.000    2.667    4.571 
#    3.429    1.905    0.000    0.000    0.000    0.000 
#    0.000    0.000    0.000    0.000    0.000    0.000 
#
# Total GULP energy -520605.852779 kJ/mol
# GULP energy per Si atom -12395.377447 kJ/mol
# Density = 2.166957 g / cm^3
# Si number density = 21.719000 Si / 1000 Ang^3
#
#
#
# Elastic Constant Matrix: (Units=GPa)
#
#
# Indices 1 2 3 4 5 6 
#
# 1 122.0501 43.8459 50.9282 0.0000 0.0000 0.0000
# 2 43.8459 115.4806 11.6579 0.0000 0.0000 0.0000
# 3 50.9282 11.6579 82.7542 0.0000 0.0000 0.0000
# 4 0.0000 0.0000 0.0000 21.9901 0.0000 0.0000
# 5 0.0000 0.0000 0.0000 0.0000 18.7638 0.0000
# 6 0.0000 0.0000 0.0000 0.0000 0.0000 35.3711
#
#
#
# Elastic Compliance Matrix: (Units=1/GPa)
#
#
# Indices 1 2 3 4 5 6 
#
# 1 0.012675 -0.004083 -0.007225 0.000000 0.000000 0.000000
# 2 -0.004083 0.010100 0.001090 0.000000 0.000000 0.000000
# 3 -0.007225 0.001090 0.016377 0.000000 0.000000 0.000000
# 4 0.000000 0.000000 0.000000 0.045475 0.000000 0.000000
# 5 0.000000 0.000000 0.000000 0.000000 0.053294 0.000000
# 6 0.000000 0.000000 0.000000 0.000000 0.000000 0.028272
#
#
# Mechanical properties :
#
#
# Convention : Reuss Voigt Hill
#
# Bulk Modulus (GPa) = 53.43281 59.23877 56.33579
# Shear Modulus (GPa) = 25.92450 29.48185 27.70317
#
# Velocity S-wave (km/s) = 3.45865 3.68832 3.57533
# Velocity P-wave (km/s) = 6.37220 6.74333 6.56039
#
# Compressibility (1/GPa) = 0.01871509
#
# Stress axis : x y z
#
# Youngs Moduli (GPa) = 78.89488 99.01283 61.06141
#
# Poissons Ratio (x) = 0.40428 0.44118
# Poissons Ratio (y) = 0.32214 -0.06656
# Poissons Ratio (z) = 0.57004 -0.10793
#
# Static dielectric constant tensor:
#      x y z
#    x 4.156770 0.000000 0.000000 
#    y 0.000000 4.179010 0.000000 
#    z 0.000000 0.000000 3.744440 
# 
# 
# High freq. dielectric constant tensor:
#      x y z
#    x 1.842770 0.000000 0.000000 
#    y 0.000000 1.854820 0.000000 
#    z 0.000000 0.000000 1.843700 
# 
# From -- ./inp_files/42828.got.cif
#   From: 2010.03.12/outbox.cif.g09.slc.cpg/sg70_22_cif.got.tgz:42828.got - 2010.04.16 13:46:32.
