data_PCOD8286581
_publ_section_title
;
Structure prediction by ZEFSAII (Michael W. Deem and Ramdas Pophale) SiO2 
 PCOD8286581
Probable space group: F D D D
;
_chemical_formula_sum "Si O2"
_cell_formula_units_Z 176
_cell_length_a 23.708754
_cell_length_b 15.026295
_cell_length_c 21.915361
_cell_angle_alpha 90.000000
_cell_angle_beta 90.000000
_cell_angle_gamma 90.000000
_cell_volume 7807.451053
_symmetry_space_group_name_H-M "F D D D"
_symmetry_group_IT_number 70
_space_group.IT_coordinate_system_code '2'
_symmetry_cell_setting 'orthorhombic'
loop_
_space_group_symop_operation_xyz
x,y,z
1/4-x,1/4-y,z
x,1/4-y,1/4-z
1/4-x,y,1/4-z
-x,-y,-z
3/4+x,3/4+y,-z
-x,3/4+y,3/4+z
3/4+x,-y,3/4+z
x,1/2+y,1/2+z
1/4-x,3/4-y,1/2+z
x,3/4-y,3/4-z
1/4-x,1/2+y,3/4-z
-x,1/2-y,1/2-z
3/4+x,1/4+y,1/2-z
-x,1/4+y,1/4+z
3/4+x,1/2-y,1/4+z
1/2+x,y,1/2+z
3/4-x,1/4-y,1/2+z
1/2+x,1/4-y,3/4-z
3/4-x,y,3/4-z
1/2-x,-y,1/2-z
1/4+x,3/4+y,1/2-z
1/2-x,3/4+y,1/4+z
1/4+x,-y,1/4+z
1/2+x,1/2+y,z
3/4-x,3/4-y,z
1/2+x,3/4-y,1/4-z
3/4-x,1/2+y,1/4-z
1/2-x,1/2-y,-z
1/4+x,1/4+y,-z
1/2-x,1/4+y,3/4+z
1/4+x,1/2-y,3/4+z
loop_
_atom_site_type_symbol
_atom_site_label
_atom_site_fract_x
_atom_site_fract_y
_atom_site_fract_z
Si Si1 0.001800 0.914730 0.231651
Si Si2 0.574989 0.572957 0.562077
Si Si3 0.958995 0.125000 0.125000
Si Si4 0.683182 0.679270 0.889257
Si Si5 0.867487 0.626009 0.809055
Si Si6 0.012649 0.392163 0.242699
O O1 0.069077 0.924890 0.228805
O O2 0.981949 0.830720 0.272279
O O3 0.975205 0.900835 0.164701
O O4 0.984215 0.002548 0.269159
O O5 0.625000 0.625000 0.525397
O O6 0.565994 0.625000 0.625000
O O7 0.592934 0.472303 0.571723
O O8 0.920789 0.214706 0.130827
O O9 0.999185 0.122659 0.184992
O O10 0.625000 0.625000 0.886702
O O11 0.715513 0.658723 0.953043
O O12 0.875000 0.671366 0.875000
O O13 0.924316 0.640657 0.771627
#
# Coordination Sequence:
#
# PCOD8286581 Si02
#       6
#    32  32  16  32  32  32
#     4  11  24  41  66 102 134 180 229 284 355 423
#     4  11  20  38  62  92 140 181 218 277 348 416
#     4  10  26  48  69  98 140 185 226 302 350 410
#     4  11  25  46  74 100 138 180 234 294 355 420
#     4  12  22  41  66  94 138 185 226 287 345 423
#     4  11  24  46  69  98 138 177 239 287 351 418
#
# _framework density 22.542569
#
# number of rings (size 3 to 8) (size 9 to 14) (size 15 to 20)
#    0.000    0.909    5.455    1.636    5.091    0.000 
#    1.636    0.455    2.000    0.000    0.000    0.000 
#    0.000    0.000    0.000    0.000    0.000    0.000 
#
# Total GULP energy -545309.288919 kJ/mol
# GULP energy per Si atom -12393.392930 kJ/mol
# Density = 2.249126 g / cm^3
# Si number density = 22.542569 Si / 1000 Ang^3
#
#
#
# Elastic Constant Matrix: (Units=GPa)
#
#
# Indices 1 2 3 4 5 6 
#
# 1 147.6610 24.0792 42.9252 0.0000 0.0000 0.0000
# 2 24.0792 85.2291 28.7679 0.0000 0.0000 0.0000
# 3 42.9252 28.7679 111.8432 0.0000 0.0000 0.0000
# 4 0.0000 0.0000 0.0000 15.6481 0.0000 0.0000
# 5 0.0000 0.0000 0.0000 0.0000 37.6664 0.0000
# 6 0.0000 0.0000 0.0000 0.0000 0.0000 21.6729
#
#
#
# Elastic Compliance Matrix: (Units=1/GPa)
#
#
# Indices 1 2 3 4 5 6 
#
# 1 0.007752 -0.001299 -0.002641 0.000000 0.000000 0.000000
# 2 -0.001299 0.013066 -0.002862 0.000000 0.000000 0.000000
# 3 -0.002641 -0.002862 0.010691 0.000000 0.000000 0.000000
# 4 0.000000 0.000000 0.000000 0.063906 0.000000 0.000000
# 5 0.000000 0.000000 0.000000 0.000000 0.026549 0.000000
# 6 0.000000 0.000000 0.000000 0.000000 0.000000 0.046141
#
#
# Mechanical properties :
#
#
# Convention : Reuss Voigt Hill
#
# Bulk Modulus (GPa) = 55.85128 59.58641 57.71885
# Shear Modulus (GPa) = 26.64159 31.59488 29.11823
#
# Velocity S-wave (km/s) = 3.44151 3.74781 3.59792
# Velocity P-wave (km/s) = 6.37352 6.72446 6.55134
#
# Compressibility (1/GPa) = 0.01790469
#
# Stress axis : x y z
#
# Youngs Moduli (GPa) = 129.00226 76.53372 93.53657
#
# Poissons Ratio (x) = 0.09939 0.24704
# Poissons Ratio (y) = 0.16752 0.26774
# Poissons Ratio (z) = 0.34071 0.21907
#
# Static dielectric constant tensor:
#      x y z
#    x 4.006190 0.000000 0.000000 
#    y 0.000000 4.083540 0.000000 
#    z 0.000000 0.000000 4.181930 
# 
# 
# High freq. dielectric constant tensor:
#      x y z
#    x 1.873510 0.000000 0.000000 
#    y 0.000000 1.885690 0.000000 
#    z 0.000000 0.000000 1.898720 
# 
# From -- ./inp_files/53646.got.cif
#   From: 2010.03.12/outbox.cif.g09.slc.cpg/sg70_27_cif.got.tgz:53646.got - 2010.04.16 13:46:32.
