data_PCOD8286289
_publ_section_title
;
Structure prediction by ZEFSAII (Michael W. Deem and Ramdas Pophale) SiO2 
 PCOD8286289
Probable space group: F D D D
;
_chemical_formula_sum "Si O2"
_cell_formula_units_Z 240
_cell_length_a 26.537024
_cell_length_b 19.184862
_cell_length_c 22.087029
_cell_angle_alpha 90.000000
_cell_angle_beta 90.000000
_cell_angle_gamma 90.000000
_cell_volume 11244.708413
_symmetry_space_group_name_H-M "F D D D"
_symmetry_group_IT_number 70
_space_group.IT_coordinate_system_code '2'
_symmetry_cell_setting 'orthorhombic'
loop_
_space_group_symop_operation_xyz
x,y,z
1/4-x,1/4-y,z
x,1/4-y,1/4-z
1/4-x,y,1/4-z
-x,-y,-z
3/4+x,3/4+y,-z
-x,3/4+y,3/4+z
3/4+x,-y,3/4+z
x,1/2+y,1/2+z
1/4-x,3/4-y,1/2+z
x,3/4-y,3/4-z
1/4-x,1/2+y,3/4-z
-x,1/2-y,1/2-z
3/4+x,1/4+y,1/2-z
-x,1/4+y,1/4+z
3/4+x,1/2-y,1/4+z
1/2+x,y,1/2+z
3/4-x,1/4-y,1/2+z
1/2+x,1/4-y,3/4-z
3/4-x,y,3/4-z
1/2-x,-y,1/2-z
1/4+x,3/4+y,1/2-z
1/2-x,3/4+y,1/4+z
1/4+x,-y,1/4+z
1/2+x,1/2+y,z
3/4-x,3/4-y,z
1/2+x,3/4-y,1/4-z
3/4-x,1/2+y,1/4-z
1/2-x,1/2-y,-z
1/4+x,1/4+y,-z
1/2-x,1/4+y,3/4+z
1/4+x,1/2-y,3/4+z
loop_
_atom_site_type_symbol
_atom_site_label
_atom_site_fract_x
_atom_site_fract_y
_atom_site_fract_z
Si Si1 0.815659 0.870100 0.995042
Si Si2 0.307348 0.988370 0.159578
Si Si3 0.429337 0.690114 0.857571
Si Si4 0.842219 0.703945 0.618829
Si Si5 0.442934 0.773084 0.748326
Si Si6 0.759028 0.490896 0.552622
Si Si7 0.004800 0.625000 0.625000
Si Si8 0.486247 0.845535 0.052221
O O1 0.875000 0.875000 0.985845
O O2 0.790190 0.889959 0.931716
O O3 0.800011 0.793792 0.022549
O O4 0.796558 0.927029 0.042415
O O5 0.288924 0.930124 0.113269
O O6 0.366907 0.998760 0.152500
O O7 0.278811 0.060031 0.146013
O O8 0.375000 0.657703 0.875000
O O9 0.419572 0.758044 0.814658
O O10 0.457191 0.713032 0.918859
O O11 0.461293 0.633634 0.819352
O O12 0.860621 0.625000 0.625000
O O13 0.838966 0.727523 0.549262
O O14 0.787149 0.709887 0.649198
O O15 0.500000 0.750000 0.750000
O O16 0.444817 0.854527 0.730141
O O17 0.747581 0.530995 0.491041
#
# Coordination Sequence:
#
# PCOD8286289 Si02
#       8
#    32  32  32  32  32  32  16  32
#     4  12  25  48  73 102 138 184 236 291 361 423
#     4  12  25  45  72 101 137 186 237 290 349 416
#     4  11  25  46  67 104 144 183 229 288 358 424
#     4  12  23  41  73 102 134 187 237 283 347 428
#     4  10  21  42  66  98 139 174 224 285 342 414
#     4  12  24  44  71  99 140 181 231 287 353 424
#     4  12  27  50  66 102 144 176 237 302 352 416
#     4  11  24  46  69 100 140 183 227 287 348 417
#
# _framework density 21.343373
#
# number of rings (size 3 to 8) (size 9 to 14) (size 15 to 20)
#    0.000    0.533    7.333    2.200    1.867    0.000 
#    4.800    0.667    0.000    0.000    0.000    0.000 
#    0.000    0.000    0.000    0.000    0.000    0.000 
#
# Total GULP energy -743900.621098 kJ/mol
# GULP energy per Si atom -12398.343685 kJ/mol
# Density = 2.129479 g / cm^3
# Si number density = 21.343373 Si / 1000 Ang^3
#
#
#
# Elastic Constant Matrix: (Units=GPa)
#
#
# Indices 1 2 3 4 5 6 
#
# 1 105.6886 33.8488 36.4481 0.0000 0.0000 0.0000
# 2 33.8488 95.3099 28.5649 0.0000 0.0000 0.0000
# 3 36.4481 28.5649 93.5603 0.0000 0.0000 0.0000
# 4 0.0000 0.0000 0.0000 45.3736 0.0000 0.0000
# 5 0.0000 0.0000 0.0000 0.0000 4.1533 0.0000
# 6 0.0000 0.0000 0.0000 0.0000 0.0000 25.7275
#
#
#
# Elastic Compliance Matrix: (Units=1/GPa)
#
#
# Indices 1 2 3 4 5 6 
#
# 1 0.011692 -0.003068 -0.003618 0.000000 0.000000 0.000000
# 2 -0.003068 0.012354 -0.002577 0.000000 0.000000 0.000000
# 3 -0.003618 -0.002577 0.012884 0.000000 0.000000 0.000000
# 4 0.000000 0.000000 0.000000 0.022039 0.000000 0.000000
# 5 0.000000 0.000000 0.000000 0.000000 0.240775 0.000000
# 6 0.000000 0.000000 0.000000 0.000000 0.000000 0.038869
#
#
# Mechanical properties :
#
#
# Convention : Reuss Voigt Hill
#
# Bulk Modulus (GPa) = 54.33315 54.69804 54.51560
# Shear Modulus (GPa) = 13.76373 28.09734 20.93053
#
# Velocity S-wave (km/s) = 2.54219 3.63222 3.13494
# Velocity P-wave (km/s) = 5.84199 6.57829 6.22105
#
# Compressibility (1/GPa) = 0.01840497
#
# Stress axis : x y z
#
# Youngs Moduli (GPa) = 85.52768 80.94616 77.61270
#
# Poissons Ratio (x) = 0.24834 0.28082
# Poissons Ratio (y) = 0.26240 0.19998
# Poissons Ratio (z) = 0.30946 0.20856
#
# Static dielectric constant tensor:
#      x y z
#    x 3.619080 0.000000 0.000000 
#    y 0.000000 4.048500 0.000000 
#    z 0.000000 0.000000 4.249120 
# 
# 
# High freq. dielectric constant tensor:
#      x y z
#    x 1.835080 0.000000 0.000000 
#    y 0.000000 1.837300 0.000000 
#    z 0.000000 0.000000 1.845060 
# 
# From -- ./inp_files/47122.got.cif
#   From: 2010.03.12/outbox.cif.g09.slc.cpg/sg70_24_cif.got.tgz:47122.got - 2010.04.16 13:46:32.
