data_PCOD8286855
_publ_section_title
;
Structure prediction by ZEFSAII (Michael W. Deem and Ramdas Pophale) SiO2 
 PCOD8286855
Probable space group: F D D D
;
_chemical_formula_sum "Si O2"
_cell_formula_units_Z 72
_cell_length_a 18.342246
_cell_length_b 22.186904
_cell_length_c 7.212953
_cell_angle_alpha 90.000000
_cell_angle_beta 90.000000
_cell_angle_gamma 90.000000
_cell_volume 2935.366411
_symmetry_space_group_name_H-M "F D D D"
_symmetry_group_IT_number 70
_space_group.IT_coordinate_system_code '2'
_symmetry_cell_setting 'orthorhombic'
loop_
_space_group_symop_operation_xyz
x,y,z
1/4-x,1/4-y,z
x,1/4-y,1/4-z
1/4-x,y,1/4-z
-x,-y,-z
3/4+x,3/4+y,-z
-x,3/4+y,3/4+z
3/4+x,-y,3/4+z
x,1/2+y,1/2+z
1/4-x,3/4-y,1/2+z
x,3/4-y,3/4-z
1/4-x,1/2+y,3/4-z
-x,1/2-y,1/2-z
3/4+x,1/4+y,1/2-z
-x,1/4+y,1/4+z
3/4+x,1/2-y,1/4+z
1/2+x,y,1/2+z
3/4-x,1/4-y,1/2+z
1/2+x,1/4-y,3/4-z
3/4-x,y,3/4-z
1/2-x,-y,1/2-z
1/4+x,3/4+y,1/2-z
1/2-x,3/4+y,1/4+z
1/4+x,-y,1/4+z
1/2+x,1/2+y,z
3/4-x,3/4-y,z
1/2+x,3/4-y,1/4-z
3/4-x,1/2+y,1/4-z
1/2-x,1/2-y,-z
1/4+x,1/4+y,-z
1/2-x,1/4+y,3/4+z
1/4+x,1/2-y,3/4+z
loop_
_atom_site_type_symbol
_atom_site_label
_atom_site_fract_x
_atom_site_fract_y
_atom_site_fract_z
Si Si1 0.082880 0.207035 0.454163
Si Si2 0.625000 0.625000 0.125000
Si Si3 0.825509 0.060467 0.047768
O O1 0.125000 0.173481 0.625000
O O2 0.079224 0.167985 0.263367
O O3 0.128478 0.268691 0.434442
O O4 0.999621 0.224006 0.499805
O O5 0.801970 0.125000 0.125000
O O6 0.875000 0.074551 0.875000
#
# Coordination Sequence:
#
# PCOD8286855 Si02
#       3
#    32   8  32
#     4  12  27  50  76 115 155 206 258 320 384 460
#     4  12  26  44  80 110 164 196 268 306 396 454
#     4  12  27  49  78 114 157 204 262 319 387 460
#
# _framework density 24.528454
#
# number of rings (size 3 to 8) (size 9 to 14) (size 15 to 20)
#    0.000    0.000    2.222    7.333    3.111    0.000 
#    0.000    0.000    0.000    0.000    0.000    0.000 
#    0.000    0.000    0.000    0.000    0.000    0.000 
#
# Total GULP energy -223124.378538 kJ/mol
# GULP energy per Si atom -12395.798808 kJ/mol
# Density = 2.447263 g / cm^3
# Si number density = 24.528454 Si / 1000 Ang^3
#
#
#
# Elastic Constant Matrix: (Units=GPa)
#
#
# Indices 1 2 3 4 5 6 
#
# 1 222.2369 58.1956 57.7552 -0.0546 -0.0023 0.0002
# 2 58.1956 137.2492 33.0380 -0.0126 -0.0016 0.0001
# 3 57.7552 33.0380 152.7526 -0.1293 -0.0106 0.0021
# 4 -0.0546 -0.0126 -0.1293 1386.6470 0.0861 -0.0470
# 5 -0.0023 -0.0016 -0.0106 0.0861 22.7156 -0.0035
# 6 0.0002 0.0001 0.0021 -0.0470 -0.0035 13.0170
#
#
#
# Elastic Compliance Matrix: (Units=1/GPa)
#
#
# Indices 1 2 3 4 5 6 
#
# 1 0.005425 -0.001906 -0.001639 0.000000 0.000000 0.000000
# 2 -0.001906 0.008356 -0.001087 0.000000 0.000000 0.000000
# 3 -0.001639 -0.001087 0.007401 0.000001 0.000003 -0.000001
# 4 0.000000 0.000000 0.000001 0.000721 -0.000003 0.000003
# 5 0.000000 0.000000 0.000003 -0.000003 0.044023 0.000012
# 6 0.000000 0.000000 -0.000001 0.000003 0.000012 0.076823
#
#
# Mechanical properties :
#
#
# Convention : Reuss Voigt Hill
#
# Bulk Modulus (GPa) = 83.89890 90.02403 86.96147
# Shear Modulus (GPa) = 32.05474 308.69259 170.37367
#
# Velocity S-wave (km/s) = 3.61894 11.23050 8.34328
# Velocity P-wave (km/s) = 7.19314 14.31597 11.32891
#
# Compressibility (1/GPa) = 0.01191911
#
# Stress axis : x y z
#
# Youngs Moduli (GPa) = 184.34450 119.68014 135.11283
#
# Poissons Ratio (x) = 0.22806 0.22143
# Poissons Ratio (y) = 0.35129 0.14682
# Poissons Ratio (z) = 0.30212 0.13005
#
# Static dielectric constant tensor:
#      x y z
#    x 4.226740 0.000000 0.000010 
#    y 0.000000 4.357880 -0.000010 
#    z 0.000010 -0.000010 4.814500 
# 
# 
# High freq. dielectric constant tensor:
#      x y z
#    x 1.976020 0.000000 0.000000 
#    y 0.000000 1.979600 0.000000 
#    z 0.000000 0.000000 1.996350 
# 
# From -- ./inp_files/5932.got.cif
#   From: 2010.03.12/outbox.cif.g09.slc.cpg/sg70_3_cif.got.tgz:5932.got - 2010.04.16 13:46:32.
