data_PCOD8286446
_publ_section_title
;
Structure prediction by ZEFSAII (Michael W. Deem and Ramdas Pophale) SiO2 
 PCOD8286446
Probable space group: F D D D
;
_chemical_formula_sum "Si O2"
_cell_formula_units_Z 64
_cell_length_a 11.525490
_cell_length_b 7.152548
_cell_length_c 24.927651
_cell_angle_alpha 90.000000
_cell_angle_beta 90.000000
_cell_angle_gamma 90.000000
_cell_volume 2054.951304
_symmetry_space_group_name_H-M "F D D D"
_symmetry_group_IT_number 70
_space_group.IT_coordinate_system_code '2'
_symmetry_cell_setting 'orthorhombic'
loop_
_space_group_symop_operation_xyz
x,y,z
1/4-x,1/4-y,z
x,1/4-y,1/4-z
1/4-x,y,1/4-z
-x,-y,-z
3/4+x,3/4+y,-z
-x,3/4+y,3/4+z
3/4+x,-y,3/4+z
x,1/2+y,1/2+z
1/4-x,3/4-y,1/2+z
x,3/4-y,3/4-z
1/4-x,1/2+y,3/4-z
-x,1/2-y,1/2-z
3/4+x,1/4+y,1/2-z
-x,1/4+y,1/4+z
3/4+x,1/2-y,1/4+z
1/2+x,y,1/2+z
3/4-x,1/4-y,1/2+z
1/2+x,1/4-y,3/4-z
3/4-x,y,3/4-z
1/2-x,-y,1/2-z
1/4+x,3/4+y,1/2-z
1/2-x,3/4+y,1/4+z
1/4+x,-y,1/4+z
1/2+x,1/2+y,z
3/4-x,3/4-y,z
1/2+x,3/4-y,1/4-z
3/4-x,1/2+y,1/4-z
1/2-x,1/2-y,-z
1/4+x,1/4+y,-z
1/2-x,1/4+y,3/4+z
1/4+x,1/2-y,3/4+z
loop_
_atom_site_type_symbol
_atom_site_label
_atom_site_fract_x
_atom_site_fract_y
_atom_site_fract_z
Si Si1 0.188142 0.380364 0.180569
Si Si2 0.628192 0.415805 0.294770
O O1 0.125000 0.399091 0.125000
O O2 0.275107 0.205415 0.175510
O O3 0.251973 0.576257 0.193176
O O4 0.098480 0.338870 0.230033
O O5 0.625000 0.625000 0.318720
#
# Coordination Sequence:
#
# PCOD8286446 Si02
#       2
#    32  32
#     4  10  23  46  84 126 174 220 276 357 422 501
#     4  10  22  46  83 128 172 216 285 348 419 514
#
# _framework density 31.144290000000002
#
# number of rings (size 3 to 8) (size 9 to 14) (size 15 to 20)
#    0.000    2.000    0.000    1.500    0.000    3.000 
#    0.000   20.000   77.000    0.000    0.000    0.000 
#    0.000    0.000    0.000    0.000    0.000    0.000 
#
# Total GULP energy -198642.322428 kJ/mol
# GULP energy per Si atom -12415.145152 kJ/mol
# Density = 3.107340 g / cm^3
# Si number density = 31.144290 Si / 1000 Ang^3
#
#
#
# Elastic Constant Matrix: (Units=GPa)
#
#
# Indices 1 2 3 4 5 6 
#
# 1 44.9694 27.7394 54.9090 0.0000 0.0000 0.0000
# 2 27.7394 303.4288 46.0992 0.0000 0.0000 0.0000
# 3 54.9090 46.0992 212.1132 0.0000 0.0000 0.0000
# 4 0.0000 0.0000 0.0000 30.4014 0.0000 0.0000
# 5 0.0000 0.0000 0.0000 0.0000 30.3755 0.0000
# 6 0.0000 0.0000 0.0000 0.0000 0.0000 7.2671
#
#
#
# Elastic Compliance Matrix: (Units=1/GPa)
#
#
# Indices 1 2 3 4 5 6 
#
# 1 0.033441 -0.001801 -0.008265 0.000000 0.000000 0.000000
# 2 -0.001801 0.003505 -0.000295 0.000000 0.000000 0.000000
# 3 -0.008265 -0.000295 0.006918 0.000000 0.000000 0.000000
# 4 0.000000 0.000000 0.000000 0.032893 0.000000 0.000000
# 5 0.000000 0.000000 0.000000 0.000000 0.032921 0.000000
# 6 0.000000 0.000000 0.000000 0.000000 0.000000 0.137607
#
#
# Mechanical properties :
#
#
# Convention : Reuss Voigt Hill
#
# Bulk Modulus (GPa) = 43.21524 90.88961 67.05243
# Shear Modulus (GPa) = 18.13413 42.39303 30.26358
#
# Velocity S-wave (km/s) = 2.41563 3.69342 3.12063
# Velocity P-wave (km/s) = 4.65685 6.88732 5.87884
#
# Compressibility (1/GPa) = 0.02313998
#
# Stress axis : x y z
#
# Youngs Moduli (GPa) = 29.90380 285.28692 144.54532
#
# Poissons Ratio (x) = 0.51392 1.19469
# Poissons Ratio (y) = 0.05387 0.04271
# Poissons Ratio (z) = 0.24716 0.08430
#
# Static dielectric constant tensor:
#      x y z
#    x 6.113910 0.000000 0.000000 
#    y 0.000000 6.416840 0.000000 
#    z 0.000000 0.000000 5.666880 
# 
# 
# High freq. dielectric constant tensor:
#      x y z
#    x 2.293330 0.000000 0.000000 
#    y 0.000000 2.311100 0.000000 
#    z 0.000000 0.000000 2.280070 
# 
# From -- ./inp_files/23376.got.cif
#   From: 2010.03.12/outbox.cif.g09.slc.cpg/sg70_12_cif.got.tgz:23376.got - 2010.04.16 13:46:32.
