data_PCOD8286500
_publ_section_title
;
Structure prediction by ZEFSAII (Michael W. Deem and Ramdas Pophale) SiO2 
 PCOD8286500
Probable space group: F D D D
;
_chemical_formula_sum "Si O2"
_cell_formula_units_Z 208
_cell_length_a 17.372701
_cell_length_b 22.751956
_cell_length_c 24.713568
_cell_angle_alpha 90.000000
_cell_angle_beta 90.000000
_cell_angle_gamma 90.000000
_cell_volume 9768.357268
_symmetry_space_group_name_H-M "F D D D"
_symmetry_group_IT_number 70
_space_group.IT_coordinate_system_code '2'
_symmetry_cell_setting 'orthorhombic'
loop_
_space_group_symop_operation_xyz
x,y,z
1/4-x,1/4-y,z
x,1/4-y,1/4-z
1/4-x,y,1/4-z
-x,-y,-z
3/4+x,3/4+y,-z
-x,3/4+y,3/4+z
3/4+x,-y,3/4+z
x,1/2+y,1/2+z
1/4-x,3/4-y,1/2+z
x,3/4-y,3/4-z
1/4-x,1/2+y,3/4-z
-x,1/2-y,1/2-z
3/4+x,1/4+y,1/2-z
-x,1/4+y,1/4+z
3/4+x,1/2-y,1/4+z
1/2+x,y,1/2+z
3/4-x,1/4-y,1/2+z
1/2+x,1/4-y,3/4-z
3/4-x,y,3/4-z
1/2-x,-y,1/2-z
1/4+x,3/4+y,1/2-z
1/2-x,3/4+y,1/4+z
1/4+x,-y,1/4+z
1/2+x,1/2+y,z
3/4-x,3/4-y,z
1/2+x,3/4-y,1/4-z
3/4-x,1/2+y,1/4-z
1/2-x,1/2-y,-z
1/4+x,1/4+y,-z
1/2-x,1/4+y,3/4+z
1/4+x,1/2-y,3/4+z
loop_
_atom_site_type_symbol
_atom_site_label
_atom_site_fract_x
_atom_site_fract_y
_atom_site_fract_z
Si Si1 0.576815 0.502426 0.464795
Si Si2 0.625000 0.125000 0.125000
Si Si3 0.708740 0.707323 0.707273
Si Si4 0.710416 0.566009 0.312528
Si Si5 0.958211 0.440247 0.150937
Si Si6 0.160470 0.870940 0.816017
Si Si7 0.625000 0.125000 0.625000
Si Si8 0.249260 0.939419 0.310893
O O1 0.500000 0.500000 0.500000
O O2 0.648416 0.535621 0.493516
O O3 0.558720 0.536808 0.409426
O O4 0.601955 0.435471 0.457531
O O5 0.673346 0.167744 0.161599
O O6 0.728537 0.770493 0.681400
O O7 0.787067 0.671080 0.723277
O O8 0.737403 0.622151 0.348837
O O9 0.618296 0.559055 0.312733
O O10 0.742110 0.570926 0.252408
O O11 0.746068 0.505622 0.334458
O O12 0.201408 0.875000 0.875000
O O13 0.078419 0.842500 0.827851
O O14 0.675526 0.085020 0.662554
#
# Coordination Sequence:
#
# PCOD8286500 Si02
#       8
#    32   8  32  32  32  32   8  32
#     4  12  27  43  70 110 140 183 254 296 360 447
#     4  12  24  42  66  98 144 174 248 286 352 432
#     4  12  23  43  72 101 134 199 228 300 364 420
#     4  10  23  43  67  97 144 182 228 293 367 426
#     4  11  22  45  68 100 145 189 225 302 367 423
#     4  12  22  46  71  98 142 189 236 295 361 436
#     4  12  24  38  74 102 136 174 252 302 332 448
#     4  11  23  44  68 106 136 187 243 291 364 438
#
# _framework density 21.293243
#
# number of rings (size 3 to 8) (size 9 to 14) (size 15 to 20)
#    0.000    0.615    4.615    3.692    0.000    3.692 
#    0.000    5.385    0.000    0.000    0.000    0.000 
#    0.000    0.000    0.000    0.000    0.000    0.000 
#
# Total GULP energy -644502.360329 kJ/mol
# GULP energy per Si atom -12394.276160 kJ/mol
# Density = 2.124478 g / cm^3
# Si number density = 21.293243 Si / 1000 Ang^3
#
#
#
# Elastic Constant Matrix: (Units=GPa)
#
#
# Indices 1 2 3 4 5 6 
#
# 1 99.7595 59.7248 22.0420 0.0000 0.0000 0.0000
# 2 59.7248 204.7793 53.9998 0.0000 0.0000 0.0000
# 3 22.0420 53.9998 62.3624 0.0000 0.0000 0.0000
# 4 0.0000 0.0000 0.0000 37.2246 0.0000 0.0000
# 5 0.0000 0.0000 0.0000 0.0000 27.8537 0.0000
# 6 0.0000 0.0000 0.0000 0.0000 0.0000 36.1288
#
#
#
# Elastic Compliance Matrix: (Units=1/GPa)
#
#
# Indices 1 2 3 4 5 6 
#
# 1 0.012267 -0.003155 -0.001604 0.000000 0.000000 0.000000
# 2 -0.003155 0.007140 -0.005067 0.000000 0.000000 0.000000
# 3 -0.001604 -0.005067 0.020990 0.000000 0.000000 0.000000
# 4 0.000000 0.000000 0.000000 0.026864 0.000000 0.000000
# 5 0.000000 0.000000 0.000000 0.000000 0.035902 0.000000
# 6 0.000000 0.000000 0.000000 0.000000 0.000000 0.027679
#
#
# Mechanical properties :
#
#
# Convention : Reuss Voigt Hill
#
# Bulk Modulus (GPa) = 48.20508 70.93714 59.57111
# Shear Modulus (GPa) = 31.76449 35.65040 33.70744
#
# Velocity S-wave (km/s) = 3.86653 4.09621 3.98302
# Velocity P-wave (km/s) = 6.52849 7.46717 7.01355
#
# Compressibility (1/GPa) = 0.02074470
#
# Stress axis : x y z
#
# Youngs Moduli (GPa) = 81.51764 140.06360 47.64186
#
# Poissons Ratio (x) = 0.44187 0.07642
# Poissons Ratio (y) = 0.25717 0.24141
# Poissons Ratio (z) = 0.13076 0.70972
#
# Static dielectric constant tensor:
#      x y z
#    x 4.007220 0.000000 0.000000 
#    y 0.000000 4.616410 0.000000 
#    z 0.000000 0.000000 3.748390 
# 
# 
# High freq. dielectric constant tensor:
#      x y z
#    x 1.842150 0.000000 0.000000 
#    y 0.000000 1.862040 0.000000 
#    z 0.000000 0.000000 1.819800 
# 
# From -- ./inp_files/59740.got.cif
#   From: 2010.03.12/outbox.cif.g09.slc.cpg/sg70_30_cif.got.tgz:59740.got - 2010.04.16 13:46:32.
