data_PCOD8286861
_publ_section_title
;
Structure prediction by ZEFSAII (Michael W. Deem and Ramdas Pophale) SiO2 
 PCOD8286861
Probable space group: F D D D
;
_chemical_formula_sum "Si O2"
_cell_formula_units_Z 112
_cell_length_a 29.873119
_cell_length_b 10.301899
_cell_length_c 15.220132
_cell_angle_alpha 90.000000
_cell_angle_beta 90.000000
_cell_angle_gamma 90.000000
_cell_volume 4683.993412
_symmetry_space_group_name_H-M "F D D D"
_symmetry_group_IT_number 70
_space_group.IT_coordinate_system_code '2'
_symmetry_cell_setting 'orthorhombic'
loop_
_space_group_symop_operation_xyz
x,y,z
1/4-x,1/4-y,z
x,1/4-y,1/4-z
1/4-x,y,1/4-z
-x,-y,-z
3/4+x,3/4+y,-z
-x,3/4+y,3/4+z
3/4+x,-y,3/4+z
x,1/2+y,1/2+z
1/4-x,3/4-y,1/2+z
x,3/4-y,3/4-z
1/4-x,1/2+y,3/4-z
-x,1/2-y,1/2-z
3/4+x,1/4+y,1/2-z
-x,1/4+y,1/4+z
3/4+x,1/2-y,1/4+z
1/2+x,y,1/2+z
3/4-x,1/4-y,1/2+z
1/2+x,1/4-y,3/4-z
3/4-x,y,3/4-z
1/2-x,-y,1/2-z
1/4+x,3/4+y,1/2-z
1/2-x,3/4+y,1/4+z
1/4+x,-y,1/4+z
1/2+x,1/2+y,z
3/4-x,3/4-y,z
1/2+x,3/4-y,1/4-z
3/4-x,1/2+y,1/4-z
1/2-x,1/2-y,-z
1/4+x,1/4+y,-z
1/2-x,1/4+y,3/4+z
1/4+x,1/2-y,3/4+z
loop_
_atom_site_type_symbol
_atom_site_label
_atom_site_fract_x
_atom_site_fract_y
_atom_site_fract_z
Si Si1 0.652989 0.285288 0.208615
Si Si2 0.096929 0.375000 0.875000
Si Si3 0.224932 0.258851 0.089771
Si Si4 0.962381 0.916504 0.549793
O O1 0.625000 0.245615 0.125000
O O2 0.627021 0.362887 0.286980
O O3 0.688306 0.381866 0.166228
O O4 0.674367 0.147459 0.238208
O O5 0.063604 0.499452 0.875619
O O6 0.263259 0.294202 0.159011
O O7 0.203221 0.125000 0.125000
O O8 0.250000 0.250000 0.000000
O O9 0.000000 0.000000 0.500000
#
# Coordination Sequence:
#
# PCOD8286861 Si02
#       4
#    32  16  32  32
#     4  12  28  51  77 115 155 199 257 324 391 457
#     4  12  28  48  78 114 157 192 255 332 380 450
#     4  12  26  50  76 108 152 201 256 310 378 466
#     4  12  27  52  78 108 150 206 258 308 386 469
#
# _framework density 23.911221000000001
#
# number of rings (size 3 to 8) (size 9 to 14) (size 15 to 20)
#    0.000    0.000    2.857    6.000    4.000    7.429 
#    0.000    0.000    0.000    0.000    0.000    0.000 
#    0.000    0.000    0.000    0.000    0.000    0.000 
#
# Total GULP energy -347098.342991 kJ/mol
# GULP energy per Si atom -12396.369393 kJ/mol
# Density = 2.385680 g / cm^3
# Si number density = 23.911221 Si / 1000 Ang^3
#
#
#
# Elastic Constant Matrix: (Units=GPa)
#
#
# Indices 1 2 3 4 5 6 
#
# 1 130.5397 59.5888 64.8049 0.0000 0.0000 0.0000
# 2 59.5888 163.9826 59.2160 0.0000 0.0000 0.0000
# 3 64.8049 59.2160 154.3774 0.0000 0.0000 0.0000
# 4 0.0000 0.0000 0.0000 54.8003 0.0000 0.0000
# 5 0.0000 0.0000 0.0000 0.0000 55.2710 0.0000
# 6 0.0000 0.0000 0.0000 0.0000 0.0000 30.4205
#
#
#
# Elastic Compliance Matrix: (Units=1/GPa)
#
#
# Indices 1 2 3 4 5 6 
#
# 1 0.010549 -0.002593 -0.003433 0.000000 0.000000 0.000000
# 2 -0.002593 0.007716 -0.001871 0.000000 0.000000 0.000000
# 3 -0.003433 -0.001871 0.008637 0.000000 0.000000 0.000000
# 4 0.000000 0.000000 0.000000 0.018248 0.000000 0.000000
# 5 0.000000 0.000000 0.000000 0.000000 0.018093 0.000000
# 6 0.000000 0.000000 0.000000 0.000000 0.000000 0.032873
#
#
# Mechanical properties :
#
#
# Convention : Reuss Voigt Hill
#
# Bulk Modulus (GPa) = 90.04304 90.67989 90.36146
# Shear Modulus (GPa) = 43.24770 45.78436 44.51603
#
# Velocity S-wave (km/s) = 4.25747 4.38055 4.31945
# Velocity P-wave (km/s) = 7.86810 7.97443 7.92144
#
# Compressibility (1/GPa) = 0.01110580
#
# Stress axis : x y z
#
# Youngs Moduli (GPa) = 94.79711 129.59554 115.78553
#
# Poissons Ratio (x) = 0.33610 0.39754
# Poissons Ratio (y) = 0.24585 0.21665
# Poissons Ratio (z) = 0.32548 0.24249
#
# Static dielectric constant tensor:
#      x y z
#    x 4.150120 0.000000 0.000000 
#    y 0.000000 3.954030 0.000000 
#    z 0.000000 0.000000 4.365960 
# 
# 
# High freq. dielectric constant tensor:
#      x y z
#    x 1.969450 0.000000 0.000000 
#    y 0.000000 1.967240 0.000000 
#    z 0.000000 0.000000 1.959280 
# 
# From -- ./inp_files/30535.got.cif
#   From: 2010.03.12/outbox.cif.g09.slc.cpg/sg70_16_cif.got.tgz:30535.got - 2010.04.16 13:46:32.
