data_PCOD8286575
_publ_section_title
;
Structure prediction by ZEFSAII (Michael W. Deem and Ramdas Pophale) SiO2 
 PCOD8286575
Probable space group: F D D D
;
_chemical_formula_sum "Si O2"
_cell_formula_units_Z 112
_cell_length_a 13.052182
_cell_length_b 22.969668
_cell_length_c 14.927176
_cell_angle_alpha 90.000000
_cell_angle_beta 90.000000
_cell_angle_gamma 90.000000
_cell_volume 4475.231361
_symmetry_space_group_name_H-M "F D D D"
_symmetry_group_IT_number 70
_space_group.IT_coordinate_system_code '2'
_symmetry_cell_setting 'orthorhombic'
loop_
_space_group_symop_operation_xyz
x,y,z
1/4-x,1/4-y,z
x,1/4-y,1/4-z
1/4-x,y,1/4-z
-x,-y,-z
3/4+x,3/4+y,-z
-x,3/4+y,3/4+z
3/4+x,-y,3/4+z
x,1/2+y,1/2+z
1/4-x,3/4-y,1/2+z
x,3/4-y,3/4-z
1/4-x,1/2+y,3/4-z
-x,1/2-y,1/2-z
3/4+x,1/4+y,1/2-z
-x,1/4+y,1/4+z
3/4+x,1/2-y,1/4+z
1/2+x,y,1/2+z
3/4-x,1/4-y,1/2+z
1/2+x,1/4-y,3/4-z
3/4-x,y,3/4-z
1/2-x,-y,1/2-z
1/4+x,3/4+y,1/2-z
1/2-x,3/4+y,1/4+z
1/4+x,-y,1/4+z
1/2+x,1/2+y,z
3/4-x,3/4-y,z
1/2+x,3/4-y,1/4-z
3/4-x,1/2+y,1/4-z
1/2-x,1/2-y,-z
1/4+x,1/4+y,-z
1/2-x,1/4+y,3/4+z
1/4+x,1/2-y,3/4+z
loop_
_atom_site_type_symbol
_atom_site_label
_atom_site_fract_x
_atom_site_fract_y
_atom_site_fract_z
Si Si1 0.641589 0.375000 0.875000
Si Si2 0.983679 0.023430 0.901144
Si Si3 0.737564 0.143116 0.785955
Si Si4 0.697079 0.996064 0.346038
O O1 0.570432 0.391082 0.791731
O O2 0.714456 0.318297 0.859919
O O3 0.875000 0.995573 0.875000
O O4 0.980725 0.093330 0.893146
O O5 0.073617 0.001806 0.835500
O O6 0.000000 0.000000 0.000000
O O7 0.625000 0.125000 0.749219
O O8 0.740474 0.205102 0.836652
O O9 0.750000 0.000000 0.250000
#
# Coordination Sequence:
#
# PCOD8286575 Si02
#       4
#    16  32  32  32
#     4  12  25  46  84 113 160 220 274 337 431 496
#     4  11  25  48  80 116 157 214 278 338 410 498
#     4  10  25  47  77 114 158 208 278 342 407 503
#     4  11  28  48  76 123 167 214 272 354 427 500
#
# _framework density 25.026638999999999
#
# number of rings (size 3 to 8) (size 9 to 14) (size 15 to 20)
#    0.000    1.143    2.857    0.429   12.000    0.000 
#   10.286    0.000    0.000    1.714    0.000    0.000 
#    0.000    0.000    0.000    0.000    0.000    0.000 
#
# Total GULP energy -347011.919947 kJ/mol
# GULP energy per Si atom -12393.282855 kJ/mol
# Density = 2.496968 g / cm^3
# Si number density = 25.026639 Si / 1000 Ang^3
#
#
#
# Elastic Constant Matrix: (Units=GPa)
#
#
# Indices 1 2 3 4 5 6 
#
# 1 137.0684 36.5623 76.3338 0.0000 0.0000 0.0000
# 2 36.5623 255.3325 80.4422 0.0000 0.0000 0.0000
# 3 76.3338 80.4422 137.2033 0.0000 0.0000 0.0000
# 4 0.0000 0.0000 0.0000 35.0573 0.0000 0.0000
# 5 0.0000 0.0000 0.0000 0.0000 59.8174 0.0000
# 6 0.0000 0.0000 0.0000 0.0000 0.0000 32.3910
#
#
#
# Elastic Compliance Matrix: (Units=1/GPa)
#
#
# Indices 1 2 3 4 5 6 
#
# 1 0.010607 0.000417 -0.006146 0.000000 0.000000 0.000000
# 2 0.000417 0.004820 -0.003058 0.000000 0.000000 0.000000
# 3 -0.006146 -0.003058 0.012501 0.000000 0.000000 0.000000
# 4 0.000000 0.000000 0.000000 0.028525 0.000000 0.000000
# 5 0.000000 0.000000 0.000000 0.000000 0.016718 0.000000
# 6 0.000000 0.000000 0.000000 0.000000 0.000000 0.030873
#
#
# Mechanical properties :
#
#
# Convention : Reuss Voigt Hill
#
# Bulk Modulus (GPa) = 96.57802 101.80900 99.19351
# Shear Modulus (GPa) = 39.97813 47.87086 43.92449
#
# Velocity S-wave (km/s) = 4.00111 4.37830 4.19395
# Velocity P-wave (km/s) = 7.74720 8.14419 7.94817
#
# Compressibility (1/GPa) = 0.01035432
#
# Stress axis : x y z
#
# Youngs Moduli (GPa) = 94.27726 207.45981 79.99420
#
# Poissons Ratio (x) = -0.08660 0.49164
# Poissons Ratio (y) = -0.03935 0.24465
# Poissons Ratio (z) = 0.57943 0.63448
#
# Static dielectric constant tensor:
#      x y z
#    x 5.058070 0.000000 0.000000 
#    y 0.000000 5.680520 0.000000 
#    z 0.000000 0.000000 4.134800 
# 
# 
# High freq. dielectric constant tensor:
#      x y z
#    x 1.991280 0.000000 0.000000 
#    y 0.000000 2.034940 0.000000 
#    z 0.000000 0.000000 1.976390 
# 
# From -- ./inp_files/25223.got.cif
#   From: 2010.03.12/outbox.cif.g09.slc.cpg/sg70_13_cif.got.tgz:25223.got - 2010.04.16 13:46:32.
