data_PCOD8286609
_publ_section_title
;
Structure prediction by ZEFSAII (Michael W. Deem and Ramdas Pophale) SiO2 
 PCOD8286609
Probable space group: F D D D
;
_chemical_formula_sum "Si O2"
_cell_formula_units_Z 168
_cell_length_a 23.000687
_cell_length_b 21.053315
_cell_length_c 15.410174
_cell_angle_alpha 90.000000
_cell_angle_beta 90.000000
_cell_angle_gamma 90.000000
_cell_volume 7462.233578
_symmetry_space_group_name_H-M "F D D D"
_symmetry_group_IT_number 70
_space_group.IT_coordinate_system_code '2'
_symmetry_cell_setting 'orthorhombic'
loop_
_space_group_symop_operation_xyz
x,y,z
1/4-x,1/4-y,z
x,1/4-y,1/4-z
1/4-x,y,1/4-z
-x,-y,-z
3/4+x,3/4+y,-z
-x,3/4+y,3/4+z
3/4+x,-y,3/4+z
x,1/2+y,1/2+z
1/4-x,3/4-y,1/2+z
x,3/4-y,3/4-z
1/4-x,1/2+y,3/4-z
-x,1/2-y,1/2-z
3/4+x,1/4+y,1/2-z
-x,1/4+y,1/4+z
3/4+x,1/2-y,1/4+z
1/2+x,y,1/2+z
3/4-x,1/4-y,1/2+z
1/2+x,1/4-y,3/4-z
3/4-x,y,3/4-z
1/2-x,-y,1/2-z
1/4+x,3/4+y,1/2-z
1/2-x,3/4+y,1/4+z
1/4+x,-y,1/4+z
1/2+x,1/2+y,z
3/4-x,3/4-y,z
1/2+x,3/4-y,1/4-z
3/4-x,1/2+y,1/4-z
1/2-x,1/2-y,-z
1/4+x,1/4+y,-z
1/2-x,1/4+y,3/4+z
1/4+x,1/2-y,3/4+z
loop_
_atom_site_type_symbol
_atom_site_label
_atom_site_fract_x
_atom_site_fract_y
_atom_site_fract_z
Si Si1 0.420948 0.198409 0.811105
Si Si2 0.055002 0.205815 0.764888
Si Si3 0.978596 0.443569 0.335447
Si Si4 0.625000 0.625000 0.625000
Si Si5 0.038203 0.125361 0.327850
Si Si6 0.153535 0.748643 0.382817
O O1 0.375000 0.163546 0.875000
O O2 0.435038 0.266842 0.854040
O O3 0.478260 0.157576 0.798267
O O4 0.392977 0.205820 0.715564
O O5 0.083845 0.172030 0.681191
O O6 0.031921 0.149470 0.825076
O O7 0.101129 0.250429 0.815045
O O8 0.000000 0.250000 0.750000
O O9 0.988778 0.375000 0.375000
O O10 0.039238 0.481266 0.329199
O O11 0.950833 0.433149 0.239280
O O12 0.089784 0.177114 0.329045
#
# Coordination Sequence:
#
# PCOD8286609 Si02
#       6
#    32  32  32   8  32  32
#     4  11  23  36  64 104 140 173 219 276 343 412
#     4  12  29  48  76  97 134 195 244 289 359 427
#     4  11  20  38  68  97 140 176 212 273 353 416
#     4  12  28  56  72 104 150 180 248 324 340 436
#     4  11  22  44  65  97 135 177 218 286 346 407
#     4  11  22  44  65 102 138 175 224 291 342 413
#
# _framework density 22.513366000000001
#
# number of rings (size 3 to 8) (size 9 to 14) (size 15 to 20)
#    0.000    0.762    5.714    2.286    2.667    3.429 
#    1.714    0.000    0.000    0.000    0.000    0.000 
#    0.000    0.000    0.000    0.000    0.000    0.000 
#
# Total GULP energy -520750.084922 kJ/mol
# GULP energy per Si atom -12398.811546 kJ/mol
# Density = 2.246212 g / cm^3
# Si number density = 22.513366 Si / 1000 Ang^3
#
#
#
# Elastic Constant Matrix: (Units=GPa)
#
#
# Indices 1 2 3 4 5 6 
#
# 1 101.9913 11.5259 48.0784 0.0000 0.0000 0.0000
# 2 11.5259 43.5129 28.6215 0.0000 0.0000 0.0000
# 3 48.0784 28.6215 156.1993 0.0000 0.0000 0.0000
# 4 0.0000 0.0000 0.0000 37.5160 0.0000 0.0000
# 5 0.0000 0.0000 0.0000 0.0000 44.8873 0.0000
# 6 0.0000 0.0000 0.0000 0.0000 0.0000 5.3108
#
#
#
# Elastic Compliance Matrix: (Units=1/GPa)
#
#
# Indices 1 2 3 4 5 6 
#
# 1 0.011494 -0.000816 -0.003388 0.000000 0.000000 0.000000
# 2 -0.000816 0.026189 -0.004548 0.000000 0.000000 0.000000
# 3 -0.003388 -0.004548 0.008278 0.000000 0.000000 0.000000
# 4 0.000000 0.000000 0.000000 0.026655 0.000000 0.000000
# 5 0.000000 0.000000 0.000000 0.000000 0.022278 0.000000
# 6 0.000000 0.000000 0.000000 0.000000 0.000000 0.188297
#
#
# Mechanical properties :
#
#
# Convention : Reuss Voigt Hill
#
# Bulk Modulus (GPa) = 35.13979 53.12835 44.13407
# Shear Modulus (GPa) = 16.11957 31.77464 23.94711
#
# Velocity S-wave (km/s) = 2.67872 3.76089 3.26496
# Velocity P-wave (km/s) = 5.02092 6.51989 5.81887
#
# Compressibility (1/GPa) = 0.02845777
#
# Stress axis : x y z
#
# Youngs Moduli (GPa) = 86.99986 38.18375 120.79688
#
# Poissons Ratio (x) = 0.03115 0.40932
# Poissons Ratio (y) = 0.07098 0.54935
# Poissons Ratio (z) = 0.29480 0.17365
#
# Static dielectric constant tensor:
#      x y z
#    x 4.230810 0.000000 0.000000 
#    y 0.000000 4.137350 0.000000 
#    z 0.000000 0.000000 4.451890 
# 
# 
# High freq. dielectric constant tensor:
#      x y z
#    x 1.892580 0.000000 0.000000 
#    y 0.000000 1.873960 0.000000 
#    z 0.000000 0.000000 1.899220 
# 
# From -- ./inp_files/29836.got.cif
#   From: 2010.03.12/outbox.cif.g09.slc.cpg/sg70_15_cif.got.tgz:29836.got - 2010.04.16 13:46:32.
