data_PCOD8286542
_publ_section_title
;
Structure prediction by ZEFSAII (Michael W. Deem and Ramdas Pophale) SiO2 
 PCOD8286542
Probable space group: F D D D
;
_chemical_formula_sum "Si O2"
_cell_formula_units_Z 128
_cell_length_a 12.010896
_cell_length_b 22.019973
_cell_length_c 23.322251
_cell_angle_alpha 90.000000
_cell_angle_beta 90.000000
_cell_angle_gamma 90.000000
_cell_volume 6168.259747
_symmetry_space_group_name_H-M "F D D D"
_symmetry_group_IT_number 70
_space_group.IT_coordinate_system_code '2'
_symmetry_cell_setting 'orthorhombic'
loop_
_space_group_symop_operation_xyz
x,y,z
1/4-x,1/4-y,z
x,1/4-y,1/4-z
1/4-x,y,1/4-z
-x,-y,-z
3/4+x,3/4+y,-z
-x,3/4+y,3/4+z
3/4+x,-y,3/4+z
x,1/2+y,1/2+z
1/4-x,3/4-y,1/2+z
x,3/4-y,3/4-z
1/4-x,1/2+y,3/4-z
-x,1/2-y,1/2-z
3/4+x,1/4+y,1/2-z
-x,1/4+y,1/4+z
3/4+x,1/2-y,1/4+z
1/2+x,y,1/2+z
3/4-x,1/4-y,1/2+z
1/2+x,1/4-y,3/4-z
3/4-x,y,3/4-z
1/2-x,-y,1/2-z
1/4+x,3/4+y,1/2-z
1/2-x,3/4+y,1/4+z
1/4+x,-y,1/4+z
1/2+x,1/2+y,z
3/4-x,3/4-y,z
1/2+x,3/4-y,1/4-z
3/4-x,1/2+y,1/4-z
1/2-x,1/2-y,-z
1/4+x,1/4+y,-z
1/2-x,1/4+y,3/4+z
1/4+x,1/2-y,3/4+z
loop_
_atom_site_type_symbol
_atom_site_label
_atom_site_fract_x
_atom_site_fract_y
_atom_site_fract_z
Si Si1 0.390699 0.158102 0.679490
Si Si2 0.125000 0.842759 0.125000
Si Si3 0.375000 0.375000 0.967733
Si Si4 0.507566 0.154896 0.969509
Si Si5 0.977682 0.980339 0.713067
O O1 0.337479 0.125000 0.625000
O O2 0.523065 0.147533 0.678820
O O3 0.335717 0.128285 0.736501
O O4 0.357856 0.229149 0.674895
O O5 0.214351 0.887914 0.094354
O O6 0.179109 0.798089 0.171880
O O7 0.345601 0.429132 0.009331
O O8 0.625000 0.125000 0.981365
O O9 0.524574 0.226869 0.984509
#
# Coordination Sequence:
#
# PCOD8286542 Si02
#       5
#    32  16  16  32  32
#     4  10  24  43  68 101 139 183 230 295 345 423
#     4  12  24  46  71 105 136 190 230 294 364 416
#     4  12  21  50  62 104 140 186 239 284 364 416
#     4  10  26  45  67 103 140 183 236 292 356 420
#     4  10  25  43  73  98 143 182 239 295 346 436
#
# _framework density 20.751396
#
# number of rings (size 3 to 8) (size 9 to 14) (size 15 to 20)
#    1.500    0.000    2.500    1.125    5.250    3.500 
#    4.500    0.000    0.000    0.000    0.000    0.000 
#    0.000    0.000    0.000    0.000    0.000    0.000 
#
# Total GULP energy -396449.726566 kJ/mol
# GULP energy per Si atom -12389.053955 kJ/mol
# Density = 2.070416 g / cm^3
# Si number density = 20.751396 Si / 1000 Ang^3
#
#
#
# Elastic Constant Matrix: (Units=GPa)
#
#
# Indices 1 2 3 4 5 6 
#
# 1 97.6815 31.7633 28.1688 0.0000 0.0000 0.0000
# 2 31.7633 147.3502 58.7256 0.0000 0.0000 0.0000
# 3 28.1688 58.7256 88.3936 0.0000 0.0000 0.0000
# 4 0.0000 0.0000 0.0000 23.6325 0.0000 0.0000
# 5 0.0000 0.0000 0.0000 0.0000 32.3943 0.0000
# 6 0.0000 0.0000 0.0000 0.0000 0.0000 8.6918
#
#
#
# Elastic Compliance Matrix: (Units=1/GPa)
#
#
# Indices 1 2 3 4 5 6 
#
# 1 0.011477 -0.001382 -0.002739 0.000000 0.000000 0.000000
# 2 -0.001382 0.009397 -0.005803 0.000000 0.000000 0.000000
# 3 -0.002739 -0.005803 0.016041 0.000000 0.000000 0.000000
# 4 0.000000 0.000000 0.000000 0.042315 0.000000 0.000000
# 5 0.000000 0.000000 0.000000 0.000000 0.030870 0.000000
# 6 0.000000 0.000000 0.000000 0.000000 0.000000 0.115050
#
#
# Mechanical properties :
#
#
# Convention : Reuss Voigt Hill
#
# Bulk Modulus (GPa) = 58.59281 63.41562 61.00422
# Shear Modulus (GPa) = 19.94525 27.26156 23.60340
#
# Velocity S-wave (km/s) = 3.10361 3.62846 3.37625
# Velocity P-wave (km/s) = 6.41405 6.94121 6.68283
#
# Compressibility (1/GPa) = 0.01706694
#
# Stress axis : x y z
#
# Youngs Moduli (GPa) = 87.13307 106.41544 62.34062
#
# Poissons Ratio (x) = 0.14711 0.17075
# Poissons Ratio (y) = 0.12045 0.36174
# Poissons Ratio (z) = 0.23865 0.61749
#
# Static dielectric constant tensor:
#      x y z
#    x 3.568120 0.000000 0.000000 
#    y 0.000000 3.472570 0.000000 
#    z 0.000000 0.000000 3.828380 
# 
# 
# High freq. dielectric constant tensor:
#      x y z
#    x 1.810520 0.000000 0.000000 
#    y 0.000000 1.813090 0.000000 
#    z 0.000000 0.000000 1.811920 
# 
# From -- ./inp_files/20590.got.cif
#   From: 2010.03.12/outbox.cif.g09.slc.cpg/sg70_11_cif.got.tgz:20590.got - 2010.04.16 13:46:32.
