data_PCOD8286049
_publ_section_title
;
Structure prediction by ZEFSAII (Michael W. Deem and Ramdas Pophale) SiO2 
 PCOD8286049
Probable space group: F D D D
;
_chemical_formula_sum "Si O2"
_cell_formula_units_Z 192
_cell_length_a 13.431494
_cell_length_b 24.364935
_cell_length_c 29.163520
_cell_angle_alpha 90.000000
_cell_angle_beta 90.000000
_cell_angle_gamma 90.000000
_cell_volume 9543.980012
_symmetry_space_group_name_H-M "F D D D"
_symmetry_group_IT_number 70
_space_group.IT_coordinate_system_code '2'
_symmetry_cell_setting 'orthorhombic'
loop_
_space_group_symop_operation_xyz
x,y,z
1/4-x,1/4-y,z
x,1/4-y,1/4-z
1/4-x,y,1/4-z
-x,-y,-z
3/4+x,3/4+y,-z
-x,3/4+y,3/4+z
3/4+x,-y,3/4+z
x,1/2+y,1/2+z
1/4-x,3/4-y,1/2+z
x,3/4-y,3/4-z
1/4-x,1/2+y,3/4-z
-x,1/2-y,1/2-z
3/4+x,1/4+y,1/2-z
-x,1/4+y,1/4+z
3/4+x,1/2-y,1/4+z
1/2+x,y,1/2+z
3/4-x,1/4-y,1/2+z
1/2+x,1/4-y,3/4-z
3/4-x,y,3/4-z
1/2-x,-y,1/2-z
1/4+x,3/4+y,1/2-z
1/2-x,3/4+y,1/4+z
1/4+x,-y,1/4+z
1/2+x,1/2+y,z
3/4-x,3/4-y,z
1/2+x,3/4-y,1/4-z
3/4-x,1/2+y,1/4-z
1/2-x,1/2-y,-z
1/4+x,1/4+y,-z
1/2-x,1/4+y,3/4+z
1/4+x,1/2-y,3/4+z
loop_
_atom_site_type_symbol
_atom_site_label
_atom_site_fract_x
_atom_site_fract_y
_atom_site_fract_z
Si Si1 0.778554 0.028776 0.066358
Si Si2 0.469541 0.960814 0.576827
Si Si3 0.734655 0.627348 0.848789
Si Si4 0.381463 0.125000 0.125000
Si Si5 0.875000 0.217748 0.875000
Si Si6 0.165960 0.287508 0.216757
Si Si7 0.467758 0.300472 0.900287
O O1 0.802933 0.081479 0.097524
O O2 0.858889 0.979475 0.063545
O O3 0.673716 0.005436 0.084973
O O4 0.776924 0.050116 0.014109
O O5 0.470132 0.900773 0.599737
O O6 0.544321 0.960518 0.532754
O O7 0.505426 0.002705 0.615137
O O8 0.625000 0.625000 0.825719
O O9 0.786885 0.567866 0.852040
O O10 0.804296 0.665453 0.818669
O O11 0.308407 0.092284 0.090389
O O12 0.195940 0.226700 0.199468
O O13 0.375000 0.330738 0.875000
#
# Coordination Sequence:
#
# PCOD8286049 Si02
#       7
#    32  32  32  16  16  32  32
#     4  11  24  39  60  88 124 165 212 256 308 367
#     4   9  17  36  64  90 120 151 189 259 326 371
#     4  11  20  39  66  90 119 162 209 248 320 383
#     4  10  21  39  56  74 122 174 196 232 308 378
#     4  12  24  41  64  88 122 171 208 250 316 386
#     4  10  20  37  62  98 121 147 203 273 312 364
#     4   8  16  32  59  86 116 151 188 240 317 381
#
# _framework density 20.117393
#
# number of rings (size 3 to 8) (size 9 to 14) (size 15 to 20)
#    0.000    2.000    3.333    1.750    0.000    1.667 
#    3.000    0.833    3.667    0.000    0.000    0.000 
#    0.000    0.000    0.000    0.000    0.000    0.000 
#
# Total GULP energy -594726.076402 kJ/mol
# GULP energy per Si atom -12390.126592 kJ/mol
# Density = 2.007161 g / cm^3
# Si number density = 20.117393 Si / 1000 Ang^3
#
#
#
# Elastic Constant Matrix: (Units=GPa)
#
#
# Indices 1 2 3 4 5 6 
#
# 1 97.1735 30.0005 15.2866 0.0000 0.0000 0.0000
# 2 30.0005 86.5651 22.0246 0.0000 0.0000 0.0000
# 3 15.2866 22.0246 70.6788 0.0000 0.0000 0.0000
# 4 0.0000 0.0000 0.0000 14.2125 0.0000 0.0000
# 5 0.0000 0.0000 0.0000 0.0000 30.2132 0.0000
# 6 0.0000 0.0000 0.0000 0.0000 0.0000 37.3137
#
#
#
# Elastic Compliance Matrix: (Units=1/GPa)
#
#
# Indices 1 2 3 4 5 6 
#
# 1 0.011645 -0.003687 -0.001370 0.000000 0.000000 0.000000
# 2 -0.003687 0.013714 -0.003476 0.000000 0.000000 0.000000
# 3 -0.001370 -0.003476 0.015528 0.000000 0.000000 0.000000
# 4 0.000000 0.000000 0.000000 0.070361 0.000000 0.000000
# 5 0.000000 0.000000 0.000000 0.000000 0.033098 0.000000
# 6 0.000000 0.000000 0.000000 0.000000 0.000000 0.026800
#
#
# Mechanical properties :
#
#
# Convention : Reuss Voigt Hill
#
# Bulk Modulus (GPa) = 41.97944 43.22675 42.60310
# Shear Modulus (GPa) = 25.49050 28.82158 27.15604
#
# Velocity S-wave (km/s) = 3.56348 3.78917 3.67806
# Velocity P-wave (km/s) = 6.15172 6.37790 6.26583
#
# Compressibility (1/GPa) = 0.02382118
#
# Stress axis : x y z
#
# Youngs Moduli (GPa) = 85.87616 72.91674 64.40009
#
# Poissons Ratio (x) = 0.26886 0.08820
# Poissons Ratio (y) = 0.31664 0.22386
# Poissons Ratio (z) = 0.11761 0.25347
#
# Static dielectric constant tensor:
#      x y z
#    x 3.856950 0.000000 0.000000 
#    y 0.000000 3.708420 0.000000 
#    z 0.000000 0.000000 3.412070 
# 
# 
# High freq. dielectric constant tensor:
#      x y z
#    x 1.788250 0.000000 0.000000 
#    y 0.000000 1.787790 0.000000 
#    z 0.000000 0.000000 1.748020 
# 
# From -- ./inp_files/58661.got.cif
#   From: 2010.03.12/outbox.cif.g09.slc.cpg/sg70_30_cif.got.tgz:58661.got - 2010.04.16 13:46:32.
