data_PCOD8286895
_publ_section_title
;
Structure prediction by ZEFSAII (Michael W. Deem and Ramdas Pophale) SiO2 
 PCOD8286895
Probable space group: I M M M
;
_chemical_formula_sum "Si O2"
_cell_formula_units_Z 88
_cell_length_a 24.094479
_cell_length_b 8.733678
_cell_length_c 30.294713
_cell_angle_alpha 90.000000
_cell_angle_beta 90.000000
_cell_angle_gamma 90.000000
_cell_volume 6375.020100
_symmetry_space_group_name_H-M "I M M M"
_symmetry_group_IT_number 71
_symmetry_cell_setting 'orthorhombic'
loop_
_space_group_symop_operation_xyz
x,y,z
-x,-y,z
x,-y,-z
-x,y,-z
-x,-y,-z
x,y,-z
-x,y,z
x,-y,z
1/2+x,1/2+y,1/2+z
1/2-x,1/2-y,1/2+z
1/2+x,1/2-y,1/2-z
1/2-x,1/2+y,1/2-z
1/2-x,1/2-y,1/2-z
1/2+x,1/2+y,1/2-z
1/2-x,1/2+y,1/2+z
1/2+x,1/2-y,1/2+z
loop_
_atom_site_type_symbol
_atom_site_label
_atom_site_fract_x
_atom_site_fract_y
_atom_site_fract_z
Si Si1 0.563411 0.318976 0.000000
Si Si2 0.393079 0.177237 0.087583
Si Si3 0.181090 0.181272 0.341172
Si Si4 0.000000 0.177760 0.736510
Si Si5 0.119481 0.819646 0.746955
Si Si6 0.500000 0.826851 0.854161
Si Si7 0.275027 0.319797 0.706184
O O1 0.598178 0.262578 0.958261
O O2 0.561235 0.500000 0.000000
O O3 0.500000 0.253030 0.000000
O O4 0.340800 0.247727 0.113382
O O5 0.447025 0.205341 0.116469
O O6 0.381775 0.000000 0.078147
O O7 0.145210 0.244017 0.299212
O O8 0.245177 0.238013 0.335198
O O9 0.180103 0.000000 0.344483
O O10 0.057593 0.250659 0.755624
O O11 0.000000 0.202671 0.684234
O O12 0.000000 0.000000 0.747556
O O13 0.158680 0.784019 0.789447
O O14 0.114230 0.000000 0.739968
O O15 0.500000 0.000000 0.835198
O O16 0.263864 0.500000 0.704056
O O17 0.250000 0.250000 0.750000
#
# Coordination Sequence:
#
# PCOD8286895 Si02
#       7
#     8  16  16   8  16   8  16
#     4  11  23  35  47  61  79 105 135 168 205 248
#     4  11  21  33  46  60  79 103 131 169 212 252
#     4  10  18  29  43  60  76  99 134 169 204 245
#     4  10  16  26  41  57  78 106 133 165 201 240
#     4   8  15  24  38  57  77 100 130 162 197 237
#     4  10  20  29  39  58  79 100 128 164 207 247
#     4   9  16  27  39  56  78 102 130 164 202 241
#
# _framework density 13.803877999999999
#
# number of rings (size 3 to 8) (size 9 to 14) (size 15 to 20)
#    0.000    2.273    2.727    3.000    0.000    1.091 
#    0.000    0.909    0.000    0.000    0.000    0.000 
#    0.000    0.000    0.000    0.000    0.000    0.909 
#
# Total GULP energy -545197.479332 kJ/mol
# GULP energy per Si atom -12390.851803 kJ/mol
# Density = 1.377246 g / cm^3
# Si number density = 13.803878 Si / 1000 Ang^3
#
#
#
# Elastic Constant Matrix: (Units=GPa)
#
#
# Indices 1 2 3 4 5 6 
#
# 1 104.9539 25.2997 49.7986 0.0000 0.0000 0.0000
# 2 25.2997 47.4578 22.6368 0.0000 0.0000 0.0000
# 3 49.7986 22.6368 63.5299 0.0000 0.0000 0.0000
# 4 0.0000 0.0000 0.0000 20.0087 0.0000 0.0000
# 5 0.0000 0.0000 0.0000 0.0000 17.2636 0.0000
# 6 0.0000 0.0000 0.0000 0.0000 0.0000 16.5595
#
#
#
# Elastic Compliance Matrix: (Units=1/GPa)
#
#
# Indices 1 2 3 4 5 6 
#
# 1 0.015511 -0.002975 -0.011099 0.000000 0.000000 0.000000
# 2 -0.002975 0.025957 -0.006917 0.000000 0.000000 0.000000
# 3 -0.011099 -0.006917 0.026905 0.000000 0.000000 0.000000
# 4 0.000000 0.000000 0.000000 0.049978 0.000000 0.000000
# 5 0.000000 0.000000 0.000000 0.000000 0.057925 0.000000
# 6 0.000000 0.000000 0.000000 0.000000 0.000000 0.060388
#
#
# Mechanical properties :
#
#
# Convention : Reuss Voigt Hill
#
# Bulk Modulus (GPa) = 37.89034 45.71241 41.80138
# Shear Modulus (GPa) = 17.39479 18.64681 18.02080
#
# Velocity S-wave (km/s) = 3.55369 3.67936 3.61707
# Velocity P-wave (km/s) = 6.65935 7.15806 6.91320
#
# Compressibility (1/GPa) = 0.02639195
#
# Stress axis : x y z
#
# Youngs Moduli (GPa) = 64.46941 38.52589 37.16798
#
# Poissons Ratio (x) = 0.11462 0.41251
# Poissons Ratio (y) = 0.19181 0.25708
# Poissons Ratio (z) = 0.71552 0.26647
#
# Static dielectric constant tensor:
#      x y z
#    x 3.269320 0.000000 0.000000 
#    y 0.000000 2.732950 0.000000 
#    z 0.000000 0.000000 2.517230 
# 
# 
# High freq. dielectric constant tensor:
#      x y z
#    x 1.521660 0.000000 0.000000 
#    y 0.000000 1.529010 0.000000 
#    z 0.000000 0.000000 1.477970 
# 
# From -- ./inp_files/62251.got.cif
#   From: 2010.06.25/outbox.cif.g09.slc.cpg/sg71_32_cif.got.tgz:62251.got - 2010.06.28 04:59:45.
