data_PCOD8286125
_publ_section_title
;
Structure prediction by ZEFSAII (Michael W. Deem and Ramdas Pophale) SiO2 
 PCOD8286125
Probable space group: F D D D
;
_chemical_formula_sum "Si O2"
_cell_formula_units_Z 176
_cell_length_a 16.816995
_cell_length_b 20.017866
_cell_length_c 22.976139
_cell_angle_alpha 90.000000
_cell_angle_beta 90.000000
_cell_angle_gamma 90.000000
_cell_volume 7734.695531
_symmetry_space_group_name_H-M "F D D D"
_symmetry_group_IT_number 70
_space_group.IT_coordinate_system_code '2'
_symmetry_cell_setting 'orthorhombic'
loop_
_space_group_symop_operation_xyz
x,y,z
1/4-x,1/4-y,z
x,1/4-y,1/4-z
1/4-x,y,1/4-z
-x,-y,-z
3/4+x,3/4+y,-z
-x,3/4+y,3/4+z
3/4+x,-y,3/4+z
x,1/2+y,1/2+z
1/4-x,3/4-y,1/2+z
x,3/4-y,3/4-z
1/4-x,1/2+y,3/4-z
-x,1/2-y,1/2-z
3/4+x,1/4+y,1/2-z
-x,1/4+y,1/4+z
3/4+x,1/2-y,1/4+z
1/2+x,y,1/2+z
3/4-x,1/4-y,1/2+z
1/2+x,1/4-y,3/4-z
3/4-x,y,3/4-z
1/2-x,-y,1/2-z
1/4+x,3/4+y,1/2-z
1/2-x,3/4+y,1/4+z
1/4+x,-y,1/4+z
1/2+x,1/2+y,z
3/4-x,3/4-y,z
1/2+x,3/4-y,1/4-z
3/4-x,1/2+y,1/4-z
1/2-x,1/2-y,-z
1/4+x,1/4+y,-z
1/2-x,1/4+y,3/4+z
1/4+x,1/2-y,3/4+z
loop_
_atom_site_type_symbol
_atom_site_label
_atom_site_fract_x
_atom_site_fract_y
_atom_site_fract_z
Si Si1 0.063495 0.937065 0.570323
Si Si2 0.130005 0.547374 0.764075
Si Si3 0.653700 0.253060 0.947143
Si Si4 0.905646 0.125000 0.125000
Si Si5 0.769361 0.538509 0.451561
Si Si6 0.496689 0.984724 0.417455
O O1 0.125000 0.945525 0.625000
O O2 0.086210 0.982278 0.515469
O O3 0.060165 0.860699 0.548946
O O4 0.974345 0.962454 0.585432
O O5 0.125000 0.625000 0.749747
O O6 0.046505 0.506907 0.757789
O O7 0.181286 0.507042 0.716367
O O8 0.178188 0.536815 0.824144
O O9 0.646259 0.321970 0.910970
O O10 0.575812 0.206595 0.948094
O O11 0.963877 0.088481 0.079292
O O12 0.795723 0.498658 0.393674
#
# Coordination Sequence:
#
# PCOD8286125 Si02
#       6
#    32  32  32  16  32  32
#     4  11  24  43  66  92 125 169 222 275 337 403
#     4  11  22  36  57  87 123 159 200 249 311 381
#     4  10  24  42  63  94 126 167 220 275 337 408
#     4  10  20  40  62  84 126 162 200 264 325 378
#     4  11  23  40  63  89 126 165 209 269 326 393
#     4  10  22  36  56  89 119 158 205 246 305 384
#
# _framework density 22.754612000000002
#
# number of rings (size 3 to 8) (size 9 to 14) (size 15 to 20)
#    0.000    1.455    0.000    5.455    0.000   12.364 
#    0.000    2.273    0.000    0.000    0.000    0.000 
#    0.000    0.000    0.000    0.000    0.000    0.000 
#
# Total GULP energy -545143.911760 kJ/mol
# GULP energy per Si atom -12389.634358 kJ/mol
# Density = 2.270282 g / cm^3
# Si number density = 22.754612 Si / 1000 Ang^3
#
#
#
# Elastic Constant Matrix: (Units=GPa)
#
#
# Indices 1 2 3 4 5 6 
#
# 1 101.8208 27.2244 13.1340 0.0000 0.0000 0.0000
# 2 27.2244 105.2203 10.8528 0.0000 0.0000 0.0000
# 3 13.1340 10.8528 47.8702 0.0000 0.0000 0.0000
# 4 0.0000 0.0000 0.0000 28.6386 0.0000 0.0000
# 5 0.0000 0.0000 0.0000 0.0000 30.9374 0.0000
# 6 0.0000 0.0000 0.0000 0.0000 0.0000 34.7942
#
#
#
# Elastic Compliance Matrix: (Units=1/GPa)
#
#
# Indices 1 2 3 4 5 6 
#
# 1 0.010811 -0.002551 -0.002388 0.000000 0.000000 0.000000
# 2 -0.002551 0.010333 -0.001643 0.000000 0.000000 0.000000
# 3 -0.002388 -0.001643 0.021917 0.000000 0.000000 0.000000
# 4 0.000000 0.000000 0.000000 0.034918 0.000000 0.000000
# 5 0.000000 0.000000 0.000000 0.000000 0.032323 0.000000
# 6 0.000000 0.000000 0.000000 0.000000 0.000000 0.028740
#
#
# Mechanical properties :
#
#
# Convention : Reuss Voigt Hill
#
# Bulk Modulus (GPa) = 33.44632 39.70374 36.57503
# Shear Modulus (GPa) = 30.83123 32.45407 31.64265
#
# Velocity S-wave (km/s) = 3.68495 3.78069 3.73313
# Velocity P-wave (km/s) = 5.73025 6.04522 5.88984
#
# Compressibility (1/GPa) = 0.02989866
#
# Stress axis : x y z
#
# Youngs Moduli (GPa) = 92.49610 96.77406 45.62577
#
# Poissons Ratio (x) = 0.24687 0.10895
# Poissons Ratio (y) = 0.23596 0.07495
# Poissons Ratio (z) = 0.22087 0.15898
#
# Static dielectric constant tensor:
#      x y z
#    x 4.392150 0.000000 0.000000 
#    y 0.000000 3.904010 0.000000 
#    z 0.000000 0.000000 4.210650 
# 
# 
# High freq. dielectric constant tensor:
#      x y z
#    x 1.909220 0.000000 0.000000 
#    y 0.000000 1.892100 0.000000 
#    z 0.000000 0.000000 1.894580 
# 
# From -- ./inp_files/59461.got.cif
#   From: 2010.03.12/outbox.cif.g09.slc.cpg/sg70_30_cif.got.tgz:59461.got - 2010.04.16 13:46:32.
