data_PCOD8286777
_publ_section_title
;
Structure prediction by ZEFSAII (Michael W. Deem and Ramdas Pophale) SiO2 
 PCOD8286777
Probable space group: F D D D
;
_chemical_formula_sum "Si O2"
_cell_formula_units_Z 112
_cell_length_a 28.676176
_cell_length_b 5.306283
_cell_length_c 30.787311
_cell_angle_alpha 90.000000
_cell_angle_beta 90.000000
_cell_angle_gamma 90.000000
_cell_volume 4684.717473
_symmetry_space_group_name_H-M "F D D D"
_symmetry_group_IT_number 70
_space_group.IT_coordinate_system_code '2'
_symmetry_cell_setting 'orthorhombic'
loop_
_space_group_symop_operation_xyz
x,y,z
1/4-x,1/4-y,z
x,1/4-y,1/4-z
1/4-x,y,1/4-z
-x,-y,-z
3/4+x,3/4+y,-z
-x,3/4+y,3/4+z
3/4+x,-y,3/4+z
x,1/2+y,1/2+z
1/4-x,3/4-y,1/2+z
x,3/4-y,3/4-z
1/4-x,1/2+y,3/4-z
-x,1/2-y,1/2-z
3/4+x,1/4+y,1/2-z
-x,1/4+y,1/4+z
3/4+x,1/2-y,1/4+z
1/2+x,y,1/2+z
3/4-x,1/4-y,1/2+z
1/2+x,1/4-y,3/4-z
3/4-x,y,3/4-z
1/2-x,-y,1/2-z
1/4+x,3/4+y,1/2-z
1/2-x,3/4+y,1/4+z
1/4+x,-y,1/4+z
1/2+x,1/2+y,z
3/4-x,3/4-y,z
1/2+x,3/4-y,1/4-z
3/4-x,1/2+y,1/4-z
1/2-x,1/2-y,-z
1/4+x,1/4+y,-z
1/2-x,1/4+y,3/4+z
1/4+x,1/2-y,3/4+z
loop_
_atom_site_type_symbol
_atom_site_label
_atom_site_fract_x
_atom_site_fract_y
_atom_site_fract_z
Si Si1 0.228013 0.625000 0.625000
Si Si2 0.828859 0.249807 0.930160
Si Si3 0.996258 0.845437 0.044243
Si Si4 0.847694 0.133505 0.227472
O O1 0.194879 0.397895 0.609348
O O2 0.260490 0.717863 0.585420
O O3 0.875000 0.375000 0.910524
O O4 0.794935 0.456267 0.950894
O O5 0.843062 0.074505 0.970745
O O6 0.954066 0.642584 0.043656
O O7 0.000000 0.000000 0.000000
O O8 0.875000 0.375000 0.208641
O O9 0.875000 0.875000 0.215522
#
# Coordination Sequence:
#
# PCOD8286777 Si02
#       4
#    16  32  32  32
#     4  12  28  43  76 110 162 198 260 320 411 470
#     4  11  26  46  72 113 154 193 250 319 402 477
#     4  12  25  48  76 109 153 202 257 322 391 471
#     4  11  25  47  81 108 145 206 260 313 383 464
#
# _framework density 23.907523000000001
#
# number of rings (size 3 to 8) (size 9 to 14) (size 15 to 20)
#    0.000    0.571    2.857    5.143    4.000    3.429 
#    0.000    0.000    6.286    0.000    0.000    0.000 
#    0.000    0.000    0.000    0.000    0.000    0.000 
#
# Total GULP energy -347242.756639 kJ/mol
# GULP energy per Si atom -12401.527023 kJ/mol
# Density = 2.385311 g / cm^3
# Si number density = 23.907523 Si / 1000 Ang^3
#
#
#
# Elastic Constant Matrix: (Units=GPa)
#
#
# Indices 1 2 3 4 5 6 
#
# 1 157.4179 70.0571 60.9787 0.0201 -0.0171 0.1860
# 2 70.0571 146.3093 65.8122 -0.1061 0.0743 -0.0153
# 3 60.9787 65.8122 141.1628 -0.0119 0.0535 -0.0277
# 4 0.0201 -0.1061 -0.0119 22.0890 -0.0534 -0.0979
# 5 -0.0171 0.0743 0.0535 -0.0534 1.0395 0.0951
# 6 0.1860 -0.0153 -0.0277 -0.0979 0.0951 48.4012
#
#
#
# Elastic Compliance Matrix: (Units=1/GPa)
#
#
# Indices 1 2 3 4 5 6 
#
# 1 0.008614 -0.003102 -0.002275 -0.000023 0.000483 -0.000036
# 2 -0.003102 0.009765 -0.003213 0.000047 -0.000582 0.000014
# 3 -0.002275 -0.003213 0.009565 -0.000009 -0.000302 0.000014
# 4 -0.000023 0.000047 -0.000009 0.045278 0.002314 0.000087
# 5 0.000483 -0.000582 -0.000302 0.002314 0.962336 -0.001888
# 6 -0.000036 0.000014 0.000014 0.000087 -0.001888 0.020665
#
#
# Mechanical properties :
#
#
# Convention : Reuss Voigt Hill
#
# Bulk Modulus (GPa) = 92.89150 93.17624 93.03387
# Shear Modulus (GPa) = 4.64257 30.84205 17.74231
#
# Velocity S-wave (km/s) = 1.39503 3.59563 2.72715
# Velocity P-wave (km/s) = 6.44466 7.50309 6.99392
#
# Compressibility (1/GPa) = 0.01076525
#
# Stress axis : x y z
#
# Youngs Moduli (GPa) = 116.08547 102.40192 104.54910
#
# Poissons Ratio (x) = 0.31761 0.23789
# Poissons Ratio (y) = 0.36005 0.33589
# Poissons Ratio (z) = 0.26414 0.32899
#
# Static dielectric constant tensor:
#      x y z
#    x 4.534610 -0.000110 0.000040 
#    y -0.000110 4.331940 -0.000090 
#    z 0.000040 -0.000090 4.327740 
# 
# 
# High freq. dielectric constant tensor:
#      x y z
#    x 1.953090 0.000010 0.000000 
#    y 0.000010 1.954310 0.000000 
#    z 0.000000 0.000000 1.943890 
# 
# From -- ./inp_files/68626.got.cif
#   From: 2010.03.12/outbox.cif.g09.slc.cpg/sg70_35_cif.got.tgz:68626.got - 2010.04.16 13:46:32.
