data_PCOD8286006
_publ_section_title
;
Structure prediction by ZEFSAII (Michael W. Deem and Ramdas Pophale) SiO2 
 PCOD8286006
Probable space group: F D D D
;
_chemical_formula_sum "Si O2"
_cell_formula_units_Z 112
_cell_length_a 27.259590
_cell_length_b 5.455053
_cell_length_c 35.862869
_cell_angle_alpha 90.000000
_cell_angle_beta 90.000000
_cell_angle_gamma 90.000000
_cell_volume 5332.898572
_symmetry_space_group_name_H-M "F D D D"
_symmetry_group_IT_number 70
_space_group.IT_coordinate_system_code '2'
_symmetry_cell_setting 'orthorhombic'
loop_
_space_group_symop_operation_xyz
x,y,z
1/4-x,1/4-y,z
x,1/4-y,1/4-z
1/4-x,y,1/4-z
-x,-y,-z
3/4+x,3/4+y,-z
-x,3/4+y,3/4+z
3/4+x,-y,3/4+z
x,1/2+y,1/2+z
1/4-x,3/4-y,1/2+z
x,3/4-y,3/4-z
1/4-x,1/2+y,3/4-z
-x,1/2-y,1/2-z
3/4+x,1/4+y,1/2-z
-x,1/4+y,1/4+z
3/4+x,1/2-y,1/4+z
1/2+x,y,1/2+z
3/4-x,1/4-y,1/2+z
1/2+x,1/4-y,3/4-z
3/4-x,y,3/4-z
1/2-x,-y,1/2-z
1/4+x,3/4+y,1/2-z
1/2-x,3/4+y,1/4+z
1/4+x,-y,1/4+z
1/2+x,1/2+y,z
3/4-x,3/4-y,z
1/2+x,3/4-y,1/4-z
3/4-x,1/2+y,1/4-z
1/2-x,1/2-y,-z
1/4+x,1/4+y,-z
1/2-x,1/4+y,3/4+z
1/4+x,1/2-y,3/4+z
loop_
_atom_site_type_symbol
_atom_site_label
_atom_site_fract_x
_atom_site_fract_y
_atom_site_fract_z
Si Si1 0.048414 0.286132 0.225617
Si Si2 0.125000 0.625000 0.471741
Si Si3 0.076500 0.786295 0.333556
Si Si4 0.482343 0.712476 0.792160
O O1 0.095829 0.319945 0.252426
O O2 0.044769 0.526320 0.198565
O O3 0.000000 0.250000 0.250000
O O4 0.053662 0.024247 0.203559
O O5 0.083893 0.744098 0.445485
O O6 0.125000 0.625000 0.332901
O O7 0.066491 0.875000 0.375000
O O8 0.027612 0.649936 0.319721
O O9 0.500000 0.750000 0.750000
#
# Coordination Sequence:
#
# PCOD8286006 Si02
#       4
#    32  16  32  32
#     4  10  20  36  57  81 111 150 197 244 277 341
#     4  12  22  36  60  86 123 152 190 248 297 350
#     4  12  24  35  55  88 126 159 185 237 306 377
#     4  10  20  38  55  75 118 149 199 233 276 348
#
# _framework density 21.001712000000001
#
# number of rings (size 3 to 8) (size 9 to 14) (size 15 to 20)
#    0.000    1.143    7.143    3.429    0.000    0.000 
#    0.000    0.000    0.000    0.000    0.000    6.000 
#    0.000    0.000    0.000    0.000    0.000    0.000 
#
# Total GULP energy -346902.694766 kJ/mol
# GULP energy per Si atom -12389.381956 kJ/mol
# Density = 2.095391 g / cm^3
# Si number density = 21.001712 Si / 1000 Ang^3
#
#
#
# Elastic Constant Matrix: (Units=GPa)
#
#
# Indices 1 2 3 4 5 6 
#
# 1 56.2389 11.9616 54.3311 0.0875 -0.0609 -0.1514
# 2 11.9616 159.7350 30.5234 0.1329 1.8312 -0.0531
# 3 54.3311 30.5234 87.5554 0.0835 -0.1867 0.0967
# 4 0.0875 0.1329 0.0835 15.3712 0.0891 -0.1666
# 5 -0.0609 1.8312 -0.1867 0.0891 5.0915 0.6307
# 6 -0.1514 -0.0531 0.0967 -0.1666 0.6307 34.2547
#
#
#
# Elastic Compliance Matrix: (Units=1/GPa)
#
#
# Indices 1 2 3 4 5 6 
#
# 1 0.045061 0.002126 -0.028706 -0.000108 -0.001314 0.000307
# 2 0.002126 0.006840 -0.003709 -0.000035 -0.002579 0.000078
# 3 -0.028706 -0.003709 0.030532 0.000015 0.002142 -0.000258
# 4 -0.000108 -0.000035 0.000015 0.065068 -0.001169 0.000337
# 5 -0.001314 -0.002579 0.002142 -0.001169 0.197870 -0.003665
# 6 0.000307 0.000078 -0.000258 0.000337 -0.003665 0.029264
#
#
# Mechanical properties :
#
#
# Convention : Reuss Voigt Hill
#
# Bulk Modulus (GPa) = 45.75711 55.24016 50.49864
# Shear Modulus (GPa) = 11.29946 24.72437 18.01191
#
# Velocity S-wave (km/s) = 2.32205 3.43484 2.93173
# Velocity P-wave (km/s) = 5.38738 6.48773 5.96299
#
# Compressibility (1/GPa) = 0.02185453
#
# Stress axis : x y z
#
# Youngs Moduli (GPa) = 22.19218 146.20765 32.75201
#
# Poissons Ratio (x) = -0.31088 0.94018
# Poissons Ratio (y) = -0.04719 0.12149
# Poissons Ratio (z) = 0.63705 0.54234
#
# Static dielectric constant tensor:
#      x y z
#    x 3.712780 0.005590 0.000260 
#    y 0.005590 7.152750 -0.002040 
#    z 0.000260 -0.002040 3.388400 
# 
# 
# High freq. dielectric constant tensor:
#      x y z
#    x 1.807470 0.000050 -0.000010 
#    y 0.000050 1.840640 0.000020 
#    z -0.000010 0.000020 1.763640 
# 
# From -- ./inp_files/4038.got.cif
#   From: 2010.03.12/outbox.cif.g09.slc.cpg/sg70_3_cif.got.tgz:4038.got - 2010.04.16 13:46:32.
