data_PCOD8286198
_publ_section_title
;
Structure prediction by ZEFSAII (Michael W. Deem and Ramdas Pophale) SiO2 
 PCOD8286198
Probable space group: F D D D
;
_chemical_formula_sum "Si O2"
_cell_formula_units_Z 176
_cell_length_a 16.260800
_cell_length_b 32.332552
_cell_length_c 16.535166
_cell_angle_alpha 90.000000
_cell_angle_beta 90.000000
_cell_angle_gamma 90.000000
_cell_volume 8693.415801
_symmetry_space_group_name_H-M "F D D D"
_symmetry_group_IT_number 70
_space_group.IT_coordinate_system_code '2'
_symmetry_cell_setting 'orthorhombic'
loop_
_space_group_symop_operation_xyz
x,y,z
1/4-x,1/4-y,z
x,1/4-y,1/4-z
1/4-x,y,1/4-z
-x,-y,-z
3/4+x,3/4+y,-z
-x,3/4+y,3/4+z
3/4+x,-y,3/4+z
x,1/2+y,1/2+z
1/4-x,3/4-y,1/2+z
x,3/4-y,3/4-z
1/4-x,1/2+y,3/4-z
-x,1/2-y,1/2-z
3/4+x,1/4+y,1/2-z
-x,1/4+y,1/4+z
3/4+x,1/2-y,1/4+z
1/2+x,y,1/2+z
3/4-x,1/4-y,1/2+z
1/2+x,1/4-y,3/4-z
3/4-x,y,3/4-z
1/2-x,-y,1/2-z
1/4+x,3/4+y,1/2-z
1/2-x,3/4+y,1/4+z
1/4+x,-y,1/4+z
1/2+x,1/2+y,z
3/4-x,3/4-y,z
1/2+x,3/4-y,1/4-z
3/4-x,1/2+y,1/4-z
1/2-x,1/2-y,-z
1/4+x,1/4+y,-z
1/2-x,1/4+y,3/4+z
1/4+x,1/2-y,3/4+z
loop_
_atom_site_type_symbol
_atom_site_label
_atom_site_fract_x
_atom_site_fract_y
_atom_site_fract_z
Si Si1 0.219952 0.405346 0.621799
Si Si2 0.081871 0.711530 0.959091
Si Si3 0.242807 0.686916 0.865299
Si Si4 0.625000 0.003924 0.125000
Si Si5 0.291734 0.793427 0.481967
Si Si6 0.977973 0.791963 0.943620
O O1 0.125000 0.418155 0.625000
O O2 0.261534 0.426540 0.543839
O O3 0.229380 0.357097 0.601177
O O4 0.268465 0.421842 0.701784
O O5 0.151496 0.698648 0.894196
O O6 0.038287 0.753331 0.931403
O O7 0.114478 0.715244 0.049854
O O8 0.298003 0.724843 0.896074
O O9 0.258433 0.680426 0.768683
O O10 0.250000 0.750000 0.500000
O O11 0.268410 0.813671 0.394256
O O12 0.386801 0.780355 0.474071
#
# Coordination Sequence:
#
# PCOD8286198 Si02
#       6
#    32  32  32  16  32  32
#     4  12  24  40  66  97 138 172 211 277 343 399
#     4  11  22  40  69  93 127 175 228 269 332 394
#     4  11  22  43  63  96 129 173 221 276 335 389
#     4  10  24  44  69  92 126 176 234 276 313 402
#     4  11  20  36  60  97 132 165 216 262 323 400
#     4  10  21  36  63  94 127 170 216 265 321 398
#
# _framework density 20.245207000000001
#
# number of rings (size 3 to 8) (size 9 to 14) (size 15 to 20)
#    0.000    1.091    4.545    2.182    0.000    2.182 
#    0.000    3.636    4.000    0.000    0.000    0.000 
#    0.000    0.000    0.000    0.000    0.000    0.000 
#
# Total GULP energy -545081.730978 kJ/mol
# GULP energy per Si atom -12388.221159 kJ/mol
# Density = 2.019913 g / cm^3
# Si number density = 20.245207 Si / 1000 Ang^3
#
#
#
# Elastic Constant Matrix: (Units=GPa)
#
#
# Indices 1 2 3 4 5 6 
#
# 1 120.2015 23.3631 35.6709 0.0000 0.0000 0.0000
# 2 23.3631 71.1540 43.1179 0.0000 0.0000 0.0000
# 3 35.6709 43.1179 138.3737 0.0000 0.0000 0.0000
# 4 0.0000 0.0000 0.0000 21.3299 0.0000 0.0000
# 5 0.0000 0.0000 0.0000 0.0000 30.9984 0.0000
# 6 0.0000 0.0000 0.0000 0.0000 0.0000 13.7992
#
#
#
# Elastic Compliance Matrix: (Units=1/GPa)
#
#
# Indices 1 2 3 4 5 6 
#
# 1 0.009224 -0.001957 -0.001768 0.000000 0.000000 0.000000
# 2 -0.001957 0.017741 -0.005024 0.000000 0.000000 0.000000
# 3 -0.001768 -0.005024 0.009248 0.000000 0.000000 0.000000
# 4 0.000000 0.000000 0.000000 0.046882 0.000000 0.000000
# 5 0.000000 0.000000 0.000000 0.000000 0.032260 0.000000
# 6 0.000000 0.000000 0.000000 0.000000 0.000000 0.072468
#
#
# Mechanical properties :
#
#
# Convention : Reuss Voigt Hill
#
# Bulk Modulus (GPa) = 53.43208 59.33700 56.38454
# Shear Modulus (GPa) = 23.63394 28.39732 26.01563
#
# Velocity S-wave (km/s) = 3.42041 3.74929 3.58862
# Velocity P-wave (km/s) = 6.48449 6.93654 6.71432
#
# Compressibility (1/GPa) = 0.01871535
#
# Stress axis : x y z
#
# Youngs Moduli (GPa) = 108.40700 56.36685 108.13222
#
# Poissons Ratio (x) = 0.11034 0.19118
# Poissons Ratio (y) = 0.21220 0.54321
# Poissons Ratio (z) = 0.19166 0.28316
#
# Static dielectric constant tensor:
#      x y z
#    x -5.638240 0.000000 0.000000 
#    y 0.000000 3.515310 0.000000 
#    z 0.000000 0.000000 4.628530 
# 
# 
# High freq. dielectric constant tensor:
#      x y z
#    x 1.806450 0.000000 0.000000 
#    y 0.000000 1.767750 0.000000 
#    z 0.000000 0.000000 1.796570 
# 
# From -- ./inp_files/35258.got.cif
#   From: 2010.03.12/outbox.cif.g09.slc.cpg/sg70_18_cif.got.tgz:35258.got - 2010.04.16 13:46:32.
