data_PCOD8286415
_publ_section_title
;
Structure prediction by ZEFSAII (Michael W. Deem and Ramdas Pophale) SiO2 
 PCOD8286415
Probable space group: F D D D
;
_chemical_formula_sum "Si O2"
_cell_formula_units_Z 96
_cell_length_a 19.766698
_cell_length_b 8.484922
_cell_length_c 23.372176
_cell_angle_alpha 90.000000
_cell_angle_beta 90.000000
_cell_angle_gamma 90.000000
_cell_volume 3919.955433
_symmetry_space_group_name_H-M "F D D D"
_symmetry_group_IT_number 70
_space_group.IT_coordinate_system_code '2'
_symmetry_cell_setting 'orthorhombic'
loop_
_space_group_symop_operation_xyz
x,y,z
1/4-x,1/4-y,z
x,1/4-y,1/4-z
1/4-x,y,1/4-z
-x,-y,-z
3/4+x,3/4+y,-z
-x,3/4+y,3/4+z
3/4+x,-y,3/4+z
x,1/2+y,1/2+z
1/4-x,3/4-y,1/2+z
x,3/4-y,3/4-z
1/4-x,1/2+y,3/4-z
-x,1/2-y,1/2-z
3/4+x,1/4+y,1/2-z
-x,1/4+y,1/4+z
3/4+x,1/2-y,1/4+z
1/2+x,y,1/2+z
3/4-x,1/4-y,1/2+z
1/2+x,1/4-y,3/4-z
3/4-x,y,3/4-z
1/2-x,-y,1/2-z
1/4+x,3/4+y,1/2-z
1/2-x,3/4+y,1/4+z
1/4+x,-y,1/4+z
1/2+x,1/2+y,z
3/4-x,3/4-y,z
1/2+x,3/4-y,1/4-z
3/4-x,1/2+y,1/4-z
1/2-x,1/2-y,-z
1/4+x,1/4+y,-z
1/2-x,1/4+y,3/4+z
1/4+x,1/2-y,3/4+z
loop_
_atom_site_type_symbol
_atom_site_label
_atom_site_fract_x
_atom_site_fract_y
_atom_site_fract_z
Si Si1 0.793869 0.134644 0.220550
Si Si2 0.125000 0.125000 0.051193
Si Si3 0.393188 0.625000 0.125000
Si Si4 0.504963 0.939533 0.564763
O O1 0.834438 0.246066 0.264101
O O2 0.847198 0.057186 0.176653
O O3 0.742026 0.249289 0.185649
O O4 0.750000 0.000000 0.250000
O O5 0.177131 0.228502 0.090243
O O6 0.439785 0.482828 0.102560
O O7 0.500000 0.000000 0.500000
#
# Coordination Sequence:
#
# PCOD8286415 Si02
#       4
#    32  16  16  32
#     4  11  24  42  73 111 148 200 260 321 382 464
#     4  10  22  49  62 106 158 186 258 321 374 456
#     4  12  22  45  76 107 150 208 256 306 408 458
#     4  10  22  43  70 103 150 195 252 314 376 458
#
# _framework density 24.490074
#
# number of rings (size 3 to 8) (size 9 to 14) (size 15 to 20)
#    0.000    1.333    6.667    0.000    0.000   12.667 
#    0.000    0.000    0.000    2.000    0.000    0.000 
#    0.000    0.000    0.000    0.000    0.000    0.000 
#
# Total GULP energy -297360.221583 kJ/mol
# GULP energy per Si atom -12390.009233 kJ/mol
# Density = 2.443433 g / cm^3
# Si number density = 24.490074 Si / 1000 Ang^3
#
#
#
# Elastic Constant Matrix: (Units=GPa)
#
#
# Indices 1 2 3 4 5 6 
#
# 1 200.1309 110.5615 67.0505 0.0000 0.0000 0.0000
# 2 110.5615 194.5314 64.6850 0.0000 0.0000 0.0000
# 3 67.0505 64.6850 87.5521 0.0000 0.0000 0.0000
# 4 0.0000 0.0000 0.0000 37.8184 0.0000 0.0000
# 5 0.0000 0.0000 0.0000 0.0000 60.6334 0.0000
# 6 0.0000 0.0000 0.0000 0.0000 0.0000 46.0242
#
#
#
# Elastic Compliance Matrix: (Units=1/GPa)
#
#
# Indices 1 2 3 4 5 6 
#
# 1 0.008103 -0.003370 -0.003716 0.000000 0.000000 0.000000
# 2 -0.003370 0.008216 -0.003489 0.000000 0.000000 0.000000
# 3 -0.003716 -0.003489 0.016846 0.000000 0.000000 0.000000
# 4 0.000000 0.000000 0.000000 0.026442 0.000000 0.000000
# 5 0.000000 0.000000 0.000000 0.000000 0.016493 0.000000
# 6 0.000000 0.000000 0.000000 0.000000 0.000000 0.021728
#
#
# Mechanical properties :
#
#
# Convention : Reuss Voigt Hill
#
# Bulk Modulus (GPa) = 83.23359 107.42315 95.32837
# Shear Modulus (GPa) = 40.65584 44.88971 42.77277
#
# Velocity S-wave (km/s) = 4.07885 4.28597 4.18369
# Velocity P-wave (km/s) = 7.49954 8.27357 7.89604
#
# Compressibility (1/GPa) = 0.01201438
#
# Stress axis : x y z
#
# Youngs Moduli (GPa) = 123.40420 121.71195 59.36193
#
# Poissons Ratio (x) = 0.41016 0.22060
# Poissons Ratio (y) = 0.41586 0.20714
# Poissons Ratio (z) = 0.45859 0.42471
#
# Static dielectric constant tensor:
#      x y z
#    x 8.678860 0.000000 0.000000 
#    y 0.000000 4.170200 0.000000 
#    z 0.000000 0.000000 4.362880 
# 
# 
# High freq. dielectric constant tensor:
#      x y z
#    x 1.984090 0.000000 0.000000 
#    y 0.000000 1.970370 0.000000 
#    z 0.000000 0.000000 1.969360 
# 
# From -- ./inp_files/60019.got.cif
#   From: 2010.03.12/outbox.cif.g09.slc.cpg/sg70_31_cif.got.tgz:60019.got - 2010.04.16 13:46:32.
