data_PCOD8286059
_publ_section_title
;
Structure prediction by ZEFSAII (Michael W. Deem and Ramdas Pophale) SiO2 
 PCOD8286059
Probable space group: F D D D
;
_chemical_formula_sum "Si O2"
_cell_formula_units_Z 208
_cell_length_a 19.017313
_cell_length_b 29.887028
_cell_length_c 18.999955
_cell_angle_alpha 90.000000
_cell_angle_beta 90.000000
_cell_angle_gamma 90.000000
_cell_volume 10799.022780
_symmetry_space_group_name_H-M "F D D D"
_symmetry_group_IT_number 70
_space_group.IT_coordinate_system_code '2'
_symmetry_cell_setting 'orthorhombic'
loop_
_space_group_symop_operation_xyz
x,y,z
1/4-x,1/4-y,z
x,1/4-y,1/4-z
1/4-x,y,1/4-z
-x,-y,-z
3/4+x,3/4+y,-z
-x,3/4+y,3/4+z
3/4+x,-y,3/4+z
x,1/2+y,1/2+z
1/4-x,3/4-y,1/2+z
x,3/4-y,3/4-z
1/4-x,1/2+y,3/4-z
-x,1/2-y,1/2-z
3/4+x,1/4+y,1/2-z
-x,1/4+y,1/4+z
3/4+x,1/2-y,1/4+z
1/2+x,y,1/2+z
3/4-x,1/4-y,1/2+z
1/2+x,1/4-y,3/4-z
3/4-x,y,3/4-z
1/2-x,-y,1/2-z
1/4+x,3/4+y,1/2-z
1/2-x,3/4+y,1/4+z
1/4+x,-y,1/4+z
1/2+x,1/2+y,z
3/4-x,3/4-y,z
1/2+x,3/4-y,1/4-z
3/4-x,1/2+y,1/4-z
1/2-x,1/2-y,-z
1/4+x,1/4+y,-z
1/2-x,1/4+y,3/4+z
1/4+x,1/2-y,3/4+z
loop_
_atom_site_type_symbol
_atom_site_label
_atom_site_fract_x
_atom_site_fract_y
_atom_site_fract_z
Si Si1 0.612584 0.224353 0.412047
Si Si2 0.153893 0.302167 0.234825
Si Si3 0.117374 0.892285 0.797764
Si Si4 0.763726 0.057071 0.848498
Si Si5 0.992932 0.657663 0.431844
Si Si6 0.421980 0.012694 0.018662
Si Si7 0.125000 0.784410 0.125000
O O1 0.583978 0.268599 0.450630
O O2 0.694821 0.218630 0.428137
O O3 0.567836 0.182192 0.440121
O O4 0.605254 0.228974 0.328032
O O5 0.161442 0.353496 0.259077
O O6 0.212859 0.291846 0.176465
O O7 0.075564 0.295151 0.205173
O O8 0.096834 0.875000 0.875000
O O9 0.044495 0.903752 0.757936
O O10 0.165708 0.936466 0.797597
O O11 0.745149 0.109297 0.851131
O O12 0.944197 0.684580 0.376660
O O13 0.377193 0.005320 0.946569
O O14 0.500000 0.000000 0.000000
#
# Coordination Sequence:
#
# PCOD8286059 Si02
#       7
#    32  32  32  32  32  32  16
#     4  12  23  35  61  91 120 150 199 254 308 349
#     4  10  22  39  61  85 112 160 199 244 292 363
#     4  10  20  39  62  86 116 157 205 245 295 364
#     4  10  22  40  59  83 120 156 197 241 298 361
#     4  10  21  38  61  85 118 158 197 239 298 363
#     4  11  22  36  59  89 118 153 203 254 299 358
#     4  10  20  38  60  80 115 158 202 239 290 368
#
# _framework density 19.261002000000001
#
# number of rings (size 3 to 8) (size 9 to 14) (size 15 to 20)
#    0.000    1.538    3.077    3.692    4.308    0.000 
#    0.000    0.000    0.000    3.692    0.000    0.000 
#    0.000    0.000    0.000    0.000    0.000    0.000 
#
# Total GULP energy -644797.877198 kJ/mol
# GULP energy per Si atom -12399.959177 kJ/mol
# Density = 1.921716 g / cm^3
# Si number density = 19.261002 Si / 1000 Ang^3
#
#
#
# Elastic Constant Matrix: (Units=GPa)
#
#
# Indices 1 2 3 4 5 6 
#
# 1 88.1302 33.9149 18.4425 0.0000 0.0000 0.0000
# 2 33.9149 73.6951 35.1399 0.0000 0.0000 0.0000
# 3 18.4425 35.1399 112.0980 0.0000 0.0000 0.0000
# 4 0.0000 0.0000 0.0000 29.2536 0.0000 0.0000
# 5 0.0000 0.0000 0.0000 0.0000 19.0647 0.0000
# 6 0.0000 0.0000 0.0000 0.0000 0.0000 33.4851
#
#
#
# Elastic Compliance Matrix: (Units=1/GPa)
#
#
# Indices 1 2 3 4 5 6 
#
# 1 0.013799 -0.006194 -0.000329 0.000000 0.000000 0.000000
# 2 -0.006194 0.018734 -0.004854 0.000000 0.000000 0.000000
# 3 -0.000329 -0.004854 0.010496 0.000000 0.000000 0.000000
# 4 0.000000 0.000000 0.000000 0.034184 0.000000 0.000000
# 5 0.000000 0.000000 0.000000 0.000000 0.052453 0.000000
# 6 0.000000 0.000000 0.000000 0.000000 0.000000 0.029864
#
#
# Mechanical properties :
#
#
# Convention : Reuss Voigt Hill
#
# Bulk Modulus (GPa) = 49.31579 49.87979 49.59779
# Shear Modulus (GPa) = 26.44917 28.78908 27.61912
#
# Velocity S-wave (km/s) = 3.70969 3.87031 3.79085
# Velocity P-wave (km/s) = 6.63390 6.77683 6.70574
#
# Compressibility (1/GPa) = 0.02027748
#
# Stress axis : x y z
#
# Youngs Moduli (GPa) = 72.46827 53.37834 95.27114
#
# Poissons Ratio (x) = 0.33061 0.03131
# Poissons Ratio (y) = 0.44885 0.46242
# Poissons Ratio (z) = 0.02382 0.25908
#
# Static dielectric constant tensor:
#      x y z
#    x 3.411260 0.000000 0.000000 
#    y 0.000000 3.574710 0.000000 
#    z 0.000000 0.000000 3.800830 
# 
# 
# High freq. dielectric constant tensor:
#      x y z
#    x 1.735820 0.000000 0.000000 
#    y 0.000000 1.743250 0.000000 
#    z 0.000000 0.000000 1.758380 
# 
# From -- ./inp_files/36704.got.cif
#   From: 2010.03.12/outbox.cif.g09.slc.cpg/sg70_19_cif.got.tgz:36704.got - 2010.04.16 13:46:32.
