data_PCOD8286351
_publ_section_title
;
Structure prediction by ZEFSAII (Michael W. Deem and Ramdas Pophale) SiO2 
 PCOD8286351
Probable space group: F D D D
;
_chemical_formula_sum "Si O2"
_cell_formula_units_Z 144
_cell_length_a 18.869912
_cell_length_b 16.169615
_cell_length_c 21.524838
_cell_angle_alpha 90.000000
_cell_angle_beta 90.000000
_cell_angle_gamma 90.000000
_cell_volume 6567.641612
_symmetry_space_group_name_H-M "F D D D"
_symmetry_group_IT_number 70
_space_group.IT_coordinate_system_code '2'
_symmetry_cell_setting 'orthorhombic'
loop_
_space_group_symop_operation_xyz
x,y,z
1/4-x,1/4-y,z
x,1/4-y,1/4-z
1/4-x,y,1/4-z
-x,-y,-z
3/4+x,3/4+y,-z
-x,3/4+y,3/4+z
3/4+x,-y,3/4+z
x,1/2+y,1/2+z
1/4-x,3/4-y,1/2+z
x,3/4-y,3/4-z
1/4-x,1/2+y,3/4-z
-x,1/2-y,1/2-z
3/4+x,1/4+y,1/2-z
-x,1/4+y,1/4+z
3/4+x,1/2-y,1/4+z
1/2+x,y,1/2+z
3/4-x,1/4-y,1/2+z
1/2+x,1/4-y,3/4-z
3/4-x,y,3/4-z
1/2-x,-y,1/2-z
1/4+x,3/4+y,1/2-z
1/2-x,3/4+y,1/4+z
1/4+x,-y,1/4+z
1/2+x,1/2+y,z
3/4-x,3/4-y,z
1/2+x,3/4-y,1/4-z
3/4-x,1/2+y,1/4-z
1/2-x,1/2-y,-z
1/4+x,1/4+y,-z
1/2-x,1/4+y,3/4+z
1/4+x,1/2-y,3/4+z
loop_
_atom_site_type_symbol
_atom_site_label
_atom_site_fract_x
_atom_site_fract_y
_atom_site_fract_z
Si Si1 0.759459 0.429794 0.157376
Si Si2 0.195989 0.164016 0.041211
Si Si3 0.676928 0.459071 0.444101
Si Si4 0.803494 0.625000 0.625000
Si Si5 0.557229 0.992457 0.164443
O O1 0.810648 0.416568 0.216499
O O2 0.700097 0.495049 0.179530
O O3 0.805462 0.462549 0.099603
O O4 0.719932 0.345646 0.138558
O O5 0.125000 0.125000 0.068538
O O6 0.263155 0.110774 0.063361
O O7 0.601920 0.419316 0.426432
O O8 0.670117 0.489784 0.514076
O O9 0.755585 0.691878 0.659624
O O10 0.625000 0.021238 0.125000
#
# Coordination Sequence:
#
# PCOD8286351 Si02
#       5
#    32  32  32  16  32
#     4  10  23  41  69 105 139 181 237 283 369 419
#     4  10  22  39  69 107 148 179 229 300 351 436
#     4  11  25  45  74 105 144 191 228 296 378 412
#     4  12  27  54  69 100 154 182 246 300 349 434
#     4  11  29  48  74 105 136 192 249 295 352 432
#
# _framework density 21.925677
#
# number of rings (size 3 to 8) (size 9 to 14) (size 15 to 20)
#    0.000    1.333    2.222    0.333   12.444    1.778 
#    4.000    0.000    0.000    0.000    0.000    0.000 
#    0.000    0.000    0.000    0.000    0.000    0.000 
#
# Total GULP energy -446570.146791 kJ/mol
# GULP energy per Si atom -12404.726300 kJ/mol
# Density = 2.187577 g / cm^3
# Si number density = 21.925677 Si / 1000 Ang^3
#
#
#
# Elastic Constant Matrix: (Units=GPa)
#
#
# Indices 1 2 3 4 5 6 
#
# 1 152.5733 59.3240 62.5412 0.0000 0.0000 0.0000
# 2 59.3240 99.8439 55.3650 0.0000 0.0000 0.0000
# 3 62.5412 55.3650 151.3255 0.0000 0.0000 0.0000
# 4 0.0000 0.0000 0.0000 40.1459 0.0000 0.0000
# 5 0.0000 0.0000 0.0000 0.0000 21.0327 0.0000
# 6 0.0000 0.0000 0.0000 0.0000 0.0000 36.0621
#
#
#
# Elastic Compliance Matrix: (Units=1/GPa)
#
#
# Indices 1 2 3 4 5 6 
#
# 1 0.009088 -0.004161 -0.002233 0.000000 0.000000 0.000000
# 2 -0.004161 0.014470 -0.003574 0.000000 0.000000 0.000000
# 3 -0.002233 -0.003574 0.008839 0.000000 0.000000 0.000000
# 4 0.000000 0.000000 0.000000 0.024909 0.000000 0.000000
# 5 0.000000 0.000000 0.000000 0.000000 0.047545 0.000000
# 6 0.000000 0.000000 0.000000 0.000000 0.000000 0.027730
#
#
# Mechanical properties :
#
#
# Convention : Reuss Voigt Hill
#
# Bulk Modulus (GPa) = 80.26342 84.24479 82.25411
# Shear Modulus (GPa) = 31.91382 34.54895 33.23139
#
# Velocity S-wave (km/s) = 3.81930 3.97385 3.89734
# Velocity P-wave (km/s) = 7.49239 7.71762 7.60584
#
# Compressibility (1/GPa) = 0.01245897
#
# Stress axis : x y z
#
# Youngs Moduli (GPa) = 110.03927 69.10805 113.13416
#
# Poissons Ratio (x) = 0.28757 0.25268
# Poissons Ratio (y) = 0.45789 0.40438
# Poissons Ratio (z) = 0.24576 0.24702
#
# Static dielectric constant tensor:
#      x y z
#    x 3.789180 0.000000 0.000000 
#    y 0.000000 4.118340 0.000000 
#    z 0.000000 0.000000 4.077430 
# 
# 
# High freq. dielectric constant tensor:
#      x y z
#    x 1.855540 0.000000 0.000000 
#    y 0.000000 1.867830 0.000000 
#    z 0.000000 0.000000 1.872590 
# 
# From -- ./inp_files/44670.got.cif
#   From: 2010.03.12/outbox.cif.g09.slc.cpg/sg70_23_cif.got.tgz:44670.got - 2010.04.16 13:46:32.
