data_PCOD8286806
_publ_section_title
;
Structure prediction by ZEFSAII (Michael W. Deem and Ramdas Pophale) SiO2 
 PCOD8286806
Probable space group: F D D D
;
_chemical_formula_sum "Si O2"
_cell_formula_units_Z 144
_cell_length_a 11.795594
_cell_length_b 24.787947
_cell_length_c 22.449025
_cell_angle_alpha 90.000000
_cell_angle_beta 90.000000
_cell_angle_gamma 90.000000
_cell_volume 6563.838069
_symmetry_space_group_name_H-M "F D D D"
_symmetry_group_IT_number 70
_space_group.IT_coordinate_system_code '2'
_symmetry_cell_setting 'orthorhombic'
loop_
_space_group_symop_operation_xyz
x,y,z
1/4-x,1/4-y,z
x,1/4-y,1/4-z
1/4-x,y,1/4-z
-x,-y,-z
3/4+x,3/4+y,-z
-x,3/4+y,3/4+z
3/4+x,-y,3/4+z
x,1/2+y,1/2+z
1/4-x,3/4-y,1/2+z
x,3/4-y,3/4-z
1/4-x,1/2+y,3/4-z
-x,1/2-y,1/2-z
3/4+x,1/4+y,1/2-z
-x,1/4+y,1/4+z
3/4+x,1/2-y,1/4+z
1/2+x,y,1/2+z
3/4-x,1/4-y,1/2+z
1/2+x,1/4-y,3/4-z
3/4-x,y,3/4-z
1/2-x,-y,1/2-z
1/4+x,3/4+y,1/2-z
1/2-x,3/4+y,1/4+z
1/4+x,-y,1/4+z
1/2+x,1/2+y,z
3/4-x,3/4-y,z
1/2+x,3/4-y,1/4-z
3/4-x,1/2+y,1/4-z
1/2-x,1/2-y,-z
1/4+x,1/4+y,-z
1/2-x,1/4+y,3/4+z
1/4+x,1/2-y,3/4+z
loop_
_atom_site_type_symbol
_atom_site_label
_atom_site_fract_x
_atom_site_fract_y
_atom_site_fract_z
Si Si1 0.502541 0.892737 0.225246
Si Si2 0.504690 0.252877 0.096466
Si Si3 0.625000 0.218250 0.625000
Si Si4 0.095590 0.321712 0.402529
Si Si5 0.864670 0.717753 0.986085
O O1 0.375000 0.875000 0.240578
O O2 0.556203 0.925350 0.279665
O O3 0.584190 0.842320 0.214541
O O4 0.500334 0.933121 0.168065
O O5 0.625000 0.236549 0.125000
O O6 0.419426 0.232981 0.148181
O O7 0.459384 0.219229 0.038438
O O8 0.735217 0.182579 0.608225
O O9 0.670807 0.254254 0.679244
O O10 0.158349 0.375000 0.375000
O O11 0.750000 0.750000 0.000000
#
# Coordination Sequence:
#
# PCOD8286806 Si02
#       5
#    32  32  16  32  32
#     4  12  23  45  75 106 140 189 257 313 360 440
#     4  12  28  46  67 105 159 190 239 310 387 458
#     4  12  21  38  74 108 132 174 253 318 352 428
#     4  12  22  40  73 106 139 190 247 308 372 434
#     4  12  22  44  70 104 138 186 245 303 363 439
#
# _framework density 21.938383999999999
#
# number of rings (size 3 to 8) (size 9 to 14) (size 15 to 20)
#    0.000    0.000    8.889    1.667    1.556    1.333 
#    0.000    0.000    0.000    0.000    0.000    0.000 
#    0.000    0.000    0.000    0.000    0.000    0.000 
#
# Total GULP energy -445997.640092 kJ/mol
# GULP energy per Si atom -12388.823336 kJ/mol
# Density = 2.188845 g / cm^3
# Si number density = 21.938384 Si / 1000 Ang^3
#
#
#
# Elastic Constant Matrix: (Units=GPa)
#
#
# Indices 1 2 3 4 5 6 
#
# 1 108.0414 42.1816 34.4661 0.0000 0.0000 0.0000
# 2 42.1816 148.4354 33.7114 0.0000 0.0000 0.0000
# 3 34.4661 33.7114 85.2746 0.0000 0.0000 0.0000
# 4 0.0000 0.0000 0.0000 34.9839 0.0000 0.0000
# 5 0.0000 0.0000 0.0000 0.0000 33.9519 0.0000
# 6 0.0000 0.0000 0.0000 0.0000 0.0000 35.1279
#
#
#
# Elastic Compliance Matrix: (Units=1/GPa)
#
#
# Indices 1 2 3 4 5 6 
#
# 1 0.011354 -0.002400 -0.003640 0.000000 0.000000 0.000000
# 2 -0.002400 0.007909 -0.002157 0.000000 0.000000 0.000000
# 3 -0.003640 -0.002157 0.014051 0.000000 0.000000 0.000000
# 4 0.000000 0.000000 0.000000 0.028585 0.000000 0.000000
# 5 0.000000 0.000000 0.000000 0.000000 0.029453 0.000000
# 6 0.000000 0.000000 0.000000 0.000000 0.000000 0.028467
#
#
# Mechanical properties :
#
#
# Convention : Reuss Voigt Hill
#
# Bulk Modulus (GPa) = 59.10167 62.49663 60.79915
# Shear Modulus (GPa) = 35.24799 36.23888 35.74343
#
# Velocity S-wave (km/s) = 4.01269 4.06870 4.04079
# Velocity P-wave (km/s) = 6.96184 7.11489 7.03878
#
# Compressibility (1/GPa) = 0.01692000
#
# Stress axis : x y z
#
# Youngs Moduli (GPa) = 88.07540 126.44348 71.17077
#
# Poissons Ratio (x) = 0.30343 0.25908
# Poissons Ratio (y) = 0.21136 0.15349
# Poissons Ratio (z) = 0.32062 0.27269
#
# Static dielectric constant tensor:
#      x y z
#    x 3.866730 0.000000 0.000000 
#    y 0.000000 4.363950 0.000000 
#    z 0.000000 0.000000 4.086590 
# 
# 
# High freq. dielectric constant tensor:
#      x y z
#    x 1.842810 0.000000 0.000000 
#    y 0.000000 1.871790 0.000000 
#    z 0.000000 0.000000 1.855650 
# 
# From -- ./inp_files/20627.got.cif
#   From: 2010.03.12/outbox.cif.g09.slc.cpg/sg70_11_cif.got.tgz:20627.got - 2010.04.16 13:46:32.
