data_PCOD8286161
_publ_section_title
;
Structure prediction by ZEFSAII (Michael W. Deem and Ramdas Pophale) SiO2 
 PCOD8286161
Probable space group: F D D D
;
_chemical_formula_sum "Si O2"
_cell_formula_units_Z 216
_cell_length_a 32.279097
_cell_length_b 12.897631
_cell_length_c 25.354668
_cell_angle_alpha 90.000000
_cell_angle_beta 90.000000
_cell_angle_gamma 90.000000
_cell_volume 10555.753812
_symmetry_space_group_name_H-M "F D D D"
_symmetry_group_IT_number 70
_space_group.IT_coordinate_system_code '2'
_symmetry_cell_setting 'orthorhombic'
loop_
_space_group_symop_operation_xyz
x,y,z
1/4-x,1/4-y,z
x,1/4-y,1/4-z
1/4-x,y,1/4-z
-x,-y,-z
3/4+x,3/4+y,-z
-x,3/4+y,3/4+z
3/4+x,-y,3/4+z
x,1/2+y,1/2+z
1/4-x,3/4-y,1/2+z
x,3/4-y,3/4-z
1/4-x,1/2+y,3/4-z
-x,1/2-y,1/2-z
3/4+x,1/4+y,1/2-z
-x,1/4+y,1/4+z
3/4+x,1/2-y,1/4+z
1/2+x,y,1/2+z
3/4-x,1/4-y,1/2+z
1/2+x,1/4-y,3/4-z
3/4-x,y,3/4-z
1/2-x,-y,1/2-z
1/4+x,3/4+y,1/2-z
1/2-x,3/4+y,1/4+z
1/4+x,-y,1/4+z
1/2+x,1/2+y,z
3/4-x,3/4-y,z
1/2+x,3/4-y,1/4-z
3/4-x,1/2+y,1/4-z
1/2-x,1/2-y,-z
1/4+x,1/4+y,-z
1/2-x,1/4+y,3/4+z
1/4+x,1/2-y,3/4+z
loop_
_atom_site_type_symbol
_atom_site_label
_atom_site_fract_x
_atom_site_fract_y
_atom_site_fract_z
Si Si1 0.915497 0.595559 0.183824
Si Si2 0.987743 0.125000 0.125000
Si Si3 0.920758 0.382431 0.580819
Si Si4 0.508466 0.382296 0.495606
Si Si5 0.995363 0.591984 0.363679
Si Si6 0.306518 0.009836 0.935045
Si Si7 0.125000 0.625000 0.125000
Si Si8 0.175017 0.853913 0.464406
O O1 0.928595 0.625000 0.125000
O O2 0.923531 0.475435 0.199841
O O3 0.946189 0.649685 0.222871
O O4 0.869690 0.638708 0.193744
O O5 0.015391 0.226973 0.136877
O O6 0.958935 0.097822 0.175323
O O7 0.875000 0.375000 0.608379
O O8 0.956086 0.386033 0.625188
O O9 0.926559 0.477328 0.539071
O O10 0.500000 0.500000 0.500000
O O11 0.510942 0.329324 0.551982
O O12 0.476051 0.322007 0.458460
O O13 0.965789 0.679405 0.387534
O O14 0.346364 0.948392 0.912222
O O15 0.318794 0.098544 0.977463
#
# Coordination Sequence:
#
# PCOD8286161 Si02
#       8
#    32  16  32  32  32  32   8  32
#     4  11  22  40  66  97 135 179 228 287 338 407
#     4  10  20  42  69 109 134 164 232 280 346 430
#     4   9  20  39  67  98 134 170 219 287 342 408
#     4  12  26  41  65  97 128 176 234 283 343 404
#     4  11  23  43  67  99 138 174 228 282 346 418
#     4  12  27  48  70  96 137 191 226 288 356 411
#     4  12  32  52  66  94 144 188 244 286 332 452
#     4  10  22  41  67 102 132 176 221 283 353 407
#
# _framework density 20.462772999999999
#
# number of rings (size 3 to 8) (size 9 to 14) (size 15 to 20)
#    0.000    1.185    3.704    1.778    5.185    3.556 
#    1.333    0.000    0.000    0.000    0.000    0.000 
#    0.000    0.000    0.000    0.000    0.000    0.000 
#
# Total GULP energy -669027.648076 kJ/mol
# GULP energy per Si atom -12389.400890 kJ/mol
# Density = 2.041620 g / cm^3
# Si number density = 20.462773 Si / 1000 Ang^3
#
#
#
# Elastic Constant Matrix: (Units=GPa)
#
#
# Indices 1 2 3 4 5 6 
#
# 1 87.7379 51.0838 48.0945 0.0000 0.0000 0.0000
# 2 51.0838 120.5838 29.1037 0.0000 0.0000 0.0000
# 3 48.0945 29.1037 101.1806 0.0000 0.0000 0.0000
# 4 0.0000 0.0000 0.0000 36.2100 0.0000 0.0000
# 5 0.0000 0.0000 0.0000 0.0000 27.0596 0.0000
# 6 0.0000 0.0000 0.0000 0.0000 0.0000 34.2539
#
#
#
# Elastic Compliance Matrix: (Units=1/GPa)
#
#
# Indices 1 2 3 4 5 6 
#
# 1 0.019043 -0.006322 -0.007234 0.000000 0.000000 0.000000
# 2 -0.006322 0.011010 -0.000162 0.000000 0.000000 0.000000
# 3 -0.007234 -0.000162 0.013368 0.000000 0.000000 0.000000
# 4 0.000000 0.000000 0.000000 0.027617 0.000000 0.000000
# 5 0.000000 0.000000 0.000000 0.000000 0.036955 0.000000
# 6 0.000000 0.000000 0.000000 0.000000 0.000000 0.029194
#
#
# Mechanical properties :
#
#
# Convention : Reuss Voigt Hill
#
# Bulk Modulus (GPa) = 62.54986 62.89628 62.72307
# Shear Modulus (GPa) = 29.42015 31.58606 30.50310
#
# Velocity S-wave (km/s) = 3.79587 3.93311 3.86510
# Velocity P-wave (km/s) = 7.06013 7.17144 7.11600
#
# Compressibility (1/GPa) = 0.01598724
#
# Stress axis : x y z
#
# Youngs Moduli (GPa) = 52.51160 90.82497 74.80373
#
# Poissons Ratio (x) = 0.57416 0.54110
# Poissons Ratio (y) = 0.33196 0.01213
# Poissons Ratio (z) = 0.37985 0.01472
#
# Static dielectric constant tensor:
#      x y z
#    x 3.331290 0.000000 0.000000 
#    y 0.000000 4.043700 0.000000 
#    z 0.000000 0.000000 3.438830 
# 
# 
# High freq. dielectric constant tensor:
#      x y z
#    x 1.799520 0.000000 0.000000 
#    y 0.000000 1.825670 0.000000 
#    z 0.000000 0.000000 1.781170 
# 
# From -- ./inp_files/62352.got.cif
#   From: 2010.03.12/outbox.cif.g09.slc.cpg/sg70_32_cif.got.tgz:62352.got - 2010.04.16 13:46:32.
