data_PCOD8286423
_publ_section_title
;
Structure prediction by ZEFSAII (Michael W. Deem and Ramdas Pophale) SiO2 
 PCOD8286423
Probable space group: F D D D
;
_chemical_formula_sum "Si O2"
_cell_formula_units_Z 160
_cell_length_a 15.880850
_cell_length_b 23.871859
_cell_length_c 19.322102
_cell_angle_alpha 90.000000
_cell_angle_beta 90.000000
_cell_angle_gamma 90.000000
_cell_volume 7325.113439
_symmetry_space_group_name_H-M "F D D D"
_symmetry_group_IT_number 70
_space_group.IT_coordinate_system_code '2'
_symmetry_cell_setting 'orthorhombic'
loop_
_space_group_symop_operation_xyz
x,y,z
1/4-x,1/4-y,z
x,1/4-y,1/4-z
1/4-x,y,1/4-z
-x,-y,-z
3/4+x,3/4+y,-z
-x,3/4+y,3/4+z
3/4+x,-y,3/4+z
x,1/2+y,1/2+z
1/4-x,3/4-y,1/2+z
x,3/4-y,3/4-z
1/4-x,1/2+y,3/4-z
-x,1/2-y,1/2-z
3/4+x,1/4+y,1/2-z
-x,1/4+y,1/4+z
3/4+x,1/2-y,1/4+z
1/2+x,y,1/2+z
3/4-x,1/4-y,1/2+z
1/2+x,1/4-y,3/4-z
3/4-x,y,3/4-z
1/2-x,-y,1/2-z
1/4+x,3/4+y,1/2-z
1/2-x,3/4+y,1/4+z
1/4+x,-y,1/4+z
1/2+x,1/2+y,z
3/4-x,3/4-y,z
1/2+x,3/4-y,1/4-z
3/4-x,1/2+y,1/4-z
1/2-x,1/2-y,-z
1/4+x,1/4+y,-z
1/2-x,1/4+y,3/4+z
1/4+x,1/2-y,3/4+z
loop_
_atom_site_type_symbol
_atom_site_label
_atom_site_fract_x
_atom_site_fract_y
_atom_site_fract_z
Si Si1 0.695598 0.952128 0.218149
Si Si2 0.649685 0.185075 0.497487
Si Si3 0.428132 0.202968 0.808360
Si Si4 0.311158 0.596680 0.053304
Si Si5 0.518579 0.481849 0.684613
O O1 0.725483 0.893972 0.252176
O O2 0.750000 0.000000 0.250000
O O3 0.596689 0.965070 0.234319
O O4 0.712178 0.951743 0.137142
O O5 0.625000 0.125000 0.529872
O O6 0.725696 0.180536 0.440512
O O7 0.677508 0.228897 0.557285
O O8 0.567578 0.207302 0.460564
O O9 0.375000 0.181367 0.875000
O O10 0.610190 0.318819 0.763948
O O11 0.341617 0.625000 0.125000
O O12 0.239776 0.549747 0.069432
#
# Coordination Sequence:
#
# PCOD8286423 Si02
#       5
#    32  32  32  32  32
#     4  11  23  42  68  97 132 180 224 283 346 410
#     4  10  22  44  66  99 131 175 226 281 338 408
#     4  10  24  44  68 100 136 174 230 281 337 412
#     4  11  23  44  68  99 140 178 217 296 345 402
#     4  10  24  43  65 102 134 171 240 276 341 422
#
# _framework density 21.842663999999999
#
# number of rings (size 3 to 8) (size 9 to 14) (size 15 to 20)
#    0.000    1.600    2.000    1.200    5.600    4.400 
#   18.000    0.000    0.000    0.000    0.000    0.000 
#    0.000    0.000    0.000    0.000    0.000    0.000 
#
# Total GULP energy -495783.191722 kJ/mol
# GULP energy per Si atom -12394.579793 kJ/mol
# Density = 2.179295 g / cm^3
# Si number density = 21.842664 Si / 1000 Ang^3
#
#
#
# Elastic Constant Matrix: (Units=GPa)
#
#
# Indices 1 2 3 4 5 6 
#
# 1 100.2441 10.1355 21.7103 0.0000 0.0000 0.0000
# 2 10.1355 146.9899 30.6053 0.0000 0.0000 0.0000
# 3 21.7103 30.6053 85.3585 0.0000 0.0000 0.0000
# 4 0.0000 0.0000 0.0000 36.4731 0.0000 0.0000
# 5 0.0000 0.0000 0.0000 0.0000 27.2278 0.0000
# 6 0.0000 0.0000 0.0000 0.0000 0.0000 30.0443
#
#
#
# Elastic Compliance Matrix: (Units=1/GPa)
#
#
# Indices 1 2 3 4 5 6 
#
# 1 0.010562 -0.000183 -0.002621 0.000000 0.000000 0.000000
# 2 -0.000183 0.007355 -0.002591 0.000000 0.000000 0.000000
# 3 -0.002621 -0.002591 0.013311 0.000000 0.000000 0.000000
# 4 0.000000 0.000000 0.000000 0.027417 0.000000 0.000000
# 5 0.000000 0.000000 0.000000 0.000000 0.036727 0.000000
# 6 0.000000 0.000000 0.000000 0.000000 0.000000 0.033284
#
#
# Mechanical properties :
#
#
# Convention : Reuss Voigt Hill
#
# Bulk Modulus (GPa) = 48.92522 50.83277 49.87900
# Shear Modulus (GPa) = 34.18615 36.75847 35.47231
#
# Velocity S-wave (km/s) = 3.96044 4.10674 4.03425
# Velocity P-wave (km/s) = 6.58491 6.76829 6.67723
#
# Compressibility (1/GPa) = 0.02043936
#
# Stress axis : x y z
#
# Youngs Moduli (GPa) = 94.68157 135.95802 75.12692
#
# Poissons Ratio (x) = 0.02482 0.19690
# Poissons Ratio (y) = 0.01729 0.19464
# Poissons Ratio (z) = 0.24814 0.35224
#
# Static dielectric constant tensor:
#      x y z
#    x 4.176220 0.000000 0.000000 
#    y 0.000000 5.029190 0.000000 
#    z 0.000000 0.000000 2.563840 
# 
# 
# High freq. dielectric constant tensor:
#      x y z
#    x 1.860080 0.000000 0.000000 
#    y 0.000000 1.881980 0.000000 
#    z 0.000000 0.000000 1.834580 
# 
# From -- ./inp_files/51120.got.cif
#   From: 2010.03.12/outbox.cif.g09.slc.cpg/sg70_26_cif.got.tgz:51120.got - 2010.04.16 13:46:32.
