data_PCOD8286179
_publ_section_title
;
Structure prediction by ZEFSAII (Michael W. Deem and Ramdas Pophale) SiO2 
 PCOD8286179
Probable space group: F D D D
;
_chemical_formula_sum "Si O2"
_cell_formula_units_Z 144
_cell_length_a 18.925497
_cell_length_b 20.563679
_cell_length_c 19.386291
_cell_angle_alpha 90.000000
_cell_angle_beta 90.000000
_cell_angle_gamma 90.000000
_cell_volume 7544.714958
_symmetry_space_group_name_H-M "F D D D"
_symmetry_group_IT_number 70
_space_group.IT_coordinate_system_code '2'
_symmetry_cell_setting 'orthorhombic'
loop_
_space_group_symop_operation_xyz
x,y,z
1/4-x,1/4-y,z
x,1/4-y,1/4-z
1/4-x,y,1/4-z
-x,-y,-z
3/4+x,3/4+y,-z
-x,3/4+y,3/4+z
3/4+x,-y,3/4+z
x,1/2+y,1/2+z
1/4-x,3/4-y,1/2+z
x,3/4-y,3/4-z
1/4-x,1/2+y,3/4-z
-x,1/2-y,1/2-z
3/4+x,1/4+y,1/2-z
-x,1/4+y,1/4+z
3/4+x,1/2-y,1/4+z
1/2+x,y,1/2+z
3/4-x,1/4-y,1/2+z
1/2+x,1/4-y,3/4-z
3/4-x,y,3/4-z
1/2-x,-y,1/2-z
1/4+x,3/4+y,1/2-z
1/2-x,3/4+y,1/4+z
1/4+x,-y,1/4+z
1/2+x,1/2+y,z
3/4-x,3/4-y,z
1/2+x,3/4-y,1/4-z
3/4-x,1/2+y,1/4-z
1/2-x,1/2-y,-z
1/4+x,1/4+y,-z
1/2-x,1/4+y,3/4+z
1/4+x,1/2-y,3/4+z
loop_
_atom_site_type_symbol
_atom_site_label
_atom_site_fract_x
_atom_site_fract_y
_atom_site_fract_z
Si Si1 0.663603 0.751383 0.417437
Si Si2 0.921389 0.625000 0.625000
Si Si3 0.625000 0.125000 0.417189
Si Si4 0.985593 0.675096 0.763715
Si Si5 0.875000 0.117334 0.875000
Si Si6 0.176167 0.992500 0.680210
O O1 0.625434 0.811126 0.381806
O O2 0.643260 0.686503 0.378770
O O3 0.746092 0.769405 0.417855
O O4 0.641603 0.740897 0.496485
O O5 0.966787 0.635944 0.694094
O O6 0.556859 0.110114 0.462952
O O7 0.923684 0.674049 0.822323
O O8 0.000000 0.750000 0.750000
O O9 0.926666 0.163744 0.829757
O O10 0.125000 0.026987 0.625000
#
# Coordination Sequence:
#
# PCOD8286179 Si02
#       6
#    32  16  16  32  16  32
#     4  11  22  41  68  96 134 175 222 279 340 402
#     4  12  24  45  67 102 136 180 230 280 338 405
#     4  12  24  45  67 102 136 180 230 280 338 405
#     4  12  26  45  70 100 140 184 227 283 341 411
#     4  10  20  44  68  92 138 172 218 284 340 388
#     4   9  19  42  64  94 128 169 215 277 339 401
#
# _framework density 19.086209
#
# number of rings (size 3 to 8) (size 9 to 14) (size 15 to 20)
#    0.667    0.444    6.667    0.000    0.000    2.222 
#   12.000    0.000    0.000    0.000    0.000    0.000 
#    0.000    0.000    0.000    0.000    0.000    0.000 
#
# Total GULP energy -446210.154056 kJ/mol
# GULP energy per Si atom -12394.726502 kJ/mol
# Density = 1.904277 g / cm^3
# Si number density = 19.086209 Si / 1000 Ang^3
#
#
#
# Elastic Constant Matrix: (Units=GPa)
#
#
# Indices 1 2 3 4 5 6 
#
# 1 83.5482 36.6269 74.0423 0.0000 0.0000 0.0000
# 2 36.6269 126.6727 59.3175 0.0000 0.0000 0.0000
# 3 74.0423 59.3175 160.9253 0.0000 0.0000 0.0000
# 4 0.0000 0.0000 0.0000 32.1482 0.0000 0.0000
# 5 0.0000 0.0000 0.0000 0.0000 41.9408 0.0000
# 6 0.0000 0.0000 0.0000 0.0000 0.0000 24.0258
#
#
#
# Elastic Compliance Matrix: (Units=1/GPa)
#
#
# Indices 1 2 3 4 5 6 
#
# 1 0.020555 -0.001831 -0.008783 0.000000 0.000000 0.000000
# 2 -0.001831 0.009704 -0.002735 0.000000 0.000000 0.000000
# 3 -0.008783 -0.002735 0.011263 0.000000 0.000000 0.000000
# 4 0.000000 0.000000 0.000000 0.031106 0.000000 0.000000
# 5 0.000000 0.000000 0.000000 0.000000 0.023843 0.000000
# 6 0.000000 0.000000 0.000000 0.000000 0.000000 0.041622
#
#
# Mechanical properties :
#
#
# Convention : Reuss Voigt Hill
#
# Bulk Modulus (GPa) = 67.44805 79.01328 73.23066
# Shear Modulus (GPa) = 29.45823 33.03358 31.24591
#
# Velocity S-wave (km/s) = 3.93291 4.16475 4.05049
# Velocity P-wave (km/s) = 7.48593 8.03833 7.76704
#
# Compressibility (1/GPa) = 0.01482623
#
# Stress axis : x y z
#
# Youngs Moduli (GPa) = 48.64962 103.04710 88.78606
#
# Poissons Ratio (x) = 0.18865 0.77978
# Poissons Ratio (y) = 0.08906 0.24280
# Poissons Ratio (z) = 0.42727 0.28180
#
# Static dielectric constant tensor:
#      x y z
#    x 3.535990 0.000000 0.000000 
#    y 0.000000 3.398480 0.000000 
#    z 0.000000 0.000000 3.731540 
# 
# 
# High freq. dielectric constant tensor:
#      x y z
#    x 1.747850 0.000000 0.000000 
#    y 0.000000 1.734510 0.000000 
#    z 0.000000 0.000000 1.759210 
# 
# From -- ./inp_files/43611.got.cif
#   From: 2010.03.12/outbox.cif.g09.slc.cpg/sg70_22_cif.got.tgz:43611.got - 2010.04.16 13:46:32.
