data_PCOD8286476
_publ_section_title
;
Structure prediction by ZEFSAII (Michael W. Deem and Ramdas Pophale) SiO2 
 PCOD8286476
Probable space group: F D D D
;
_chemical_formula_sum "Si O2"
_cell_formula_units_Z 208
_cell_length_a 31.097340
_cell_length_b 20.675635
_cell_length_c 15.205003
_cell_angle_alpha 90.000000
_cell_angle_beta 90.000000
_cell_angle_gamma 90.000000
_cell_volume 9776.166935
_symmetry_space_group_name_H-M "F D D D"
_symmetry_group_IT_number 70
_space_group.IT_coordinate_system_code '2'
_symmetry_cell_setting 'orthorhombic'
loop_
_space_group_symop_operation_xyz
x,y,z
1/4-x,1/4-y,z
x,1/4-y,1/4-z
1/4-x,y,1/4-z
-x,-y,-z
3/4+x,3/4+y,-z
-x,3/4+y,3/4+z
3/4+x,-y,3/4+z
x,1/2+y,1/2+z
1/4-x,3/4-y,1/2+z
x,3/4-y,3/4-z
1/4-x,1/2+y,3/4-z
-x,1/2-y,1/2-z
3/4+x,1/4+y,1/2-z
-x,1/4+y,1/4+z
3/4+x,1/2-y,1/4+z
1/2+x,y,1/2+z
3/4-x,1/4-y,1/2+z
1/2+x,1/4-y,3/4-z
3/4-x,y,3/4-z
1/2-x,-y,1/2-z
1/4+x,3/4+y,1/2-z
1/2-x,3/4+y,1/4+z
1/4+x,-y,1/4+z
1/2+x,1/2+y,z
3/4-x,3/4-y,z
1/2+x,3/4-y,1/4-z
3/4-x,1/2+y,1/4-z
1/2-x,1/2-y,-z
1/4+x,1/4+y,-z
1/2-x,1/4+y,3/4+z
1/4+x,1/2-y,3/4+z
loop_
_atom_site_type_symbol
_atom_site_label
_atom_site_fract_x
_atom_site_fract_y
_atom_site_fract_z
Si Si1 0.038094 0.954563 0.250513
Si Si2 0.354394 0.701504 0.114881
Si Si3 0.326928 0.107467 0.888869
Si Si4 0.029608 0.196931 0.144149
Si Si5 0.813385 0.042545 0.720107
Si Si6 0.724439 0.625000 0.625000
Si Si7 0.952347 0.752770 0.290156
O O1 0.073921 0.985585 0.313667
O O2 0.061422 0.907324 0.183662
O O3 0.002675 0.916766 0.307127
O O4 0.019916 0.014754 0.195801
O O5 0.346633 0.625000 0.125000
O O6 0.403646 0.721211 0.139149
O O7 0.337110 0.728269 0.021519
O O8 0.375000 0.084488 0.875000
O O9 0.326277 0.139332 0.985116
O O10 0.297656 0.043190 0.877040
O O11 0.047657 0.125000 0.125000
O O12 0.983997 0.192722 0.189563
O O13 0.063366 0.233382 0.209390
O O14 0.694044 0.576571 0.680233
O O15 0.000000 0.750000 0.250000
#
# Coordination Sequence:
#
# PCOD8286476 Si02
#       7
#    32  32  32  32  32  16  32
#     4  11  20  39  68  96 128 162 228 270 327 389
#     4  12  20  41  70 100 120 170 231 282 316 384
#     4  11  20  38  70  97 122 169 222 288 322 384
#     4  10  24  42  64  97 133 175 208 271 337 403
#     4  10  23  41  68  97 128 165 229 275 326 378
#     4  12  24  44  65  98 136 180 216 270 338 417
#     4  12  23  39  67  98 135 172 221 271 340 398
#
# _framework density 21.276233000000001
#
# number of rings (size 3 to 8) (size 9 to 14) (size 15 to 20)
#    0.000    0.923    6.923    0.462    2.154    0.000 
#    2.769    1.923    0.000    0.000    0.000    0.000 
#    0.000    0.000    0.000    0.000    0.000    0.000 
#
# Total GULP energy -644415.990181 kJ/mol
# GULP energy per Si atom -12392.615196 kJ/mol
# Density = 2.122781 g / cm^3
# Si number density = 21.276233 Si / 1000 Ang^3
#
#
#
# Elastic Constant Matrix: (Units=GPa)
#
#
# Indices 1 2 3 4 5 6 
#
# 1 83.6980 38.6603 27.6444 0.0000 0.0000 0.0000
# 2 38.6603 145.3569 48.5282 0.0000 0.0000 0.0000
# 3 27.6444 48.5282 81.3693 0.0000 0.0000 0.0000
# 4 0.0000 0.0000 0.0000 21.8329 0.0000 0.0000
# 5 0.0000 0.0000 0.0000 0.0000 37.7724 0.0000
# 6 0.0000 0.0000 0.0000 0.0000 0.0000 160.9518
#
#
#
# Elastic Compliance Matrix: (Units=1/GPa)
#
#
# Indices 1 2 3 4 5 6 
#
# 1 0.014269 -0.002718 -0.003227 0.000000 0.000000 0.000000
# 2 -0.002718 0.009108 -0.004508 0.000000 0.000000 0.000000
# 3 -0.003227 -0.004508 0.016075 0.000000 0.000000 0.000000
# 4 0.000000 0.000000 0.000000 0.045803 0.000000 0.000000
# 5 0.000000 0.000000 0.000000 0.000000 0.026474 0.000000
# 6 0.000000 0.000000 0.000000 0.000000 0.000000 0.006213
#
#
# Mechanical properties :
#
#
# Convention : Reuss Voigt Hill
#
# Bulk Modulus (GPa) = 53.92239 60.01001 56.96620
# Shear Modulus (GPa) = 34.47590 57.15082 45.81336
#
# Velocity S-wave (km/s) = 4.02978 5.18842 4.64536
# Velocity P-wave (km/s) = 6.85938 8.00995 7.45689
#
# Compressibility (1/GPa) = 0.01854517
#
# Stress axis : x y z
#
# Youngs Moduli (GPa) = 70.08281 109.79827 62.20941
#
# Poissons Ratio (x) = 0.29840 0.20074
# Poissons Ratio (y) = 0.19047 0.28047
# Poissons Ratio (z) = 0.22615 0.49502
#
# Static dielectric constant tensor:
#      x y z
#    x 3.743200 0.000000 0.000000 
#    y 0.000000 4.062990 0.000000 
#    z 0.000000 0.000000 4.313980 
# 
# 
# High freq. dielectric constant tensor:
#      x y z
#    x 1.821920 0.000000 0.000000 
#    y 0.000000 1.823740 0.000000 
#    z 0.000000 0.000000 1.847970 
# 
# From -- ./inp_files/38753.got.cif
#   From: 2010.03.12/outbox.cif.g09.slc.cpg/sg70_20_cif.got.tgz:38753.got - 2010.04.16 13:46:32.
