data_PCOD8286840
_publ_section_title
;
Structure prediction by ZEFSAII (Michael W. Deem and Ramdas Pophale) SiO2 
 PCOD8286840
Probable space group: F D D D
;
_chemical_formula_sum "Si O2"
_cell_formula_units_Z 192
_cell_length_a 11.196938
_cell_length_b 25.188403
_cell_length_c 30.857140
_cell_angle_alpha 90.000000
_cell_angle_beta 90.000000
_cell_angle_gamma 90.000000
_cell_volume 8702.731356
_symmetry_space_group_name_H-M "F D D D"
_symmetry_group_IT_number 70
_space_group.IT_coordinate_system_code '2'
_symmetry_cell_setting 'orthorhombic'
loop_
_space_group_symop_operation_xyz
x,y,z
1/4-x,1/4-y,z
x,1/4-y,1/4-z
1/4-x,y,1/4-z
-x,-y,-z
3/4+x,3/4+y,-z
-x,3/4+y,3/4+z
3/4+x,-y,3/4+z
x,1/2+y,1/2+z
1/4-x,3/4-y,1/2+z
x,3/4-y,3/4-z
1/4-x,1/2+y,3/4-z
-x,1/2-y,1/2-z
3/4+x,1/4+y,1/2-z
-x,1/4+y,1/4+z
3/4+x,1/2-y,1/4+z
1/2+x,y,1/2+z
3/4-x,1/4-y,1/2+z
1/2+x,1/4-y,3/4-z
3/4-x,y,3/4-z
1/2-x,-y,1/2-z
1/4+x,3/4+y,1/2-z
1/2-x,3/4+y,1/4+z
1/4+x,-y,1/4+z
1/2+x,1/2+y,z
3/4-x,3/4-y,z
1/2+x,3/4-y,1/4-z
3/4-x,1/2+y,1/4-z
1/2-x,1/2-y,-z
1/4+x,1/4+y,-z
1/2-x,1/4+y,3/4+z
1/4+x,1/2-y,3/4+z
loop_
_atom_site_type_symbol
_atom_site_label
_atom_site_fract_x
_atom_site_fract_y
_atom_site_fract_z
Si Si1 0.480544 0.031136 0.341874
Si Si2 0.625089 0.974584 0.496938
Si Si3 0.520307 0.884883 0.267823
Si Si4 0.375000 0.875000 0.629588
Si Si5 0.128205 0.820859 0.352027
Si Si6 0.762931 0.700045 0.314139
Si Si7 0.125000 0.723458 0.125000
O O1 0.375000 0.041278 0.375000
O O2 0.442648 0.018716 0.292637
O O3 0.547663 0.087558 0.339183
O O4 0.556455 0.983946 0.365183
O O5 0.604076 0.916030 0.479325
O O6 0.500000 0.000000 0.500000
O O7 0.682693 0.005971 0.458081
O O8 0.375000 0.875000 0.272761
O O9 0.578456 0.924139 0.302591
O O10 0.556031 0.908645 0.221552
O O11 0.300653 0.915551 0.600543
O O12 0.175624 0.875000 0.375000
O O13 0.987962 0.813947 0.363240
O O14 0.866258 0.736483 0.334328
#
# Coordination Sequence:
#
# PCOD8286840 Si02
#       7
#    32  32  32  16  32  32  16
#     4  12  27  46  76 113 148 190 264 317 376 454
#     4  12  24  46  72 108 148 190 243 323 385 437
#     4  12  25  43  75 112 146 197 250 320 385 442
#     4  12  26  46  72 112 145 209 240 312 378 454
#     4  12  28  48  75 109 151 199 254 306 382 457
#     4  12  24  47  74 103 153 194 253 306 378 451
#     4  12  29  50  74 106 156 216 243 304 384 468
#
# _framework density 22.06204
#
# number of rings (size 3 to 8) (size 9 to 14) (size 15 to 20)
#    0.000    0.000    5.833    3.250    8.167    0.667 
#    3.000    0.000    0.000    0.000    0.000    0.000 
#    0.000    0.000    0.000    0.000    0.000    0.000 
#
# Total GULP energy -594632.406908 kJ/mol
# GULP energy per Si atom -12388.175144 kJ/mol
# Density = 2.201183 g / cm^3
# Si number density = 22.062040 Si / 1000 Ang^3
#
#
#
# Elastic Constant Matrix: (Units=GPa)
#
#
# Indices 1 2 3 4 5 6 
#
# 1 85.0573 47.0086 30.4652 0.0000 0.0000 0.0000
# 2 47.0086 153.1276 24.1751 0.0000 0.0000 0.0000
# 3 30.4652 24.1751 81.2309 0.0000 0.0000 0.0000
# 4 0.0000 0.0000 0.0000 40.1357 0.0000 0.0000
# 5 0.0000 0.0000 0.0000 0.0000 35.2264 0.0000
# 6 0.0000 0.0000 0.0000 0.0000 0.0000 -22.3929
#
#
#
# Elastic Compliance Matrix: (Units=1/GPa)
#
#
# Indices 1 2 3 4 5 6 
#
# 1 0.015682 -0.004077 -0.004668 0.000000 0.000000 0.000000
# 2 -0.004077 0.007913 -0.000826 0.000000 0.000000 0.000000
# 3 -0.004668 -0.000826 0.014307 0.000000 0.000000 0.000000
# 4 0.000000 0.000000 0.000000 0.024915 0.000000 0.000000
# 5 0.000000 0.000000 0.000000 0.000000 0.028388 0.000000
# 6 0.000000 0.000000 0.000000 0.000000 0.000000 -0.044657
#
#
# Mechanical properties :
#
#
# Convention : Reuss Voigt Hill
#
# Bulk Modulus (GPa) = 53.30582 58.07927 55.69254
# Shear Modulus (GPa) = 69.49924 25.11164 47.30544
#
# Velocity S-wave (km/s) = 5.61873 3.37742 4.63557
# Velocity P-wave (km/s) = 8.14296 6.44918 7.34505
#
# Compressibility (1/GPa) = 0.01875968
#
# Stress axis : x y z
#
# Youngs Moduli (GPa) = 63.76683 126.38162 69.89561
#
# Poissons Ratio (x) = 0.51529 0.32628
# Poissons Ratio (y) = 0.26000 0.05771
# Poissons Ratio (z) = 0.29767 0.10435
#
# Static dielectric constant tensor:
#      x y z
#    x 3.921440 0.000000 0.000000 
#    y 0.000000 4.511270 0.000000 
#    z 0.000000 0.000000 4.228100 
# 
# 
# High freq. dielectric constant tensor:
#      x y z
#    x 1.853440 0.000000 0.000000 
#    y 0.000000 1.904850 0.000000 
#    z 0.000000 0.000000 1.875570 
# 
# From -- ./inp_files/64978.got.cif
#   From: 2010.03.12/outbox.cif.g09.slc.cpg/sg70_33_cif.got.tgz:64978.got - 2010.04.16 13:46:32.
