data_PCOD8286344
_publ_section_title
;
Structure prediction by ZEFSAII (Michael W. Deem and Ramdas Pophale) SiO2 
 PCOD8286344
Probable space group: F D D D
;
_chemical_formula_sum "Si O2"
_cell_formula_units_Z 168
_cell_length_a 18.936031
_cell_length_b 22.074517
_cell_length_c 18.417300
_cell_angle_alpha 90.000000
_cell_angle_beta 90.000000
_cell_angle_gamma 90.000000
_cell_volume 7698.500248
_symmetry_space_group_name_H-M "F D D D"
_symmetry_group_IT_number 70
_space_group.IT_coordinate_system_code '2'
_symmetry_cell_setting 'orthorhombic'
loop_
_space_group_symop_operation_xyz
x,y,z
1/4-x,1/4-y,z
x,1/4-y,1/4-z
1/4-x,y,1/4-z
-x,-y,-z
3/4+x,3/4+y,-z
-x,3/4+y,3/4+z
3/4+x,-y,3/4+z
x,1/2+y,1/2+z
1/4-x,3/4-y,1/2+z
x,3/4-y,3/4-z
1/4-x,1/2+y,3/4-z
-x,1/2-y,1/2-z
3/4+x,1/4+y,1/2-z
-x,1/4+y,1/4+z
3/4+x,1/2-y,1/4+z
1/2+x,y,1/2+z
3/4-x,1/4-y,1/2+z
1/2+x,1/4-y,3/4-z
3/4-x,y,3/4-z
1/2-x,-y,1/2-z
1/4+x,3/4+y,1/2-z
1/2-x,3/4+y,1/4+z
1/4+x,-y,1/4+z
1/2+x,1/2+y,z
3/4-x,3/4-y,z
1/2+x,3/4-y,1/4-z
3/4-x,1/2+y,1/4-z
1/2-x,1/2-y,-z
1/4+x,1/4+y,-z
1/2-x,1/4+y,3/4+z
1/4+x,1/2-y,3/4+z
loop_
_atom_site_type_symbol
_atom_site_label
_atom_site_fract_x
_atom_site_fract_y
_atom_site_fract_z
Si Si1 0.260784 0.875000 0.875000
Si Si2 0.460513 0.930091 0.251313
Si Si3 0.952028 0.979492 0.173896
Si Si4 0.782159 0.693183 0.958599
Si Si5 0.625000 0.125000 0.242322
Si Si6 0.854972 0.034383 0.065895
Si Si7 0.625000 0.625000 0.125000
O O1 0.310373 0.898251 0.808814
O O2 0.212796 0.928626 0.907269
O O3 0.490126 0.867971 0.223060
O O4 0.422469 0.919716 0.327748
O O5 0.517503 0.983924 0.258065
O O6 0.407210 0.961564 0.194477
O O7 0.899946 0.928835 0.205221
O O8 0.019102 0.953161 0.127410
O O9 0.912297 0.032972 0.129708
O O10 0.750000 0.750000 0.000000
O O11 0.862280 0.686895 0.990431
#
# Coordination Sequence:
#
# PCOD8286344 Si02
#       7
#    16  32  32  32  16  32   8
#     4  11  24  45  66  91 136 185 240 294 332 383
#     4  12  22  38  62  99 125 183 207 259 359 388
#     4  11  22  41  67  96 134 174 225 280 340 416
#     4  10  22  39  63 100 137 168 215 277 345 422
#     4  11  24  45  66  91 136 185 240 294 332 383
#     4  11  22  41  67  96 134 174 225 280 340 416
#     4  12  20  32  60  96 144 156 212 268 336 454
#
# _framework density 21.822433
#
# number of rings (size 3 to 8) (size 9 to 14) (size 15 to 20)
#    0.000    0.952    1.905    8.000    0.000    0.762 
#    0.000    0.000    4.190    0.000    0.000    0.000 
#    0.000    0.000    0.000    0.000    0.000    0.000 
#
# Total GULP energy -520356.326742 kJ/mol
# GULP energy per Si atom -12389.436351 kJ/mol
# Density = 2.177276 g / cm^3
# Si number density = 21.822433 Si / 1000 Ang^3
#
#
#
# Elastic Constant Matrix: (Units=GPa)
#
#
# Indices 1 2 3 4 5 6 
#
# 1 94.6778 30.9646 38.0917 0.0000 0.0000 0.0000
# 2 30.9646 105.4070 17.5427 0.0000 0.0000 0.0000
# 3 38.0917 17.5427 74.0636 0.0000 0.0000 0.0000
# 4 0.0000 0.0000 0.0000 39.2718 0.0000 0.0000
# 5 0.0000 0.0000 0.0000 0.0000 38.4980 0.0000
# 6 0.0000 0.0000 0.0000 0.0000 0.0000 44.9519
#
#
#
# Elastic Compliance Matrix: (Units=1/GPa)
#
#
# Indices 1 2 3 4 5 6 
#
# 1 0.014218 -0.003081 -0.006583 0.000000 0.000000 0.000000
# 2 -0.003081 0.010544 -0.000913 0.000000 0.000000 0.000000
# 3 -0.006583 -0.000913 0.017104 0.000000 0.000000 0.000000
# 4 0.000000 0.000000 0.000000 0.025464 0.000000 0.000000
# 5 0.000000 0.000000 0.000000 0.000000 0.025975 0.000000
# 6 0.000000 0.000000 0.000000 0.000000 0.000000 0.022246
#
#
# Mechanical properties :
#
#
# Convention : Reuss Voigt Hill
#
# Bulk Modulus (GPa) = 48.28001 49.70517 48.99259
# Shear Modulus (GPa) = 34.81679 37.04762 35.93220
#
# Velocity S-wave (km/s) = 3.99865 4.12477 4.06220
# Velocity P-wave (km/s) = 6.59477 6.74622 6.67093
#
# Compressibility (1/GPa) = 0.02071251
#
# Stress axis : x y z
#
# Youngs Moduli (GPa) = 70.33180 94.83983 58.46688
#
# Poissons Ratio (x) = 0.29222 0.38488
# Poissons Ratio (y) = 0.21671 0.05337
# Poissons Ratio (z) = 0.46298 0.08657
#
# Static dielectric constant tensor:
#      x y z
#    x 4.182900 0.000000 0.000000 
#    y 0.000000 4.110570 0.000000 
#    z 0.000000 0.000000 4.152350 
# 
# 
# High freq. dielectric constant tensor:
#      x y z
#    x 1.863520 0.000000 0.000000 
#    y 0.000000 1.855490 0.000000 
#    z 0.000000 0.000000 1.857380 
# 
# From -- ./inp_files/44852.got.cif
#   From: 2010.03.12/outbox.cif.g09.slc.cpg/sg70_23_cif.got.tgz:44852.got - 2010.04.16 13:46:32.
