data_PCOD8286159
_publ_section_title
;
Structure prediction by ZEFSAII (Michael W. Deem and Ramdas Pophale) SiO2 
 PCOD8286159
Probable space group: F D D D
;
_chemical_formula_sum "Si O2"
_cell_formula_units_Z 216
_cell_length_a 29.916403
_cell_length_b 19.888203
_cell_length_c 18.322153
_cell_angle_alpha 90.000000
_cell_angle_beta 90.000000
_cell_angle_gamma 90.000000
_cell_volume 10901.378644
_symmetry_space_group_name_H-M "F D D D"
_symmetry_group_IT_number 70
_space_group.IT_coordinate_system_code '2'
_symmetry_cell_setting 'orthorhombic'
loop_
_space_group_symop_operation_xyz
x,y,z
1/4-x,1/4-y,z
x,1/4-y,1/4-z
1/4-x,y,1/4-z
-x,-y,-z
3/4+x,3/4+y,-z
-x,3/4+y,3/4+z
3/4+x,-y,3/4+z
x,1/2+y,1/2+z
1/4-x,3/4-y,1/2+z
x,3/4-y,3/4-z
1/4-x,1/2+y,3/4-z
-x,1/2-y,1/2-z
3/4+x,1/4+y,1/2-z
-x,1/4+y,1/4+z
3/4+x,1/2-y,1/4+z
1/2+x,y,1/2+z
3/4-x,1/4-y,1/2+z
1/2+x,1/4-y,3/4-z
3/4-x,y,3/4-z
1/2-x,-y,1/2-z
1/4+x,3/4+y,1/2-z
1/2-x,3/4+y,1/4+z
1/4+x,-y,1/4+z
1/2+x,1/2+y,z
3/4-x,3/4-y,z
1/2+x,3/4-y,1/4-z
3/4-x,1/2+y,1/4-z
1/2-x,1/2-y,-z
1/4+x,1/4+y,-z
1/2-x,1/4+y,3/4+z
1/4+x,1/2-y,3/4+z
loop_
_atom_site_type_symbol
_atom_site_label
_atom_site_fract_x
_atom_site_fract_y
_atom_site_fract_z
Si Si1 0.444088 0.447579 0.780825
Si Si2 0.818049 0.022575 0.606028
Si Si3 0.828150 0.254676 0.123783
Si Si4 0.980292 0.428794 0.016628
Si Si5 0.969561 0.616499 0.519678
Si Si6 0.264147 0.125000 0.625000
Si Si7 0.625000 0.125000 0.625000
Si Si8 0.238497 0.819949 0.638482
O O1 0.430805 0.454860 0.697074
O O2 0.479902 0.387849 0.786900
O O3 0.401424 0.425232 0.824244
O O4 0.459690 0.517280 0.816068
O O5 0.810704 0.065827 0.530959
O O6 0.795730 0.061551 0.673000
O O7 0.870316 0.014618 0.617925
O O8 0.790976 0.952410 0.606715
O O9 0.817224 0.304703 0.055574
O O10 0.796438 0.189353 0.126914
O O11 0.013518 0.392576 0.073638
O O12 0.000000 0.500000 0.000000
O O13 0.979950 0.382193 0.943799
O O14 0.966817 0.581182 0.440947
#
# Coordination Sequence:
#
# PCOD8286159 Si02
#       8
#    32  32  32  32  32  16   8  32
#     4  11  24  39  61  92 130 169 209 262 316 398
#     4  10  23  36  64  91 123 164 217 266 313 381
#     4  11  22  40  64  98 122 167 217 271 315 372
#     4  10  22  38  65  92 120 165 215 262 319 379
#     4  10  21  42  60  85 125 169 208 254 322 389
#     4  10  20  42  67  89 130 164 216 258 318 390
#     4  12  28  40  54 100 140 158 208 264 320 364
#     4  11  21  40  64  89 122 173 211 249 331 392
#
# _framework density 19.814008000000001
#
# number of rings (size 3 to 8) (size 9 to 14) (size 15 to 20)
#    0.000    1.481    2.963    3.111    4.148    0.593 
#    0.000    0.000    0.000    7.111    0.000    0.000 
#    0.000    0.000    0.000    0.000    0.000    0.000 
#
# Total GULP energy -669167.606487 kJ/mol
# GULP energy per Si atom -12391.992713 kJ/mol
# Density = 1.976891 g / cm^3
# Si number density = 19.814008 Si / 1000 Ang^3
#
#
#
# Elastic Constant Matrix: (Units=GPa)
#
#
# Indices 1 2 3 4 5 6 
#
# 1 128.4665 47.4022 63.5633 0.0000 0.0000 0.0000
# 2 47.4022 93.0855 42.0565 0.0000 0.0000 0.0000
# 3 63.5633 42.0565 126.8222 0.0000 0.0000 0.0000
# 4 0.0000 0.0000 0.0000 29.1106 0.0000 0.0000
# 5 0.0000 0.0000 0.0000 0.0000 48.2852 0.0000
# 6 0.0000 0.0000 0.0000 0.0000 0.0000 9.3371
#
#
#
# Elastic Compliance Matrix: (Units=1/GPa)
#
#
# Indices 1 2 3 4 5 6 
#
# 1 0.011383 -0.003786 -0.004449 0.000000 0.000000 0.000000
# 2 -0.003786 0.013895 -0.002710 0.000000 0.000000 0.000000
# 3 -0.004449 -0.002710 0.011014 0.000000 0.000000 0.000000
# 4 0.000000 0.000000 0.000000 0.034352 0.000000 0.000000
# 5 0.000000 0.000000 0.000000 0.000000 0.020710 0.000000
# 6 0.000000 0.000000 0.000000 0.000000 0.000000 0.107099
#
#
# Mechanical properties :
#
#
# Convention : Reuss Voigt Hill
#
# Bulk Modulus (GPa) = 69.44392 72.71314 71.07853
# Shear Modulus (GPa) = 22.20788 30.37006 26.28897
#
# Velocity S-wave (km/s) = 3.35149 3.91929 3.64646
# Velocity P-wave (km/s) = 7.07818 7.56694 7.32664
#
# Compressibility (1/GPa) = 0.01440011
#
# Stress axis : x y z
#
# Youngs Moduli (GPa) = 87.85268 71.96630 90.79417
#
# Poissons Ratio (x) = 0.27248 0.40398
# Poissons Ratio (y) = 0.33262 0.24608
# Poissons Ratio (z) = 0.39090 0.19505
#
# Static dielectric constant tensor:
#      x y z
#    x 3.538870 0.000000 0.000000 
#    y 0.000000 3.853020 0.000000 
#    z 0.000000 0.000000 4.052590 
# 
# 
# High freq. dielectric constant tensor:
#      x y z
#    x 1.749170 0.000000 0.000000 
#    y 0.000000 1.790210 0.000000 
#    z 0.000000 0.000000 1.783390 
# 
# From -- ./inp_files/47097.got.cif
#   From: 2010.03.12/outbox.cif.g09.slc.cpg/sg70_24_cif.got.tgz:47097.got - 2010.04.16 13:46:32.
