data_PCOD8286459
_publ_section_title
;
Structure prediction by ZEFSAII (Michael W. Deem and Ramdas Pophale) SiO2 
 PCOD8286459
Probable space group: F D D D
;
_chemical_formula_sum "Si O2"
_cell_formula_units_Z 80
_cell_length_a 5.254412
_cell_length_b 38.425654
_cell_length_c 16.743212
_cell_angle_alpha 90.000000
_cell_angle_beta 90.000000
_cell_angle_gamma 90.000000
_cell_volume 3380.525117
_symmetry_space_group_name_H-M "F D D D"
_symmetry_group_IT_number 70
_space_group.IT_coordinate_system_code '2'
_symmetry_cell_setting 'orthorhombic'
loop_
_space_group_symop_operation_xyz
x,y,z
1/4-x,1/4-y,z
x,1/4-y,1/4-z
1/4-x,y,1/4-z
-x,-y,-z
3/4+x,3/4+y,-z
-x,3/4+y,3/4+z
3/4+x,-y,3/4+z
x,1/2+y,1/2+z
1/4-x,3/4-y,1/2+z
x,3/4-y,3/4-z
1/4-x,1/2+y,3/4-z
-x,1/2-y,1/2-z
3/4+x,1/4+y,1/2-z
-x,1/4+y,1/4+z
3/4+x,1/2-y,1/4+z
1/2+x,y,1/2+z
3/4-x,1/4-y,1/2+z
1/2+x,1/4-y,3/4-z
3/4-x,y,3/4-z
1/2-x,-y,1/2-z
1/4+x,3/4+y,1/2-z
1/2-x,3/4+y,1/4+z
1/4+x,-y,1/4+z
1/2+x,1/2+y,z
3/4-x,3/4-y,z
1/2+x,3/4-y,1/4-z
3/4-x,1/2+y,1/4-z
1/2-x,1/2-y,-z
1/4+x,1/4+y,-z
1/2-x,1/4+y,3/4+z
1/4+x,1/2-y,3/4+z
loop_
_atom_site_type_symbol
_atom_site_label
_atom_site_fract_x
_atom_site_fract_y
_atom_site_fract_z
Si Si1 0.625000 0.501641 0.625000
Si Si2 0.377102 0.608602 0.966354
Si Si3 0.048865 0.278755 0.027932
O O1 0.362659 0.477937 0.612175
O O2 0.605559 0.526175 0.547339
O O3 0.625000 0.625000 0.009280
O O4 0.375000 0.621339 0.875000
O O5 0.406440 0.567269 0.971713
O O6 0.125000 0.625000 0.007873
O O7 0.250000 0.250000 0.000000
#
# Coordination Sequence:
#
# PCOD8286459 Si02
#       3
#    16  32  32
#     4  10  24  38  71  96 134 170 232 280 346 398
#     4  10  23  39  65  96 131 173 223 276 336 402
#     4  11  23  42  68  98 131 177 227 285 336 413
#
# _framework density 23.664963
#
# number of rings (size 3 to 8) (size 9 to 14) (size 15 to 20)
#    0.000    1.600    0.000    3.600   19.600    0.000 
#    0.000    1.000    0.000    0.000    0.000    0.000 
#    0.000    0.000    0.000    0.000    0.000    0.000 
#
# Total GULP energy -247792.973425 kJ/mol
# GULP energy per Si atom -12389.648671 kJ/mol
# Density = 2.361110 g / cm^3
# Si number density = 23.664963 Si / 1000 Ang^3
#
#
#
# Elastic Constant Matrix: (Units=GPa)
#
#
# Indices 1 2 3 4 5 6 
#
# 1 209.0489 94.3933 13.0615 0.0000 0.0000 0.0000
# 2 94.3933 170.9767 34.2197 0.0000 0.0000 0.0000
# 3 13.0615 34.2197 91.2724 0.0000 0.0000 0.0000
# 4 0.0000 0.0000 0.0000 22.7280 0.0000 0.0000
# 5 0.0000 0.0000 0.0000 0.0000 19.8801 0.0000
# 6 0.0000 0.0000 0.0000 0.0000 0.0000 44.6470
#
#
#
# Elastic Compliance Matrix: (Units=1/GPa)
#
#
# Indices 1 2 3 4 5 6 
#
# 1 0.006388 -0.003615 0.000441 0.000000 0.000000 0.000000
# 2 -0.003615 0.008369 -0.002620 0.000000 0.000000 0.000000
# 3 0.000441 -0.002620 0.011876 0.000000 0.000000 0.000000
# 4 0.000000 0.000000 0.000000 0.043999 0.000000 0.000000
# 5 0.000000 0.000000 0.000000 0.000000 0.050302 0.000000
# 6 0.000000 0.000000 0.000000 0.000000 0.000000 0.022398
#
#
# Mechanical properties :
#
#
# Convention : Reuss Voigt Hill
#
# Bulk Modulus (GPa) = 66.47072 83.84966 75.16019
# Shear Modulus (GPa) = 31.26274 39.42591 35.34433
#
# Velocity S-wave (km/s) = 3.63858 4.08610 3.86881
# Velocity P-wave (km/s) = 6.76768 7.60069 7.19625
#
# Compressibility (1/GPa) = 0.01504422
#
# Stress axis : x y z
#
# Youngs Moduli (GPa) = 156.53328 119.48697 84.20695
#
# Poissons Ratio (x) = 0.43197 -0.03715
# Poissons Ratio (y) = 0.56591 0.22065
# Poissons Ratio (z) = -0.06906 0.31310
#
# Static dielectric constant tensor:
#      x y z
#    x 5.096590 0.000000 0.000000 
#    y 0.000000 3.900010 0.000000 
#    z 0.000000 0.000000 5.441730 
# 
# 
# High freq. dielectric constant tensor:
#      x y z
#    x 1.967690 0.000000 0.000000 
#    y 0.000000 1.919260 0.000000 
#    z 0.000000 0.000000 1.924710 
# 
# From -- ./inp_files/48305.got.cif
#   From: 2010.03.12/outbox.cif.g09.slc.cpg/sg70_25_cif.got.tgz:48305.got - 2010.04.16 13:46:32.
