data_PCOD8286647
_publ_section_title
;
Structure prediction by ZEFSAII (Michael W. Deem and Ramdas Pophale) SiO2 
 PCOD8286647
Probable space group: F D D D
;
_chemical_formula_sum "Si O2"
_cell_formula_units_Z 144
_cell_length_a 18.415808
_cell_length_b 12.284546
_cell_length_c 30.225555
_cell_angle_alpha 90.000000
_cell_angle_beta 90.000000
_cell_angle_gamma 90.000000
_cell_volume 6837.922487
_symmetry_space_group_name_H-M "F D D D"
_symmetry_group_IT_number 70
_space_group.IT_coordinate_system_code '2'
_symmetry_cell_setting 'orthorhombic'
loop_
_space_group_symop_operation_xyz
x,y,z
1/4-x,1/4-y,z
x,1/4-y,1/4-z
1/4-x,y,1/4-z
-x,-y,-z
3/4+x,3/4+y,-z
-x,3/4+y,3/4+z
3/4+x,-y,3/4+z
x,1/2+y,1/2+z
1/4-x,3/4-y,1/2+z
x,3/4-y,3/4-z
1/4-x,1/2+y,3/4-z
-x,1/2-y,1/2-z
3/4+x,1/4+y,1/2-z
-x,1/4+y,1/4+z
3/4+x,1/2-y,1/4+z
1/2+x,y,1/2+z
3/4-x,1/4-y,1/2+z
1/2+x,1/4-y,3/4-z
3/4-x,y,3/4-z
1/2-x,-y,1/2-z
1/4+x,3/4+y,1/2-z
1/2-x,3/4+y,1/4+z
1/4+x,-y,1/4+z
1/2+x,1/2+y,z
3/4-x,3/4-y,z
1/2+x,3/4-y,1/4-z
3/4-x,1/2+y,1/4-z
1/2-x,1/2-y,-z
1/4+x,1/4+y,-z
1/2-x,1/4+y,3/4+z
1/4+x,1/2-y,3/4+z
loop_
_atom_site_type_symbol
_atom_site_label
_atom_site_fract_x
_atom_site_fract_y
_atom_site_fract_z
Si Si1 0.931704 0.774366 0.718639
Si Si2 0.497521 0.782590 0.839322
Si Si3 0.954446 0.925936 0.127978
Si Si4 0.875000 0.375000 0.778499
Si Si5 0.394693 0.539438 0.206453
O O1 0.875000 0.875000 0.730008
O O2 0.969640 0.780001 0.670769
O O3 0.885389 0.664495 0.720044
O O4 0.000000 0.750000 0.750000
O O5 0.517754 0.875000 0.875000
O O6 0.484159 0.666759 0.863635
O O7 0.429215 0.813416 0.810623
O O8 0.564292 0.754966 0.807421
O O9 0.875000 0.875000 0.126831
O O10 0.952997 0.018723 0.166560
O O11 0.833673 0.285383 0.748473
#
# Coordination Sequence:
#
# PCOD8286647 Si02
#       5
#    32  32  32  16  32
#     4  11  25  41  67  99 130 176 230 277 336 405
#     4  11  22  39  63  93 139 173 219 273 342 407
#     4   9  19  40  64  93 121 178 220 272 331 405
#     4  12  25  36  64 110 128 172 212 290 349 390
#     4  11  22  41  68  91 132 168 229 269 324 417
#
# _framework density 21.059028000000001
#
# number of rings (size 3 to 8) (size 9 to 14) (size 15 to 20)
#    0.000    1.333    3.333    5.667    6.222    0.000 
#    0.000    0.000    0.000    1.333    0.000    0.000 
#    0.000    0.000    0.000    0.000    0.000    0.000 
#
# Total GULP energy -446003.995948 kJ/mol
# GULP energy per Si atom -12388.999887 kJ/mol
# Density = 2.101110 g / cm^3
# Si number density = 21.059028 Si / 1000 Ang^3
#
#
#
# Elastic Constant Matrix: (Units=GPa)
#
#
# Indices 1 2 3 4 5 6 
#
# 1 65.1429 30.4348 57.0637 0.0000 0.0000 0.0000
# 2 30.4348 153.6459 51.4632 0.0000 0.0000 0.0000
# 3 57.0637 51.4632 119.8253 0.0000 0.0000 0.0000
# 4 0.0000 0.0000 0.0000 25.9278 0.0000 0.0000
# 5 0.0000 0.0000 0.0000 0.0000 24.6908 0.0000
# 6 0.0000 0.0000 0.0000 0.0000 0.0000 26.3046
#
#
#
# Elastic Compliance Matrix: (Units=1/GPa)
#
#
# Indices 1 2 3 4 5 6 
#
# 1 0.026525 -0.001195 -0.012118 0.000000 0.000000 0.000000
# 2 -0.001195 0.007656 -0.002719 0.000000 0.000000 0.000000
# 3 -0.012118 -0.002719 0.015284 0.000000 0.000000 0.000000
# 4 0.000000 0.000000 0.000000 0.038569 0.000000 0.000000
# 5 0.000000 0.000000 0.000000 0.000000 0.040501 0.000000
# 6 0.000000 0.000000 0.000000 0.000000 0.000000 0.038016
#
#
# Mechanical properties :
#
#
# Convention : Reuss Voigt Hill
#
# Bulk Modulus (GPa) = 57.47143 68.50417 62.98780
# Shear Modulus (GPa) = 24.45999 28.69482 26.57741
#
# Velocity S-wave (km/s) = 3.41177 3.69533 3.55638
# Velocity P-wave (km/s) = 6.54753 7.12794 6.84389
#
# Compressibility (1/GPa) = 0.01739995
#
# Stress axis : x y z
#
# Youngs Moduli (GPa) = 37.70077 130.61810 65.42652
#
# Poissons Ratio (x) = 0.15610 0.79287
# Poissons Ratio (y) = 0.04506 0.17789
# Poissons Ratio (z) = 0.45687 0.35515
#
# Static dielectric constant tensor:
#      x y z
#    x 3.367610 0.000000 0.000000 
#    y 0.000000 5.111980 0.000000 
#    z 0.000000 0.000000 4.472230 
# 
# 
# High freq. dielectric constant tensor:
#      x y z
#    x 1.775770 0.000000 0.000000 
#    y 0.000000 1.842460 0.000000 
#    z 0.000000 0.000000 1.840220 
# 
# From -- ./inp_files/66471.got.cif
#   From: 2010.03.12/outbox.cif.g09.slc.cpg/sg70_34_cif.got.tgz:66471.got - 2010.04.16 13:46:32.
