data_PCOD8286469
_publ_section_title
;
Structure prediction by ZEFSAII (Michael W. Deem and Ramdas Pophale) SiO2 
 PCOD8286469
Probable space group: F D D D
;
_chemical_formula_sum "Si O2"
_cell_formula_units_Z 120
_cell_length_a 30.728796
_cell_length_b 18.705203
_cell_length_c 10.244216
_cell_angle_alpha 90.000000
_cell_angle_beta 90.000000
_cell_angle_gamma 90.000000
_cell_volume 5888.256187
_symmetry_space_group_name_H-M "F D D D"
_symmetry_group_IT_number 70
_space_group.IT_coordinate_system_code '2'
_symmetry_cell_setting 'orthorhombic'
loop_
_space_group_symop_operation_xyz
x,y,z
1/4-x,1/4-y,z
x,1/4-y,1/4-z
1/4-x,y,1/4-z
-x,-y,-z
3/4+x,3/4+y,-z
-x,3/4+y,3/4+z
3/4+x,-y,3/4+z
x,1/2+y,1/2+z
1/4-x,3/4-y,1/2+z
x,3/4-y,3/4-z
1/4-x,1/2+y,3/4-z
-x,1/2-y,1/2-z
3/4+x,1/4+y,1/2-z
-x,1/4+y,1/4+z
3/4+x,1/2-y,1/4+z
1/2+x,y,1/2+z
3/4-x,1/4-y,1/2+z
1/2+x,1/4-y,3/4-z
3/4-x,y,3/4-z
1/2-x,-y,1/2-z
1/4+x,3/4+y,1/2-z
1/2-x,3/4+y,1/4+z
1/4+x,-y,1/4+z
1/2+x,1/2+y,z
3/4-x,3/4-y,z
1/2+x,3/4-y,1/4-z
3/4-x,1/2+y,1/4-z
1/2-x,1/2-y,-z
1/4+x,1/4+y,-z
1/2-x,1/4+y,3/4+z
1/4+x,1/2-y,3/4+z
loop_
_atom_site_type_symbol
_atom_site_label
_atom_site_fract_x
_atom_site_fract_y
_atom_site_fract_z
Si Si1 0.625000 0.125000 0.125000
Si Si2 0.326430 0.742251 0.320472
Si Si3 0.811105 0.280733 0.023969
Si Si4 0.226481 0.625000 0.625000
Si Si5 0.773422 0.650700 0.389508
O O1 0.599391 0.172908 0.223299
O O2 0.375000 0.727780 0.375000
O O3 0.326327 0.758258 0.167618
O O4 0.304992 0.807154 0.404176
O O5 0.295892 0.673678 0.330675
O O6 0.768554 0.331709 0.021501
O O7 0.806680 0.214368 0.923748
O O8 0.258494 0.648563 0.740147
#
# Coordination Sequence:
#
# PCOD8286469 Si02
#       5
#     8  32  32  16  32
#     4  12  28  40  70  94 136 174 226 274 332 404
#     4  11  24  42  68  99 136 171 221 280 330 394
#     4  10  26  43  68  97 133 177 222 274 337 393
#     4  10  23  40  70  99 128 178 219 270 334 401
#     4  10  23  45  68  96 132 176 221 273 332 400
#
# _framework density 20.379548
#
# number of rings (size 3 to 8) (size 9 to 14) (size 15 to 20)
#    0.000    1.600    0.000    2.000   20.533    2.133 
#    0.000    0.000    0.000    0.000    0.000    0.000 
#    0.000    0.000    0.000    0.000    0.000    0.000 
#
# Total GULP energy -371838.480266 kJ/mol
# GULP energy per Si atom -12394.616009 kJ/mol
# Density = 2.033316 g / cm^3
# Si number density = 20.379548 Si / 1000 Ang^3
#
#
#
# Elastic Constant Matrix: (Units=GPa)
#
#
# Indices 1 2 3 4 5 6 
#
# 1 98.9516 79.4186 39.2919 0.0000 0.0000 0.0000
# 2 79.4186 175.1077 50.7272 0.0000 0.0000 0.0000
# 3 39.2919 50.7272 94.1615 0.0000 0.0000 0.0000
# 4 0.0000 0.0000 0.0000 35.5149 0.0000 0.0000
# 5 0.0000 0.0000 0.0000 0.0000 30.3211 0.0000
# 6 0.0000 0.0000 0.0000 0.0000 0.0000 53.2084
#
#
#
# Elastic Compliance Matrix: (Units=1/GPa)
#
#
# Indices 1 2 3 4 5 6 
#
# 1 0.016780 -0.006614 -0.003439 0.000000 0.000000 0.000000
# 2 -0.006614 0.009374 -0.002290 0.000000 0.000000 0.000000
# 3 -0.003439 -0.002290 0.013289 0.000000 0.000000 0.000000
# 4 0.000000 0.000000 0.000000 0.028157 0.000000 0.000000
# 5 0.000000 0.000000 0.000000 0.000000 0.032980 0.000000
# 6 0.000000 0.000000 0.000000 0.000000 0.000000 0.018794
#
#
# Mechanical properties :
#
#
# Convention : Reuss Voigt Hill
#
# Bulk Modulus (GPa) = 67.76590 78.56627 73.16609
# Shear Modulus (GPa) = 33.56175 37.06109 35.31142
#
# Velocity S-wave (km/s) = 4.06252 4.26906 4.16707
# Velocity P-wave (km/s) = 7.43838 7.93316 7.68976
#
# Compressibility (1/GPa) = 0.01475668
#
# Stress axis : x y z
#
# Youngs Moduli (GPa) = 59.59472 106.67797 75.25215
#
# Poissons Ratio (x) = 0.70560 0.25877
# Poissons Ratio (y) = 0.39417 0.17233
# Poissons Ratio (z) = 0.20493 0.24429
#
# Static dielectric constant tensor:
#      x y z
#    x 3.924230 0.000000 0.000000 
#    y 0.000000 3.931780 0.000000 
#    z 0.000000 0.000000 3.996380 
# 
# 
# High freq. dielectric constant tensor:
#      x y z
#    x 1.802060 0.000000 0.000000 
#    y 0.000000 1.814930 0.000000 
#    z 0.000000 0.000000 1.797980 
# 
# From -- ./inp_files/16336.got.cif
#   From: 2010.03.12/outbox.cif.g09.slc.cpg/sg70_9_cif.got.tgz:16336.got - 2010.04.16 13:46:32.
