data_PCOD8286137
_publ_section_title
;
Structure prediction by ZEFSAII (Michael W. Deem and Ramdas Pophale) SiO2 
 PCOD8286137
Probable space group: F D D D
;
_chemical_formula_sum "Si O2"
_cell_formula_units_Z 176
_cell_length_a 10.546462
_cell_length_b 32.285700
_cell_length_c 25.068145
_cell_angle_alpha 90.000000
_cell_angle_beta 90.000000
_cell_angle_gamma 90.000000
_cell_volume 8535.701071
_symmetry_space_group_name_H-M "F D D D"
_symmetry_group_IT_number 70
_space_group.IT_coordinate_system_code '2'
_symmetry_cell_setting 'orthorhombic'
loop_
_space_group_symop_operation_xyz
x,y,z
1/4-x,1/4-y,z
x,1/4-y,1/4-z
1/4-x,y,1/4-z
-x,-y,-z
3/4+x,3/4+y,-z
-x,3/4+y,3/4+z
3/4+x,-y,3/4+z
x,1/2+y,1/2+z
1/4-x,3/4-y,1/2+z
x,3/4-y,3/4-z
1/4-x,1/2+y,3/4-z
-x,1/2-y,1/2-z
3/4+x,1/4+y,1/2-z
-x,1/4+y,1/4+z
3/4+x,1/2-y,1/4+z
1/2+x,y,1/2+z
3/4-x,1/4-y,1/2+z
1/2+x,1/4-y,3/4-z
3/4-x,y,3/4-z
1/2-x,-y,1/2-z
1/4+x,3/4+y,1/2-z
1/2-x,3/4+y,1/4+z
1/4+x,-y,1/4+z
1/2+x,1/2+y,z
3/4-x,3/4-y,z
1/2+x,3/4-y,1/4-z
3/4-x,1/2+y,1/4-z
1/2-x,1/2-y,-z
1/4+x,1/4+y,-z
1/2-x,1/4+y,3/4+z
1/4+x,1/2-y,3/4+z
loop_
_atom_site_type_symbol
_atom_site_label
_atom_site_fract_x
_atom_site_fract_y
_atom_site_fract_z
Si Si1 0.200745 0.689745 0.177324
Si Si2 0.623700 0.395922 0.187758
Si Si3 0.875000 0.375000 0.004523
Si Si4 0.891927 0.515841 0.259522
Si Si5 0.125000 0.625000 0.493028
Si Si6 0.624597 0.375000 0.375000
Si Si7 0.193332 0.060592 0.071328
O O1 0.125000 0.706089 0.125000
O O2 0.109423 0.667780 0.220358
O O3 0.284008 0.726561 0.203346
O O4 0.292503 0.651631 0.164916
O O5 0.625000 0.393743 0.125000
O O6 0.499148 0.373212 0.208978
O O7 0.618730 0.443322 0.205619
O O8 0.748761 0.371509 0.207675
O O9 0.750000 0.500000 0.250000
O O10 0.978812 0.482277 0.291705
O O11 0.101851 0.584862 0.530483
O O12 0.697751 0.406862 0.413498
O O13 0.125000 0.046976 0.125000
#
# Coordination Sequence:
#
# PCOD8286137 Si02
#       7
#    32  32  16  32  16  16  32
#     4  11  22  40  71  99 137 181 232 290 352 423
#     4  11  24  42  67  93 136 182 227 284 351 422
#     4  10  20  40  68  98 130 178 232 280 340 414
#     4  11  23  42  63  97 142 179 225 288 371 412
#     4  12  22  40  68  96 128 174 244 282 338 416
#     4  12  20  38  70 100 128 176 242 290 336 410
#     4  12  22  37  64 101 129 169 229 297 339 405
#
# _framework density 20.619278000000001
#
# number of rings (size 3 to 8) (size 9 to 14) (size 15 to 20)
#    0.000    0.727    5.455    4.364    0.000    0.000 
#    0.000    1.818    4.000    0.000    0.000    0.000 
#    0.000    0.000    0.000    0.000    0.000    0.000 
#
# Total GULP energy -545378.029156 kJ/mol
# GULP energy per Si atom -12394.955208 kJ/mol
# Density = 2.057235 g / cm^3
# Si number density = 20.619278 Si / 1000 Ang^3
#
#
#
# Elastic Constant Matrix: (Units=GPa)
#
#
# Indices 1 2 3 4 5 6 
#
# 1 139.0602 52.2071 75.0578 0.0000 0.0000 0.0000
# 2 52.2071 111.5043 58.1401 0.0000 0.0000 0.0000
# 3 75.0578 58.1401 167.6704 0.0000 0.0000 0.0000
# 4 0.0000 0.0000 0.0000 49.8052 0.0000 0.0000
# 5 0.0000 0.0000 0.0000 0.0000 31.4084 0.0000
# 6 0.0000 0.0000 0.0000 0.0000 0.0000 25.1665
#
#
#
# Elastic Compliance Matrix: (Units=1/GPa)
#
#
# Indices 1 2 3 4 5 6 
#
# 1 0.010209 -0.002926 -0.003555 0.000000 0.000000 0.000000
# 2 -0.002926 0.011786 -0.002777 0.000000 0.000000 0.000000
# 3 -0.003555 -0.002777 0.008519 0.000000 0.000000 0.000000
# 4 0.000000 0.000000 0.000000 0.020078 0.000000 0.000000
# 5 0.000000 0.000000 0.000000 0.000000 0.031839 0.000000
# 6 0.000000 0.000000 0.000000 0.000000 0.000000 0.039735
#
#
# Mechanical properties :
#
#
# Convention : Reuss Voigt Hill
#
# Bulk Modulus (GPa) = 83.35623 87.67167 85.51395
# Shear Modulus (GPa) = 34.55874 36.79801 35.67838
#
# Velocity S-wave (km/s) = 4.09839 4.22908 4.16425
# Velocity P-wave (km/s) = 7.93157 8.15221 8.04265
#
# Compressibility (1/GPa) = 0.01199670
#
# Stress axis : x y z
#
# Youngs Moduli (GPa) = 97.95678 84.84468 117.39036
#
# Poissons Ratio (x) = 0.24825 0.41736
# Poissons Ratio (y) = 0.28662 0.32601
# Poissons Ratio (z) = 0.34827 0.23562
#
# Static dielectric constant tensor:
#      x y z
#    x 3.809840 0.000000 0.000000 
#    y 0.000000 3.851690 0.000000 
#    z 0.000000 0.000000 4.065520 
# 
# 
# High freq. dielectric constant tensor:
#      x y z
#    x 1.802590 0.000000 0.000000 
#    y 0.000000 1.793910 0.000000 
#    z 0.000000 0.000000 1.821550 
# 
# From -- ./inp_files/57799.got.cif
#   From: 2010.03.12/outbox.cif.g09.slc.cpg/sg70_29_cif.got.tgz:57799.got - 2010.04.16 13:46:32.
