data_PCOD8286531
_publ_section_title
;
Structure prediction by ZEFSAII (Michael W. Deem and Ramdas Pophale) SiO2 
 PCOD8286531
Probable space group: F D D D
;
_chemical_formula_sum "Si O2"
_cell_formula_units_Z 224
_cell_length_a 20.048185
_cell_length_b 26.288888
_cell_length_c 19.848273
_cell_angle_alpha 90.000000
_cell_angle_beta 90.000000
_cell_angle_gamma 90.000000
_cell_volume 10460.922922
_symmetry_space_group_name_H-M "F D D D"
_symmetry_group_IT_number 70
_space_group.IT_coordinate_system_code '2'
_symmetry_cell_setting 'orthorhombic'
loop_
_space_group_symop_operation_xyz
x,y,z
1/4-x,1/4-y,z
x,1/4-y,1/4-z
1/4-x,y,1/4-z
-x,-y,-z
3/4+x,3/4+y,-z
-x,3/4+y,3/4+z
3/4+x,-y,3/4+z
x,1/2+y,1/2+z
1/4-x,3/4-y,1/2+z
x,3/4-y,3/4-z
1/4-x,1/2+y,3/4-z
-x,1/2-y,1/2-z
3/4+x,1/4+y,1/2-z
-x,1/4+y,1/4+z
3/4+x,1/2-y,1/4+z
1/2+x,y,1/2+z
3/4-x,1/4-y,1/2+z
1/2+x,1/4-y,3/4-z
3/4-x,y,3/4-z
1/2-x,-y,1/2-z
1/4+x,3/4+y,1/2-z
1/2-x,3/4+y,1/4+z
1/4+x,-y,1/4+z
1/2+x,1/2+y,z
3/4-x,3/4-y,z
1/2+x,3/4-y,1/4-z
3/4-x,1/2+y,1/4-z
1/2-x,1/2-y,-z
1/4+x,1/4+y,-z
1/2-x,1/4+y,3/4+z
1/4+x,1/2-y,3/4+z
loop_
_atom_site_type_symbol
_atom_site_label
_atom_site_fract_x
_atom_site_fract_y
_atom_site_fract_z
Si Si1 0.639340 0.502166 0.463393
Si Si2 0.730537 0.375000 0.875000
Si Si3 0.197057 0.725465 0.154279
Si Si4 0.819263 0.775483 0.062181
Si Si5 0.836576 0.705373 0.943438
Si Si6 0.400382 0.106069 0.996895
Si Si7 0.625000 0.625000 0.341531
Si Si8 0.728463 0.559726 0.831901
O O1 0.689718 0.530768 0.514641
O O2 0.659971 0.509605 0.386852
O O3 0.642447 0.442493 0.480606
O O4 0.564881 0.526497 0.472309
O O5 0.777480 0.325882 0.880803
O O6 0.683421 0.367164 0.810966
O O7 0.125000 0.740553 0.125000
O O8 0.248149 0.771125 0.140159
O O9 0.740217 0.779934 0.063480
O O10 0.847629 0.830852 0.043569
O O11 0.855927 0.738044 0.009500
O O12 0.875000 0.722065 0.875000
O O13 0.852068 0.646138 0.958975
O O14 0.458412 0.087670 0.948315
O O15 0.683826 0.645112 0.389105
#
# Coordination Sequence:
#
# PCOD8286531 Si02
#       8
#    32  16  32  32  32  32  16  32
#     4  11  24  43  70  97 144 185 223 293 344 414
#     4  12  27  40  66 104 140 181 228 278 352 414
#     4  12  25  42  65 102 142 185 229 277 338 421
#     4  10  25  48  65 102 134 174 236 287 351 413
#     4  11  26  45  73  99 133 176 237 298 345 421
#     4  12  24  43  69  98 135 181 228 281 345 412
#     4  10  24  40  71  89 138 178 216 282 342 414
#     4  11  24  43  63 102 138 181 235 272 340 425
#
# _framework density 21.413024
#
# number of rings (size 3 to 8) (size 9 to 14) (size 15 to 20)
#    0.000    0.857    2.857    3.214   12.000    0.000 
#    0.000    0.357    0.000    0.000    0.000    0.000 
#    0.000    0.000    0.000    0.000    0.000    0.000 
#
# Total GULP energy -694310.563557 kJ/mol
# GULP energy per Si atom -12398.402921 kJ/mol
# Density = 2.136429 g / cm^3
# Si number density = 21.413024 Si / 1000 Ang^3
#
#
#
# Elastic Constant Matrix: (Units=GPa)
#
#
# Indices 1 2 3 4 5 6 
#
# 1 68.9876 35.3658 25.9177 0.0000 0.0000 0.0000
# 2 35.3658 122.9157 33.5338 0.0000 0.0000 0.0000
# 3 25.9177 33.5338 108.0700 0.0000 0.0000 0.0000
# 4 0.0000 0.0000 0.0000 31.2967 0.0000 0.0000
# 5 0.0000 0.0000 0.0000 0.0000 39.3000 0.0000
# 6 0.0000 0.0000 0.0000 0.0000 0.0000 39.9753
#
#
#
# Elastic Compliance Matrix: (Units=1/GPa)
#
#
# Indices 1 2 3 4 5 6 
#
# 1 0.017814 -0.004326 -0.002930 0.000000 0.000000 0.000000
# 2 -0.004326 0.009939 -0.002046 0.000000 0.000000 0.000000
# 3 -0.002930 -0.002046 0.010591 0.000000 0.000000 0.000000
# 4 0.000000 0.000000 0.000000 0.031952 0.000000 0.000000
# 5 0.000000 0.000000 0.000000 0.000000 0.025445 0.000000
# 6 0.000000 0.000000 0.000000 0.000000 0.000000 0.025015
#
#
# Mechanical properties :
#
#
# Convention : Reuss Voigt Hill
#
# Bulk Modulus (GPa) = 50.66200 54.40089 52.53144
# Shear Modulus (GPa) = 34.26050 35.79147 35.02599
#
# Velocity S-wave (km/s) = 4.00432 4.09281 4.04881
# Velocity P-wave (km/s) = 6.71493 6.91343 6.81490
#
# Compressibility (1/GPa) = 0.01973866
#
# Stress axis : x y z
#
# Youngs Moduli (GPa) = 56.13623 100.61666 94.42075
#
# Poissons Ratio (x) = 0.43528 0.27663
# Poissons Ratio (y) = 0.24285 0.19323
# Poissons Ratio (z) = 0.16447 0.20591
#
# Static dielectric constant tensor:
#      x y z
#    x 3.963670 0.000000 0.000000 
#    y 0.000000 4.184020 0.000000 
#    z 0.000000 0.000000 4.074910 
# 
# 
# High freq. dielectric constant tensor:
#      x y z
#    x 1.844310 0.000000 0.000000 
#    y 0.000000 1.850590 0.000000 
#    z 0.000000 0.000000 1.840100 
# 
# From -- ./inp_files/36927.got.cif
#   From: 2010.03.12/outbox.cif.g09.slc.cpg/sg70_19_cif.got.tgz:36927.got - 2010.04.16 13:46:32.
