data_PCOD8286964
_publ_section_title
;
Structure prediction by ZEFSAII (Michael W. Deem and Ramdas Pophale) SiO2 
 PCOD8286964
Probable space group: I M M M
;
_chemical_formula_sum "Si O2"
_cell_formula_units_Z 112
_cell_length_a 33.976482
_cell_length_b 9.067418
_cell_length_c 25.988371
_cell_angle_alpha 90.000000
_cell_angle_beta 90.000000
_cell_angle_gamma 90.000000
_cell_volume 8006.470426
_symmetry_space_group_name_H-M "I M M M"
_symmetry_group_IT_number 71
_symmetry_cell_setting 'orthorhombic'
loop_
_space_group_symop_operation_xyz
x,y,z
-x,-y,z
x,-y,-z
-x,y,-z
-x,-y,-z
x,y,-z
-x,y,z
x,-y,z
1/2+x,1/2+y,1/2+z
1/2-x,1/2-y,1/2+z
1/2+x,1/2-y,1/2-z
1/2-x,1/2+y,1/2-z
1/2-x,1/2-y,1/2-z
1/2+x,1/2+y,1/2-z
1/2-x,1/2+y,1/2+z
1/2+x,1/2-y,1/2+z
loop_
_atom_site_type_symbol
_atom_site_label
_atom_site_fract_x
_atom_site_fract_y
_atom_site_fract_z
Si Si1 0.000000 0.334618 0.602004
Si Si2 0.841621 0.825696 0.441991
Si Si3 0.076915 0.829682 0.603334
Si Si4 0.156902 0.325402 0.251802
Si Si5 0.421684 0.327886 0.775740
Si Si6 0.000000 0.332014 0.724495
Si Si7 0.724851 0.671173 0.293026
Si Si8 0.202499 0.668051 0.644377
O O1 0.960908 0.255188 0.581091
O O2 0.000000 0.500000 0.580809
O O3 0.000000 0.328971 0.663252
O O4 0.832950 0.773318 0.500000
O O5 0.884492 0.766598 0.424959
O O6 0.807783 0.764265 0.405134
O O7 0.841044 0.000000 0.436949
O O8 0.082618 0.802514 0.663627
O O9 0.070021 0.000000 0.590748
O O10 0.154431 0.500000 0.244154
O O11 0.114019 0.254198 0.247667
O O12 0.182777 0.254267 0.205235
O O13 0.176930 0.281773 0.306151
O O14 0.421718 0.500000 0.761483
O O15 0.461704 0.253922 0.754850
O O16 0.000000 0.500000 0.744997
O O17 0.718607 0.500000 0.278878
O O18 0.750000 0.750000 0.250000
O O19 0.750532 0.686494 0.345308
O O20 0.192022 0.500000 0.631680
#
# Coordination Sequence:
#
# PCOD8286964 Si02
#       8
#     8  16  16  16  16   8  16  16
#     4   9  17  27  42  58  69  88 116 151 193 238
#     4  10  20  32  45  60  75  95 126 159 193 236
#     4   9  17  29  42  56  72  93 119 152 194 237
#     4  10  18  27  41  62  82 102 125 153 190 232
#     4  10  17  26  41  58  76 102 130 159 193 234
#     4   9  17  27  37  54  78 101 126 161 193 229
#     4   9  17  28  41  60  81 101 123 149 183 230
#     4   9  18  30  43  58  78 100 122 151 191 232
#
# _framework density 13.988686
#
# number of rings (size 3 to 8) (size 9 to 14) (size 15 to 20)
#    0.000    2.571    1.429    2.571    0.000    6.000 
#    0.000    0.357    0.000    2.143    0.000    0.000 
#    0.000    0.000    0.000    0.000    0.000    0.000 
#
# Total GULP energy -694227.949809 kJ/mol
# GULP energy per Si atom -12396.927675 kJ/mol
# Density = 1.395685 g / cm^3
# Si number density = 13.988686 Si / 1000 Ang^3
#
#
#
# Elastic Constant Matrix: (Units=GPa)
#
#
# Indices 1 2 3 4 5 6 
#
# 1 116.7475 57.7037 38.8918 0.0000 0.0000 0.0000
# 2 57.7037 83.4009 24.5959 0.0000 0.0000 0.0000
# 3 38.8918 24.5959 31.5176 0.0000 0.0000 0.0000
# 4 0.0000 0.0000 0.0000 13.9479 0.0000 0.0000
# 5 0.0000 0.0000 0.0000 0.0000 13.5969 0.0000
# 6 0.0000 0.0000 0.0000 0.0000 0.0000 29.0265
#
#
#
# Elastic Compliance Matrix: (Units=1/GPa)
#
#
# Indices 1 2 3 4 5 6 
#
# 1 0.017512 -0.007460 -0.015787 0.000000 0.000000 0.000000
# 2 -0.007460 0.018753 -0.005429 0.000000 0.000000 0.000000
# 3 -0.015787 -0.005429 0.055446 0.000000 0.000000 0.000000
# 4 0.000000 0.000000 0.000000 0.071696 0.000000 0.000000
# 5 0.000000 0.000000 0.000000 0.000000 0.073546 0.000000
# 6 0.000000 0.000000 0.000000 0.000000 0.000000 0.034451
#
#
# Mechanical properties :
#
#
# Convention : Reuss Voigt Hill
#
# Bulk Modulus (GPa) = 29.10518 52.67210 40.88864
# Shear Modulus (GPa) = 14.69682 18.67924 16.68803
#
# Velocity S-wave (km/s) = 3.24485 3.65815 3.45768
# Velocity P-wave (km/s) = 5.90678 7.45506 6.72562
#
# Compressibility (1/GPa) = 0.03435815
#
# Stress axis : x y z
#
# Youngs Moduli (GPa) = 57.10322 53.32482 18.03555
#
# Poissons Ratio (x) = 0.39783 0.28474
# Poissons Ratio (y) = 0.42602 0.09791
# Poissons Ratio (z) = 0.90152 0.28948
#
# Static dielectric constant tensor:
#      x y z
#    x 2.945380 0.000000 0.000000 
#    y 0.000000 2.866060 0.000000 
#    z 0.000000 0.000000 2.339830 
# 
# 
# High freq. dielectric constant tensor:
#      x y z
#    x 1.537360 0.000000 0.000000 
#    y 0.000000 1.548090 0.000000 
#    z 0.000000 0.000000 1.463270 
# 
# From -- ./inp_files/17610.got.cif
#   From: 2010.06.25/outbox.cif.g09.slc.cpg/sg71_9_cif.got.tgz:17610.got - 2010.06.28 04:59:45.
