data_PCOD8286987
_publ_section_title
;
Structure prediction by ZEFSAII (Michael W. Deem and Ramdas Pophale) SiO2 
 PCOD8286987
Probable space group: I M M M
;
_chemical_formula_sum "Si O2"
_cell_formula_units_Z 104
_cell_length_a 18.693373
_cell_length_b 27.092141
_cell_length_c 11.913417
_cell_angle_alpha 90.000000
_cell_angle_beta 90.000000
_cell_angle_gamma 90.000000
_cell_volume 6033.472568
_symmetry_space_group_name_H-M "I M M M"
_symmetry_group_IT_number 71
_symmetry_cell_setting 'orthorhombic'
loop_
_space_group_symop_operation_xyz
x,y,z
-x,-y,z
x,-y,-z
-x,y,-z
-x,-y,-z
x,y,-z
-x,y,z
x,-y,z
1/2+x,1/2+y,1/2+z
1/2-x,1/2-y,1/2+z
1/2+x,1/2-y,1/2-z
1/2-x,1/2+y,1/2-z
1/2-x,1/2-y,1/2-z
1/2+x,1/2+y,1/2-z
1/2-x,1/2+y,1/2+z
1/2+x,1/2-y,1/2+z
loop_
_atom_site_type_symbol
_atom_site_label
_atom_site_fract_x
_atom_site_fract_y
_atom_site_fract_z
Si Si1 0.079405 0.000000 0.867036
Si Si2 0.084531 0.354235 0.000000
Si Si3 0.189254 0.556062 0.370319
Si Si4 0.841634 0.902074 0.131847
Si Si5 0.915239 0.809562 0.780177
Si Si6 0.915486 0.246288 0.000000
Si Si7 0.415320 0.123081 0.745003
Si Si8 0.084803 0.278901 0.373867
O O1 0.120151 0.048405 0.825979
O O2 0.000000 0.000000 0.815563
O O3 0.077305 0.000000 0.000000
O O4 0.119953 0.300146 0.000000
O O5 0.108026 0.381358 0.885693
O O6 0.000000 0.348015 0.000000
O O7 0.168709 0.556496 0.500000
O O8 0.205169 0.500000 0.331072
O O9 0.257433 0.590938 0.348442
O O10 0.121463 0.577121 0.304797
O O11 0.870938 0.860310 0.216643
O O12 0.858845 0.890834 0.000000
O O13 0.889456 0.781828 0.890971
O O14 0.891956 0.774226 0.676989
O O15 0.000000 0.820972 0.779124
O O16 0.000000 0.251175 0.000000
O O17 0.500000 0.117644 0.760474
O O18 0.388385 0.175185 0.798079
O O19 0.116327 0.283561 0.500000
O O20 0.000000 0.280637 0.376172
#
# Coordination Sequence:
#
# PCOD8286987 Si02
#       8
#     8   8  16  16  16   8  16  16
#     4   9  16  26  44  72 102 130 165 210 254 297
#     4   9  16  30  53  80 106 128 155 200 256 304
#     4  10  21  37  53  70  99 137 170 207 259 305
#     4  10  18  30  47  70 102 136 168 206 255 303
#     4  10  17  26  47  77 105 135 170 205 245 296
#     4   9  14  24  44  74 106 132 159 195 244 302
#     4  10  19  33  56  80 100 128 166 207 250 301
#     4   9  17  29  47  74 107 137 166 204 248 294
#
# _framework density 17.237169999999999
#
# number of rings (size 3 to 8) (size 9 to 14) (size 15 to 20)
#    0.000    2.385    3.077    0.923    0.000    1.846 
#    0.000    1.923    1.692    1.385    0.000    0.538 
#    0.000    3.077    0.000    0.000    0.000    0.000 
#
# Total GULP energy -644521.546110 kJ/mol
# GULP energy per Si atom -12394.645118 kJ/mol
# Density = 1.719794 g / cm^3
# Si number density = 17.237170 Si / 1000 Ang^3
#
#
#
# Elastic Constant Matrix: (Units=GPa)
#
#
# Indices 1 2 3 4 5 6 
#
# 1 49.7156 35.7882 31.8979 0.0000 0.0000 0.0000
# 2 35.7882 94.0030 46.9717 0.0000 0.0000 0.0000
# 3 31.8979 46.9717 97.7823 0.0000 0.0000 0.0000
# 4 0.0000 0.0000 0.0000 23.6569 0.0000 0.0000
# 5 0.0000 0.0000 0.0000 0.0000 14.6306 0.0000
# 6 0.0000 0.0000 0.0000 0.0000 0.0000 13.1314
#
#
#
# Elastic Compliance Matrix: (Units=1/GPa)
#
#
# Indices 1 2 3 4 5 6 
#
# 1 0.029898 -0.008565 -0.005639 0.000000 0.000000 0.000000
# 2 -0.008565 0.016452 -0.005109 0.000000 0.000000 0.000000
# 3 -0.005639 -0.005109 0.014520 0.000000 0.000000 0.000000
# 4 0.000000 0.000000 0.000000 0.042271 0.000000 0.000000
# 5 0.000000 0.000000 0.000000 0.000000 0.068350 0.000000
# 6 0.000000 0.000000 0.000000 0.000000 0.000000 0.076153
#
#
# Mechanical properties :
#
#
# Convention : Reuss Voigt Hill
#
# Bulk Modulus (GPa) = 44.95450 52.31294 48.63372
# Shear Modulus (GPa) = 17.02512 18.73999 17.88255
#
# Velocity S-wave (km/s) = 3.14618 3.30083 3.22443
# Velocity P-wave (km/s) = 6.27172 6.70388 6.49140
#
# Compressibility (1/GPa) = 0.02224472
#
# Stress axis : x y z
#
# Youngs Moduli (GPa) = 33.44735 60.78467 68.86873
#
# Poissons Ratio (x) = 0.52061 0.38833
# Poissons Ratio (y) = 0.28647 0.35184
# Poissons Ratio (z) = 0.18860 0.31054
#
# Static dielectric constant tensor:
#      x y z
#    x 2.907380 0.000000 0.000000 
#    y 0.000000 3.278190 0.000000 
#    z 0.000000 0.000000 3.247270 
# 
# 
# High freq. dielectric constant tensor:
#      x y z
#    x 1.633060 0.000000 0.000000 
#    y 0.000000 1.669380 0.000000 
#    z 0.000000 0.000000 1.642460 
# 
# From -- ./inp_files/24612.got.cif
#   From: 2010.06.25/outbox.cif.g09.slc.cpg/sg71_13_cif.got.tgz:24612.got - 2010.06.28 04:59:45.
