data_PCOD8286361
_publ_section_title
;
Structure prediction by ZEFSAII (Michael W. Deem and Ramdas Pophale) SiO2 
 PCOD8286361
Probable space group: F D D D
;
_chemical_formula_sum "Si O2"
_cell_formula_units_Z 128
_cell_length_a 13.367155
_cell_length_b 20.769664
_cell_length_c 21.625820
_cell_angle_alpha 90.000000
_cell_angle_beta 90.000000
_cell_angle_gamma 90.000000
_cell_volume 6004.004909
_symmetry_space_group_name_H-M "F D D D"
_symmetry_group_IT_number 70
_space_group.IT_coordinate_system_code '2'
_symmetry_cell_setting 'orthorhombic'
loop_
_space_group_symop_operation_xyz
x,y,z
1/4-x,1/4-y,z
x,1/4-y,1/4-z
1/4-x,y,1/4-z
-x,-y,-z
3/4+x,3/4+y,-z
-x,3/4+y,3/4+z
3/4+x,-y,3/4+z
x,1/2+y,1/2+z
1/4-x,3/4-y,1/2+z
x,3/4-y,3/4-z
1/4-x,1/2+y,3/4-z
-x,1/2-y,1/2-z
3/4+x,1/4+y,1/2-z
-x,1/4+y,1/4+z
3/4+x,1/2-y,1/4+z
1/2+x,y,1/2+z
3/4-x,1/4-y,1/2+z
1/2+x,1/4-y,3/4-z
3/4-x,y,3/4-z
1/2-x,-y,1/2-z
1/4+x,3/4+y,1/2-z
1/2-x,3/4+y,1/4+z
1/4+x,-y,1/4+z
1/2+x,1/2+y,z
3/4-x,3/4-y,z
1/2+x,3/4-y,1/4-z
3/4-x,1/2+y,1/4-z
1/2-x,1/2-y,-z
1/4+x,1/4+y,-z
1/2-x,1/4+y,3/4+z
1/4+x,1/2-y,3/4+z
loop_
_atom_site_type_symbol
_atom_site_label
_atom_site_fract_x
_atom_site_fract_y
_atom_site_fract_z
Si Si1 0.375000 0.674934 0.875000
Si Si2 0.875000 0.375000 0.375000
Si Si3 0.228879 0.770731 0.431124
Si Si4 0.524954 0.667668 0.423629
Si Si5 0.000988 0.277983 0.946703
Si Si6 0.125000 0.125000 0.625000
O O1 0.434204 0.633113 0.824300
O O2 0.295025 0.714081 0.833846
O O3 0.803173 0.420177 0.333846
O O4 0.250000 0.750000 0.500000
O O5 0.242387 0.708870 0.387929
O O6 0.113775 0.790524 0.425843
O O7 0.625000 0.625000 0.424087
O O8 0.515355 0.719362 0.479308
O O9 0.942657 0.337625 0.921590
#
# Coordination Sequence:
#
# PCOD8286361 Si02
#       6
#    16   8  32  32  32   8
#     4  11  25  45  72 103 147 185 244 300 358 433
#     4  12  28  48  72 106 150 188 238 296 360 442
#     4  12  27  46  72 103 144 191 239 293 365 431
#     4  12  25  46  72 107 144 192 241 299 365 432
#     4  11  24  43  70 101 139 186 239 297 360 421
#     4  10  22  40  64 102 132 178 234 292 352 420
#
# _framework density 21.319103999999999
#
# number of rings (size 3 to 8) (size 9 to 14) (size 15 to 20)
#    0.000    0.500    3.750    4.500    1.750    9.000 
#    0.000    0.000    0.000    0.000    0.000    0.000 
#    0.000    0.000    0.000    0.000    0.000    0.000 
#
# Total GULP energy -396718.460106 kJ/mol
# GULP energy per Si atom -12397.451878 kJ/mol
# Density = 2.127058 g / cm^3
# Si number density = 21.319104 Si / 1000 Ang^3
#
#
#
# Elastic Constant Matrix: (Units=GPa)
#
#
# Indices 1 2 3 4 5 6 
#
# 1 179.9448 67.2837 45.6077 0.0000 0.0000 0.0000
# 2 67.2837 108.9267 55.5106 0.0000 0.0000 0.0000
# 3 45.6077 55.5106 146.6988 0.0000 0.0000 0.0000
# 4 0.0000 0.0000 0.0000 32.9713 0.0000 0.0000
# 5 0.0000 0.0000 0.0000 0.0000 31.2440 0.0000
# 6 0.0000 0.0000 0.0000 0.0000 0.0000 46.3300
#
#
#
# Elastic Compliance Matrix: (Units=1/GPa)
#
#
# Indices 1 2 3 4 5 6 
#
# 1 0.007283 -0.004144 -0.000696 0.000000 0.000000 0.000000
# 2 -0.004144 0.013732 -0.003908 0.000000 0.000000 0.000000
# 3 -0.000696 -0.003908 0.008512 0.000000 0.000000 0.000000
# 4 0.000000 0.000000 0.000000 0.030329 0.000000 0.000000
# 5 0.000000 0.000000 0.000000 0.000000 0.032006 0.000000
# 6 0.000000 0.000000 0.000000 0.000000 0.000000 0.021584
#
#
# Mechanical properties :
#
#
# Convention : Reuss Voigt Hill
#
# Bulk Modulus (GPa) = 83.11980 85.81934 84.46957
# Shear Modulus (GPa) = 37.05004 39.92028 38.48516
#
# Velocity S-wave (km/s) = 4.17331 4.33195 4.25337
# Velocity P-wave (km/s) = 7.89272 8.08474 7.98931
#
# Compressibility (1/GPa) = 0.01203083
#
# Stress axis : x y z
#
# Youngs Moduli (GPa) = 137.30185 72.82447 117.48402
#
# Poissons Ratio (x) = 0.30179 0.08179
# Poissons Ratio (y) = 0.56898 0.45909
# Poissons Ratio (z) = 0.09559 0.28457
#
# Static dielectric constant tensor:
#      x y z
#    x 2.676360 0.000000 0.000000 
#    y 0.000000 4.140760 0.000000 
#    z 0.000000 0.000000 3.810080 
# 
# 
# High freq. dielectric constant tensor:
#      x y z
#    x 1.865940 0.000000 0.000000 
#    y 0.000000 1.843390 0.000000 
#    z 0.000000 0.000000 1.842310 
# 
# From -- ./inp_files/42584.got.cif
#   From: 2010.03.12/outbox.cif.g09.slc.cpg/sg70_22_cif.got.tgz:42584.got - 2010.04.16 13:46:32.
