data_PCOD8286441
_publ_section_title
;
Structure prediction by ZEFSAII (Michael W. Deem and Ramdas Pophale) SiO2 
 PCOD8286441
Probable space group: F D D D
;
_chemical_formula_sum "Si O2"
_cell_formula_units_Z 192
_cell_length_a 29.036998
_cell_length_b 11.490396
_cell_length_c 25.868910
_cell_angle_alpha 90.000000
_cell_angle_beta 90.000000
_cell_angle_gamma 90.000000
_cell_volume 8631.074014
_symmetry_space_group_name_H-M "F D D D"
_symmetry_group_IT_number 70
_space_group.IT_coordinate_system_code '2'
_symmetry_cell_setting 'orthorhombic'
loop_
_space_group_symop_operation_xyz
x,y,z
1/4-x,1/4-y,z
x,1/4-y,1/4-z
1/4-x,y,1/4-z
-x,-y,-z
3/4+x,3/4+y,-z
-x,3/4+y,3/4+z
3/4+x,-y,3/4+z
x,1/2+y,1/2+z
1/4-x,3/4-y,1/2+z
x,3/4-y,3/4-z
1/4-x,1/2+y,3/4-z
-x,1/2-y,1/2-z
3/4+x,1/4+y,1/2-z
-x,1/4+y,1/4+z
3/4+x,1/2-y,1/4+z
1/2+x,y,1/2+z
3/4-x,1/4-y,1/2+z
1/2+x,1/4-y,3/4-z
3/4-x,y,3/4-z
1/2-x,-y,1/2-z
1/4+x,3/4+y,1/2-z
1/2-x,3/4+y,1/4+z
1/4+x,-y,1/4+z
1/2+x,1/2+y,z
3/4-x,3/4-y,z
1/2+x,3/4-y,1/4-z
3/4-x,1/2+y,1/4-z
1/2-x,1/2-y,-z
1/4+x,1/4+y,-z
1/2-x,1/4+y,3/4+z
1/4+x,1/2-y,3/4+z
loop_
_atom_site_type_symbol
_atom_site_label
_atom_site_fract_x
_atom_site_fract_y
_atom_site_fract_z
Si Si1 0.921169 0.447892 0.454362
Si Si2 0.968796 0.296866 0.920066
Si Si3 0.125000 0.125000 0.533427
Si Si4 0.039111 0.981566 0.244945
Si Si5 0.561499 0.375000 0.875000
Si Si6 0.129731 0.863572 0.271891
Si Si7 0.520293 0.798195 0.121177
O O1 0.875000 0.375000 0.447205
O O2 0.956331 0.372043 0.490032
O O3 0.912620 0.573863 0.479846
O O4 0.943534 0.461622 0.398151
O O5 0.991417 0.375000 0.875000
O O6 0.917200 0.343255 0.928963
O O7 0.976136 0.166194 0.902378
O O8 0.993865 0.308705 0.975050
O O9 0.133639 0.234408 0.496062
O O10 0.082556 0.934467 0.276884
O O11 0.036064 0.927822 0.187440
O O12 0.594364 0.383896 0.825929
O O13 0.530476 0.258285 0.874708
#
# Coordination Sequence:
#
# PCOD8286441 Si02
#       7
#    32  32  16  32  16  32  32
#     4  10  22  45  75 109 140 184 243 317 364 428
#     4  12  28  46  70 103 145 197 245 299 370 451
#     4  12  25  48  70 100 144 192 244 305 364 448
#     4  11  25  46  72 108 141 192 247 309 370 449
#     4  12  26  46  73 118 144 201 248 320 382 442
#     4  11  26  45  72 104 153 189 244 302 380 450
#     4  12  24  45  79 103 145 191 253 310 369 440
#
# _framework density 22.245204999999999
#
# number of rings (size 3 to 8) (size 9 to 14) (size 15 to 20)
#    0.000    0.667    3.333    3.250    1.167   10.000 
#    4.500    0.000    0.000    0.000    0.000    0.000 
#    0.000    0.000    0.000    0.000    0.000    0.000 
#
# Total GULP energy -595222.530748 kJ/mol
# GULP energy per Si atom -12400.469391 kJ/mol
# Density = 2.219457 g / cm^3
# Si number density = 22.245205 Si / 1000 Ang^3
#
#
#
# Elastic Constant Matrix: (Units=GPa)
#
#
# Indices 1 2 3 4 5 6 
#
# 1 118.3485 42.5185 84.0511 0.0000 0.0000 0.0000
# 2 42.5185 115.3858 63.4173 0.0000 0.0000 0.0000
# 3 84.0511 63.4173 162.8160 0.0000 0.0000 0.0000
# 4 0.0000 0.0000 0.0000 31.2871 0.0000 0.0000
# 5 0.0000 0.0000 0.0000 0.0000 52.6729 0.0000
# 6 0.0000 0.0000 0.0000 0.0000 0.0000 18.6535
#
#
#
# Elastic Compliance Matrix: (Units=1/GPa)
#
#
# Indices 1 2 3 4 5 6 
#
# 1 0.013531 -0.001459 -0.006417 0.000000 0.000000 0.000000
# 2 -0.001459 0.011185 -0.003603 0.000000 0.000000 0.000000
# 3 -0.006417 -0.003603 0.010858 0.000000 0.000000 0.000000
# 4 0.000000 0.000000 0.000000 0.031962 0.000000 0.000000
# 5 0.000000 0.000000 0.000000 0.000000 0.018985 0.000000
# 6 0.000000 0.000000 0.000000 0.000000 0.000000 0.053609
#
#
# Mechanical properties :
#
#
# Convention : Reuss Voigt Hill
#
# Bulk Modulus (GPa) = 79.26959 86.28047 82.77503
# Shear Modulus (GPa) = 29.88758 34.29358 32.09058
#
# Velocity S-wave (km/s) = 3.66943 3.93060 3.80226
# Velocity P-wave (km/s) = 7.32562 7.71167 7.52112
#
# Compressibility (1/GPa) = 0.01261518
#
# Stress axis : x y z
#
# Youngs Moduli (GPa) = 73.90365 89.40839 92.09888
#
# Poissons Ratio (x) = 0.13048 0.59098
# Poissons Ratio (y) = 0.10785 0.33184
# Poissons Ratio (z) = 0.47423 0.32215
#
# Static dielectric constant tensor:
#      x y z
#    x 4.097420 0.000000 0.000000 
#    y 0.000000 4.309620 0.000000 
#    z 0.000000 0.000000 4.020160 
# 
# 
# High freq. dielectric constant tensor:
#      x y z
#    x 1.875780 0.000000 0.000000 
#    y 0.000000 1.887380 0.000000 
#    z 0.000000 0.000000 1.883060 
# 
# From -- ./inp_files/62228.got.cif
#   From: 2010.03.12/outbox.cif.g09.slc.cpg/sg70_32_cif.got.tgz:62228.got - 2010.04.16 13:46:32.
