data_PCOD8286452
_publ_section_title
;
Structure prediction by ZEFSAII (Michael W. Deem and Ramdas Pophale) SiO2 
 PCOD8286452
Probable space group: F D D D
;
_chemical_formula_sum "Si O2"
_cell_formula_units_Z 144
_cell_length_a 20.092523
_cell_length_b 16.726764
_cell_length_c 22.016208
_cell_angle_alpha 90.000000
_cell_angle_beta 90.000000
_cell_angle_gamma 90.000000
_cell_volume 7399.270820
_symmetry_space_group_name_H-M "F D D D"
_symmetry_group_IT_number 70
_space_group.IT_coordinate_system_code '2'
_symmetry_cell_setting 'orthorhombic'
loop_
_space_group_symop_operation_xyz
x,y,z
1/4-x,1/4-y,z
x,1/4-y,1/4-z
1/4-x,y,1/4-z
-x,-y,-z
3/4+x,3/4+y,-z
-x,3/4+y,3/4+z
3/4+x,-y,3/4+z
x,1/2+y,1/2+z
1/4-x,3/4-y,1/2+z
x,3/4-y,3/4-z
1/4-x,1/2+y,3/4-z
-x,1/2-y,1/2-z
3/4+x,1/4+y,1/2-z
-x,1/4+y,1/4+z
3/4+x,1/2-y,1/4+z
1/2+x,y,1/2+z
3/4-x,1/4-y,1/2+z
1/2+x,1/4-y,3/4-z
3/4-x,y,3/4-z
1/2-x,-y,1/2-z
1/4+x,3/4+y,1/2-z
1/2-x,3/4+y,1/4+z
1/4+x,-y,1/4+z
1/2+x,1/2+y,z
3/4-x,3/4-y,z
1/2+x,3/4-y,1/4-z
3/4-x,1/2+y,1/4-z
1/2-x,1/2-y,-z
1/4+x,1/4+y,-z
1/2-x,1/4+y,3/4+z
1/4+x,1/2-y,3/4+z
loop_
_atom_site_type_symbol
_atom_site_label
_atom_site_fract_x
_atom_site_fract_y
_atom_site_fract_z
Si Si1 0.134106 0.344990 0.773361
Si Si2 0.472015 0.368538 0.806120
Si Si3 0.869341 0.505979 0.446411
Si Si4 0.533534 0.375000 0.375000
Si Si5 0.662240 0.043290 0.067415
O O1 0.199291 0.386369 0.800895
O O2 0.105402 0.408096 0.725725
O O3 0.080336 0.328089 0.826491
O O4 0.156206 0.263378 0.740726
O O5 0.448549 0.375000 0.875000
O O6 0.441338 0.450481 0.779007
O O7 0.437292 0.287975 0.780017
O O8 0.875000 0.522305 0.375000
O O9 0.488352 0.311382 0.412133
O O10 0.625000 0.125000 0.049785
O O11 0.625000 0.003137 0.125000
#
# Coordination Sequence:
#
# PCOD8286452 Si02
#       5
#    32  32  32  16  32
#     4  12  19  35  61  83 114 151 193 238 294 343
#     4   9  18  34  50  79 116 141 183 232 286 347
#     4   9  19  33  55  80 109 153 187 231 292 353
#     4  10  23  38  60  89 116 152 200 238 292 349
#     4   9  22  41  57  82 116 152 196 247 288 339
#
# _framework density 19.461378
#
# number of rings (size 3 to 8) (size 9 to 14) (size 15 to 20)
#    0.000    2.444    1.111    4.000    0.000    3.556 
#    0.000    4.444    4.889    0.000    0.000    0.000 
#    0.000    0.000    0.000    0.000    0.000    0.000 
#
# Total GULP energy -446030.375151 kJ/mol
# GULP energy per Si atom -12389.732643 kJ/mol
# Density = 1.941708 g / cm^3
# Si number density = 19.461378 Si / 1000 Ang^3
#
#
#
# Elastic Constant Matrix: (Units=GPa)
#
#
# Indices 1 2 3 4 5 6 
#
# 1 127.4713 28.4435 43.0821 0.0000 0.0000 0.0000
# 2 28.4435 92.9798 44.9435 0.0000 0.0000 0.0000
# 3 43.0821 44.9435 83.0117 0.0000 0.0000 0.0000
# 4 0.0000 0.0000 0.0000 27.3167 0.0000 0.0000
# 5 0.0000 0.0000 0.0000 0.0000 24.0944 0.0000
# 6 0.0000 0.0000 0.0000 0.0000 0.0000 16.3118
#
#
#
# Elastic Compliance Matrix: (Units=1/GPa)
#
#
# Indices 1 2 3 4 5 6 
#
# 1 0.009548 -0.000712 -0.004570 0.000000 0.000000 0.000000
# 2 -0.000712 0.014620 -0.007546 0.000000 0.000000 0.000000
# 3 -0.004570 -0.007546 0.018504 0.000000 0.000000 0.000000
# 4 0.000000 0.000000 0.000000 0.036608 0.000000 0.000000
# 5 0.000000 0.000000 0.000000 0.000000 0.041503 0.000000
# 6 0.000000 0.000000 0.000000 0.000000 0.000000 0.061305
#
#
# Mechanical properties :
#
#
# Convention : Reuss Voigt Hill
#
# Bulk Modulus (GPa) = 58.76702 59.60009 59.18356
# Shear Modulus (GPa) = 23.42831 26.01085 24.71958
#
# Velocity S-wave (km/s) = 3.47340 3.65983 3.56783
# Velocity P-wave (km/s) = 6.80796 6.96782 6.88835
#
# Compressibility (1/GPa) = 0.01701635
#
# Stress axis : x y z
#
# Youngs Moduli (GPa) = 104.73060 68.39765 54.04276
#
# Poissons Ratio (x) = 0.04869 0.24698
# Poissons Ratio (y) = 0.07456 0.40782
# Poissons Ratio (z) = 0.47862 0.51614
#
# Static dielectric constant tensor:
#      x y z
#    x 3.545060 0.000000 0.000000 
#    y 0.000000 3.334370 0.000000 
#    z 0.000000 0.000000 3.370040 
# 
# 
# High freq. dielectric constant tensor:
#      x y z
#    x 1.767350 0.000000 0.000000 
#    y 0.000000 1.743830 0.000000 
#    z 0.000000 0.000000 1.741430 
# 
# From -- ./inp_files/26570.got.cif
#   From: 2010.03.12/outbox.cif.g09.slc.cpg/sg70_14_cif.got.tgz:26570.got - 2010.04.16 13:46:32.
