data_PCOD8286068
_publ_section_title
;
Structure prediction by ZEFSAII (Michael W. Deem and Ramdas Pophale) SiO2 
 PCOD8286068
Probable space group: F D D D
;
_chemical_formula_sum "Si O2"
_cell_formula_units_Z 160
_cell_length_a 13.397214
_cell_length_b 25.166530
_cell_length_c 23.622462
_cell_angle_alpha 90.000000
_cell_angle_beta 90.000000
_cell_angle_gamma 90.000000
_cell_volume 7964.582077
_symmetry_space_group_name_H-M "F D D D"
_symmetry_group_IT_number 70
_space_group.IT_coordinate_system_code '2'
_symmetry_cell_setting 'orthorhombic'
loop_
_space_group_symop_operation_xyz
x,y,z
1/4-x,1/4-y,z
x,1/4-y,1/4-z
1/4-x,y,1/4-z
-x,-y,-z
3/4+x,3/4+y,-z
-x,3/4+y,3/4+z
3/4+x,-y,3/4+z
x,1/2+y,1/2+z
1/4-x,3/4-y,1/2+z
x,3/4-y,3/4-z
1/4-x,1/2+y,3/4-z
-x,1/2-y,1/2-z
3/4+x,1/4+y,1/2-z
-x,1/4+y,1/4+z
3/4+x,1/2-y,1/4+z
1/2+x,y,1/2+z
3/4-x,1/4-y,1/2+z
1/2+x,1/4-y,3/4-z
3/4-x,y,3/4-z
1/2-x,-y,1/2-z
1/4+x,3/4+y,1/2-z
1/2-x,3/4+y,1/4+z
1/4+x,-y,1/4+z
1/2+x,1/2+y,z
3/4-x,3/4-y,z
1/2+x,3/4-y,1/4-z
3/4-x,1/2+y,1/4-z
1/2-x,1/2-y,-z
1/4+x,1/4+y,-z
1/2-x,1/4+y,3/4+z
1/4+x,1/2-y,3/4+z
loop_
_atom_site_type_symbol
_atom_site_label
_atom_site_fract_x
_atom_site_fract_y
_atom_site_fract_z
Si Si1 0.631580 0.024559 0.879658
Si Si2 0.539159 0.419907 0.671427
Si Si3 0.746420 0.517084 0.494349
Si Si4 0.265742 0.932252 0.895454
Si Si5 0.568181 0.302185 0.682598
O O1 0.563699 0.075670 0.864545
O O2 0.675257 0.029420 0.942113
O O3 0.717491 0.019650 0.831428
O O4 0.565480 0.972115 0.878985
O O5 0.625000 0.431384 0.625000
O O6 0.534758 0.463692 0.722008
O O7 0.545645 0.362827 0.702941
O O8 0.733525 0.566861 0.536411
O O9 0.863347 0.517284 0.474987
O O10 0.232681 0.875000 0.875000
O O11 0.375000 0.948877 0.875000
O O12 0.625000 0.312557 0.625000
#
# Coordination Sequence:
#
# PCOD8286068 Si02
#       5
#    32  32  32  32  32
#     4  10  20  38  62  83 119 158 198 245 297 354
#     4  10  21  36  57  90 124 152 204 253 292 367
#     4  10  21  37  63  86 117 166 192 251 306 348
#     4  10  23  40  55  91 126 149 198 247 296 367
#     4   9  20  38  57  90 120 150 212 248 289 364
#
# _framework density 20.088939
#
# number of rings (size 3 to 8) (size 9 to 14) (size 15 to 20)
#    0.000    2.200    0.000    3.000    2.800    6.400 
#   18.000    0.000    0.000    4.200    0.000    0.000 
#    0.000    0.000    0.000    0.000    0.000    0.000 
#
# Total GULP energy -495586.969325 kJ/mol
# GULP energy per Si atom -12389.674233 kJ/mol
# Density = 2.004322 g / cm^3
# Si number density = 20.088939 Si / 1000 Ang^3
#
#
#
# Elastic Constant Matrix: (Units=GPa)
#
#
# Indices 1 2 3 4 5 6 
#
# 1 121.1781 35.0435 51.6467 0.0000 0.0000 0.0000
# 2 35.0435 104.0360 19.1351 0.0000 0.0000 0.0000
# 3 51.6467 19.1351 109.8390 0.0000 0.0000 0.0000
# 4 0.0000 0.0000 0.0000 -25.7409 0.0000 0.0000
# 5 0.0000 0.0000 0.0000 0.0000 26.2678 0.0000
# 6 0.0000 0.0000 0.0000 0.0000 0.0000 28.1605
#
#
#
# Elastic Compliance Matrix: (Units=1/GPa)
#
#
# Indices 1 2 3 4 5 6 
#
# 1 0.011092 -0.002869 -0.004716 0.000000 0.000000 0.000000
# 2 -0.002869 0.010672 -0.000510 0.000000 0.000000 0.000000
# 3 -0.004716 -0.000510 0.011410 0.000000 0.000000 0.000000
# 4 0.000000 0.000000 0.000000 -0.038849 0.000000 0.000000
# 5 0.000000 0.000000 0.000000 0.000000 0.038069 0.000000
# 6 0.000000 0.000000 0.000000 0.000000 0.000000 0.035511
#
#
# Mechanical properties :
#
#
# Convention : Reuss Voigt Hill
#
# Bulk Modulus (GPa) = 58.87546 60.74486 59.81016
# Shear Modulus (GPa) = 55.70595 21.01933 38.36264
#
# Velocity S-wave (km/s) = 5.27161 3.23819 4.37468
# Velocity P-wave (km/s) = 8.15010 6.65468 7.44006
#
# Compressibility (1/GPa) = 0.01698501
#
# Stress axis : x y z
#
# Youngs Moduli (GPa) = 90.15697 93.70099 87.63909
#
# Poissons Ratio (x) = 0.26881 0.41327
# Poissons Ratio (y) = 0.25864 0.04472
# Poissons Ratio (z) = 0.42515 0.04781
#
# Static dielectric constant tensor:
#      x y z
#    x 4.125110 0.000000 0.000000 
#    y 0.000000 3.546160 0.000000 
#    z 0.000000 0.000000 3.702080 
# 
# 
# High freq. dielectric constant tensor:
#      x y z
#    x 1.802390 0.000000 0.000000 
#    y 0.000000 1.775020 0.000000 
#    z 0.000000 0.000000 1.780380 
# 
# From -- ./inp_files/19452.got.cif
#   From: 2010.03.12/outbox.cif.g09.slc.cpg/sg70_10_cif.got.tgz:19452.got - 2010.04.16 13:46:32.
