data_PCOD8286865
_publ_section_title
;
Structure prediction by ZEFSAII (Michael W. Deem and Ramdas Pophale) SiO2 
 PCOD8286865
Probable space group: F D D D
;
_chemical_formula_sum "Si O2"
_cell_formula_units_Z 104
_cell_length_a 10.029573
_cell_length_b 16.324275
_cell_length_c 27.040143
_cell_angle_alpha 90.000000
_cell_angle_beta 90.000000
_cell_angle_gamma 90.000000
_cell_volume 4427.161143
_symmetry_space_group_name_H-M "F D D D"
_symmetry_group_IT_number 70
_space_group.IT_coordinate_system_code '2'
_symmetry_cell_setting 'orthorhombic'
loop_
_space_group_symop_operation_xyz
x,y,z
1/4-x,1/4-y,z
x,1/4-y,1/4-z
1/4-x,y,1/4-z
-x,-y,-z
3/4+x,3/4+y,-z
-x,3/4+y,3/4+z
3/4+x,-y,3/4+z
x,1/2+y,1/2+z
1/4-x,3/4-y,1/2+z
x,3/4-y,3/4-z
1/4-x,1/2+y,3/4-z
-x,1/2-y,1/2-z
3/4+x,1/4+y,1/2-z
-x,1/4+y,1/4+z
3/4+x,1/2-y,1/4+z
1/2+x,y,1/2+z
3/4-x,1/4-y,1/2+z
1/2+x,1/4-y,3/4-z
3/4-x,y,3/4-z
1/2-x,-y,1/2-z
1/4+x,3/4+y,1/2-z
1/2-x,3/4+y,1/4+z
1/4+x,-y,1/4+z
1/2+x,1/2+y,z
3/4-x,3/4-y,z
1/2+x,3/4-y,1/4-z
3/4-x,1/2+y,1/4-z
1/2-x,1/2-y,-z
1/4+x,1/4+y,-z
1/2-x,1/4+y,3/4+z
1/4+x,1/2-y,3/4+z
loop_
_atom_site_type_symbol
_atom_site_label
_atom_site_fract_x
_atom_site_fract_y
_atom_site_fract_z
Si Si1 0.875000 0.375000 0.875000
Si Si2 0.754219 0.680962 0.040723
Si Si3 0.277128 0.946367 0.124057
Si Si4 0.438090 0.210620 0.201806
O O1 0.792362 0.438100 0.841070
O O2 0.625000 0.625000 0.043433
O O3 0.783073 0.722413 0.093080
O O4 0.876437 0.622925 0.027745
O O5 0.750000 0.750000 0.000000
O O6 0.375000 0.875000 0.144204
O O7 0.125000 0.912420 0.125000
O O8 0.326730 0.976324 0.070010
O O9 0.500000 0.250000 0.250000
#
# Coordination Sequence:
#
# PCOD8286865 Si02
#       4
#     8  32  32  32
#     4  12  28  48  78 116 164 216 276 348 416 518
#     4  12  27  50  82 117 160 215 281 350 435 509
#     4  12  28  51  81 119 165 219 284 356 432 520
#     4  12  30  50  80 119 169 221 280 355 433 513
#
# _framework density 23.491351999999999
#
# number of rings (size 3 to 8) (size 9 to 14) (size 15 to 20)
#    0.000    0.000    6.154    0.923   12.923    0.000 
#    0.000    0.000    0.000    0.000    0.000    0.000 
#    0.000    0.000    0.000    0.000    0.000    0.000 
#
# Total GULP energy -322450.839147 kJ/mol
# GULP energy per Si atom -12401.955352 kJ/mol
# Density = 2.343788 g / cm^3
# Si number density = 23.491352 Si / 1000 Ang^3
#
#
#
# Elastic Constant Matrix: (Units=GPa)
#
#
# Indices 1 2 3 4 5 6 
#
# 1 179.1062 97.3797 84.0308 0.0000 0.0000 0.0000
# 2 97.3797 172.6111 76.0378 0.0000 0.0000 0.0000
# 3 84.0308 76.0378 160.0589 0.0000 0.0000 0.0000
# 4 0.0000 0.0000 0.0000 52.8604 0.0000 0.0000
# 5 0.0000 0.0000 0.0000 0.0000 37.4178 0.0000
# 6 0.0000 0.0000 0.0000 0.0000 0.0000 67.4206
#
#
#
# Elastic Compliance Matrix: (Units=1/GPa)
#
#
# Indices 1 2 3 4 5 6 
#
# 1 0.009025 -0.003800 -0.002933 0.000000 0.000000 0.000000
# 2 -0.003800 0.008926 -0.002246 0.000000 0.000000 0.000000
# 3 -0.002933 -0.002246 0.008855 0.000000 0.000000 0.000000
# 4 0.000000 0.000000 0.000000 0.018918 0.000000 0.000000
# 5 0.000000 0.000000 0.000000 0.000000 0.026725 0.000000
# 6 0.000000 0.000000 0.000000 0.000000 0.000000 0.014832
#
#
# Mechanical properties :
#
#
# Convention : Reuss Voigt Hill
#
# Bulk Modulus (GPa) = 113.00788 114.07476 113.54132
# Shear Modulus (GPa) = 46.21590 48.49494 47.35542
#
# Velocity S-wave (km/s) = 4.44030 4.54847 4.49471
# Velocity P-wave (km/s) = 8.63128 8.73215 8.68186
#
# Compressibility (1/GPa) = 0.00884894
#
# Stress axis : x y z
#
# Youngs Moduli (GPa) = 110.80029 112.03010 112.93670
#
# Poissons Ratio (x) = 0.42566 0.33127
# Poissons Ratio (y) = 0.42099 0.25363
# Poissons Ratio (z) = 0.32500 0.25159
#
# Static dielectric constant tensor:
#      x y z
#    x 4.522210 0.000000 0.000000 
#    y 0.000000 4.412260 0.000000 
#    z 0.000000 0.000000 4.494220 
# 
# 
# High freq. dielectric constant tensor:
#      x y z
#    x 1.944530 0.000000 0.000000 
#    y 0.000000 1.949230 0.000000 
#    z 0.000000 0.000000 1.931720 
# 
# From -- ./inp_files/33005.got.cif
#   From: 2010.03.12/outbox.cif.g09.slc.cpg/sg70_17_cif.got.tgz:33005.got - 2010.04.16 13:46:32.
