data_PCOD8286047
_publ_section_title
;
Structure prediction by ZEFSAII (Michael W. Deem and Ramdas Pophale) SiO2 
 PCOD8286047
Probable space group: F D D D
;
_chemical_formula_sum "Si O2"
_cell_formula_units_Z 192
_cell_length_a 9.858167
_cell_length_b 26.281122
_cell_length_c 34.098529
_cell_angle_alpha 90.000000
_cell_angle_beta 90.000000
_cell_angle_gamma 90.000000
_cell_volume 8834.372704
_symmetry_space_group_name_H-M "F D D D"
_symmetry_group_IT_number 70
_space_group.IT_coordinate_system_code '2'
_symmetry_cell_setting 'orthorhombic'
loop_
_space_group_symop_operation_xyz
x,y,z
1/4-x,1/4-y,z
x,1/4-y,1/4-z
1/4-x,y,1/4-z
-x,-y,-z
3/4+x,3/4+y,-z
-x,3/4+y,3/4+z
3/4+x,-y,3/4+z
x,1/2+y,1/2+z
1/4-x,3/4-y,1/2+z
x,3/4-y,3/4-z
1/4-x,1/2+y,3/4-z
-x,1/2-y,1/2-z
3/4+x,1/4+y,1/2-z
-x,1/4+y,1/4+z
3/4+x,1/2-y,1/4+z
1/2+x,y,1/2+z
3/4-x,1/4-y,1/2+z
1/2+x,1/4-y,3/4-z
3/4-x,y,3/4-z
1/2-x,-y,1/2-z
1/4+x,3/4+y,1/2-z
1/2-x,3/4+y,1/4+z
1/4+x,-y,1/4+z
1/2+x,1/2+y,z
3/4-x,3/4-y,z
1/2+x,3/4-y,1/4-z
3/4-x,1/2+y,1/4-z
1/2-x,1/2-y,-z
1/4+x,1/4+y,-z
1/2-x,1/4+y,3/4+z
1/4+x,1/2-y,3/4+z
loop_
_atom_site_type_symbol
_atom_site_label
_atom_site_fract_x
_atom_site_fract_y
_atom_site_fract_z
Si Si1 0.875000 0.687710 0.875000
Si Si2 0.101311 0.770007 0.542587
Si Si3 0.300861 0.797167 0.038876
Si Si4 0.337541 0.133163 0.670067
Si Si5 0.125000 0.625000 0.349696
Si Si6 0.907257 0.946785 0.452724
Si Si7 0.522922 0.166718 0.736324
O O1 0.853287 0.723477 0.912534
O O2 0.736895 0.654575 0.874786
O O3 0.154789 0.818805 0.517398
O O4 0.150537 0.718192 0.523979
O O5 0.940226 0.766318 0.542539
O O6 0.284076 0.838808 0.072329
O O7 0.174369 0.758115 0.045021
O O8 0.309000 0.824284 0.996446
O O9 0.379457 0.125000 0.625000
O O10 0.236117 0.179713 0.683281
O O11 0.271360 0.078357 0.676351
O O12 0.469658 0.141116 0.696310
O O13 0.625000 0.125000 0.755435
#
# Coordination Sequence:
#
# PCOD8286047 Si02
#       7
#    16  32  32  32  16  32  32
#     4  10  24  44  65  92 134 165 218 276 326 394
#     4  10  23  44  63  97 129 169 218 276 321 398
#     4  10  20  39  66  88 128 165 215 257 337 390
#     4  11  23  40  61  93 132 166 218 273 325 392
#     4  10  22  42  60  96 123 174 211 272 326 402
#     4  10  20  37  62  94 122 169 202 271 322 392
#     4  11  24  42  67  93 129 177 222 267 333 396
#
# _framework density 21.733293
#
# number of rings (size 3 to 8) (size 9 to 14) (size 15 to 20)
#    0.000    1.667    1.667    3.000    3.500    4.333 
#    6.000    0.000    0.000    0.000    0.000    0.000 
#    0.000    0.000    0.000    0.000    0.000    0.000 
#
# Total GULP energy -594764.777571 kJ/mol
# GULP energy per Si atom -12390.932866 kJ/mol
# Density = 2.168383 g / cm^3
# Si number density = 21.733293 Si / 1000 Ang^3
#
#
#
# Elastic Constant Matrix: (Units=GPa)
#
#
# Indices 1 2 3 4 5 6 
#
# 1 40.1018 10.0943 -0.8179 0.0000 0.0000 0.0000
# 2 10.0943 64.5756 0.9521 0.0000 0.0000 0.0000
# 3 -0.8179 0.9521 91.6676 0.0000 0.0000 0.0000
# 4 0.0000 0.0000 0.0000 42.6296 0.0000 0.0000
# 5 0.0000 0.0000 0.0000 0.0000 43.4638 0.0000
# 6 0.0000 0.0000 0.0000 0.0000 0.0000 24.7089
#
#
#
# Elastic Compliance Matrix: (Units=1/GPa)
#
#
# Indices 1 2 3 4 5 6 
#
# 1 0.025965 -0.004063 0.000274 0.000000 0.000000 0.000000
# 2 -0.004063 0.016124 -0.000204 0.000000 0.000000 0.000000
# 3 0.000274 -0.000204 0.010914 0.000000 0.000000 0.000000
# 4 0.000000 0.000000 0.000000 0.023458 0.000000 0.000000
# 5 0.000000 0.000000 0.000000 0.000000 0.023008 0.000000
# 6 0.000000 0.000000 0.000000 0.000000 0.000000 0.040471
#
#
# Mechanical properties :
#
#
# Convention : Reuss Voigt Hill
#
# Bulk Modulus (GPa) = 22.21389 24.08911 23.15150
# Shear Modulus (GPa) = 30.68807 34.56823 32.62815
#
# Velocity S-wave (km/s) = 3.76178 3.99252 3.87886
# Velocity P-wave (km/s) = 5.39549 5.68873 5.54405
#
# Compressibility (1/GPa) = 0.04501688
#
# Stress axis : x y z
#
# Youngs Moduli (GPa) = 38.51370 62.02005 91.62930
#
# Poissons Ratio (x) = 0.25197 -0.02509
# Poissons Ratio (y) = 0.15647 0.01867
# Poissons Ratio (z) = -0.01055 0.01263
#
# Static dielectric constant tensor:
#      x y z
#    x 3.827040 0.000000 0.000000 
#    y 0.000000 3.887100 0.000000 
#    z 0.000000 0.000000 4.066620 
# 
# 
# High freq. dielectric constant tensor:
#      x y z
#    x 1.848600 0.000000 0.000000 
#    y 0.000000 1.851690 0.000000 
#    z 0.000000 0.000000 1.855920 
# 
# From -- ./inp_files/64967.got.cif
#   From: 2010.03.12/outbox.cif.g09.slc.cpg/sg70_33_cif.got.tgz:64967.got - 2010.04.16 13:46:32.
