data_PCOD8286882
_publ_section_title
;
Structure prediction by ZEFSAII (Michael W. Deem and Ramdas Pophale) SiO2 
 PCOD8286882
Probable space group: I M M M
;
_chemical_formula_sum "Si O2"
_cell_formula_units_Z 88
_cell_length_a 25.621529
_cell_length_b 28.171236
_cell_length_c 8.529596
_cell_angle_alpha 90.000000
_cell_angle_beta 90.000000
_cell_angle_gamma 90.000000
_cell_volume 6156.578292
_symmetry_space_group_name_H-M "I M M M"
_symmetry_group_IT_number 71
_symmetry_cell_setting 'orthorhombic'
loop_
_space_group_symop_operation_xyz
x,y,z
-x,-y,z
x,-y,-z
-x,y,-z
-x,-y,-z
x,y,-z
-x,y,z
x,-y,z
1/2+x,1/2+y,1/2+z
1/2-x,1/2-y,1/2+z
1/2+x,1/2-y,1/2-z
1/2-x,1/2+y,1/2-z
1/2-x,1/2-y,1/2-z
1/2+x,1/2+y,1/2-z
1/2-x,1/2+y,1/2+z
1/2+x,1/2-y,1/2+z
loop_
_atom_site_type_symbol
_atom_site_label
_atom_site_fract_x
_atom_site_fract_y
_atom_site_fract_z
Si Si1 0.441438 0.000000 0.813424
Si Si2 0.866892 0.417547 0.684352
Si Si3 0.778190 0.142718 0.183351
Si Si4 0.193686 0.235406 0.314858
Si Si5 0.258082 0.053219 0.319073
Si Si6 0.167873 0.673086 0.816244
O O1 0.411861 0.952839 0.753507
O O2 0.500000 0.000000 0.745057
O O3 0.441506 0.000000 0.000000
O O4 0.871143 0.409095 0.500000
O O5 0.811331 0.441117 0.722594
O O6 0.875196 0.366625 0.771653
O O7 0.818084 0.181489 0.258237
O O8 0.786058 0.090094 0.256769
O O9 0.719194 0.157595 0.221500
O O10 0.788301 0.140880 0.000000
O O11 0.192247 0.237960 0.500000
O O12 0.250000 0.250000 0.250000
O O13 0.152467 0.273705 0.242624
O O14 0.270477 0.064267 0.500000
O O15 0.236239 0.000000 0.295848
O O16 0.179230 0.673801 0.000000
#
# Coordination Sequence:
#
# PCOD8286882 Si02
#       6
#     8  16  16  16  16  16
#     4   9  18  30  43  57  71  87 109 141 179 219
#     4  10  17  27  41  54  66  82 107 136 169 209
#     4  10  17  24  34  48  66  86 109 133 162 196
#     4  10  16  24  35  48  66  85 106 128 157 194
#     4  10  18  26  36  49  67  88 112 141 172 202
#     4  10  17  25  36  50  67  84 103 128 161 198
#
# _framework density 14.293654
#
# number of rings (size 3 to 8) (size 9 to 14) (size 15 to 20)
#    0.000    2.091    0.909   10.364    0.000    1.091 
#    0.000    0.000    0.000    4.364    0.000    0.000 
#    0.000    0.000    0.000    0.000    0.000    0.000 
#
# Total GULP energy -545222.964872 kJ/mol
# GULP energy per Si atom -12391.431020 kJ/mol
# Density = 1.426112 g / cm^3
# Si number density = 14.293654 Si / 1000 Ang^3
#
#
#
# Elastic Constant Matrix: (Units=GPa)
#
#
# Indices 1 2 3 4 5 6 
#
# 1 20.6795 35.0144 8.3025 0.0000 0.0000 0.0000
# 2 35.0144 155.1989 43.0107 0.0000 0.0000 0.0000
# 3 8.3025 43.0107 71.8197 0.0000 0.0000 0.0000
# 4 0.0000 0.0000 0.0000 27.0086 0.0000 0.0000
# 5 0.0000 0.0000 0.0000 0.0000 4.9589 0.0000
# 6 0.0000 0.0000 0.0000 0.0000 0.0000 10.5446
#
#
#
# Elastic Compliance Matrix: (Units=1/GPa)
#
#
# Indices 1 2 3 4 5 6 
#
# 1 0.078449 -0.018207 0.001835 0.000000 0.000000 0.000000
# 2 -0.018207 0.011951 -0.005053 0.000000 0.000000 0.000000
# 3 0.001835 -0.005053 0.016737 0.000000 0.000000 0.000000
# 4 0.000000 0.000000 0.000000 0.037025 0.000000 0.000000
# 5 0.000000 0.000000 0.000000 0.000000 0.201656 0.000000
# 6 0.000000 0.000000 0.000000 0.000000 0.000000 0.094836
#
#
# Mechanical properties :
#
#
# Convention : Reuss Voigt Hill
#
# Bulk Modulus (GPa) = 15.55495 46.70591 31.13043
# Shear Modulus (GPa) = 9.90228 19.26046 14.58137
#
# Velocity S-wave (km/s) = 2.63492 3.67479 3.19741
# Velocity P-wave (km/s) = 4.49033 7.12407 5.95464
#
# Compressibility (1/GPa) = 0.06428820
#
# Stress axis : x y z
#
# Youngs Moduli (GPa) = 12.74710 83.67257 59.74641
#
# Poissons Ratio (x) = 1.52347 -0.10964
# Poissons Ratio (y) = 0.23209 0.30187
# Poissons Ratio (z) = -0.02339 0.42276
#
# Static dielectric constant tensor:
#      x y z
#    x 2.273270 0.000000 0.000000 
#    y 0.000000 4.061980 0.000000 
#    z 0.000000 0.000000 2.842780 
# 
# 
# High freq. dielectric constant tensor:
#      x y z
#    x 1.436510 0.000000 0.000000 
#    y 0.000000 1.574620 0.000000 
#    z 0.000000 0.000000 1.563680 
# 
# From -- ./inp_files/17388.got.cif
#   From: 2010.06.25/outbox.cif.g09.slc.cpg/sg71_9_cif.got.tgz:17388.got - 2010.06.28 04:59:45.
