data_PCOD8286807
_publ_section_title
;
Structure prediction by ZEFSAII (Michael W. Deem and Ramdas Pophale) SiO2 
 PCOD8286807
Probable space group: F D D D
;
_chemical_formula_sum "Si O2"
_cell_formula_units_Z 176
_cell_length_a 22.788385
_cell_length_b 25.868454
_cell_length_c 13.090806
_cell_angle_alpha 90.000000
_cell_angle_beta 90.000000
_cell_angle_gamma 90.000000
_cell_volume 7717.033922
_symmetry_space_group_name_H-M "F D D D"
_symmetry_group_IT_number 70
_space_group.IT_coordinate_system_code '2'
_symmetry_cell_setting 'orthorhombic'
loop_
_space_group_symop_operation_xyz
x,y,z
1/4-x,1/4-y,z
x,1/4-y,1/4-z
1/4-x,y,1/4-z
-x,-y,-z
3/4+x,3/4+y,-z
-x,3/4+y,3/4+z
3/4+x,-y,3/4+z
x,1/2+y,1/2+z
1/4-x,3/4-y,1/2+z
x,3/4-y,3/4-z
1/4-x,1/2+y,3/4-z
-x,1/2-y,1/2-z
3/4+x,1/4+y,1/2-z
-x,1/4+y,1/4+z
3/4+x,1/2-y,1/4+z
1/2+x,y,1/2+z
3/4-x,1/4-y,1/2+z
1/2+x,1/4-y,3/4-z
3/4-x,y,3/4-z
1/2-x,-y,1/2-z
1/4+x,3/4+y,1/2-z
1/2-x,3/4+y,1/4+z
1/4+x,-y,1/4+z
1/2+x,1/2+y,z
3/4-x,3/4-y,z
1/2+x,3/4-y,1/4-z
3/4-x,1/2+y,1/4-z
1/2-x,1/2-y,-z
1/4+x,1/4+y,-z
1/2-x,1/4+y,3/4+z
1/4+x,1/2-y,3/4+z
loop_
_atom_site_type_symbol
_atom_site_label
_atom_site_fract_x
_atom_site_fract_y
_atom_site_fract_z
Si Si1 0.646444 0.567473 0.876983
Si Si2 0.437533 0.152841 0.909455
Si Si3 0.777280 0.625000 0.625000
Si Si4 0.733359 0.807968 0.707326
Si Si5 0.777101 0.261913 0.608362
Si Si6 0.188568 0.713268 0.084870
O O1 0.625000 0.625000 0.848468
O O2 0.696010 0.566227 0.964374
O O3 0.591615 0.533928 0.911687
O O4 0.683259 0.540401 0.786521
O O5 0.375000 0.176148 0.875000
O O6 0.455101 0.112855 0.820366
O O7 0.485927 0.197689 0.917324
O O8 0.433383 0.126527 0.021933
O O9 0.736664 0.674908 0.628338
O O10 0.715143 0.788568 0.820219
O O11 0.707798 0.769873 0.620535
O O12 0.750000 0.250000 0.500000
O O13 0.125000 0.697058 0.125000
#
# Coordination Sequence:
#
# PCOD8286807 Si02
#       6
#    32  32  16  32  32  32
#     4  12  24  48  74 104 147 187 243 300 362 442
#     4  12  28  47  70 109 150 191 236 304 372 432
#     4  12  23  44  76 110 146 187 242 302 374 442
#     4  12  26  45  73 110 140 185 244 298 368 436
#     4  12  29  50  72 103 145 200 248 295 361 442
#     4  12  21  39  76 111 142 175 228 306 376 428
#
# _framework density 22.80669
#
# number of rings (size 3 to 8) (size 9 to 14) (size 15 to 20)
#    0.000    0.000    7.273    2.455    2.545    2.182 
#    0.000    0.909    0.000    0.000    0.000    0.000 
#    0.000    0.000    0.000    0.000    0.000    0.000 
#
# Total GULP energy -545621.871199 kJ/mol
# GULP energy per Si atom -12400.497073 kJ/mol
# Density = 2.275478 g / cm^3
# Si number density = 22.806690 Si / 1000 Ang^3
#
#
#
# Elastic Constant Matrix: (Units=GPa)
#
#
# Indices 1 2 3 4 5 6 
#
# 1 111.5817 -9.6689 26.1571 0.0000 0.0000 0.0000
# 2 -9.6689 35.8437 29.7938 0.0000 0.0000 0.0000
# 3 26.1571 29.7938 115.6319 0.0000 0.0000 0.0000
# 4 0.0000 0.0000 0.0000 29.4784 0.0000 0.0000
# 5 0.0000 0.0000 0.0000 0.0000 40.9566 0.0000
# 6 0.0000 0.0000 0.0000 0.0000 0.0000 38.0832
#
#
#
# Elastic Compliance Matrix: (Units=1/GPa)
#
#
# Indices 1 2 3 4 5 6 
#
# 1 0.010405 0.006061 -0.003916 0.000000 0.000000 0.000000
# 2 0.006061 0.039034 -0.011429 0.000000 0.000000 0.000000
# 3 -0.003916 -0.011429 0.012479 0.000000 0.000000 0.000000
# 4 0.000000 0.000000 0.000000 0.033923 0.000000 0.000000
# 5 0.000000 0.000000 0.000000 0.000000 0.024416 0.000000
# 6 0.000000 0.000000 0.000000 0.000000 0.000000 0.026258
#
#
# Mechanical properties :
#
#
# Convention : Reuss Voigt Hill
#
# Bulk Modulus (GPa) = 23.06699 39.51347 31.29023
# Shear Modulus (GPa) = 27.85037 36.15535 32.00286
#
# Velocity S-wave (km/s) = 3.49829 3.98590 3.75003
# Velocity P-wave (km/s) = 5.14329 6.20856 5.70086
#
# Compressibility (1/GPa) = 0.04335200
#
# Stress axis : x y z
#
# Youngs Moduli (GPa) = 96.10600 25.61896 80.13736
#
# Poissons Ratio (x) = -0.15529 0.31378
# Poissons Ratio (y) = -0.58255 0.91586
# Poissons Ratio (z) = 0.37631 0.29279
#
# Static dielectric constant tensor:
#      x y z
#    x 3.774470 0.000000 0.000000 
#    y 0.000000 4.110930 0.000000 
#    z 0.000000 0.000000 4.017260 
# 
# 
# High freq. dielectric constant tensor:
#      x y z
#    x 1.916670 0.000000 0.000000 
#    y 0.000000 1.894700 0.000000 
#    z 0.000000 0.000000 1.890810 
# 
# From -- ./inp_files/28784.got.cif
#   From: 2010.03.12/outbox.cif.g09.slc.cpg/sg70_15_cif.got.tgz:28784.got - 2010.04.16 13:46:32.
