data_PCOD8286979
_publ_section_title
;
Structure prediction by ZEFSAII (Michael W. Deem and Ramdas Pophale) SiO2 
 PCOD8286979
Probable space group: I M M M
;
_chemical_formula_sum "Si O2"
_cell_formula_units_Z 104
_cell_length_a 8.902724
_cell_length_b 28.492095
_cell_length_c 24.335232
_cell_angle_alpha 90.000000
_cell_angle_beta 90.000000
_cell_angle_gamma 90.000000
_cell_volume 6172.808221
_symmetry_space_group_name_H-M "I M M M"
_symmetry_group_IT_number 71
_symmetry_cell_setting 'orthorhombic'
loop_
_space_group_symop_operation_xyz
x,y,z
-x,-y,z
x,-y,-z
-x,y,-z
-x,-y,-z
x,y,-z
-x,y,z
x,-y,z
1/2+x,1/2+y,1/2+z
1/2-x,1/2-y,1/2+z
1/2+x,1/2-y,1/2-z
1/2-x,1/2+y,1/2-z
1/2-x,1/2-y,1/2-z
1/2+x,1/2+y,1/2-z
1/2-x,1/2+y,1/2+z
1/2+x,1/2-y,1/2+z
loop_
_atom_site_type_symbol
_atom_site_label
_atom_site_fract_x
_atom_site_fract_y
_atom_site_fract_z
Si Si1 0.323108 0.054012 0.262560
Si Si2 0.321508 0.500000 0.061656
Si Si3 0.175017 0.945665 0.850102
Si Si4 0.321405 0.411139 0.130661
Si Si5 0.164266 0.277458 0.565074
Si Si6 0.678209 0.120944 0.936567
Si Si7 0.820226 0.823097 0.561722
O O1 0.500000 0.060690 0.262530
O O2 0.259188 0.071717 0.204576
O O3 0.251050 0.086088 0.309481
O O4 0.276084 0.000000 0.272814
O O5 0.500000 0.500000 0.059058
O O6 0.263015 0.454084 0.093326
O O7 0.254933 0.500000 0.000000
O O8 0.236115 0.917726 0.901958
O O9 0.000000 0.936107 0.842183
O O10 0.209924 0.000000 0.861354
O O11 0.500000 0.412312 0.136354
O O12 0.262977 0.363177 0.102861
O O13 0.144875 0.276943 0.500000
O O14 0.242253 0.327047 0.581225
O O15 0.245501 0.228109 0.581630
O O16 0.000000 0.277666 0.592765
O O17 0.500000 0.118296 0.926358
O O18 0.715538 0.110846 0.000000
O O19 0.764042 0.835013 0.500000
O O20 0.000000 0.820759 0.561622
#
# Coordination Sequence:
#
# PCOD8286979 Si02
#       7
#    16   8  16  16  16  16  16
#     4  10  20  34  50  65  86 120 162 199 234 280
#     4   9  16  24  37  63  97 127 154 189 234 279
#     4  10  21  35  51  71  95 121 151 190 232 273
#     4  10  17  26  44  68  94 123 157 199 238 274
#     4   7  11  22  41  66  95 124 155 189 222 263
#     4   9  17  30  50  75 101 128 154 181 220 271
#     4   8  13  22  40  68  97 124 157 195 233 272
#
# _framework density 16.848084
#
# number of rings (size 3 to 8) (size 9 to 14) (size 15 to 20)
#    0.000    3.000    0.769    3.231    0.000    4.000 
#    0.000    1.538    0.000    4.154    0.000    2.154 
#    0.000    0.000    0.000    0.000    0.000    0.000 
#
# Total GULP energy -644347.153105 kJ/mol
# GULP energy per Si atom -12391.291406 kJ/mol
# Density = 1.680974 g / cm^3
# Si number density = 16.848084 Si / 1000 Ang^3
#
#
#
# Elastic Constant Matrix: (Units=GPa)
#
#
# Indices 1 2 3 4 5 6 
#
# 1 33.2042 31.0151 28.3246 0.0000 0.0000 0.0000
# 2 31.0151 122.2593 68.5768 0.0000 0.0000 0.0000
# 3 28.3246 68.5768 97.3932 0.0000 0.0000 0.0000
# 4 0.0000 0.0000 0.0000 14.3668 0.0000 0.0000
# 5 0.0000 0.0000 0.0000 0.0000 21.6633 0.0000
# 6 0.0000 0.0000 0.0000 0.0000 0.0000 11.7729
#
#
#
# Elastic Compliance Matrix: (Units=1/GPa)
#
#
# Indices 1 2 3 4 5 6 
#
# 1 0.042901 -0.006421 -0.007956 0.000000 0.000000 0.000000
# 2 -0.006421 0.014479 -0.008328 0.000000 0.000000 0.000000
# 3 -0.007956 -0.008328 0.018445 0.000000 0.000000 0.000000
# 4 0.000000 0.000000 0.000000 0.069605 0.000000 0.000000
# 5 0.000000 0.000000 0.000000 0.000000 0.046161 0.000000
# 6 0.000000 0.000000 0.000000 0.000000 0.000000 0.084941
#
#
# Mechanical properties :
#
#
# Convention : Reuss Voigt Hill
#
# Bulk Modulus (GPa) = 32.87684 56.52111 44.69898
# Shear Modulus (GPa) = 15.05663 17.88995 16.47329
#
# Velocity S-wave (km/s) = 2.99267 3.26212 3.13030
# Velocity P-wave (km/s) = 5.61227 6.91440 6.29708
#
# Compressibility (1/GPa) = 0.03041654
#
# Stress axis : x y z
#
# Youngs Moduli (GPa) = 23.30970 69.06347 54.21430
#
# Poissons Ratio (x) = 0.44344 0.43131
# Poissons Ratio (y) = 0.14966 0.45150
# Poissons Ratio (z) = 0.18545 0.57516
#
# Static dielectric constant tensor:
#      x y z
#    x 2.759800 0.000000 0.000000 
#    y 0.000000 3.526560 0.000000 
#    z 0.000000 0.000000 3.018860 
# 
# 
# High freq. dielectric constant tensor:
#      x y z
#    x 1.609940 0.000000 0.000000 
#    y 0.000000 1.655760 0.000000 
#    z 0.000000 0.000000 1.631270 
# 
# From -- ./inp_files/15531.got.cif
#   From: 2010.06.25/outbox.cif.g09.slc.cpg/sg71_8_cif.got.tgz:15531.got - 2010.06.28 04:59:45.
