data_PCOD8286448
_publ_section_title
;
Structure prediction by ZEFSAII (Michael W. Deem and Ramdas Pophale) SiO2 
 PCOD8286448
Probable space group: F D D D
;
_chemical_formula_sum "Si O2"
_cell_formula_units_Z 96
_cell_length_a 11.747771
_cell_length_b 27.336480
_cell_length_c 10.843996
_cell_angle_alpha 90.000000
_cell_angle_beta 90.000000
_cell_angle_gamma 90.000000
_cell_volume 3482.470230
_symmetry_space_group_name_H-M "F D D D"
_symmetry_group_IT_number 70
_space_group.IT_coordinate_system_code '2'
_symmetry_cell_setting 'orthorhombic'
loop_
_space_group_symop_operation_xyz
x,y,z
1/4-x,1/4-y,z
x,1/4-y,1/4-z
1/4-x,y,1/4-z
-x,-y,-z
3/4+x,3/4+y,-z
-x,3/4+y,3/4+z
3/4+x,-y,3/4+z
x,1/2+y,1/2+z
1/4-x,3/4-y,1/2+z
x,3/4-y,3/4-z
1/4-x,1/2+y,3/4-z
-x,1/2-y,1/2-z
3/4+x,1/4+y,1/2-z
-x,1/4+y,1/4+z
3/4+x,1/2-y,1/4+z
1/2+x,y,1/2+z
3/4-x,1/4-y,1/2+z
1/2+x,1/4-y,3/4-z
3/4-x,y,3/4-z
1/2-x,-y,1/2-z
1/4+x,3/4+y,1/2-z
1/2-x,3/4+y,1/4+z
1/4+x,-y,1/4+z
1/2+x,1/2+y,z
3/4-x,3/4-y,z
1/2+x,3/4-y,1/4-z
3/4-x,1/2+y,1/4-z
1/2-x,1/2-y,-z
1/4+x,1/4+y,-z
1/2-x,1/4+y,3/4+z
1/4+x,1/2-y,3/4+z
loop_
_atom_site_type_symbol
_atom_site_label
_atom_site_fract_x
_atom_site_fract_y
_atom_site_fract_z
Si Si1 0.430832 0.125000 0.125000
Si Si2 0.572682 0.569837 0.423526
Si Si3 0.282107 0.194371 0.976411
Si Si4 0.625000 0.493331 0.625000
O O1 0.515459 0.137529 0.240511
O O2 0.344182 0.080446 0.155258
O O3 0.672205 0.586646 0.326598
O O4 0.624061 0.527213 0.506844
O O5 0.477829 0.542960 0.344101
O O6 0.375000 0.192660 0.875000
O O7 0.250000 0.250000 0.000000
#
# Coordination Sequence:
#
# PCOD8286448 Si02
#       4
#    16  32  32  16
#     4  12  30  51  83 126 162 221 271 346 420 490
#     4  11  24  50  77 116 159 206 275 332 410 500
#     4  12  28  54  82 119 165 218 273 342 422 498
#     4  10  22  47  84 104 156 220 254 341 418 476
#
# _framework density 27.566638999999999
#
# number of rings (size 3 to 8) (size 9 to 14) (size 15 to 20)
#    0.000    0.667    0.000    8.000    2.333    6.000 
#   12.000    1.667    0.000    0.000    0.000    0.000 
#    0.000    0.000    0.000    0.000    0.000    0.000 
#
# Total GULP energy -297333.190559 kJ/mol
# GULP energy per Si atom -12388.882940 kJ/mol
# Density = 2.750390 g / cm^3
# Si number density = 27.566639 Si / 1000 Ang^3
#
#
#
# Elastic Constant Matrix: (Units=GPa)
#
#
# Indices 1 2 3 4 5 6 
#
# 1 185.9858 61.9730 51.2804 0.0000 0.0000 0.0000
# 2 61.9730 155.2482 26.8989 0.0000 0.0000 0.0000
# 3 51.2804 26.8989 61.4718 0.0000 0.0000 0.0000
# 4 0.0000 0.0000 0.0000 62.3016 0.0000 0.0000
# 5 0.0000 0.0000 0.0000 0.0000 62.8288 0.0000
# 6 0.0000 0.0000 0.0000 0.0000 0.0000 58.8147
#
#
#
# Elastic Compliance Matrix: (Units=1/GPa)
#
#
# Indices 1 2 3 4 5 6 
#
# 1 0.007558 -0.002082 -0.005394 0.000000 0.000000 0.000000
# 2 -0.002082 0.007544 -0.001564 0.000000 0.000000 0.000000
# 3 -0.005394 -0.001564 0.021451 0.000000 0.000000 0.000000
# 4 0.000000 0.000000 0.000000 0.016051 0.000000 0.000000
# 5 0.000000 0.000000 0.000000 0.000000 0.015916 0.000000
# 6 0.000000 0.000000 0.000000 0.000000 0.000000 0.017003
#
#
# Mechanical properties :
#
#
# Convention : Reuss Voigt Hill
#
# Bulk Modulus (GPa) = 54.13267 75.89005 65.01136
# Shear Modulus (GPa) = 45.55423 54.29260 49.92341
#
# Velocity S-wave (km/s) = 4.06952 4.44272 4.26021
# Velocity P-wave (km/s) = 6.46227 7.34210 6.91619
#
# Compressibility (1/GPa) = 0.01847313
#
# Stress axis : x y z
#
# Youngs Moduli (GPa) = 132.31410 132.56418 46.61746
#
# Poissons Ratio (x) = 0.27606 0.25143
# Poissons Ratio (y) = 0.27554 0.07289
# Poissons Ratio (z) = 0.71364 0.20729
#
# Static dielectric constant tensor:
#      x y z
#    x 5.711050 0.000000 0.000000 
#    y 0.000000 4.996600 0.000000 
#    z 0.000000 0.000000 5.452010 
# 
# 
# High freq. dielectric constant tensor:
#      x y z
#    x 2.143320 0.000000 0.000000 
#    y 0.000000 2.133270 0.000000 
#    z 0.000000 0.000000 2.100820 
# 
# From -- ./inp_files/24416.got.cif
#   From: 2010.03.12/outbox.cif.g09.slc.cpg/sg70_13_cif.got.tgz:24416.got - 2010.04.16 13:46:32.
