data_PCOD8286740
_publ_section_title
;
Structure prediction by ZEFSAII (Michael W. Deem and Ramdas Pophale) SiO2 
 PCOD8286740
Probable space group: F D D D
;
_chemical_formula_sum "Si O2"
_cell_formula_units_Z 176
_cell_length_a 24.322547
_cell_length_b 23.635593
_cell_length_c 13.332288
_cell_angle_alpha 90.000000
_cell_angle_beta 90.000000
_cell_angle_gamma 90.000000
_cell_volume 7664.436683
_symmetry_space_group_name_H-M "F D D D"
_symmetry_group_IT_number 70
_space_group.IT_coordinate_system_code '2'
_symmetry_cell_setting 'orthorhombic'
loop_
_space_group_symop_operation_xyz
x,y,z
1/4-x,1/4-y,z
x,1/4-y,1/4-z
1/4-x,y,1/4-z
-x,-y,-z
3/4+x,3/4+y,-z
-x,3/4+y,3/4+z
3/4+x,-y,3/4+z
x,1/2+y,1/2+z
1/4-x,3/4-y,1/2+z
x,3/4-y,3/4-z
1/4-x,1/2+y,3/4-z
-x,1/2-y,1/2-z
3/4+x,1/4+y,1/2-z
-x,1/4+y,1/4+z
3/4+x,1/2-y,1/4+z
1/2+x,y,1/2+z
3/4-x,1/4-y,1/2+z
1/2+x,1/4-y,3/4-z
3/4-x,y,3/4-z
1/2-x,-y,1/2-z
1/4+x,3/4+y,1/2-z
1/2-x,3/4+y,1/4+z
1/4+x,-y,1/4+z
1/2+x,1/2+y,z
3/4-x,3/4-y,z
1/2+x,3/4-y,1/4-z
3/4-x,1/2+y,1/4-z
1/2-x,1/2-y,-z
1/4+x,1/4+y,-z
1/2-x,1/4+y,3/4+z
1/4+x,1/2-y,3/4+z
loop_
_atom_site_type_symbol
_atom_site_label
_atom_site_fract_x
_atom_site_fract_y
_atom_site_fract_z
Si Si1 0.171379 0.990335 0.423907
Si Si2 0.375000 0.775985 0.875000
Si Si3 0.765415 0.342620 0.281593
Si Si4 0.239629 0.192608 0.556947
Si Si5 0.505293 0.411010 0.159736
Si Si6 0.321838 0.232993 0.717853
O O1 0.138291 0.986305 0.528926
O O2 0.214828 0.940452 0.419453
O O3 0.132134 0.979916 0.328243
O O4 0.200033 0.051422 0.417529
O O5 0.322967 0.814324 0.905090
O O6 0.794555 0.375000 0.375000
O O7 0.742040 0.387018 0.201946
O O8 0.807504 0.299529 0.227718
O O9 0.250000 0.250000 0.500000
O O10 0.253857 0.140237 0.487994
O O11 0.278309 0.196530 0.653215
O O12 0.560698 0.450046 0.176578
#
# Coordination Sequence:
#
# PCOD8286740 Si02
#       6
#    32  16  32  32  32  32
#     4  11  25  43  68 104 139 188 242 286 368 440
#     4  12  20  37  64  96 144 176 226 284 349 426
#     4  11  25  48  68  98 139 189 239 305 356 428
#     4  12  21  40  65 102 144 178 224 296 358 424
#     4  11  24  45  71  99 145 188 228 308 361 424
#     4  11  24  44  66 103 142 181 241 294 352 442
#
# _framework density 22.963200000000001
#
# number of rings (size 3 to 8) (size 9 to 14) (size 15 to 20)
#    0.000    0.727    7.273    0.545    0.000    8.000 
#    0.000    3.636    0.000    0.000    0.000    0.000 
#    0.000    0.000    0.000    0.000    0.000    0.000 
#
# Total GULP energy -545435.578429 kJ/mol
# GULP energy per Si atom -12396.263146 kJ/mol
# Density = 2.291094 g / cm^3
# Si number density = 22.963200 Si / 1000 Ang^3
#
#
#
# Elastic Constant Matrix: (Units=GPa)
#
#
# Indices 1 2 3 4 5 6 
#
# 1 98.0748 30.2928 17.5415 0.0000 0.0000 0.0000
# 2 30.2928 123.6750 53.1563 0.0000 0.0000 0.0000
# 3 17.5415 53.1563 99.0343 0.0000 0.0000 0.0000
# 4 0.0000 0.0000 0.0000 27.0094 0.0000 0.0000
# 5 0.0000 0.0000 0.0000 0.0000 34.1405 0.0000
# 6 0.0000 0.0000 0.0000 0.0000 0.0000 4.4786
#
#
#
# Elastic Compliance Matrix: (Units=1/GPa)
#
#
# Indices 1 2 3 4 5 6 
#
# 1 0.011064 -0.002428 -0.000657 0.000000 0.000000 0.000000
# 2 -0.002428 0.011043 -0.005497 0.000000 0.000000 0.000000
# 3 -0.000657 -0.005497 0.013165 0.000000 0.000000 0.000000
# 4 0.000000 0.000000 0.000000 0.037024 0.000000 0.000000
# 5 0.000000 0.000000 0.000000 0.000000 0.029291 0.000000
# 6 0.000000 0.000000 0.000000 0.000000 0.000000 0.223285
#
#
# Mechanical properties :
#
#
# Convention : Reuss Voigt Hill
#
# Bulk Modulus (GPa) = 55.22438 58.08502 56.65470
# Shear Modulus (GPa) = 14.36489 27.77859 21.07174
#
# Velocity S-wave (km/s) = 2.50384 3.48185 3.03253
# Velocity P-wave (km/s) = 5.69739 6.44314 6.08171
#
# Compressibility (1/GPa) = 0.01810795
#
# Stress axis : x y z
#
# Youngs Moduli (GPa) = 90.38663 90.55392 75.96186
#
# Poissons Ratio (x) = 0.21984 0.04988
# Poissons Ratio (y) = 0.21943 0.41759
# Poissons Ratio (z) = 0.05935 0.49781
#
# Static dielectric constant tensor:
#      x y z
#    x 3.944950 0.000000 0.000000 
#    y 0.000000 3.177820 0.000000 
#    z 0.000000 0.000000 5.701150 
# 
# 
# High freq. dielectric constant tensor:
#      x y z
#    x 1.885730 0.000000 0.000000 
#    y 0.000000 1.916070 0.000000 
#    z 0.000000 0.000000 1.919200 
# 
# From -- ./inp_files/28770.got.cif
#   From: 2010.03.12/outbox.cif.g09.slc.cpg/sg70_15_cif.got.tgz:28770.got - 2010.04.16 13:46:32.
