data_PCOD8286870
_publ_section_title
;
Structure prediction by ZEFSAII (Michael W. Deem and Ramdas Pophale) SiO2 
 PCOD8286870
Probable space group: I M M M
;
_chemical_formula_sum "Si O2"
_cell_formula_units_Z 128
_cell_length_a 21.587672
_cell_length_b 20.755644
_cell_length_c 17.577498
_cell_angle_alpha 90.000000
_cell_angle_beta 90.000000
_cell_angle_gamma 90.000000
_cell_volume 7875.879831
_symmetry_space_group_name_H-M "I M M M"
_symmetry_group_IT_number 71
_symmetry_cell_setting 'orthorhombic'
loop_
_space_group_symop_operation_xyz
x,y,z
-x,-y,z
x,-y,-z
-x,y,-z
-x,-y,-z
x,y,-z
-x,y,z
x,-y,z
1/2+x,1/2+y,1/2+z
1/2-x,1/2-y,1/2+z
1/2+x,1/2-y,1/2-z
1/2-x,1/2+y,1/2-z
1/2-x,1/2-y,1/2-z
1/2+x,1/2+y,1/2-z
1/2-x,1/2+y,1/2+z
1/2+x,1/2-y,1/2+z
loop_
_atom_site_type_symbol
_atom_site_label
_atom_site_fract_x
_atom_site_fract_y
_atom_site_fract_z
Si Si1 0.288298 0.928702 0.649895
Si Si2 0.265683 0.392176 0.698460
Si Si3 0.636919 0.570679 0.586790
Si Si4 0.372277 0.671904 0.202335
Si Si5 0.153208 0.926615 0.412906
Si Si6 0.224809 0.263171 0.333875
Si Si7 0.429925 0.695315 0.649692
Si Si8 0.164093 0.301388 0.088947
O O1 0.275071 0.931459 0.740680
O O2 0.225314 0.913083 0.604142
O O3 0.337333 0.872641 0.628301
O O4 0.313431 0.000000 0.626845
O O5 0.299339 0.435083 0.635022
O O6 0.319149 0.354590 0.742826
O O7 0.222428 0.340144 0.654592
O O8 0.655249 0.584930 0.500000
O O9 0.604267 0.500000 0.594353
O O10 0.592012 0.627566 0.614152
O O11 0.390655 0.617950 0.139982
O O12 0.344300 0.733974 0.157858
O O13 0.428757 0.690762 0.257771
O O14 0.139179 0.910173 0.500000
O O15 0.136422 0.000000 0.393275
O O16 0.250000 0.250000 0.250000
O O17 0.269518 0.230958 0.396223
O O18 0.500000 0.707749 0.623376
O O19 0.389220 0.755983 0.623192
O O20 0.152601 0.309799 0.000000
#
# Coordination Sequence:
#
# PCOD8286870 Si02
#       8
#    16  16  16  16  16  16  16  16
#     4  10  18  28  45  72 102 129 155 187 233 294
#     4   9  15  27  46  64  92 123 154 188 236 290
#     4  10  20  32  46  66  92 123 160 204 246 278
#     4   9  16  28  47  66  91 118 154 197 239 276
#     4   9  16  25  41  70 104 129 149 183 237 296
#     4  10  14  28  47  68  91 118 148 189 240 285
#     4  11  23  37  50  65  87 126 175 210 237 276
#     4  12  21  31  49  73  99 127 158 200 245 289
#
# _framework density 16.252151999999999
#
# number of rings (size 3 to 8) (size 9 to 14) (size 15 to 20)
#    0.000    2.000    7.500    1.125    0.000    5.000 
#    0.000    0.625    0.000    0.750    0.000    1.750 
#    0.000    0.000    0.000    0.000    0.000    0.000 
#
# Total GULP energy -792953.480887 kJ/mol
# GULP energy per Si atom -12389.898139 kJ/mol
# Density = 1.621516 g / cm^3
# Si number density = 16.252152 Si / 1000 Ang^3
#
#
#
# Elastic Constant Matrix: (Units=GPa)
#
#
# Indices 1 2 3 4 5 6 
#
# 1 41.6799 33.5773 35.5600 0.0000 0.0000 0.0000
# 2 33.5773 99.3972 37.4563 0.0000 0.0000 0.0000
# 3 35.5600 37.4563 86.8022 0.0000 0.0000 0.0000
# 4 0.0000 0.0000 0.0000 22.0236 0.0000 0.0000
# 5 0.0000 0.0000 0.0000 0.0000 7.8339 0.0000
# 6 0.0000 0.0000 0.0000 0.0000 0.0000 8.5987
#
#
#
# Elastic Compliance Matrix: (Units=1/GPa)
#
#
# Indices 1 2 3 4 5 6 
#
# 1 0.043256 -0.009475 -0.013632 0.000000 0.000000 0.000000
# 2 -0.009475 0.014090 -0.002198 0.000000 0.000000 0.000000
# 3 -0.013632 -0.002198 0.018053 0.000000 0.000000 0.000000
# 4 0.000000 0.000000 0.000000 0.045406 0.000000 0.000000
# 5 0.000000 0.000000 0.000000 0.000000 0.127650 0.000000
# 6 0.000000 0.000000 0.000000 0.000000 0.000000 0.116297
#
#
# Mechanical properties :
#
#
# Convention : Reuss Voigt Hill
#
# Bulk Modulus (GPa) = 40.34114 49.00739 44.67427
# Shear Modulus (GPa) = 11.80287 15.77695 13.78991
#
# Velocity S-wave (km/s) = 2.69780 3.11908 2.91606
# Velocity P-wave (km/s) = 5.88048 6.57202 6.23584
#
# Compressibility (1/GPa) = 0.02478859
#
# Stress axis : x y z
#
# Youngs Moduli (GPa) = 23.11820 70.97293 55.39095
#
# Poissons Ratio (x) = 0.67249 0.75508
# Poissons Ratio (y) = 0.21905 0.12176
# Poissons Ratio (z) = 0.31514 0.15601
#
# Static dielectric constant tensor:
#      x y z
#    x 2.679130 0.000000 0.000000 
#    y 0.000000 3.446100 0.000000 
#    z 0.000000 0.000000 3.246700 
# 
# 
# High freq. dielectric constant tensor:
#      x y z
#    x 1.550740 0.000000 0.000000 
#    y 0.000000 1.636560 0.000000 
#    z 0.000000 0.000000 1.627280 
# 
# From -- ./inp_files/48458.got.cif
#   From: 2010.06.25/outbox.cif.g09.slc.cpg/sg71_25_cif.got.tgz:48458.got - 2010.06.28 04:59:45.
