data_PCOD8286950
_publ_section_title
;
Structure prediction by ZEFSAII (Michael W. Deem and Ramdas Pophale) SiO2 
 PCOD8286950
Probable space group: I M M M
;
_chemical_formula_sum "Si O2"
_cell_formula_units_Z 80
_cell_length_a 26.796420
_cell_length_b 16.912771
_cell_length_c 9.788921
_cell_angle_alpha 90.000000
_cell_angle_beta 90.000000
_cell_angle_gamma 90.000000
_cell_volume 4436.355786
_symmetry_space_group_name_H-M "I M M M"
_symmetry_group_IT_number 71
_symmetry_cell_setting 'orthorhombic'
loop_
_space_group_symop_operation_xyz
x,y,z
-x,-y,z
x,-y,-z
-x,y,-z
-x,-y,-z
x,y,-z
-x,y,z
x,-y,z
1/2+x,1/2+y,1/2+z
1/2-x,1/2-y,1/2+z
1/2+x,1/2-y,1/2-z
1/2-x,1/2+y,1/2-z
1/2-x,1/2-y,1/2-z
1/2+x,1/2+y,1/2-z
1/2-x,1/2+y,1/2+z
1/2+x,1/2-y,1/2+z
loop_
_atom_site_type_symbol
_atom_site_label
_atom_site_fract_x
_atom_site_fract_y
_atom_site_fract_z
Si Si1 0.557123 0.191282 0.786570
Si Si2 0.771575 0.594803 0.500000
Si Si3 0.113093 0.911664 0.000000
Si Si4 0.058776 0.751631 0.000000
Si Si5 0.696608 0.590712 0.280579
Si Si6 0.555299 0.673305 0.000000
Si Si7 0.115018 0.593554 0.500000
Si Si8 0.341487 0.406436 0.000000
O O1 0.500000 0.161363 0.782801
O O2 0.578980 0.205933 0.634361
O O3 0.560861 0.273547 0.865746
O O4 0.589169 0.124394 0.862198
O O5 0.767036 0.500000 0.500000
O O6 0.743216 0.628365 0.364361
O O7 0.828108 0.624564 0.500000
O O8 0.146244 0.900677 0.133946
O O9 0.071515 0.844353 0.000000
O O10 0.088817 0.000000 0.000000
O O11 0.000000 0.748101 0.000000
O O12 0.709674 0.500000 0.254450
O O13 0.686321 0.631003 0.132822
O O14 0.500000 0.632806 0.000000
O O15 0.599233 0.609763 0.000000
O O16 0.112387 0.500000 0.500000
O O17 0.336782 0.500000 0.000000
#
# Coordination Sequence:
#
# PCOD8286950 Si02
#       8
#    16   8   8   8  16   8   8   8
#     4   9  19  34  51  71  97 130 159 187 241 308
#     4   8  15  30  50  70  91 117 151 195 246 296
#     4   9  16  28  48  71  95 132 178 210 226 254
#     4  10  19  32  49  70 102 138 164 193 239 289
#     4   8  15  27  43  65  94 126 162 201 242 288
#     4   9  17  30  46  66  96 133 170 202 233 280
#     4  10  19  34  59  80  91 113 157 208 247 293
#     4  10  17  25  43  70  97 131 171 207 240 272
#
# _framework density 18.032819
#
# number of rings (size 3 to 8) (size 9 to 14) (size 15 to 20)
#    0.000    3.000    0.000    3.300    0.000    1.200 
#    0.000    1.500    0.000   30.600    0.000    0.000 
#    0.000    0.000    0.000    0.000    0.000    0.000 
#
# Total GULP energy -495672.815973 kJ/mol
# GULP energy per Si atom -12391.820399 kJ/mol
# Density = 1.799178 g / cm^3
# Si number density = 18.032819 Si / 1000 Ang^3
#
#
#
# Elastic Constant Matrix: (Units=GPa)
#
#
# Indices 1 2 3 4 5 6 
#
# 1 92.0967 28.4030 59.3429 0.0000 0.0000 0.0000
# 2 28.4030 45.5800 33.7521 0.0000 0.0000 0.0000
# 3 59.3429 33.7521 177.7093 0.0000 0.0000 0.0000
# 4 0.0000 0.0000 0.0000 15.5511 0.0000 0.0000
# 5 0.0000 0.0000 0.0000 0.0000 2.8614 0.0000
# 6 0.0000 0.0000 0.0000 0.0000 0.0000 13.5389
#
#
#
# Elastic Compliance Matrix: (Units=1/GPa)
#
#
# Indices 1 2 3 4 5 6 
#
# 1 0.015435 -0.006751 -0.003872 0.000000 0.000000 0.000000
# 2 -0.006751 0.028483 -0.003155 0.000000 0.000000 0.000000
# 3 -0.003872 -0.003155 0.007519 0.000000 0.000000 0.000000
# 4 0.000000 0.000000 0.000000 0.064304 0.000000 0.000000
# 5 0.000000 0.000000 0.000000 0.000000 0.349482 0.000000
# 6 0.000000 0.000000 0.000000 0.000000 0.000000 0.073862
#
#
# Mechanical properties :
#
#
# Convention : Reuss Voigt Hill
#
# Bulk Modulus (GPa) = 41.87506 62.04247 51.95876
# Shear Modulus (GPa) = 8.70167 19.31613 14.00890
#
# Velocity S-wave (km/s) = 2.19908 3.27642 2.79024
# Velocity P-wave (km/s) = 5.45160 6.98521 6.26551
#
# Compressibility (1/GPa) = 0.02388056
#
# Stress axis : x y z
#
# Youngs Moduli (GPa) = 64.78688 35.10877 132.98809
#
# Poissons Ratio (x) = 0.23702 0.51494
# Poissons Ratio (y) = 0.43738 0.41962
# Poissons Ratio (z) = 0.25086 0.11078
#
# Static dielectric constant tensor:
#      x y z
#    x 3.312940 0.000000 0.000000 
#    y 0.000000 2.849370 0.000000 
#    z 0.000000 0.000000 3.904960 
# 
# 
# High freq. dielectric constant tensor:
#      x y z
#    x 1.687190 0.000000 0.000000 
#    y 0.000000 1.651840 0.000000 
#    z 0.000000 0.000000 1.715040 
# 
# From -- ./inp_files/14654.got.cif
#   From: 2010.06.25/outbox.cif.g09.slc.cpg/sg71_8_cif.got.tgz:14654.got - 2010.06.28 04:59:45.
