data_PCOD8286973
_publ_section_title
;
Structure prediction by ZEFSAII (Michael W. Deem and Ramdas Pophale) SiO2 
 PCOD8286973
Probable space group: I M M M
;
_chemical_formula_sum "Si O2"
_cell_formula_units_Z 112
_cell_length_a 30.846400
_cell_length_b 17.240595
_cell_length_c 13.594621
_cell_angle_alpha 90.000000
_cell_angle_beta 90.000000
_cell_angle_gamma 90.000000
_cell_volume 7229.759331
_symmetry_space_group_name_H-M "I M M M"
_symmetry_group_IT_number 71
_symmetry_cell_setting 'orthorhombic'
loop_
_space_group_symop_operation_xyz
x,y,z
-x,-y,z
x,-y,-z
-x,y,-z
-x,-y,-z
x,y,-z
-x,y,z
x,-y,z
1/2+x,1/2+y,1/2+z
1/2-x,1/2-y,1/2+z
1/2+x,1/2-y,1/2-z
1/2-x,1/2+y,1/2-z
1/2-x,1/2-y,1/2-z
1/2+x,1/2+y,1/2-z
1/2-x,1/2+y,1/2+z
1/2+x,1/2-y,1/2+z
loop_
_atom_site_type_symbol
_atom_site_label
_atom_site_fract_x
_atom_site_fract_y
_atom_site_fract_z
Si Si1 0.548106 0.086598 0.116728
Si Si2 0.205323 0.823135 0.887094
Si Si3 0.872700 0.311521 0.382773
Si Si4 0.340873 0.659601 0.797950
Si Si5 0.752300 0.663035 0.114839
Si Si6 0.657314 0.500000 0.109322
Si Si7 0.791200 0.587437 0.617134
Si Si8 0.260624 0.000000 0.391260
O O1 0.500000 0.113168 0.150998
O O2 0.583885 0.146364 0.156202
O O3 0.558044 0.000000 0.157088
O O4 0.550516 0.084144 0.000000
O O5 0.163774 0.845158 0.820880
O O6 0.214174 0.732074 0.870928
O O7 0.246886 0.871264 0.848754
O O8 0.194384 0.842543 0.000000
O O9 0.871881 0.300724 0.500000
O O10 0.873226 0.227281 0.331803
O O11 0.832062 0.362737 0.345930
O O12 0.293551 0.683689 0.837915
O O13 0.359097 0.577423 0.835564
O O14 0.773277 0.582428 0.160510
O O15 0.742412 0.647967 0.000000
O O16 0.708715 0.500000 0.105376
O O17 0.637376 0.500000 0.000000
O O18 0.792287 0.584017 0.500000
O O19 0.792903 0.500000 0.660873
O O20 0.281307 0.000000 0.500000
#
# Coordination Sequence:
#
# PCOD8286973 Si02
#       8
#    16  16  16  16  16   8  16   8
#     4   8  14  25  42  65  92 118 137 156 195 254
#     4  10  20  30  39  52  77 109 146 185 221 254
#     4  10  17  26  42  62  84 109 137 173 209 249
#     4  11  19  28  42  57  76 105 143 178 218 252
#     4   9  15  26  39  54  73  97 134 181 219 250
#     4   9  18  30  43  59  76  97 133 181 216 240
#     4   9  17  27  38  53  77 108 141 178 218 253
#     4   7  12  22  38  51  65  90 123 165 211 244
#
# _framework density 15.491524999999999
#
# number of rings (size 3 to 8) (size 9 to 14) (size 15 to 20)
#    0.000    2.714    1.429    3.429    1.000    1.714 
#    0.000    0.000    1.571    0.000    0.000    0.500 
#    0.000    3.429    0.000    1.571    0.000    1.571 
#
# Total GULP energy -694047.304236 kJ/mol
# GULP energy per Si atom -12393.701861 kJ/mol
# Density = 1.545627 g / cm^3
# Si number density = 15.491525 Si / 1000 Ang^3
#
#
#
# Elastic Constant Matrix: (Units=GPa)
#
#
# Indices 1 2 3 4 5 6 
#
# 1 54.5133 45.1518 21.6434 0.0000 0.0000 0.0000
# 2 45.1518 142.6563 33.9739 0.0000 0.0000 0.0000
# 3 21.6434 33.9739 42.1883 0.0000 0.0000 0.0000
# 4 0.0000 0.0000 0.0000 18.0083 0.0000 0.0000
# 5 0.0000 0.0000 0.0000 0.0000 8.4042 0.0000
# 6 0.0000 0.0000 0.0000 0.0000 0.0000 19.4489
#
#
#
# Elastic Compliance Matrix: (Units=1/GPa)
#
#
# Indices 1 2 3 4 5 6 
#
# 1 0.027215 -0.006544 -0.008692 0.000000 0.000000 0.000000
# 2 -0.006544 0.010247 -0.004894 0.000000 0.000000 0.000000
# 3 -0.008692 -0.004894 0.032104 0.000000 0.000000 0.000000
# 4 0.000000 0.000000 0.000000 0.055530 0.000000 0.000000
# 5 0.000000 0.000000 0.000000 0.000000 0.118989 0.000000
# 6 0.000000 0.000000 0.000000 0.000000 0.000000 0.051417
#
#
# Mechanical properties :
#
#
# Convention : Reuss Voigt Hill
#
# Bulk Modulus (GPa) = 34.12397 48.98844 41.55621
# Shear Modulus (GPa) = 14.47050 18.41153 16.44102
#
# Velocity S-wave (km/s) = 3.05961 3.45119 3.26128
# Velocity P-wave (km/s) = 5.87851 6.89727 6.40817
#
# Compressibility (1/GPa) = 0.02930491
#
# Stress axis : x y z
#
# Youngs Moduli (GPa) = 36.74410 97.59304 31.14872
#
# Poissons Ratio (x) = 0.63863 0.27075
# Poissons Ratio (y) = 0.24044 0.15246
# Poissons Ratio (z) = 0.31939 0.47767
#
# Static dielectric constant tensor:
#      x y z
#    x 2.557320 0.000000 0.000000 
#    y 0.000000 3.389580 0.000000 
#    z 0.000000 0.000000 2.874890 
# 
# 
# High freq. dielectric constant tensor:
#      x y z
#    x 1.517340 0.000000 0.000000 
#    y 0.000000 1.617530 0.000000 
#    z 0.000000 0.000000 1.576710 
# 
# From -- ./inp_files/37180.got.cif
#   From: 2010.06.25/outbox.cif.g09.slc.cpg/sg71_19_cif.got.tgz:37180.got - 2010.06.28 04:59:45.
