data_PCOD8286886
_publ_section_title
;
Structure prediction by ZEFSAII (Michael W. Deem and Ramdas Pophale) SiO2 
 PCOD8286886
Probable space group: I M M M
;
_chemical_formula_sum "Si O2"
_cell_formula_units_Z 96
_cell_length_a 31.182156
_cell_length_b 14.293124
_cell_length_c 15.763512
_cell_angle_alpha 90.000000
_cell_angle_beta 90.000000
_cell_angle_gamma 90.000000
_cell_volume 7025.646320
_symmetry_space_group_name_H-M "I M M M"
_symmetry_group_IT_number 71
_symmetry_cell_setting 'orthorhombic'
loop_
_space_group_symop_operation_xyz
x,y,z
-x,-y,z
x,-y,-z
-x,y,-z
-x,-y,-z
x,y,-z
-x,y,z
x,-y,z
1/2+x,1/2+y,1/2+z
1/2-x,1/2-y,1/2+z
1/2+x,1/2-y,1/2-z
1/2-x,1/2+y,1/2-z
1/2-x,1/2-y,1/2-z
1/2+x,1/2+y,1/2-z
1/2-x,1/2+y,1/2+z
1/2+x,1/2-y,1/2+z
loop_
_atom_site_type_symbol
_atom_site_label
_atom_site_fract_x
_atom_site_fract_y
_atom_site_fract_z
Si Si1 0.711755 0.892423 0.758426
Si Si2 0.693565 0.239737 0.907275
Si Si3 0.290927 0.214363 0.406762
Si Si4 0.046581 0.889575 0.595127
Si Si5 0.134971 0.107389 0.336632
Si Si6 0.806486 0.895617 0.181335
O O1 0.687783 0.838079 0.834380
O O2 0.693795 0.854210 0.668527
O O3 0.763183 0.877656 0.763901
O O4 0.698762 0.000000 0.766027
O O5 0.740057 0.285211 0.903736
O O6 0.660733 0.324869 0.898421
O O7 0.686232 0.192855 0.000000
O O8 0.306944 0.180284 0.500000
O O9 0.309245 0.319471 0.393001
O O10 0.056465 0.851983 0.500000
O O11 0.084977 0.860793 0.659064
O O12 0.000000 0.849819 0.626217
O O13 0.043418 0.000000 0.591914
O O14 0.152257 0.117344 0.241043
O O15 0.140626 0.000000 0.368110
O O16 0.805423 0.000000 0.141530
#
# Coordination Sequence:
#
# PCOD8286886 Si02
#       6
#    16  16  16  16  16  16
#     4  10  18  30  40  50  76 105 133 170 203 229
#     4  10  18  27  40  57  76 101 135 166 195 230
#     4  10  18  28  40  54  75 102 133 168 204 234
#     4   8  14  23  33  50  79 108 128 149 184 230
#     4  10  16  24  40  58  78 104 133 163 192 223
#     4   9  16  27  41  55  75 102 131 164 198 231
#
# _framework density 13.664223
#
# number of rings (size 3 to 8) (size 9 to 14) (size 15 to 20)
#    0.000    2.500    3.333    2.000    0.000    2.000 
#    0.000    5.000    0.000    0.000    0.000    0.000 
#    0.000    1.333    0.000   10.000    0.000    2.500 
#
# Total GULP energy -594763.711494 kJ/mol
# GULP energy per Si atom -12390.910656 kJ/mol
# Density = 1.363312 g / cm^3
# Si number density = 13.664223 Si / 1000 Ang^3
#
#
#
# Elastic Constant Matrix: (Units=GPa)
#
#
# Indices 1 2 3 4 5 6 
#
# 1 75.5958 25.5819 23.2242 0.0000 0.0000 0.0000
# 2 25.5819 64.5893 43.2622 0.0000 0.0000 0.0000
# 3 23.2242 43.2622 97.5830 0.0000 0.0000 0.0000
# 4 0.0000 0.0000 0.0000 11.7634 0.0000 0.0000
# 5 0.0000 0.0000 0.0000 0.0000 11.1034 0.0000
# 6 0.0000 0.0000 0.0000 0.0000 0.0000 9.4707
#
#
#
# Elastic Compliance Matrix: (Units=1/GPa)
#
#
# Indices 1 2 3 4 5 6 
#
# 1 0.015403 -0.005185 -0.001367 0.000000 0.000000 0.000000
# 2 -0.005185 0.023767 -0.009303 0.000000 0.000000 0.000000
# 3 -0.001367 -0.009303 0.014697 0.000000 0.000000 0.000000
# 4 0.000000 0.000000 0.000000 0.085009 0.000000 0.000000
# 5 0.000000 0.000000 0.000000 0.000000 0.090063 0.000000
# 6 0.000000 0.000000 0.000000 0.000000 0.000000 0.105589
#
#
# Mechanical properties :
#
#
# Convention : Reuss Voigt Hill
#
# Bulk Modulus (GPa) = 45.13140 46.87830 46.00485
# Shear Modulus (GPa) = 13.38245 16.18082 14.78163
#
# Velocity S-wave (km/s) = 3.13290 3.44492 3.29261
# Velocity P-wave (km/s) = 6.79613 7.08555 6.94235
#
# Compressibility (1/GPa) = 0.02215752
#
# Stress axis : x y z
#
# Youngs Moduli (GPa) = 64.92302 42.07492 68.03935
#
# Poissons Ratio (x) = 0.21815 0.09302
# Poissons Ratio (y) = 0.33662 0.63296
# Poissons Ratio (z) = 0.08876 0.39142
#
# Static dielectric constant tensor:
#      x y z
#    x 2.697740 0.000000 0.000000 
#    y 0.000000 2.630450 0.000000 
#    z 0.000000 0.000000 2.763590 
# 
# 
# High freq. dielectric constant tensor:
#      x y z
#    x 1.477580 0.000000 0.000000 
#    y 0.000000 1.505500 0.000000 
#    z 0.000000 0.000000 1.513970 
# 
# From -- ./inp_files/35237.got.cif
#   From: 2010.06.25/outbox.cif.g09.slc.cpg/sg71_18_cif.got.tgz:35237.got - 2010.06.28 04:59:45.
