data_PCOD8286618
_publ_section_title
;
Structure prediction by ZEFSAII (Michael W. Deem and Ramdas Pophale) SiO2 
 PCOD8286618
Probable space group: F D D D
;
_chemical_formula_sum "Si O2"
_cell_formula_units_Z 168
_cell_length_a 19.006750
_cell_length_b 16.003625
_cell_length_c 22.897823
_cell_angle_alpha 90.000000
_cell_angle_beta 90.000000
_cell_angle_gamma 90.000000
_cell_volume 6964.988805
_symmetry_space_group_name_H-M "F D D D"
_symmetry_group_IT_number 70
_space_group.IT_coordinate_system_code '2'
_symmetry_cell_setting 'orthorhombic'
loop_
_space_group_symop_operation_xyz
x,y,z
1/4-x,1/4-y,z
x,1/4-y,1/4-z
1/4-x,y,1/4-z
-x,-y,-z
3/4+x,3/4+y,-z
-x,3/4+y,3/4+z
3/4+x,-y,3/4+z
x,1/2+y,1/2+z
1/4-x,3/4-y,1/2+z
x,3/4-y,3/4-z
1/4-x,1/2+y,3/4-z
-x,1/2-y,1/2-z
3/4+x,1/4+y,1/2-z
-x,1/4+y,1/4+z
3/4+x,1/2-y,1/4+z
1/2+x,y,1/2+z
3/4-x,1/4-y,1/2+z
1/2+x,1/4-y,3/4-z
3/4-x,y,3/4-z
1/2-x,-y,1/2-z
1/4+x,3/4+y,1/2-z
1/2-x,3/4+y,1/4+z
1/4+x,-y,1/4+z
1/2+x,1/2+y,z
3/4-x,3/4-y,z
1/2+x,3/4-y,1/4-z
3/4-x,1/2+y,1/4-z
1/2-x,1/2-y,-z
1/4+x,1/4+y,-z
1/2-x,1/4+y,3/4+z
1/4+x,1/2-y,3/4+z
loop_
_atom_site_type_symbol
_atom_site_label
_atom_site_fract_x
_atom_site_fract_y
_atom_site_fract_z
Si Si1 0.889763 0.282654 0.943353
Si Si2 0.285541 0.016082 0.312319
Si Si3 0.784553 0.545240 0.587362
Si Si4 0.046014 0.625156 0.348176
Si Si5 0.662250 0.881040 0.520903
Si Si6 0.625000 0.625000 0.125000
O O1 0.875000 0.266137 0.875000
O O2 0.875000 0.375000 0.964898
O O3 0.846992 0.218845 0.984101
O O4 0.971575 0.265503 0.954387
O O5 0.321327 0.930810 0.336211
O O6 0.250000 0.000000 0.250000
O O7 0.223382 0.055992 0.352262
O O8 0.349930 0.082219 0.310635
O O9 0.759107 0.625000 0.625000
O O10 0.801510 0.468976 0.628091
O O11 0.845589 0.575439 0.542794
O O12 0.125000 0.625000 0.322587
O O13 0.989633 0.607321 0.297815
#
# Coordination Sequence:
#
# PCOD8286618 Si02
#       6
#    32  32  32  32  32   8
#     4  11  20  43  73  97 140 196 243 302 379 455
#     4  12  27  51  85 115 159 207 271 341 404 487
#     4  12  26  44  72 109 149 194 259 313 384 471
#     4  12  26  50  73 112 158 199 261 329 396 476
#     4  12  25  48  78 110 151 209 257 327 403 474
#     4  12  28  52  92 124 154 220 282 328 438 484
#
# _framework density 24.120640999999999
#
# number of rings (size 3 to 8) (size 9 to 14) (size 15 to 20)
#    0.000    0.190    7.619    1.143    4.000    5.333 
#    6.857    0.000    0.000    0.000    0.000    0.000 
#    0.000    0.000    0.000    0.000    0.000    0.000 
#
# Total GULP energy -520361.369770 kJ/mol
# GULP energy per Si atom -12389.556423 kJ/mol
# Density = 2.406574 g / cm^3
# Si number density = 24.120641 Si / 1000 Ang^3
#
#
#
# Elastic Constant Matrix: (Units=GPa)
#
#
# Indices 1 2 3 4 5 6 
#
# 1 129.8165 34.1975 22.6227 0.0000 0.0000 0.0000
# 2 34.1975 148.3450 46.5260 0.0000 0.0000 0.0000
# 3 22.6227 46.5260 94.1151 0.0000 0.0000 0.0000
# 4 0.0000 0.0000 0.0000 -49.8093 0.0000 0.0000
# 5 0.0000 0.0000 0.0000 0.0000 50.2087 0.0000
# 6 0.0000 0.0000 0.0000 0.0000 0.0000 24.3716
#
#
#
# Elastic Compliance Matrix: (Units=1/GPa)
#
#
# Indices 1 2 3 4 5 6 
#
# 1 0.008323 -0.001528 -0.001245 0.000000 0.000000 0.000000
# 2 -0.001528 0.008259 -0.003715 0.000000 0.000000 0.000000
# 3 -0.001245 -0.003715 0.012761 0.000000 0.000000 0.000000
# 4 0.000000 0.000000 0.000000 -0.020077 0.000000 0.000000
# 5 0.000000 0.000000 0.000000 0.000000 0.019917 0.000000
# 6 0.000000 0.000000 0.000000 0.000000 0.000000 0.041031
#
#
# Mechanical properties :
#
#
# Convention : Reuss Voigt Hill
#
# Bulk Modulus (GPa) = 61.10442 64.32989 62.71715
# Shear Modulus (GPa) = 56.40382 22.88288 39.64335
#
# Velocity S-wave (km/s) = 4.84095 3.08341 4.05846
# Velocity P-wave (km/s) = 7.52557 6.27730 6.92960
#
# Compressibility (1/GPa) = 0.01636543
#
# Stress axis : x y z
#
# Youngs Moduli (GPa) = 120.15319 121.08648 78.36219
#
# Poissons Ratio (x) = 0.18503 0.09757
# Poissons Ratio (y) = 0.18361 0.29114
# Poissons Ratio (z) = 0.14961 0.44988
#
# Static dielectric constant tensor:
#      x y z
#    x 4.191520 0.000000 0.000000 
#    y 0.000000 4.404250 0.000000 
#    z 0.000000 0.000000 4.248790 
# 
# 
# High freq. dielectric constant tensor:
#      x y z
#    x 1.965270 0.000000 0.000000 
#    y 0.000000 1.968710 0.000000 
#    z 0.000000 0.000000 1.953680 
# 
# From -- ./inp_files/60301.got.cif
#   From: 2010.03.12/outbox.cif.g09.slc.cpg/sg70_31_cif.got.tgz:60301.got - 2010.04.16 13:46:32.
