data_PCOD8286669
_publ_section_title
;
Structure prediction by ZEFSAII (Michael W. Deem and Ramdas Pophale) SiO2 
 PCOD8286669
Probable space group: F D D D
;
_chemical_formula_sum "Si O2"
_cell_formula_units_Z 136
_cell_length_a 23.338553
_cell_length_b 12.249034
_cell_length_c 22.588949
_cell_angle_alpha 90.000000
_cell_angle_beta 90.000000
_cell_angle_gamma 90.000000
_cell_volume 6457.609678
_symmetry_space_group_name_H-M "F D D D"
_symmetry_group_IT_number 70
_space_group.IT_coordinate_system_code '2'
_symmetry_cell_setting 'orthorhombic'
loop_
_space_group_symop_operation_xyz
x,y,z
1/4-x,1/4-y,z
x,1/4-y,1/4-z
1/4-x,y,1/4-z
-x,-y,-z
3/4+x,3/4+y,-z
-x,3/4+y,3/4+z
3/4+x,-y,3/4+z
x,1/2+y,1/2+z
1/4-x,3/4-y,1/2+z
x,3/4-y,3/4-z
1/4-x,1/2+y,3/4-z
-x,1/2-y,1/2-z
3/4+x,1/4+y,1/2-z
-x,1/4+y,1/4+z
3/4+x,1/2-y,1/4+z
1/2+x,y,1/2+z
3/4-x,1/4-y,1/2+z
1/2+x,1/4-y,3/4-z
3/4-x,y,3/4-z
1/2-x,-y,1/2-z
1/4+x,3/4+y,1/2-z
1/2-x,3/4+y,1/4+z
1/4+x,-y,1/4+z
1/2+x,1/2+y,z
3/4-x,3/4-y,z
1/2+x,3/4-y,1/4-z
3/4-x,1/2+y,1/4-z
1/2-x,1/2-y,-z
1/4+x,1/4+y,-z
1/2-x,1/4+y,3/4+z
1/4+x,1/2-y,3/4+z
loop_
_atom_site_type_symbol
_atom_site_label
_atom_site_fract_x
_atom_site_fract_y
_atom_site_fract_z
Si Si1 0.719227 0.279235 0.584494
Si Si2 0.375000 0.875000 0.375000
Si Si3 0.309080 0.657052 0.059512
Si Si4 0.767585 0.393220 0.049729
Si Si5 0.936933 0.125013 0.035460
O O1 0.665074 0.198269 0.583464
O O2 0.723357 0.349801 0.644756
O O3 0.708257 0.363130 0.531723
O O4 0.776987 0.208043 0.576204
O O5 0.288188 0.625000 0.125000
O O6 0.308716 0.788397 0.054396
O O7 0.370174 0.601518 0.045900
O O8 0.266074 0.606695 0.011850
O O9 0.806000 0.500049 0.053495
#
# Coordination Sequence:
#
# PCOD8286669 Si02
#       5
#    32   8  32  32  32
#     4  11  23  39  65  94 129 164 212 264 326 388
#     4  12  20  40  64  88 134 164 204 272 312 396
#     4  11  24  40  65  90 125 170 215 262 318 384
#     4  11  22  43  62  90 129 167 211 263 318 385
#     4  11  23  40  63  96 125 165 210 264 324 381
#
# _framework density 21.060424000000001
#
# number of rings (size 3 to 8) (size 9 to 14) (size 15 to 20)
#    0.000    0.941    2.353    4.941    0.000    0.000 
#    0.000    0.000    0.000    4.235    0.000    0.000 
#    0.000    0.000    0.000    0.000    0.000    0.000 
#
# Total GULP energy -421671.930568 kJ/mol
# GULP energy per Si atom -12402.115605 kJ/mol
# Density = 2.101249 g / cm^3
# Si number density = 21.060424 Si / 1000 Ang^3
#
#
#
# Elastic Constant Matrix: (Units=GPa)
#
#
# Indices 1 2 3 4 5 6 
#
# 1 105.4116 20.4999 35.0708 0.0000 0.0000 0.0000
# 2 20.4999 62.8123 31.7816 0.0000 0.0000 0.0000
# 3 35.0708 31.7816 156.2188 0.0000 0.0000 0.0000
# 4 0.0000 0.0000 0.0000 24.1574 0.0000 0.0000
# 5 0.0000 0.0000 0.0000 0.0000 14.5550 0.0000
# 6 0.0000 0.0000 0.0000 0.0000 0.0000 7.1818
#
#
#
# Elastic Compliance Matrix: (Units=1/GPa)
#
#
# Indices 1 2 3 4 5 6 
#
# 1 0.010597 -0.002513 -0.001868 0.000000 0.000000 0.000000
# 2 -0.002513 0.018343 -0.003168 0.000000 0.000000 0.000000
# 3 -0.001868 -0.003168 0.007465 0.000000 0.000000 0.000000
# 4 0.000000 0.000000 0.000000 0.041395 0.000000 0.000000
# 5 0.000000 0.000000 0.000000 0.000000 0.068705 0.000000
# 6 0.000000 0.000000 0.000000 0.000000 0.000000 0.139240
#
#
# Mechanical properties :
#
#
# Convention : Reuss Voigt Hill
#
# Bulk Modulus (GPa) = 46.93091 55.46083 51.19587
# Shear Modulus (GPa) = 16.23664 24.98487 20.61076
#
# Velocity S-wave (km/s) = 2.77962 3.44807 3.13173
# Velocity P-wave (km/s) = 5.71262 6.49950 6.11872
#
# Compressibility (1/GPa) = 0.02130792
#
# Stress axis : x y z
#
# Youngs Moduli (GPa) = 94.36823 54.51523 133.95891
#
# Poissons Ratio (x) = 0.13702 0.25018
# Poissons Ratio (y) = 0.23719 0.42433
# Poissons Ratio (z) = 0.17624 0.17268
#
# Static dielectric constant tensor:
#      x y z
#    x 3.614430 0.000000 0.000000 
#    y 0.000000 3.774010 0.000000 
#    z 0.000000 0.000000 3.967620 
# 
# 
# High freq. dielectric constant tensor:
#      x y z
#    x 1.816810 0.000000 0.000000 
#    y 0.000000 1.824850 0.000000 
#    z 0.000000 0.000000 1.844160 
# 
# From -- ./inp_files/18949.got.cif
#   From: 2010.03.12/outbox.cif.g09.slc.cpg/sg70_10_cif.got.tgz:18949.got - 2010.04.16 13:46:32.
