data_PCOD8286240
_publ_section_title
;
Structure prediction by ZEFSAII (Michael W. Deem and Ramdas Pophale) SiO2 
 PCOD8286240
Probable space group: F D D D
;
_chemical_formula_sum "Si O2"
_cell_formula_units_Z 176
_cell_length_a 22.772519
_cell_length_b 25.845632
_cell_length_c 13.188225
_cell_angle_alpha 90.000000
_cell_angle_beta 90.000000
_cell_angle_gamma 90.000000
_cell_volume 7762.195511
_symmetry_space_group_name_H-M "F D D D"
_symmetry_group_IT_number 70
_space_group.IT_coordinate_system_code '2'
_symmetry_cell_setting 'orthorhombic'
loop_
_space_group_symop_operation_xyz
x,y,z
1/4-x,1/4-y,z
x,1/4-y,1/4-z
1/4-x,y,1/4-z
-x,-y,-z
3/4+x,3/4+y,-z
-x,3/4+y,3/4+z
3/4+x,-y,3/4+z
x,1/2+y,1/2+z
1/4-x,3/4-y,1/2+z
x,3/4-y,3/4-z
1/4-x,1/2+y,3/4-z
-x,1/2-y,1/2-z
3/4+x,1/4+y,1/2-z
-x,1/4+y,1/4+z
3/4+x,1/2-y,1/4+z
1/2+x,y,1/2+z
3/4-x,1/4-y,1/2+z
1/2+x,1/4-y,3/4-z
3/4-x,y,3/4-z
1/2-x,-y,1/2-z
1/4+x,3/4+y,1/2-z
1/2-x,3/4+y,1/4+z
1/4+x,-y,1/4+z
1/2+x,1/2+y,z
3/4-x,3/4-y,z
1/2+x,3/4-y,1/4-z
3/4-x,1/2+y,1/4-z
1/2-x,1/2-y,-z
1/4+x,1/4+y,-z
1/2-x,1/4+y,3/4+z
1/4+x,1/2-y,3/4+z
loop_
_atom_site_type_symbol
_atom_site_label
_atom_site_fract_x
_atom_site_fract_y
_atom_site_fract_z
Si Si1 0.640370 0.564873 0.855835
Si Si2 0.438108 0.153071 0.910515
Si Si3 0.778093 0.625000 0.625000
Si Si4 0.734813 0.808388 0.707783
Si Si5 0.773010 0.258284 0.611319
Si Si6 0.206135 0.721937 0.074780
O O1 0.625000 0.625000 0.863381
O O2 0.698002 0.552634 0.921563
O O3 0.588856 0.529503 0.899455
O O4 0.650039 0.549306 0.737574
O O5 0.375000 0.173459 0.875000
O O6 0.461331 0.114388 0.823378
O O7 0.482334 0.200752 0.920151
O O8 0.433514 0.125252 0.021114
O O9 0.737129 0.674576 0.629921
O O10 0.730480 0.796631 0.828289
O O11 0.691196 0.764860 0.659326
O O12 0.750000 0.250000 0.500000
O O13 0.250000 0.750000 0.000000
#
# Coordination Sequence:
#
# PCOD8286240 Si02
#       6
#    32  32  16  32  32  32
#     4  11  23  48  73 104 145 182 247 302 358 440
#     4  12  28  45  70 108 150 191 236 303 368 435
#     4  12  20  46  73 106 140 185 240 298 370 432
#     4  11  25  47  70 107 142 183 243 300 368 430
#     4  12  29  48  72 103 142 202 246 291 368 440
#     4  10  21  38  73 102 138 175 228 303 369 417
#
# _framework density 22.673998000000001
#
# number of rings (size 3 to 8) (size 9 to 14) (size 15 to 20)
#    0.000    0.727    7.273    0.000    5.091    2.182 
#    0.000    0.909    0.000    0.000    0.000    0.000 
#    0.000    0.000    0.000    0.000    0.000    0.000 
#
# Total GULP energy -545561.580719 kJ/mol
# GULP energy per Si atom -12399.126835 kJ/mol
# Density = 2.262239 g / cm^3
# Si number density = 22.673998 Si / 1000 Ang^3
#
#
#
# Elastic Constant Matrix: (Units=GPa)
#
#
# Indices 1 2 3 4 5 6 
#
# 1 109.4510 13.9122 20.5205 0.0000 0.0000 0.0000
# 2 13.9122 84.6126 22.9569 0.0000 0.0000 0.0000
# 3 20.5205 22.9569 137.6966 0.0000 0.0000 0.0000
# 4 0.0000 0.0000 0.0000 33.0851 0.0000 0.0000
# 5 0.0000 0.0000 0.0000 0.0000 29.1617 0.0000
# 6 0.0000 0.0000 0.0000 0.0000 0.0000 32.7319
#
#
#
# Elastic Compliance Matrix: (Units=1/GPa)
#
#
# Indices 1 2 3 4 5 6 
#
# 1 0.009521 -0.001236 -0.001213 0.000000 0.000000 0.000000
# 2 -0.001236 0.012539 -0.001906 0.000000 0.000000 0.000000
# 3 -0.001213 -0.001906 0.007761 0.000000 0.000000 0.000000
# 4 0.000000 0.000000 0.000000 0.030225 0.000000 0.000000
# 5 0.000000 0.000000 0.000000 0.000000 0.034292 0.000000
# 6 0.000000 0.000000 0.000000 0.000000 0.000000 0.030551
#
#
# Mechanical properties :
#
#
# Convention : Reuss Voigt Hill
#
# Bulk Modulus (GPa) = 47.37066 49.61548 48.49307
# Shear Modulus (GPa) = 35.55264 37.28711 36.41988
#
# Velocity S-wave (km/s) = 3.96408 4.05963 4.01214
# Velocity P-wave (km/s) = 6.47220 6.62599 6.54954
#
# Compressibility (1/GPa) = 0.02111011
#
# Stress axis : x y z
#
# Youngs Moduli (GPa) = 105.03047 79.75074 128.85124
#
# Poissons Ratio (x) = 0.09861 0.15626
# Poissons Ratio (y) = 0.12986 0.24562
# Poissons Ratio (z) = 0.12738 0.15203
#
# Static dielectric constant tensor:
#      x y z
#    x 3.617360 0.000000 0.000000 
#    y 0.000000 4.128630 0.000000 
#    z 0.000000 0.000000 4.508930 
# 
# 
# High freq. dielectric constant tensor:
#      x y z
#    x 1.890400 0.000000 0.000000 
#    y 0.000000 1.898580 0.000000 
#    z 0.000000 0.000000 1.897030 
# 
# From -- ./inp_files/28785.got.cif
#   From: 2010.03.12/outbox.cif.g09.slc.cpg/sg70_15_cif.got.tgz:28785.got - 2010.04.16 13:46:32.
