data_PCOD8286315
_publ_section_title
;
Structure prediction by ZEFSAII (Michael W. Deem and Ramdas Pophale) SiO2 
 PCOD8286315
Probable space group: F D D D
;
_chemical_formula_sum "Si O2"
_cell_formula_units_Z 192
_cell_length_a 11.264289
_cell_length_b 23.934568
_cell_length_c 31.638456
_cell_angle_alpha 90.000000
_cell_angle_beta 90.000000
_cell_angle_gamma 90.000000
_cell_volume 8529.914121
_symmetry_space_group_name_H-M "F D D D"
_symmetry_group_IT_number 70
_space_group.IT_coordinate_system_code '2'
_symmetry_cell_setting 'orthorhombic'
loop_
_space_group_symop_operation_xyz
x,y,z
1/4-x,1/4-y,z
x,1/4-y,1/4-z
1/4-x,y,1/4-z
-x,-y,-z
3/4+x,3/4+y,-z
-x,3/4+y,3/4+z
3/4+x,-y,3/4+z
x,1/2+y,1/2+z
1/4-x,3/4-y,1/2+z
x,3/4-y,3/4-z
1/4-x,1/2+y,3/4-z
-x,1/2-y,1/2-z
3/4+x,1/4+y,1/2-z
-x,1/4+y,1/4+z
3/4+x,1/2-y,1/4+z
1/2+x,y,1/2+z
3/4-x,1/4-y,1/2+z
1/2+x,1/4-y,3/4-z
3/4-x,y,3/4-z
1/2-x,-y,1/2-z
1/4+x,3/4+y,1/2-z
1/2-x,3/4+y,1/4+z
1/4+x,-y,1/4+z
1/2+x,1/2+y,z
3/4-x,3/4-y,z
1/2+x,3/4-y,1/4-z
3/4-x,1/2+y,1/4-z
1/2-x,1/2-y,-z
1/4+x,1/4+y,-z
1/2-x,1/4+y,3/4+z
1/4+x,1/2-y,3/4+z
loop_
_atom_site_type_symbol
_atom_site_label
_atom_site_fract_x
_atom_site_fract_y
_atom_site_fract_z
Si Si1 0.375000 0.875000 0.875000
Si Si2 0.206924 0.922977 0.939787
Si Si3 0.974977 0.036059 0.780732
Si Si4 0.222337 0.228066 0.937395
Si Si5 0.625000 0.625000 0.264658
Si Si6 0.251625 0.598026 0.886625
Si Si7 0.125000 0.625000 0.625000
Si Si8 0.213165 0.830592 0.304164
O O1 0.305370 0.920809 0.903531
O O2 0.162980 0.858829 0.937771
O O3 0.097714 0.964534 0.929692
O O4 0.260759 0.940156 0.985066
O O5 0.838185 0.013187 0.782436
O O6 0.996984 0.085727 0.813644
O O7 0.058551 0.983707 0.791924
O O8 0.139050 0.180234 0.957099
O O9 0.264330 0.208255 0.891154
O O10 0.739191 0.633885 0.235634
O O11 0.125000 0.625000 0.874607
O O12 0.375000 0.632765 0.875000
O O13 0.203458 0.584577 0.595495
#
# Coordination Sequence:
#
# PCOD8286315 Si02
#       8
#     8  32  32  32  16  32   8  32
#     4  12  34  52  66  94 140 216 240 300 354 474
#     4  12  26  49  68  93 144 186 246 291 367 437
#     4  11  24  41  72 107 136 182 235 310 359 431
#     4  11  21  42  70 106 141 177 228 306 368 433
#     4  11  18  37  69 108 134 172 225 275 382 423
#     4  10  24  42  68 105 146 184 240 303 375 438
#     4  10  22  32  60 106 148 160 218 284 344 428
#     4  11  23  38  68 102 135 179 227 291 360 421
#
# _framework density 22.50902
#
# number of rings (size 3 to 8) (size 9 to 14) (size 15 to 20)
#    0.000    1.000    4.167    3.000    9.333    0.000 
#    1.500    0.833    0.000    0.000    0.000    0.000 
#    0.000    0.000    0.000    0.000    0.000    0.000 
#
# Total GULP energy -595059.165043 kJ/mol
# GULP energy per Si atom -12397.065938 kJ/mol
# Density = 2.245779 g / cm^3
# Si number density = 22.509020 Si / 1000 Ang^3
#
#
#
# Elastic Constant Matrix: (Units=GPa)
#
#
# Indices 1 2 3 4 5 6 
#
# 1 109.0088 44.2631 38.8269 0.0000 0.0000 0.0000
# 2 44.2631 91.9374 36.1724 0.0000 0.0000 0.0000
# 3 38.8269 36.1724 151.1423 0.0000 0.0000 0.0000
# 4 0.0000 0.0000 0.0000 21.2727 0.0000 0.0000
# 5 0.0000 0.0000 0.0000 0.0000 32.6704 0.0000
# 6 0.0000 0.0000 0.0000 0.0000 0.0000 29.0859
#
#
#
# Elastic Compliance Matrix: (Units=1/GPa)
#
#
# Indices 1 2 3 4 5 6 
#
# 1 0.011855 -0.004978 -0.001854 0.000000 0.000000 0.000000
# 2 -0.004978 0.014098 -0.002095 0.000000 0.000000 0.000000
# 3 -0.001854 -0.002095 0.007594 0.000000 0.000000 0.000000
# 4 0.000000 0.000000 0.000000 0.047009 0.000000 0.000000
# 5 0.000000 0.000000 0.000000 0.000000 0.030609 0.000000
# 6 0.000000 0.000000 0.000000 0.000000 0.000000 0.034381
#
#
# Mechanical properties :
#
#
# Convention : Reuss Voigt Hill
#
# Bulk Modulus (GPa) = 63.72513 65.62369 64.67441
# Shear Modulus (GPa) = 29.65044 32.12756 30.88900
#
# Velocity S-wave (km/s) = 3.63336 3.78209 3.70847
# Velocity P-wave (km/s) = 6.78042 6.94910 6.86528
#
# Compressibility (1/GPa) = 0.01569240
#
# Stress axis : x y z
#
# Youngs Moduli (GPa) = 84.34975 70.93166 131.68268
#
# Poissons Ratio (x) = 0.35312 0.24415
# Poissons Ratio (y) = 0.41992 0.27590
# Poissons Ratio (z) = 0.15639 0.14861
#
# Static dielectric constant tensor:
#      x y z
#    x 3.880030 0.000000 0.000000 
#    y 0.000000 3.732440 0.000000 
#    z 0.000000 0.000000 4.305940 
# 
# 
# High freq. dielectric constant tensor:
#      x y z
#    x 1.861900 0.000000 0.000000 
#    y 0.000000 1.866210 0.000000 
#    z 0.000000 0.000000 1.912280 
# 
# From -- ./inp_files/65011.got.cif
#   From: 2010.03.12/outbox.cif.g09.slc.cpg/sg70_33_cif.got.tgz:65011.got - 2010.04.16 13:46:32.
