data_PCOD8286297
_publ_section_title
;
Structure prediction by ZEFSAII (Michael W. Deem and Ramdas Pophale) SiO2 
 PCOD8286297
Probable space group: F D D D
;
_chemical_formula_sum "Si O2"
_cell_formula_units_Z 160
_cell_length_a 20.333091
_cell_length_b 18.185833
_cell_length_c 18.711643
_cell_angle_alpha 90.000000
_cell_angle_beta 90.000000
_cell_angle_gamma 90.000000
_cell_volume 6919.082770
_symmetry_space_group_name_H-M "F D D D"
_symmetry_group_IT_number 70
_space_group.IT_coordinate_system_code '2'
_symmetry_cell_setting 'orthorhombic'
loop_
_space_group_symop_operation_xyz
x,y,z
1/4-x,1/4-y,z
x,1/4-y,1/4-z
1/4-x,y,1/4-z
-x,-y,-z
3/4+x,3/4+y,-z
-x,3/4+y,3/4+z
3/4+x,-y,3/4+z
x,1/2+y,1/2+z
1/4-x,3/4-y,1/2+z
x,3/4-y,3/4-z
1/4-x,1/2+y,3/4-z
-x,1/2-y,1/2-z
3/4+x,1/4+y,1/2-z
-x,1/4+y,1/4+z
3/4+x,1/2-y,1/4+z
1/2+x,y,1/2+z
3/4-x,1/4-y,1/2+z
1/2+x,1/4-y,3/4-z
3/4-x,y,3/4-z
1/2-x,-y,1/2-z
1/4+x,3/4+y,1/2-z
1/2-x,3/4+y,1/4+z
1/4+x,-y,1/4+z
1/2+x,1/2+y,z
3/4-x,3/4-y,z
1/2+x,3/4-y,1/4-z
3/4-x,1/2+y,1/4-z
1/2-x,1/2-y,-z
1/4+x,1/4+y,-z
1/2-x,1/4+y,3/4+z
1/4+x,1/2-y,3/4+z
loop_
_atom_site_type_symbol
_atom_site_label
_atom_site_fract_x
_atom_site_fract_y
_atom_site_fract_z
Si Si1 0.186140 0.572503 0.976170
Si Si2 0.690651 0.339213 0.799398
Si Si3 0.604333 0.817885 0.547740
Si Si4 0.734201 0.443942 0.163466
Si Si5 0.607734 0.039307 0.507025
O O1 0.125000 0.625000 0.956653
O O2 0.243210 0.565992 0.917466
O O3 0.229301 0.594864 0.046123
O O4 0.154349 0.494347 0.989407
O O5 0.667720 0.375000 0.875000
O O6 0.663208 0.384203 0.732708
O O7 0.666417 0.254766 0.784014
O O8 0.625000 0.786253 0.625000
O O9 0.538136 0.865734 0.554457
O O10 0.672018 0.501469 0.170124
O O11 0.797903 0.472416 0.203347
O O12 0.625000 0.125000 0.520458
#
# Coordination Sequence:
#
# PCOD8286297 Si02
#       5
#    32  32  32  32  32
#     4  12  27  43  70 100 138 192 245 285 357 429
#     4  11  25  45  68 104 146 185 238 294 356 424
#     4  11  24  45  72  98 143 183 230 301 358 422
#     4  10  22  45  69 106 145 182 232 296 367 432
#     4  10  21  42  76 107 141 186 236 294 369 439
#
# _framework density 23.124452000000002
#
# number of rings (size 3 to 8) (size 9 to 14) (size 15 to 20)
#    0.000    1.200    2.000    3.000    2.800    2.400 
#    0.000   10.000    0.000    0.000    0.000    0.000 
#    0.000    0.000    0.000    0.000    0.000    0.000 
#
# Total GULP energy -495570.461904 kJ/mol
# GULP energy per Si atom -12389.261548 kJ/mol
# Density = 2.307182 g / cm^3
# Si number density = 23.124452 Si / 1000 Ang^3
#
#
#
# Elastic Constant Matrix: (Units=GPa)
#
#
# Indices 1 2 3 4 5 6 
#
# 1 110.1093 46.3008 41.8929 0.0000 0.0000 0.0000
# 2 46.3008 157.5566 51.0599 0.0000 0.0000 0.0000
# 3 41.8929 51.0599 82.6283 0.0000 0.0000 0.0000
# 4 0.0000 0.0000 0.0000 20.8710 0.0000 0.0000
# 5 0.0000 0.0000 0.0000 0.0000 38.2207 0.0000
# 6 0.0000 0.0000 0.0000 0.0000 0.0000 35.3540
#
#
#
# Elastic Compliance Matrix: (Units=1/GPa)
#
#
# Indices 1 2 3 4 5 6 
#
# 1 0.011687 -0.001893 -0.004756 0.000000 0.000000 0.000000
# 2 -0.001893 0.008243 -0.004134 0.000000 0.000000 0.000000
# 3 -0.004756 -0.004134 0.017068 0.000000 0.000000 0.000000
# 4 0.000000 0.000000 0.000000 0.047913 0.000000 0.000000
# 5 0.000000 0.000000 0.000000 0.000000 0.026164 0.000000
# 6 0.000000 0.000000 0.000000 0.000000 0.000000 0.028285
#
#
# Mechanical properties :
#
#
# Convention : Reuss Voigt Hill
#
# Bulk Modulus (GPa) = 64.79673 69.86684 67.33178
# Shear Modulus (GPa) = 30.10769 32.95852 31.53310
#
# Velocity S-wave (km/s) = 3.61222 3.77937 3.69674
# Velocity P-wave (km/s) = 6.74383 7.02309 6.88487
#
# Compressibility (1/GPa) = 0.01543288
#
# Stress axis : x y z
#
# Youngs Moduli (GPa) = 85.56238 121.31540 58.58943
#
# Poissons Ratio (x) = 0.22970 0.27862
# Poissons Ratio (y) = 0.16200 0.24219
# Poissons Ratio (z) = 0.40690 0.50149
#
# Static dielectric constant tensor:
#      x y z
#    x 4.375310 0.000000 0.000000 
#    y 0.000000 4.108850 0.000000 
#    z 0.000000 0.000000 4.201270 
# 
# 
# High freq. dielectric constant tensor:
#      x y z
#    x 1.929610 0.000000 0.000000 
#    y 0.000000 1.906340 0.000000 
#    z 0.000000 0.000000 1.913310 
# 
# From -- ./inp_files/44707.got.cif
#   From: 2010.03.12/outbox.cif.g09.slc.cpg/sg70_23_cif.got.tgz:44707.got - 2010.04.16 13:46:32.
