data_PCOD8286027
_publ_section_title
;
Structure prediction by ZEFSAII (Michael W. Deem and Ramdas Pophale) SiO2 
 PCOD8286027
Probable space group: F D D D
;
_chemical_formula_sum "Si O2"
_cell_formula_units_Z 168
_cell_length_a 24.108562
_cell_length_b 22.753567
_cell_length_c 14.627815
_cell_angle_alpha 90.000000
_cell_angle_beta 90.000000
_cell_angle_gamma 90.000000
_cell_volume 8024.172478
_symmetry_space_group_name_H-M "F D D D"
_symmetry_group_IT_number 70
_space_group.IT_coordinate_system_code '2'
_symmetry_cell_setting 'orthorhombic'
loop_
_space_group_symop_operation_xyz
x,y,z
1/4-x,1/4-y,z
x,1/4-y,1/4-z
1/4-x,y,1/4-z
-x,-y,-z
3/4+x,3/4+y,-z
-x,3/4+y,3/4+z
3/4+x,-y,3/4+z
x,1/2+y,1/2+z
1/4-x,3/4-y,1/2+z
x,3/4-y,3/4-z
1/4-x,1/2+y,3/4-z
-x,1/2-y,1/2-z
3/4+x,1/4+y,1/2-z
-x,1/4+y,1/4+z
3/4+x,1/2-y,1/4+z
1/2+x,y,1/2+z
3/4-x,1/4-y,1/2+z
1/2+x,1/4-y,3/4-z
3/4-x,y,3/4-z
1/2-x,-y,1/2-z
1/4+x,3/4+y,1/2-z
1/2-x,3/4+y,1/4+z
1/4+x,-y,1/4+z
1/2+x,1/2+y,z
3/4-x,3/4-y,z
1/2+x,3/4-y,1/4-z
3/4-x,1/2+y,1/4-z
1/2-x,1/2-y,-z
1/4+x,1/4+y,-z
1/2-x,1/4+y,3/4+z
1/4+x,1/2-y,3/4+z
loop_
_atom_site_type_symbol
_atom_site_label
_atom_site_fract_x
_atom_site_fract_y
_atom_site_fract_z
Si Si1 0.982514 0.625000 0.625000
Si Si2 0.782923 0.637038 0.925016
Si Si3 0.594269 0.215187 0.985452
Si Si4 0.875000 0.875000 0.375000
Si Si5 0.025538 0.505757 0.670993
Si Si6 0.665467 0.672119 0.314255
Si Si7 0.625000 0.943369 0.125000
O O1 0.947732 0.623854 0.530818
O O2 0.020833 0.567032 0.616465
O O3 0.795698 0.704473 0.896650
O O4 0.719931 0.615921 0.908785
O O5 0.820803 0.596474 0.862494
O O6 0.533836 0.236626 0.958181
O O7 0.633174 0.194742 0.902953
O O8 0.585412 0.163640 0.059774
O O9 0.625919 0.268651 0.033134
O O10 0.068904 0.520786 0.752894
O O11 0.625000 0.625000 0.263402
#
# Coordination Sequence:
#
# PCOD8286027 Si02
#       7
#    16  32  32   8  32  32  16
#     4  10  22  42  69  91 132 180 218 284 332 398
#     4  11  23  45  67  98 134 180 224 283 344 413
#     4  11  21  42  69  97 138 176 225 287 335 417
#     4  10  20  36  68  98 128 188 214 278 356 400
#     4  11  23  44  68  98 133 177 230 281 344 404
#     4  11  22  43  70  98 136 180 227 278 342 410
#     4  11  24  43  66  99 140 171 230 280 352 405
#
# _framework density 20.936737999999998
#
# number of rings (size 3 to 8) (size 9 to 14) (size 15 to 20)
#    0.000    1.143    6.667    0.571    0.000    2.286 
#   10.286    4.286    0.000    0.000    0.000    0.000 
#    0.000    0.000    0.000    0.000    0.000    0.000 
#
# Total GULP energy -520441.567832 kJ/mol
# GULP energy per Si atom -12391.465901 kJ/mol
# Density = 2.088909 g / cm^3
# Si number density = 20.936738 Si / 1000 Ang^3
#
#
#
# Elastic Constant Matrix: (Units=GPa)
#
#
# Indices 1 2 3 4 5 6 
#
# 1 113.7479 47.1036 42.2069 0.0000 0.0000 0.0000
# 2 47.1036 164.0834 62.1021 0.0000 0.0000 0.0000
# 3 42.2069 62.1021 111.0663 0.0000 0.0000 0.0000
# 4 0.0000 0.0000 0.0000 39.7158 0.0000 0.0000
# 5 0.0000 0.0000 0.0000 0.0000 21.2623 0.0000
# 6 0.0000 0.0000 0.0000 0.0000 0.0000 34.5161
#
#
#
# Elastic Compliance Matrix: (Units=1/GPa)
#
#
# Indices 1 2 3 4 5 6 
#
# 1 0.010702 -0.001945 -0.002980 0.000000 0.000000 0.000000
# 2 -0.001945 0.008084 -0.003781 0.000000 0.000000 0.000000
# 3 -0.002980 -0.003781 0.012250 0.000000 0.000000 0.000000
# 4 0.000000 0.000000 0.000000 0.025179 0.000000 0.000000
# 5 0.000000 0.000000 0.000000 0.000000 0.047032 0.000000
# 6 0.000000 0.000000 0.000000 0.000000 0.000000 0.028972
#
#
# Mechanical properties :
#
#
# Convention : Reuss Voigt Hill
#
# Bulk Modulus (GPa) = 73.39179 76.85808 75.12493
# Shear Modulus (GPa) = 32.43152 34.93117 33.68135
#
# Velocity S-wave (km/s) = 3.94003 4.08906 4.01524
# Velocity P-wave (km/s) = 7.47186 7.68656 7.57997
#
# Compressibility (1/GPa) = 0.01362550
#
# Stress axis : x y z
#
# Youngs Moduli (GPa) = 93.43816 123.70557 81.63196
#
# Poissons Ratio (x) = 0.24055 0.24324
# Poissons Ratio (y) = 0.18169 0.30865
# Poissons Ratio (z) = 0.27842 0.46773
#
# Static dielectric constant tensor:
#      x y z
#    x 3.641810 0.000000 0.000000 
#    y 0.000000 4.340220 0.000000 
#    z 0.000000 0.000000 3.918820 
# 
# 
# High freq. dielectric constant tensor:
#      x y z
#    x 1.799370 0.000000 0.000000 
#    y 0.000000 1.847710 0.000000 
#    z 0.000000 0.000000 1.818100 
# 
# From -- ./inp_files/28813.got.cif
#   From: 2010.03.12/outbox.cif.g09.slc.cpg/sg70_15_cif.got.tgz:28813.got - 2010.04.16 13:46:32.
