data_PCOD8286913
_publ_section_title
;
Structure prediction by ZEFSAII (Michael W. Deem and Ramdas Pophale) SiO2 
 PCOD8286913
Probable space group: I M M M
;
_chemical_formula_sum "Si O2"
_cell_formula_units_Z 72
_cell_length_a 21.992040
_cell_length_b 10.538896
_cell_length_c 20.105964
_cell_angle_alpha 90.000000
_cell_angle_beta 90.000000
_cell_angle_gamma 90.000000
_cell_volume 4659.995917
_symmetry_space_group_name_H-M "I M M M"
_symmetry_group_IT_number 71
_symmetry_cell_setting 'orthorhombic'
loop_
_space_group_symop_operation_xyz
x,y,z
-x,-y,z
x,-y,-z
-x,y,-z
-x,-y,-z
x,y,-z
-x,y,z
x,-y,z
1/2+x,1/2+y,1/2+z
1/2-x,1/2-y,1/2+z
1/2+x,1/2-y,1/2-z
1/2-x,1/2+y,1/2-z
1/2-x,1/2-y,1/2-z
1/2+x,1/2+y,1/2-z
1/2-x,1/2+y,1/2+z
1/2+x,1/2-y,1/2+z
loop_
_atom_site_type_symbol
_atom_site_label
_atom_site_fract_x
_atom_site_fract_y
_atom_site_fract_z
Si Si1 0.500000 0.146978 0.421150
Si Si2 0.678722 0.756218 0.233657
Si Si3 0.796234 0.500000 0.925018
Si Si4 0.128028 0.263298 0.877456
Si Si5 0.202960 0.000000 0.691454
Si Si6 0.210581 0.500000 0.680264
Si Si7 0.315530 0.500000 0.577534
O O1 0.500000 0.159945 0.500000
O O2 0.442729 0.219504 0.390901
O O3 0.500000 0.000000 0.399371
O O4 0.750000 0.750000 0.250000
O O5 0.638871 0.775104 0.299039
O O6 0.660552 0.625228 0.196509
O O7 0.668156 0.874405 0.183314
O O8 0.835905 0.626079 0.915066
O O9 0.738345 0.500000 0.877640
O O10 0.771625 0.500000 0.000000
O O11 0.147167 0.125006 0.903000
O O12 0.249007 0.000000 0.753204
O O13 0.250942 0.500000 0.614434
O O14 0.301336 0.500000 0.500000
#
# Coordination Sequence:
#
# PCOD8286913 Si02
#       7
#     8  16   8  16   8   8   8
#     4  11  24  37  47  63  93 131 168 201 229 263
#     4  10  16  29  51  68  84 115 159 194 241 278
#     4  12  20  29  49  72  94 126 165 196 231 281
#     4  12  21  35  49  66  92 128 170 202 228 270
#     4  10  16  30  46  68  92 115 155 190 243 288
#     4  10  16  30  46  68  90 113 153 188 243 286
#     4  12  22  31  47  70  96 124 157 196 241 287
#
# _framework density 15.450657
#
# number of rings (size 3 to 8) (size 9 to 14) (size 15 to 20)
#    0.000    1.000   10.000    2.000    0.000    0.444 
#    0.000    1.111    0.000    0.000    0.000    0.000 
#    0.000    0.000    0.000    6.000    0.000    0.000 
#
# Total GULP energy -446258.340598 kJ/mol
# GULP energy per Si atom -12396.065017 kJ/mol
# Density = 1.541549 g / cm^3
# Si number density = 15.450657 Si / 1000 Ang^3
#
#
#
# Elastic Constant Matrix: (Units=GPa)
#
#
# Indices 1 2 3 4 5 6 
#
# 1 50.0881 32.8043 53.1557 0.0000 0.0000 0.0000
# 2 32.8043 166.2981 44.0259 0.0000 0.0000 0.0000
# 3 53.1557 44.0259 97.7622 0.0000 0.0000 0.0000
# 4 0.0000 0.0000 0.0000 14.7134 0.0000 0.0000
# 5 0.0000 0.0000 0.0000 0.0000 19.9625 0.0000
# 6 0.0000 0.0000 0.0000 0.0000 0.0000 10.4955
#
#
#
# Elastic Compliance Matrix: (Units=1/GPa)
#
#
# Indices 1 2 3 4 5 6 
#
# 1 0.048428 -0.002931 -0.025011 0.000000 0.000000 0.000000
# 2 -0.002931 0.007005 -0.001561 0.000000 0.000000 0.000000
# 3 -0.025011 -0.001561 0.024531 0.000000 0.000000 0.000000
# 4 0.000000 0.000000 0.000000 0.067965 0.000000 0.000000
# 5 0.000000 0.000000 0.000000 0.000000 0.050094 0.000000
# 6 0.000000 0.000000 0.000000 0.000000 0.000000 0.095279
#
#
# Mechanical properties :
#
#
# Convention : Reuss Voigt Hill
#
# Bulk Modulus (GPa) = 47.71705 63.79111 55.75408
# Shear Modulus (GPa) = 13.91618 21.31177 17.61398
#
# Velocity S-wave (km/s) = 3.00440 3.71798 3.38007
# Velocity P-wave (km/s) = 6.55635 7.73355 7.16915
#
# Compressibility (1/GPa) = 0.02095687
#
# Stress axis : x y z
#
# Youngs Moduli (GPa) = 20.64935 142.76108 40.76500
#
# Poissons Ratio (x) = 0.41850 1.01958
# Poissons Ratio (y) = 0.06053 0.06362
# Poissons Ratio (z) = 0.51646 0.22279
#
# Static dielectric constant tensor:
#      x y z
#    x 2.535140 0.000000 0.000000 
#    y 0.000000 12.087310 0.000000 
#    z 0.000000 0.000000 2.904650 
# 
# 
# High freq. dielectric constant tensor:
#      x y z
#    x 1.530600 0.000000 0.000000 
#    y 0.000000 1.632360 0.000000 
#    z 0.000000 0.000000 1.579850 
# 
# From -- ./inp_files/47021.got.cif
#   From: 2010.06.25/outbox.cif.g09.slc.cpg/sg71_24_cif.got.tgz:47021.got - 2010.06.28 04:59:45.
