data_PCOD8286412
_publ_section_title
;
Structure prediction by ZEFSAII (Michael W. Deem and Ramdas Pophale) SiO2 
 PCOD8286412
Probable space group: F D D D
;
_chemical_formula_sum "Si O2"
_cell_formula_units_Z 200
_cell_length_a 25.095310
_cell_length_b 18.914597
_cell_length_c 18.888177
_cell_angle_alpha 90.000000
_cell_angle_beta 90.000000
_cell_angle_gamma 90.000000
_cell_volume 8965.607066
_symmetry_space_group_name_H-M "F D D D"
_symmetry_group_IT_number 70
_space_group.IT_coordinate_system_code '2'
_symmetry_cell_setting 'orthorhombic'
loop_
_space_group_symop_operation_xyz
x,y,z
1/4-x,1/4-y,z
x,1/4-y,1/4-z
1/4-x,y,1/4-z
-x,-y,-z
3/4+x,3/4+y,-z
-x,3/4+y,3/4+z
3/4+x,-y,3/4+z
x,1/2+y,1/2+z
1/4-x,3/4-y,1/2+z
x,3/4-y,3/4-z
1/4-x,1/2+y,3/4-z
-x,1/2-y,1/2-z
3/4+x,1/4+y,1/2-z
-x,1/4+y,1/4+z
3/4+x,1/2-y,1/4+z
1/2+x,y,1/2+z
3/4-x,1/4-y,1/2+z
1/2+x,1/4-y,3/4-z
3/4-x,y,3/4-z
1/2-x,-y,1/2-z
1/4+x,3/4+y,1/2-z
1/2-x,3/4+y,1/4+z
1/4+x,-y,1/4+z
1/2+x,1/2+y,z
3/4-x,3/4-y,z
1/2+x,3/4-y,1/4-z
3/4-x,1/2+y,1/4-z
1/2-x,1/2-y,-z
1/4+x,1/4+y,-z
1/2-x,1/4+y,3/4+z
1/4+x,1/2-y,3/4+z
loop_
_atom_site_type_symbol
_atom_site_label
_atom_site_fract_x
_atom_site_fract_y
_atom_site_fract_z
Si Si1 0.921474 0.511874 0.819402
Si Si2 0.212117 0.293147 0.354664
Si Si3 0.526432 0.983136 0.393225
Si Si4 0.772383 0.644976 0.974723
Si Si5 0.375000 0.875000 0.375000
Si Si6 0.126042 0.542298 0.924440
Si Si7 0.550950 0.041681 0.727182
O O1 0.875000 0.503828 0.875000
O O2 0.930145 0.595246 0.803454
O O3 0.900810 0.471512 0.750769
O O4 0.975321 0.476355 0.850862
O O5 0.204589 0.375000 0.375000
O O6 0.181609 0.245477 0.413701
O O7 0.185403 0.276452 0.276323
O O8 0.530973 0.913958 0.442246
O O9 0.504536 0.969987 0.314523
O O10 0.482221 0.035155 0.427703
O O11 0.585640 0.013182 0.387428
O O12 0.715483 0.603997 0.968050
O O13 0.404932 0.931152 0.326340
O O14 0.125000 0.625000 0.912920
#
# Coordination Sequence:
#
# PCOD8286412 Si02
#       7
#    32  32  32  32   8  32  32
#     4  11  27  49  75 101 146 193 253 312 370 441
#     4  11  28  48  74 109 149 194 256 310 368 456
#     4  11  22  43  74 101 149 188 232 304 383 452
#     4  10  22  43  68 109 140 186 235 295 370 460
#     4  12  24  40  72 116 152 196 232 312 386 464
#     4  12  27  46  75 104 144 198 246 308 376 440
#     4  11  23  44  70 106 150 185 242 300 373 452
#
# _framework density 22.307468
#
# number of rings (size 3 to 8) (size 9 to 14) (size 15 to 20)
#    0.000    0.960    4.800    1.920    7.840    1.920 
#    1.440    0.000    0.000    0.000    0.000    0.000 
#    0.000    0.000    0.000    0.000    0.000    0.000 
#
# Total GULP energy -619666.516970 kJ/mol
# GULP energy per Si atom -12393.330339 kJ/mol
# Density = 2.225670 g / cm^3
# Si number density = 22.307468 Si / 1000 Ang^3
#
#
#
# Elastic Constant Matrix: (Units=GPa)
#
#
# Indices 1 2 3 4 5 6 
#
# 1 128.0201 53.7077 52.6712 0.0000 0.0000 0.0000
# 2 53.7077 152.6343 54.7075 0.0000 0.0000 0.0000
# 3 52.6712 54.7075 93.6954 0.0000 0.0000 0.0000
# 4 0.0000 0.0000 0.0000 42.0656 0.0000 0.0000
# 5 0.0000 0.0000 0.0000 0.0000 23.3111 0.0000
# 6 0.0000 0.0000 0.0000 0.0000 0.0000 27.9030
#
#
#
# Elastic Compliance Matrix: (Units=1/GPa)
#
#
# Indices 1 2 3 4 5 6 
#
# 1 0.010633 -0.002022 -0.004797 0.000000 0.000000 0.000000
# 2 -0.002022 0.008670 -0.003926 0.000000 0.000000 0.000000
# 3 -0.004797 -0.003926 0.015661 0.000000 0.000000 0.000000
# 4 0.000000 0.000000 0.000000 0.023772 0.000000 0.000000
# 5 0.000000 0.000000 0.000000 0.000000 0.042898 0.000000
# 6 0.000000 0.000000 0.000000 0.000000 0.000000 0.035838
#
#
# Mechanical properties :
#
#
# Convention : Reuss Voigt Hill
#
# Bulk Modulus (GPa) = 74.20752 77.39139 75.79945
# Shear Modulus (GPa) = 30.58952 32.87350 31.73151
#
# Velocity S-wave (km/s) = 3.70708 3.84299 3.77564
# Velocity P-wave (km/s) = 7.18758 7.37968 7.28426
#
# Compressibility (1/GPa) = 0.01347572
#
# Stress axis : x y z
#
# Youngs Moduli (GPa) = 94.04537 115.33749 63.85102
#
# Poissons Ratio (x) = 0.23324 0.30627
# Poissons Ratio (y) = 0.19019 0.25065
# Poissons Ratio (z) = 0.45111 0.45277
#
# Static dielectric constant tensor:
#      x y z
#    x 4.070680 0.000000 0.000000 
#    y 0.000000 4.149070 0.000000 
#    z 0.000000 0.000000 4.103120 
# 
# 
# High freq. dielectric constant tensor:
#      x y z
#    x 1.873920 0.000000 0.000000 
#    y 0.000000 1.887220 0.000000 
#    z 0.000000 0.000000 1.884520 
# 
# From -- ./inp_files/46949.got.cif
#   From: 2010.03.12/outbox.cif.g09.slc.cpg/sg70_24_cif.got.tgz:46949.got - 2010.04.16 13:46:32.
