data_PCOD8286872
_publ_section_title
;
Structure prediction by ZEFSAII (Michael W. Deem and Ramdas Pophale) SiO2 
 PCOD8286872
Probable space group: I M M M
;
_chemical_formula_sum "Si O2"
_cell_formula_units_Z 112
_cell_length_a 17.756477
_cell_length_b 23.340847
_cell_length_c 18.378731
_cell_angle_alpha 90.000000
_cell_angle_beta 90.000000
_cell_angle_gamma 90.000000
_cell_volume 7617.087355
_symmetry_space_group_name_H-M "I M M M"
_symmetry_group_IT_number 71
_symmetry_cell_setting 'orthorhombic'
loop_
_space_group_symop_operation_xyz
x,y,z
-x,-y,z
x,-y,-z
-x,y,-z
-x,-y,-z
x,y,-z
-x,y,z
x,-y,z
1/2+x,1/2+y,1/2+z
1/2-x,1/2-y,1/2+z
1/2+x,1/2-y,1/2-z
1/2-x,1/2+y,1/2-z
1/2-x,1/2-y,1/2-z
1/2+x,1/2+y,1/2-z
1/2-x,1/2+y,1/2+z
1/2+x,1/2-y,1/2+z
loop_
_atom_site_type_symbol
_atom_site_label
_atom_site_fract_x
_atom_site_fract_y
_atom_site_fract_z
Si Si1 0.826175 0.841585 0.203510
Si Si2 0.268259 0.192172 0.917399
Si Si3 0.645734 0.635951 0.916534
Si Si4 0.083529 0.738779 0.380170
Si Si5 0.416281 0.233289 0.707822
Si Si6 0.769211 0.689650 0.840308
Si Si7 0.912945 0.934056 0.711025
O O1 0.772748 0.855411 0.133490
O O2 0.891997 0.796894 0.181849
O O3 0.776374 0.809525 0.264620
O O4 0.861907 0.900657 0.230699
O O5 0.359554 0.191521 0.914005
O O6 0.242261 0.252340 0.884621
O O7 0.240990 0.183733 0.000000
O O8 0.607602 0.697398 0.903203
O O9 0.733795 0.638866 0.890138
O O10 0.601369 0.588517 0.870539
O O11 0.641631 0.617434 0.000000
O O12 0.084265 0.732410 0.294271
O O13 0.000000 0.726837 0.411101
O O14 0.500000 0.219956 0.677821
O O15 0.358642 0.184726 0.676403
O O16 0.000000 0.925044 0.731002
O O17 0.889336 0.000000 0.714853
#
# Coordination Sequence:
#
# PCOD8286872 Si02
#       7
#    16  16  16  16  16  16  16
#     4  10  16  29  43  57  82 115 149 178 206 250
#     4  10  17  25  39  60  85 114 142 172 207 248
#     4  10  19  28  42  61  87 120 145 165 201 253
#     4  10  16  23  37  62  92 119 142 165 196 242
#     4  10  15  22  40  61  82 112 146 178 201 232
#     4   9  15  27  40  57  83 117 148 172 199 242
#     4  10  20  32  47  64  81 106 142 183 219 246
#
# _framework density 14.703783
#
# number of rings (size 3 to 8) (size 9 to 14) (size 15 to 20)
#    0.000    2.143    5.714    3.429    0.000    2.286 
#    0.000    0.714    0.000   15.000    0.000    1.000 
#    0.000   14.286    0.000    6.429    0.000    0.000 
#
# Total GULP energy -693842.414123 kJ/mol
# GULP energy per Si atom -12390.043109 kJ/mol
# Density = 1.467032 g / cm^3
# Si number density = 14.703783 Si / 1000 Ang^3
#
#
#
# Elastic Constant Matrix: (Units=GPa)
#
#
# Indices 1 2 3 4 5 6 
#
# 1 114.8658 33.5839 43.5379 0.0000 0.0000 0.0000
# 2 33.5839 51.5106 29.4791 0.0001 0.0000 0.0000
# 3 43.5379 29.4791 95.5044 0.0000 0.0000 0.0000
# 4 0.0000 0.0001 0.0000 1.6006 0.0000 0.0000
# 5 0.0000 0.0000 0.0000 0.0000 15.3447 0.0000
# 6 0.0000 0.0000 0.0000 0.0000 0.0000 17.6894
#
#
#
# Elastic Compliance Matrix: (Units=1/GPa)
#
#
# Indices 1 2 3 4 5 6 
#
# 1 0.011703 -0.005559 -0.003619 0.000001 0.000000 0.000000
# 2 -0.005559 0.026219 -0.005559 -0.000001 0.000000 0.000000
# 3 -0.003619 -0.005559 0.013836 0.000000 0.000000 0.000000
# 4 0.000001 -0.000001 0.000000 0.624780 0.000000 0.000000
# 5 0.000000 0.000000 0.000000 0.000000 0.065169 0.000000
# 6 0.000000 0.000000 0.000000 0.000000 0.000000 0.056531
#
#
# Mechanical properties :
#
#
# Convention : Reuss Voigt Hill
#
# Bulk Modulus (GPa) = 44.87400 52.78697 48.83048
# Shear Modulus (GPa) = 5.98702 17.27892 11.63297
#
# Velocity S-wave (km/s) = 2.02005 3.43174 2.81580
# Velocity P-wave (km/s) = 6.00214 7.18893 6.62217
#
# Compressibility (1/GPa) = 0.02228462
#
# Stress axis : x y z
#
# Youngs Moduli (GPa) = 85.44913 38.14026 72.27278
#
# Poissons Ratio (x) = 0.21201 0.26157
# Poissons Ratio (y) = 0.47500 0.40175
# Poissons Ratio (z) = 0.30926 0.21202
#
# Static dielectric constant tensor:
#      x y z
#    x 3.371380 0.000000 0.000000 
#    y 0.000000 2.456620 0.000000 
#    z 0.000000 0.000000 2.935150 
# 
# 
# High freq. dielectric constant tensor:
#      x y z
#    x 1.570870 0.000000 0.000000 
#    y 0.000000 1.499070 0.000000 
#    z 0.000000 0.000000 1.558300 
# 
# From -- ./inp_files/46591.got.cif
#   From: 2010.06.25/outbox.cif.g09.slc.cpg/sg71_24_cif.got.tgz:46591.got - 2010.06.28 04:59:45.
