data_PCOD8286425
_publ_section_title
;
Structure prediction by ZEFSAII (Michael W. Deem and Ramdas Pophale) SiO2 
 PCOD8286425
Probable space group: F D D D
;
_chemical_formula_sum "Si O2"
_cell_formula_units_Z 128
_cell_length_a 18.769461
_cell_length_b 15.148369
_cell_length_c 22.029985
_cell_angle_alpha 90.000000
_cell_angle_beta 90.000000
_cell_angle_gamma 90.000000
_cell_volume 6263.713402
_symmetry_space_group_name_H-M "F D D D"
_symmetry_group_IT_number 70
_space_group.IT_coordinate_system_code '2'
_symmetry_cell_setting 'orthorhombic'
loop_
_space_group_symop_operation_xyz
x,y,z
1/4-x,1/4-y,z
x,1/4-y,1/4-z
1/4-x,y,1/4-z
-x,-y,-z
3/4+x,3/4+y,-z
-x,3/4+y,3/4+z
3/4+x,-y,3/4+z
x,1/2+y,1/2+z
1/4-x,3/4-y,1/2+z
x,3/4-y,3/4-z
1/4-x,1/2+y,3/4-z
-x,1/2-y,1/2-z
3/4+x,1/4+y,1/2-z
-x,1/4+y,1/4+z
3/4+x,1/2-y,1/4+z
1/2+x,y,1/2+z
3/4-x,1/4-y,1/2+z
1/2+x,1/4-y,3/4-z
3/4-x,y,3/4-z
1/2-x,-y,1/2-z
1/4+x,3/4+y,1/2-z
1/2-x,3/4+y,1/4+z
1/4+x,-y,1/4+z
1/2+x,1/2+y,z
3/4-x,3/4-y,z
1/2+x,3/4-y,1/4-z
3/4-x,1/2+y,1/4-z
1/2-x,1/2-y,-z
1/4+x,1/4+y,-z
1/2-x,1/4+y,3/4+z
1/4+x,1/2-y,3/4+z
loop_
_atom_site_type_symbol
_atom_site_label
_atom_site_fract_x
_atom_site_fract_y
_atom_site_fract_z
Si Si1 0.301859 0.287809 0.908996
Si Si2 0.048868 0.103489 0.956894
Si Si3 0.954170 0.786197 0.302813
Si Si4 0.542705 0.235717 0.062655
O O1 0.271272 0.375000 0.875000
O O2 0.375000 0.258299 0.875000
O O3 0.244093 0.208809 0.909303
O O4 0.317600 0.306230 0.979660
O O5 0.125000 0.125000 0.925594
O O6 0.004492 0.192524 0.972980
O O7 0.964276 0.736591 0.366765
O O8 0.983150 0.885794 0.307253
O O9 0.872158 0.769195 0.285982
O O10 0.000000 0.750000 0.250000
#
# Coordination Sequence:
#
# PCOD8286425 Si02
#       4
#    32  32  32  32
#     4  10  22  44  67  88 131 175 215 275 331 380
#     4  11  23  41  66  97 127 174 223 265 326 401
#     4   9  19  40  64  89 126 171 200 266 330 374
#     4   9  21  39  60  94 127 157 222 256 314 401
#
# _framework density 20.435161999999998
#
# number of rings (size 3 to 8) (size 9 to 14) (size 15 to 20)
#    0.000    2.250    2.500    1.500    3.500    6.000 
#   13.500    0.000    0.000    0.000    0.000    0.000 
#    0.000    0.000    0.000    0.000    0.000    0.000 
#
# Total GULP energy -396443.280895 kJ/mol
# GULP energy per Si atom -12388.852528 kJ/mol
# Density = 2.038865 g / cm^3
# Si number density = 20.435162 Si / 1000 Ang^3
#
#
#
# Elastic Constant Matrix: (Units=GPa)
#
#
# Indices 1 2 3 4 5 6 
#
# 1 132.1627 85.0251 57.8786 0.0000 0.0000 0.0000
# 2 85.0251 107.2875 28.0604 0.0000 0.0000 0.0000
# 3 57.8786 28.0604 87.7570 0.0000 0.0000 0.0000
# 4 0.0000 0.0000 0.0000 28.3511 0.0000 0.0000
# 5 0.0000 0.0000 0.0000 0.0000 42.9522 0.0000
# 6 0.0000 0.0000 0.0000 0.0000 0.0000 32.5900
#
#
#
# Elastic Compliance Matrix: (Units=1/GPa)
#
#
# Indices 1 2 3 4 5 6 
#
# 1 0.020415 -0.013812 -0.009048 0.000000 0.000000 0.000000
# 2 -0.013812 0.019516 0.002869 0.000000 0.000000 0.000000
# 3 -0.009048 0.002869 0.016445 0.000000 0.000000 0.000000
# 4 0.000000 0.000000 0.000000 0.035272 0.000000 0.000000
# 5 0.000000 0.000000 0.000000 0.000000 0.023282 0.000000
# 6 0.000000 0.000000 0.000000 0.000000 0.000000 0.030684
#
#
# Mechanical properties :
#
#
# Convention : Reuss Voigt Hill
#
# Bulk Modulus (GPa) = 60.99543 74.34837 67.67190
# Shear Modulus (GPa) = 26.16980 31.19487 28.68234
#
# Velocity S-wave (km/s) = 3.58247 3.91132 3.75050
# Velocity P-wave (km/s) = 6.85749 7.54052 7.20710
#
# Compressibility (1/GPa) = 0.01639467
#
# Stress axis : x y z
#
# Youngs Moduli (GPa) = 48.98466 51.23884 60.80919
#
# Poissons Ratio (x) = 0.70772 0.55018
# Poissons Ratio (y) = 0.67658 -0.17447
# Poissons Ratio (z) = 0.44319 -0.14701
#
# Static dielectric constant tensor:
#      x y z
#    x 3.699080 0.000000 0.000000 
#    y 0.000000 3.795720 0.000000 
#    z 0.000000 0.000000 3.489000 
# 
# 
# High freq. dielectric constant tensor:
#      x y z
#    x 1.791280 0.000000 0.000000 
#    y 0.000000 1.803610 0.000000 
#    z 0.000000 0.000000 1.785120 
# 
# From -- ./inp_files/37295.got.cif
#   From: 2010.03.12/outbox.cif.g09.slc.cpg/sg70_19_cif.got.tgz:37295.got - 2010.04.16 13:46:32.
