data_PCOD8286738
_publ_section_title
;
Structure prediction by ZEFSAII (Michael W. Deem and Ramdas Pophale) SiO2 
 PCOD8286738
Probable space group: F D D D
;
_chemical_formula_sum "Si O2"
_cell_formula_units_Z 144
_cell_length_a 25.703376
_cell_length_b 22.012529
_cell_length_c 10.812900
_cell_angle_alpha 90.000000
_cell_angle_beta 90.000000
_cell_angle_gamma 90.000000
_cell_volume 6117.898916
_symmetry_space_group_name_H-M "F D D D"
_symmetry_group_IT_number 70
_space_group.IT_coordinate_system_code '2'
_symmetry_cell_setting 'orthorhombic'
loop_
_space_group_symop_operation_xyz
x,y,z
1/4-x,1/4-y,z
x,1/4-y,1/4-z
1/4-x,y,1/4-z
-x,-y,-z
3/4+x,3/4+y,-z
-x,3/4+y,3/4+z
3/4+x,-y,3/4+z
x,1/2+y,1/2+z
1/4-x,3/4-y,1/2+z
x,3/4-y,3/4-z
1/4-x,1/2+y,3/4-z
-x,1/2-y,1/2-z
3/4+x,1/4+y,1/2-z
-x,1/4+y,1/4+z
3/4+x,1/2-y,1/4+z
1/2+x,y,1/2+z
3/4-x,1/4-y,1/2+z
1/2+x,1/4-y,3/4-z
3/4-x,y,3/4-z
1/2-x,-y,1/2-z
1/4+x,3/4+y,1/2-z
1/2-x,3/4+y,1/4+z
1/4+x,-y,1/4+z
1/2+x,1/2+y,z
3/4-x,3/4-y,z
1/2+x,3/4-y,1/4-z
3/4-x,1/2+y,1/4-z
1/2-x,1/2-y,-z
1/4+x,1/4+y,-z
1/2-x,1/4+y,3/4+z
1/4+x,1/2-y,3/4+z
loop_
_atom_site_type_symbol
_atom_site_label
_atom_site_fract_x
_atom_site_fract_y
_atom_site_fract_z
Si Si1 0.857615 0.125000 0.625000
Si Si2 0.432289 0.849939 0.009216
Si Si3 0.470890 0.230074 0.629035
Si Si4 0.725822 0.550044 0.897596
Si Si5 0.834866 0.719471 0.475842
O O1 0.820976 0.070345 0.671224
O O2 0.893781 0.097213 0.515537
O O3 0.452958 0.875000 0.875000
O O4 0.375000 0.875000 0.026264
O O5 0.439380 0.779223 0.044142
O O6 0.467945 0.880068 0.114118
O O7 0.500000 0.250000 0.750000
O O8 0.518194 0.204841 0.544812
O O9 0.780508 0.530933 0.841358
O O10 0.676068 0.511065 0.846914
O O11 0.875000 0.750261 0.375000
#
# Coordination Sequence:
#
# PCOD8286738 Si02
#       5
#    16  32  32  32  32
#     4  12  26  44  72 110 152 198 252 314 396 480
#     4  11  25  45  78 110 144 193 254 323 389 464
#     4  12  27  49  72 106 156 204 253 323 392 477
#     4  11  25  45  74 111 150 195 258 326 398 463
#     4  11  24  43  77 110 149 194 259 329 389 473
#
# _framework density 23.537490999999999
#
# number of rings (size 3 to 8) (size 9 to 14) (size 15 to 20)
#    0.000    0.667    2.222    5.333    7.778    0.000 
#    0.000    4.444    0.000    0.000    0.000    0.000 
#    0.000    0.000    0.000    0.000    0.000    0.000 
#
# Total GULP energy -445972.332742 kJ/mol
# GULP energy per Si atom -12388.120354 kJ/mol
# Density = 2.348392 g / cm^3
# Si number density = 23.537491 Si / 1000 Ang^3
#
#
#
# Elastic Constant Matrix: (Units=GPa)
#
#
# Indices 1 2 3 4 5 6 
#
# 1 104.8204 42.0296 62.4392 0.0000 -0.0001 0.0000
# 2 42.0296 111.1165 33.0316 -0.0007 0.0005 0.0000
# 3 62.4392 33.0316 142.4092 -0.0023 0.0008 -0.0001
# 4 0.0000 -0.0007 -0.0023 40.8890 0.0006 0.0000
# 5 -0.0001 0.0005 0.0008 0.0006 24.3087 0.0000
# 6 0.0000 0.0000 -0.0001 0.0000 0.0000 42.2879
#
#
#
# Elastic Compliance Matrix: (Units=1/GPa)
#
#
# Indices 1 2 3 4 5 6 
#
# 1 0.014264 -0.003798 -0.005373 0.000000 0.000000 0.000000
# 2 -0.003798 0.010677 -0.000811 0.000000 0.000000 0.000000
# 3 -0.005373 -0.000811 0.009566 0.000001 0.000000 0.000000
# 4 0.000000 0.000000 0.000001 0.024456 -0.000001 0.000000
# 5 0.000000 0.000000 0.000000 -0.000001 0.041137 0.000000
# 6 0.000000 0.000000 0.000000 0.000000 0.000000 0.023647
#
#
# Mechanical properties :
#
#
# Convention : Reuss Voigt Hill
#
# Bulk Modulus (GPa) = 68.76470 70.37188 69.56829
# Shear Modulus (GPa) = 33.65641 36.22015 34.93828
#
# Velocity S-wave (km/s) = 3.78551 3.92705 3.85693
# Velocity P-wave (km/s) = 6.95595 7.10809 7.03243
#
# Compressibility (1/GPa) = 0.01454234
#
# Stress axis : x y z
#
# Youngs Moduli (GPa) = 70.10900 93.65630 104.53734
#
# Poissons Ratio (x) = 0.35570 0.56167
# Poissons Ratio (y) = 0.26627 0.08482
# Poissons Ratio (z) = 0.37669 0.07599
#
# Static dielectric constant tensor:
#      x y z
#    x 4.607660 0.000000 0.000000 
#    y 0.000000 12.839970 0.000020 
#    z 0.000000 0.000020 4.529240 
# 
# 
# High freq. dielectric constant tensor:
#      x y z
#    x 1.941770 0.000000 0.000000 
#    y 0.000000 1.937690 0.000000 
#    z 0.000000 0.000000 1.923300 
# 
# From -- ./inp_files/20643.got.cif
#   From: 2010.03.12/outbox.cif.g09.slc.cpg/sg70_11_cif.got.tgz:20643.got - 2010.04.16 13:46:32.
