data_PCOD8286362
_publ_section_title
;
Structure prediction by ZEFSAII (Michael W. Deem and Ramdas Pophale) SiO2 
 PCOD8286362
Probable space group: F D D D
;
_chemical_formula_sum "Si O2"
_cell_formula_units_Z 160
_cell_length_a 20.349199
_cell_length_b 22.779518
_cell_length_c 17.510962
_cell_angle_alpha 90.000000
_cell_angle_beta 90.000000
_cell_angle_gamma 90.000000
_cell_volume 8117.117916
_symmetry_space_group_name_H-M "F D D D"
_symmetry_group_IT_number 70
_space_group.IT_coordinate_system_code '2'
_symmetry_cell_setting 'orthorhombic'
loop_
_space_group_symop_operation_xyz
x,y,z
1/4-x,1/4-y,z
x,1/4-y,1/4-z
1/4-x,y,1/4-z
-x,-y,-z
3/4+x,3/4+y,-z
-x,3/4+y,3/4+z
3/4+x,-y,3/4+z
x,1/2+y,1/2+z
1/4-x,3/4-y,1/2+z
x,3/4-y,3/4-z
1/4-x,1/2+y,3/4-z
-x,1/2-y,1/2-z
3/4+x,1/4+y,1/2-z
-x,1/4+y,1/4+z
3/4+x,1/2-y,1/4+z
1/2+x,y,1/2+z
3/4-x,1/4-y,1/2+z
1/2+x,1/4-y,3/4-z
3/4-x,y,3/4-z
1/2-x,-y,1/2-z
1/4+x,3/4+y,1/2-z
1/2-x,3/4+y,1/4+z
1/4+x,-y,1/4+z
1/2+x,1/2+y,z
3/4-x,3/4-y,z
1/2+x,3/4-y,1/4-z
3/4-x,1/2+y,1/4-z
1/2-x,1/2-y,-z
1/4+x,1/4+y,-z
1/2-x,1/4+y,3/4+z
1/4+x,1/2-y,3/4+z
loop_
_atom_site_type_symbol
_atom_site_label
_atom_site_fract_x
_atom_site_fract_y
_atom_site_fract_z
Si Si1 0.198717 0.742302 0.655420
Si Si2 0.168131 0.288015 0.896672
Si Si3 0.223888 0.878526 0.639527
Si Si4 0.911329 0.930811 0.696109
Si Si5 0.118636 0.855358 0.998166
O O1 0.125000 0.734336 0.625000
O O2 0.251902 0.708070 0.602313
O O3 0.222774 0.808960 0.653259
O O4 0.203598 0.715082 0.740211
O O5 0.144725 0.222453 0.912203
O O6 0.137776 0.330379 0.960195
O O7 0.142798 0.304670 0.812742
O O8 0.295217 0.906729 0.625190
O O9 0.183417 0.896917 0.565389
O O10 0.191164 0.904935 0.716350
O O11 0.875000 0.875000 0.734525
#
# Coordination Sequence:
#
# PCOD8286362 Si02
#       5
#    32  32  32  32  32
#     4  12  24  38  62  93 134 162 203 261 317 382
#     4  11  23  40  62  96 122 168 217 253 317 374
#     4  11  21  41  61  89 123 171 205 254 323 366
#     4  12  25  38  64  97 127 161 210 265 309 374
#     4  10  22  40  64  86 127 168 210 255 310 388
#
# _framework density 19.71143
#
# number of rings (size 3 to 8) (size 9 to 14) (size 15 to 20)
#    0.000    0.800    8.000    0.000    2.800    2.800 
#    0.000    0.000    0.000    0.000    0.000    0.000 
#    0.000    0.000    0.000    0.000    0.000    0.000 
#
# Total GULP energy -495850.842439 kJ/mol
# GULP energy per Si atom -12396.271061 kJ/mol
# Density = 1.966657 g / cm^3
# Si number density = 19.711430 Si / 1000 Ang^3
#
#
#
# Elastic Constant Matrix: (Units=GPa)
#
#
# Indices 1 2 3 4 5 6 
#
# 1 117.5684 34.8515 47.9445 0.0000 0.0000 0.0000
# 2 34.8515 89.6877 35.8660 0.0000 0.0000 0.0000
# 3 47.9445 35.8660 88.6579 0.0000 0.0000 0.0000
# 4 0.0000 0.0000 0.0000 -3.4368 0.0000 0.0000
# 5 0.0000 0.0000 0.0000 0.0000 30.4692 0.0000
# 6 0.0000 0.0000 0.0000 0.0000 0.0000 25.9524
#
#
#
# Elastic Compliance Matrix: (Units=1/GPa)
#
#
# Indices 1 2 3 4 5 6 
#
# 1 0.011304 -0.002324 -0.005173 0.000000 0.000000 0.000000
# 2 -0.002324 0.013779 -0.004318 0.000000 0.000000 0.000000
# 3 -0.005173 -0.004318 0.015823 0.000000 0.000000 0.000000
# 4 0.000000 0.000000 0.000000 -0.290971 0.000000 0.000000
# 5 0.000000 0.000000 0.000000 0.000000 0.032820 0.000000
# 6 0.000000 0.000000 0.000000 0.000000 0.000000 0.038532
#
#
# Mechanical properties :
#
#
# Convention : Reuss Voigt Hill
#
# Bulk Modulus (GPa) = 57.87727 59.24868 58.56297
# Shear Modulus (GPa) = -33.48427 22.41375 -5.53526
#
# Velocity S-wave (km/s) = -4.12603 3.37574 -1.67757
# Velocity P-wave (km/s) = 2.59369 6.73182 5.10121
#
# Compressibility (1/GPa) = 0.01727794
#
# Stress axis : x y z
#
# Youngs Moduli (GPa) = 88.46333 72.57165 63.19764
#
# Poissons Ratio (x) = 0.16866 0.32691
# Poissons Ratio (y) = 0.20559 0.27286
# Poissons Ratio (z) = 0.45761 0.31334
#
# Static dielectric constant tensor:
#      x y z
#    x 3.806350 0.000000 0.000000 
#    y 0.000000 3.591920 0.000000 
#    z 0.000000 0.000000 3.692470 
# 
# 
# High freq. dielectric constant tensor:
#      x y z
#    x 1.769660 0.000000 0.000000 
#    y 0.000000 1.766540 0.000000 
#    z 0.000000 0.000000 1.762930 
# 
# From -- ./inp_files/36297.got.cif
#   From: 2010.03.12/outbox.cif.g09.slc.cpg/sg70_19_cif.got.tgz:36297.got - 2010.04.16 13:46:32.
