data_PCOD8286310
_publ_section_title
;
Structure prediction by ZEFSAII (Michael W. Deem and Ramdas Pophale) SiO2 
 PCOD8286310
Probable space group: F D D D
;
_chemical_formula_sum "Si O2"
_cell_formula_units_Z 160
_cell_length_a 18.472795
_cell_length_b 20.638582
_cell_length_c 20.017333
_cell_angle_alpha 90.000000
_cell_angle_beta 90.000000
_cell_angle_gamma 90.000000
_cell_volume 7631.654134
_symmetry_space_group_name_H-M "F D D D"
_symmetry_group_IT_number 70
_space_group.IT_coordinate_system_code '2'
_symmetry_cell_setting 'orthorhombic'
loop_
_space_group_symop_operation_xyz
x,y,z
1/4-x,1/4-y,z
x,1/4-y,1/4-z
1/4-x,y,1/4-z
-x,-y,-z
3/4+x,3/4+y,-z
-x,3/4+y,3/4+z
3/4+x,-y,3/4+z
x,1/2+y,1/2+z
1/4-x,3/4-y,1/2+z
x,3/4-y,3/4-z
1/4-x,1/2+y,3/4-z
-x,1/2-y,1/2-z
3/4+x,1/4+y,1/2-z
-x,1/4+y,1/4+z
3/4+x,1/2-y,1/4+z
1/2+x,y,1/2+z
3/4-x,1/4-y,1/2+z
1/2+x,1/4-y,3/4-z
3/4-x,y,3/4-z
1/2-x,-y,1/2-z
1/4+x,3/4+y,1/2-z
1/2-x,3/4+y,1/4+z
1/4+x,-y,1/4+z
1/2+x,1/2+y,z
3/4-x,3/4-y,z
1/2+x,3/4-y,1/4-z
3/4-x,1/2+y,1/4-z
1/2-x,1/2-y,-z
1/4+x,1/4+y,-z
1/2-x,1/4+y,3/4+z
1/4+x,1/2-y,3/4+z
loop_
_atom_site_type_symbol
_atom_site_label
_atom_site_fract_x
_atom_site_fract_y
_atom_site_fract_z
Si Si1 0.192774 0.559865 0.444284
Si Si2 0.471374 0.125000 0.625000
Si Si3 0.516620 0.625000 0.625000
Si Si4 0.338338 0.989797 0.941661
Si Si5 0.350170 0.027860 0.673177
Si Si6 0.799897 0.438265 0.254882
O O1 0.267482 0.527508 0.464218
O O2 0.162831 0.533541 0.374263
O O3 0.205840 0.637878 0.441777
O O4 0.134652 0.541124 0.503346
O O5 0.422120 0.066017 0.650997
O O6 0.526635 0.148513 0.680868
O O7 0.567132 0.665200 0.573833
O O8 0.468122 0.673534 0.669402
O O9 0.375000 0.020127 0.875000
O O10 0.394395 0.998204 0.002498
O O11 0.750000 0.500000 0.250000
#
# Coordination Sequence:
#
# PCOD8286310 Si02
#       6
#    32  16  16  32  32  32
#     4  10  23  40  67 101 136 177 236 286 343 436
#     4  11  20  41  72  94 139 189 210 294 365 417
#     4   9  23  42  68 102 131 179 238 288 345 423
#     4  11  23  45  66  98 138 183 232 291 347 417
#     4  10  21  44  68  96 138 182 230 292 353 407
#     4  11  22  42  69 103 141 177 231 286 351 430
#
# _framework density 20.965311
#
# number of rings (size 3 to 8) (size 9 to 14) (size 15 to 20)
#    0.000    1.600    4.000    0.300    0.000    4.800 
#   14.400    0.000    8.800    0.000    0.000    0.000 
#    0.000    0.000    0.000    0.000    0.000    0.000 
#
# Total GULP energy -495671.142594 kJ/mol
# GULP energy per Si atom -12391.778565 kJ/mol
# Density = 2.091759 g / cm^3
# Si number density = 20.965311 Si / 1000 Ang^3
#
#
#
# Elastic Constant Matrix: (Units=GPa)
#
#
# Indices 1 2 3 4 5 6 
#
# 1 75.7555 64.3873 38.3895 0.0000 0.0000 0.0000
# 2 64.3873 149.3231 66.9182 0.0000 0.0000 0.0000
# 3 38.3895 66.9182 136.4188 0.0000 0.0000 0.0000
# 4 0.0000 0.0000 0.0000 40.3942 0.0000 0.0000
# 5 0.0000 0.0000 0.0000 0.0000 37.9968 0.0000
# 6 0.0000 0.0000 0.0000 0.0000 0.0000 43.5486
#
#
#
# Elastic Compliance Matrix: (Units=1/GPa)
#
#
# Indices 1 2 3 4 5 6 
#
# 1 0.021214 -0.008296 -0.001901 0.000000 0.000000 0.000000
# 2 -0.008296 0.011828 -0.003467 0.000000 0.000000 0.000000
# 3 -0.001901 -0.003467 0.009566 0.000000 0.000000 0.000000
# 4 0.000000 0.000000 0.000000 0.024756 0.000000 0.000000
# 5 0.000000 0.000000 0.000000 0.000000 0.026318 0.000000
# 6 0.000000 0.000000 0.000000 0.000000 0.000000 0.022963
#
#
# Mechanical properties :
#
#
# Convention : Reuss Voigt Hill
#
# Bulk Modulus (GPa) = 65.44182 77.87637 71.65910
# Shear Modulus (GPa) = 33.54205 37.17473 35.35839
#
# Velocity S-wave (km/s) = 4.00419 4.21545 4.11118
# Velocity P-wave (km/s) = 7.25673 7.80509 7.53590
#
# Compressibility (1/GPa) = 0.01528075
#
# Stress axis : x y z
#
# Youngs Moduli (GPa) = 47.13786 84.54568 104.53549
#
# Poissons Ratio (x) = 0.70137 0.19867
# Poissons Ratio (y) = 0.39105 0.36248
# Poissons Ratio (z) = 0.08959 0.29316
#
# Static dielectric constant tensor:
#      x y z
#    x 4.148950 0.000000 0.000000 
#    y 0.000000 4.007900 0.000000 
#    z 0.000000 0.000000 3.770440 
# 
# 
# High freq. dielectric constant tensor:
#      x y z
#    x 1.844980 0.000000 0.000000 
#    y 0.000000 1.824050 0.000000 
#    z 0.000000 0.000000 1.799030 
# 
# From -- ./inp_files/36340.got.cif
#   From: 2010.03.12/outbox.cif.g09.slc.cpg/sg70_19_cif.got.tgz:36340.got - 2010.04.16 13:46:32.
