data_PCOD8286287
_publ_section_title
;
Structure prediction by ZEFSAII (Michael W. Deem and Ramdas Pophale) SiO2 
 PCOD8286287
Probable space group: F D D D
;
_chemical_formula_sum "Si O2"
_cell_formula_units_Z 216
_cell_length_a 14.827778
_cell_length_b 31.417427
_cell_length_c 22.367071
_cell_angle_alpha 90.000000
_cell_angle_beta 90.000000
_cell_angle_gamma 90.000000
_cell_volume 10419.714181
_symmetry_space_group_name_H-M "F D D D"
_symmetry_group_IT_number 70
_space_group.IT_coordinate_system_code '2'
_symmetry_cell_setting 'orthorhombic'
loop_
_space_group_symop_operation_xyz
x,y,z
1/4-x,1/4-y,z
x,1/4-y,1/4-z
1/4-x,y,1/4-z
-x,-y,-z
3/4+x,3/4+y,-z
-x,3/4+y,3/4+z
3/4+x,-y,3/4+z
x,1/2+y,1/2+z
1/4-x,3/4-y,1/2+z
x,3/4-y,3/4-z
1/4-x,1/2+y,3/4-z
-x,1/2-y,1/2-z
3/4+x,1/4+y,1/2-z
-x,1/4+y,1/4+z
3/4+x,1/2-y,1/4+z
1/2+x,y,1/2+z
3/4-x,1/4-y,1/2+z
1/2+x,1/4-y,3/4-z
3/4-x,y,3/4-z
1/2-x,-y,1/2-z
1/4+x,3/4+y,1/2-z
1/2-x,3/4+y,1/4+z
1/4+x,-y,1/4+z
1/2+x,1/2+y,z
3/4-x,3/4-y,z
1/2+x,3/4-y,1/4-z
3/4-x,1/2+y,1/4-z
1/2-x,1/2-y,-z
1/4+x,1/4+y,-z
1/2-x,1/4+y,3/4+z
1/4+x,1/2-y,3/4+z
loop_
_atom_site_type_symbol
_atom_site_label
_atom_site_fract_x
_atom_site_fract_y
_atom_site_fract_z
Si Si1 0.541338 0.319945 0.998228
Si Si2 0.115836 0.047695 0.932424
Si Si3 0.625000 0.125000 0.346911
Si Si4 0.503022 0.162977 0.719903
Si Si5 0.213786 0.725491 0.086631
Si Si6 0.002922 0.938608 0.535866
Si Si7 0.625000 0.125000 0.625000
Si Si8 0.603181 0.957756 0.378328
O O1 0.514242 0.369033 0.003676
O O2 0.540707 0.303876 0.929287
O O3 0.467879 0.295370 0.039593
O O4 0.641042 0.315784 0.024286
O O5 0.093735 0.086663 0.888455
O O6 0.088606 0.006653 0.894905
O O7 0.044529 0.052163 0.986076
O O8 0.707440 0.105818 0.306631
O O9 0.571068 0.157305 0.665762
O O10 0.413478 0.179985 0.687666
O O11 0.125000 0.720196 0.125000
O O12 0.250952 0.774486 0.086592
O O13 0.292769 0.697005 0.114663
O O14 0.196257 0.707545 0.020018
#
# Coordination Sequence:
#
# PCOD8286287 Si02
#       8
#    32  32  16  32  32  32   8  32
#     4  11  22  42  67  93 126 177 220 260 329 406
#     4  12  23  42  66  95 133 174 212 273 334 391
#     4  12  23  44  63  93 130 167 210 272 324 388
#     4  12  21  40  66  96 128 171 222 265 333 392
#     4  10  21  42  66  92 125 173 216 268 325 390
#     4  10  24  39  64  94 125 169 219 262 325 389
#     4  12  18  40  72  88 126 182 212 264 322 412
#     4  11  23  39  66  98 127 161 223 281 316 387
#
# _framework density 20.729935999999999
#
# number of rings (size 3 to 8) (size 9 to 14) (size 15 to 20)
#    0.000    0.889    5.926    1.333    0.000    1.185 
#    2.667    1.852    0.000    0.000    0.000    0.000 
#    0.000    0.000    0.000    0.000    0.000    0.000 
#
# Total GULP energy -669322.750085 kJ/mol
# GULP energy per Si atom -12394.865742 kJ/mol
# Density = 2.068275 g / cm^3
# Si number density = 20.729936 Si / 1000 Ang^3
#
#
#
# Elastic Constant Matrix: (Units=GPa)
#
#
# Indices 1 2 3 4 5 6 
#
# 1 95.2658 18.8556 41.5281 0.0000 0.0000 0.0000
# 2 18.8556 67.7256 21.6236 0.0000 0.0000 0.0000
# 3 41.5281 21.6236 88.5355 0.0000 0.0000 0.0000
# 4 0.0000 0.0000 0.0000 32.1644 0.0000 0.0000
# 5 0.0000 0.0000 0.0000 0.0000 23.5675 0.0000
# 6 0.0000 0.0000 0.0000 0.0000 0.0000 27.0181
#
#
#
# Elastic Compliance Matrix: (Units=1/GPa)
#
#
# Indices 1 2 3 4 5 6 
#
# 1 0.013410 -0.001871 -0.005833 0.000000 0.000000 0.000000
# 2 -0.001871 0.016275 -0.003097 0.000000 0.000000 0.000000
# 3 -0.005833 -0.003097 0.014787 0.000000 0.000000 0.000000
# 4 0.000000 0.000000 0.000000 0.031090 0.000000 0.000000
# 5 0.000000 0.000000 0.000000 0.000000 0.042431 0.000000
# 6 0.000000 0.000000 0.000000 0.000000 0.000000 0.037012
#
#
# Mechanical properties :
#
#
# Convention : Reuss Voigt Hill
#
# Bulk Modulus (GPa) = 43.72597 46.17128 44.94862
# Shear Modulus (GPa) = 27.13955 27.85130 27.49542
#
# Velocity S-wave (km/s) = 3.62221 3.66940 3.64588
# Velocity P-wave (km/s) = 6.21553 6.34616 6.28118
#
# Compressibility (1/GPa) = 0.02286970
#
# Stress axis : x y z
#
# Youngs Moduli (GPa) = 74.57113 61.44260 67.62499
#
# Poissons Ratio (x) = 0.11497 0.39446
# Poissons Ratio (y) = 0.13953 0.20946
# Poissons Ratio (z) = 0.43498 0.19031
#
# Static dielectric constant tensor:
#      x y z
#    x 3.972390 0.000000 0.000000 
#    y 0.000000 3.705120 0.000000 
#    z 0.000000 0.000000 4.212590 
# 
# 
# High freq. dielectric constant tensor:
#      x y z
#    x 1.806310 0.000000 0.000000 
#    y 0.000000 1.801490 0.000000 
#    z 0.000000 0.000000 1.829660 
# 
# From -- ./inp_files/51620.got.cif
#   From: 2010.03.12/outbox.cif.g09.slc.cpg/sg70_26_cif.got.tgz:51620.got - 2010.04.16 13:46:32.
