data_PCOD8286921
_publ_section_title
;
Structure prediction by ZEFSAII (Michael W. Deem and Ramdas Pophale) SiO2 
 PCOD8286921
Probable space group: I M M M
;
_chemical_formula_sum "Si O2"
_cell_formula_units_Z 88
_cell_length_a 23.034131
_cell_length_b 9.168850
_cell_length_c 34.591925
_cell_angle_alpha 90.000000
_cell_angle_beta 90.000000
_cell_angle_gamma 90.000000
_cell_volume 7305.693212
_symmetry_space_group_name_H-M "I M M M"
_symmetry_group_IT_number 71
_symmetry_cell_setting 'orthorhombic'
loop_
_space_group_symop_operation_xyz
x,y,z
-x,-y,z
x,-y,-z
-x,y,-z
-x,-y,-z
x,y,-z
-x,y,z
x,-y,z
1/2+x,1/2+y,1/2+z
1/2-x,1/2-y,1/2+z
1/2+x,1/2-y,1/2-z
1/2-x,1/2+y,1/2-z
1/2-x,1/2-y,1/2-z
1/2+x,1/2+y,1/2-z
1/2-x,1/2+y,1/2+z
1/2+x,1/2-y,1/2+z
loop_
_atom_site_type_symbol
_atom_site_label
_atom_site_fract_x
_atom_site_fract_y
_atom_site_fract_z
Si Si1 0.064916 0.825994 0.417273
Si Si2 0.170575 0.661385 0.226478
Si Si3 0.933615 0.329843 0.725214
Si Si4 0.568928 0.659737 0.000000
Si Si5 0.734483 0.837185 0.808148
Si Si6 0.631487 0.673345 0.157980
O O1 0.086342 0.761542 0.459278
O O2 0.109071 0.776040 0.384042
O O3 0.000000 0.768543 0.407361
O O4 0.063152 0.000000 0.420238
O O5 0.171336 0.500000 0.208104
O O6 0.104712 0.710490 0.236770
O O7 0.200873 0.769387 0.195884
O O8 0.205015 0.660729 0.266580
O O9 0.923772 0.500000 0.714604
O O10 0.914179 0.233203 0.689084
O O11 0.000000 0.295036 0.735369
O O12 0.598157 0.500000 0.000000
O O13 0.500000 0.643297 0.000000
O O14 0.695545 0.740328 0.836881
O O15 0.740459 0.000000 0.825039
O O16 0.635010 0.500000 0.162397
#
# Coordination Sequence:
#
# PCOD8286921 Si02
#       6
#    16  16  16   8  16  16
#     4   8  13  20  30  45  63  81 101 127 159 191
#     4   8  14  24  36  47  59  77 101 127 152 181
#     4   9  17  27  36  47  64  84 103 124 156 195
#     4   7  10  18  30  42  59  81 101 123 154 189
#     4   9  16  25  35  46  60  79 102 126 156 190
#     4  10  17  23  33  49  66  81 101 131 162 190
#
# _framework density 12.045400000000001
#
# number of rings (size 3 to 8) (size 9 to 14) (size 15 to 20)
#    0.000    3.364    0.000    3.818    0.000    5.455 
#    0.000    0.000    0.000    0.000    0.000    2.545 
#    0.000   10.182    0.000    0.000    0.000    0.000 
#
# Total GULP energy -545090.189105 kJ/mol
# GULP energy per Si atom -12388.413389 kJ/mol
# Density = 1.201798 g / cm^3
# Si number density = 12.045400 Si / 1000 Ang^3
#
#
#
# Elastic Constant Matrix: (Units=GPa)
#
#
# Indices 1 2 3 4 5 6 
#
# 1 80.2273 34.6177 48.1053 0.0000 0.0000 0.0000
# 2 34.6177 53.1211 29.2805 0.0000 0.0000 0.0000
# 3 48.1053 29.2805 62.1971 0.0000 0.0000 0.0000
# 4 0.0000 0.0000 0.0000 6.4427 0.0000 0.0000
# 5 0.0000 0.0000 0.0000 0.0000 15.3622 0.0000
# 6 0.0000 0.0000 0.0000 0.0000 0.0000 14.7160
#
#
#
# Elastic Compliance Matrix: (Units=1/GPa)
#
#
# Indices 1 2 3 4 5 6 
#
# 1 0.025395 -0.007728 -0.016003 0.000000 0.000000 0.000000
# 2 -0.007728 0.027774 -0.007098 0.000000 0.000000 0.000000
# 3 -0.016003 -0.007098 0.031797 0.000000 0.000000 0.000000
# 4 0.000000 0.000000 0.000000 0.155214 0.000000 0.000000
# 5 0.000000 0.000000 0.000000 0.000000 0.065095 0.000000
# 6 0.000000 0.000000 0.000000 0.000000 0.000000 0.067953
#
#
# Mechanical properties :
#
#
# Convention : Reuss Voigt Hill
#
# Bulk Modulus (GPa) = 42.90542 46.61695 44.76118
# Shear Modulus (GPa) = 11.29550 12.87363 12.08457
#
# Velocity S-wave (km/s) = 3.06558 3.27273 3.17085
# Velocity P-wave (km/s) = 6.94460 7.28465 7.11666
#
# Compressibility (1/GPa) = 0.02330708
#
# Stress axis : x y z
#
# Youngs Moduli (GPa) = 39.37788 36.00551 31.44998
#
# Poissons Ratio (x) = 0.27826 0.50329
# Poissons Ratio (y) = 0.30433 0.22322
# Poissons Ratio (z) = 0.63017 0.25555
#
# Static dielectric constant tensor:
#      x y z
#    x 2.546700 0.000000 0.000000 
#    y 0.000000 2.466190 0.000000 
#    z 0.000000 0.000000 2.479240 
# 
# 
# High freq. dielectric constant tensor:
#      x y z
#    x 1.437020 0.000000 0.000000 
#    y 0.000000 1.449100 0.000000 
#    z 0.000000 0.000000 1.419430 
# 
# From -- ./inp_files/70935.got.cif
#   From: 2010.06.25/outbox.cif.g09.slc.cpg/sg71_36_cif.got.tgz:70935.got - 2010.06.28 04:59:45.
