data_PCOD8286268
_publ_section_title
;
Structure prediction by ZEFSAII (Michael W. Deem and Ramdas Pophale) SiO2 
 PCOD8286268
Probable space group: F D D D
;
_chemical_formula_sum "Si O2"
_cell_formula_units_Z 192
_cell_length_a 27.127302
_cell_length_b 11.485013
_cell_length_c 28.091998
_cell_angle_alpha 90.000000
_cell_angle_beta 90.000000
_cell_angle_gamma 90.000000
_cell_volume 8752.270311
_symmetry_space_group_name_H-M "F D D D"
_symmetry_group_IT_number 70
_space_group.IT_coordinate_system_code '2'
_symmetry_cell_setting 'orthorhombic'
loop_
_space_group_symop_operation_xyz
x,y,z
1/4-x,1/4-y,z
x,1/4-y,1/4-z
1/4-x,y,1/4-z
-x,-y,-z
3/4+x,3/4+y,-z
-x,3/4+y,3/4+z
3/4+x,-y,3/4+z
x,1/2+y,1/2+z
1/4-x,3/4-y,1/2+z
x,3/4-y,3/4-z
1/4-x,1/2+y,3/4-z
-x,1/2-y,1/2-z
3/4+x,1/4+y,1/2-z
-x,1/4+y,1/4+z
3/4+x,1/2-y,1/4+z
1/2+x,y,1/2+z
3/4-x,1/4-y,1/2+z
1/2+x,1/4-y,3/4-z
3/4-x,y,3/4-z
1/2-x,-y,1/2-z
1/4+x,3/4+y,1/2-z
1/2-x,3/4+y,1/4+z
1/4+x,-y,1/4+z
1/2+x,1/2+y,z
3/4-x,3/4-y,z
1/2+x,3/4-y,1/4-z
3/4-x,1/2+y,1/4-z
1/2-x,1/2-y,-z
1/4+x,1/4+y,-z
1/2-x,1/4+y,3/4+z
1/4+x,1/2-y,3/4+z
loop_
_atom_site_type_symbol
_atom_site_label
_atom_site_fract_x
_atom_site_fract_y
_atom_site_fract_z
Si Si1 0.230050 0.875000 0.375000
Si Si2 0.944477 0.469137 0.770049
Si Si3 0.875000 0.375000 0.455889
Si Si4 0.383883 0.128510 0.323314
Si Si5 0.979540 0.885061 0.978061
Si Si6 0.429521 0.350183 0.584278
Si Si7 0.233006 0.494615 0.196146
O O1 0.264387 0.892713 0.329070
O O2 0.196761 0.761916 0.364333
O O3 0.904396 0.560130 0.788209
O O4 0.921447 0.418160 0.721913
O O5 0.958357 0.373456 0.811317
O O6 0.995147 0.527431 0.753779
O O7 0.876271 0.491128 0.424167
O O8 0.922148 0.372853 0.490420
O O9 0.375000 0.182861 0.375000
O O10 0.440525 0.147753 0.308646
O O11 0.000000 0.000000 0.000000
O O12 0.375000 0.375000 0.605560
O O13 0.470981 0.455618 0.588238
O O14 0.250000 0.500000 0.250000
#
# Coordination Sequence:
#
# PCOD8286268 Si02
#       7
#    16  32  16  32  32  32  32
#     4  10  24  43  66  92 138 174 229 290 342 418
#     4  10  21  42  66  93 138 166 221 283 339 415
#     4  12  25  40  68  94 134 184 222 276 362 408
#     4  12  25  39  65 103 134 176 224 285 348 419
#     4  11  24  44  66  99 135 179 228 290 345 426
#     4  10  21  41  67  92 128 182 225 278 346 409
#     4  10  21  40  65  95 125 173 223 268 343 413
#
# _framework density 21.937166999999999
#
# number of rings (size 3 to 8) (size 9 to 14) (size 15 to 20)
#    0.000    1.333    1.667    5.750    4.667    1.333 
#    1.500    1.667    0.000    0.000    0.000    0.000 
#    0.000    0.000    0.000    0.000    0.000    0.000 
#
# Total GULP energy -594799.854988 kJ/mol
# GULP energy per Si atom -12391.663646 kJ/mol
# Density = 2.188724 g / cm^3
# Si number density = 21.937167 Si / 1000 Ang^3
#
#
#
# Elastic Constant Matrix: (Units=GPa)
#
#
# Indices 1 2 3 4 5 6 
#
# 1 190.2111 51.5069 23.7012 0.0000 0.0000 0.0000
# 2 51.5069 123.5137 20.5091 0.0000 0.0000 0.0000
# 3 23.7012 20.5091 41.6975 0.0000 0.0000 0.0000
# 4 0.0000 0.0000 0.0000 31.3328 0.0000 0.0000
# 5 0.0000 0.0000 0.0000 0.0000 12.6547 0.0000
# 6 0.0000 0.0000 0.0000 0.0000 0.0000 41.2606
#
#
#
# Elastic Compliance Matrix: (Units=1/GPa)
#
#
# Indices 1 2 3 4 5 6 
#
# 1 0.006145 -0.002159 -0.002431 0.000000 0.000000 0.000000
# 2 -0.002159 0.009575 -0.003482 0.000000 0.000000 0.000000
# 3 -0.002431 -0.003482 0.027077 0.000000 0.000000 0.000000
# 4 0.000000 0.000000 0.000000 0.031915 0.000000 0.000000
# 5 0.000000 0.000000 0.000000 0.000000 0.079022 0.000000
# 6 0.000000 0.000000 0.000000 0.000000 0.000000 0.024236
#
#
# Mechanical properties :
#
#
# Convention : Reuss Voigt Hill
#
# Bulk Modulus (GPa) = 37.52026 60.76187 49.14106
# Shear Modulus (GPa) = 24.63072 34.36328 29.49700
#
# Velocity S-wave (km/s) = 3.35443 3.96212 3.67087
# Velocity P-wave (km/s) = 5.66953 6.97779 6.35740
#
# Compressibility (1/GPa) = 0.02665227
#
# Stress axis : x y z
#
# Youngs Moduli (GPa) = 162.73901 104.44132 36.93194
#
# Poissons Ratio (x) = 0.22547 0.08978
# Poissons Ratio (y) = 0.35132 0.12861
# Poissons Ratio (z) = 0.39561 0.36370
#
# Static dielectric constant tensor:
#      x y z
#    x 4.233150 0.000000 0.000000 
#    y 0.000000 4.479560 0.000000 
#    z 0.000000 0.000000 3.627460 
# 
# 
# High freq. dielectric constant tensor:
#      x y z
#    x 1.883960 0.000000 0.000000 
#    y 0.000000 1.876300 0.000000 
#    z 0.000000 0.000000 1.829180 
# 
# From -- ./inp_files/68423.got.cif
#   From: 2010.03.12/outbox.cif.g09.slc.cpg/sg70_35_cif.got.tgz:68423.got - 2010.04.16 13:46:32.
