data_PCOD8286628
_publ_section_title
;
Structure prediction by ZEFSAII (Michael W. Deem and Ramdas Pophale) SiO2 
 PCOD8286628
Probable space group: F D D D
;
_chemical_formula_sum "Si O2"
_cell_formula_units_Z 96
_cell_length_a 12.886113
_cell_length_b 23.947903
_cell_length_c 15.539523
_cell_angle_alpha 90.000000
_cell_angle_beta 90.000000
_cell_angle_gamma 90.000000
_cell_volume 4795.425070
_symmetry_space_group_name_H-M "F D D D"
_symmetry_group_IT_number 70
_space_group.IT_coordinate_system_code '2'
_symmetry_cell_setting 'orthorhombic'
loop_
_space_group_symop_operation_xyz
x,y,z
1/4-x,1/4-y,z
x,1/4-y,1/4-z
1/4-x,y,1/4-z
-x,-y,-z
3/4+x,3/4+y,-z
-x,3/4+y,3/4+z
3/4+x,-y,3/4+z
x,1/2+y,1/2+z
1/4-x,3/4-y,1/2+z
x,3/4-y,3/4-z
1/4-x,1/2+y,3/4-z
-x,1/2-y,1/2-z
3/4+x,1/4+y,1/2-z
-x,1/4+y,1/4+z
3/4+x,1/2-y,1/4+z
1/2+x,y,1/2+z
3/4-x,1/4-y,1/2+z
1/2+x,1/4-y,3/4-z
3/4-x,y,3/4-z
1/2-x,-y,1/2-z
1/4+x,3/4+y,1/2-z
1/2-x,3/4+y,1/4+z
1/4+x,-y,1/4+z
1/2+x,1/2+y,z
3/4-x,3/4-y,z
1/2+x,3/4-y,1/4-z
3/4-x,1/2+y,1/4-z
1/2-x,1/2-y,-z
1/4+x,1/4+y,-z
1/2-x,1/4+y,3/4+z
1/4+x,1/2-y,3/4+z
loop_
_atom_site_type_symbol
_atom_site_label
_atom_site_fract_x
_atom_site_fract_y
_atom_site_fract_z
Si Si1 0.240404 0.948176 0.636320
Si Si2 0.534028 0.375000 0.875000
Si Si3 0.875000 0.875000 0.735828
Si Si4 0.017274 0.320432 0.829782
O O1 0.125000 0.922747 0.625000
O O2 0.325453 0.922983 0.572495
O O3 0.275907 0.934429 0.733211
O O4 0.236682 0.014670 0.618487
O O5 0.463835 0.349189 0.798166
O O6 0.606609 0.326254 0.915887
O O7 0.966057 0.375000 0.875000
#
# Coordination Sequence:
#
# PCOD8286628 Si02
#       4
#    32  16  16  32
#     4  11  21  38  63  93 123 161 205 254 306 366
#     4   9  20  44  59  86 120 165 202 248 305 354
#     4  11  22  38  65  88 126 160 205 256 294 367
#     4   9  21  40  61  88 125 160 204 251 305 365
#
# _framework density 20.019079999999999
#
# number of rings (size 3 to 8) (size 9 to 14) (size 15 to 20)
#    1.000    1.000    3.333    0.000    0.000    7.333 
#    0.000    0.000    0.000    0.000    0.000    0.000 
#    0.000    0.000    0.000    0.000    0.000    0.000 
#
# Total GULP energy -297392.557205 kJ/mol
# GULP energy per Si atom -12391.356550 kJ/mol
# Density = 1.997352 g / cm^3
# Si number density = 20.019080 Si / 1000 Ang^3
#
#
#
# Elastic Constant Matrix: (Units=GPa)
#
#
# Indices 1 2 3 4 5 6 
#
# 1 106.0900 17.9060 43.4637 0.0000 0.0000 0.0000
# 2 17.9060 109.6831 53.5263 0.0000 0.0000 0.0000
# 3 43.4637 53.5263 115.1095 0.0000 0.0000 0.0000
# 4 0.0000 0.0000 0.0000 25.4612 0.0000 0.0000
# 5 0.0000 0.0000 0.0000 0.0000 21.0267 0.0000
# 6 0.0000 0.0000 0.0000 0.0000 0.0000 21.2781
#
#
#
# Elastic Compliance Matrix: (Units=1/GPa)
#
#
# Indices 1 2 3 4 5 6 
#
# 1 0.011159 0.000303 -0.004354 0.000000 0.000000 0.000000
# 2 0.000303 0.011802 -0.005602 0.000000 0.000000 0.000000
# 3 -0.004354 -0.005602 0.012937 0.000000 0.000000 0.000000
# 4 0.000000 0.000000 0.000000 0.039275 0.000000 0.000000
# 5 0.000000 0.000000 0.000000 0.000000 0.047558 0.000000
# 6 0.000000 0.000000 0.000000 0.000000 0.000000 0.046997
#
#
# Mechanical properties :
#
#
# Convention : Reuss Voigt Hill
#
# Bulk Modulus (GPa) = 60.27678 62.29718 61.28698
# Shear Modulus (GPa) = 25.69841 27.95231 26.82536
#
# Velocity S-wave (km/s) = 3.58676 3.74074 3.66456
# Velocity P-wave (km/s) = 6.87954 7.06003 6.97037
#
# Compressibility (1/GPa) = 0.01659014
#
# Stress axis : x y z
#
# Youngs Moduli (GPa) = 89.61614 84.73399 77.29985
#
# Poissons Ratio (x) = -0.02570 0.33659
# Poissons Ratio (y) = -0.02718 0.43306
# Poissons Ratio (z) = 0.39022 0.47471
#
# Static dielectric constant tensor:
#      x y z
#    x 3.715150 0.000000 0.000000 
#    y 0.000000 3.317560 0.000000 
#    z 0.000000 0.000000 3.652490 
# 
# 
# High freq. dielectric constant tensor:
#      x y z
#    x 1.792620 0.000000 0.000000 
#    y 0.000000 1.745940 0.000000 
#    z 0.000000 0.000000 1.789520 
# 
# From -- ./inp_files/25283.got.cif
#   From: 2010.03.12/outbox.cif.g09.slc.cpg/sg70_13_cif.got.tgz:25283.got - 2010.04.16 13:46:32.
