data_PCOD8286132
_publ_section_title
;
Structure prediction by ZEFSAII (Michael W. Deem and Ramdas Pophale) SiO2 
 PCOD8286132
Probable space group: F D D D
;
_chemical_formula_sum "Si O2"
_cell_formula_units_Z 144
_cell_length_a 19.713813
_cell_length_b 13.320538
_cell_length_c 26.789491
_cell_angle_alpha 90.000000
_cell_angle_beta 90.000000
_cell_angle_gamma 90.000000
_cell_volume 7034.882702
_symmetry_space_group_name_H-M "F D D D"
_symmetry_group_IT_number 70
_space_group.IT_coordinate_system_code '2'
_symmetry_cell_setting 'orthorhombic'
loop_
_space_group_symop_operation_xyz
x,y,z
1/4-x,1/4-y,z
x,1/4-y,1/4-z
1/4-x,y,1/4-z
-x,-y,-z
3/4+x,3/4+y,-z
-x,3/4+y,3/4+z
3/4+x,-y,3/4+z
x,1/2+y,1/2+z
1/4-x,3/4-y,1/2+z
x,3/4-y,3/4-z
1/4-x,1/2+y,3/4-z
-x,1/2-y,1/2-z
3/4+x,1/4+y,1/2-z
-x,1/4+y,1/4+z
3/4+x,1/2-y,1/4+z
1/2+x,y,1/2+z
3/4-x,1/4-y,1/2+z
1/2+x,1/4-y,3/4-z
3/4-x,y,3/4-z
1/2-x,-y,1/2-z
1/4+x,3/4+y,1/2-z
1/2-x,3/4+y,1/4+z
1/4+x,-y,1/4+z
1/2+x,1/2+y,z
3/4-x,3/4-y,z
1/2+x,3/4-y,1/4-z
3/4-x,1/2+y,1/4-z
1/2-x,1/2-y,-z
1/4+x,1/4+y,-z
1/2-x,1/4+y,3/4+z
1/4+x,1/2-y,3/4+z
loop_
_atom_site_type_symbol
_atom_site_label
_atom_site_fract_x
_atom_site_fract_y
_atom_site_fract_z
Si Si1 0.375000 0.375000 0.875000
Si Si2 0.994863 0.245921 0.911629
Si Si3 0.875000 0.375000 0.875000
Si Si4 0.940023 0.309336 0.689563
Si Si5 0.835837 0.564017 0.327818
Si Si6 0.058999 0.364745 0.998795
O O1 0.424580 0.445587 0.908817
O O2 0.032053 0.250551 0.858398
O O3 0.043554 0.292874 0.952668
O O4 0.923417 0.306758 0.910145
O O5 0.982752 0.128996 0.927007
O O6 0.875000 0.375000 0.675006
O O7 0.921620 0.226657 0.731082
O O8 0.996916 0.383131 0.712037
O O9 0.875000 0.614971 0.375000
O O10 0.876422 0.569285 0.276409
#
# Coordination Sequence:
#
# PCOD8286132 Si02
#       6
#     8  32   8  32  32  32
#     4   8  18  40  68  76 122 168 214 260 312 396
#     4  12  22  38  66  98 130 172 219 275 341 393
#     4  12  18  36  64 100 134 168 210 274 332 402
#     4  11  22  37  59  95 140 167 207 279 337 401
#     4  10  20  40  65  86 123 169 223 269 318 401
#     4  11  22  37  63  99 126 171 226 267 336 406
#
# _framework density 20.469425000000001
#
# number of rings (size 3 to 8) (size 9 to 14) (size 15 to 20)
#    0.667    0.444    5.556    1.333    4.667    0.000 
#    2.000    1.111   24.444    0.000    0.000    0.000 
#    0.000    0.000    0.000    0.000    0.000    0.000 
#
# Total GULP energy -446304.062827 kJ/mol
# GULP energy per Si atom -12397.335079 kJ/mol
# Density = 2.042284 g / cm^3
# Si number density = 20.469425 Si / 1000 Ang^3
#
#
#
# Elastic Constant Matrix: (Units=GPa)
#
#
# Indices 1 2 3 4 5 6 
#
# 1 55.8374 21.0715 30.4160 0.0000 0.0000 0.0000
# 2 21.0715 103.1795 22.0333 0.0000 0.0000 0.0000
# 3 30.4160 22.0333 112.4255 0.0000 0.0000 0.0000
# 4 0.0000 0.0000 0.0000 29.9022 0.0000 0.0000
# 5 0.0000 0.0000 0.0000 0.0000 30.7405 0.0000
# 6 0.0000 0.0000 0.0000 0.0000 0.0000 28.8324
#
#
#
# Elastic Compliance Matrix: (Units=1/GPa)
#
#
# Indices 1 2 3 4 5 6 
#
# 1 0.022076 -0.003374 -0.005311 0.000000 0.000000 0.000000
# 2 -0.003374 0.010631 -0.001171 0.000000 0.000000 0.000000
# 3 -0.005311 -0.001171 0.010561 0.000000 0.000000 0.000000
# 4 0.000000 0.000000 0.000000 0.033442 0.000000 0.000000
# 5 0.000000 0.000000 0.000000 0.000000 0.032530 0.000000
# 6 0.000000 0.000000 0.000000 0.000000 0.000000 0.034683
#
#
# Mechanical properties :
#
#
# Convention : Reuss Voigt Hill
#
# Bulk Modulus (GPa) = 42.45241 46.49820 44.47531
# Shear Modulus (GPa) = 29.15670 31.08979 30.12325
#
# Velocity S-wave (km/s) = 3.77822 3.90146 3.84033
# Velocity P-wave (km/s) = 6.31013 6.56204 6.43732
#
# Compressibility (1/GPa) = 0.02355579
#
# Stress axis : x y z
#
# Youngs Moduli (GPa) = 45.29897 94.06548 94.68724
#
# Poissons Ratio (x) = 0.31739 0.50290
# Poissons Ratio (y) = 0.15285 0.11084
# Poissons Ratio (z) = 0.24059 0.11011
#
# Static dielectric constant tensor:
#      x y z
#    x 3.303150 0.000000 0.000000 
#    y 0.000000 3.712670 0.000000 
#    z 0.000000 0.000000 3.631490 
# 
# 
# High freq. dielectric constant tensor:
#      x y z
#    x 1.758010 0.000000 0.000000 
#    y 0.000000 1.803910 0.000000 
#    z 0.000000 0.000000 1.803130 
# 
# From -- ./inp_files/66495.got.cif
#   From: 2010.03.12/outbox.cif.g09.slc.cpg/sg70_34_cif.got.tgz:66495.got - 2010.04.16 13:46:32.
