data_PCOD8286170
_publ_section_title
;
Structure prediction by ZEFSAII (Michael W. Deem and Ramdas Pophale) SiO2 
 PCOD8286170
Probable space group: F D D D
;
_chemical_formula_sum "Si O2"
_cell_formula_units_Z 112
_cell_length_a 5.304632
_cell_length_b 29.782704
_cell_length_c 32.904039
_cell_angle_alpha 90.000000
_cell_angle_beta 90.000000
_cell_angle_gamma 90.000000
_cell_volume 5198.386873
_symmetry_space_group_name_H-M "F D D D"
_symmetry_group_IT_number 70
_space_group.IT_coordinate_system_code '2'
_symmetry_cell_setting 'orthorhombic'
loop_
_space_group_symop_operation_xyz
x,y,z
1/4-x,1/4-y,z
x,1/4-y,1/4-z
1/4-x,y,1/4-z
-x,-y,-z
3/4+x,3/4+y,-z
-x,3/4+y,3/4+z
3/4+x,-y,3/4+z
x,1/2+y,1/2+z
1/4-x,3/4-y,1/2+z
x,3/4-y,3/4-z
1/4-x,1/2+y,3/4-z
-x,1/2-y,1/2-z
3/4+x,1/4+y,1/2-z
-x,1/4+y,1/4+z
3/4+x,1/2-y,1/4+z
1/2+x,y,1/2+z
3/4-x,1/4-y,1/2+z
1/2+x,1/4-y,3/4-z
3/4-x,y,3/4-z
1/2-x,-y,1/2-z
1/4+x,3/4+y,1/2-z
1/2-x,3/4+y,1/4+z
1/4+x,-y,1/4+z
1/2+x,1/2+y,z
3/4-x,3/4-y,z
1/2+x,3/4-y,1/4-z
3/4-x,1/2+y,1/4-z
1/2-x,1/2-y,-z
1/4+x,1/4+y,-z
1/2-x,1/4+y,3/4+z
1/4+x,1/2-y,3/4+z
loop_
_atom_site_type_symbol
_atom_site_label
_atom_site_fract_x
_atom_site_fract_y
_atom_site_fract_z
Si Si1 0.875000 0.875000 0.788833
Si Si2 0.134109 0.813603 0.900490
Si Si3 0.244020 0.548190 0.771561
Si Si4 0.740324 0.520379 0.795007
O O1 0.660236 0.852335 0.816363
O O2 0.744711 0.912879 0.761676
O O3 0.375000 0.829915 0.875000
O O4 0.218528 0.767404 0.921046
O O5 0.875000 0.807072 0.875000
O O6 0.250000 0.500000 0.750000
O O7 0.495845 0.552688 0.798848
O O8 0.995333 0.550013 0.800410
O O9 0.750000 0.500000 0.750000
#
# Coordination Sequence:
#
# PCOD8286170 Si02
#       4
#    16  32  32  32
#     4  12  25  42  66 102 142 170 210 280 332 404
#     4  12  27  42  62 101 145 173 203 265 353 418
#     4  10  21  39  66  87 125 170 226 267 303 378
#     4  10  20  43  64  82 130 173 228 254 299 401
#
# _framework density 21.545144000000001
#
# number of rings (size 3 to 8) (size 9 to 14) (size 15 to 20)
#    0.000    1.143    5.714    2.143    4.000    5.714 
#    0.000    0.000    0.000    0.000    0.000   20.000 
#    0.000    0.000    0.000    0.000    0.000    0.000 
#
# Total GULP energy -347013.789434 kJ/mol
# GULP energy per Si atom -12393.349623 kJ/mol
# Density = 2.149611 g / cm^3
# Si number density = 21.545144 Si / 1000 Ang^3
#
#
#
# Elastic Constant Matrix: (Units=GPa)
#
#
# Indices 1 2 3 4 5 6 
#
# 1 238.4289 54.9231 49.4438 0.0000 0.0000 0.0000
# 2 54.9231 106.8610 68.6681 0.0000 0.0000 0.0000
# 3 49.4438 68.6681 65.3132 0.0000 0.0000 0.0000
# 4 0.0000 0.0000 0.0000 21.6829 0.0000 0.0000
# 5 0.0000 0.0000 0.0000 0.0000 31.4389 0.0000
# 6 0.0000 0.0000 0.0000 0.0000 0.0000 23.1994
#
#
#
# Elastic Compliance Matrix: (Units=1/GPa)
#
#
# Indices 1 2 3 4 5 6 
#
# 1 0.004981 -0.000422 -0.003327 0.000000 0.000000 0.000000
# 2 -0.000422 0.028883 -0.030047 0.000000 0.000000 0.000000
# 3 -0.003327 -0.030047 0.049419 0.000000 0.000000 0.000000
# 4 0.000000 0.000000 0.000000 0.046119 0.000000 0.000000
# 5 0.000000 0.000000 0.000000 0.000000 0.031808 0.000000
# 6 0.000000 0.000000 0.000000 0.000000 0.000000 0.043105
#
#
# Mechanical properties :
#
#
# Convention : Reuss Voigt Hill
#
# Bulk Modulus (GPa) = 63.72807 84.07480 73.90143
# Shear Modulus (GPa) = 18.04157 31.10212 24.57184
#
# Velocity S-wave (km/s) = 2.89690 3.80357 3.38077
# Velocity P-wave (km/s) = 6.39003 7.64178 7.04377
#
# Compressibility (1/GPa) = 0.01569167
#
# Stress axis : x y z
#
# Youngs Moduli (GPa) = 200.74937 34.62264 20.23493
#
# Poissons Ratio (x) = 0.01462 0.06732
# Poissons Ratio (y) = 0.08479 0.60799
# Poissons Ratio (z) = 0.66788 1.04030
#
# Static dielectric constant tensor:
#      x y z
#    x 7.250640 0.000000 0.000000 
#    y 0.000000 3.654130 0.000000 
#    z 0.000000 0.000000 3.706350 
# 
# 
# High freq. dielectric constant tensor:
#      x y z
#    x 1.885520 0.000000 0.000000 
#    y 0.000000 1.820720 0.000000 
#    z 0.000000 0.000000 1.806040 
# 
# From -- ./inp_files/4075.got.cif
#   From: 2010.03.12/outbox.cif.g09.slc.cpg/sg70_3_cif.got.tgz:4075.got - 2010.04.16 13:46:32.
