data_PCOD8286846
_publ_section_title
;
Structure prediction by ZEFSAII (Michael W. Deem and Ramdas Pophale) SiO2 
 PCOD8286846
Probable space group: F D D D
;
_chemical_formula_sum "Si O2"
_cell_formula_units_Z 144
_cell_length_a 27.073319
_cell_length_b 14.738497
_cell_length_c 15.879241
_cell_angle_alpha 90.000000
_cell_angle_beta 90.000000
_cell_angle_gamma 90.000000
_cell_volume 6336.135234
_symmetry_space_group_name_H-M "F D D D"
_symmetry_group_IT_number 70
_space_group.IT_coordinate_system_code '2'
_symmetry_cell_setting 'orthorhombic'
loop_
_space_group_symop_operation_xyz
x,y,z
1/4-x,1/4-y,z
x,1/4-y,1/4-z
1/4-x,y,1/4-z
-x,-y,-z
3/4+x,3/4+y,-z
-x,3/4+y,3/4+z
3/4+x,-y,3/4+z
x,1/2+y,1/2+z
1/4-x,3/4-y,1/2+z
x,3/4-y,3/4-z
1/4-x,1/2+y,3/4-z
-x,1/2-y,1/2-z
3/4+x,1/4+y,1/2-z
-x,1/4+y,1/4+z
3/4+x,1/2-y,1/4+z
1/2+x,y,1/2+z
3/4-x,1/4-y,1/2+z
1/2+x,1/4-y,3/4-z
3/4-x,y,3/4-z
1/2-x,-y,1/2-z
1/4+x,3/4+y,1/2-z
1/2-x,3/4+y,1/4+z
1/4+x,-y,1/4+z
1/2+x,1/2+y,z
3/4-x,3/4-y,z
1/2+x,3/4-y,1/4-z
3/4-x,1/2+y,1/4-z
1/2-x,1/2-y,-z
1/4+x,1/4+y,-z
1/2-x,1/4+y,3/4+z
1/4+x,1/2-y,3/4+z
loop_
_atom_site_type_symbol
_atom_site_label
_atom_site_fract_x
_atom_site_fract_y
_atom_site_fract_z
Si Si1 0.115927 0.357499 0.719784
Si Si2 0.062953 0.733126 0.936394
Si Si3 0.757636 0.102888 0.222887
Si Si4 0.335850 0.799469 0.499817
Si Si5 0.240045 0.625000 0.625000
O O1 0.125000 0.325199 0.625000
O O2 0.135515 0.275131 0.778811
O O3 0.058856 0.382386 0.734144
O O4 0.145317 0.448489 0.738671
O O5 0.071128 0.685911 0.846533
O O6 0.023529 0.813580 0.934526
O O7 0.040559 0.656755 0.996555
O O8 0.762954 0.125000 0.125000
O O9 0.750000 0.000000 0.250000
O O10 0.375000 0.875000 0.472364
O O11 0.290067 0.810431 0.437380
#
# Coordination Sequence:
#
# PCOD8286846 Si02
#       5
#    32  32  32  32  16
#     4  12  26  48  74 109 149 194 252 312 379 452
#     4  12  27  46  74 106 150 194 249 310 373 451
#     4  12  29  48  75 107 150 205 257 311 380 466
#     4  12  25  44  75 109 147 193 241 310 376 450
#     4  12  25  44  76 108 146 182 242 305 384 438
#
# _framework density 22.726789
#
# number of rings (size 3 to 8) (size 9 to 14) (size 15 to 20)
#    0.000    0.000    2.222    7.667   12.444    0.000 
#    0.000    2.222    0.000    0.000    0.000    0.000 
#    0.000    0.000    0.000    0.000    0.000    0.000 
#
# Total GULP energy -446579.702142 kJ/mol
# GULP energy per Si atom -12404.991726 kJ/mol
# Density = 2.267506 g / cm^3
# Si number density = 22.726789 Si / 1000 Ang^3
#
#
#
# Elastic Constant Matrix: (Units=GPa)
#
#
# Indices 1 2 3 4 5 6 
#
# 1 76.1918 16.4037 14.1600 0.0000 0.0000 0.0000
# 2 16.4037 104.5754 14.2115 0.0000 0.0000 0.0000
# 3 14.1600 14.2115 133.2133 0.0000 0.0000 0.0000
# 4 0.0000 0.0000 0.0000 38.2971 0.0000 0.0000
# 5 0.0000 0.0000 0.0000 0.0000 46.9947 0.0000
# 6 0.0000 0.0000 0.0000 0.0000 0.0000 40.6248
#
#
#
# Elastic Compliance Matrix: (Units=1/GPa)
#
#
# Indices 1 2 3 4 5 6 
#
# 1 0.013787 -0.001992 -0.001253 0.000000 0.000000 0.000000
# 2 -0.001992 0.009991 -0.000854 0.000000 0.000000 0.000000
# 3 -0.001253 -0.000854 0.007731 0.000000 0.000000 0.000000
# 4 0.000000 0.000000 0.000000 0.026112 0.000000 0.000000
# 5 0.000000 0.000000 0.000000 0.000000 0.021279 0.000000
# 6 0.000000 0.000000 0.000000 0.000000 0.000000 0.024615
#
#
# Mechanical properties :
#
#
# Convention : Reuss Voigt Hill
#
# Bulk Modulus (GPa) = 42.89992 44.83677 43.86835
# Shear Modulus (GPa) = 41.84682 43.13034 42.48858
#
# Velocity S-wave (km/s) = 4.29569 4.36107 4.32851
# Velocity P-wave (km/s) = 6.59707 6.71789 6.65775
#
# Compressibility (1/GPa) = 0.02331007
#
# Stress axis : x y z
#
# Youngs Moduli (GPa) = 72.53447 100.08953 129.34846
#
# Poissons Ratio (x) = 0.19941 0.16206
# Poissons Ratio (y) = 0.14451 0.11048
# Poissons Ratio (z) = 0.09088 0.08549
#
# Static dielectric constant tensor:
#      x y z
#    x 4.518650 0.000000 0.000000 
#    y 0.000000 4.127400 0.000000 
#    z 0.000000 0.000000 4.498360 
# 
# 
# High freq. dielectric constant tensor:
#      x y z
#    x 1.910190 0.000000 0.000000 
#    y 0.000000 1.904440 0.000000 
#    z 0.000000 0.000000 1.910830 
# 
# From -- ./inp_files/39478.got.cif
#   From: 2010.03.12/outbox.cif.g09.slc.cpg/sg70_20_cif.got.tgz:39478.got - 2010.04.16 13:46:32.
