data_PCOD8286391
_publ_section_title
;
Structure prediction by ZEFSAII (Michael W. Deem and Ramdas Pophale) SiO2 
 PCOD8286391
Probable space group: F D D D
;
_chemical_formula_sum "Si O2"
_cell_formula_units_Z 208
_cell_length_a 19.667185
_cell_length_b 16.682247
_cell_length_c 28.432624
_cell_angle_alpha 90.000000
_cell_angle_beta 90.000000
_cell_angle_gamma 90.000000
_cell_volume 9328.540299
_symmetry_space_group_name_H-M "F D D D"
_symmetry_group_IT_number 70
_space_group.IT_coordinate_system_code '2'
_symmetry_cell_setting 'orthorhombic'
loop_
_space_group_symop_operation_xyz
x,y,z
1/4-x,1/4-y,z
x,1/4-y,1/4-z
1/4-x,y,1/4-z
-x,-y,-z
3/4+x,3/4+y,-z
-x,3/4+y,3/4+z
3/4+x,-y,3/4+z
x,1/2+y,1/2+z
1/4-x,3/4-y,1/2+z
x,3/4-y,3/4-z
1/4-x,1/2+y,3/4-z
-x,1/2-y,1/2-z
3/4+x,1/4+y,1/2-z
-x,1/4+y,1/4+z
3/4+x,1/2-y,1/4+z
1/2+x,y,1/2+z
3/4-x,1/4-y,1/2+z
1/2+x,1/4-y,3/4-z
3/4-x,y,3/4-z
1/2-x,-y,1/2-z
1/4+x,3/4+y,1/2-z
1/2-x,3/4+y,1/4+z
1/4+x,-y,1/4+z
1/2+x,1/2+y,z
3/4-x,3/4-y,z
1/2+x,3/4-y,1/4-z
3/4-x,1/2+y,1/4-z
1/2-x,1/2-y,-z
1/4+x,1/4+y,-z
1/2-x,1/4+y,3/4+z
1/4+x,1/2-y,3/4+z
loop_
_atom_site_type_symbol
_atom_site_label
_atom_site_fract_x
_atom_site_fract_y
_atom_site_fract_z
Si Si1 0.460337 0.570186 0.217029
Si Si2 0.375000 0.698687 0.875000
Si Si3 0.912492 0.016155 0.067617
Si Si4 0.608421 0.717061 0.836403
Si Si5 0.218419 0.291702 0.545780
Si Si6 0.164984 0.782218 0.725025
Si Si7 0.461858 0.597399 0.936283
O O1 0.454572 0.652023 0.187842
O O2 0.398241 0.508752 0.207092
O O3 0.532370 0.530957 0.203259
O O4 0.457835 0.587396 0.272201
O O5 0.345960 0.744420 0.922284
O O6 0.439916 0.642261 0.888539
O O7 0.877207 0.017596 0.117726
O O8 0.963597 0.940535 0.065929
O O9 0.852830 0.009889 0.028966
O O10 0.625000 0.625000 0.840837
O O11 0.528287 0.718437 0.832746
O O12 0.250000 0.250000 0.500000
O O13 0.198514 0.380161 0.528734
O O14 0.094166 0.778024 0.696532
#
# Coordination Sequence:
#
# PCOD8286391 Si02
#       7
#    32  16  32  32  32  32  32
#     4  11  23  43  66  98 136 173 226 288 339 416
#     4  10  22  42  68 100 132 180 230 286 350 428
#     4  11  25  41  68 104 134 177 225 284 344 420
#     4  12  24  42  66  96 131 180 228 274 346 410
#     4  11  23  44  70  96 135 180 232 289 347 415
#     4  10  22  41  67  96 132 180 223 280 347 412
#     4  10  23  41  67  97 137 175 224 277 348 417
#
# _framework density 22.297163999999999
#
# number of rings (size 3 to 8) (size 9 to 14) (size 15 to 20)
#    0.000    1.231    1.538    6.000    6.462    1.846 
#    0.000    0.000    0.000    0.923    0.000    0.000 
#    0.000    0.000    0.000    0.000    0.000    0.000 
#
# Total GULP energy -644182.752909 kJ/mol
# GULP energy per Si atom -12388.129864 kJ/mol
# Density = 2.224642 g / cm^3
# Si number density = 22.297164 Si / 1000 Ang^3
#
#
#
# Elastic Constant Matrix: (Units=GPa)
#
#
# Indices 1 2 3 4 5 6 
#
# 1 133.6600 27.5952 47.2155 0.0000 0.0000 0.0000
# 2 27.5952 63.1562 32.4813 0.0000 0.0000 0.0000
# 3 47.2155 32.4813 106.4845 0.0000 0.0000 0.0000
# 4 0.0000 0.0000 0.0000 28.6951 0.0000 0.0000
# 5 0.0000 0.0000 0.0000 0.0000 30.0936 0.0000
# 6 0.0000 0.0000 0.0000 0.0000 0.0000 39.9519
#
#
#
# Elastic Compliance Matrix: (Units=1/GPa)
#
#
# Indices 1 2 3 4 5 6 
#
# 1 0.009136 -0.002264 -0.003361 0.000000 0.000000 0.000000
# 2 -0.002264 0.019341 -0.004896 0.000000 0.000000 0.000000
# 3 -0.003361 -0.004896 0.012375 0.000000 0.000000 0.000000
# 4 0.000000 0.000000 0.000000 0.034849 0.000000 0.000000
# 5 0.000000 0.000000 0.000000 0.000000 0.033230 0.000000
# 6 0.000000 0.000000 0.000000 0.000000 0.000000 0.025030
#
#
# Mechanical properties :
#
#
# Convention : Reuss Voigt Hill
#
# Bulk Modulus (GPa) = 50.47598 57.54276 54.00937
# Shear Modulus (GPa) = 30.93982 32.81537 31.87759
#
# Velocity S-wave (km/s) = 3.72911 3.84047 3.78520
# Velocity P-wave (km/s) = 6.42095 6.74751 6.58626
#
# Compressibility (1/GPa) = 0.01981140
#
# Stress axis : x y z
#
# Youngs Moduli (GPa) = 109.45578 51.70429 80.81132
#
# Poissons Ratio (x) = 0.11704 0.27157
# Poissons Ratio (y) = 0.24776 0.39564
# Poissons Ratio (z) = 0.36783 0.25314
#
# Static dielectric constant tensor:
#      x y z
#    x 4.518000 0.000000 0.000000 
#    y 0.000000 3.795670 0.000000 
#    z 0.000000 0.000000 4.247390 
# 
# 
# High freq. dielectric constant tensor:
#      x y z
#    x 1.897100 0.000000 0.000000 
#    y 0.000000 1.847480 0.000000 
#    z 0.000000 0.000000 1.890400 
# 
# From -- ./inp_files/67314.got.cif
#   From: 2010.03.12/outbox.cif.g09.slc.cpg/sg70_34_cif.got.tgz:67314.got - 2010.04.16 13:46:32.
