data_PCOD8286604
_publ_section_title
;
Structure prediction by ZEFSAII (Michael W. Deem and Ramdas Pophale) SiO2 
 PCOD8286604
Probable space group: F D D D
;
_chemical_formula_sum "Si O2"
_cell_formula_units_Z 160
_cell_length_a 15.938289
_cell_length_b 15.330974
_cell_length_c 31.069883
_cell_angle_alpha 90.000000
_cell_angle_beta 90.000000
_cell_angle_gamma 90.000000
_cell_volume 7591.910198
_symmetry_space_group_name_H-M "F D D D"
_symmetry_group_IT_number 70
_space_group.IT_coordinate_system_code '2'
_symmetry_cell_setting 'orthorhombic'
loop_
_space_group_symop_operation_xyz
x,y,z
1/4-x,1/4-y,z
x,1/4-y,1/4-z
1/4-x,y,1/4-z
-x,-y,-z
3/4+x,3/4+y,-z
-x,3/4+y,3/4+z
3/4+x,-y,3/4+z
x,1/2+y,1/2+z
1/4-x,3/4-y,1/2+z
x,3/4-y,3/4-z
1/4-x,1/2+y,3/4-z
-x,1/2-y,1/2-z
3/4+x,1/4+y,1/2-z
-x,1/4+y,1/4+z
3/4+x,1/2-y,1/4+z
1/2+x,y,1/2+z
3/4-x,1/4-y,1/2+z
1/2+x,1/4-y,3/4-z
3/4-x,y,3/4-z
1/2-x,-y,1/2-z
1/4+x,3/4+y,1/2-z
1/2-x,3/4+y,1/4+z
1/4+x,-y,1/4+z
1/2+x,1/2+y,z
3/4-x,3/4-y,z
1/2+x,3/4-y,1/4-z
3/4-x,1/2+y,1/4-z
1/2-x,1/2-y,-z
1/4+x,1/4+y,-z
1/2-x,1/4+y,3/4+z
1/4+x,1/2-y,3/4+z
loop_
_atom_site_type_symbol
_atom_site_label
_atom_site_fract_x
_atom_site_fract_y
_atom_site_fract_z
Si Si1 0.816768 0.479565 0.334652
Si Si2 0.649071 0.223050 0.075813
Si Si3 0.068930 0.375000 0.375000
Si Si4 0.574884 0.214673 0.352604
Si Si5 0.375000 0.875000 0.490486
Si Si6 0.493848 0.661925 0.937973
O O1 0.875000 0.458443 0.375000
O O2 0.735664 0.418167 0.337181
O O3 0.863571 0.459840 0.289723
O O4 0.788527 0.578224 0.337468
O O5 0.625000 0.125000 0.060895
O O6 0.625000 0.234846 0.125000
O O7 0.744637 0.260633 0.071854
O O8 0.587211 0.282693 0.047408
O O9 0.119060 0.300860 0.400837
O O10 0.625000 0.125000 0.338399
O O11 0.551717 0.211061 0.403216
O O12 0.456477 0.860907 0.519247
#
# Coordination Sequence:
#
# PCOD8286604 Si02
#       6
#    32  32  16  32  16  32
#     4  12  23  41  63  93 130 169 215 270 332 399
#     4   9  19  36  61  90 124 169 222 271 320 392
#     4  12  21  36  61  90 128 164 218 272 315 397
#     4  11  20  34  59  93 127 167 218 271 324 388
#     4  12  23  40  60  98 128 168 214 268 344 398
#     4  11  22  39  64  91 130 167 214 268 334 394
#
# _framework density 21.075064999999999
#
# number of rings (size 3 to 8) (size 9 to 14) (size 15 to 20)
#    0.000    1.000    5.000    4.800    0.000    0.000 
#    0.000    0.000    0.000    8.400    0.000    0.000 
#    0.000    0.000    0.000    0.000    0.000    0.000 
#
# Total GULP energy -495741.129126 kJ/mol
# GULP energy per Si atom -12393.528228 kJ/mol
# Density = 2.102710 g / cm^3
# Si number density = 21.075065 Si / 1000 Ang^3
#
#
#
# Elastic Constant Matrix: (Units=GPa)
#
#
# Indices 1 2 3 4 5 6 
#
# 1 150.7509 83.8621 38.1186 0.0000 0.0000 0.0000
# 2 83.8621 161.9586 20.7380 0.0000 0.0000 0.0000
# 3 38.1186 20.7380 68.7142 0.0000 0.0000 0.0000
# 4 0.0000 0.0000 0.0000 4.5169 0.0000 0.0000
# 5 0.0000 0.0000 0.0000 0.0000 -57.6475 0.0000
# 6 0.0000 0.0000 0.0000 0.0000 0.0000 32.7818
#
#
#
# Elastic Compliance Matrix: (Units=1/GPa)
#
#
# Indices 1 2 3 4 5 6 
#
# 1 0.010419 -0.004842 -0.004319 0.000000 0.000000 0.000000
# 2 -0.004842 0.008673 0.000069 0.000000 0.000000 0.000000
# 3 -0.004319 0.000069 0.016928 0.000000 0.000000 0.000000
# 4 0.000000 0.000000 0.000000 0.221392 0.000000 0.000000
# 5 0.000000 0.000000 0.000000 0.000000 -0.017347 0.000000
# 6 0.000000 0.000000 0.000000 0.000000 0.000000 0.030505
#
#
# Mechanical properties :
#
#
# Convention : Reuss Voigt Hill
#
# Bulk Modulus (GPa) = 56.06651 74.09567 65.08109
# Shear Modulus (GPa) = 16.96645 11.84390 14.40517
#
# Velocity S-wave (km/s) = 2.84042 2.37320 2.61725
# Velocity P-wave (km/s) = 6.11705 6.53787 6.33096
#
# Compressibility (1/GPa) = 0.01783596
#
# Stress axis : x y z
#
# Youngs Moduli (GPa) = 95.97833 115.30277 59.07367
#
# Poissons Ratio (x) = 0.55830 0.25511
# Poissons Ratio (y) = 0.46473 -0.00405
# Poissons Ratio (z) = 0.41449 -0.00791
#
# Static dielectric constant tensor:
#      x y z
#    x 4.339180 0.000000 0.000000 
#    y 0.000000 4.059560 0.000000 
#    z 0.000000 0.000000 3.228040 
# 
# 
# High freq. dielectric constant tensor:
#      x y z
#    x 1.845580 0.000000 0.000000 
#    y 0.000000 1.844490 0.000000 
#    z 0.000000 0.000000 1.771420 
# 
# From -- ./inp_files/66547.got.cif
#   From: 2010.03.12/outbox.cif.g09.slc.cpg/sg70_34_cif.got.tgz:66547.got - 2010.04.16 13:46:32.
