data_PCOD8286660
_publ_section_title
;
Structure prediction by ZEFSAII (Michael W. Deem and Ramdas Pophale) SiO2 
 PCOD8286660
Probable space group: F D D D
;
_chemical_formula_sum "Si O2"
_cell_formula_units_Z 160
_cell_length_a 31.480296
_cell_length_b 17.717065
_cell_length_c 13.249826
_cell_angle_alpha 90.000000
_cell_angle_beta 90.000000
_cell_angle_gamma 90.000000
_cell_volume 7389.937422
_symmetry_space_group_name_H-M "F D D D"
_symmetry_group_IT_number 70
_space_group.IT_coordinate_system_code '2'
_symmetry_cell_setting 'orthorhombic'
loop_
_space_group_symop_operation_xyz
x,y,z
1/4-x,1/4-y,z
x,1/4-y,1/4-z
1/4-x,y,1/4-z
-x,-y,-z
3/4+x,3/4+y,-z
-x,3/4+y,3/4+z
3/4+x,-y,3/4+z
x,1/2+y,1/2+z
1/4-x,3/4-y,1/2+z
x,3/4-y,3/4-z
1/4-x,1/2+y,3/4-z
-x,1/2-y,1/2-z
3/4+x,1/4+y,1/2-z
-x,1/4+y,1/4+z
3/4+x,1/2-y,1/4+z
1/2+x,y,1/2+z
3/4-x,1/4-y,1/2+z
1/2+x,1/4-y,3/4-z
3/4-x,y,3/4-z
1/2-x,-y,1/2-z
1/4+x,3/4+y,1/2-z
1/2-x,3/4+y,1/4+z
1/4+x,-y,1/4+z
1/2+x,1/2+y,z
3/4-x,3/4-y,z
1/2+x,3/4-y,1/4-z
3/4-x,1/2+y,1/4-z
1/2-x,1/2-y,-z
1/4+x,1/4+y,-z
1/2-x,1/4+y,3/4+z
1/4+x,1/2-y,3/4+z
loop_
_atom_site_type_symbol
_atom_site_label
_atom_site_fract_x
_atom_site_fract_y
_atom_site_fract_z
Si Si1 0.119838 0.875000 0.875000
Si Si2 0.952189 0.510146 0.634305
Si Si3 0.771614 0.375000 0.375000
Si Si4 0.778718 0.958533 0.392213
Si Si5 0.827654 0.893288 0.054475
Si Si6 0.310402 0.528390 0.193567
O O1 0.090175 0.945584 0.903210
O O2 0.153456 0.906888 0.791916
O O3 0.956888 0.500047 0.755406
O O4 0.949990 0.427489 0.590555
O O5 0.991449 0.556714 0.586736
O O6 0.800985 0.332474 0.293148
O O7 0.799124 0.875000 0.375000
O O8 0.727830 0.949051 0.382422
O O9 0.794210 0.014615 0.305534
O O10 0.875000 0.875000 0.019906
O O11 0.831003 0.954106 0.143444
#
# Coordination Sequence:
#
# PCOD8286660 Si02
#       6
#    16  32  16  32  32  32
#     4  11  24  44  59  96 143 171 210 273 338 386
#     4  11  24  43  68  99 135 172 219 277 333 400
#     4  11  25  44  65  94 136 178 224 259 338 401
#     4  11  22  41  73 104 128 173 222 275 339 395
#     4  12  23  43  66  96 130 176 225 277 321 396
#     4  11  23  41  67  99 139 168 219 279 332 397
#
# _framework density 21.651063000000001
#
# number of rings (size 3 to 8) (size 9 to 14) (size 15 to 20)
#    0.000    0.800    7.000    0.900    0.000    0.800 
#    0.000    4.000    0.000    0.000    0.000    0.000 
#    0.000    0.000    0.000    0.000    0.000    0.000 
#
# Total GULP energy -495544.043597 kJ/mol
# GULP energy per Si atom -12388.601090 kJ/mol
# Density = 2.160178 g / cm^3
# Si number density = 21.651063 Si / 1000 Ang^3
#
#
#
# Elastic Constant Matrix: (Units=GPa)
#
#
# Indices 1 2 3 4 5 6 
#
# 1 136.1369 29.7105 35.1707 0.0000 0.0000 0.0000
# 2 29.7105 85.6979 19.3642 0.0000 0.0000 0.0000
# 3 35.1707 19.3642 50.6783 0.0000 0.0000 0.0000
# 4 0.0000 0.0000 0.0000 26.2464 0.0000 0.0000
# 5 0.0000 0.0000 0.0000 0.0000 21.5748 0.0000
# 6 0.0000 0.0000 0.0000 0.0000 0.0000 40.0866
#
#
#
# Elastic Compliance Matrix: (Units=1/GPa)
#
#
# Indices 1 2 3 4 5 6 
#
# 1 0.009230 -0.001918 -0.005672 0.000000 0.000000 0.000000
# 2 -0.001918 0.013170 -0.003701 0.000000 0.000000 0.000000
# 3 -0.005672 -0.003701 0.025083 0.000000 0.000000 0.000000
# 4 0.000000 0.000000 0.000000 0.038100 0.000000 0.000000
# 5 0.000000 0.000000 0.000000 0.000000 0.046350 0.000000
# 6 0.000000 0.000000 0.000000 0.000000 0.000000 0.024946
#
#
# Mechanical properties :
#
#
# Convention : Reuss Voigt Hill
#
# Bulk Modulus (GPa) = 40.16134 49.00044 44.58089
# Shear Modulus (GPa) = 26.62931 30.13274 28.38102
#
# Velocity S-wave (km/s) = 3.51084 3.73466 3.62448
# Velocity P-wave (km/s) = 5.91813 6.42479 6.17666
#
# Compressibility (1/GPa) = 0.02489957
#
# Stress axis : x y z
#
# Youngs Moduli (GPa) = 108.34691 75.92903 39.86732
#
# Poissons Ratio (x) = 0.14564 0.22615
# Poissons Ratio (y) = 0.20782 0.14756
# Poissons Ratio (z) = 0.61459 0.28103
#
# Static dielectric constant tensor:
#      x y z
#    x 4.068500 0.000000 0.000000 
#    y 0.000000 4.032660 0.000000 
#    z 0.000000 0.000000 3.626610 
# 
# 
# High freq. dielectric constant tensor:
#      x y z
#    x 1.865230 0.000000 0.000000 
#    y 0.000000 1.861570 0.000000 
#    z 0.000000 0.000000 1.818640 
# 
# From -- ./inp_files/30951.got.cif
#   From: 2010.03.12/outbox.cif.g09.slc.cpg/sg70_16_cif.got.tgz:30951.got - 2010.04.16 13:46:32.
