data_PCOD8286678
_publ_section_title
;
Structure prediction by ZEFSAII (Michael W. Deem and Ramdas Pophale) SiO2 
 PCOD8286678
Probable space group: F D D D
;
_chemical_formula_sum "Si O2"
_cell_formula_units_Z 176
_cell_length_a 24.181745
_cell_length_b 25.414819
_cell_length_c 12.052217
_cell_angle_alpha 90.000000
_cell_angle_beta 90.000000
_cell_angle_gamma 90.000000
_cell_volume 7406.987313
_symmetry_space_group_name_H-M "F D D D"
_symmetry_group_IT_number 70
_space_group.IT_coordinate_system_code '2'
_symmetry_cell_setting 'orthorhombic'
loop_
_space_group_symop_operation_xyz
x,y,z
1/4-x,1/4-y,z
x,1/4-y,1/4-z
1/4-x,y,1/4-z
-x,-y,-z
3/4+x,3/4+y,-z
-x,3/4+y,3/4+z
3/4+x,-y,3/4+z
x,1/2+y,1/2+z
1/4-x,3/4-y,1/2+z
x,3/4-y,3/4-z
1/4-x,1/2+y,3/4-z
-x,1/2-y,1/2-z
3/4+x,1/4+y,1/2-z
-x,1/4+y,1/4+z
3/4+x,1/2-y,1/4+z
1/2+x,y,1/2+z
3/4-x,1/4-y,1/2+z
1/2+x,1/4-y,3/4-z
3/4-x,y,3/4-z
1/2-x,-y,1/2-z
1/4+x,3/4+y,1/2-z
1/2-x,3/4+y,1/4+z
1/4+x,-y,1/4+z
1/2+x,1/2+y,z
3/4-x,3/4-y,z
1/2+x,3/4-y,1/4-z
3/4-x,1/2+y,1/4-z
1/2-x,1/2-y,-z
1/4+x,1/4+y,-z
1/2-x,1/4+y,3/4+z
1/4+x,1/2-y,3/4+z
loop_
_atom_site_type_symbol
_atom_site_label
_atom_site_fract_x
_atom_site_fract_y
_atom_site_fract_z
Si Si1 0.569384 0.488631 0.281475
Si Si2 0.334316 0.733607 0.684260
Si Si3 0.751869 0.834338 0.693627
Si Si4 0.625000 0.042408 0.125000
Si Si5 0.756077 0.925738 0.317800
Si Si6 0.754436 0.046684 0.838401
O O1 0.631790 0.473023 0.319528
O O2 0.557174 0.551949 0.267455
O O3 0.524825 0.475449 0.378376
O O4 0.559817 0.458298 0.164401
O O5 0.299771 0.684187 0.730134
O O6 0.378534 0.752456 0.772322
O O7 0.295461 0.785057 0.672638
O O8 0.743404 0.826603 0.562500
O O9 0.755021 0.896848 0.718615
O O10 0.570388 0.076659 0.104705
O O11 0.727840 0.875000 0.375000
O O12 0.750000 0.000000 0.750000
#
# Coordination Sequence:
#
# PCOD8286678 Si02
#       6
#    32  32  32  16  32  32
#     4  11  23  43  69 105 143 183 248 300 360 438
#     4  11  24  41  70 105 133 185 238 298 368 435
#     4  11  22  44  70  96 148 186 227 309 364 432
#     4  12  19  38  68 110 142 176 234 293 370 438
#     4  12  21  38  67 107 148 189 229 301 369 445
#     4  11  26  48  68  97 146 196 246 294 357 440
#
# _framework density 23.761348000000002
#
# number of rings (size 3 to 8) (size 9 to 14) (size 15 to 20)
#    0.000    0.727    7.273    1.909    0.000    4.364 
#    3.273    1.818    0.000    4.364    0.000    0.000 
#    0.000    0.000    0.000    0.000    0.000    0.000 
#
# Total GULP energy -545115.319111 kJ/mol
# GULP energy per Si atom -12388.984525 kJ/mol
# Density = 2.370727 g / cm^3
# Si number density = 23.761348 Si / 1000 Ang^3
#
#
#
# Elastic Constant Matrix: (Units=GPa)
#
#
# Indices 1 2 3 4 5 6 
#
# 1 94.0816 38.2583 42.5492 0.0000 0.0000 0.0000
# 2 38.2583 169.8198 32.2911 0.0000 0.0000 0.0000
# 3 42.5492 32.2911 90.9182 -0.0002 0.0001 0.0000
# 4 0.0000 0.0000 -0.0002 33.2400 0.0001 0.0000
# 5 0.0000 0.0000 0.0001 0.0001 47.6081 0.0000
# 6 0.0000 0.0000 0.0000 0.0000 0.0000 11.2640
#
#
#
# Elastic Compliance Matrix: (Units=1/GPa)
#
#
# Indices 1 2 3 4 5 6 
#
# 1 0.014127 -0.002065 -0.005878 0.000000 0.000000 0.000000
# 2 -0.002065 0.006617 -0.001384 0.000000 0.000000 0.000000
# 3 -0.005878 -0.001384 0.014241 0.000000 0.000000 0.000000
# 4 0.000000 0.000000 0.000000 0.030084 0.000000 0.000000
# 5 0.000000 0.000000 0.000000 0.000000 0.021005 0.000000
# 6 0.000000 0.000000 0.000000 0.000000 0.000000 0.088779
#
#
# Mechanical properties :
#
#
# Convention : Reuss Voigt Hill
#
# Bulk Modulus (GPa) = 61.22986 64.55741 62.89363
# Shear Modulus (GPa) = 25.13188 34.53715 29.83451
#
# Velocity S-wave (km/s) = 3.25573 3.81662 3.54727
# Velocity P-wave (km/s) = 6.32120 6.83009 6.58057
#
# Compressibility (1/GPa) = 0.01633190
#
# Stress axis : x y z
#
# Youngs Moduli (GPa) = 70.78556 151.12780 70.21865
#
# Poissons Ratio (x) = 0.31207 0.41275
# Poissons Ratio (y) = 0.14617 0.09716
# Poissons Ratio (z) = 0.41608 0.20912
#
# Static dielectric constant tensor:
#      x y z
#    x 4.262180 0.000000 0.000000 
#    y 0.000000 4.436520 0.000000 
#    z 0.000000 0.000000 4.562450 
# 
# 
# High freq. dielectric constant tensor:
#      x y z
#    x 1.920490 0.000000 0.000000 
#    y 0.000000 1.936590 0.000000 
#    z 0.000000 0.000000 1.955380 
# 
# From -- ./inp_files/20956.got.cif
#   From: 2010.03.12/outbox.cif.g09.slc.cpg/sg70_11_cif.got.tgz:20956.got - 2010.04.16 13:46:32.
