data_PCOD8286009
_publ_section_title
;
Structure prediction by ZEFSAII (Michael W. Deem and Ramdas Pophale) SiO2 
 PCOD8286009
Probable space group: F D D D
;
_chemical_formula_sum "Si O2"
_cell_formula_units_Z 192
_cell_length_a 18.609766
_cell_length_b 26.851168
_cell_length_c 18.960013
_cell_angle_alpha 90.000000
_cell_angle_beta 90.000000
_cell_angle_gamma 90.000000
_cell_volume 9474.203851
_symmetry_space_group_name_H-M "F D D D"
_symmetry_group_IT_number 70
_space_group.IT_coordinate_system_code '2'
_symmetry_cell_setting 'orthorhombic'
loop_
_space_group_symop_operation_xyz
x,y,z
1/4-x,1/4-y,z
x,1/4-y,1/4-z
1/4-x,y,1/4-z
-x,-y,-z
3/4+x,3/4+y,-z
-x,3/4+y,3/4+z
3/4+x,-y,3/4+z
x,1/2+y,1/2+z
1/4-x,3/4-y,1/2+z
x,3/4-y,3/4-z
1/4-x,1/2+y,3/4-z
-x,1/2-y,1/2-z
3/4+x,1/4+y,1/2-z
-x,1/4+y,1/4+z
3/4+x,1/2-y,1/4+z
1/2+x,y,1/2+z
3/4-x,1/4-y,1/2+z
1/2+x,1/4-y,3/4-z
3/4-x,y,3/4-z
1/2-x,-y,1/2-z
1/4+x,3/4+y,1/2-z
1/2-x,3/4+y,1/4+z
1/4+x,-y,1/4+z
1/2+x,1/2+y,z
3/4-x,3/4-y,z
1/2+x,3/4-y,1/4-z
3/4-x,1/2+y,1/4-z
1/2-x,1/2-y,-z
1/4+x,1/4+y,-z
1/2-x,1/4+y,3/4+z
1/4+x,1/2-y,3/4+z
loop_
_atom_site_type_symbol
_atom_site_label
_atom_site_fract_x
_atom_site_fract_y
_atom_site_fract_z
Si Si1 0.049644 0.028329 0.443126
Si Si2 0.875000 0.375000 0.672743
Si Si3 0.376877 0.639658 0.276462
Si Si4 0.814992 0.535721 0.920961
Si Si5 0.662399 0.875000 0.875000
Si Si6 0.009226 0.428529 0.621323
Si Si7 0.443308 0.228193 0.574840
O O1 0.089730 0.079650 0.469854
O O2 0.004029 0.046671 0.376162
O O3 0.108295 0.988939 0.415079
O O4 0.000000 0.000000 0.500000
O O5 0.815609 0.351109 0.621072
O O6 0.390876 0.584341 0.304373
O O7 0.364784 0.642073 0.192155
O O8 0.305296 0.660123 0.311824
O O9 0.447104 0.671857 0.298643
O O10 0.875000 0.504806 0.875000
O O11 0.789407 0.509138 0.992564
O O12 0.710728 0.921444 0.902011
O O13 0.993892 0.487174 0.628137
#
# Coordination Sequence:
#
# PCOD8286009 Si02
#       7
#    32  16  32  32  16  32  32
#     4  11  21  35  60  92 125 167 205 253 311 383
#     4  10  20  36  58  94 130 154 214 256 296 380
#     4  10  20  39  67  85 120 167 208 250 315 374
#     4  11  18  36  58  86 123 163 200 244 306 379
#     4  10  24  40  60  92 120 158 208 270 302 370
#     4  10  20  38  63  92 117 170 204 255 309 389
#     4  10  24  37  59  91 120 160 212 254 319 371
#
# _framework density 20.265554999999999
#
# number of rings (size 3 to 8) (size 9 to 14) (size 15 to 20)
#    0.000    1.667    5.000    0.000    4.667    0.667 
#    0.000    0.000    0.000    6.500    0.000    0.000 
#    0.000    0.000    0.000    0.000    0.000    0.000 
#
# Total GULP energy -594675.204516 kJ/mol
# GULP energy per Si atom -12389.066761 kJ/mol
# Density = 2.021943 g / cm^3
# Si number density = 20.265555 Si / 1000 Ang^3
#
#
#
# Elastic Constant Matrix: (Units=GPa)
#
#
# Indices 1 2 3 4 5 6 
#
# 1 100.4474 37.0921 35.6283 0.0000 0.0000 0.0000
# 2 37.0921 106.7740 25.8342 0.0000 0.0000 0.0000
# 3 35.6283 25.8342 122.2006 0.0000 0.0000 0.0000
# 4 0.0000 0.0000 0.0000 23.2537 0.0000 0.0000
# 5 0.0000 0.0000 0.0000 0.0000 20.7659 0.0000
# 6 0.0000 0.0000 0.0000 0.0000 0.0000 29.7298
#
#
#
# Elastic Compliance Matrix: (Units=1/GPa)
#
#
# Indices 1 2 3 4 5 6 
#
# 1 0.012280 -0.003583 -0.002823 0.000000 0.000000 0.000000
# 2 -0.003583 0.010916 -0.001263 0.000000 0.000000 0.000000
# 3 -0.002823 -0.001263 0.009273 0.000000 0.000000 0.000000
# 4 0.000000 0.000000 0.000000 0.043004 0.000000 0.000000
# 5 0.000000 0.000000 0.000000 0.000000 0.048156 0.000000
# 6 0.000000 0.000000 0.000000 0.000000 0.000000 0.033636
#
#
# Mechanical properties :
#
#
# Convention : Reuss Voigt Hill
#
# Bulk Modulus (GPa) = 58.37242 58.50348 58.43795
# Shear Modulus (GPa) = 28.04063 30.14105 29.09084
#
# Velocity S-wave (km/s) = 3.72379 3.86074 3.79289
# Velocity P-wave (km/s) = 6.88151 6.98605 6.93397
#
# Compressibility (1/GPa) = 0.01713138
#
# Stress axis : x y z
#
# Youngs Moduli (GPa) = 81.43505 91.61006 107.83654
#
# Poissons Ratio (x) = 0.32823 0.30440
# Poissons Ratio (y) = 0.29177 0.13621
# Poissons Ratio (z) = 0.22987 0.11571
#
# Static dielectric constant tensor:
#      x y z
#    x 3.660350 0.000000 0.000000 
#    y 0.000000 3.834130 0.000000 
#    z 0.000000 0.000000 3.945640 
# 
# 
# High freq. dielectric constant tensor:
#      x y z
#    x 1.783170 0.000000 0.000000 
#    y 0.000000 1.791290 0.000000 
#    z 0.000000 0.000000 1.772520 
# 
# From -- ./inp_files/35521.got.cif
#   From: 2010.03.12/outbox.cif.g09.slc.cpg/sg70_18_cif.got.tgz:35521.got - 2010.04.16 13:46:32.
