data_PCOD8286826
_publ_section_title
;
Structure prediction by ZEFSAII (Michael W. Deem and Ramdas Pophale) SiO2 
 PCOD8286826
Probable space group: F D D D
;
_chemical_formula_sum "Si O2"
_cell_formula_units_Z 128
_cell_length_a 11.520864
_cell_length_b 22.087300
_cell_length_c 20.675019
_cell_angle_alpha 90.000000
_cell_angle_beta 90.000000
_cell_angle_gamma 90.000000
_cell_volume 5261.064149
_symmetry_space_group_name_H-M "F D D D"
_symmetry_group_IT_number 70
_space_group.IT_coordinate_system_code '2'
_symmetry_cell_setting 'orthorhombic'
loop_
_space_group_symop_operation_xyz
x,y,z
1/4-x,1/4-y,z
x,1/4-y,1/4-z
1/4-x,y,1/4-z
-x,-y,-z
3/4+x,3/4+y,-z
-x,3/4+y,3/4+z
3/4+x,-y,3/4+z
x,1/2+y,1/2+z
1/4-x,3/4-y,1/2+z
x,3/4-y,3/4-z
1/4-x,1/2+y,3/4-z
-x,1/2-y,1/2-z
3/4+x,1/4+y,1/2-z
-x,1/4+y,1/4+z
3/4+x,1/2-y,1/4+z
1/2+x,y,1/2+z
3/4-x,1/4-y,1/2+z
1/2+x,1/4-y,3/4-z
3/4-x,y,3/4-z
1/2-x,-y,1/2-z
1/4+x,3/4+y,1/2-z
1/2-x,3/4+y,1/4+z
1/4+x,-y,1/4+z
1/2+x,1/2+y,z
3/4-x,3/4-y,z
1/2+x,3/4-y,1/4-z
3/4-x,1/2+y,1/4-z
1/2-x,1/2-y,-z
1/4+x,1/4+y,-z
1/2-x,1/4+y,3/4+z
1/4+x,1/2-y,3/4+z
loop_
_atom_site_type_symbol
_atom_site_label
_atom_site_fract_x
_atom_site_fract_y
_atom_site_fract_z
Si Si1 0.717326 0.580538 0.536369
Si Si2 0.875000 0.731656 0.375000
Si Si3 0.129582 0.539840 0.344194
Si Si4 0.375000 0.875000 0.543477
Si Si5 0.805626 0.653919 0.187034
O O1 0.625000 0.625000 0.569582
O O2 0.701874 0.516785 0.572016
O O3 0.689288 0.574943 0.460857
O O4 0.843328 0.607076 0.546327
O O5 0.770347 0.695751 0.411509
O O6 0.081339 0.569046 0.411343
O O7 0.104947 0.468894 0.334353
O O8 0.275959 0.905264 0.499433
O O9 0.739402 0.625000 0.125000
#
# Coordination Sequence:
#
# PCOD8286826 Si02
#       5
#    32  16  32  16  32
#     4  12  23  44  74 113 149 193 254 318 384 452
#     4  12  23  46  76 114 156 198 261 312 394 462
#     4  12  27  46  78 117 151 206 254 329 385 467
#     4  12  31  52  74 115 160 210 260 318 396 467
#     4  12  27  53  78 111 156 208 264 318 388 468
#
# _framework density 24.329677
#
# number of rings (size 3 to 8) (size 9 to 14) (size 15 to 20)
#    0.000    0.000    6.250    3.000    3.500    2.000 
#    4.500    0.000    0.000    0.000    0.000    0.000 
#    0.000    0.000    0.000    0.000    0.000    0.000 
#
# Total GULP energy -396539.364557 kJ/mol
# GULP energy per Si atom -12391.855142 kJ/mol
# Density = 2.427430 g / cm^3
# Si number density = 24.329677 Si / 1000 Ang^3
#
#
#
# Elastic Constant Matrix: (Units=GPa)
#
#
# Indices 1 2 3 4 5 6 
#
# 1 83.4618 38.9840 49.2949 0.0000 0.0000 0.0000
# 2 38.9840 105.2910 55.2900 0.0000 0.0000 0.0000
# 3 49.2949 55.2900 177.6630 0.0000 0.0000 0.0000
# 4 0.0000 0.0000 0.0000 22.9627 0.0000 0.0000
# 5 0.0000 0.0000 0.0000 0.0000 41.5379 0.0000
# 6 0.0000 0.0000 0.0000 0.0000 0.0000 34.6856
#
#
#
# Elastic Compliance Matrix: (Units=1/GPa)
#
#
# Indices 1 2 3 4 5 6 
#
# 1 0.015763 -0.004231 -0.003057 0.000000 0.000000 0.000000
# 2 -0.004231 0.012488 -0.002713 0.000000 0.000000 0.000000
# 3 -0.003057 -0.002713 0.007321 0.000000 0.000000 0.000000
# 4 0.000000 0.000000 0.000000 0.043549 0.000000 0.000000
# 5 0.000000 0.000000 0.000000 0.000000 0.024074 0.000000
# 6 0.000000 0.000000 0.000000 0.000000 0.000000 0.028830
#
#
# Mechanical properties :
#
#
# Convention : Reuss Voigt Hill
#
# Bulk Modulus (GPa) = 64.21963 72.61707 68.41835
# Shear Modulus (GPa) = 31.80292 34.69370 33.24831
#
# Velocity S-wave (km/s) = 3.61940 3.78032 3.70073
# Velocity P-wave (km/s) = 6.62719 6.99759 6.81491
#
# Compressibility (1/GPa) = 0.01557156
#
# Stress axis : x y z
#
# Youngs Moduli (GPa) = 63.43814 80.07408 136.59344
#
# Poissons Ratio (x) = 0.33880 0.41757
# Poissons Ratio (y) = 0.26841 0.37051
# Poissons Ratio (z) = 0.19393 0.21720
#
# Static dielectric constant tensor:
#      x y z
#    x 4.269310 0.000000 0.000000 
#    y 0.000000 4.696780 0.000000 
#    z 0.000000 0.000000 4.812440 
# 
# 
# High freq. dielectric constant tensor:
#      x y z
#    x 1.946760 0.000000 0.000000 
#    y 0.000000 1.971220 0.000000 
#    z 0.000000 0.000000 1.995300 
# 
# From -- ./inp_files/50111.got.cif
#   From: 2010.03.12/outbox.cif.g09.slc.cpg/sg70_26_cif.got.tgz:50111.got - 2010.04.16 13:46:32.
