data_PCOD8286095
_publ_section_title
;
Structure prediction by ZEFSAII (Michael W. Deem and Ramdas Pophale) SiO2 
 PCOD8286095
Probable space group: F D D D
;
_chemical_formula_sum "Si O2"
_cell_formula_units_Z 176
_cell_length_a 11.447959
_cell_length_b 24.711514
_cell_length_c 29.408876
_cell_angle_alpha 90.000000
_cell_angle_beta 90.000000
_cell_angle_gamma 90.000000
_cell_volume 8319.665122
_symmetry_space_group_name_H-M "F D D D"
_symmetry_group_IT_number 70
_space_group.IT_coordinate_system_code '2'
_symmetry_cell_setting 'orthorhombic'
loop_
_space_group_symop_operation_xyz
x,y,z
1/4-x,1/4-y,z
x,1/4-y,1/4-z
1/4-x,y,1/4-z
-x,-y,-z
3/4+x,3/4+y,-z
-x,3/4+y,3/4+z
3/4+x,-y,3/4+z
x,1/2+y,1/2+z
1/4-x,3/4-y,1/2+z
x,3/4-y,3/4-z
1/4-x,1/2+y,3/4-z
-x,1/2-y,1/2-z
3/4+x,1/4+y,1/2-z
-x,1/4+y,1/4+z
3/4+x,1/2-y,1/4+z
1/2+x,y,1/2+z
3/4-x,1/4-y,1/2+z
1/2+x,1/4-y,3/4-z
3/4-x,y,3/4-z
1/2-x,-y,1/2-z
1/4+x,3/4+y,1/2-z
1/2-x,3/4+y,1/4+z
1/4+x,-y,1/4+z
1/2+x,1/2+y,z
3/4-x,3/4-y,z
1/2+x,3/4-y,1/4-z
3/4-x,1/2+y,1/4-z
1/2-x,1/2-y,-z
1/4+x,1/4+y,-z
1/2-x,1/4+y,3/4+z
1/4+x,1/2-y,3/4+z
loop_
_atom_site_type_symbol
_atom_site_label
_atom_site_fract_x
_atom_site_fract_y
_atom_site_fract_z
Si Si1 0.999581 0.890193 0.750606
Si Si2 0.447956 0.688177 0.479520
Si Si3 0.209313 0.537180 0.583107
Si Si4 0.050819 0.012558 0.393143
Si Si5 0.669075 0.256020 0.198973
Si Si6 0.375000 0.875000 0.672153
O O1 0.875000 0.875000 0.728146
O O2 0.973459 0.910089 0.801779
O O3 0.082292 0.837156 0.752321
O O4 0.060246 0.935320 0.720040
O O5 0.408191 0.737031 0.446366
O O6 0.540453 0.709717 0.516494
O O7 0.514277 0.641754 0.452187
O O8 0.125000 0.550307 0.625000
O O9 0.336359 0.524056 0.602188
O O10 0.084146 0.075745 0.390558
O O11 0.990351 0.996837 0.346745
O O12 0.968141 0.000559 0.436936
#
# Coordination Sequence:
#
# PCOD8286095 Si02
#       6
#    32  32  32  32  32  16
#     4  11  25  40  64  93 127 172 214 265 324 399
#     4  10  23  40  67  94 122 170 214 266 323 385
#     4  10  25  42  63  92 133 170 211 267 325 387
#     4  10  22  41  65  95 127 167 209 276 324 378
#     4  10  23  41  65  94 129 161 217 271 326 380
#     4  10  20  38  68  93 120 158 215 262 322 378
#
# _framework density 21.154698
#
# number of rings (size 3 to 8) (size 9 to 14) (size 15 to 20)
#    0.000    1.818    1.818    0.000    8.909    5.455 
#    0.000    0.000    0.000    0.000    0.000    0.000 
#    0.000    0.000    0.000    0.000    0.000    0.000 
#
# Total GULP energy -545697.373826 kJ/mol
# GULP energy per Si atom -12402.213042 kJ/mol
# Density = 2.110655 g / cm^3
# Si number density = 21.154698 Si / 1000 Ang^3
#
#
#
# Elastic Constant Matrix: (Units=GPa)
#
#
# Indices 1 2 3 4 5 6 
#
# 1 117.4978 16.6849 24.9462 0.0000 0.0000 0.0000
# 2 16.6849 39.9385 4.2695 0.0000 0.0000 0.0000
# 3 24.9462 4.2695 86.2702 0.0000 0.0000 0.0000
# 4 0.0000 0.0000 0.0000 0.6380 0.0000 0.0000
# 5 0.0000 0.0000 0.0000 0.0000 32.5412 0.0000
# 6 0.0000 0.0000 0.0000 0.0000 0.0000 31.5902
#
#
#
# Elastic Compliance Matrix: (Units=1/GPa)
#
#
# Indices 1 2 3 4 5 6 
#
# 1 0.009590 -0.003730 -0.002588 0.000000 0.000000 0.000000
# 2 -0.003730 0.026622 -0.000239 0.000000 0.000000 0.000000
# 3 -0.002588 -0.000239 0.012352 0.000000 0.000000 0.000000
# 4 0.000000 0.000000 0.000000 1.567355 0.000000 0.000000
# 5 0.000000 0.000000 0.000000 0.000000 0.030730 0.000000
# 6 0.000000 0.000000 0.000000 0.000000 0.000000 0.031655
#
#
# Mechanical properties :
#
#
# Convention : Reuss Voigt Hill
#
# Bulk Modulus (GPa) = 28.20908 37.27864 32.74386
# Shear Modulus (GPa) = 2.93559 26.14095 14.53827
#
# Velocity S-wave (km/s) = 1.17928 3.51907 2.62436
# Velocity P-wave (km/s) = 3.90101 5.84568 4.96940
#
# Compressibility (1/GPa) = 0.03544958
#
# Stress axis : x y z
#
# Youngs Moduli (GPa) = 104.27545 37.56267 80.95978
#
# Poissons Ratio (x) = 0.14010 0.20956
# Poissons Ratio (y) = 0.38891 0.01935
# Poissons Ratio (z) = 0.26992 0.00898
#
# Static dielectric constant tensor:
#      x y z
#    x 3.970140 0.000000 0.000000 
#    y 0.000000 3.705220 0.000000 
#    z 0.000000 0.000000 3.787290 
# 
# 
# High freq. dielectric constant tensor:
#      x y z
#    x 1.841820 0.000000 0.000000 
#    y 0.000000 1.823990 0.000000 
#    z 0.000000 0.000000 1.829040 
# 
# From -- ./inp_files/19617.got.cif
#   From: 2010.03.12/outbox.cif.g09.slc.cpg/sg70_10_cif.got.tgz:19617.got - 2010.04.16 13:46:32.
