data_PCOD8286127
_publ_section_title
;
Structure prediction by ZEFSAII (Michael W. Deem and Ramdas Pophale) SiO2 
 PCOD8286127
Probable space group: F D D D
;
_chemical_formula_sum "Si O2"
_cell_formula_units_Z 208
_cell_length_a 21.190412
_cell_length_b 26.744748
_cell_length_c 16.557527
_cell_angle_alpha 90.000000
_cell_angle_beta 90.000000
_cell_angle_gamma 90.000000
_cell_volume 9383.684183
_symmetry_space_group_name_H-M "F D D D"
_symmetry_group_IT_number 70
_space_group.IT_coordinate_system_code '2'
_symmetry_cell_setting 'orthorhombic'
loop_
_space_group_symop_operation_xyz
x,y,z
1/4-x,1/4-y,z
x,1/4-y,1/4-z
1/4-x,y,1/4-z
-x,-y,-z
3/4+x,3/4+y,-z
-x,3/4+y,3/4+z
3/4+x,-y,3/4+z
x,1/2+y,1/2+z
1/4-x,3/4-y,1/2+z
x,3/4-y,3/4-z
1/4-x,1/2+y,3/4-z
-x,1/2-y,1/2-z
3/4+x,1/4+y,1/2-z
-x,1/4+y,1/4+z
3/4+x,1/2-y,1/4+z
1/2+x,y,1/2+z
3/4-x,1/4-y,1/2+z
1/2+x,1/4-y,3/4-z
3/4-x,y,3/4-z
1/2-x,-y,1/2-z
1/4+x,3/4+y,1/2-z
1/2-x,3/4+y,1/4+z
1/4+x,-y,1/4+z
1/2+x,1/2+y,z
3/4-x,3/4-y,z
1/2+x,3/4-y,1/4-z
3/4-x,1/2+y,1/4-z
1/2-x,1/2-y,-z
1/4+x,1/4+y,-z
1/2-x,1/4+y,3/4+z
1/4+x,1/2-y,3/4+z
loop_
_atom_site_type_symbol
_atom_site_label
_atom_site_fract_x
_atom_site_fract_y
_atom_site_fract_z
Si Si1 0.740204 0.059134 0.837918
Si Si2 0.587513 0.724342 0.200227
Si Si3 0.125000 0.488206 0.125000
Si Si4 0.074893 0.497905 0.283382
Si Si5 0.012826 0.834886 0.160930
Si Si6 0.453341 0.762772 0.558247
Si Si7 0.184326 0.323930 0.417111
O O1 0.798550 0.021116 0.834034
O O2 0.768073 0.110368 0.872173
O O3 0.709062 0.064219 0.747848
O O4 0.685007 0.039326 0.897764
O O5 0.625000 0.698507 0.125000
O O6 0.636461 0.744900 0.266065
O O7 0.112781 0.521468 0.205459
O O8 0.183708 0.451007 0.126501
O O9 0.117631 0.451547 0.311630
O O10 0.005765 0.476897 0.260137
O O11 0.018869 0.835487 0.257678
O O12 0.949603 0.807893 0.125397
O O13 0.472090 0.711853 0.605691
O O14 0.165828 0.375000 0.375000
#
# Coordination Sequence:
#
# PCOD8286127 Si02
#       7
#    32  32  16  32  32  32  32
#     4  11  23  41  68  96 130 178 223 270 330 393
#     4  11  24  41  67  94 135 180 217 277 328 392
#     4   8  20  38  62  94 127 166 215 282 318 380
#     4  10  20  40  63  96 129 166 213 275 326 381
#     4  10  23  40  66  95 130 170 217 270 333 396
#     4  11  22  42  64  94 138 170 214 272 335 394
#     4  11  23  41  70  99 125 171 225 276 330 394
#
# _framework density 22.166132999999999
#
# number of rings (size 3 to 8) (size 9 to 14) (size 15 to 20)
#    0.000    1.538    3.077    1.385    1.077    3.077 
#    0.000    1.538    0.000    0.000    0.000    0.000 
#    0.000    0.000    0.000    0.000    0.000    0.000 
#
# Total GULP energy -644254.789738 kJ/mol
# GULP energy per Si atom -12389.515187 kJ/mol
# Density = 2.211568 g / cm^3
# Si number density = 22.166133 Si / 1000 Ang^3
#
#
#
# Elastic Constant Matrix: (Units=GPa)
#
#
# Indices 1 2 3 4 5 6 
#
# 1 78.3303 22.8653 46.0742 0.0000 0.0000 0.0000
# 2 22.8653 76.6293 31.6167 0.0000 0.0000 0.0000
# 3 46.0742 31.6167 122.7285 0.0000 0.0000 0.0000
# 4 0.0000 0.0000 0.0000 29.6669 0.0000 0.0000
# 5 0.0000 0.0000 0.0000 0.0000 41.4533 0.0000
# 6 0.0000 0.0000 0.0000 0.0000 0.0000 8.4215
#
#
#
# Elastic Compliance Matrix: (Units=1/GPa)
#
#
# Indices 1 2 3 4 5 6 
#
# 1 0.016873 -0.002709 -0.005636 0.000000 0.000000 0.000000
# 2 -0.002709 0.015037 -0.002857 0.000000 0.000000 0.000000
# 3 -0.005636 -0.002857 0.011000 0.000000 0.000000 0.000000
# 4 0.000000 0.000000 0.000000 0.033708 0.000000 0.000000
# 5 0.000000 0.000000 0.000000 0.000000 0.024124 0.000000
# 6 0.000000 0.000000 0.000000 0.000000 0.000000 0.118743
#
#
# Mechanical properties :
#
#
# Convention : Reuss Voigt Hill
#
# Bulk Modulus (GPa) = 48.76813 53.20005 50.98409
# Shear Modulus (GPa) = 20.10269 27.71713 23.90991
#
# Velocity S-wave (km/s) = 3.01476 3.53997 3.28787
# Velocity P-wave (km/s) = 5.84528 6.38445 6.12081
#
# Compressibility (1/GPa) = 0.02050519
#
# Stress axis : x y z
#
# Youngs Moduli (GPa) = 59.26777 66.50327 90.90943
#
# Poissons Ratio (x) = 0.18016 0.51240
# Poissons Ratio (y) = 0.16056 0.25970
# Poissons Ratio (z) = 0.33405 0.18998
#
# Static dielectric constant tensor:
#      x y z
#    x 4.158070 0.000000 0.000000 
#    y 0.000000 3.571640 0.000000 
#    z 0.000000 0.000000 4.923040 
# 
# 
# High freq. dielectric constant tensor:
#      x y z
#    x 1.880960 0.000000 0.000000 
#    y 0.000000 1.823130 0.000000 
#    z 0.000000 0.000000 1.903520 
# 
# From -- ./inp_files/36706.got.cif
#   From: 2010.03.12/outbox.cif.g09.slc.cpg/sg70_19_cif.got.tgz:36706.got - 2010.04.16 13:46:32.
