data_PCOD8286345
_publ_section_title
;
Structure prediction by ZEFSAII (Michael W. Deem and Ramdas Pophale) SiO2 
 PCOD8286345
Probable space group: F D D D
;
_chemical_formula_sum "Si O2"
_cell_formula_units_Z 120
_cell_length_a 33.552425
_cell_length_b 15.622769
_cell_length_c 11.256947
_cell_angle_alpha 90.000000
_cell_angle_beta 90.000000
_cell_angle_gamma 90.000000
_cell_volume 5900.686574
_symmetry_space_group_name_H-M "F D D D"
_symmetry_group_IT_number 70
_space_group.IT_coordinate_system_code '2'
_symmetry_cell_setting 'orthorhombic'
loop_
_space_group_symop_operation_xyz
x,y,z
1/4-x,1/4-y,z
x,1/4-y,1/4-z
1/4-x,y,1/4-z
-x,-y,-z
3/4+x,3/4+y,-z
-x,3/4+y,3/4+z
3/4+x,-y,3/4+z
x,1/2+y,1/2+z
1/4-x,3/4-y,1/2+z
x,3/4-y,3/4-z
1/4-x,1/2+y,3/4-z
-x,1/2-y,1/2-z
3/4+x,1/4+y,1/2-z
-x,1/4+y,1/4+z
3/4+x,1/2-y,1/4+z
1/2+x,y,1/2+z
3/4-x,1/4-y,1/2+z
1/2+x,1/4-y,3/4-z
3/4-x,y,3/4-z
1/2-x,-y,1/2-z
1/4+x,3/4+y,1/2-z
1/2-x,3/4+y,1/4+z
1/4+x,-y,1/4+z
1/2+x,1/2+y,z
3/4-x,3/4-y,z
1/2+x,3/4-y,1/4-z
3/4-x,1/2+y,1/4-z
1/2-x,1/2-y,-z
1/4+x,1/4+y,-z
1/2-x,1/4+y,3/4+z
1/4+x,1/2-y,3/4+z
loop_
_atom_site_type_symbol
_atom_site_label
_atom_site_fract_x
_atom_site_fract_y
_atom_site_fract_z
Si Si1 0.044032 0.867039 0.604627
Si Si2 0.590606 0.485534 0.964477
Si Si3 0.125000 0.125000 0.125000
Si Si4 0.591227 0.875000 0.875000
Si Si5 0.984191 0.536703 0.689392
O O1 0.078432 0.841489 0.697913
O O2 0.063126 0.901950 0.484357
O O3 0.019836 0.943895 0.669185
O O4 0.017775 0.783413 0.579455
O O5 0.632227 0.458135 0.904503
O O6 0.556952 0.500136 0.865041
O O7 0.596157 0.570702 0.040703
O O8 0.996870 0.625000 0.625000
#
# Coordination Sequence:
#
# PCOD8286345 Si02
#       5
#    32  32   8  16  32
#     4  11  23  38  64  91 130 168 216 262 324 383
#     4  11  22  38  64  95 125 168 215 269 322 379
#     4  12  24  36  66  98 120 158 228 272 302 390
#     4  12  22  40  63  96 132 181 205 262 340 395
#     4  10  22  39  63  93 129 165 214 270 318 380
#
# _framework density 20.336618000000001
#
# number of rings (size 3 to 8) (size 9 to 14) (size 15 to 20)
#    0.000    1.067    6.667    3.200    5.600    1.067 
#    0.000    0.000    0.000    1.600    0.000    0.000 
#    0.000    0.000    0.000    0.000    0.000    0.000 
#
# Total GULP energy -372030.420975 kJ/mol
# GULP energy per Si atom -12401.014033 kJ/mol
# Density = 2.029033 g / cm^3
# Si number density = 20.336618 Si / 1000 Ang^3
#
#
#
# Elastic Constant Matrix: (Units=GPa)
#
#
# Indices 1 2 3 4 5 6 
#
# 1 93.5031 42.6197 65.5763 0.0000 0.0000 0.0000
# 2 42.6197 85.2415 41.4907 0.0000 0.0000 0.0000
# 3 65.5763 41.4907 135.8899 0.0000 0.0000 0.0000
# 4 0.0000 0.0000 0.0000 41.9611 0.0000 0.0000
# 5 0.0000 0.0000 0.0000 0.0000 28.4311 0.0000
# 6 0.0000 0.0000 0.0000 0.0000 0.0000 34.8200
#
#
#
# Elastic Compliance Matrix: (Units=1/GPa)
#
#
# Indices 1 2 3 4 5 6 
#
# 1 0.018241 -0.005680 -0.007068 0.000000 0.000000 0.000000
# 2 -0.005680 0.015548 -0.002006 0.000000 0.000000 0.000000
# 3 -0.007068 -0.002006 0.011382 0.000000 0.000000 0.000000
# 4 0.000000 0.000000 0.000000 0.023832 0.000000 0.000000
# 5 0.000000 0.000000 0.000000 0.000000 0.035173 0.000000
# 6 0.000000 0.000000 0.000000 0.000000 0.000000 0.028719
#
#
# Mechanical properties :
#
#
# Convention : Reuss Voigt Hill
#
# Bulk Modulus (GPa) = 63.84726 68.22309 66.03517
# Shear Modulus (GPa) = 29.82864 32.03895 30.93379
#
# Velocity S-wave (km/s) = 3.83397 3.97348 3.90434
# Velocity P-wave (km/s) = 7.14580 7.39399 7.27095
#
# Compressibility (1/GPa) = 0.01566238
#
# Stress axis : x y z
#
# Youngs Moduli (GPa) = 54.82164 64.31812 87.85472
#
# Poissons Ratio (x) = 0.36531 0.62099
# Poissons Ratio (y) = 0.31138 0.17626
# Poissons Ratio (z) = 0.38750 0.12904
#
# Static dielectric constant tensor:
#      x y z
#    x 3.859350 0.000000 0.000000 
#    y 0.000000 3.468490 0.000000 
#    z 0.000000 0.000000 4.053060 
# 
# 
# High freq. dielectric constant tensor:
#      x y z
#    x 1.802060 0.000000 0.000000 
#    y 0.000000 1.764050 0.000000 
#    z 0.000000 0.000000 1.801170 
# 
# From -- ./inp_files/16523.got.cif
#   From: 2010.03.12/outbox.cif.g09.slc.cpg/sg70_9_cif.got.tgz:16523.got - 2010.04.16 13:46:32.
