data_PCOD8286890
_publ_section_title
;
Structure prediction by ZEFSAII (Michael W. Deem and Ramdas Pophale) SiO2 
 PCOD8286890
Probable space group: I M M M
;
_chemical_formula_sum "Si O2"
_cell_formula_units_Z 96
_cell_length_a 9.785087
_cell_length_b 28.035127
_cell_length_c 28.198258
_cell_angle_alpha 90.000000
_cell_angle_beta 90.000000
_cell_angle_gamma 90.000000
_cell_volume 7735.519744
_symmetry_space_group_name_H-M "I M M M"
_symmetry_group_IT_number 71
_symmetry_cell_setting 'orthorhombic'
loop_
_space_group_symop_operation_xyz
x,y,z
-x,-y,z
x,-y,-z
-x,y,-z
-x,-y,-z
x,y,-z
-x,y,z
x,-y,z
1/2+x,1/2+y,1/2+z
1/2-x,1/2-y,1/2+z
1/2+x,1/2-y,1/2-z
1/2-x,1/2+y,1/2-z
1/2-x,1/2-y,1/2-z
1/2+x,1/2+y,1/2-z
1/2-x,1/2+y,1/2+z
1/2+x,1/2-y,1/2+z
loop_
_atom_site_type_symbol
_atom_site_label
_atom_site_fract_x
_atom_site_fract_y
_atom_site_fract_z
Si Si1 0.660626 0.373081 0.650720
Si Si2 0.842687 0.444470 0.401828
Si Si3 0.347274 0.779216 0.313082
Si Si4 0.157476 0.605410 0.500000
Si Si5 0.349172 0.680508 0.256857
Si Si6 0.340369 0.301469 0.500000
Si Si7 0.160225 0.222052 0.102017
O O1 0.500000 0.382647 0.642263
O O2 0.746729 0.419450 0.637016
O O3 0.690788 0.360741 0.705775
O O4 0.716556 0.329609 0.617960
O O5 0.809242 0.500000 0.399969
O O6 0.808159 0.426304 0.454399
O O7 0.000000 0.434002 0.388906
O O8 0.500000 0.800598 0.316952
O O9 0.348475 0.730780 0.283373
O O10 0.254514 0.819023 0.287530
O O11 0.283913 0.765540 0.365167
O O12 0.253255 0.651070 0.500000
O O13 0.000000 0.622268 0.500000
O O14 0.500000 0.670561 0.236316
O O15 0.500000 0.316137 0.500000
O O16 0.305226 0.269808 0.546551
O O17 0.000000 0.220841 0.112748
#
# Coordination Sequence:
#
# PCOD8286890 Si02
#       7
#    16  16  16   8  16   8  16
#     4   9  16  27  40  53  67  83 107 140 173 207
#     4  10  20  31  40  50  66  87 111 142 181 220
#     4   8  13  22  34  49  68  87 106 128 157 197
#     4  10  19  30  40  50  64  84 112 146 182 215
#     4   8  14  23  35  51  69  84 101 129 165 200
#     4  10  16  25  41  53  66  90 116 142 175 209
#     4   8  14  23  36  52  68  86 110 140 169 198
#
# _framework density 12.410284000000001
#
# number of rings (size 3 to 8) (size 9 to 14) (size 15 to 20)
#    0.000    3.167    1.667    2.250    0.000    2.000 
#    0.000    3.333    0.000    1.500    0.000    0.000 
#    0.000    0.000    0.000    0.000    0.000    0.000 
#
# Total GULP energy -594822.664838 kJ/mol
# GULP energy per Si atom -12392.138851 kJ/mol
# Density = 1.238204 g / cm^3
# Si number density = 12.410284 Si / 1000 Ang^3
#
#
#
# Elastic Constant Matrix: (Units=GPa)
#
#
# Indices 1 2 3 4 5 6 
#
# 1 56.0096 31.9869 48.0231 0.0000 0.0000 0.0000
# 2 31.9869 36.2364 43.3543 0.0000 0.0000 0.0000
# 3 48.0231 43.3543 96.6430 0.0000 0.0000 0.0000
# 4 0.0000 0.0000 0.0000 14.6337 0.0000 0.0000
# 5 0.0000 0.0000 0.0000 0.0000 17.2204 0.0000
# 6 0.0000 0.0000 0.0000 0.0000 0.0000 16.6504
#
#
#
# Elastic Compliance Matrix: (Units=1/GPa)
#
#
# Indices 1 2 3 4 5 6 
#
# 1 0.038987 -0.024255 -0.008493 0.000000 0.000000 0.000000
# 2 -0.024255 0.074657 -0.021439 0.000000 0.000000 0.000000
# 3 -0.008493 -0.021439 0.024185 0.000000 0.000000 0.000000
# 4 0.000000 0.000000 0.000000 0.068335 0.000000 0.000000
# 5 0.000000 0.000000 0.000000 0.000000 0.058071 0.000000
# 6 0.000000 0.000000 0.000000 0.000000 0.000000 0.060059
#
#
# Mechanical properties :
#
#
# Convention : Reuss Voigt Hill
#
# Bulk Modulus (GPa) = 33.94754 48.40195 41.17475
# Shear Modulus (GPa) = 11.29980 14.06922 12.68451
#
# Velocity S-wave (km/s) = 3.02075 3.37066 3.20049
# Velocity P-wave (km/s) = 6.29129 7.36442 6.84890
#
# Compressibility (1/GPa) = 0.02945721
#
# Stress axis : x y z
#
# Youngs Moduli (GPa) = 25.64925 13.39455 41.34772
#
# Poissons Ratio (x) = 0.32488 0.35115
# Poissons Ratio (y) = 0.62211 0.88646
# Poissons Ratio (z) = 0.21783 0.28717
#
# Static dielectric constant tensor:
#      x y z
#    x 2.575890 0.000000 0.000000 
#    y 0.000000 2.237590 0.000000 
#    z 0.000000 0.000000 2.732410 
# 
# 
# High freq. dielectric constant tensor:
#      x y z
#    x 1.466780 0.000000 0.000000 
#    y 0.000000 1.418670 0.000000 
#    z 0.000000 0.000000 1.465990 
# 
# From -- ./inp_files/68668.got.cif
#   From: 2010.06.25/outbox.cif.g09.slc.cpg/sg71_35_cif.got.tgz:68668.got - 2010.06.28 04:59:45.
