data_PCOD8286242
_publ_section_title
;
Structure prediction by ZEFSAII (Michael W. Deem and Ramdas Pophale) SiO2 
 PCOD8286242
Probable space group: F D D D
;
_chemical_formula_sum "Si O2"
_cell_formula_units_Z 128
_cell_length_a 8.283313
_cell_length_b 34.563424
_cell_length_c 23.155464
_cell_angle_alpha 90.000000
_cell_angle_beta 90.000000
_cell_angle_gamma 90.000000
_cell_volume 6629.401455
_symmetry_space_group_name_H-M "F D D D"
_symmetry_group_IT_number 70
_space_group.IT_coordinate_system_code '2'
_symmetry_cell_setting 'orthorhombic'
loop_
_space_group_symop_operation_xyz
x,y,z
1/4-x,1/4-y,z
x,1/4-y,1/4-z
1/4-x,y,1/4-z
-x,-y,-z
3/4+x,3/4+y,-z
-x,3/4+y,3/4+z
3/4+x,-y,3/4+z
x,1/2+y,1/2+z
1/4-x,3/4-y,1/2+z
x,3/4-y,3/4-z
1/4-x,1/2+y,3/4-z
-x,1/2-y,1/2-z
3/4+x,1/4+y,1/2-z
-x,1/4+y,1/4+z
3/4+x,1/2-y,1/4+z
1/2+x,y,1/2+z
3/4-x,1/4-y,1/2+z
1/2+x,1/4-y,3/4-z
3/4-x,y,3/4-z
1/2-x,-y,1/2-z
1/4+x,3/4+y,1/2-z
1/2-x,3/4+y,1/4+z
1/4+x,-y,1/4+z
1/2+x,1/2+y,z
3/4-x,3/4-y,z
1/2+x,3/4-y,1/4-z
3/4-x,1/2+y,1/4-z
1/2-x,1/2-y,-z
1/4+x,1/4+y,-z
1/2-x,1/4+y,3/4+z
1/4+x,1/2-y,3/4+z
loop_
_atom_site_type_symbol
_atom_site_label
_atom_site_fract_x
_atom_site_fract_y
_atom_site_fract_z
Si Si1 0.625000 0.125000 0.940179
Si Si2 0.625000 0.422950 0.125000
Si Si3 0.587542 0.443602 0.516521
Si Si4 0.285989 0.011268 0.657144
Si Si5 0.317479 0.275440 0.051492
O O1 0.528278 0.149719 0.894737
O O2 0.495934 0.098908 0.976978
O O3 0.576877 0.446254 0.067556
O O4 0.479042 0.472930 0.553643
O O5 0.588794 0.453536 0.448412
O O6 0.772067 0.448918 0.538352
O O7 0.125000 0.024198 0.625000
O O8 0.413151 0.002744 0.606778
O O9 0.250000 0.250000 0.000000
#
# Coordination Sequence:
#
# PCOD8286242 Si02
#       5
#    16  16  32  32  32
#     4  12  24  38  61  88 128 167 200 256 322 386
#     4  12  24  38  58  94 126 161 204 255 318 372
#     4  10  21  39  59  91 121 163 203 254 314 377
#     4   9  19  37  62  87 120 154 206 256 305 364
#     4  11  22  37  65  93 122 157 210 266 311 365
#
# _framework density 19.307928
#
# number of rings (size 3 to 8) (size 9 to 14) (size 15 to 20)
#    0.000    1.500    2.500    3.000    8.750    0.000 
#    0.000    0.625    0.000    0.000    6.500    0.000 
#    0.000    0.000    0.000    0.000    0.000    0.000 
#
# Total GULP energy -396507.627067 kJ/mol
# GULP energy per Si atom -12390.863346 kJ/mol
# Density = 1.926398 g / cm^3
# Si number density = 19.307928 Si / 1000 Ang^3
#
#
#
# Elastic Constant Matrix: (Units=GPa)
#
#
# Indices 1 2 3 4 5 6 
#
# 1 106.1319 55.6872 48.9358 0.0000 0.0000 0.0000
# 2 55.6872 95.0975 55.7032 0.0000 0.0000 0.0000
# 3 48.9358 55.7032 141.7672 0.0000 0.0000 0.0000
# 4 0.0000 0.0000 0.0000 15.1841 0.0000 0.0000
# 5 0.0000 0.0000 0.0000 0.0000 35.6798 0.0000
# 6 0.0000 0.0000 0.0000 0.0000 0.0000 36.9727
#
#
#
# Elastic Compliance Matrix: (Units=1/GPa)
#
#
# Indices 1 2 3 4 5 6 
#
# 1 0.014068 -0.007006 -0.002103 0.000000 0.000000 0.000000
# 2 -0.007006 0.017148 -0.004320 0.000000 0.000000 0.000000
# 3 -0.002103 -0.004320 0.009477 0.000000 0.000000 0.000000
# 4 0.000000 0.000000 0.000000 0.065859 0.000000 0.000000
# 5 0.000000 0.000000 0.000000 0.000000 0.028027 0.000000
# 6 0.000000 0.000000 0.000000 0.000000 0.000000 0.027047
#
#
# Mechanical properties :
#
#
# Convention : Reuss Voigt Hill
#
# Bulk Modulus (GPa) = 72.27640 73.73878 73.00759
# Shear Modulus (GPa) = 25.89393 29.74534 27.81963
#
# Velocity S-wave (km/s) = 3.66608 3.92928 3.79996
# Velocity P-wave (km/s) = 7.44547 7.67199 7.55958
#
# Compressibility (1/GPa) = 0.01383578
#
# Stress axis : x y z
#
# Youngs Moduli (GPa) = 71.08310 58.31496 105.51777
#
# Poissons Ratio (x) = 0.40855 0.22193
# Poissons Ratio (y) = 0.49801 0.45579
# Poissons Ratio (z) = 0.14951 0.25189
#
# Static dielectric constant tensor:
#      x y z
#    x 3.760950 0.000000 0.000000 
#    y 0.000000 3.446180 0.000000 
#    z 0.000000 0.000000 4.828790 
# 
# 
# High freq. dielectric constant tensor:
#      x y z
#    x 1.766040 0.000000 0.000000 
#    y 0.000000 1.722660 0.000000 
#    z 0.000000 0.000000 1.755880 
# 
# From -- ./inp_files/11073.got.cif
#   From: 2010.03.12/outbox.cif.g09.slc.cpg/sg70_6_cif.got.tgz:11073.got - 2010.04.16 13:46:32.
