data_PCOD8286963
_publ_section_title
;
Structure prediction by ZEFSAII (Michael W. Deem and Ramdas Pophale) SiO2 
 PCOD8286963
Probable space group: I M M M
;
_chemical_formula_sum "Si O2"
_cell_formula_units_Z 112
_cell_length_a 14.368684
_cell_length_b 13.853162
_cell_length_c 36.689544
_cell_angle_alpha 90.000000
_cell_angle_beta 90.000000
_cell_angle_gamma 90.000000
_cell_volume 7303.116369
_symmetry_space_group_name_H-M "I M M M"
_symmetry_group_IT_number 71
_symmetry_cell_setting 'orthorhombic'
loop_
_space_group_symop_operation_xyz
x,y,z
-x,-y,z
x,-y,-z
-x,y,-z
-x,-y,-z
x,y,-z
-x,y,z
x,-y,z
1/2+x,1/2+y,1/2+z
1/2-x,1/2-y,1/2+z
1/2+x,1/2-y,1/2-z
1/2-x,1/2+y,1/2-z
1/2-x,1/2-y,1/2-z
1/2+x,1/2+y,1/2-z
1/2-x,1/2+y,1/2+z
1/2+x,1/2-y,1/2+z
loop_
_atom_site_type_symbol
_atom_site_label
_atom_site_fract_x
_atom_site_fract_y
_atom_site_fract_z
Si Si1 0.392408 0.608801 0.819232
Si Si2 0.724946 0.385209 0.607231
Si Si3 0.396038 0.385443 0.459548
Si Si4 0.604282 0.385268 0.675971
Si Si5 0.897544 0.614302 0.716829
Si Si6 0.895088 0.291645 0.361035
Si Si7 0.207834 0.114747 0.752598
O O1 0.500000 0.611073 0.807250
O O2 0.361024 0.500000 0.829480
O O3 0.375731 0.677649 0.853975
O O4 0.335091 0.653171 0.785145
O O5 0.738906 0.500000 0.606924
O O6 0.675648 0.346312 0.570547
O O7 0.663645 0.350005 0.641405
O O8 0.825155 0.333322 0.608828
O O9 0.363709 0.352398 0.500000
O O10 0.500000 0.345702 0.451427
O O11 0.399143 0.500000 0.457246
O O12 0.500000 0.343470 0.672550
O O13 0.601793 0.500000 0.676457
O O14 0.650120 0.344910 0.712991
O O15 0.891618 0.500000 0.713897
O O16 0.879198 0.652312 0.676527
O O17 0.815458 0.650691 0.743943
O O18 0.000000 0.647346 0.731093
O O19 0.000000 0.307049 0.375583
O O20 0.200934 0.000000 0.752189
#
# Coordination Sequence:
#
# PCOD8286963 Si02
#       7
#    16  16  16  16  16  16  16
#     4   9  18  31  44  56  72  97 132 177 223 259
#     4  10  17  26  40  60  86 113 137 163 194 228
#     4   8  14  25  42  64  90 120 146 161 180 220
#     4   9  15  22  34  54  79 105 131 163 204 240
#     4   9  16  26  38  53  76 103 131 162 197 242
#     4  10  19  29  41  57  76 103 140 174 203 241
#     4   9  15  25  40  55  71  99 134 170 212 248
#
# _framework density 15.335917999999999
#
# number of rings (size 3 to 8) (size 9 to 14) (size 15 to 20)
#    0.000    2.857    1.429    1.714    0.000    4.857 
#    0.000    0.000    0.000    1.286    0.000    2.000 
#    0.000    0.571    0.000    5.143    0.000    0.143 
#
# Total GULP energy -694099.209559 kJ/mol
# GULP energy per Si atom -12394.628742 kJ/mol
# Density = 1.530101 g / cm^3
# Si number density = 15.335918 Si / 1000 Ang^3
#
#
#
# Elastic Constant Matrix: (Units=GPa)
#
#
# Indices 1 2 3 4 5 6 
#
# 1 117.1664 28.4224 50.9530 0.0000 0.0000 0.0000
# 2 28.4224 17.5356 23.7702 0.0000 0.0000 0.0000
# 3 50.9530 23.7702 68.0766 0.0000 0.0000 0.0000
# 4 0.0000 0.0000 0.0000 9.8066 0.0000 0.0000
# 5 0.0000 0.0000 0.0000 0.0000 25.1649 0.0000
# 6 0.0000 0.0000 0.0000 0.0000 0.0000 11.6953
#
#
#
# Elastic Compliance Matrix: (Units=1/GPa)
#
#
# Indices 1 2 3 4 5 6 
#
# 1 0.014972 -0.017234 -0.005188 0.000000 0.000000 0.000000
# 2 -0.017234 0.128112 -0.031834 0.000000 0.000000 0.000000
# 3 -0.005188 -0.031834 0.029688 0.000000 0.000000 0.000000
# 4 0.000000 0.000000 0.000000 0.101973 0.000000 0.000000
# 5 0.000000 0.000000 0.000000 0.000000 0.039738 0.000000
# 6 0.000000 0.000000 0.000000 0.000000 0.000000 0.085504
#
#
# Mechanical properties :
#
#
# Convention : Reuss Voigt Hill
#
# Bulk Modulus (GPa) = 15.56179 45.45219 30.50699
# Shear Modulus (GPa) = 9.43542 15.97556 12.70549
#
# Velocity S-wave (km/s) = 2.48311 3.23105 2.88145
# Velocity P-wave (km/s) = 4.28841 6.60467 5.56831
#
# Compressibility (1/GPa) = 0.06425996
#
# Stress axis : x y z
#
# Youngs Moduli (GPa) = 66.79235 7.80567 33.68372
#
# Poissons Ratio (x) = 0.13452 0.17476
# Poissons Ratio (y) = 1.15109 1.07228
# Poissons Ratio (z) = 0.34654 0.24848
#
# Static dielectric constant tensor:
#      x y z
#    x 3.270270 0.000000 0.000000 
#    y 0.000000 2.731770 0.000000 
#    z 0.000000 0.000000 2.784560 
# 
# 
# High freq. dielectric constant tensor:
#      x y z
#    x 1.601010 0.000000 0.000000 
#    y 0.000000 1.554040 0.000000 
#    z 0.000000 0.000000 1.545250 
# 
# From -- ./inp_files/70067.got.cif
#   From: 2010.06.25/outbox.cif.g09.slc.cpg/sg71_36_cif.got.tgz:70067.got - 2010.06.28 04:59:45.
