data_PCOD8286108
_publ_section_title
;
Structure prediction by ZEFSAII (Michael W. Deem and Ramdas Pophale) SiO2 
 PCOD8286108
Probable space group: F D D D
;
_chemical_formula_sum "Si O2"
_cell_formula_units_Z 176
_cell_length_a 22.482085
_cell_length_b 27.612993
_cell_length_c 13.800783
_cell_angle_alpha 90.000000
_cell_angle_beta 90.000000
_cell_angle_gamma 90.000000
_cell_volume 8567.493734
_symmetry_space_group_name_H-M "F D D D"
_symmetry_group_IT_number 70
_space_group.IT_coordinate_system_code '2'
_symmetry_cell_setting 'orthorhombic'
loop_
_space_group_symop_operation_xyz
x,y,z
1/4-x,1/4-y,z
x,1/4-y,1/4-z
1/4-x,y,1/4-z
-x,-y,-z
3/4+x,3/4+y,-z
-x,3/4+y,3/4+z
3/4+x,-y,3/4+z
x,1/2+y,1/2+z
1/4-x,3/4-y,1/2+z
x,3/4-y,3/4-z
1/4-x,1/2+y,3/4-z
-x,1/2-y,1/2-z
3/4+x,1/4+y,1/2-z
-x,1/4+y,1/4+z
3/4+x,1/2-y,1/4+z
1/2+x,y,1/2+z
3/4-x,1/4-y,1/2+z
1/2+x,1/4-y,3/4-z
3/4-x,y,3/4-z
1/2-x,-y,1/2-z
1/4+x,3/4+y,1/2-z
1/2-x,3/4+y,1/4+z
1/4+x,-y,1/4+z
1/2+x,1/2+y,z
3/4-x,3/4-y,z
1/2+x,3/4-y,1/4-z
3/4-x,1/2+y,1/4-z
1/2-x,1/2-y,-z
1/4+x,1/4+y,-z
1/2-x,1/4+y,3/4+z
1/4+x,1/2-y,3/4+z
loop_
_atom_site_type_symbol
_atom_site_label
_atom_site_fract_x
_atom_site_fract_y
_atom_site_fract_z
Si Si1 0.711301 0.533832 0.183926
Si Si2 0.296233 0.511316 0.166550
Si Si3 0.387093 0.317496 0.648745
Si Si4 0.485437 0.981841 0.728821
Si Si5 0.353711 0.183359 0.268602
Si Si6 0.714056 0.375000 0.375000
O O1 0.750000 0.500000 0.250000
O O2 0.650800 0.548491 0.240798
O O3 0.708595 0.502765 0.084387
O O4 0.745189 0.582277 0.159981
O O5 0.250000 0.500000 0.250000
O O6 0.328757 0.460853 0.137085
O O7 0.341747 0.550679 0.203290
O O8 0.265036 0.538970 0.076100
O O9 0.375000 0.375000 0.648553
O O10 0.444326 0.306697 0.579312
O O11 0.444714 0.024571 0.770986
O O12 0.375000 0.168827 0.375000
O O13 0.326142 0.136420 0.218249
#
# Coordination Sequence:
#
# PCOD8286108 Si02
#       6
#    32  32  32  32  32  16
#     4   9  20  41  64  88 130 164 208 272 329 382
#     4  11  22  40  64  88 124 173 207 249 327 379
#     4  10  23  39  64  98 123 163 220 265 318 390
#     4   9  20  41  62  87 128 163 205 266 322 376
#     4  10  20  39  64  87 119 165 211 248 308 394
#     4  10  22  40  65  94 124 165 210 272 326 376
#
# _framework density 20.542763000000001
#
# number of rings (size 3 to 8) (size 9 to 14) (size 15 to 20)
#    0.000    2.182    1.818    1.091    5.091    0.727 
#    9.818    0.909    0.000    0.000    0.000    0.000 
#    0.000    0.000    0.000    0.000    0.000    0.000 
#
# Total GULP energy -545150.506638 kJ/mol
# GULP energy per Si atom -12389.784242 kJ/mol
# Density = 2.049601 g / cm^3
# Si number density = 20.542763 Si / 1000 Ang^3
#
#
#
# Elastic Constant Matrix: (Units=GPa)
#
#
# Indices 1 2 3 4 5 6 
#
# 1 86.3379 18.9530 52.6550 0.0000 0.0000 0.0000
# 2 18.9530 71.1780 24.9460 0.0000 0.0000 0.0000
# 3 52.6550 24.9460 146.4026 0.0000 0.0000 0.0000
# 4 0.0000 0.0000 0.0000 23.3480 0.0000 0.0000
# 5 0.0000 0.0000 0.0000 0.0000 51.3732 0.0000
# 6 0.0000 0.0000 0.0000 0.0000 0.0000 9.4062
#
#
#
# Elastic Compliance Matrix: (Units=1/GPa)
#
#
# Indices 1 2 3 4 5 6 
#
# 1 0.015172 -0.002263 -0.005071 0.000000 0.000000 0.000000
# 2 -0.002263 0.015279 -0.001790 0.000000 0.000000 0.000000
# 3 -0.005071 -0.001790 0.008959 0.000000 0.000000 0.000000
# 4 0.000000 0.000000 0.000000 0.042830 0.000000 0.000000
# 5 0.000000 0.000000 0.000000 0.000000 0.019465 0.000000
# 6 0.000000 0.000000 0.000000 0.000000 0.000000 0.106313
#
#
# Mechanical properties :
#
#
# Convention : Reuss Voigt Hill
#
# Bulk Modulus (GPa) = 47.25162 55.22516 51.23839
# Shear Modulus (GPa) = 21.42984 30.64980 26.03982
#
# Velocity S-wave (km/s) = 3.23334 3.86683 3.56419
# Velocity P-wave (km/s) = 6.08201 6.84674 6.47567
#
# Compressibility (1/GPa) = 0.02116329
#
# Stress axis : x y z
#
# Youngs Moduli (GPa) = 65.91163 65.44933 111.61573
#
# Poissons Ratio (x) = 0.14809 0.56602
# Poissons Ratio (y) = 0.14913 0.19976
# Poissons Ratio (z) = 0.33425 0.11713
#
# Static dielectric constant tensor:
#      x y z
#    x 3.604350 0.000000 0.000000 
#    y 0.000000 3.501280 0.000000 
#    z 0.000000 0.000000 6.045220 
# 
# 
# High freq. dielectric constant tensor:
#      x y z
#    x 1.806200 0.000000 0.000000 
#    y 0.000000 1.781380 0.000000 
#    z 0.000000 0.000000 1.825440 
# 
# From -- ./inp_files/28759.got.cif
#   From: 2010.03.12/outbox.cif.g09.slc.cpg/sg70_15_cif.got.tgz:28759.got - 2010.04.16 13:46:32.
