data_PCOD8286715
_publ_section_title
;
Structure prediction by ZEFSAII (Michael W. Deem and Ramdas Pophale) SiO2 
 PCOD8286715
Probable space group: F D D D
;
_chemical_formula_sum "Si O2"
_cell_formula_units_Z 120
_cell_length_a 15.493556
_cell_length_b 29.139491
_cell_length_c 11.933603
_cell_angle_alpha 90.000000
_cell_angle_beta 90.000000
_cell_angle_gamma 90.000000
_cell_volume 5387.715486
_symmetry_space_group_name_H-M "F D D D"
_symmetry_group_IT_number 70
_space_group.IT_coordinate_system_code '2'
_symmetry_cell_setting 'orthorhombic'
loop_
_space_group_symop_operation_xyz
x,y,z
1/4-x,1/4-y,z
x,1/4-y,1/4-z
1/4-x,y,1/4-z
-x,-y,-z
3/4+x,3/4+y,-z
-x,3/4+y,3/4+z
3/4+x,-y,3/4+z
x,1/2+y,1/2+z
1/4-x,3/4-y,1/2+z
x,3/4-y,3/4-z
1/4-x,1/2+y,3/4-z
-x,1/2-y,1/2-z
3/4+x,1/4+y,1/2-z
-x,1/4+y,1/4+z
3/4+x,1/2-y,1/4+z
1/2+x,y,1/2+z
3/4-x,1/4-y,1/2+z
1/2+x,1/4-y,3/4-z
3/4-x,y,3/4-z
1/2-x,-y,1/2-z
1/4+x,3/4+y,1/2-z
1/2-x,3/4+y,1/4+z
1/4+x,-y,1/4+z
1/2+x,1/2+y,z
3/4-x,3/4-y,z
1/2+x,3/4-y,1/4-z
3/4-x,1/2+y,1/4-z
1/2-x,1/2-y,-z
1/4+x,1/4+y,-z
1/2-x,1/4+y,3/4+z
1/4+x,1/2-y,3/4+z
loop_
_atom_site_type_symbol
_atom_site_label
_atom_site_fract_x
_atom_site_fract_y
_atom_site_fract_z
Si Si1 0.253428 0.277244 0.612983
Si Si2 0.525542 0.322942 0.758094
Si Si3 0.875000 0.143244 0.875000
Si Si4 0.625000 0.625000 0.125000
Si Si5 0.191811 0.009084 0.406828
O O1 0.250000 0.250000 0.500000
O O2 0.206984 0.325741 0.592716
O O3 0.207634 0.247048 0.710566
O O4 0.354800 0.285196 0.631999
O O5 0.595790 0.362050 0.730282
O O6 0.434309 0.344082 0.794928
O O7 0.560921 0.292828 0.860536
O O8 0.516440 0.290028 0.648751
#
# Coordination Sequence:
#
# PCOD8286715 Si02
#       5
#    32  32  16   8  32
#     4  12  24  43  67  97 140 193 226 286 348 423
#     4  11  24  42  71 104 133 179 228 305 344 420
#     4  12  24  43  68 104 141 179 242 288 347 418
#     4  12  24  42  68 100 138 170 236 300 350 402
#     4  11  23  45  70  99 140 181 235 279 368 414
#
# _framework density 22.272891999999999
#
# number of rings (size 3 to 8) (size 9 to 14) (size 15 to 20)
#    0.000    0.533    2.667    6.400    0.000    4.267 
#    4.800    0.000    0.000    3.200    0.000    0.000 
#    0.000    0.000    0.000    0.000    0.000    0.000 
#
# Total GULP energy -371976.838481 kJ/mol
# GULP energy per Si atom -12399.227949 kJ/mol
# Density = 2.222220 g / cm^3
# Si number density = 22.272892 Si / 1000 Ang^3
#
#
#
# Elastic Constant Matrix: (Units=GPa)
#
#
# Indices 1 2 3 4 5 6 
#
# 1 126.3439 48.9656 45.7978 0.0000 0.0000 0.0000
# 2 48.9656 130.6556 70.7328 0.0000 0.0000 0.0000
# 3 45.7978 70.7328 140.4543 0.0000 0.0000 0.0000
# 4 0.0000 0.0000 0.0000 39.2567 0.0000 0.0000
# 5 0.0000 0.0000 0.0000 0.0000 35.1877 0.0000
# 6 0.0000 0.0000 0.0000 0.0000 0.0000 36.4717
#
#
#
# Elastic Compliance Matrix: (Units=1/GPa)
#
#
# Indices 1 2 3 4 5 6 
#
# 1 0.009583 -0.002612 -0.001809 0.000000 0.000000 0.000000
# 2 -0.002612 0.011234 -0.004806 0.000000 0.000000 0.000000
# 3 -0.001809 -0.004806 0.010130 0.000000 0.000000 0.000000
# 4 0.000000 0.000000 0.000000 0.025473 0.000000 0.000000
# 5 0.000000 0.000000 0.000000 0.000000 0.028419 0.000000
# 6 0.000000 0.000000 0.000000 0.000000 0.000000 0.027419
#
#
# Mechanical properties :
#
#
# Convention : Reuss Voigt Hill
#
# Bulk Modulus (GPa) = 80.04513 80.93844 80.49179
# Shear Modulus (GPa) = 37.07078 37.64706 37.35892
#
# Velocity S-wave (km/s) = 4.08412 4.11574 4.09996
# Velocity P-wave (km/s) = 7.63259 7.68141 7.65704
#
# Compressibility (1/GPa) = 0.01249295
#
# Stress axis : x y z
#
# Youngs Moduli (GPa) = 104.35105 89.01264 98.71640
#
# Poissons Ratio (x) = 0.23249 0.17862
# Poissons Ratio (y) = 0.27255 0.47443
# Poissons Ratio (z) = 0.18881 0.42779
#
# Static dielectric constant tensor:
#      x y z
#    x 4.453430 0.000000 0.000000 
#    y 0.000000 3.547520 0.000000 
#    z 0.000000 0.000000 3.875860 
# 
# 
# High freq. dielectric constant tensor:
#      x y z
#    x 1.885810 0.000000 0.000000 
#    y 0.000000 1.879850 0.000000 
#    z 0.000000 0.000000 1.881340 
# 
# From -- ./inp_files/16517.got.cif
#   From: 2010.03.12/outbox.cif.g09.slc.cpg/sg70_9_cif.got.tgz:16517.got - 2010.04.16 13:46:32.
