data_PCOD8286573
_publ_section_title
;
Structure prediction by ZEFSAII (Michael W. Deem and Ramdas Pophale) SiO2 
 PCOD8286573
Probable space group: F D D D
;
_chemical_formula_sum "Si O2"
_cell_formula_units_Z 144
_cell_length_a 13.306277
_cell_length_b 15.723484
_cell_length_c 30.069031
_cell_angle_alpha 90.000000
_cell_angle_beta 90.000000
_cell_angle_gamma 90.000000
_cell_volume 6291.073742
_symmetry_space_group_name_H-M "F D D D"
_symmetry_group_IT_number 70
_space_group.IT_coordinate_system_code '2'
_symmetry_cell_setting 'orthorhombic'
loop_
_space_group_symop_operation_xyz
x,y,z
1/4-x,1/4-y,z
x,1/4-y,1/4-z
1/4-x,y,1/4-z
-x,-y,-z
3/4+x,3/4+y,-z
-x,3/4+y,3/4+z
3/4+x,-y,3/4+z
x,1/2+y,1/2+z
1/4-x,3/4-y,1/2+z
x,3/4-y,3/4-z
1/4-x,1/2+y,3/4-z
-x,1/2-y,1/2-z
3/4+x,1/4+y,1/2-z
-x,1/4+y,1/4+z
3/4+x,1/2-y,1/4+z
1/2+x,y,1/2+z
3/4-x,1/4-y,1/2+z
1/2+x,1/4-y,3/4-z
3/4-x,y,3/4-z
1/2-x,-y,1/2-z
1/4+x,3/4+y,1/2-z
1/2-x,3/4+y,1/4+z
1/4+x,-y,1/4+z
1/2+x,1/2+y,z
3/4-x,3/4-y,z
1/2+x,3/4-y,1/4-z
3/4-x,1/2+y,1/4-z
1/2-x,1/2-y,-z
1/4+x,1/4+y,-z
1/2-x,1/4+y,3/4+z
1/4+x,1/2-y,3/4+z
loop_
_atom_site_type_symbol
_atom_site_label
_atom_site_fract_x
_atom_site_fract_y
_atom_site_fract_z
Si Si1 0.304846 0.097208 0.292989
Si Si2 0.229482 0.580685 0.281986
Si Si3 0.231688 0.098386 0.199383
Si Si4 0.125835 0.375000 0.375000
Si Si5 0.986736 0.225230 0.879265
O O1 0.424864 0.104408 0.282818
O O2 0.249553 0.132290 0.249192
O O3 0.266501 0.149732 0.335182
O O4 0.264791 0.003409 0.303315
O O5 0.125000 0.625000 0.266013
O O6 0.250000 0.500000 0.250000
O O7 0.215795 0.552566 0.332635
O O8 0.125000 0.125000 0.181246
O O9 0.308512 0.148398 0.167440
O O10 0.192828 0.300334 0.354222
O O11 0.875000 0.262519 0.875000
#
# Coordination Sequence:
#
# PCOD8286573 Si02
#       5
#    32  32  32  16  32
#     4  10  26  47  72 102 142 195 239 300 375 441
#     4  11  26  44  74 106 144 189 247 305 368 444
#     4  11  27  44  71 104 145 188 245 299 362 443
#     4  12  26  42  72 108 142 186 242 306 360 444
#     4  10  25  46  72 102 144 189 239 300 374 437
#
# _framework density 22.889574
#
# number of rings (size 3 to 8) (size 9 to 14) (size 15 to 20)
#    0.000    1.333    0.000    2.000   15.556    8.889 
#    0.000    0.000    0.000    0.000    0.000    0.000 
#    0.000    0.000    0.000    0.000    0.000    0.000 
#
# Total GULP energy -446268.208578 kJ/mol
# GULP energy per Si atom -12396.339127 kJ/mol
# Density = 2.283748 g / cm^3
# Si number density = 22.889574 Si / 1000 Ang^3
#
#
#
# Elastic Constant Matrix: (Units=GPa)
#
#
# Indices 1 2 3 4 5 6 
#
# 1 128.9177 48.7342 47.5016 0.0000 0.0000 0.0000
# 2 48.7342 60.6731 50.2668 0.0000 0.0000 0.0000
# 3 47.5016 50.2668 158.8900 0.0000 0.0000 0.0000
# 4 0.0000 0.0000 0.0000 28.9956 0.0000 0.0000
# 5 0.0000 0.0000 0.0000 0.0000 41.4168 0.0000
# 6 0.0000 0.0000 0.0000 0.0000 0.0000 47.4086
#
#
#
# Elastic Compliance Matrix: (Units=1/GPa)
#
#
# Indices 1 2 3 4 5 6 
#
# 1 0.011193 -0.008427 -0.000680 0.000000 0.000000 0.000000
# 2 -0.008427 0.028681 -0.006554 0.000000 0.000000 0.000000
# 3 -0.000680 -0.006554 0.008571 0.000000 0.000000 0.000000
# 4 0.000000 0.000000 0.000000 0.034488 0.000000 0.000000
# 5 0.000000 0.000000 0.000000 0.000000 0.024145 0.000000
# 6 0.000000 0.000000 0.000000 0.000000 0.000000 0.021093
#
#
# Mechanical properties :
#
#
# Convention : Reuss Voigt Hill
#
# Bulk Modulus (GPa) = 58.40656 71.27621 64.84139
# Shear Modulus (GPa) = 30.26633 37.02944 33.64789
#
# Velocity S-wave (km/s) = 3.64026 4.02648 3.83823
# Velocity P-wave (km/s) = 6.57576 7.26798 6.93052
#
# Compressibility (1/GPa) = 0.01712136
#
# Stress axis : x y z
#
# Youngs Moduli (GPa) = 89.34010 34.86689 116.67908
#
# Poissons Ratio (x) = 0.29382 0.07938
# Poissons Ratio (y) = 0.75287 0.76473
# Poissons Ratio (z) = 0.06078 0.22852
#
# Static dielectric constant tensor:
#      x y z
#    x 4.387000 0.000000 0.000000 
#    y 0.000000 9.780050 0.000000 
#    z 0.000000 0.000000 4.182010 
# 
# 
# High freq. dielectric constant tensor:
#      x y z
#    x 1.923940 0.000000 0.000000 
#    y 0.000000 1.889890 0.000000 
#    z 0.000000 0.000000 1.915590 
# 
# From -- ./inp_files/65646.got.cif
#   From: 2010.03.12/outbox.cif.g09.slc.cpg/sg70_33_cif.got.tgz:65646.got - 2010.04.16 13:46:32.
