data_PCOD8286507
_publ_section_title
;
Structure prediction by ZEFSAII (Michael W. Deem and Ramdas Pophale) SiO2 
 PCOD8286507
Probable space group: F D D D
;
_chemical_formula_sum "Si O2"
_cell_formula_units_Z 144
_cell_length_a 21.712837
_cell_length_b 28.299897
_cell_length_c 11.352158
_cell_angle_alpha 90.000000
_cell_angle_beta 90.000000
_cell_angle_gamma 90.000000
_cell_volume 6975.572454
_symmetry_space_group_name_H-M "F D D D"
_symmetry_group_IT_number 70
_space_group.IT_coordinate_system_code '2'
_symmetry_cell_setting 'orthorhombic'
loop_
_space_group_symop_operation_xyz
x,y,z
1/4-x,1/4-y,z
x,1/4-y,1/4-z
1/4-x,y,1/4-z
-x,-y,-z
3/4+x,3/4+y,-z
-x,3/4+y,3/4+z
3/4+x,-y,3/4+z
x,1/2+y,1/2+z
1/4-x,3/4-y,1/2+z
x,3/4-y,3/4-z
1/4-x,1/2+y,3/4-z
-x,1/2-y,1/2-z
3/4+x,1/4+y,1/2-z
-x,1/4+y,1/4+z
3/4+x,1/2-y,1/4+z
1/2+x,y,1/2+z
3/4-x,1/4-y,1/2+z
1/2+x,1/4-y,3/4-z
3/4-x,y,3/4-z
1/2-x,-y,1/2-z
1/4+x,3/4+y,1/2-z
1/2-x,3/4+y,1/4+z
1/4+x,-y,1/4+z
1/2+x,1/2+y,z
3/4-x,3/4-y,z
1/2+x,3/4-y,1/4-z
3/4-x,1/2+y,1/4-z
1/2-x,1/2-y,-z
1/4+x,1/4+y,-z
1/2-x,1/4+y,3/4+z
1/4+x,1/2-y,3/4+z
loop_
_atom_site_type_symbol
_atom_site_label
_atom_site_fract_x
_atom_site_fract_y
_atom_site_fract_z
Si Si1 0.375000 0.875000 0.565511
Si Si2 0.743408 0.256709 0.636591
Si Si3 0.832474 0.125000 0.125000
Si Si4 0.004850 0.882453 0.147870
Si Si5 0.584821 0.437955 0.740692
Si Si6 0.375000 0.298930 0.875000
O O1 0.315770 0.886041 0.646366
O O2 0.396754 0.918771 0.484303
O O3 0.750000 0.250000 0.500000
O O4 0.741061 0.311821 0.653045
O O5 0.797193 0.233725 0.716387
O O6 0.679574 0.233018 0.675804
O O7 0.788041 0.118880 0.233922
O O8 0.875680 0.078794 0.144787
O O9 0.040809 0.856939 0.040555
O O10 0.625000 0.452042 0.625000
#
# Coordination Sequence:
#
# PCOD8286507 Si02
#       6
#    16  32  16  32  32  16
#     4  11  22  43  62  90 138 165 202 277 332 366
#     4  12  24  39  68 100 121 167 222 269 324 395
#     4  10  24  41  66  87 124 178 212 256 316 408
#     4  11  24  43  65  93 127 172 213 265 329 383
#     4  10  23  45  63  92 135 166 212 276 330 379
#     4  11  24  38  64  96 130 162 212 276 324 377
#
# _framework density 20.643466
#
# number of rings (size 3 to 8) (size 9 to 14) (size 15 to 20)
#    0.000    1.111    4.444    1.333    7.778    0.444 
#    4.000    2.222    0.000    0.000    0.000    0.000 
#    0.000    0.000    0.000    0.000    0.000    0.000 
#
# Total GULP energy -446061.262481 kJ/mol
# GULP energy per Si atom -12390.590624 kJ/mol
# Density = 2.059648 g / cm^3
# Si number density = 20.643466 Si / 1000 Ang^3
#
#
#
# Elastic Constant Matrix: (Units=GPa)
#
#
# Indices 1 2 3 4 5 6 
#
# 1 133.7527 32.1551 33.7890 0.0000 0.0000 0.0000
# 2 32.1551 109.8138 13.9894 0.0000 0.0000 0.0000
# 3 33.7890 13.9894 66.0453 0.0000 0.0000 0.0000
# 4 0.0000 0.0000 0.0000 15.1023 0.0000 0.0000
# 5 0.0000 0.0000 0.0000 0.0000 -3.2581 0.0000
# 6 0.0000 0.0000 0.0000 0.0000 0.0000 24.7953
#
#
#
# Elastic Compliance Matrix: (Units=1/GPa)
#
#
# Indices 1 2 3 4 5 6 
#
# 1 0.009040 -0.002115 -0.004177 0.000000 0.000000 0.000000
# 2 -0.002115 0.009854 -0.001005 0.000000 0.000000 0.000000
# 3 -0.004177 -0.001005 0.017491 0.000000 0.000000 0.000000
# 4 0.000000 0.000000 0.000000 0.066215 0.000000 0.000000
# 5 0.000000 0.000000 0.000000 0.000000 -0.306924 0.000000
# 6 0.000000 0.000000 0.000000 0.000000 0.000000 0.040330
#
#
# Mechanical properties :
#
#
# Convention : Reuss Voigt Hill
#
# Bulk Modulus (GPa) = 45.89132 52.16432 49.02782
# Shear Modulus (GPa) = -35.17747 22.63978 -6.26884
#
# Velocity S-wave (km/s) = -4.13249 3.31525 -1.74451
# Velocity P-wave (km/s) = 0.70091 6.32286 4.44338
#
# Compressibility (1/GPa) = 0.02179061
#
# Stress axis : x y z
#
# Youngs Moduli (GPa) = 110.61781 101.48514 57.17236
#
# Poissons Ratio (x) = 0.21464 0.23881
# Poissons Ratio (y) = 0.23395 0.05747
# Poissons Ratio (z) = 0.46205 0.10201
#
# Static dielectric constant tensor:
#      x y z
#    x 4.285650 0.000000 0.000000 
#    y 0.000000 4.525900 0.000000 
#    z 0.000000 0.000000 3.154890 
# 
# 
# High freq. dielectric constant tensor:
#      x y z
#    x 1.827120 0.000000 0.000000 
#    y 0.000000 1.801760 0.000000 
#    z 0.000000 0.000000 1.797320 
# 
# From -- ./inp_files/19267.got.cif
#   From: 2010.03.12/outbox.cif.g09.slc.cpg/sg70_10_cif.got.tgz:19267.got - 2010.04.16 13:46:32.
