data_PCOD8286201
_publ_section_title
;
Structure prediction by ZEFSAII (Michael W. Deem and Ramdas Pophale) SiO2 
 PCOD8286201
Probable space group: F D D D
;
_chemical_formula_sum "Si O2"
_cell_formula_units_Z 144
_cell_length_a 21.245247
_cell_length_b 20.157210
_cell_length_c 15.505082
_cell_angle_alpha 90.000000
_cell_angle_beta 90.000000
_cell_angle_gamma 90.000000
_cell_volume 6639.972372
_symmetry_space_group_name_H-M "F D D D"
_symmetry_group_IT_number 70
_space_group.IT_coordinate_system_code '2'
_symmetry_cell_setting 'orthorhombic'
loop_
_space_group_symop_operation_xyz
x,y,z
1/4-x,1/4-y,z
x,1/4-y,1/4-z
1/4-x,y,1/4-z
-x,-y,-z
3/4+x,3/4+y,-z
-x,3/4+y,3/4+z
3/4+x,-y,3/4+z
x,1/2+y,1/2+z
1/4-x,3/4-y,1/2+z
x,3/4-y,3/4-z
1/4-x,1/2+y,3/4-z
-x,1/2-y,1/2-z
3/4+x,1/4+y,1/2-z
-x,1/4+y,1/4+z
3/4+x,1/2-y,1/4+z
1/2+x,y,1/2+z
3/4-x,1/4-y,1/2+z
1/2+x,1/4-y,3/4-z
3/4-x,y,3/4-z
1/2-x,-y,1/2-z
1/4+x,3/4+y,1/2-z
1/2-x,3/4+y,1/4+z
1/4+x,-y,1/4+z
1/2+x,1/2+y,z
3/4-x,3/4-y,z
1/2+x,3/4-y,1/4-z
3/4-x,1/2+y,1/4-z
1/2-x,1/2-y,-z
1/4+x,1/4+y,-z
1/2-x,1/4+y,3/4+z
1/4+x,1/2-y,3/4+z
loop_
_atom_site_type_symbol
_atom_site_label
_atom_site_fract_x
_atom_site_fract_y
_atom_site_fract_z
Si Si1 0.250043 0.813394 0.057805
Si Si2 0.625000 0.266648 0.125000
Si Si3 0.443888 0.802687 0.515568
Si Si4 0.547452 0.548624 0.775338
Si Si5 0.806264 0.298639 0.525663
O O1 0.179886 0.817429 0.097756
O O2 0.301011 0.798624 0.131171
O O3 0.267644 0.879094 0.003010
O O4 0.250000 0.750000 0.000000
O O5 0.648693 0.219741 0.204934
O O6 0.492787 0.755375 0.469527
O O7 0.460563 0.878484 0.489429
O O8 0.374093 0.779327 0.485311
O O9 0.571892 0.551534 0.872660
O O10 0.750000 0.250000 0.500000
#
# Coordination Sequence:
#
# PCOD8286201 Si02
#       5
#    32  16  32  32  32
#     4  10  21  37  58  87 121 160 204 254 310 372
#     4  10  22  39  62  90 122 163 208 258 316 377
#     4   9  21  38  56  86 118 154 204 249 299 364
#     4  10  22  39  60  86 119 157 200 252 307 367
#     4  10  21  39  61  83 119 161 197 250 306 359
#
# _framework density 21.686838000000002
#
# number of rings (size 3 to 8) (size 9 to 14) (size 15 to 20)
#    0.000    2.222    0.000    1.333    0.000   14.222 
#    0.000    4.444    0.000    0.000    0.000    0.000 
#    0.000    0.000    0.000    0.000    0.000    0.000 
#
# Total GULP energy -446068.890984 kJ/mol
# GULP energy per Si atom -12390.802527 kJ/mol
# Density = 2.163748 g / cm^3
# Si number density = 21.686838 Si / 1000 Ang^3
#
#
#
# Elastic Constant Matrix: (Units=GPa)
#
#
# Indices 1 2 3 4 5 6 
#
# 1 134.4764 59.3099 13.8081 0.0000 0.0000 0.0000
# 2 59.3099 113.1497 9.9475 0.0000 0.0000 0.0000
# 3 13.8081 9.9475 50.8920 0.0000 0.0000 0.0000
# 4 0.0000 0.0000 0.0000 30.5854 0.0000 0.0000
# 5 0.0000 0.0000 0.0000 0.0000 26.4698 0.0000
# 6 0.0000 0.0000 0.0000 0.0000 0.0000 39.5569
#
#
#
# Elastic Compliance Matrix: (Units=1/GPa)
#
#
# Indices 1 2 3 4 5 6 
#
# 1 0.009812 -0.004995 -0.001686 0.000000 0.000000 0.000000
# 2 -0.004995 0.011535 -0.000899 0.000000 0.000000 0.000000
# 3 -0.001686 -0.000899 0.020283 0.000000 0.000000 0.000000
# 4 0.000000 0.000000 0.000000 0.032695 0.000000 0.000000
# 5 0.000000 0.000000 0.000000 0.000000 0.037779 0.000000
# 6 0.000000 0.000000 0.000000 0.000000 0.000000 0.025280
#
#
# Mechanical properties :
#
#
# Convention : Reuss Voigt Hill
#
# Bulk Modulus (GPa) = 37.77965 51.62770 44.70367
# Shear Modulus (GPa) = 30.98492 33.68594 32.33543
#
# Velocity S-wave (km/s) = 3.78397 3.94546 3.86556
# Velocity P-wave (km/s) = 6.04563 6.67931 6.37035
#
# Compressibility (1/GPa) = 0.02646928
#
# Stress axis : x y z
#
# Youngs Moduli (GPa) = 101.91124 86.69074 49.30311
#
# Poissons Ratio (x) = 0.43304 0.08312
# Poissons Ratio (y) = 0.50907 0.04434
# Poissons Ratio (z) = 0.17182 0.07797
#
# Static dielectric constant tensor:
#      x y z
#    x 4.774090 0.000000 0.000000 
#    y 0.000000 4.706180 0.000000 
#    z 0.000000 0.000000 3.427980 
# 
# 
# High freq. dielectric constant tensor:
#      x y z
#    x 1.868970 0.000000 0.000000 
#    y 0.000000 1.847790 0.000000 
#    z 0.000000 0.000000 1.842560 
# 
# From -- ./inp_files/34934.got.cif
#   From: 2010.03.12/outbox.cif.g09.slc.cpg/sg70_18_cif.got.tgz:34934.got - 2010.04.16 13:46:32.
