data_PCOD8286656
_publ_section_title
;
Structure prediction by ZEFSAII (Michael W. Deem and Ramdas Pophale) SiO2 
 PCOD8286656
Probable space group: F D D D
;
_chemical_formula_sum "Si O2"
_cell_formula_units_Z 160
_cell_length_a 20.953908
_cell_length_b 15.370715
_cell_length_c 23.446103
_cell_angle_alpha 90.000000
_cell_angle_beta 90.000000
_cell_angle_gamma 90.000000
_cell_volume 7551.439918
_symmetry_space_group_name_H-M "F D D D"
_symmetry_group_IT_number 70
_space_group.IT_coordinate_system_code '2'
_symmetry_cell_setting 'orthorhombic'
loop_
_space_group_symop_operation_xyz
x,y,z
1/4-x,1/4-y,z
x,1/4-y,1/4-z
1/4-x,y,1/4-z
-x,-y,-z
3/4+x,3/4+y,-z
-x,3/4+y,3/4+z
3/4+x,-y,3/4+z
x,1/2+y,1/2+z
1/4-x,3/4-y,1/2+z
x,3/4-y,3/4-z
1/4-x,1/2+y,3/4-z
-x,1/2-y,1/2-z
3/4+x,1/4+y,1/2-z
-x,1/4+y,1/4+z
3/4+x,1/2-y,1/4+z
1/2+x,y,1/2+z
3/4-x,1/4-y,1/2+z
1/2+x,1/4-y,3/4-z
3/4-x,y,3/4-z
1/2-x,-y,1/2-z
1/4+x,3/4+y,1/2-z
1/2-x,3/4+y,1/4+z
1/4+x,-y,1/4+z
1/2+x,1/2+y,z
3/4-x,3/4-y,z
1/2+x,3/4-y,1/4-z
3/4-x,1/2+y,1/4-z
1/2-x,1/2-y,-z
1/4+x,1/4+y,-z
1/2-x,1/4+y,3/4+z
1/4+x,1/2-y,3/4+z
loop_
_atom_site_type_symbol
_atom_site_label
_atom_site_fract_x
_atom_site_fract_y
_atom_site_fract_z
Si Si1 0.375000 0.875000 0.780398
Si Si2 0.048242 0.385183 0.556798
Si Si3 0.167036 0.201678 0.901982
Si Si4 0.860980 0.773636 0.766498
Si Si5 0.375000 0.241373 0.375000
Si Si6 0.785870 0.499681 0.034990
O O1 0.400778 0.798366 0.821856
O O2 0.433008 0.912363 0.742236
O O3 0.092276 0.470253 0.557953
O O4 0.065494 0.319379 0.607873
O O5 0.058938 0.336286 0.496724
O O6 0.975000 0.410380 0.562201
O O7 0.125000 0.125000 0.874144
O O8 0.192188 0.261709 0.850729
O O9 0.124811 0.250926 0.949923
O O10 0.875000 0.875000 0.778147
O O11 0.790282 0.742139 0.782110
#
# Coordination Sequence:
#
# PCOD8286656 Si02
#       6
#    16  32  32  32  16  32
#     4   9  20  40  64  96 134 174 222 285 340 404
#     4  11  22  43  64  94 136 175 229 280 338 412
#     4  11  22  42  65  95 137 177 219 282 334 401
#     4  11  24  44  66  97 138 180 223 285 342 403
#     4   9  20  40  63  92 126 176 221 276 340 397
#     4  11  22  41  69  98 134 178 227 277 347 411
#
# _framework density 21.188013000000002
#
# number of rings (size 3 to 8) (size 9 to 14) (size 15 to 20)
#    0.000    1.400    5.000    1.800    0.000    0.800 
#    3.600    8.500    0.000    0.000    0.000    0.000 
#    0.000    0.000    0.000    0.000    0.000    0.000 
#
# Total GULP energy -495903.847408 kJ/mol
# GULP energy per Si atom -12397.596185 kJ/mol
# Density = 2.113979 g / cm^3
# Si number density = 21.188013 Si / 1000 Ang^3
#
#
#
# Elastic Constant Matrix: (Units=GPa)
#
#
# Indices 1 2 3 4 5 6 
#
# 1 126.4483 45.0144 22.3769 0.0000 0.0000 0.0000
# 2 45.0144 97.6239 37.2387 0.0000 0.0000 0.0000
# 3 22.3769 37.2387 85.4018 0.0000 0.0000 0.0000
# 4 0.0000 0.0000 0.0000 21.2302 0.0000 0.0000
# 5 0.0000 0.0000 0.0000 0.0000 33.5321 0.0000
# 6 0.0000 0.0000 0.0000 0.0000 0.0000 27.6971
#
#
#
# Elastic Compliance Matrix: (Units=1/GPa)
#
#
# Indices 1 2 3 4 5 6 
#
# 1 0.009496 -0.004114 -0.000694 0.000000 0.000000 0.000000
# 2 -0.004114 0.014069 -0.005057 0.000000 0.000000 0.000000
# 3 -0.000694 -0.005057 0.014096 0.000000 0.000000 0.000000
# 4 0.000000 0.000000 0.000000 0.047103 0.000000 0.000000
# 5 0.000000 0.000000 0.000000 0.000000 0.029822 0.000000
# 6 0.000000 0.000000 0.000000 0.000000 0.000000 0.036105
#
#
# Mechanical properties :
#
#
# Convention : Reuss Voigt Hill
#
# Bulk Modulus (GPa) = 55.76798 57.63711 56.70254
# Shear Modulus (GPa) = 28.34504 30.14813 29.24659
#
# Velocity S-wave (km/s) = 3.66154 3.77621 3.71932
# Velocity P-wave (km/s) = 6.65233 6.80255 6.72786
#
# Compressibility (1/GPa) = 0.01793144
#
# Stress axis : x y z
#
# Youngs Moduli (GPa) = 105.31148 71.07767 70.94071
#
# Poissons Ratio (x) = 0.29238 0.04926
# Poissons Ratio (y) = 0.43321 0.35874
# Poissons Ratio (z) = 0.07312 0.35943
#
# Static dielectric constant tensor:
#      x y z
#    x 3.755530 0.000000 0.000000 
#    y 0.000000 3.807590 0.000000 
#    z 0.000000 0.000000 3.887970 
# 
# 
# High freq. dielectric constant tensor:
#      x y z
#    x 1.826760 0.000000 0.000000 
#    y 0.000000 1.822620 0.000000 
#    z 0.000000 0.000000 1.838310 
# 
# From -- ./inp_files/37479.got.cif
#   From: 2010.03.12/outbox.cif.g09.slc.cpg/sg70_19_cif.got.tgz:37479.got - 2010.04.16 13:46:32.
