data_PCOD8286078
_publ_section_title
;
Structure prediction by ZEFSAII (Michael W. Deem and Ramdas Pophale) SiO2 
 PCOD8286078
Probable space group: F D D D
;
_chemical_formula_sum "Si O2"
_cell_formula_units_Z 160
_cell_length_a 22.309611
_cell_length_b 15.149353
_cell_length_c 22.646183
_cell_angle_alpha 90.000000
_cell_angle_beta 90.000000
_cell_angle_gamma 90.000000
_cell_volume 7653.870248
_symmetry_space_group_name_H-M "F D D D"
_symmetry_group_IT_number 70
_space_group.IT_coordinate_system_code '2'
_symmetry_cell_setting 'orthorhombic'
loop_
_space_group_symop_operation_xyz
x,y,z
1/4-x,1/4-y,z
x,1/4-y,1/4-z
1/4-x,y,1/4-z
-x,-y,-z
3/4+x,3/4+y,-z
-x,3/4+y,3/4+z
3/4+x,-y,3/4+z
x,1/2+y,1/2+z
1/4-x,3/4-y,1/2+z
x,3/4-y,3/4-z
1/4-x,1/2+y,3/4-z
-x,1/2-y,1/2-z
3/4+x,1/4+y,1/2-z
-x,1/4+y,1/4+z
3/4+x,1/2-y,1/4+z
1/2+x,y,1/2+z
3/4-x,1/4-y,1/2+z
1/2+x,1/4-y,3/4-z
3/4-x,y,3/4-z
1/2-x,-y,1/2-z
1/4+x,3/4+y,1/2-z
1/2-x,3/4+y,1/4+z
1/4+x,-y,1/4+z
1/2+x,1/2+y,z
3/4-x,3/4-y,z
1/2+x,3/4-y,1/4-z
3/4-x,1/2+y,1/4-z
1/2-x,1/2-y,-z
1/4+x,1/4+y,-z
1/2-x,1/4+y,3/4+z
1/4+x,1/2-y,3/4+z
loop_
_atom_site_type_symbol
_atom_site_label
_atom_site_fract_x
_atom_site_fract_y
_atom_site_fract_z
Si Si1 0.582036 0.386476 0.278462
Si Si2 0.071201 0.875000 0.875000
Si Si3 0.005866 0.045467 0.911802
Si Si4 0.814228 0.062267 0.345419
Si Si5 0.345749 0.960135 0.264541
Si Si6 0.233969 0.625000 0.125000
O O1 0.639104 0.356477 0.317129
O O2 0.569835 0.318003 0.225444
O O3 0.596622 0.482977 0.253862
O O4 0.523135 0.393379 0.317438
O O5 0.029441 0.789390 0.873108
O O6 0.991515 0.127075 0.868052
O O7 0.056423 0.074020 0.958830
O O8 0.944030 0.018960 0.942732
O O9 0.875000 0.097556 0.375000
O O10 0.806150 0.960700 0.363492
O O11 0.375000 0.875000 0.296207
#
# Coordination Sequence:
#
# PCOD8286078 Si02
#       6
#    32  16  32  32  32  16
#     4  10  22  43  63  91 127 161 213 257 305 379
#     4   9  22  40  64  92 130 164 200 257 312 378
#     4  10  22  37  61  94 125 156 200 248 308 366
#     4  12  24  41  61  94 126 163 213 263 304 370
#     4  10  20  38  63  91 124 160 196 249 309 369
#     4  11  25  44  67  84 121 174 213 259 314 356
#
# _framework density 20.904456
#
# number of rings (size 3 to 8) (size 9 to 14) (size 15 to 20)
#    0.000    1.600    2.000    2.100    2.800    1.600 
#    0.000    2.000    0.000    0.000    0.000    0.000 
#    0.000    0.000    0.000    0.000    0.000    0.000 
#
# Total GULP energy -496017.114141 kJ/mol
# GULP energy per Si atom -12400.427854 kJ/mol
# Density = 2.085688 g / cm^3
# Si number density = 20.904456 Si / 1000 Ang^3
#
#
#
# Elastic Constant Matrix: (Units=GPa)
#
#
# Indices 1 2 3 4 5 6 
#
# 1 66.6424 36.2874 25.7958 0.0000 0.0000 0.0000
# 2 36.2874 129.8028 43.8107 0.0000 0.0000 0.0000
# 3 25.7958 43.8107 113.8613 0.0000 0.0000 0.0000
# 4 0.0000 0.0000 0.0000 19.8796 0.0000 0.0000
# 5 0.0000 0.0000 0.0000 0.0000 -37.7279 0.0000
# 6 0.0000 0.0000 0.0000 0.0000 0.0000 23.7541
#
#
#
# Elastic Compliance Matrix: (Units=1/GPa)
#
#
# Indices 1 2 3 4 5 6 
#
# 1 0.018300 -0.004271 -0.002502 0.000000 0.000000 0.000000
# 2 -0.004271 0.009851 -0.002823 0.000000 0.000000 0.000000
# 3 -0.002502 -0.002823 0.010436 0.000000 0.000000 0.000000
# 4 0.000000 0.000000 0.000000 0.050303 0.000000 0.000000
# 5 0.000000 0.000000 0.000000 0.000000 -0.026506 0.000000
# 6 0.000000 0.000000 0.000000 0.000000 0.000000 0.042098
#
#
# Mechanical properties :
#
#
# Convention : Reuss Voigt Hill
#
# Bulk Modulus (GPa) = 51.56349 58.01047 54.78698
# Shear Modulus (GPa) = 38.42058 14.80867 26.61463
#
# Velocity S-wave (km/s) = 4.29174 2.66446 3.57200
# Velocity P-wave (km/s) = 7.01987 6.10544 6.57856
#
# Compressibility (1/GPa) = 0.01939357
#
# Stress axis : x y z
#
# Youngs Moduli (GPa) = 54.64528 101.51518 95.82556
#
# Poissons Ratio (x) = 0.43360 0.23980
# Poissons Ratio (y) = 0.23340 0.27048
# Poissons Ratio (z) = 0.13675 0.28654
#
# Static dielectric constant tensor:
#      x y z
#    x 3.779490 0.000000 0.000000 
#    y 0.000000 3.606160 0.000000 
#    z 0.000000 0.000000 3.934050 
# 
# 
# High freq. dielectric constant tensor:
#      x y z
#    x 1.824240 0.000000 0.000000 
#    y 0.000000 1.816430 0.000000 
#    z 0.000000 0.000000 1.816440 
# 
# From -- ./inp_files/36355.got.cif
#   From: 2010.03.12/outbox.cif.g09.slc.cpg/sg70_19_cif.got.tgz:36355.got - 2010.04.16 13:46:32.
