data_PCOD8286655
_publ_section_title
;
Structure prediction by ZEFSAII (Michael W. Deem and Ramdas Pophale) SiO2 
 PCOD8286655
Probable space group: F D D D
;
_chemical_formula_sum "Si O2"
_cell_formula_units_Z 176
_cell_length_a 11.241948
_cell_length_b 27.696738
_cell_length_c 26.574448
_cell_angle_alpha 90.000000
_cell_angle_beta 90.000000
_cell_angle_gamma 90.000000
_cell_volume 8274.360665
_symmetry_space_group_name_H-M "F D D D"
_symmetry_group_IT_number 70
_space_group.IT_coordinate_system_code '2'
_symmetry_cell_setting 'orthorhombic'
loop_
_space_group_symop_operation_xyz
x,y,z
1/4-x,1/4-y,z
x,1/4-y,1/4-z
1/4-x,y,1/4-z
-x,-y,-z
3/4+x,3/4+y,-z
-x,3/4+y,3/4+z
3/4+x,-y,3/4+z
x,1/2+y,1/2+z
1/4-x,3/4-y,1/2+z
x,3/4-y,3/4-z
1/4-x,1/2+y,3/4-z
-x,1/2-y,1/2-z
3/4+x,1/4+y,1/2-z
-x,1/4+y,1/4+z
3/4+x,1/2-y,1/4+z
1/2+x,y,1/2+z
3/4-x,1/4-y,1/2+z
1/2+x,1/4-y,3/4-z
3/4-x,y,3/4-z
1/2-x,-y,1/2-z
1/4+x,3/4+y,1/2-z
1/2-x,3/4+y,1/4+z
1/4+x,-y,1/4+z
1/2+x,1/2+y,z
3/4-x,3/4-y,z
1/2+x,3/4-y,1/4-z
3/4-x,1/2+y,1/4-z
1/2-x,1/2-y,-z
1/4+x,1/4+y,-z
1/2-x,1/4+y,3/4+z
1/4+x,1/2-y,3/4+z
loop_
_atom_site_type_symbol
_atom_site_label
_atom_site_fract_x
_atom_site_fract_y
_atom_site_fract_z
Si Si1 0.512031 0.457649 0.891954
Si Si2 0.395013 0.697160 0.706918
Si Si3 0.111109 0.200611 0.496474
Si Si4 0.393119 0.156728 0.736776
Si Si5 0.375000 0.375000 0.586136
Si Si6 0.516723 0.311025 0.656561
O O1 0.375000 0.452070 0.875000
O O2 0.603227 0.438536 0.849891
O O3 0.527892 0.424297 0.940585
O O4 0.560092 0.511675 0.907067
O O5 0.331148 0.745144 0.728531
O O6 0.538730 0.702488 0.710027
O O7 0.355475 0.651112 0.739437
O O8 0.163735 0.169918 0.449077
O O9 0.992182 0.175929 0.517412
O O10 0.454970 0.174100 0.787302
O O11 0.475710 0.357167 0.624341
O O12 0.625000 0.290038 0.625000
#
# Coordination Sequence:
#
# PCOD8286655 Si02
#       6
#    32  32  32  32  16  32
#     4  11  25  44  64  94 139 177 224 278 335 409
#     4  11  23  42  69  97 134 181 220 279 347 404
#     4  11  22  43  69  97 135 173 226 284 339 405
#     4  12  24  42  68  99 134 179 226 279 341 410
#     4  12  20  42  68  95 131 168 222 282 326 404
#     4  11  22  41  68  96 132 176 219 277 346 394
#
# _framework density 21.270524999999999
#
# number of rings (size 3 to 8) (size 9 to 14) (size 15 to 20)
#    0.000    0.727    5.455    2.182    0.000    5.091 
#    0.000    1.818    0.000    0.000    0.000    0.000 
#    0.000    0.000    0.000    0.000    0.000    0.000 
#
# Total GULP energy -545326.869235 kJ/mol
# GULP energy per Si atom -12393.792483 kJ/mol
# Density = 2.122211 g / cm^3
# Si number density = 21.270525 Si / 1000 Ang^3
#
#
#
# Elastic Constant Matrix: (Units=GPa)
#
#
# Indices 1 2 3 4 5 6 
#
# 1 84.0064 32.8858 58.3586 0.0000 0.0000 0.0000
# 2 32.8858 154.3431 40.6008 0.0000 0.0000 0.0000
# 3 58.3586 40.6008 144.9072 0.0000 0.0000 0.0000
# 4 0.0000 0.0000 0.0000 42.9330 0.0000 0.0000
# 5 0.0000 0.0000 0.0000 0.0000 36.7396 0.0000
# 6 0.0000 0.0000 0.0000 0.0000 0.0000 47.5560
#
#
#
# Elastic Compliance Matrix: (Units=1/GPa)
#
#
# Indices 1 2 3 4 5 6 
#
# 1 0.017067 -0.001974 -0.006320 0.000000 0.000000 0.000000
# 2 -0.001974 0.007223 -0.001229 0.000000 0.000000 0.000000
# 3 -0.006320 -0.001229 0.009791 0.000000 0.000000 0.000000
# 4 0.000000 0.000000 0.000000 0.023292 0.000000 0.000000
# 5 0.000000 0.000000 0.000000 0.000000 0.027219 0.000000
# 6 0.000000 0.000000 0.000000 0.000000 0.000000 0.021028
#
#
# Mechanical properties :
#
#
# Convention : Reuss Voigt Hill
#
# Bulk Modulus (GPa) = 66.51327 71.88301 69.19814
# Shear Modulus (GPa) = 38.55722 42.20650 40.38186
#
# Velocity S-wave (km/s) = 4.26221 4.45935 4.36189
# Velocity P-wave (km/s) = 7.45385 7.77061 7.61388
#
# Compressibility (1/GPa) = 0.01503459
#
# Stress axis : x y z
#
# Youngs Moduli (GPa) = 58.59137 138.44870 102.13756
#
# Poissons Ratio (x) = 0.27328 0.64556
# Poissons Ratio (y) = 0.11565 0.12551
# Poissons Ratio (z) = 0.37033 0.17013
#
# Static dielectric constant tensor:
#      x y z
#    x 3.714060 0.000000 0.000000 
#    y 0.000000 4.280520 0.000000 
#    z 0.000000 0.000000 3.795980 
# 
# 
# High freq. dielectric constant tensor:
#      x y z
#    x 1.814010 0.000000 0.000000 
#    y 0.000000 1.862240 0.000000 
#    z 0.000000 0.000000 1.832160 
# 
# From -- ./inp_files/20977.got.cif
#   From: 2010.03.12/outbox.cif.g09.slc.cpg/sg70_11_cif.got.tgz:20977.got - 2010.04.16 13:46:32.
