data_PCOD8286968
_publ_section_title
;
Structure prediction by ZEFSAII (Michael W. Deem and Ramdas Pophale) SiO2 
 PCOD8286968
Probable space group: I M M M
;
_chemical_formula_sum "Si O2"
_cell_formula_units_Z 80
_cell_length_a 19.090285
_cell_length_b 9.673167
_cell_length_c 32.411681
_cell_angle_alpha 90.000000
_cell_angle_beta 90.000000
_cell_angle_gamma 90.000000
_cell_volume 5985.254937
_symmetry_space_group_name_H-M "I M M M"
_symmetry_group_IT_number 71
_symmetry_cell_setting 'orthorhombic'
loop_
_space_group_symop_operation_xyz
x,y,z
-x,-y,z
x,-y,-z
-x,y,-z
-x,-y,-z
x,y,-z
-x,y,z
x,-y,z
1/2+x,1/2+y,1/2+z
1/2-x,1/2-y,1/2+z
1/2+x,1/2-y,1/2-z
1/2-x,1/2+y,1/2-z
1/2-x,1/2-y,1/2-z
1/2+x,1/2+y,1/2-z
1/2-x,1/2+y,1/2+z
1/2+x,1/2-y,1/2+z
loop_
_atom_site_type_symbol
_atom_site_label
_atom_site_fract_x
_atom_site_fract_y
_atom_site_fract_z
Si Si1 0.000000 0.164069 0.335360
Si Si2 0.580479 0.840561 0.952479
Si Si3 0.347604 0.660243 0.727508
Si Si4 0.134886 0.838442 0.383942
Si Si5 0.000000 0.836268 0.755438
Si Si6 0.266706 0.658587 0.189754
O O1 0.931943 0.216239 0.359010
O O2 0.000000 0.230969 0.289980
O O3 0.000000 0.000000 0.332034
O O4 0.500000 0.793787 0.944857
O O5 0.635319 0.748709 0.926199
O O6 0.589733 0.000000 0.940046
O O7 0.600409 0.817777 0.000000
O O8 0.338106 0.500000 0.716309
O O9 0.428504 0.708545 0.721404
O O10 0.324564 0.688487 0.774854
O O11 0.301337 0.747224 0.695705
O O12 0.202215 0.807926 0.355380
O O13 0.129788 0.000000 0.394909
O O14 0.000000 0.000000 0.750289
O O15 0.242769 0.500000 0.192391
#
# Coordination Sequence:
#
# PCOD8286968 Si02
#       6
#     8  16  16  16   8  16
#     4   9  14  22  36  56  75  94 128 167 197 220
#     4   9  18  30  40  53  77 104 126 155 198 237
#     4   9  16  26  40  55  73 100 131 161 193 231
#     4  10  17  26  42  58  73  98 133 168 195 225
#     4   9  14  24  41  56  72  99 135 167 194 226
#     4   9  17  27  38  55  78 100 124 160 201 232
#
# _framework density 13.366180999999999
#
# number of rings (size 3 to 8) (size 9 to 14) (size 15 to 20)
#    0.000    2.800    3.000    0.600    0.000    1.200 
#    0.000    1.500    0.000    1.200    0.000    0.000 
#    0.000    0.000    0.000    0.900    0.000   17.600 
#
# Total GULP energy -495804.643274 kJ/mol
# GULP energy per Si atom -12395.116082 kJ/mol
# Density = 1.333576 g / cm^3
# Si number density = 13.366181 Si / 1000 Ang^3
#
#
#
# Elastic Constant Matrix: (Units=GPa)
#
#
# Indices 1 2 3 4 5 6 
#
# 1 91.4843 41.1319 37.1855 0.0000 0.0000 0.0000
# 2 41.1319 52.5581 42.5524 0.0000 0.0000 0.0000
# 3 37.1855 42.5524 70.8209 0.0000 0.0000 0.0000
# 4 0.0000 0.0000 0.0000 22.1751 0.0000 0.0000
# 5 0.0000 0.0000 0.0000 0.0000 20.3847 0.0000
# 6 0.0000 0.0000 0.0000 0.0000 0.0000 19.6392
#
#
#
# Elastic Compliance Matrix: (Units=1/GPa)
#
#
# Indices 1 2 3 4 5 6 
#
# 1 0.016984 -0.011823 -0.001814 0.000000 0.000000 0.000000
# 2 -0.011823 0.045280 -0.020999 0.000000 0.000000 0.000000
# 3 -0.001814 -0.020999 0.027689 0.000000 0.000000 0.000000
# 4 0.000000 0.000000 0.000000 0.045096 0.000000 0.000000
# 5 0.000000 0.000000 0.000000 0.000000 0.049056 0.000000
# 6 0.000000 0.000000 0.000000 0.000000 0.000000 0.050919
#
#
# Mechanical properties :
#
#
# Convention : Reuss Voigt Hill
#
# Bulk Modulus (GPa) = 48.34967 50.73366 49.54166
# Shear Modulus (GPa) = 16.06741 18.70603 17.38672
#
# Velocity S-wave (km/s) = 3.47088 3.74505 3.61057
# Velocity P-wave (km/s) = 7.23287 7.53258 7.38424
#
# Compressibility (1/GPa) = 0.02068267
#
# Stress axis : x y z
#
# Youngs Moduli (GPa) = 58.87965 22.08468 36.11495
#
# Poissons Ratio (x) = 0.26111 0.06550
# Poissons Ratio (y) = 0.69614 0.75836
# Poissons Ratio (z) = 0.10679 0.46375
#
# Static dielectric constant tensor:
#      x y z
#    x 2.609310 0.000000 0.000000 
#    y 0.000000 2.516580 0.000000 
#    z 0.000000 0.000000 2.510260 
# 
# 
# High freq. dielectric constant tensor:
#      x y z
#    x 1.486370 0.000000 0.000000 
#    y 0.000000 1.497400 0.000000 
#    z 0.000000 0.000000 1.484340 
# 
# From -- ./inp_files/11301.got.cif
#   From: 2010.06.25/outbox.cif.g09.slc.cpg/sg71_6_cif.got.tgz:11301.got - 2010.06.28 04:59:45.
