data_PCOD8286569
_publ_section_title
;
Structure prediction by ZEFSAII (Michael W. Deem and Ramdas Pophale) SiO2 
 PCOD8286569
Probable space group: F D D D
;
_chemical_formula_sum "Si O2"
_cell_formula_units_Z 104
_cell_length_a 7.216530
_cell_length_b 28.673273
_cell_length_c 21.493175
_cell_angle_alpha 90.000000
_cell_angle_beta 90.000000
_cell_angle_gamma 90.000000
_cell_volume 4447.400759
_symmetry_space_group_name_H-M "F D D D"
_symmetry_group_IT_number 70
_space_group.IT_coordinate_system_code '2'
_symmetry_cell_setting 'orthorhombic'
loop_
_space_group_symop_operation_xyz
x,y,z
1/4-x,1/4-y,z
x,1/4-y,1/4-z
1/4-x,y,1/4-z
-x,-y,-z
3/4+x,3/4+y,-z
-x,3/4+y,3/4+z
3/4+x,-y,3/4+z
x,1/2+y,1/2+z
1/4-x,3/4-y,1/2+z
x,3/4-y,3/4-z
1/4-x,1/2+y,3/4-z
-x,1/2-y,1/2-z
3/4+x,1/4+y,1/2-z
-x,1/4+y,1/4+z
3/4+x,1/2-y,1/4+z
1/2+x,y,1/2+z
3/4-x,1/4-y,1/2+z
1/2+x,1/4-y,3/4-z
3/4-x,y,3/4-z
1/2-x,-y,1/2-z
1/4+x,3/4+y,1/2-z
1/2-x,3/4+y,1/4+z
1/4+x,-y,1/4+z
1/2+x,1/2+y,z
3/4-x,3/4-y,z
1/2+x,3/4-y,1/4-z
3/4-x,1/2+y,1/4-z
1/2-x,1/2-y,-z
1/4+x,1/4+y,-z
1/2-x,1/4+y,3/4+z
1/4+x,1/2-y,3/4+z
loop_
_atom_site_type_symbol
_atom_site_label
_atom_site_fract_x
_atom_site_fract_y
_atom_site_fract_z
Si Si1 0.125000 0.625000 0.625000
Si Si2 0.076371 0.675776 0.807567
Si Si3 0.595627 0.445859 0.787649
Si Si4 0.845648 0.950314 0.556715
O O1 0.265390 0.592705 0.585039
O O2 0.125000 0.625000 0.780058
O O3 0.198316 0.710282 0.765675
O O4 0.147192 0.675833 0.878485
O O5 0.866959 0.689048 0.794019
O O6 0.632430 0.494983 0.821349
O O7 0.782953 0.429736 0.750683
#
# Coordination Sequence:
#
# PCOD8286569 Si02
#       4
#     8  32  32  32
#     4  12  24  44  74 108 146 184 232 300 348 428
#     4  11  23  42  72  99 136 177 242 290 340 412
#     4  11  24  46  67 102 143 179 233 287 363 414
#     4  10  25  43  71  99 135 189 230 290 355 417
#
# _framework density 23.384443999999998
#
# number of rings (size 3 to 8) (size 9 to 14) (size 15 to 20)
#    0.000    1.231    1.538    3.692    8.615    0.000 
#    0.000    6.154    0.000    0.000    0.000    0.000 
#    0.000    0.000    0.000    0.000    0.000    0.000 
#
# Total GULP energy -322212.759199 kJ/mol
# GULP energy per Si atom -12392.798431 kJ/mol
# Density = 2.333122 g / cm^3
# Si number density = 23.384444 Si / 1000 Ang^3
#
#
#
# Elastic Constant Matrix: (Units=GPa)
#
#
# Indices 1 2 3 4 5 6 
#
# 1 134.1615 41.2716 74.4125 0.0000 0.0000 0.0000
# 2 41.2716 88.2563 45.3170 0.0000 0.0000 0.0000
# 3 74.4125 45.3170 90.7437 0.0000 0.0000 0.0000
# 4 0.0000 0.0000 0.0000 -118.2305 0.0000 0.0000
# 5 0.0000 0.0000 0.0000 0.0000 48.2655 0.0000
# 6 0.0000 0.0000 0.0000 0.0000 0.0000 31.7040
#
#
#
# Elastic Compliance Matrix: (Units=1/GPa)
#
#
# Indices 1 2 3 4 5 6 
#
# 1 0.013721 -0.000859 -0.010822 0.000000 0.000000 0.000000
# 2 -0.000859 0.015292 -0.006932 0.000000 0.000000 0.000000
# 3 -0.010822 -0.006932 0.023356 0.000000 0.000000 0.000000
# 4 0.000000 0.000000 0.000000 -0.008458 0.000000 0.000000
# 5 0.000000 0.000000 0.000000 0.000000 0.020719 0.000000
# 6 0.000000 0.000000 0.000000 0.000000 0.000000 0.031542
#
#
# Mechanical properties :
#
#
# Convention : Reuss Voigt Hill
#
# Bulk Modulus (GPa) = 66.04225 70.57373 68.30799
# Shear Modulus (GPa) = 36.11539 2.49184 19.30361
#
# Velocity S-wave (km/s) = 3.93417 1.03340 2.87625
# Velocity P-wave (km/s) = 6.99573 5.62754 6.34860
#
# Compressibility (1/GPa) = 0.01514182
#
# Stress axis : x y z
#
# Youngs Moduli (GPa) = 72.88358 65.39426 42.81507
#
# Poissons Ratio (x) = 0.05620 0.46335
# Poissons Ratio (y) = 0.06263 0.29679
# Poissons Ratio (z) = 0.78875 0.45331
#
# Static dielectric constant tensor:
#      x y z
#    x 4.309670 0.000000 0.000000 
#    y 0.000000 4.159320 0.000000 
#    z 0.000000 0.000000 4.265490 
# 
# 
# High freq. dielectric constant tensor:
#      x y z
#    x 1.933870 0.000000 0.000000 
#    y 0.000000 1.925650 0.000000 
#    z 0.000000 0.000000 1.927690 
# 
# From -- ./inp_files/8424.got.cif
#   From: 2010.03.12/outbox.cif.g09.slc.cpg/sg70_5_cif.got.tgz:8424.got - 2010.04.16 13:46:32.
