data_PCOD8286630
_publ_section_title
;
Structure prediction by ZEFSAII (Michael W. Deem and Ramdas Pophale) SiO2 
 PCOD8286630
Probable space group: F D D D
;
_chemical_formula_sum "Si O2"
_cell_formula_units_Z 192
_cell_length_a 27.430824
_cell_length_b 23.689230
_cell_length_c 14.135168
_cell_angle_alpha 90.000000
_cell_angle_beta 90.000000
_cell_angle_gamma 90.000000
_cell_volume 9185.245591
_symmetry_space_group_name_H-M "F D D D"
_symmetry_group_IT_number 70
_space_group.IT_coordinate_system_code '2'
_symmetry_cell_setting 'orthorhombic'
loop_
_space_group_symop_operation_xyz
x,y,z
1/4-x,1/4-y,z
x,1/4-y,1/4-z
1/4-x,y,1/4-z
-x,-y,-z
3/4+x,3/4+y,-z
-x,3/4+y,3/4+z
3/4+x,-y,3/4+z
x,1/2+y,1/2+z
1/4-x,3/4-y,1/2+z
x,3/4-y,3/4-z
1/4-x,1/2+y,3/4-z
-x,1/2-y,1/2-z
3/4+x,1/4+y,1/2-z
-x,1/4+y,1/4+z
3/4+x,1/2-y,1/4+z
1/2+x,y,1/2+z
3/4-x,1/4-y,1/2+z
1/2+x,1/4-y,3/4-z
3/4-x,y,3/4-z
1/2-x,-y,1/2-z
1/4+x,3/4+y,1/2-z
1/2-x,3/4+y,1/4+z
1/4+x,-y,1/4+z
1/2+x,1/2+y,z
3/4-x,3/4-y,z
1/2+x,3/4-y,1/4-z
3/4-x,1/2+y,1/4-z
1/2-x,1/2-y,-z
1/4+x,1/4+y,-z
1/2-x,1/4+y,3/4+z
1/4+x,1/2-y,3/4+z
loop_
_atom_site_type_symbol
_atom_site_label
_atom_site_fract_x
_atom_site_fract_y
_atom_site_fract_z
Si Si1 0.291883 0.375000 0.375000
Si Si2 0.721420 0.798781 0.266232
Si Si3 0.798337 0.625000 0.125000
Si Si4 0.673735 0.392465 0.672560
Si Si5 0.998092 0.680499 0.458577
Si Si6 0.587681 0.669507 0.815977
Si Si7 0.135104 0.792775 0.900830
O O1 0.258490 0.427163 0.406448
O O2 0.323971 0.398864 0.289105
O O3 0.713927 0.841926 0.179138
O O4 0.741887 0.738172 0.233259
O O5 0.666991 0.791932 0.306709
O O6 0.762604 0.630126 0.216292
O O7 0.832002 0.568343 0.125392
O O8 0.625000 0.369077 0.625000
O O9 0.698948 0.438769 0.604422
O O10 0.662496 0.417077 0.774964
O O11 0.042110 0.669769 0.386520
O O12 0.625000 0.625000 0.860824
O O13 0.616156 0.729317 0.807874
#
# Coordination Sequence:
#
# PCOD8286630 Si02
#       7
#    16  32  16  32  32  32  32
#     4  12  20  38  68  97 140 167 206 257 355 422
#     4  11  21  39  62  98 132 172 210 270 337 401
#     4  12  23  44  69  93 122 183 241 273 314 386
#     4  12  20  38  67  99 133 172 221 275 336 405
#     4  11  25  42  65  93 134 176 230 278 324 393
#     4  11  26  42  63 100 139 174 216 273 345 413
#     4  11  21  40  65  95 135 170 215 275 334 402
#
# _framework density 20.903086999999999
#
# number of rings (size 3 to 8) (size 9 to 14) (size 15 to 20)
#    0.000    0.667    6.667    1.250    2.333    4.000 
#    0.000    7.083    0.000    0.000    0.000    0.000 
#    0.000    0.000    0.000    0.000    0.000    0.000 
#
# Total GULP energy -594956.121831 kJ/mol
# GULP energy per Si atom -12394.919205 kJ/mol
# Density = 2.085551 g / cm^3
# Si number density = 20.903087 Si / 1000 Ang^3
#
#
#
# Elastic Constant Matrix: (Units=GPa)
#
#
# Indices 1 2 3 4 5 6 
#
# 1 93.8406 60.3869 39.3490 0.0000 0.0000 0.0000
# 2 60.3869 136.2884 43.7026 0.0000 0.0000 0.0000
# 3 39.3490 43.7026 83.1744 0.0000 0.0000 0.0000
# 4 0.0000 0.0000 0.0000 21.6350 0.0000 0.0000
# 5 0.0000 0.0000 0.0000 0.0000 24.6460 0.0000
# 6 0.0000 0.0000 0.0000 0.0000 0.0000 30.2993
#
#
#
# Elastic Compliance Matrix: (Units=1/GPa)
#
#
# Indices 1 2 3 4 5 6 
#
# 1 0.016311 -0.005716 -0.004713 0.000000 0.000000 0.000000
# 2 -0.005716 0.010827 -0.002985 0.000000 0.000000 0.000000
# 3 -0.004713 -0.002985 0.015821 0.000000 0.000000 0.000000
# 4 0.000000 0.000000 0.000000 0.046221 0.000000 0.000000
# 5 0.000000 0.000000 0.000000 0.000000 0.040574 0.000000
# 6 0.000000 0.000000 0.000000 0.000000 0.000000 0.033004
#
#
# Mechanical properties :
#
#
# Convention : Reuss Voigt Hill
#
# Bulk Modulus (GPa) = 61.99124 66.68671 64.33897
# Shear Modulus (GPa) = 25.64583 26.64039 26.14311
#
# Velocity S-wave (km/s) = 3.50650 3.57385 3.54033
# Velocity P-wave (km/s) = 6.79080 7.00014 6.89626
#
# Compressibility (1/GPa) = 0.01613131
#
# Stress axis : x y z
#
# Youngs Moduli (GPa) = 61.30920 92.36158 63.20678
#
# Poissons Ratio (x) = 0.52791 0.29791
# Poissons Ratio (y) = 0.35042 0.18866
# Poissons Ratio (z) = 0.28897 0.27569
#
# Static dielectric constant tensor:
#      x y z
#    x 3.878030 0.000000 0.000000 
#    y 0.000000 4.074260 0.000000 
#    z 0.000000 0.000000 3.672040 
# 
# 
# High freq. dielectric constant tensor:
#      x y z
#    x 1.824690 0.000000 0.000000 
#    y 0.000000 1.813710 0.000000 
#    z 0.000000 0.000000 1.800770 
# 
# From -- ./inp_files/30156.got.cif
#   From: 2010.03.12/outbox.cif.g09.slc.cpg/sg70_16_cif.got.tgz:30156.got - 2010.04.16 13:46:32.
