data_PCOD8286739
_publ_section_title
;
Structure prediction by ZEFSAII (Michael W. Deem and Ramdas Pophale) SiO2 
 PCOD8286739
Probable space group: F D D D
;
_chemical_formula_sum "Si O2"
_cell_formula_units_Z 96
_cell_length_a 19.435881
_cell_length_b 12.331606
_cell_length_c 17.830378
_cell_angle_alpha 90.000000
_cell_angle_beta 90.000000
_cell_angle_gamma 90.000000
_cell_volume 4273.507022
_symmetry_space_group_name_H-M "F D D D"
_symmetry_group_IT_number 70
_space_group.IT_coordinate_system_code '2'
_symmetry_cell_setting 'orthorhombic'
loop_
_space_group_symop_operation_xyz
x,y,z
1/4-x,1/4-y,z
x,1/4-y,1/4-z
1/4-x,y,1/4-z
-x,-y,-z
3/4+x,3/4+y,-z
-x,3/4+y,3/4+z
3/4+x,-y,3/4+z
x,1/2+y,1/2+z
1/4-x,3/4-y,1/2+z
x,3/4-y,3/4-z
1/4-x,1/2+y,3/4-z
-x,1/2-y,1/2-z
3/4+x,1/4+y,1/2-z
-x,1/4+y,1/4+z
3/4+x,1/2-y,1/4+z
1/2+x,y,1/2+z
3/4-x,1/4-y,1/2+z
1/2+x,1/4-y,3/4-z
3/4-x,y,3/4-z
1/2-x,-y,1/2-z
1/4+x,3/4+y,1/2-z
1/2-x,3/4+y,1/4+z
1/4+x,-y,1/4+z
1/2+x,1/2+y,z
3/4-x,3/4-y,z
1/2+x,3/4-y,1/4-z
3/4-x,1/2+y,1/4-z
1/2-x,1/2-y,-z
1/4+x,1/4+y,-z
1/2-x,1/4+y,3/4+z
1/4+x,1/2-y,3/4+z
loop_
_atom_site_type_symbol
_atom_site_label
_atom_site_fract_x
_atom_site_fract_y
_atom_site_fract_z
Si Si1 0.243075 0.125000 0.625000
Si Si2 0.461469 0.727336 0.081568
Si Si3 0.875000 0.375000 0.987507
Si Si4 0.046955 0.588352 0.809766
O O1 0.191967 0.088175 0.691629
O O2 0.290973 0.225865 0.645509
O O3 0.432089 0.625000 0.125000
O O4 0.491612 0.818093 0.140293
O O5 0.395052 0.773435 0.038765
O O6 0.517699 0.681057 0.023340
O O7 0.125000 0.625000 0.800456
#
# Coordination Sequence:
#
# PCOD8286739 Si02
#       4
#    16  32  16  32
#     4   9  22  44  70 104 128 171 236 278 338 403
#     4  11  24  44  66 102 138 179 226 279 348 409
#     4   9  20  44  74  98 127 174 228 288 331 394
#     4  11  25  43  71 100 137 182 224 288 339 408
#
# _framework density 22.463985999999998
#
# number of rings (size 3 to 8) (size 9 to 14) (size 15 to 20)
#    0.000    1.667    1.667    1.000    2.333    8.667 
#    0.000    6.667    0.000    0.000    0.000    0.000 
#    0.000    0.000    0.000    0.000    0.000    0.000 
#
# Total GULP energy -297451.831481 kJ/mol
# GULP energy per Si atom -12393.826312 kJ/mol
# Density = 2.241286 g / cm^3
# Si number density = 22.463986 Si / 1000 Ang^3
#
#
#
# Elastic Constant Matrix: (Units=GPa)
#
#
# Indices 1 2 3 4 5 6 
#
# 1 135.5733 79.8477 68.5129 0.0000 0.0000 0.0000
# 2 79.8477 196.1533 91.5735 0.0000 0.0000 0.0000
# 3 68.5129 91.5735 159.0999 0.0000 0.0000 0.0000
# 4 0.0000 0.0000 0.0000 40.9330 0.0000 0.0000
# 5 0.0000 0.0000 0.0000 0.0000 4.3203 0.0000
# 6 0.0000 0.0000 0.0000 0.0000 0.0000 43.4437
#
#
#
# Elastic Compliance Matrix: (Units=1/GPa)
#
#
# Indices 1 2 3 4 5 6 
#
# 1 0.010561 -0.002976 -0.002835 0.000000 0.000000 0.000000
# 2 -0.002976 0.007810 -0.003214 0.000000 0.000000 0.000000
# 3 -0.002835 -0.003214 0.009356 0.000000 0.000000 0.000000
# 4 0.000000 0.000000 0.000000 0.024430 0.000000 0.000000
# 5 0.000000 0.000000 0.000000 0.000000 0.231465 0.000000
# 6 0.000000 0.000000 0.000000 0.000000 0.000000 0.023018
#
#
# Mechanical properties :
#
#
# Convention : Reuss Voigt Hill
#
# Bulk Modulus (GPa) = 103.32806 107.85497 105.59151
# Shear Modulus (GPa) = 15.24784 34.46556 24.85670
#
# Velocity S-wave (km/s) = 2.60814 3.92121 3.33004
# Velocity P-wave (km/s) = 7.42745 8.28359 7.86717
#
# Compressibility (1/GPa) = 0.00967791
#
# Stress axis : x y z
#
# Youngs Moduli (GPa) = 94.68392 128.04814 106.88262
#
# Poissons Ratio (x) = 0.38101 0.30306
# Poissons Ratio (y) = 0.28173 0.34348
# Poissons Ratio (z) = 0.26847 0.41150
#
# Static dielectric constant tensor:
#      x y z
#    x 3.684320 0.000000 0.000000 
#    y 0.000000 4.277580 0.000000 
#    z 0.000000 0.000000 4.783030 
# 
# 
# High freq. dielectric constant tensor:
#      x y z
#    x 1.865070 0.000000 0.000000 
#    y 0.000000 1.895390 0.000000 
#    z 0.000000 0.000000 1.909700 
# 
# From -- ./inp_files/17106.got.cif
#   From: 2010.03.12/outbox.cif.g09.slc.cpg/sg70_9_cif.got.tgz:17106.got - 2010.04.16 13:46:32.
