data_PCOD8286236
_publ_section_title
;
Structure prediction by ZEFSAII (Michael W. Deem and Ramdas Pophale) SiO2 
 PCOD8286236
Probable space group: F D D D
;
_chemical_formula_sum "Si O2"
_cell_formula_units_Z 160
_cell_length_a 24.121818
_cell_length_b 12.247344
_cell_length_c 24.127385
_cell_angle_alpha 90.000000
_cell_angle_beta 90.000000
_cell_angle_gamma 90.000000
_cell_volume 7127.909992
_symmetry_space_group_name_H-M "F D D D"
_symmetry_group_IT_number 70
_space_group.IT_coordinate_system_code '2'
_symmetry_cell_setting 'orthorhombic'
loop_
_space_group_symop_operation_xyz
x,y,z
1/4-x,1/4-y,z
x,1/4-y,1/4-z
1/4-x,y,1/4-z
-x,-y,-z
3/4+x,3/4+y,-z
-x,3/4+y,3/4+z
3/4+x,-y,3/4+z
x,1/2+y,1/2+z
1/4-x,3/4-y,1/2+z
x,3/4-y,3/4-z
1/4-x,1/2+y,3/4-z
-x,1/2-y,1/2-z
3/4+x,1/4+y,1/2-z
-x,1/4+y,1/4+z
3/4+x,1/2-y,1/4+z
1/2+x,y,1/2+z
3/4-x,1/4-y,1/2+z
1/2+x,1/4-y,3/4-z
3/4-x,y,3/4-z
1/2-x,-y,1/2-z
1/4+x,3/4+y,1/2-z
1/2-x,3/4+y,1/4+z
1/4+x,-y,1/4+z
1/2+x,1/2+y,z
3/4-x,3/4-y,z
1/2+x,3/4-y,1/4-z
3/4-x,1/2+y,1/4-z
1/2-x,1/2-y,-z
1/4+x,1/4+y,-z
1/2-x,1/4+y,3/4+z
1/4+x,1/2-y,3/4+z
loop_
_atom_site_type_symbol
_atom_site_label
_atom_site_fract_x
_atom_site_fract_y
_atom_site_fract_z
Si Si1 0.687348 0.666789 0.682774
Si Si2 0.998523 0.887366 0.659524
Si Si3 0.504234 0.812981 0.034807
Si Si4 0.038697 0.412869 0.437133
Si Si5 0.599961 0.512702 0.276460
O O1 0.625000 0.625000 0.688858
O O2 0.713826 0.625000 0.625000
O O3 0.695033 0.798554 0.676079
O O4 0.720796 0.621551 0.736492
O O5 0.998801 0.772838 0.693472
O O6 0.944398 0.959143 0.675054
O O7 0.993479 0.866799 0.593641
O O8 0.484274 0.686455 0.026310
O O9 0.569880 0.807473 0.021933
O O10 0.033369 0.375000 0.375000
O O11 0.102749 0.435797 0.449222
O O12 0.625000 0.625000 0.251743
#
# Coordination Sequence:
#
# PCOD8286236 Si02
#       5
#    32  32  32  32  32
#     4  10  23  39  54  83 121 157 197 236 288 356
#     4   9  20  39  59  84 120 152 195 252 293 345
#     4  10  21  38  64  88 116 157 197 243 301 357
#     4   9  19  37  63  90 112 149 202 251 299 346
#     4   9  19  33  54  86 119 148 187 239 288 341
#
# _framework density 22.446971999999999
#
# number of rings (size 3 to 8) (size 9 to 14) (size 15 to 20)
#    0.000    2.600    0.000    0.000    0.000   18.400 
#    0.000    0.000    0.000   11.400    0.000    0.000 
#    0.000    0.000    0.000    0.000    0.000    0.000 
#
# Total GULP energy -495682.681838 kJ/mol
# GULP energy per Si atom -12392.067046 kJ/mol
# Density = 2.239588 g / cm^3
# Si number density = 22.446972 Si / 1000 Ang^3
#
#
#
# Elastic Constant Matrix: (Units=GPa)
#
#
# Indices 1 2 3 4 5 6 
#
# 1 112.1350 56.2565 14.3038 0.0000 0.0000 0.0000
# 2 56.2565 66.1794 14.2679 0.0000 0.0000 0.0000
# 3 14.3038 14.2679 88.9750 0.0000 0.0000 0.0000
# 4 0.0000 0.0000 0.0000 6.2659 0.0000 0.0000
# 5 0.0000 0.0000 0.0000 0.0000 12.2419 0.0000
# 6 0.0000 0.0000 0.0000 0.0000 0.0000 43.9437
#
#
#
# Elastic Compliance Matrix: (Units=1/GPa)
#
#
# Indices 1 2 3 4 5 6 
#
# 1 0.015562 -0.013144 -0.000394 0.000000 0.000000 0.000000
# 2 -0.013144 0.026753 -0.002177 0.000000 0.000000 0.000000
# 3 -0.000394 -0.002177 0.011652 0.000000 0.000000 0.000000
# 4 0.000000 0.000000 0.000000 0.159595 0.000000 0.000000
# 5 0.000000 0.000000 0.000000 0.000000 0.081687 0.000000
# 6 0.000000 0.000000 0.000000 0.000000 0.000000 0.022756
#
#
# Mechanical properties :
#
#
# Convention : Reuss Voigt Hill
#
# Bulk Modulus (GPa) = 44.37203 48.54954 46.46079
# Shear Modulus (GPa) = 14.00772 24.65438 19.33105
#
# Velocity S-wave (km/s) = 2.50078 3.31772 2.93778
# Velocity P-wave (km/s) = 5.30556 6.02925 5.67894
#
# Compressibility (1/GPa) = 0.02253672
#
# Stress axis : x y z
#
# Youngs Moduli (GPa) = 64.25860 37.37931 85.82538
#
# Poissons Ratio (x) = 0.49130 0.03382
# Poissons Ratio (y) = 0.84460 0.18684
# Poissons Ratio (z) = 0.02532 0.08138
#
# Static dielectric constant tensor:
#      x y z
#    x 3.888550 0.000000 0.000000 
#    y 0.000000 4.446450 0.000000 
#    z 0.000000 0.000000 4.189020 
# 
# 
# High freq. dielectric constant tensor:
#      x y z
#    x 1.868530 0.000000 0.000000 
#    y 0.000000 1.882040 0.000000 
#    z 0.000000 0.000000 1.900930 
# 
# From -- ./inp_files/20831.got.cif
#   From: 2010.03.12/outbox.cif.g09.slc.cpg/sg70_11_cif.got.tgz:20831.got - 2010.04.16 13:46:32.
