data_PCOD8286421
_publ_section_title
;
Structure prediction by ZEFSAII (Michael W. Deem and Ramdas Pophale) SiO2 
 PCOD8286421
Probable space group: F D D D
;
_chemical_formula_sum "Si O2"
_cell_formula_units_Z 240
_cell_length_a 27.108054
_cell_length_b 20.250632
_cell_length_c 19.724087
_cell_angle_alpha 90.000000
_cell_angle_beta 90.000000
_cell_angle_gamma 90.000000
_cell_volume 10827.640633
_symmetry_space_group_name_H-M "F D D D"
_symmetry_group_IT_number 70
_space_group.IT_coordinate_system_code '2'
_symmetry_cell_setting 'orthorhombic'
loop_
_space_group_symop_operation_xyz
x,y,z
1/4-x,1/4-y,z
x,1/4-y,1/4-z
1/4-x,y,1/4-z
-x,-y,-z
3/4+x,3/4+y,-z
-x,3/4+y,3/4+z
3/4+x,-y,3/4+z
x,1/2+y,1/2+z
1/4-x,3/4-y,1/2+z
x,3/4-y,3/4-z
1/4-x,1/2+y,3/4-z
-x,1/2-y,1/2-z
3/4+x,1/4+y,1/2-z
-x,1/4+y,1/4+z
3/4+x,1/2-y,1/4+z
1/2+x,y,1/2+z
3/4-x,1/4-y,1/2+z
1/2+x,1/4-y,3/4-z
3/4-x,y,3/4-z
1/2-x,-y,1/2-z
1/4+x,3/4+y,1/2-z
1/2-x,3/4+y,1/4+z
1/4+x,-y,1/4+z
1/2+x,1/2+y,z
3/4-x,3/4-y,z
1/2+x,3/4-y,1/4-z
3/4-x,1/2+y,1/4-z
1/2-x,1/2-y,-z
1/4+x,1/4+y,-z
1/2-x,1/4+y,3/4+z
1/4+x,1/2-y,3/4+z
loop_
_atom_site_type_symbol
_atom_site_label
_atom_site_fract_x
_atom_site_fract_y
_atom_site_fract_z
Si Si1 0.727285 0.854470 0.297373
Si Si2 0.177492 0.591899 0.278161
Si Si3 0.569286 0.863895 0.219082
Si Si4 0.535673 0.615791 0.918249
Si Si5 0.390712 0.547598 0.530457
Si Si6 0.662736 0.982397 0.829392
Si Si7 0.125000 0.481655 0.625000
Si Si8 0.072735 0.525386 0.746249
O O1 0.735214 0.875000 0.375000
O O2 0.778161 0.874009 0.261460
O O3 0.678750 0.892417 0.272746
O O4 0.716347 0.777971 0.278203
O O5 0.125000 0.625000 0.263187
O O6 0.190424 0.592598 0.357455
O O7 0.170615 0.516266 0.255878
O O8 0.522998 0.873433 0.170467
O O9 0.595430 0.935065 0.230025
O O10 0.560106 0.830266 0.293653
O O11 0.605482 0.813978 0.183805
O O12 0.546579 0.538535 0.905944
O O13 0.554128 0.650262 0.987687
O O14 0.367653 0.540569 0.605024
O O15 0.625561 0.019014 0.780117
O O16 0.081480 0.522535 0.664155
#
# Coordination Sequence:
#
# PCOD8286421 Si02
#       8
#    32  32  32  32  32  32  16  32
#     4  12  23  44  72 102 139 184 243 284 365 439
#     4  12  26  44  71 102 143 186 234 304 359 436
#     4  11  25  40  69  99 139 180 237 295 348 429
#     4  12  24  42  68 105 138 187 235 291 361 420
#     4  12  22  46  70  98 135 195 239 291 361 431
#     4  11  21  44  69  96 135 187 237 285 350 434
#     4  10  22  44  63  96 139 176 222 290 344 414
#     4  11  22  41  71  96 138 184 226 286 354 430
#
# _framework density 22.165493000000001
#
# number of rings (size 3 to 8) (size 9 to 14) (size 15 to 20)
#    0.000    0.533    6.667    2.400    1.867    1.333 
#    0.000    8.000    0.000    0.000    0.000    0.000 
#    0.000    0.000    0.000    0.000    0.000    0.000 
#
# Total GULP energy -743568.493654 kJ/mol
# GULP energy per Si atom -12392.808228 kJ/mol
# Density = 2.211504 g / cm^3
# Si number density = 22.165493 Si / 1000 Ang^3
#
#
#
# Elastic Constant Matrix: (Units=GPa)
#
#
# Indices 1 2 3 4 5 6 
#
# 1 109.3385 36.9320 31.2126 0.0000 0.0000 0.0000
# 2 36.9320 70.0784 9.8681 0.0000 0.0000 0.0000
# 3 31.2126 9.8681 70.0255 0.0000 0.0000 0.0000
# 4 0.0000 0.0000 0.0000 18.9342 0.0000 0.0000
# 5 0.0000 0.0000 0.0000 0.0000 40.7046 0.0000
# 6 0.0000 0.0000 0.0000 0.0000 0.0000 22.0012
#
#
#
# Elastic Compliance Matrix: (Units=1/GPa)
#
#
# Indices 1 2 3 4 5 6 
#
# 1 0.012497 -0.005919 -0.004736 0.000000 0.000000 0.000000
# 2 -0.005919 0.017362 0.000192 0.000000 0.000000 0.000000
# 3 -0.004736 0.000192 0.016365 0.000000 0.000000 0.000000
# 4 0.000000 0.000000 0.000000 0.052814 0.000000 0.000000
# 5 0.000000 0.000000 0.000000 0.000000 0.024567 0.000000
# 6 0.000000 0.000000 0.000000 0.000000 0.000000 0.045452
#
#
# Mechanical properties :
#
#
# Convention : Reuss Voigt Hill
#
# Bulk Modulus (GPa) = 39.53123 45.05196 42.29160
# Shear Modulus (GPa) = 25.19932 27.75665 26.47799
#
# Velocity S-wave (km/s) = 3.37541 3.54255 3.45999
# Velocity P-wave (km/s) = 5.75017 6.09116 5.92312
#
# Compressibility (1/GPa) = 0.02529645
#
# Stress axis : x y z
#
# Youngs Moduli (GPa) = 80.01684 57.59618 61.10740
#
# Poissons Ratio (x) = 0.34093 0.28942
# Poissons Ratio (y) = 0.47364 -0.01171
# Poissons Ratio (z) = 0.37899 -0.01104
#
# Static dielectric constant tensor:
#      x y z
#    x 3.914800 0.000000 0.000000 
#    y 0.000000 4.215550 0.000000 
#    z 0.000000 0.000000 4.352460 
# 
# 
# High freq. dielectric constant tensor:
#      x y z
#    x 1.873720 0.000000 0.000000 
#    y 0.000000 1.874210 0.000000 
#    z 0.000000 0.000000 1.863280 
# 
# From -- ./inp_files/47118.got.cif
#   From: 2010.03.12/outbox.cif.g09.slc.cpg/sg70_24_cif.got.tgz:47118.got - 2010.04.16 13:46:32.
