data_PCOD8286758
_publ_section_title
;
Structure prediction by ZEFSAII (Michael W. Deem and Ramdas Pophale) SiO2 
 PCOD8286758
Probable space group: F D D D
;
_chemical_formula_sum "Si O2"
_cell_formula_units_Z 96
_cell_length_a 6.671871
_cell_length_b 20.848301
_cell_length_c 30.625587
_cell_angle_alpha 90.000000
_cell_angle_beta 90.000000
_cell_angle_gamma 90.000000
_cell_volume 4259.932630
_symmetry_space_group_name_H-M "F D D D"
_symmetry_group_IT_number 70
_space_group.IT_coordinate_system_code '2'
_symmetry_cell_setting 'orthorhombic'
loop_
_space_group_symop_operation_xyz
x,y,z
1/4-x,1/4-y,z
x,1/4-y,1/4-z
1/4-x,y,1/4-z
-x,-y,-z
3/4+x,3/4+y,-z
-x,3/4+y,3/4+z
3/4+x,-y,3/4+z
x,1/2+y,1/2+z
1/4-x,3/4-y,1/2+z
x,3/4-y,3/4-z
1/4-x,1/2+y,3/4-z
-x,1/2-y,1/2-z
3/4+x,1/4+y,1/2-z
-x,1/4+y,1/4+z
3/4+x,1/2-y,1/4+z
1/2+x,y,1/2+z
3/4-x,1/4-y,1/2+z
1/2+x,1/4-y,3/4-z
3/4-x,y,3/4-z
1/2-x,-y,1/2-z
1/4+x,3/4+y,1/2-z
1/2-x,3/4+y,1/4+z
1/4+x,-y,1/4+z
1/2+x,1/2+y,z
3/4-x,3/4-y,z
1/2+x,3/4-y,1/4-z
3/4-x,1/2+y,1/4-z
1/2-x,1/2-y,-z
1/4+x,1/4+y,-z
1/2-x,1/4+y,3/4+z
1/4+x,1/2-y,3/4+z
loop_
_atom_site_type_symbol
_atom_site_label
_atom_site_fract_x
_atom_site_fract_y
_atom_site_fract_z
Si Si1 0.791798 0.074999 0.248639
Si Si2 0.165081 0.933467 0.850347
Si Si3 0.125000 0.791113 0.625000
Si Si4 0.875000 0.875000 0.058595
O O1 0.625000 0.125000 0.267699
O O2 0.816954 0.093323 0.198365
O O3 0.991866 0.080914 0.277254
O O4 0.750000 0.000000 0.250000
O O5 0.054079 0.875000 0.875000
O O6 0.375000 0.947298 0.875000
O O7 0.038646 0.998366 0.850267
O O8 0.230840 0.832921 0.588420
#
# Coordination Sequence:
#
# PCOD8286758 Si02
#       4
#    32  32  16  16
#     4  12  27  49  77 112 156 195 253 314 380 451
#     4  11  24  47  78 111 146 194 249 310 375 445
#     4  12  29  48  74 106 155 200 256 302 382 450
#     4  12  32  46  77 110 152 206 247 312 378 452
#
# _framework density 22.535568999999999
#
# number of rings (size 3 to 8) (size 9 to 14) (size 15 to 20)
#    0.000    0.333    3.333    4.500   14.000    2.667 
#    0.000    0.000    0.000    0.000    0.000    0.000 
#    0.000    0.000    0.000    0.000    0.000    0.000 
#
# Total GULP energy -297543.095376 kJ/mol
# GULP energy per Si atom -12397.628974 kJ/mol
# Density = 2.248428 g / cm^3
# Si number density = 22.535569 Si / 1000 Ang^3
#
#
#
# Elastic Constant Matrix: (Units=GPa)
#
#
# Indices 1 2 3 4 5 6 
#
# 1 142.5306 76.4780 74.8611 0.0000 0.0000 0.0000
# 2 76.4780 181.5943 56.4834 0.0000 0.0000 0.0000
# 3 74.8611 56.4834 159.2927 0.0000 0.0000 0.0000
# 4 0.0000 0.0000 0.0000 44.6752 0.0000 0.0000
# 5 0.0000 0.0000 0.0000 0.0000 51.9886 0.0000
# 6 0.0000 0.0000 0.0000 0.0000 0.0000 64.6727
#
#
#
# Elastic Compliance Matrix: (Units=1/GPa)
#
#
# Indices 1 2 3 4 5 6 
#
# 1 0.010879 -0.003362 -0.003921 0.000000 0.000000 0.000000
# 2 -0.003362 0.007229 -0.000983 0.000000 0.000000 0.000000
# 3 -0.003921 -0.000983 0.008469 0.000000 0.000000 0.000000
# 4 0.000000 0.000000 0.000000 0.022384 0.000000 0.000000
# 5 0.000000 0.000000 0.000000 0.000000 0.019235 0.000000
# 6 0.000000 0.000000 0.000000 0.000000 0.000000 0.015462
#
#
# Mechanical properties :
#
#
# Convention : Reuss Voigt Hill
#
# Bulk Modulus (GPa) = 99.55335 99.89586 99.72461
# Shear Modulus (GPa) = 48.29127 50.64029 49.46578
#
# Velocity S-wave (km/s) = 4.63416 4.74553 4.69018
# Velocity P-wave (km/s) = 8.53850 8.62850 8.58362
#
# Compressibility (1/GPa) = 0.01004487
#
# Stress axis : x y z
#
# Youngs Moduli (GPa) = 91.91674 138.33969 118.07980
#
# Poissons Ratio (x) = 0.46515 0.46295
# Poissons Ratio (y) = 0.30906 0.11607
# Poissons Ratio (z) = 0.36037 0.13599
#
# Static dielectric constant tensor:
#      x y z
#    x 4.773440 0.000000 0.000000 
#    y 0.000000 4.131780 0.000000 
#    z 0.000000 0.000000 4.494860 
# 
# 
# High freq. dielectric constant tensor:
#      x y z
#    x 1.896220 0.000000 0.000000 
#    y 0.000000 1.903380 0.000000 
#    z 0.000000 0.000000 1.905920 
# 
# From -- ./inp_files/56238.got.cif
#   From: 2010.03.12/outbox.cif.g09.slc.cpg/sg70_29_cif.got.tgz:56238.got - 2010.04.16 13:46:32.
