data_PCOD8286011
_publ_section_title
;
Structure prediction by ZEFSAII (Michael W. Deem and Ramdas Pophale) SiO2 
 PCOD8286011
Probable space group: F D D D
;
_chemical_formula_sum "Si O2"
_cell_formula_units_Z 160
_cell_length_a 24.979810
_cell_length_b 17.652809
_cell_length_c 15.003755
_cell_angle_alpha 90.000000
_cell_angle_beta 90.000000
_cell_angle_gamma 90.000000
_cell_volume 6616.113041
_symmetry_space_group_name_H-M "F D D D"
_symmetry_group_IT_number 70
_space_group.IT_coordinate_system_code '2'
_symmetry_cell_setting 'orthorhombic'
loop_
_space_group_symop_operation_xyz
x,y,z
1/4-x,1/4-y,z
x,1/4-y,1/4-z
1/4-x,y,1/4-z
-x,-y,-z
3/4+x,3/4+y,-z
-x,3/4+y,3/4+z
3/4+x,-y,3/4+z
x,1/2+y,1/2+z
1/4-x,3/4-y,1/2+z
x,3/4-y,3/4-z
1/4-x,1/2+y,3/4-z
-x,1/2-y,1/2-z
3/4+x,1/4+y,1/2-z
-x,1/4+y,1/4+z
3/4+x,1/2-y,1/4+z
1/2+x,y,1/2+z
3/4-x,1/4-y,1/2+z
1/2+x,1/4-y,3/4-z
3/4-x,y,3/4-z
1/2-x,-y,1/2-z
1/4+x,3/4+y,1/2-z
1/2-x,3/4+y,1/4+z
1/4+x,-y,1/4+z
1/2+x,1/2+y,z
3/4-x,3/4-y,z
1/2+x,3/4-y,1/4-z
3/4-x,1/2+y,1/4-z
1/2-x,1/2-y,-z
1/4+x,1/4+y,-z
1/2-x,1/4+y,3/4+z
1/4+x,1/2-y,3/4+z
loop_
_atom_site_type_symbol
_atom_site_label
_atom_site_fract_x
_atom_site_fract_y
_atom_site_fract_z
Si Si1 0.460920 0.569716 0.243018
Si Si2 0.225663 0.428707 0.201293
Si Si3 0.828107 0.332587 0.253863
Si Si4 0.426871 0.835569 0.068087
Si Si5 0.369520 0.576707 0.978786
O O1 0.468759 0.550923 0.347330
O O2 0.520029 0.578635 0.197853
O O3 0.426286 0.504677 0.194833
O O4 0.427086 0.647742 0.231306
O O5 0.250000 0.500000 0.250000
O O6 0.267372 0.362214 0.223799
O O7 0.169559 0.399122 0.240991
O O8 0.875000 0.375000 0.311950
O O9 0.821822 0.388897 0.170354
O O10 0.847082 0.248405 0.222908
O O11 0.375000 0.875000 0.021217
O O12 0.375000 0.554663 0.875000
#
# Coordination Sequence:
#
# PCOD8286011 Si02
#       5
#    32  32  32  32  32
#     4  10  21  39  63  91 127 175 218 269 331 395
#     4  10  20  36  59  93 131 171 219 273 326 392
#     4  10  22  41  64  93 128 170 216 275 331 391
#     4  10  20  38  60  89 130 168 216 270 329 396
#     4  10  21  40  67  93 130 171 220 271 329 399
#
# _framework density 24.183382999999999
#
# number of rings (size 3 to 8) (size 9 to 14) (size 15 to 20)
#    0.000    2.000    2.000    1.200    0.000    2.000 
#    0.000   11.000    8.800    0.000    0.000    0.000 
#    0.000    0.000    0.000    0.000    0.000    0.000 
#
# Total GULP energy -495601.280327 kJ/mol
# GULP energy per Si atom -12390.032008 kJ/mol
# Density = 2.412834 g / cm^3
# Si number density = 24.183383 Si / 1000 Ang^3
#
#
#
# Elastic Constant Matrix: (Units=GPa)
#
#
# Indices 1 2 3 4 5 6 
#
# 1 193.1797 63.3380 7.7397 0.0000 0.0000 0.0000
# 2 63.3380 145.1775 38.1392 0.0000 0.0000 0.0000
# 3 7.7397 38.1392 39.2486 0.0000 0.0000 0.0000
# 4 0.0000 0.0000 0.0000 26.4544 0.0000 0.0000
# 5 0.0000 0.0000 0.0000 0.0000 6.4556 0.0000
# 6 0.0000 0.0000 0.0000 0.0000 0.0000 54.8435
#
#
#
# Elastic Compliance Matrix: (Units=1/GPa)
#
#
# Indices 1 2 3 4 5 6 
#
# 1 0.006141 -0.003170 0.001870 0.000000 0.000000 0.000000
# 2 -0.003170 0.010886 -0.009953 0.000000 0.000000 0.000000
# 3 0.001870 -0.009953 0.034782 0.000000 0.000000 0.000000
# 4 0.000000 0.000000 0.000000 0.037801 0.000000 0.000000
# 5 0.000000 0.000000 0.000000 0.000000 0.154903 0.000000
# 6 0.000000 0.000000 0.000000 0.000000 0.000000 0.018234
#
#
# Mechanical properties :
#
#
# Convention : Reuss Voigt Hill
#
# Bulk Modulus (GPa) = 34.12814 66.22663 50.17739
# Shear Modulus (GPa) = 16.94791 35.44331 26.19561
#
# Velocity S-wave (km/s) = 2.65015 3.83248 3.29478
# Velocity P-wave (km/s) = 4.84843 6.85773 5.93868
#
# Compressibility (1/GPa) = 0.02930133
#
# Stress axis : x y z
#
# Youngs Moduli (GPa) = 162.83680 91.86020 28.75071
#
# Poissons Ratio (x) = 0.29124 -0.05376
# Poissons Ratio (y) = 0.51627 0.28616
# Poissons Ratio (z) = -0.30448 0.91430
#
# Static dielectric constant tensor:
#      x y z
#    x 5.637780 0.000000 0.000000 
#    y 0.000000 5.300210 0.000000 
#    z 0.000000 0.000000 3.837220 
# 
# 
# High freq. dielectric constant tensor:
#      x y z
#    x 1.991600 0.000000 0.000000 
#    y 0.000000 1.960290 0.000000 
#    z 0.000000 0.000000 1.921860 
# 
# From -- ./inp_files/38440.got.cif
#   From: 2010.03.12/outbox.cif.g09.slc.cpg/sg70_20_cif.got.tgz:38440.got - 2010.04.16 13:46:32.
