data_PCOD8286475
_publ_section_title
;
Structure prediction by ZEFSAII (Michael W. Deem and Ramdas Pophale) SiO2 
 PCOD8286475
Probable space group: F D D D
;
_chemical_formula_sum "Si O2"
_cell_formula_units_Z 160
_cell_length_a 26.682656
_cell_length_b 26.818559
_cell_length_c 10.270540
_cell_angle_alpha 90.000000
_cell_angle_beta 90.000000
_cell_angle_gamma 90.000000
_cell_volume 7349.499665
_symmetry_space_group_name_H-M "F D D D"
_symmetry_group_IT_number 70
_space_group.IT_coordinate_system_code '2'
_symmetry_cell_setting 'orthorhombic'
loop_
_space_group_symop_operation_xyz
x,y,z
1/4-x,1/4-y,z
x,1/4-y,1/4-z
1/4-x,y,1/4-z
-x,-y,-z
3/4+x,3/4+y,-z
-x,3/4+y,3/4+z
3/4+x,-y,3/4+z
x,1/2+y,1/2+z
1/4-x,3/4-y,1/2+z
x,3/4-y,3/4-z
1/4-x,1/2+y,3/4-z
-x,1/2-y,1/2-z
3/4+x,1/4+y,1/2-z
-x,1/4+y,1/4+z
3/4+x,1/2-y,1/4+z
1/2+x,y,1/2+z
3/4-x,1/4-y,1/2+z
1/2+x,1/4-y,3/4-z
3/4-x,y,3/4-z
1/2-x,-y,1/2-z
1/4+x,3/4+y,1/2-z
1/2-x,3/4+y,1/4+z
1/4+x,-y,1/4+z
1/2+x,1/2+y,z
3/4-x,3/4-y,z
1/2+x,3/4-y,1/4-z
3/4-x,1/2+y,1/4-z
1/2-x,1/2-y,-z
1/4+x,1/4+y,-z
1/2-x,1/4+y,3/4+z
1/4+x,1/2-y,3/4+z
loop_
_atom_site_type_symbol
_atom_site_label
_atom_site_fract_x
_atom_site_fract_y
_atom_site_fract_z
Si Si1 0.411150 0.151924 0.259611
Si Si2 0.553199 0.198181 0.852123
Si Si3 0.656202 0.238681 0.922283
Si Si4 0.231452 0.090867 0.862501
Si Si5 0.784430 0.983208 0.930278
O O1 0.375000 0.131846 0.375000
O O2 0.406666 0.211537 0.256107
O O3 0.468994 0.140456 0.289955
O O4 0.395388 0.125000 0.125000
O O5 0.601092 0.215854 0.933363
O O6 0.552263 0.138741 0.857566
O O7 0.503425 0.221099 0.914734
O O8 0.558342 0.215917 0.704158
O O9 0.697764 0.198170 0.973837
O O10 0.670026 0.251949 0.771991
O O11 0.244277 0.063533 0.000152
#
# Coordination Sequence:
#
# PCOD8286475 Si02
#       5
#    32  32  32  32  32
#     4  12  27  48  74  99 144 190 244 300 370 437
#     4  11  19  40  65 103 141 192 236 295 360 428
#     4  10  23  41  67  99 138 183 235 298 358 435
#     4  10  23  41  67  99 138 183 235 298 358 435
#     4   9  22  34  66  98 147 181 235 292 355 434
#
# _framework density 21.770188999999998
#
# number of rings (size 3 to 8) (size 9 to 14) (size 15 to 20)
#    1.200    0.400    0.000    4.800    0.000    6.400 
#    7.200    0.000    0.000    0.000    0.000    0.000 
#    0.000    0.000    0.000    0.000    0.000    0.000 
#
# Total GULP energy -495863.498266 kJ/mol
# GULP energy per Si atom -12396.587457 kJ/mol
# Density = 2.172064 g / cm^3
# Si number density = 21.770189 Si / 1000 Ang^3
#
#
#
# Elastic Constant Matrix: (Units=GPa)
#
#
# Indices 1 2 3 4 5 6 
#
# 1 85.8245 24.6346 29.4675 -0.0007 0.0001 0.0003
# 2 24.6346 70.0346 3.0678 -0.0002 0.0002 0.0005
# 3 29.4675 3.0678 43.6630 -0.0003 0.0008 0.0016
# 4 -0.0007 -0.0002 -0.0003 28.6552 0.0001 0.0009
# 5 0.0001 0.0002 0.0008 0.0001 33.3263 -0.0008
# 6 0.0003 0.0005 0.0016 0.0009 -0.0008 27.6636
#
#
#
# Elastic Compliance Matrix: (Units=1/GPa)
#
#
# Indices 1 2 3 4 5 6 
#
# 1 0.017052 -0.005511 -0.011121 0.000000 0.000000 0.000001
# 2 -0.005511 0.016104 0.002588 0.000000 0.000000 0.000000
# 3 -0.011121 0.002588 0.030226 0.000000 -0.000001 -0.000002
# 4 0.000000 0.000000 0.000000 0.034898 0.000000 -0.000001
# 5 0.000000 0.000000 -0.000001 0.000000 0.030006 0.000001
# 6 0.000001 0.000000 -0.000002 -0.000001 0.000001 0.036149
#
#
# Mechanical properties :
#
#
# Convention : Reuss Voigt Hill
#
# Bulk Modulus (GPa) = 28.33354 34.87354 31.60354
# Shear Modulus (GPa) = 24.47542 27.41918 25.94730
#
# Velocity S-wave (km/s) = 3.35664 3.55277 3.45610
# Velocity P-wave (km/s) = 5.29772 5.73439 5.52038
#
# Compressibility (1/GPa) = 0.03529386
#
# Stress axis : x y z
#
# Youngs Moduli (GPa) = 58.64495 62.09737 33.08396
#
# Poissons Ratio (x) = 0.34221 0.36792
# Poissons Ratio (y) = 0.32318 -0.08561
# Poissons Ratio (z) = 0.65218 -0.16069
#
# Static dielectric constant tensor:
#      x y z
#    x 3.680890 0.000000 0.000000 
#    y 0.000000 3.804750 0.000000 
#    z 0.000000 0.000000 3.704860 
# 
# 
# High freq. dielectric constant tensor:
#      x y z
#    x 1.852490 0.000000 0.000000 
#    y 0.000000 1.861280 0.000000 
#    z 0.000000 0.000000 1.840590 
# 
# From -- ./inp_files/20851.got.cif
#   From: 2010.03.12/outbox.cif.g09.slc.cpg/sg70_11_cif.got.tgz:20851.got - 2010.04.16 13:46:32.
