data_PCOD8286032
_publ_section_title
;
Structure prediction by ZEFSAII (Michael W. Deem and Ramdas Pophale) SiO2 
 PCOD8286032
Probable space group: F D D D
;
_chemical_formula_sum "Si O2"
_cell_formula_units_Z 176
_cell_length_a 30.027776
_cell_length_b 16.195556
_cell_length_c 19.222060
_cell_angle_alpha 90.000000
_cell_angle_beta 90.000000
_cell_angle_gamma 90.000000
_cell_volume 9348.005476
_symmetry_space_group_name_H-M "F D D D"
_symmetry_group_IT_number 70
_space_group.IT_coordinate_system_code '2'
_symmetry_cell_setting 'orthorhombic'
loop_
_space_group_symop_operation_xyz
x,y,z
1/4-x,1/4-y,z
x,1/4-y,1/4-z
1/4-x,y,1/4-z
-x,-y,-z
3/4+x,3/4+y,-z
-x,3/4+y,3/4+z
3/4+x,-y,3/4+z
x,1/2+y,1/2+z
1/4-x,3/4-y,1/2+z
x,3/4-y,3/4-z
1/4-x,1/2+y,3/4-z
-x,1/2-y,1/2-z
3/4+x,1/4+y,1/2-z
-x,1/4+y,1/4+z
3/4+x,1/2-y,1/4+z
1/2+x,y,1/2+z
3/4-x,1/4-y,1/2+z
1/2+x,1/4-y,3/4-z
3/4-x,y,3/4-z
1/2-x,-y,1/2-z
1/4+x,3/4+y,1/2-z
1/2-x,3/4+y,1/4+z
1/4+x,-y,1/4+z
1/2+x,1/2+y,z
3/4-x,3/4-y,z
1/2+x,3/4-y,1/4-z
3/4-x,1/2+y,1/4-z
1/2-x,1/2-y,-z
1/4+x,1/4+y,-z
1/2-x,1/4+y,3/4+z
1/4+x,1/2-y,3/4+z
loop_
_atom_site_type_symbol
_atom_site_label
_atom_site_fract_x
_atom_site_fract_y
_atom_site_fract_z
Si Si1 0.174440 0.028441 0.141009
Si Si2 0.997614 0.737266 0.957303
Si Si3 0.673541 0.622838 0.839152
Si Si4 0.593271 0.743080 0.295016
Si Si5 0.961373 0.625000 0.625000
Si Si6 0.811235 0.213429 0.162435
O O1 0.181176 0.125000 0.125000
O O2 0.125000 0.998807 0.125000
O O3 0.208254 0.968947 0.098685
O O4 0.181802 0.013128 0.222231
O O5 0.039103 0.674627 0.951367
O O6 0.010752 0.831753 0.937383
O O7 0.980579 0.727542 0.036146
O O8 0.625000 0.625000 0.799331
O O9 0.663594 0.655907 0.917028
O O10 0.690630 0.529173 0.849058
O O11 0.569194 0.807219 0.342933
O O12 0.644679 0.771794 0.290627
O O13 0.809638 0.125000 0.125000
#
# Coordination Sequence:
#
# PCOD8286032 Si02
#       6
#    32  32  32  32  16  32
#     4  11  21  32  54  91 131 153 175 237 307 371
#     4  11  22  36  58  91 117 155 197 241 302 354
#     4   9  22  38  58  84 115 156 194 249 296 350
#     4  10  20  37  59  84 121 156 191 236 299 363
#     4  10  22  36  59  88 118 156 199 240 282 364
#     4  11  22  39  59  81 115 159 205 240 291 354
#
# _framework density 18.827546000000002
#
# number of rings (size 3 to 8) (size 9 to 14) (size 15 to 20)
#    0.000    1.636    3.636    1.091    7.636    2.182 
#    0.000    0.000    0.000    0.545    0.000    0.000 
#    0.000    0.000    0.000    0.000    0.000    0.000 
#
# Total GULP energy -545195.305146 kJ/mol
# GULP energy per Si atom -12390.802390 kJ/mol
# Density = 1.878469 g / cm^3
# Si number density = 18.827546 Si / 1000 Ang^3
#
#
#
# Elastic Constant Matrix: (Units=GPa)
#
#
# Indices 1 2 3 4 5 6 
#
# 1 121.1411 30.4421 18.9745 0.0000 0.0000 0.0000
# 2 30.4421 103.5567 21.7734 0.0000 0.0000 0.0000
# 3 18.9745 21.7734 52.9111 0.0000 0.0000 0.0000
# 4 0.0000 0.0000 0.0000 21.4125 0.0000 0.0000
# 5 0.0000 0.0000 0.0000 0.0000 21.8584 0.0000
# 6 0.0000 0.0000 0.0000 0.0000 0.0000 19.1121
#
#
#
# Elastic Compliance Matrix: (Units=1/GPa)
#
#
# Indices 1 2 3 4 5 6 
#
# 1 0.009181 -0.002197 -0.002388 0.000000 0.000000 0.000000
# 2 -0.002197 0.011097 -0.003779 0.000000 0.000000 0.000000
# 3 -0.002388 -0.003779 0.021311 0.000000 0.000000 0.000000
# 4 0.000000 0.000000 0.000000 0.046702 0.000000 0.000000
# 5 0.000000 0.000000 0.000000 0.000000 0.045749 0.000000
# 6 0.000000 0.000000 0.000000 0.000000 0.000000 0.052323
#
#
# Mechanical properties :
#
#
# Convention : Reuss Voigt Hill
#
# Bulk Modulus (GPa) = 40.22324 46.66543 43.44434
# Shear Modulus (GPa) = 23.65441 26.23786 24.94614
#
# Velocity S-wave (km/s) = 3.54838 3.73713 3.64398
# Velocity P-wave (km/s) = 6.18049 6.59250 6.38982
#
# Compressibility (1/GPa) = 0.02486125
#
# Stress axis : x y z
#
# Youngs Moduli (GPa) = 108.92104 90.11618 46.92387
#
# Poissons Ratio (x) = 0.19796 0.11207
# Poissons Ratio (y) = 0.23927 0.17731
# Poissons Ratio (z) = 0.26015 0.34052
#
# Static dielectric constant tensor:
#      x y z
#    x 3.828760 0.000000 0.000000 
#    y 0.000000 3.226710 0.000000 
#    z 0.000000 0.000000 3.214730 
# 
# 
# High freq. dielectric constant tensor:
#      x y z
#    x 1.750130 0.000000 0.000000 
#    y 0.000000 1.723390 0.000000 
#    z 0.000000 0.000000 1.698260 
# 
# From -- ./inp_files/35461.got.cif
#   From: 2010.03.12/outbox.cif.g09.slc.cpg/sg70_18_cif.got.tgz:35461.got - 2010.04.16 13:46:32.
