data_PCOD8286203
_publ_section_title
;
Structure prediction by ZEFSAII (Michael W. Deem and Ramdas Pophale) SiO2 
 PCOD8286203
Probable space group: F D D D
;
_chemical_formula_sum "Si O2"
_cell_formula_units_Z 208
_cell_length_a 18.269975
_cell_length_b 31.361352
_cell_length_c 18.214441
_cell_angle_alpha 90.000000
_cell_angle_beta 90.000000
_cell_angle_gamma 90.000000
_cell_volume 10436.348605
_symmetry_space_group_name_H-M "F D D D"
_symmetry_group_IT_number 70
_space_group.IT_coordinate_system_code '2'
_symmetry_cell_setting 'orthorhombic'
loop_
_space_group_symop_operation_xyz
x,y,z
1/4-x,1/4-y,z
x,1/4-y,1/4-z
1/4-x,y,1/4-z
-x,-y,-z
3/4+x,3/4+y,-z
-x,3/4+y,3/4+z
3/4+x,-y,3/4+z
x,1/2+y,1/2+z
1/4-x,3/4-y,1/2+z
x,3/4-y,3/4-z
1/4-x,1/2+y,3/4-z
-x,1/2-y,1/2-z
3/4+x,1/4+y,1/2-z
-x,1/4+y,1/4+z
3/4+x,1/2-y,1/4+z
1/2+x,y,1/2+z
3/4-x,1/4-y,1/2+z
1/2+x,1/4-y,3/4-z
3/4-x,y,3/4-z
1/2-x,-y,1/2-z
1/4+x,3/4+y,1/2-z
1/2-x,3/4+y,1/4+z
1/4+x,-y,1/4+z
1/2+x,1/2+y,z
3/4-x,3/4-y,z
1/2+x,3/4-y,1/4-z
3/4-x,1/2+y,1/4-z
1/2-x,1/2-y,-z
1/4+x,1/4+y,-z
1/2-x,1/4+y,3/4+z
1/4+x,1/2-y,3/4+z
loop_
_atom_site_type_symbol
_atom_site_label
_atom_site_fract_x
_atom_site_fract_y
_atom_site_fract_z
Si Si1 0.319541 0.837110 0.472021
Si Si2 0.782703 0.996976 0.120255
Si Si3 0.625000 0.462121 0.625000
Si Si4 0.146073 0.577986 0.884953
Si Si5 0.500906 0.981474 0.713816
Si Si6 0.117135 0.447156 0.284602
Si Si7 0.625000 0.513824 0.125000
Si Si8 0.946488 0.125000 0.125000
O O1 0.375000 0.875000 0.452690
O O2 0.308564 0.832664 0.559213
O O3 0.352106 0.792793 0.443785
O O4 0.243461 0.847218 0.432160
O O5 0.695993 0.992175 0.130535
O O6 0.824244 0.951276 0.120884
O O7 0.813201 0.026779 0.185144
O O8 0.792099 0.021356 0.042211
O O9 0.626444 0.433964 0.698996
O O10 0.125000 0.625000 0.913287
O O11 0.197378 0.558246 0.948270
O O12 0.456351 0.025439 0.708870
O O13 0.560098 0.982722 0.649174
O O14 0.108140 0.404494 0.329916
#
# Coordination Sequence:
#
# PCOD8286203 Si02
#       8
#    32  32  16  32  32  32  16  16
#     4  11  19  31  56  87 126 166 198 229 292 376
#     4  10  21  42  64  88 116 159 209 260 309 359
#     4  10  22  40  67  85 106 157 221 254 301 369
#     4  10  23  38  59  88 128 163 200 256 310 365
#     4  10  21  37  59  89 122 161 206 244 303 373
#     4  10  22  39  62  89 120 159 205 257 301 359
#     4  12  17  32  57  86 124 165 195 232 292 368
#     4  12  21  36  58  95 128 162 196 242 296 369
#
# _framework density 19.930342
#
# number of rings (size 3 to 8) (size 9 to 14) (size 15 to 20)
#    0.000    1.538    4.615    0.462    6.462    1.846 
#    2.769    0.769    0.000    0.000    0.000    0.000 
#    0.000    0.000    0.000    0.000    0.000    0.000 
#
# Total GULP energy -644807.437089 kJ/mol
# GULP energy per Si atom -12400.143021 kJ/mol
# Density = 1.988498 g / cm^3
# Si number density = 19.930342 Si / 1000 Ang^3
#
#
#
# Elastic Constant Matrix: (Units=GPa)
#
#
# Indices 1 2 3 4 5 6 
#
# 1 99.7511 38.4935 45.4741 0.0000 0.0000 0.0000
# 2 38.4935 100.7621 57.4317 0.0000 0.0000 0.0000
# 3 45.4741 57.4317 121.4294 0.0000 0.0000 0.0000
# 4 0.0000 0.0000 0.0000 29.5382 0.0000 0.0000
# 5 0.0000 0.0000 0.0000 0.0000 29.8208 0.0000
# 6 0.0000 0.0000 0.0000 0.0000 0.0000 21.9799
#
#
#
# Elastic Compliance Matrix: (Units=1/GPa)
#
#
# Indices 1 2 3 4 5 6 
#
# 1 0.012690 -0.002929 -0.003367 0.000000 0.000000 0.000000
# 2 -0.002929 0.014263 -0.005649 0.000000 0.000000 0.000000
# 3 -0.003367 -0.005649 0.012168 0.000000 0.000000 0.000000
# 4 0.000000 0.000000 0.000000 0.033854 0.000000 0.000000
# 5 0.000000 0.000000 0.000000 0.000000 0.033534 0.000000
# 6 0.000000 0.000000 0.000000 0.000000 0.000000 0.045496
#
#
# Mechanical properties :
#
#
# Convention : Reuss Voigt Hill
#
# Bulk Modulus (GPa) = 65.65469 67.19347 66.42408
# Shear Modulus (GPa) = 27.62852 28.30402 27.96627
#
# Velocity S-wave (km/s) = 3.72728 3.77257 3.75000
# Velocity P-wave (km/s) = 7.17893 7.26387 7.22153
#
# Compressibility (1/GPa) = 0.01523120
#
# Stress axis : x y z
#
# Youngs Moduli (GPa) = 78.80136 70.11123 82.18261
#
# Poissons Ratio (x) = 0.20534 0.27672
# Poissons Ratio (y) = 0.23079 0.46426
# Poissons Ratio (z) = 0.26534 0.39607
#
# Static dielectric constant tensor:
#      x y z
#    x 3.519140 0.000000 0.000000 
#    y 0.000000 3.359940 0.000000 
#    z 0.000000 0.000000 3.837340 
# 
# 
# High freq. dielectric constant tensor:
#      x y z
#    x 1.772360 0.000000 0.000000 
#    y 0.000000 1.749510 0.000000 
#    z 0.000000 0.000000 1.786370 
# 
# From -- ./inp_files/43972.got.cif
#   From: 2010.03.12/outbox.cif.g09.slc.cpg/sg70_22_cif.got.tgz:43972.got - 2010.04.16 13:46:32.
