data_PCOD8286857
_publ_section_title
;
Structure prediction by ZEFSAII (Michael W. Deem and Ramdas Pophale) SiO2 
 PCOD8286857
Probable space group: F D D D
;
_chemical_formula_sum "Si O2"
_cell_formula_units_Z 80
_cell_length_a 4.759539
_cell_length_b 29.583259
_cell_length_c 22.132833
_cell_angle_alpha 90.000000
_cell_angle_beta 90.000000
_cell_angle_gamma 90.000000
_cell_volume 3116.362091
_symmetry_space_group_name_H-M "F D D D"
_symmetry_group_IT_number 70
_space_group.IT_coordinate_system_code '2'
_symmetry_cell_setting 'orthorhombic'
loop_
_space_group_symop_operation_xyz
x,y,z
1/4-x,1/4-y,z
x,1/4-y,1/4-z
1/4-x,y,1/4-z
-x,-y,-z
3/4+x,3/4+y,-z
-x,3/4+y,3/4+z
3/4+x,-y,3/4+z
x,1/2+y,1/2+z
1/4-x,3/4-y,1/2+z
x,3/4-y,3/4-z
1/4-x,1/2+y,3/4-z
-x,1/2-y,1/2-z
3/4+x,1/4+y,1/2-z
-x,1/4+y,1/4+z
3/4+x,1/2-y,1/4+z
1/2+x,y,1/2+z
3/4-x,1/4-y,1/2+z
1/2+x,1/4-y,3/4-z
3/4-x,y,3/4-z
1/2-x,-y,1/2-z
1/4+x,3/4+y,1/2-z
1/2-x,3/4+y,1/4+z
1/4+x,-y,1/4+z
1/2+x,1/2+y,z
3/4-x,3/4-y,z
1/2+x,3/4-y,1/4-z
3/4-x,1/2+y,1/4-z
1/2-x,1/2-y,-z
1/4+x,1/4+y,-z
1/2-x,1/4+y,3/4+z
1/4+x,1/2-y,3/4+z
loop_
_atom_site_type_symbol
_atom_site_label
_atom_site_fract_x
_atom_site_fract_y
_atom_site_fract_z
Si Si1 0.375000 0.976455 0.875000
Si Si2 0.761848 0.324843 0.989589
Si Si3 0.248315 0.051262 0.316365
O O1 0.209707 0.945238 0.826797
O O2 0.136639 0.005227 0.908758
O O3 0.875000 0.375000 0.983825
O O4 0.478568 0.329404 0.028609
O O5 0.983994 0.291417 0.023269
O O6 0.375000 0.078358 0.375000
#
# Coordination Sequence:
#
# PCOD8286857 Si02
#       3
#    16  32  32
#     4  12  27  48  80 104 146 194 250 298 358 440
#     4  12  28  48  74 110 148 189 245 305 368 423
#     4  12  26  48  75 104 147 193 244 294 364 442
#
# _framework density 25.670959
#
# number of rings (size 3 to 8) (size 9 to 14) (size 15 to 20)
#    0.000    0.000    4.000    4.200    5.600    3.200 
#    3.600    4.000    0.000    0.000    0.000    0.000 
#    0.000    0.000    0.000    0.000    0.000    0.000 
#
# Total GULP energy -247974.666938 kJ/mol
# GULP energy per Si atom -12398.733347 kJ/mol
# Density = 2.561253 g / cm^3
# Si number density = 25.670959 Si / 1000 Ang^3
#
#
#
# Elastic Constant Matrix: (Units=GPa)
#
#
# Indices 1 2 3 4 5 6 
#
# 1 135.7645 22.6136 42.9288 0.0000 0.0000 0.0000
# 2 22.6136 67.1694 79.2004 0.0000 0.0000 0.0000
# 3 42.9288 79.2004 138.5059 0.0000 0.0000 0.0000
# 4 0.0000 0.0000 0.0000 30.8710 0.0000 0.0000
# 5 0.0000 0.0000 0.0000 0.0000 40.5563 0.0000
# 6 0.0000 0.0000 0.0000 0.0000 0.0000 21.9205
#
#
#
# Elastic Compliance Matrix: (Units=1/GPa)
#
#
# Indices 1 2 3 4 5 6 
#
# 1 0.008177 0.000723 -0.002948 0.000000 0.000000 0.000000
# 2 0.000723 0.045766 -0.026394 0.000000 0.000000 0.000000
# 3 -0.002948 -0.026394 0.023226 0.000000 0.000000 0.000000
# 4 0.000000 0.000000 0.000000 0.032393 0.000000 0.000000
# 5 0.000000 0.000000 0.000000 0.000000 0.024657 0.000000
# 6 0.000000 0.000000 0.000000 0.000000 0.000000 0.045619
#
#
# Mechanical properties :
#
#
# Convention : Reuss Voigt Hill
#
# Bulk Modulus (GPa) = 50.17185 70.10284 60.13735
# Shear Modulus (GPa) = 20.51538 31.78270 26.14904
#
# Velocity S-wave (km/s) = 2.83002 3.52245 3.19505
# Velocity P-wave (km/s) = 5.50139 6.62654 6.09001
#
# Compressibility (1/GPa) = 0.01993149
#
# Stress axis : x y z
#
# Youngs Moduli (GPa) = 122.28811 21.85048 43.05518
#
# Poissons Ratio (x) = -0.01579 0.12692
# Poissons Ratio (y) = -0.08838 1.13639
# Poissons Ratio (z) = 0.36048 0.57671
#
# Static dielectric constant tensor:
#      x y z
#    x 4.991330 0.000000 0.000000 
#    y 0.000000 4.081540 0.000000 
#    z 0.000000 0.000000 5.371940 
# 
# 
# High freq. dielectric constant tensor:
#      x y z
#    x 2.040510 0.000000 0.000000 
#    y 0.000000 1.997520 0.000000 
#    z 0.000000 0.000000 2.052300 
# 
# From -- ./inp_files/48309.got.cif
#   From: 2010.03.12/outbox.cif.g09.slc.cpg/sg70_25_cif.got.tgz:48309.got - 2010.04.16 13:46:32.
