data_PCOD8286998
_publ_section_title
;
Structure prediction by ZEFSAII (Michael W. Deem and Ramdas Pophale) SiO2 
 PCOD8286998
Probable space group: I M M M
;
_chemical_formula_sum "Si O2"
_cell_formula_units_Z 96
_cell_length_a 29.063000
_cell_length_b 28.422660
_cell_length_c 8.748676
_cell_angle_alpha 90.000000
_cell_angle_beta 90.000000
_cell_angle_gamma 90.000000
_cell_volume 7226.824279
_symmetry_space_group_name_H-M "I M M M"
_symmetry_group_IT_number 71
_symmetry_cell_setting 'orthorhombic'
loop_
_space_group_symop_operation_xyz
x,y,z
-x,-y,z
x,-y,-z
-x,y,-z
-x,-y,-z
x,y,-z
-x,y,z
x,-y,z
1/2+x,1/2+y,1/2+z
1/2-x,1/2-y,1/2+z
1/2+x,1/2-y,1/2-z
1/2-x,1/2+y,1/2-z
1/2-x,1/2-y,1/2-z
1/2+x,1/2+y,1/2-z
1/2-x,1/2+y,1/2+z
1/2+x,1/2-y,1/2+z
loop_
_atom_site_type_symbol
_atom_site_label
_atom_site_fract_x
_atom_site_fract_y
_atom_site_fract_z
Si Si1 0.131763 0.156025 0.319621
Si Si2 0.194135 0.000000 0.180693
Si Si3 0.266455 0.820709 0.321732
Si Si4 0.181477 0.233810 0.179457
Si Si5 0.947016 0.098706 0.178678
Si Si6 0.782175 0.898724 0.819423
Si Si7 0.091051 0.000000 0.181522
O O1 0.136169 0.156432 0.500000
O O2 0.136540 0.209957 0.255719
O O3 0.082195 0.137130 0.270193
O O4 0.171494 0.123230 0.249765
O O5 0.221251 0.046818 0.234040
O O6 0.142636 0.000000 0.249793
O O7 0.189247 0.000000 0.000000
O O8 0.259113 0.828905 0.500000
O O9 0.224520 0.791025 0.257002
O O10 0.313421 0.790487 0.290711
O O11 0.264010 0.871768 0.239676
O O12 0.181932 0.223156 0.000000
O O13 0.000000 0.109604 0.211950
O O14 0.935260 0.046435 0.240152
O O15 0.935135 0.102790 0.000000
O O16 0.785501 0.894380 0.000000
O O17 0.091318 0.000000 0.000000
#
# Coordination Sequence:
#
# PCOD8286998 Si02
#       7
#    16   8  16  16  16  16   8
#     4  11  20  28  39  55  74  92 113 145 186 226
#     4   9  16  25  40  56  71  93 125 158 181 215
#     4   9  16  25  37  56  75  90 110 141 178 213
#     4   9  16  26  40  54  71  92 114 138 170 216
#     4  10  19  31  46  58  68  88 120 155 191 231
#     4  10  17  27  41  54  71  95 122 149 178 215
#     4   9  15  28  45  58  68  84 120 160 190 225
#
# _framework density 13.283842999999999
#
# number of rings (size 3 to 8) (size 9 to 14) (size 15 to 20)
#    0.000    2.333    1.667    5.250    0.000    3.333 
#    0.000    2.917    0.000    1.000    0.000    0.000 
#    0.000    0.000    0.000    0.000    0.000    0.000 
#
# Total GULP energy -594696.232244 kJ/mol
# GULP energy per Si atom -12389.504838 kJ/mol
# Density = 1.325361 g / cm^3
# Si number density = 13.283843 Si / 1000 Ang^3
#
#
#
# Elastic Constant Matrix: (Units=GPa)
#
#
# Indices 1 2 3 4 5 6 
#
# 1 46.5660 52.1211 27.8618 0.0000 0.0000 0.0000
# 2 52.1211 105.4804 42.2695 0.0000 0.0000 0.0000
# 3 27.8618 42.2695 75.5192 0.0000 0.0000 0.0000
# 4 0.0000 0.0000 0.0000 16.1991 0.0000 0.0000
# 5 0.0000 0.0000 0.0000 0.0000 14.5035 0.0000
# 6 0.0000 0.0000 0.0000 0.0000 0.0000 20.0515
#
#
#
# Elastic Compliance Matrix: (Units=1/GPa)
#
#
# Indices 1 2 3 4 5 6 
#
# 1 0.050048 -0.022342 -0.005959 0.000000 0.000000 0.000000
# 2 -0.022342 0.022196 -0.004180 0.000000 0.000000 0.000000
# 3 -0.005959 -0.004180 0.017780 0.000000 0.000000 0.000000
# 4 0.000000 0.000000 0.000000 0.061732 0.000000 0.000000
# 5 0.000000 0.000000 0.000000 0.000000 0.068949 0.000000
# 6 0.000000 0.000000 0.000000 0.000000 0.000000 0.049872
#
#
# Mechanical properties :
#
#
# Convention : Reuss Voigt Hill
#
# Bulk Modulus (GPa) = 39.90416 52.45224 46.17820
# Shear Modulus (GPa) = 14.53942 17.17171 15.85557
#
# Velocity S-wave (km/s) = 3.31194 3.59928 3.45860
# Velocity P-wave (km/s) = 6.68806 7.53953 7.12652
#
# Compressibility (1/GPa) = 0.02506005
#
# Stress axis : x y z
#
# Youngs Moduli (GPa) = 19.98087 45.05398 56.24262
#
# Poissons Ratio (x) = 1.00660 0.33516
# Poissons Ratio (y) = 0.44642 0.23512
# Poissons Ratio (z) = 0.11907 0.18835
#
# Static dielectric constant tensor:
#      x y z
#    x 2.537870 0.000000 0.000000 
#    y 0.000000 3.262370 0.000000 
#    z 0.000000 0.000000 2.666420 
# 
# 
# High freq. dielectric constant tensor:
#      x y z
#    x 1.451650 0.000000 0.000000 
#    y 0.000000 1.501930 0.000000 
#    z 0.000000 0.000000 1.510200 
# 
# From -- ./inp_files/17563.got.cif
#   From: 2010.06.25/outbox.cif.g09.slc.cpg/sg71_9_cif.got.tgz:17563.got - 2010.06.28 04:59:45.
