data_PCOD8286050
_publ_section_title
;
Structure prediction by ZEFSAII (Michael W. Deem and Ramdas Pophale) SiO2 
 PCOD8286050
Probable space group: F D D D
;
_chemical_formula_sum "Si O2"
_cell_formula_units_Z 208
_cell_length_a 17.043741
_cell_length_b 27.141208
_cell_length_c 19.107429
_cell_angle_alpha 90.000000
_cell_angle_beta 90.000000
_cell_angle_gamma 90.000000
_cell_volume 8838.862008
_symmetry_space_group_name_H-M "F D D D"
_symmetry_group_IT_number 70
_space_group.IT_coordinate_system_code '2'
_symmetry_cell_setting 'orthorhombic'
loop_
_space_group_symop_operation_xyz
x,y,z
1/4-x,1/4-y,z
x,1/4-y,1/4-z
1/4-x,y,1/4-z
-x,-y,-z
3/4+x,3/4+y,-z
-x,3/4+y,3/4+z
3/4+x,-y,3/4+z
x,1/2+y,1/2+z
1/4-x,3/4-y,1/2+z
x,3/4-y,3/4-z
1/4-x,1/2+y,3/4-z
-x,1/2-y,1/2-z
3/4+x,1/4+y,1/2-z
-x,1/4+y,1/4+z
3/4+x,1/2-y,1/4+z
1/2+x,y,1/2+z
3/4-x,1/4-y,1/2+z
1/2+x,1/4-y,3/4-z
3/4-x,y,3/4-z
1/2-x,-y,1/2-z
1/4+x,3/4+y,1/2-z
1/2-x,3/4+y,1/4+z
1/4+x,-y,1/4+z
1/2+x,1/2+y,z
3/4-x,3/4-y,z
1/2+x,3/4-y,1/4-z
3/4-x,1/2+y,1/4-z
1/2-x,1/2-y,-z
1/4+x,1/4+y,-z
1/2-x,1/4+y,3/4+z
1/4+x,1/2-y,3/4+z
loop_
_atom_site_type_symbol
_atom_site_label
_atom_site_fract_x
_atom_site_fract_y
_atom_site_fract_z
Si Si1 0.875000 0.799718 0.875000
Si Si2 0.832433 0.974762 0.735239
Si Si3 0.705289 0.272155 0.857577
Si Si4 0.262736 0.125000 0.125000
Si Si5 0.363793 0.169062 0.530048
Si Si6 0.644223 0.020929 0.043102
Si Si7 0.125000 0.625000 0.420035
Si Si8 0.277961 0.321253 0.556927
O O1 0.865392 0.767198 0.805327
O O2 0.793909 0.828993 0.888275
O O3 0.832609 0.915874 0.718541
O O4 0.750000 0.000000 0.750000
O O5 0.873087 0.001104 0.670192
O O6 0.683963 0.321357 0.898581
O O7 0.763689 0.286425 0.794504
O O8 0.745233 0.232982 0.912841
O O9 0.315429 0.117388 0.053575
O O10 0.396350 0.219729 0.498462
O O11 0.298858 0.150218 0.473793
O O12 0.625000 0.017321 0.125000
O O13 0.593850 0.062762 0.003287
O O14 0.056971 0.646706 0.371488
#
# Coordination Sequence:
#
# PCOD8286050 Si02
#       8
#    16  32  32  16  32  32  16  32
#     4  11  24  48  64  92 128 174 234 294 352 422
#     4  11  24  44  72  97 130 182 237 294 364 432
#     4  10  20  37  63  92 126 166 219 283 338 427
#     4  11  24  38  62  87 132 180 220 285 358 416
#     4  11  21  37  58  94 125 165 225 271 334 430
#     4  11  18  35  63  90 123 174 222 275 351 429
#     4  10  24  43  63  98 144 182 226 300 368 424
#     4  10  21  38  60  91 133 167 216 283 353 418
#
# _framework density 23.532442
#
# number of rings (size 3 to 8) (size 9 to 14) (size 15 to 20)
#    0.000    1.385    3.077    3.692    0.000    4.923 
#    0.000    1.538    0.000    1.846    0.000    0.000 
#    0.000    0.000    0.000    0.000    0.000    0.000 
#
# Total GULP energy -644246.581314 kJ/mol
# GULP energy per Si atom -12389.357333 kJ/mol
# Density = 2.347888 g / cm^3
# Si number density = 23.532442 Si / 1000 Ang^3
#
#
#
# Elastic Constant Matrix: (Units=GPa)
#
#
# Indices 1 2 3 4 5 6 
#
# 1 142.2904 32.5230 49.1245 0.0000 0.0000 0.0000
# 2 32.5230 55.8621 26.0543 0.0000 0.0000 0.0000
# 3 49.1245 26.0543 126.3272 0.0000 0.0000 0.0000
# 4 0.0000 0.0000 0.0000 24.8251 0.0000 0.0000
# 5 0.0000 0.0000 0.0000 0.0000 39.4486 0.0000
# 6 0.0000 0.0000 0.0000 0.0000 0.0000 33.0414
#
#
#
# Elastic Compliance Matrix: (Units=1/GPa)
#
#
# Indices 1 2 3 4 5 6 
#
# 1 0.008829 -0.003916 -0.002626 0.000000 0.000000 0.000000
# 2 -0.003916 0.021543 -0.002920 0.000000 0.000000 0.000000
# 3 -0.002626 -0.002920 0.009539 0.000000 0.000000 0.000000
# 4 0.000000 0.000000 0.000000 0.040282 0.000000 0.000000
# 5 0.000000 0.000000 0.000000 0.000000 0.025349 0.000000
# 6 0.000000 0.000000 0.000000 0.000000 0.000000 0.030265
#
#
# Mechanical properties :
#
#
# Convention : Reuss Voigt Hill
#
# Bulk Modulus (GPa) = 47.64683 59.98704 53.81693
# Shear Modulus (GPa) = 30.91603 33.91488 32.41546
#
# Velocity S-wave (km/s) = 3.62852 3.80043 3.71547
# Velocity P-wave (km/s) = 6.15192 6.69360 6.42847
#
# Compressibility (1/GPa) = 0.02098776
#
# Stress axis : x y z
#
# Youngs Moduli (GPa) = 113.25712 46.41858 104.82849
#
# Poissons Ratio (x) = 0.18177 0.27527
# Poissons Ratio (y) = 0.44349 0.30614
# Poissons Ratio (z) = 0.29740 0.13556
#
# Static dielectric constant tensor:
#      x y z
#    x 4.701880 0.000000 0.000000 
#    y 0.000000 3.880160 0.000000 
#    z 0.000000 0.000000 4.656900 
# 
# 
# High freq. dielectric constant tensor:
#      x y z
#    x 1.943920 0.000000 0.000000 
#    y 0.000000 1.886230 0.000000 
#    z 0.000000 0.000000 1.949270 
# 
# From -- ./inp_files/43993.got.cif
#   From: 2010.03.12/outbox.cif.g09.slc.cpg/sg70_22_cif.got.tgz:43993.got - 2010.04.16 13:46:32.
