data_PCOD8286382
_publ_section_title
;
Structure prediction by ZEFSAII (Michael W. Deem and Ramdas Pophale) SiO2 
 PCOD8286382
Probable space group: F D D D
;
_chemical_formula_sum "Si O2"
_cell_formula_units_Z 160
_cell_length_a 27.372375
_cell_length_b 12.794640
_cell_length_c 21.191384
_cell_angle_alpha 90.000000
_cell_angle_beta 90.000000
_cell_angle_gamma 90.000000
_cell_volume 7421.639809
_symmetry_space_group_name_H-M "F D D D"
_symmetry_group_IT_number 70
_space_group.IT_coordinate_system_code '2'
_symmetry_cell_setting 'orthorhombic'
loop_
_space_group_symop_operation_xyz
x,y,z
1/4-x,1/4-y,z
x,1/4-y,1/4-z
1/4-x,y,1/4-z
-x,-y,-z
3/4+x,3/4+y,-z
-x,3/4+y,3/4+z
3/4+x,-y,3/4+z
x,1/2+y,1/2+z
1/4-x,3/4-y,1/2+z
x,3/4-y,3/4-z
1/4-x,1/2+y,3/4-z
-x,1/2-y,1/2-z
3/4+x,1/4+y,1/2-z
-x,1/4+y,1/4+z
3/4+x,1/2-y,1/4+z
1/2+x,y,1/2+z
3/4-x,1/4-y,1/2+z
1/2+x,1/4-y,3/4-z
3/4-x,y,3/4-z
1/2-x,-y,1/2-z
1/4+x,3/4+y,1/2-z
1/2-x,3/4+y,1/4+z
1/4+x,-y,1/4+z
1/2+x,1/2+y,z
3/4-x,3/4-y,z
1/2+x,3/4-y,1/4-z
3/4-x,1/2+y,1/4-z
1/2-x,1/2-y,-z
1/4+x,1/4+y,-z
1/2-x,1/4+y,3/4+z
1/4+x,1/2-y,3/4+z
loop_
_atom_site_type_symbol
_atom_site_label
_atom_site_fract_x
_atom_site_fract_y
_atom_site_fract_z
Si Si1 0.025459 0.492142 0.792464
Si Si2 0.073317 0.658481 0.339023
Si Si3 0.375000 0.035795 0.875000
Si Si4 0.111141 0.401355 0.990574
Si Si5 0.288042 0.682341 0.687536
Si Si6 0.457444 0.875000 0.875000
O O1 0.038048 0.545418 0.858588
O O2 0.074464 0.445137 0.763010
O O3 0.001358 0.577188 0.744668
O O4 0.988765 0.398630 0.812026
O O5 0.125000 0.625000 0.369699
O O6 0.085056 0.741067 0.282584
O O7 0.044614 0.557444 0.314404
O O8 0.382365 0.100576 0.811457
O O9 0.423563 0.972376 0.891117
O O10 0.159526 0.377800 0.949344
O O11 0.266700 0.625000 0.625000
#
# Coordination Sequence:
#
# PCOD8286382 Si02
#       6
#    32  32  16  32  32  16
#     4  12  23  41  70  95 128 173 218 267 327 405
#     4  10  22  41  64  92 125 168 213 273 325 391
#     4  11  24  36  60  98 145 160 207 280 332 382
#     4  11  22  40  65  97 132 169 213 271 339 391
#     4  11  25  42  63  94 130 173 219 264 324 397
#     4  11  22  38  60 102 130 166 206 276 335 384
#
# _framework density 21.558578000000001
#
# number of rings (size 3 to 8) (size 9 to 14) (size 15 to 20)
#    0.000    1.000    4.000    3.600    8.400    2.400 
#    0.000    2.000    0.000    0.000    0.000    0.000 
#    0.000    0.000    0.000    0.000    0.000    0.000 
#
# Total GULP energy -495808.047867 kJ/mol
# GULP energy per Si atom -12395.201197 kJ/mol
# Density = 2.150951 g / cm^3
# Si number density = 21.558578 Si / 1000 Ang^3
#
#
#
# Elastic Constant Matrix: (Units=GPa)
#
#
# Indices 1 2 3 4 5 6 
#
# 1 100.9069 21.5211 43.4887 0.0000 0.0000 0.0000
# 2 21.5211 31.5363 20.2973 0.0000 0.0000 0.0000
# 3 43.4887 20.2973 149.7102 0.0000 0.0000 0.0000
# 4 0.0000 0.0000 0.0000 31.3408 0.0000 0.0000
# 5 0.0000 0.0000 0.0000 0.0000 34.7781 0.0000
# 6 0.0000 0.0000 0.0000 0.0000 0.0000 38.2341
#
#
#
# Elastic Compliance Matrix: (Units=1/GPa)
#
#
# Indices 1 2 3 4 5 6 
#
# 1 0.012533 -0.006803 -0.002718 0.000000 0.000000 0.000000
# 2 -0.006803 0.038434 -0.003235 0.000000 0.000000 0.000000
# 3 -0.002718 -0.003235 0.007908 0.000000 0.000000 0.000000
# 4 0.000000 0.000000 0.000000 0.031907 0.000000 0.000000
# 5 0.000000 0.000000 0.000000 0.000000 0.028754 0.000000
# 6 0.000000 0.000000 0.000000 0.000000 0.000000 0.026155
#
#
# Mechanical properties :
#
#
# Convention : Reuss Voigt Hill
#
# Bulk Modulus (GPa) = 29.97374 50.30750 40.14062
# Shear Modulus (GPa) = 27.42400 33.99370 30.70885
#
# Velocity S-wave (km/s) = 3.57048 3.97521 3.77827
# Velocity P-wave (km/s) = 5.56159 6.66751 6.13950
#
# Compressibility (1/GPa) = 0.03336253
#
# Stress axis : x y z
#
# Youngs Moduli (GPa) = 79.79238 26.01874 126.45908
#
# Poissons Ratio (x) = 0.17701 0.34374
# Poissons Ratio (y) = 0.54283 0.40904
# Poissons Ratio (z) = 0.21689 0.08416
#
# Static dielectric constant tensor:
#      x y z
#    x 4.029580 0.000000 0.000000 
#    y 0.000000 3.525410 0.000000 
#    z 0.000000 0.000000 3.796230 
# 
# 
# High freq. dielectric constant tensor:
#      x y z
#    x 1.855930 0.000000 0.000000 
#    y 0.000000 1.805150 0.000000 
#    z 0.000000 0.000000 1.851230 
# 
# From -- ./inp_files/39537.got.cif
#   From: 2010.03.12/outbox.cif.g09.slc.cpg/sg70_20_cif.got.tgz:39537.got - 2010.04.16 13:46:32.
