data_PCOD8286416
_publ_section_title
;
Structure prediction by ZEFSAII (Michael W. Deem and Ramdas Pophale) SiO2 
 PCOD8286416
Probable space group: F D D D
;
_chemical_formula_sum "Si O2"
_cell_formula_units_Z 168
_cell_length_a 25.272663
_cell_length_b 19.950243
_cell_length_c 14.341705
_cell_angle_alpha 90.000000
_cell_angle_beta 90.000000
_cell_angle_gamma 90.000000
_cell_volume 7231.026968
_symmetry_space_group_name_H-M "F D D D"
_symmetry_group_IT_number 70
_space_group.IT_coordinate_system_code '2'
_symmetry_cell_setting 'orthorhombic'
loop_
_space_group_symop_operation_xyz
x,y,z
1/4-x,1/4-y,z
x,1/4-y,1/4-z
1/4-x,y,1/4-z
-x,-y,-z
3/4+x,3/4+y,-z
-x,3/4+y,3/4+z
3/4+x,-y,3/4+z
x,1/2+y,1/2+z
1/4-x,3/4-y,1/2+z
x,3/4-y,3/4-z
1/4-x,1/2+y,3/4-z
-x,1/2-y,1/2-z
3/4+x,1/4+y,1/2-z
-x,1/4+y,1/4+z
3/4+x,1/2-y,1/4+z
1/2+x,y,1/2+z
3/4-x,1/4-y,1/2+z
1/2+x,1/4-y,3/4-z
3/4-x,y,3/4-z
1/2-x,-y,1/2-z
1/4+x,3/4+y,1/2-z
1/2-x,3/4+y,1/4+z
1/4+x,-y,1/4+z
1/2+x,1/2+y,z
3/4-x,3/4-y,z
1/2+x,3/4-y,1/4-z
3/4-x,1/2+y,1/4-z
1/2-x,1/2-y,-z
1/4+x,1/4+y,-z
1/2-x,1/4+y,3/4+z
1/4+x,1/2-y,3/4+z
loop_
_atom_site_type_symbol
_atom_site_label
_atom_site_fract_x
_atom_site_fract_y
_atom_site_fract_z
Si Si1 0.439950 0.484979 0.266874
Si Si2 0.875000 0.375000 0.875000
Si Si3 0.682294 0.149959 0.725717
Si Si4 0.194560 0.452970 0.494065
Si Si5 0.336905 0.055329 0.161878
Si Si6 0.460658 0.121133 0.426701
O O1 0.404880 0.425043 0.305675
O O2 0.498133 0.464054 0.300963
O O3 0.432616 0.493155 0.153325
O O4 0.427826 0.559687 0.305722
O O5 0.625000 0.125000 0.760894
O O6 0.699706 0.125000 0.625000
O O7 0.676227 0.228556 0.708569
O O8 0.726907 0.130478 0.801611
O O9 0.150904 0.438302 0.414514
O O10 0.200274 0.393484 0.568610
O O11 0.312371 0.125000 0.125000
O O12 0.312727 0.056078 0.266758
#
# Coordination Sequence:
#
# PCOD8286416 Si02
#       6
#    32   8  32  32  32  32
#     4  10  26  46  65 100 137 181 236 289 347 413
#     4  12  28  48  72  92 146 188 230 292 350 400
#     4  10  23  38  58 100 142 177 221 283 347 416
#     4  11  24  41  71 101 130 185 228 283 354 415
#     4  10  23  42  68  97 134 176 229 286 340 409
#     4  10  22  43  70  99 137 180 234 285 346 422
#
# _framework density 23.233215000000001
#
# number of rings (size 3 to 8) (size 9 to 14) (size 15 to 20)
#    0.000    1.714    0.000    3.429   14.667    4.571 
#    0.000    1.905    0.000    0.000    0.000    0.000 
#    0.000    0.000    0.000    0.000    0.000    0.000 
#
# Total GULP energy -520334.985197 kJ/mol
# GULP energy per Si atom -12388.928219 kJ/mol
# Density = 2.318033 g / cm^3
# Si number density = 23.233215 Si / 1000 Ang^3
#
#
#
# Elastic Constant Matrix: (Units=GPa)
#
#
# Indices 1 2 3 4 5 6 
#
# 1 133.5998 28.3452 10.7917 0.0000 0.0000 0.0000
# 2 28.3452 119.7718 28.0429 0.0000 0.0000 0.0000
# 3 10.7917 28.0429 40.2901 0.0000 0.0000 0.0000
# 4 0.0000 0.0000 0.0000 16.0634 0.0000 0.0000
# 5 0.0000 0.0000 0.0000 0.0000 84.6106 0.0000
# 6 0.0000 0.0000 0.0000 0.0000 0.0000 41.0117
#
#
#
# Elastic Compliance Matrix: (Units=1/GPa)
#
#
# Indices 1 2 3 4 5 6 
#
# 1 0.007913 -0.001644 -0.000975 0.000000 0.000000 0.000000
# 2 -0.001644 0.010316 -0.006740 0.000000 0.000000 0.000000
# 3 -0.000975 -0.006740 0.029772 0.000000 0.000000 0.000000
# 4 0.000000 0.000000 0.000000 0.062253 0.000000 0.000000
# 5 0.000000 0.000000 0.000000 0.000000 0.011819 0.000000
# 6 0.000000 0.000000 0.000000 0.000000 0.000000 0.024383
#
#
# Mechanical properties :
#
#
# Convention : Reuss Voigt Hill
#
# Bulk Modulus (GPa) = 34.14965 47.55792 40.85379
# Shear Modulus (GPa) = 28.58177 43.43594 36.00885
#
# Velocity S-wave (km/s) = 3.51124 4.32853 3.94113
# Velocity P-wave (km/s) = 5.58292 6.74506 6.19132
#
# Compressibility (1/GPa) = 0.02928288
#
# Stress axis : x y z
#
# Youngs Moduli (GPa) = 126.37966 96.93246 33.58813
#
# Poissons Ratio (x) = 0.15939 0.03274
# Poissons Ratio (y) = 0.20781 0.22639
# Poissons Ratio (z) = 0.12321 0.65333
#
# Static dielectric constant tensor:
#      x y z
#    x 4.441630 0.000000 0.000000 
#    y 0.000000 4.299130 0.000000 
#    z 0.000000 0.000000 3.952750 
# 
# 
# High freq. dielectric constant tensor:
#      x y z
#    x 1.928110 0.000000 0.000000 
#    y 0.000000 1.923240 0.000000 
#    z 0.000000 0.000000 1.889580 
# 
# From -- ./inp_files/27686.got.cif
#   From: 2010.03.12/outbox.cif.g09.slc.cpg/sg70_14_cif.got.tgz:27686.got - 2010.04.16 13:46:32.
