data_PCOD8286139
_publ_section_title
;
Structure prediction by ZEFSAII (Michael W. Deem and Ramdas Pophale) SiO2 
 PCOD8286139
Probable space group: F D D D
;
_chemical_formula_sum "Si O2"
_cell_formula_units_Z 176
_cell_length_a 21.786892
_cell_length_b 31.589118
_cell_length_c 12.313653
_cell_angle_alpha 90.000000
_cell_angle_beta 90.000000
_cell_angle_gamma 90.000000
_cell_volume 8474.609424
_symmetry_space_group_name_H-M "F D D D"
_symmetry_group_IT_number 70
_space_group.IT_coordinate_system_code '2'
_symmetry_cell_setting 'orthorhombic'
loop_
_space_group_symop_operation_xyz
x,y,z
1/4-x,1/4-y,z
x,1/4-y,1/4-z
1/4-x,y,1/4-z
-x,-y,-z
3/4+x,3/4+y,-z
-x,3/4+y,3/4+z
3/4+x,-y,3/4+z
x,1/2+y,1/2+z
1/4-x,3/4-y,1/2+z
x,3/4-y,3/4-z
1/4-x,1/2+y,3/4-z
-x,1/2-y,1/2-z
3/4+x,1/4+y,1/2-z
-x,1/4+y,1/4+z
3/4+x,1/2-y,1/4+z
1/2+x,y,1/2+z
3/4-x,1/4-y,1/2+z
1/2+x,1/4-y,3/4-z
3/4-x,y,3/4-z
1/2-x,-y,1/2-z
1/4+x,3/4+y,1/2-z
1/2-x,3/4+y,1/4+z
1/4+x,-y,1/4+z
1/2+x,1/2+y,z
3/4-x,3/4-y,z
1/2+x,3/4-y,1/4-z
3/4-x,1/2+y,1/4-z
1/2-x,1/2-y,-z
1/4+x,1/4+y,-z
1/2-x,1/4+y,3/4+z
1/4+x,1/2-y,3/4+z
loop_
_atom_site_type_symbol
_atom_site_label
_atom_site_fract_x
_atom_site_fract_y
_atom_site_fract_z
Si Si1 0.052744 0.941950 0.619246
Si Si2 0.875000 0.471451 0.375000
Si Si3 0.569349 0.032103 0.199823
Si Si4 0.042156 0.326579 0.868522
Si Si5 0.092176 0.768103 0.837549
Si Si6 0.241317 0.578892 0.578229
O O1 0.125000 0.931890 0.625000
O O2 0.022007 0.931424 0.505110
O O3 0.019611 0.913797 0.709446
O O4 0.039950 0.990897 0.644127
O O5 0.841874 0.499567 0.283288
O O6 0.824832 0.442580 0.433809
O O7 0.625000 0.048919 0.125000
O O8 0.515695 0.067549 0.198358
O O9 0.590228 0.019699 0.322257
O O10 0.063868 0.375000 0.875000
O O11 0.097442 0.295899 0.897687
O O12 0.034017 0.798955 0.847669
O O13 0.233089 0.625000 0.625000
#
# Coordination Sequence:
#
# PCOD8286139 Si02
#       6
#    32  16  32  32  32  32
#     4  10  20  40  70  94 118 171 222 262 321 393
#     4  12  27  42  68  94 136 184 220 256 328 414
#     4  10  21  39  67  90 128 169 219 260 326 401
#     4  12  24  39  65 103 128 163 216 286 339 364
#     4  11  23  43  67  95 126 175 223 263 318 400
#     4  11  24  43  65  97 136 173 219 274 332 387
#
# _framework density 20.767918000000002
#
# number of rings (size 3 to 8) (size 9 to 14) (size 15 to 20)
#    0.000    1.091    5.455    4.091    2.545    3.273 
#    0.000    0.000    0.000    0.000    0.000    0.000 
#    0.000    0.000    0.000    0.000    0.000    0.000 
#
# Total GULP energy -545657.343070 kJ/mol
# GULP energy per Si atom -12401.303252 kJ/mol
# Density = 2.072065 g / cm^3
# Si number density = 20.767918 Si / 1000 Ang^3
#
#
#
# Elastic Constant Matrix: (Units=GPa)
#
#
# Indices 1 2 3 4 5 6 
#
# 1 90.2573 31.1056 12.3614 0.0000 0.0000 0.0000
# 2 31.1056 69.7389 33.7700 0.0000 0.0000 0.0000
# 3 12.3614 33.7700 108.7537 0.0000 0.0000 0.0000
# 4 0.0000 0.0000 0.0000 15.2395 0.0000 0.0000
# 5 0.0000 0.0000 0.0000 0.0000 23.5603 0.0000
# 6 0.0000 0.0000 0.0000 0.0000 0.0000 9.2727
#
#
#
# Elastic Compliance Matrix: (Units=1/GPa)
#
#
# Indices 1 2 3 4 5 6 
#
# 1 0.013105 -0.006031 0.000383 0.000000 0.000000 0.000000
# 2 -0.006031 0.019652 -0.005417 0.000000 0.000000 0.000000
# 3 0.000383 -0.005417 0.010834 0.000000 0.000000 0.000000
# 4 0.000000 0.000000 0.000000 0.065619 0.000000 0.000000
# 5 0.000000 0.000000 0.000000 0.000000 0.042444 0.000000
# 6 0.000000 0.000000 0.000000 0.000000 0.000000 0.107844
#
#
# Mechanical properties :
#
#
# Convention : Reuss Voigt Hill
#
# Bulk Modulus (GPa) = 46.59436 47.02488 46.80962
# Shear Modulus (GPa) = 17.31412 22.38201 19.84807
#
# Velocity S-wave (km/s) = 2.89051 3.28643 3.09481
# Velocity P-wave (km/s) = 5.79867 6.09040 5.94632
#
# Compressibility (1/GPa) = 0.02146183
#
# Stress axis : x y z
#
# Youngs Moduli (GPa) = 76.30431 50.88484 92.30555
#
# Poissons Ratio (x) = 0.30688 -0.03536
# Poissons Ratio (y) = 0.46018 0.50001
# Poissons Ratio (z) = -0.02923 0.27564
#
# Static dielectric constant tensor:
#      x y z
#    x 3.798320 0.000000 0.000000 
#    y 0.000000 3.573800 0.000000 
#    z 0.000000 0.000000 3.895460 
# 
# 
# High freq. dielectric constant tensor:
#      x y z
#    x 1.820610 0.000000 0.000000 
#    y 0.000000 1.793220 0.000000 
#    z 0.000000 0.000000 1.814630 
# 
# From -- ./inp_files/19640.got.cif
#   From: 2010.03.12/outbox.cif.g09.slc.cpg/sg70_10_cif.got.tgz:19640.got - 2010.04.16 13:46:32.
