data_PCOD8286306
_publ_section_title
;
Structure prediction by ZEFSAII (Michael W. Deem and Ramdas Pophale) SiO2 
 PCOD8286306
Probable space group: F D D D
;
_chemical_formula_sum "Si O2"
_cell_formula_units_Z 216
_cell_length_a 14.526626
_cell_length_b 25.565030
_cell_length_c 26.146198
_cell_angle_alpha 90.000000
_cell_angle_beta 90.000000
_cell_angle_gamma 90.000000
_cell_volume 9710.008449
_symmetry_space_group_name_H-M "F D D D"
_symmetry_group_IT_number 70
_space_group.IT_coordinate_system_code '2'
_symmetry_cell_setting 'orthorhombic'
loop_
_space_group_symop_operation_xyz
x,y,z
1/4-x,1/4-y,z
x,1/4-y,1/4-z
1/4-x,y,1/4-z
-x,-y,-z
3/4+x,3/4+y,-z
-x,3/4+y,3/4+z
3/4+x,-y,3/4+z
x,1/2+y,1/2+z
1/4-x,3/4-y,1/2+z
x,3/4-y,3/4-z
1/4-x,1/2+y,3/4-z
-x,1/2-y,1/2-z
3/4+x,1/4+y,1/2-z
-x,1/4+y,1/4+z
3/4+x,1/2-y,1/4+z
1/2+x,y,1/2+z
3/4-x,1/4-y,1/2+z
1/2+x,1/4-y,3/4-z
3/4-x,y,3/4-z
1/2-x,-y,1/2-z
1/4+x,3/4+y,1/2-z
1/2-x,3/4+y,1/4+z
1/4+x,-y,1/4+z
1/2+x,1/2+y,z
3/4-x,3/4-y,z
1/2+x,3/4-y,1/4-z
3/4-x,1/2+y,1/4-z
1/2-x,1/2-y,-z
1/4+x,1/4+y,-z
1/2-x,1/4+y,3/4+z
1/4+x,1/2-y,3/4+z
loop_
_atom_site_type_symbol
_atom_site_label
_atom_site_fract_x
_atom_site_fract_y
_atom_site_fract_z
Si Si1 0.858565 0.140401 0.744198
Si Si2 0.111604 0.067930 0.372999
Si Si3 0.683429 0.784325 0.671722
Si Si4 0.722909 0.816605 0.314571
Si Si5 0.125000 0.250428 0.125000
Si Si6 0.926423 0.211918 0.102084
Si Si7 0.875000 0.875000 0.375000
Si Si8 0.512882 0.952601 0.539446
O O1 0.879192 0.181167 0.790060
O O2 0.947516 0.103934 0.733090
O O3 0.832120 0.173459 0.694942
O O4 0.776062 0.101243 0.758575
O O5 0.125000 0.125000 0.398488
O O6 0.172670 0.055240 0.323167
O O7 0.006529 0.071825 0.355587
O O8 0.134663 0.019861 0.411770
O O9 0.625000 0.759504 0.625000
O O10 0.741140 0.740427 0.703191
O O11 0.633132 0.811740 0.350997
O O12 0.811348 0.839297 0.341157
O O13 0.215502 0.214727 0.133919
O O14 0.147726 0.286521 0.075623
O O15 0.500000 0.000000 0.500000
#
# Coordination Sequence:
#
# PCOD8286306 Si02
#       8
#    32  32  32  32  16  32   8  32
#     4  12  24  42  74 103 143 180 252 297 354 437
#     4  10  21  44  64  98 144 193 226 291 378 426
#     4  11  25  44  72 102 141 189 241 297 363 431
#     4  11  24  48  71 104 141 191 236 305 360 434
#     4  10  24  42  68 102 156 189 223 304 372 440
#     4  10  23  43  70 106 142 183 249 290 360 446
#     4  12  20  48  78  86 140 194 224 288 392 384
#     4  11  24  41  68 104 146 191 237 290 371 447
#
# _framework density 22.245089
#
# number of rings (size 3 to 8) (size 9 to 14) (size 15 to 20)
#    0.000    1.185    3.704    2.667    5.185    0.000 
#    2.667    9.630    0.000    0.000    0.000    0.000 
#    0.000    0.000    0.000    0.000    0.000    0.000 
#
# Total GULP energy -669166.576309 kJ/mol
# GULP energy per Si atom -12391.973635 kJ/mol
# Density = 2.219446 g / cm^3
# Si number density = 22.245089 Si / 1000 Ang^3
#
#
#
# Elastic Constant Matrix: (Units=GPa)
#
#
# Indices 1 2 3 4 5 6 
#
# 1 117.7019 32.5881 32.5863 0.0000 0.0000 0.0000
# 2 32.5881 152.9142 62.5902 0.0000 0.0000 0.0000
# 3 32.5863 62.5902 92.7275 0.0000 0.0000 0.0000
# 4 0.0000 0.0000 0.0000 44.6434 0.0000 0.0000
# 5 0.0000 0.0000 0.0000 0.0000 30.2709 0.0000
# 6 0.0000 0.0000 0.0000 0.0000 0.0000 24.3189
#
#
#
# Elastic Compliance Matrix: (Units=1/GPa)
#
#
# Indices 1 2 3 4 5 6 
#
# 1 0.009502 -0.000910 -0.002725 0.000000 0.000000 0.000000
# 2 -0.000910 0.009123 -0.005838 0.000000 0.000000 0.000000
# 3 -0.002725 -0.005838 0.015683 0.000000 0.000000 0.000000
# 4 0.000000 0.000000 0.000000 0.022400 0.000000 0.000000
# 5 0.000000 0.000000 0.000000 0.000000 0.033035 0.000000
# 6 0.000000 0.000000 0.000000 0.000000 0.000000 0.041120
#
#
# Mechanical properties :
#
#
# Convention : Reuss Voigt Hill
#
# Bulk Modulus (GPa) = 65.09666 68.76364 66.93015
# Shear Modulus (GPa) = 32.27245 35.55192 33.91219
#
# Velocity S-wave (km/s) = 3.81303 4.00208 3.90869
# Velocity P-wave (km/s) = 6.97943 7.23425 7.10798
#
# Compressibility (1/GPa) = 0.01536177
#
# Stress axis : x y z
#
# Youngs Moduli (GPa) = 105.23657 109.61040 63.76353
#
# Poissons Ratio (x) = 0.09969 0.17378
# Poissons Ratio (y) = 0.09572 0.37228
# Poissons Ratio (z) = 0.28681 0.63996
#
# Static dielectric constant tensor:
#      x y z
#    x 4.042060 0.000000 0.000000 
#    y 0.000000 4.488520 0.000000 
#    z 0.000000 0.000000 0.748000 
# 
# 
# High freq. dielectric constant tensor:
#      x y z
#    x 1.873680 0.000000 0.000000 
#    y 0.000000 1.898140 0.000000 
#    z 0.000000 0.000000 1.850720 
# 
# From -- ./inp_files/58791.got.cif
#   From: 2010.03.12/outbox.cif.g09.slc.cpg/sg70_30_cif.got.tgz:58791.got - 2010.04.16 13:46:32.
