data_PCOD8286880
_publ_section_title
;
Structure prediction by ZEFSAII (Michael W. Deem and Ramdas Pophale) SiO2 
 PCOD8286880
Probable space group: I M M M
;
_chemical_formula_sum "Si O2"
_cell_formula_units_Z 88
_cell_length_a 25.565313
_cell_length_b 8.740801
_cell_length_c 27.998403
_cell_angle_alpha 90.000000
_cell_angle_beta 90.000000
_cell_angle_gamma 90.000000
_cell_volume 6256.559908
_symmetry_space_group_name_H-M "I M M M"
_symmetry_group_IT_number 71
_symmetry_cell_setting 'orthorhombic'
loop_
_space_group_symop_operation_xyz
x,y,z
-x,-y,z
x,-y,-z
-x,y,-z
-x,-y,-z
x,y,-z
-x,y,z
x,-y,z
1/2+x,1/2+y,1/2+z
1/2-x,1/2-y,1/2+z
1/2+x,1/2-y,1/2-z
1/2-x,1/2+y,1/2-z
1/2-x,1/2-y,1/2-z
1/2+x,1/2+y,1/2-z
1/2-x,1/2+y,1/2+z
1/2+x,1/2-y,1/2+z
loop_
_atom_site_type_symbol
_atom_site_label
_atom_site_fract_x
_atom_site_fract_y
_atom_site_fract_z
Si Si1 0.099637 0.825381 0.597676
Si Si2 0.742800 0.320696 0.640562
Si Si3 0.209710 0.179672 0.445424
Si Si4 0.000000 0.320974 0.553168
Si Si5 0.157876 0.176754 0.311112
Si Si6 0.802227 0.318397 0.773800
O O1 0.151588 0.767779 0.570186
O O2 0.106718 0.809130 0.655320
O O3 0.051099 0.724982 0.582251
O O4 0.087878 0.000000 0.583633
O O5 0.732837 0.500000 0.641915
O O6 0.745229 0.262613 0.585796
O O7 0.797728 0.277235 0.663952
O O8 0.696250 0.238428 0.671034
O O9 0.219163 0.226466 0.500000
O O10 0.215154 0.000000 0.436543
O O11 0.000000 0.500000 0.548148
O O12 0.000000 0.246687 0.500000
O O13 0.149675 0.246835 0.257672
O O14 0.176162 0.000000 0.308064
O O15 0.803752 0.500000 0.771354
O O16 0.750000 0.250000 0.750000
#
# Coordination Sequence:
#
# PCOD8286880 Si02
#       6
#    16  16  16   8  16  16
#     4   9  18  31  45  56  67  88 117 148 185 230
#     4  10  17  24  35  52  73  94 115 140 171 208
#     4   9  17  29  42  54  69  91 120 153 186 219
#     4  11  23  33  41  55  73  91 115 153 194 227
#     4   9  16  27  40  54  70  87 110 140 176 216
#     4  10  16  23  36  53  72  92 112 135 168 208
#
# _framework density 14.065237
#
# number of rings (size 3 to 8) (size 9 to 14) (size 15 to 20)
#    0.000    2.455    0.000    7.909    0.000    5.455 
#    0.000    0.000    0.000    0.000    0.000    0.000 
#    0.000    0.000    0.000    0.000    0.000    0.000 
#
# Total GULP energy -545200.185416 kJ/mol
# GULP energy per Si atom -12390.913305 kJ/mol
# Density = 1.403322 g / cm^3
# Si number density = 14.065237 Si / 1000 Ang^3
#
#
#
# Elastic Constant Matrix: (Units=GPa)
#
#
# Indices 1 2 3 4 5 6 
#
# 1 26.0700 20.4824 40.1831 0.0000 0.0000 0.0000
# 2 20.4824 82.2640 48.8520 0.0000 0.0000 0.0000
# 3 40.1831 48.8520 120.0039 0.0000 0.0000 0.0000
# 4 0.0000 0.0000 0.0000 25.2292 0.0000 0.0000
# 5 0.0000 0.0000 0.0000 0.0000 15.7168 0.0000
# 6 0.0000 0.0000 0.0000 0.0000 0.0000 14.4371
#
#
#
# Elastic Compliance Matrix: (Units=1/GPa)
#
#
# Indices 1 2 3 4 5 6 
#
# 1 0.081024 -0.005357 -0.024950 0.000000 0.000000 0.000000
# 2 -0.005357 0.016386 -0.004877 0.000000 0.000000 0.000000
# 3 -0.024950 -0.004877 0.018673 0.000000 0.000000 0.000000
# 4 0.000000 0.000000 0.000000 0.039637 0.000000 0.000000
# 5 0.000000 0.000000 0.000000 0.000000 0.063626 0.000000
# 6 0.000000 0.000000 0.000000 0.000000 0.000000 0.069266
#
#
# Mechanical properties :
#
#
# Convention : Reuss Voigt Hill
#
# Bulk Modulus (GPa) = 21.87462 49.70809 35.79135
# Shear Modulus (GPa) = 13.36122 18.99797 16.17959
#
# Velocity S-wave (km/s) = 3.08546 3.67918 3.39532
# Velocity P-wave (km/s) = 5.31784 7.31207 6.39319
#
# Compressibility (1/GPa) = 0.04571508
#
# Stress axis : x y z
#
# Youngs Moduli (GPa) = 12.34200 61.02861 53.55417
#
# Poissons Ratio (x) = 0.32695 1.33617
# Poissons Ratio (y) = 0.06612 0.26116
# Poissons Ratio (z) = 0.30793 0.29761
#
# Static dielectric constant tensor:
#      x y z
#    x 2.441010 0.000000 0.000000 
#    y 0.000000 2.813590 0.000000 
#    z 0.000000 0.000000 3.552180 
# 
# 
# High freq. dielectric constant tensor:
#      x y z
#    x 1.459580 0.000000 0.000000 
#    y 0.000000 1.549980 0.000000 
#    z 0.000000 0.000000 1.546010 
# 
# From -- ./inp_files/15690.got.cif
#   From: 2010.06.25/outbox.cif.g09.slc.cpg/sg71_8_cif.got.tgz:15690.got - 2010.06.28 04:59:45.
