data_PCOD8286549
_publ_section_title
;
Structure prediction by ZEFSAII (Michael W. Deem and Ramdas Pophale) SiO2 
 PCOD8286549
Probable space group: F D D D
;
_chemical_formula_sum "Si O2"
_cell_formula_units_Z 104
_cell_length_a 25.852206
_cell_length_b 10.063441
_cell_length_c 15.571721
_cell_angle_alpha 90.000000
_cell_angle_beta 90.000000
_cell_angle_gamma 90.000000
_cell_volume 4051.172411
_symmetry_space_group_name_H-M "F D D D"
_symmetry_group_IT_number 70
_space_group.IT_coordinate_system_code '2'
_symmetry_cell_setting 'orthorhombic'
loop_
_space_group_symop_operation_xyz
x,y,z
1/4-x,1/4-y,z
x,1/4-y,1/4-z
1/4-x,y,1/4-z
-x,-y,-z
3/4+x,3/4+y,-z
-x,3/4+y,3/4+z
3/4+x,-y,3/4+z
x,1/2+y,1/2+z
1/4-x,3/4-y,1/2+z
x,3/4-y,3/4-z
1/4-x,1/2+y,3/4-z
-x,1/2-y,1/2-z
3/4+x,1/4+y,1/2-z
-x,1/4+y,1/4+z
3/4+x,1/2-y,1/4+z
1/2+x,y,1/2+z
3/4-x,1/4-y,1/2+z
1/2+x,1/4-y,3/4-z
3/4-x,y,3/4-z
1/2-x,-y,1/2-z
1/4+x,3/4+y,1/2-z
1/2-x,3/4+y,1/4+z
1/4+x,-y,1/4+z
1/2+x,1/2+y,z
3/4-x,3/4-y,z
1/2+x,3/4-y,1/4-z
3/4-x,1/2+y,1/4-z
1/2-x,1/2-y,-z
1/4+x,1/4+y,-z
1/2-x,1/4+y,3/4+z
1/4+x,1/2-y,3/4+z
loop_
_atom_site_type_symbol
_atom_site_label
_atom_site_fract_x
_atom_site_fract_y
_atom_site_fract_z
Si Si1 0.625000 0.625000 0.125000
Si Si2 0.693002 0.897938 0.284369
Si Si3 0.711200 0.686264 0.808449
Si Si4 0.668412 0.456455 0.267108
O O1 0.666147 0.538826 0.179525
O O2 0.723222 0.875000 0.375000
O O3 0.727662 0.842329 0.206092
O O4 0.640999 0.813301 0.293773
O O5 0.681017 0.055474 0.274037
O O6 0.699192 0.713020 0.909088
O O7 0.694906 0.813816 0.751935
#
# Coordination Sequence:
#
# PCOD8286549 Si02
#       4
#     8  32  32  32
#     4  12  28  44  78 112 150 228 260 334 408 480
#     4  11  22  43  79 115 157 212 269 335 411 492
#     4  10  24  44  77 113 154 217 263 334 410 482
#     4  11  24  46  74 111 167 211 267 341 403 478
#
# _framework density 25.671581
#
# number of rings (size 3 to 8) (size 9 to 14) (size 15 to 20)
#    0.000    1.231    3.077    2.769    0.000    7.385 
#    0.000   10.769    0.000    5.538    0.000    0.000 
#    0.000    0.000    0.000    0.000    0.000    0.000 
#
# Total GULP energy -322286.622158 kJ/mol
# GULP energy per Si atom -12395.639314 kJ/mol
# Density = 2.561315 g / cm^3
# Si number density = 25.671581 Si / 1000 Ang^3
#
#
#
# Elastic Constant Matrix: (Units=GPa)
#
#
# Indices 1 2 3 4 5 6 
#
# 1 110.0559 63.3862 64.4573 0.0000 0.0000 0.0000
# 2 63.3862 194.5305 106.9448 0.0000 0.0000 0.0000
# 3 64.4573 106.9448 152.5223 0.0000 0.0000 0.0000
# 4 0.0000 0.0000 0.0000 50.3551 0.0000 0.0000
# 5 0.0000 0.0000 0.0000 0.0000 46.7617 0.0000
# 6 0.0000 0.0000 0.0000 0.0000 0.0000 36.3875
#
#
#
# Elastic Compliance Matrix: (Units=1/GPa)
#
#
# Indices 1 2 3 4 5 6 
#
# 1 0.012493 -0.001901 -0.003947 0.000000 0.000000 0.000000
# 2 -0.001901 0.008654 -0.005265 0.000000 0.000000 0.000000
# 3 -0.003947 -0.005265 0.011916 0.000000 0.000000 0.000000
# 4 0.000000 0.000000 0.000000 0.019859 0.000000 0.000000
# 5 0.000000 0.000000 0.000000 0.000000 0.021385 0.000000
# 6 0.000000 0.000000 0.000000 0.000000 0.000000 0.027482
#
#
# Mechanical properties :
#
#
# Convention : Reuss Voigt Hill
#
# Bulk Modulus (GPa) = 92.26770 102.96503 97.61636
# Shear Modulus (GPa) = 39.17689 41.52223 40.34956
#
# Velocity S-wave (km/s) = 3.91075 4.02610 3.96884
# Velocity P-wave (km/s) = 7.51076 7.86183 7.68830
#
# Compressibility (1/GPa) = 0.01083803
#
# Stress axis : x y z
#
# Youngs Moduli (GPa) = 80.04775 115.54803 83.92156
#
# Poissons Ratio (x) = 0.21965 0.33120
# Poissons Ratio (y) = 0.15217 0.44184
# Poissons Ratio (z) = 0.31591 0.60835
#
# Static dielectric constant tensor:
#      x y z
#    x 4.371830 0.000000 0.000000 
#    y 0.000000 5.092810 0.000000 
#    z 0.000000 0.000000 4.587120 
# 
# 
# High freq. dielectric constant tensor:
#      x y z
#    x 2.010590 0.000000 0.000000 
#    y 0.000000 2.055600 0.000000 
#    z 0.000000 0.000000 2.012200 
# 
# From -- ./inp_files/38198.got.cif
#   From: 2010.03.12/outbox.cif.g09.slc.cpg/sg70_20_cif.got.tgz:38198.got - 2010.04.16 13:46:32.
