data_PCOD8286919
_publ_section_title
;
Structure prediction by ZEFSAII (Michael W. Deem and Ramdas Pophale) SiO2 
 PCOD8286919
Probable space group: I M M M
;
_chemical_formula_sum "Si O2"
_cell_formula_units_Z 84
_cell_length_a 22.376534
_cell_length_b 18.917081
_cell_length_c 11.129133
_cell_angle_alpha 90.000000
_cell_angle_beta 90.000000
_cell_angle_gamma 90.000000
_cell_volume 4710.947600
_symmetry_space_group_name_H-M "I M M M"
_symmetry_group_IT_number 71
_symmetry_cell_setting 'orthorhombic'
loop_
_space_group_symop_operation_xyz
x,y,z
-x,-y,z
x,-y,-z
-x,y,-z
-x,-y,-z
x,y,-z
-x,y,z
x,-y,z
1/2+x,1/2+y,1/2+z
1/2-x,1/2-y,1/2+z
1/2+x,1/2-y,1/2-z
1/2-x,1/2+y,1/2-z
1/2-x,1/2-y,1/2-z
1/2+x,1/2+y,1/2-z
1/2-x,1/2+y,1/2+z
1/2+x,1/2-y,1/2+z
loop_
_atom_site_type_symbol
_atom_site_label
_atom_site_fract_x
_atom_site_fract_y
_atom_site_fract_z
Si Si1 0.778978 0.849444 0.242380
Si Si2 0.744018 0.500000 0.712846
Si Si3 0.119676 0.500000 0.641261
Si Si4 0.853147 0.152663 0.000000
Si Si5 0.348178 0.500000 0.500000
Si Si6 0.329423 0.225681 0.136337
Si Si7 0.930135 0.644561 0.745356
Si Si8 0.068874 0.292918 0.000000
O O1 0.811348 0.842544 0.115343
O O2 0.713204 0.816170 0.228113
O O3 0.818295 0.809238 0.342725
O O4 0.767853 0.929179 0.289948
O O5 0.809161 0.500000 0.653201
O O6 0.694498 0.500000 0.612459
O O7 0.102651 0.500000 0.500000
O O8 0.092250 0.432543 0.707767
O O9 0.885848 0.074290 0.000000
O O10 0.898736 0.217240 0.000000
O O11 0.397399 0.204452 0.165990
O O12 0.314956 0.205295 0.000000
O O13 0.914882 0.659192 0.884991
O O14 0.000000 0.651375 0.718524
O O15 0.000000 0.272136 0.000000
#
# Coordination Sequence:
#
# PCOD8286919 Si02
#       8
#    16   8   8   8   4  16  16   8
#     4  10  20  33  54  81 109 143 179 224 282 334
#     4  10  18  33  52  81 112 146 177 224 274 330
#     4  12  23  37  56  81 117 148 190 234 278 325
#     4  10  16  34  56  82 107 144 178 222 278 339
#     4   8  18  26  55  86 111 134 176 218 284 336
#     4  11  21  34  54  81 112 143 184 232 278 330
#     4  11  24  39  58  80 108 151 193 234 278 329
#     4  10  22  41  59  78 110 147 191 238 282 332
#
# _framework density 17.830805999999999
#
# number of rings (size 3 to 8) (size 9 to 14) (size 15 to 20)
#    0.000    1.524    5.238    0.857    0.000    2.286 
#    0.000    2.143    2.095    0.000    0.000    0.667 
#    0.000    1.524    0.000    0.000    0.000    0.000 
#
# Total GULP energy -520544.331078 kJ/mol
# GULP energy per Si atom -12393.912645 kJ/mol
# Density = 1.779022 g / cm^3
# Si number density = 17.830806 Si / 1000 Ang^3
#
#
#
# Elastic Constant Matrix: (Units=GPa)
#
#
# Indices 1 2 3 4 5 6 
#
# 1 74.1244 63.8458 35.5637 0.0000 0.0000 0.0000
# 2 63.8458 165.9508 48.0234 0.0000 0.0000 0.0000
# 3 35.5637 48.0234 66.7656 0.0000 0.0000 0.0000
# 4 0.0000 0.0000 0.0000 -188.6727 0.0000 0.0000
# 5 0.0000 0.0000 0.0000 0.0000 27.3285 0.0000
# 6 0.0000 0.0000 0.0000 0.0000 0.0000 25.3287
#
#
#
# Elastic Compliance Matrix: (Units=1/GPa)
#
#
# Indices 1 2 3 4 5 6 
#
# 1 0.022708 -0.006612 -0.007339 0.000000 0.000000 0.000000
# 2 -0.006612 0.009535 -0.003336 0.000000 0.000000 0.000000
# 3 -0.007339 -0.003336 0.021287 0.000000 0.000000 0.000000
# 4 0.000000 0.000000 0.000000 -0.005300 0.000000 0.000000
# 5 0.000000 0.000000 0.000000 0.000000 0.036592 0.000000
# 6 0.000000 0.000000 0.000000 0.000000 0.000000 0.039481
#
#
# Mechanical properties :
#
#
# Convention : Reuss Voigt Hill
#
# Bulk Modulus (GPa) = 52.76035 66.85629 59.80832
# Shear Modulus (GPa) = 30.26696 -16.57589 6.84554
#
# Velocity S-wave (km/s) = 4.12449 -3.05228 1.96150
# Velocity P-wave (km/s) = 7.23433 5.01541 6.22454
#
# Compressibility (1/GPa) = 0.01895363
#
# Stress axis : x y z
#
# Youngs Moduli (GPa) = 44.03820 104.87308 46.97690
#
# Poissons Ratio (x) = 0.69345 0.34478
# Poissons Ratio (y) = 0.29119 0.15674
# Poissons Ratio (z) = 0.32321 0.34991
#
# Static dielectric constant tensor:
#      x y z
#    x 3.232040 0.000000 0.000000 
#    y 0.000000 3.892610 0.000000 
#    z 0.000000 0.000000 3.187660 
# 
# 
# High freq. dielectric constant tensor:
#      x y z
#    x 1.675890 0.000000 0.000000 
#    y 0.000000 1.704090 0.000000 
#    z 0.000000 0.000000 1.674470 
# 
# From -- ./inp_files/25941.got.cif
#   From: 2010.06.25/outbox.cif.g09.slc.cpg/sg71_13_cif.got.tgz:25941.got - 2010.06.28 04:59:45.
