data_PCOD8286676
_publ_section_title
;
Structure prediction by ZEFSAII (Michael W. Deem and Ramdas Pophale) SiO2 
 PCOD8286676
Probable space group: F D D D
;
_chemical_formula_sum "Si O2"
_cell_formula_units_Z 176
_cell_length_a 14.053766
_cell_length_b 22.754427
_cell_length_c 24.637023
_cell_angle_alpha 90.000000
_cell_angle_beta 90.000000
_cell_angle_gamma 90.000000
_cell_volume 7878.560071
_symmetry_space_group_name_H-M "F D D D"
_symmetry_group_IT_number 70
_space_group.IT_coordinate_system_code '2'
_symmetry_cell_setting 'orthorhombic'
loop_
_space_group_symop_operation_xyz
x,y,z
1/4-x,1/4-y,z
x,1/4-y,1/4-z
1/4-x,y,1/4-z
-x,-y,-z
3/4+x,3/4+y,-z
-x,3/4+y,3/4+z
3/4+x,-y,3/4+z
x,1/2+y,1/2+z
1/4-x,3/4-y,1/2+z
x,3/4-y,3/4-z
1/4-x,1/2+y,3/4-z
-x,1/2-y,1/2-z
3/4+x,1/4+y,1/2-z
-x,1/4+y,1/4+z
3/4+x,1/2-y,1/4+z
1/2+x,y,1/2+z
3/4-x,1/4-y,1/2+z
1/2+x,1/4-y,3/4-z
3/4-x,y,3/4-z
1/2-x,-y,1/2-z
1/4+x,3/4+y,1/2-z
1/2-x,3/4+y,1/4+z
1/4+x,-y,1/4+z
1/2+x,1/2+y,z
3/4-x,3/4-y,z
1/2+x,3/4-y,1/4-z
3/4-x,1/2+y,1/4-z
1/2-x,1/2-y,-z
1/4+x,1/4+y,-z
1/2-x,1/4+y,3/4+z
1/4+x,1/2-y,3/4+z
loop_
_atom_site_type_symbol
_atom_site_label
_atom_site_fract_x
_atom_site_fract_y
_atom_site_fract_z
Si Si1 0.784768 0.476055 0.523581
Si Si2 0.344663 0.495032 0.216912
Si Si3 0.130814 0.442304 0.394590
Si Si4 0.280045 0.620737 0.845417
Si Si5 0.125000 0.625000 0.928330
Si Si6 0.068026 0.742509 0.679724
O O1 0.684339 0.474130 0.493950
O O2 0.796616 0.536691 0.557905
O O3 0.779319 0.419280 0.562263
O O4 0.872194 0.468199 0.481073
O O5 0.250000 0.500000 0.250000
O O6 0.339269 0.517597 0.155680
O O7 0.350552 0.425878 0.219039
O O8 0.141326 0.375000 0.375000
O O9 0.027610 0.455104 0.420794
O O10 0.375000 0.646016 0.875000
O O11 0.212496 0.600079 0.893686
O O12 0.299572 0.562122 0.809740
O O13 0.125000 0.733879 0.625000
#
# Coordination Sequence:
#
# PCOD8286676 Si02
#       6
#    32  32  32  32  16  32
#     4  12  26  45  75 105 144 194 233 298 369 426
#     4  12  27  47  73 105 140 189 243 298 363 428
#     4  12  28  49  68 109 149 185 240 301 368 438
#     4  11  22  43  75 102 140 185 243 292 346 438
#     4  12  22  48  72  97 139 182 242 292 342 424
#     4  11  23  48  72 106 145 188 242 296 359 434
#
# _framework density 22.339108
#
# number of rings (size 3 to 8) (size 9 to 14) (size 15 to 20)
#    0.000    0.364    5.455    2.727    5.091    0.364 
#    3.273    0.909    0.000    0.000    0.000    0.000 
#    0.000    0.000    0.000    0.000    0.000    0.000 
#
# Total GULP energy -545332.222195 kJ/mol
# GULP energy per Si atom -12393.914141 kJ/mol
# Density = 2.228826 g / cm^3
# Si number density = 22.339108 Si / 1000 Ang^3
#
#
#
# Elastic Constant Matrix: (Units=GPa)
#
#
# Indices 1 2 3 4 5 6 
#
# 1 107.6490 5.5630 35.8859 0.0000 0.0000 0.0000
# 2 5.5630 106.6613 20.9410 0.0000 0.0000 0.0000
# 3 35.8859 20.9410 97.6613 0.0000 0.0000 0.0000
# 4 0.0000 0.0000 0.0000 45.1553 0.0000 0.0000
# 5 0.0000 0.0000 0.0000 0.0000 45.6259 0.0000
# 6 0.0000 0.0000 0.0000 0.0000 0.0000 100.3737
#
#
#
# Elastic Compliance Matrix: (Units=1/GPa)
#
#
# Indices 1 2 3 4 5 6 
#
# 1 0.010591 0.000221 -0.003939 0.000000 0.000000 0.000000
# 2 0.000221 0.009792 -0.002181 0.000000 0.000000 0.000000
# 3 -0.003939 -0.002181 0.012155 0.000000 0.000000 0.000000
# 4 0.000000 0.000000 0.000000 0.022146 0.000000 0.000000
# 5 0.000000 0.000000 0.000000 0.000000 0.021917 0.000000
# 6 0.000000 0.000000 0.000000 0.000000 0.000000 0.009963
#
#
# Mechanical properties :
#
#
# Convention : Reuss Voigt Hill
#
# Bulk Modulus (GPa) = 48.21647 48.52792 48.37219
# Shear Modulus (GPa) = 47.49459 54.86976 51.18218
#
# Velocity S-wave (km/s) = 4.61594 4.96140 4.79179
# Velocity P-wave (km/s) = 7.07389 7.38858 7.23295
#
# Compressibility (1/GPa) = 0.02073980
#
# Stress axis : x y z
#
# Youngs Moduli (GPa) = 94.41812 102.12292 82.27366
#
# Poissons Ratio (x) = -0.02257 0.32409
# Poissons Ratio (y) = -0.02087 0.17943
# Poissons Ratio (z) = 0.37193 0.22272
#
# Static dielectric constant tensor:
#      x y z
#    x 4.372750 0.000000 0.000000 
#    y 0.000000 4.010060 0.000000 
#    z 0.000000 0.000000 4.353620 
# 
# 
# High freq. dielectric constant tensor:
#      x y z
#    x 1.893620 0.000000 0.000000 
#    y 0.000000 1.878710 0.000000 
#    z 0.000000 0.000000 1.892650 
# 
# From -- ./inp_files/51208.got.cif
#   From: 2010.03.12/outbox.cif.g09.slc.cpg/sg70_26_cif.got.tgz:51208.got - 2010.04.16 13:46:32.
