data_PCOD8286974
_publ_section_title
;
Structure prediction by ZEFSAII (Michael W. Deem and Ramdas Pophale) SiO2 
 PCOD8286974
Probable space group: I M M M
;
_chemical_formula_sum "Si O2"
_cell_formula_units_Z 96
_cell_length_a 26.110271
_cell_length_b 28.874105
_cell_length_c 9.149242
_cell_angle_alpha 90.000000
_cell_angle_beta 90.000000
_cell_angle_gamma 90.000000
_cell_volume 6897.711500
_symmetry_space_group_name_H-M "I M M M"
_symmetry_group_IT_number 71
_symmetry_cell_setting 'orthorhombic'
loop_
_space_group_symop_operation_xyz
x,y,z
-x,-y,z
x,-y,-z
-x,y,-z
-x,-y,-z
x,y,-z
-x,y,z
x,-y,z
1/2+x,1/2+y,1/2+z
1/2-x,1/2-y,1/2+z
1/2+x,1/2-y,1/2-z
1/2-x,1/2+y,1/2-z
1/2-x,1/2-y,1/2-z
1/2+x,1/2+y,1/2-z
1/2-x,1/2+y,1/2+z
1/2+x,1/2-y,1/2+z
loop_
_atom_site_type_symbol
_atom_site_label
_atom_site_fract_x
_atom_site_fract_y
_atom_site_fract_z
Si Si1 0.401994 0.052370 0.668003
Si Si2 0.761427 0.639439 0.671032
Si Si3 0.781991 0.551990 0.831707
Si Si4 0.441126 0.861643 0.167990
Si Si5 0.705354 0.725847 0.333504
Si Si6 0.855248 0.690321 0.172043
O O1 0.415953 0.062575 0.500000
O O2 0.342000 0.060097 0.693953
O O3 0.433339 0.086755 0.770490
O O4 0.417576 0.000000 0.709371
O O5 0.774725 0.636469 0.500000
O O6 0.750313 0.588255 0.733230
O O7 0.709526 0.670544 0.699051
O O8 0.809648 0.661003 0.755795
O O9 0.766727 0.500000 0.783664
O O10 0.767672 0.559924 0.000000
O O11 0.500000 0.847370 0.184952
O O12 0.408900 0.823794 0.257390
O O13 0.423652 0.861129 0.000000
O O14 0.719072 0.734638 0.500000
O O15 0.750000 0.750000 0.250000
O O16 0.652749 0.753909 0.298097
O O17 0.856482 0.678725 0.000000
#
# Coordination Sequence:
#
# PCOD8286974 Si02
#       6
#    16  16  16  16  16  16
#     4   9  18  32  47  59  72  95 128 165 203 242
#     4  10  17  26  42  63  83 100 123 156 195 232
#     4   9  17  28  41  58  80 105 132 161 193 230
#     4  11  23  34  43  58  78  98 124 164 210 245
#     4   8  16  27  40  60  81  99 120 151 189 229
#     4  10  18  30  45  58  76 101 128 157 191 234
#
# _framework density 13.917659
#
# number of rings (size 3 to 8) (size 9 to 14) (size 15 to 20)
#    0.000    2.500    1.667    2.500    0.000    3.667 
#    0.000    3.333    0.000    0.000    0.000    0.000 
#    0.000    0.000    0.000    0.000    0.000    0.833 
#
# Total GULP energy -594706.385443 kJ/mol
# GULP energy per Si atom -12389.716363 kJ/mol
# Density = 1.388598 g / cm^3
# Si number density = 13.917659 Si / 1000 Ang^3
#
#
#
# Elastic Constant Matrix: (Units=GPa)
#
#
# Indices 1 2 3 4 5 6 
#
# 1 41.6445 47.9719 33.1836 0.0000 0.0000 0.0000
# 2 47.9719 105.1819 55.4110 0.0000 0.0000 0.0000
# 3 33.1836 55.4110 80.5590 0.0000 0.0000 0.0000
# 4 0.0000 0.0000 0.0000 22.3183 0.0000 0.0000
# 5 0.0000 0.0000 0.0000 0.0000 15.2789 0.0000
# 6 0.0000 0.0000 0.0000 0.0000 0.0000 18.8776
#
#
#
# Elastic Compliance Matrix: (Units=1/GPa)
#
#
# Indices 1 2 3 4 5 6 
#
# 1 0.053918 -0.020216 -0.008304 0.000000 0.000000 0.000000
# 2 -0.020216 0.022490 -0.007142 0.000000 0.000000 0.000000
# 3 -0.008304 -0.007142 0.020746 0.000000 0.000000 0.000000
# 4 0.000000 0.000000 0.000000 0.044806 0.000000 0.000000
# 5 0.000000 0.000000 0.000000 0.000000 0.065450 0.000000
# 6 0.000000 0.000000 0.000000 0.000000 0.000000 0.052973
#
#
# Mechanical properties :
#
#
# Convention : Reuss Voigt Hill
#
# Bulk Modulus (GPa) = 38.71571 55.61314 47.16443
# Shear Modulus (GPa) = 14.69213 17.34956 16.02084
#
# Velocity S-wave (km/s) = 3.25260 3.53453 3.39649
# Velocity P-wave (km/s) = 6.47950 7.53012 7.02448
#
# Compressibility (1/GPa) = 0.02582931
#
# Stress axis : x y z
#
# Youngs Moduli (GPa) = 18.54669 44.46378 48.20114
#
# Poissons Ratio (x) = 0.89890 0.40027
# Poissons Ratio (y) = 0.37495 0.34425
# Poissons Ratio (z) = 0.15402 0.31756
#
# Static dielectric constant tensor:
#      x y z
#    x 2.500150 0.000000 0.000000 
#    y 0.000000 3.188800 0.000000 
#    z 0.000000 0.000000 2.747020 
# 
# 
# High freq. dielectric constant tensor:
#      x y z
#    x 1.473860 0.000000 0.000000 
#    y 0.000000 1.533080 0.000000 
#    z 0.000000 0.000000 1.545480 
# 
# From -- ./inp_files/15154.got.cif
#   From: 2010.06.25/outbox.cif.g09.slc.cpg/sg71_8_cif.got.tgz:15154.got - 2010.06.28 04:59:45.
