data_PCOD8286348
_publ_section_title
;
Structure prediction by ZEFSAII (Michael W. Deem and Ramdas Pophale) SiO2 
 PCOD8286348
Probable space group: F D D D
;
_chemical_formula_sum "Si O2"
_cell_formula_units_Z 176
_cell_length_a 21.889717
_cell_length_b 20.981708
_cell_length_c 17.124483
_cell_angle_alpha 90.000000
_cell_angle_beta 90.000000
_cell_angle_gamma 90.000000
_cell_volume 7864.995062
_symmetry_space_group_name_H-M "F D D D"
_symmetry_group_IT_number 70
_space_group.IT_coordinate_system_code '2'
_symmetry_cell_setting 'orthorhombic'
loop_
_space_group_symop_operation_xyz
x,y,z
1/4-x,1/4-y,z
x,1/4-y,1/4-z
1/4-x,y,1/4-z
-x,-y,-z
3/4+x,3/4+y,-z
-x,3/4+y,3/4+z
3/4+x,-y,3/4+z
x,1/2+y,1/2+z
1/4-x,3/4-y,1/2+z
x,3/4-y,3/4-z
1/4-x,1/2+y,3/4-z
-x,1/2-y,1/2-z
3/4+x,1/4+y,1/2-z
-x,1/4+y,1/4+z
3/4+x,1/2-y,1/4+z
1/2+x,y,1/2+z
3/4-x,1/4-y,1/2+z
1/2+x,1/4-y,3/4-z
3/4-x,y,3/4-z
1/2-x,-y,1/2-z
1/4+x,3/4+y,1/2-z
1/2-x,3/4+y,1/4+z
1/4+x,-y,1/4+z
1/2+x,1/2+y,z
3/4-x,3/4-y,z
1/2+x,3/4-y,1/4-z
3/4-x,1/2+y,1/4-z
1/2-x,1/2-y,-z
1/4+x,1/4+y,-z
1/2-x,1/4+y,3/4+z
1/4+x,1/2-y,3/4+z
loop_
_atom_site_type_symbol
_atom_site_label
_atom_site_fract_x
_atom_site_fract_y
_atom_site_fract_z
Si Si1 0.521746 0.625000 0.625000
Si Si2 0.652511 0.932962 0.042482
Si Si3 0.862291 0.443832 0.156532
Si Si4 0.199989 0.983601 0.812127
Si Si5 0.118409 0.957438 0.210864
Si Si6 0.975146 0.952716 0.237008
O O1 0.479942 0.687277 0.625919
O O2 0.555470 0.645353 0.543490
O O3 0.625000 0.956050 0.125000
O O4 0.661286 0.856508 0.040498
O O5 0.605702 0.946496 0.974446
O O6 0.712143 0.976449 0.023880
O O7 0.875000 0.375000 0.194676
O O8 0.924376 0.455530 0.107299
O O9 0.853042 0.495313 0.225040
O O10 0.804331 0.445848 0.098597
O O11 0.250000 0.000000 0.750000
O O12 0.125000 0.989106 0.125000
O O13 0.047541 0.941303 0.227799
#
# Coordination Sequence:
#
# PCOD8286348 Si02
#       6
#    16  32  32  32  32  32
#     4  12  20  40  69  98 136 174 221 284 362 426
#     4  10  22  39  65 103 139 182 238 287 370 435
#     4  11  25  42  65 101 141 184 244 302 366 431
#     4  11  20  35  63  93 131 177 212 284 353 436
#     4  11  25  47  71  97 138 197 253 300 355 425
#     4  11  24  42  72 106 142 183 233 308 365 451
#
# _framework density 22.377637
#
# number of rings (size 3 to 8) (size 9 to 14) (size 15 to 20)
#    0.000    1.091    3.636    2.182    0.000    6.182 
#    0.000    5.455    0.000    0.000    0.000    0.000 
#    0.000    0.000    0.000    0.000    0.000    0.000 
#
# Total GULP energy -545086.791957 kJ/mol
# GULP energy per Si atom -12388.336181 kJ/mol
# Density = 2.232670 g / cm^3
# Si number density = 22.377637 Si / 1000 Ang^3
#
#
#
# Elastic Constant Matrix: (Units=GPa)
#
#
# Indices 1 2 3 4 5 6 
#
# 1 54.0922 29.0064 20.6998 0.0000 0.0000 0.0000
# 2 29.0064 118.1838 47.0416 0.0000 0.0000 0.0000
# 3 20.6998 47.0416 139.2969 0.0000 0.0000 0.0000
# 4 0.0000 0.0000 0.0000 48.8481 0.0000 0.0000
# 5 0.0000 0.0000 0.0000 0.0000 27.4326 0.0000
# 6 0.0000 0.0000 0.0000 0.0000 0.0000 5.7679
#
#
#
# Elastic Compliance Matrix: (Units=1/GPa)
#
#
# Indices 1 2 3 4 5 6 
#
# 1 0.021609 -0.004650 -0.001641 0.000000 0.000000 0.000000
# 2 -0.004650 0.010776 -0.002948 0.000000 0.000000 0.000000
# 3 -0.001641 -0.002948 0.008418 0.000000 0.000000 0.000000
# 4 0.000000 0.000000 0.000000 0.020472 0.000000 0.000000
# 5 0.000000 0.000000 0.000000 0.000000 0.036453 0.000000
# 6 0.000000 0.000000 0.000000 0.000000 0.000000 0.173372
#
#
# Mechanical properties :
#
#
# Convention : Reuss Voigt Hill
#
# Bulk Modulus (GPa) = 44.79340 56.11872 50.45606
# Shear Modulus (GPa) = 16.83389 30.73141 23.78265
#
# Velocity S-wave (km/s) = 2.74572 3.70984 3.26358
# Velocity P-wave (km/s) = 5.48748 6.59417 6.06611
#
# Compressibility (1/GPa) = 0.02232472
#
# Stress axis : x y z
#
# Youngs Moduli (GPa) = 46.27802 92.79661 118.78857
#
# Poissons Ratio (x) = 0.43155 0.19488
# Poissons Ratio (y) = 0.21521 0.35021
# Poissons Ratio (z) = 0.07592 0.27358
#
# Static dielectric constant tensor:
#      x y z
#    x 3.959090 0.000000 0.000000 
#    y 0.000000 4.237200 0.000000 
#    z 0.000000 0.000000 4.204400 
# 
# 
# High freq. dielectric constant tensor:
#      x y z
#    x 1.853770 0.000000 0.000000 
#    y 0.000000 1.881760 0.000000 
#    z 0.000000 0.000000 1.902090 
# 
# From -- ./inp_files/38533.got.cif
#   From: 2010.03.12/outbox.cif.g09.slc.cpg/sg70_20_cif.got.tgz:38533.got - 2010.04.16 13:46:32.
