data_PCOD8286103
_publ_section_title
;
Structure prediction by ZEFSAII (Michael W. Deem and Ramdas Pophale) SiO2 
 PCOD8286103
Probable space group: F D D D
;
_chemical_formula_sum "Si O2"
_cell_formula_units_Z 168
_cell_length_a 25.240848
_cell_length_b 14.900002
_cell_length_c 21.636877
_cell_angle_alpha 90.000000
_cell_angle_beta 90.000000
_cell_angle_gamma 90.000000
_cell_volume 8137.384633
_symmetry_space_group_name_H-M "F D D D"
_symmetry_group_IT_number 70
_space_group.IT_coordinate_system_code '2'
_symmetry_cell_setting 'orthorhombic'
loop_
_space_group_symop_operation_xyz
x,y,z
1/4-x,1/4-y,z
x,1/4-y,1/4-z
1/4-x,y,1/4-z
-x,-y,-z
3/4+x,3/4+y,-z
-x,3/4+y,3/4+z
3/4+x,-y,3/4+z
x,1/2+y,1/2+z
1/4-x,3/4-y,1/2+z
x,3/4-y,3/4-z
1/4-x,1/2+y,3/4-z
-x,1/2-y,1/2-z
3/4+x,1/4+y,1/2-z
-x,1/4+y,1/4+z
3/4+x,1/2-y,1/4+z
1/2+x,y,1/2+z
3/4-x,1/4-y,1/2+z
1/2+x,1/4-y,3/4-z
3/4-x,y,3/4-z
1/2-x,-y,1/2-z
1/4+x,3/4+y,1/2-z
1/2-x,3/4+y,1/4+z
1/4+x,-y,1/4+z
1/2+x,1/2+y,z
3/4-x,3/4-y,z
1/2+x,3/4-y,1/4-z
3/4-x,1/2+y,1/4-z
1/2-x,1/2-y,-z
1/4+x,1/4+y,-z
1/2-x,1/4+y,3/4+z
1/4+x,1/2-y,3/4+z
loop_
_atom_site_type_symbol
_atom_site_label
_atom_site_fract_x
_atom_site_fract_y
_atom_site_fract_z
Si Si1 0.875000 0.375000 0.682305
Si Si2 0.342346 0.224075 0.651163
Si Si3 0.375000 0.574611 0.375000
Si Si4 0.986078 0.876476 0.506895
Si Si5 0.625000 0.625000 0.125000
Si Si6 0.769119 0.984674 0.354722
Si Si7 0.916145 0.724653 0.961562
O O1 0.871339 0.287318 0.640202
O O2 0.925413 0.380757 0.725818
O O3 0.349975 0.125000 0.625000
O O4 0.281323 0.257806 0.646637
O O5 0.361531 0.235597 0.721636
O O6 0.425745 0.510166 0.361313
O O7 0.363835 0.638896 0.316990
O O8 0.016343 0.957022 0.541481
O O9 0.020952 0.790137 0.526282
O O10 0.985310 0.885325 0.429917
O O11 0.661287 0.562677 0.081232
#
# Coordination Sequence:
#
# PCOD8286103 Si02
#       7
#    16  32  16  32   8  32  32
#     4  10  23  36  58  90 120 159 206 248 308 372
#     4  11  21  39  59  86 123 166 197 251 314 371
#     4   9  20  35  61  90 115 154 204 259 299 369
#     4   9  18  36  57  80 117 152 195 253 294 364
#     4  10  22  40  64  88 122 172 208 252 308 370
#     4   9  18  35  57  83 114 150 196 245 310 349
#     4  10  20  39  60  86 124 163 205 250 307 370
#
# _framework density 20.645454000000001
#
# number of rings (size 3 to 8) (size 9 to 14) (size 15 to 20)
#    0.000    2.286    1.905    0.571    2.667    1.524 
#    1.714    0.000    0.000    9.143    0.000    0.000 
#    0.000    0.000    0.000    0.000    0.000    0.000 
#
# Total GULP energy -520529.718364 kJ/mol
# GULP energy per Si atom -12393.564723 kJ/mol
# Density = 2.059846 g / cm^3
# Si number density = 20.645454 Si / 1000 Ang^3
#
#
#
# Elastic Constant Matrix: (Units=GPa)
#
#
# Indices 1 2 3 4 5 6 
#
# 1 91.4601 18.9405 26.1372 0.0000 0.0000 0.0000
# 2 18.9405 77.7725 22.5845 0.0000 0.0000 0.0000
# 3 26.1372 22.5845 128.3294 0.0000 0.0000 0.0000
# 4 0.0000 0.0000 0.0000 28.9106 0.0000 0.0000
# 5 0.0000 0.0000 0.0000 0.0000 19.7217 0.0000
# 6 0.0000 0.0000 0.0000 0.0000 0.0000 25.9275
#
#
#
# Elastic Compliance Matrix: (Units=1/GPa)
#
#
# Indices 1 2 3 4 5 6 
#
# 1 0.011998 -0.002331 -0.002033 0.000000 0.000000 0.000000
# 2 -0.002331 0.014004 -0.001990 0.000000 0.000000 0.000000
# 3 -0.002033 -0.001990 0.008557 0.000000 0.000000 0.000000
# 4 0.000000 0.000000 0.000000 0.034589 0.000000 0.000000
# 5 0.000000 0.000000 0.000000 0.000000 0.050706 0.000000
# 6 0.000000 0.000000 0.000000 0.000000 0.000000 0.038569
#
#
# Mechanical properties :
#
#
# Convention : Reuss Voigt Hill
#
# Bulk Modulus (GPa) = 45.76815 48.09851 46.93333
# Shear Modulus (GPa) = 28.02477 30.23862 29.13170
#
# Velocity S-wave (km/s) = 3.68833 3.83124 3.76047
# Velocity P-wave (km/s) = 6.35257 6.55127 6.45269
#
# Compressibility (1/GPa) = 0.02184925
#
# Stress axis : x y z
#
# Youngs Moduli (GPa) = 83.34990 71.41036 116.86715
#
# Poissons Ratio (x) = 0.16649 0.23762
# Poissons Ratio (y) = 0.19432 0.23252
# Poissons Ratio (z) = 0.16947 0.14208
#
# Static dielectric constant tensor:
#      x y z
#    x 3.577210 0.000000 0.000000 
#    y 0.000000 3.958210 0.000000 
#    z 0.000000 0.000000 3.977560 
# 
# 
# High freq. dielectric constant tensor:
#      x y z
#    x 1.788530 0.000000 0.000000 
#    y 0.000000 1.808200 0.000000 
#    z 0.000000 0.000000 1.833100 
# 
# From -- ./inp_files/37575.got.cif
#   From: 2010.03.12/outbox.cif.g09.slc.cpg/sg70_19_cif.got.tgz:37575.got - 2010.04.16 13:46:32.
