data_PCOD8286502
_publ_section_title
;
Structure prediction by ZEFSAII (Michael W. Deem and Ramdas Pophale) SiO2 
 PCOD8286502
Probable space group: F D D D
;
_chemical_formula_sum "Si O2"
_cell_formula_units_Z 176
_cell_length_a 20.754588
_cell_length_b 29.680786
_cell_length_c 11.665542
_cell_angle_alpha 90.000000
_cell_angle_beta 90.000000
_cell_angle_gamma 90.000000
_cell_volume 7186.119516
_symmetry_space_group_name_H-M "F D D D"
_symmetry_group_IT_number 70
_space_group.IT_coordinate_system_code '2'
_symmetry_cell_setting 'orthorhombic'
loop_
_space_group_symop_operation_xyz
x,y,z
1/4-x,1/4-y,z
x,1/4-y,1/4-z
1/4-x,y,1/4-z
-x,-y,-z
3/4+x,3/4+y,-z
-x,3/4+y,3/4+z
3/4+x,-y,3/4+z
x,1/2+y,1/2+z
1/4-x,3/4-y,1/2+z
x,3/4-y,3/4-z
1/4-x,1/2+y,3/4-z
-x,1/2-y,1/2-z
3/4+x,1/4+y,1/2-z
-x,1/4+y,1/4+z
3/4+x,1/2-y,1/4+z
1/2+x,y,1/2+z
3/4-x,1/4-y,1/2+z
1/2+x,1/4-y,3/4-z
3/4-x,y,3/4-z
1/2-x,-y,1/2-z
1/4+x,3/4+y,1/2-z
1/2-x,3/4+y,1/4+z
1/4+x,-y,1/4+z
1/2+x,1/2+y,z
3/4-x,3/4-y,z
1/2+x,3/4-y,1/4-z
3/4-x,1/2+y,1/4-z
1/2-x,1/2-y,-z
1/4+x,1/4+y,-z
1/2-x,1/4+y,3/4+z
1/4+x,1/2-y,3/4+z
loop_
_atom_site_type_symbol
_atom_site_label
_atom_site_fract_x
_atom_site_fract_y
_atom_site_fract_z
Si Si1 0.953803 0.507661 0.271122
Si Si2 0.884077 0.053074 0.581117
Si Si3 0.405456 0.283513 0.486732
Si Si4 0.875000 0.618499 0.875000
Si Si5 0.858779 0.925474 0.715895
Si Si6 0.465934 0.687613 0.260826
O O1 0.925770 0.551007 0.199178
O O2 0.914088 0.461194 0.252243
O O3 0.951205 0.518973 0.407545
O O4 0.026949 0.506753 0.224654
O O5 0.900667 0.090605 0.486315
O O6 0.812059 0.057867 0.632462
O O7 0.895408 0.005215 0.520834
O O8 0.375000 0.306444 0.375000
O O9 0.406237 0.322760 0.580390
O O10 0.812660 0.645195 0.919592
O O11 0.875000 0.875000 0.753134
O O12 0.790442 0.935425 0.773729
#
# Coordination Sequence:
#
# PCOD8286502 Si02
#       6
#    32  32  32  16  32  32
#     4  10  23  44  70 101 142 187 236 286 367 421
#     4  11  23  42  69  99 135 183 235 294 349 430
#     4  10  23  43  70 102 138 190 237 294 355 431
#     4  12  24  42  70 102 134 178 242 296 348 424
#     4  10  25  44  71 104 146 189 237 300 361 430
#     4  11  24  44  70 103 141 188 236 297 363 425
#
# _framework density 24.49166
#
# number of rings (size 3 to 8) (size 9 to 14) (size 15 to 20)
#    0.000    1.455    2.727    0.545    2.545   12.727 
#    0.000    3.636    0.000    0.000    0.000    0.000 
#    0.000    0.000    0.000    0.000    0.000    0.000 
#
# Total GULP energy -545075.203882 kJ/mol
# GULP energy per Si atom -12388.072815 kJ/mol
# Density = 2.443592 g / cm^3
# Si number density = 24.491660 Si / 1000 Ang^3
#
#
#
# Elastic Constant Matrix: (Units=GPa)
#
#
# Indices 1 2 3 4 5 6 
#
# 1 90.0807 36.0750 44.2268 0.0000 0.0000 0.0000
# 2 36.0750 116.4955 28.8400 0.0000 0.0000 0.0000
# 3 44.2268 28.8400 124.6966 0.0000 0.0000 0.0000
# 4 0.0000 0.0000 0.0000 26.0473 0.0000 0.0000
# 5 0.0000 0.0000 0.0000 0.0000 17.6294 0.0000
# 6 0.0000 0.0000 0.0000 0.0000 0.0000 12.2941
#
#
#
# Elastic Compliance Matrix: (Units=1/GPa)
#
#
# Indices 1 2 3 4 5 6 
#
# 1 0.014639 -0.003445 -0.004395 0.000000 0.000000 0.000000
# 2 -0.003445 0.009916 -0.001072 0.000000 0.000000 0.000000
# 3 -0.004395 -0.001072 0.009826 0.000000 0.000000 0.000000
# 4 0.000000 0.000000 0.000000 0.038392 0.000000 0.000000
# 5 0.000000 0.000000 0.000000 0.000000 0.056724 0.000000
# 6 0.000000 0.000000 0.000000 0.000000 0.000000 0.081340
#
#
# Mechanical properties :
#
#
# Convention : Reuss Voigt Hill
#
# Bulk Modulus (GPa) = 60.39601 61.06184 60.72893
# Shear Modulus (GPa) = 21.35119 26.00288 23.67704
#
# Velocity S-wave (km/s) = 2.95579 3.26191 3.11262
# Velocity P-wave (km/s) = 6.03011 6.25880 6.14552
#
# Compressibility (1/GPa) = 0.01655738
#
# Stress axis : x y z
#
# Youngs Moduli (GPa) = 68.31196 100.84582 101.76915
#
# Poissons Ratio (x) = 0.34742 0.44730
# Poissons Ratio (y) = 0.23534 0.10905
# Poissons Ratio (z) = 0.30025 0.10806
#
# Static dielectric constant tensor:
#      x y z
#    x 4.466130 0.000000 0.000000 
#    y 0.000000 4.234090 0.000000 
#    z 0.000000 0.000000 4.754720 
# 
# 
# High freq. dielectric constant tensor:
#      x y z
#    x 1.965880 0.000000 0.000000 
#    y 0.000000 1.958700 0.000000 
#    z 0.000000 0.000000 1.994640 
# 
# From -- ./inp_files/19611.got.cif
#   From: 2010.03.12/outbox.cif.g09.slc.cpg/sg70_10_cif.got.tgz:19611.got - 2010.04.16 13:46:32.
