data_PCOD8286881
_publ_section_title
;
Structure prediction by ZEFSAII (Michael W. Deem and Ramdas Pophale) SiO2 
 PCOD8286881
Probable space group: I M M M
;
_chemical_formula_sum "Si O2"
_cell_formula_units_Z 112
_cell_length_a 18.498634
_cell_length_b 19.796924
_cell_length_c 20.409475
_cell_angle_alpha 90.000000
_cell_angle_beta 90.000000
_cell_angle_gamma 90.000000
_cell_volume 7474.277346
_symmetry_space_group_name_H-M "I M M M"
_symmetry_group_IT_number 71
_symmetry_cell_setting 'orthorhombic'
loop_
_space_group_symop_operation_xyz
x,y,z
-x,-y,z
x,-y,-z
-x,y,-z
-x,-y,-z
x,y,-z
-x,y,z
x,-y,z
1/2+x,1/2+y,1/2+z
1/2-x,1/2-y,1/2+z
1/2+x,1/2-y,1/2-z
1/2-x,1/2+y,1/2-z
1/2-x,1/2-y,1/2-z
1/2+x,1/2+y,1/2-z
1/2-x,1/2+y,1/2+z
1/2+x,1/2-y,1/2+z
loop_
_atom_site_type_symbol
_atom_site_label
_atom_site_fract_x
_atom_site_fract_y
_atom_site_fract_z
Si Si1 0.081458 0.710090 0.178771
Si Si2 0.645605 0.798100 0.074644
Si Si3 0.645030 0.924804 0.282716
Si Si4 0.717497 0.275402 0.649754
Si Si5 0.918567 0.210282 0.312512
Si Si6 0.083404 0.423735 0.360805
Si Si7 0.717007 0.649487 0.225759
O O1 0.100105 0.630275 0.175919
O O2 0.135391 0.752467 0.130885
O O3 0.092658 0.736318 0.253313
O O4 0.000000 0.721488 0.153895
O O5 0.731929 0.790714 0.087535
O O6 0.599381 0.748349 0.120222
O O7 0.620290 0.874850 0.086356
O O8 0.630381 0.778031 0.000000
O O9 0.624892 0.916339 0.207236
O O10 0.731941 0.914115 0.291091
O O11 0.625824 0.000000 0.308308
O O12 0.715666 0.341859 0.695515
O O13 0.749475 0.214969 0.692218
O O14 0.865580 0.145355 0.301583
O O15 0.000000 0.182476 0.314932
O O16 0.089362 0.500000 0.387911
O O17 0.000000 0.403070 0.349628
#
# Coordination Sequence:
#
# PCOD8286881 Si02
#       7
#    16  16  16  16  16  16  16
#     4   9  15  25  43  61  79 102 127 163 208 250
#     4  11  19  27  39  54  79 113 145 174 195 221
#     4  10  16  23  38  59  83 109 136 163 191 231
#     4   8  14  26  39  55  74  99 137 169 200 241
#     4   9  16  26  40  59  78 100 133 169 207 245
#     4  10  19  28  36  50  79 117 149 172 191 215
#     4   8  13  25  41  53  73 103 132 166 203 240
#
# _framework density 14.984726
#
# number of rings (size 3 to 8) (size 9 to 14) (size 15 to 20)
#    0.000    2.714    2.857    2.571    0.000    2.286 
#    0.000    0.714    0.000    0.857    0.000    0.000 
#    0.000   46.857    0.000   24.429    0.000    0.000 
#
# Total GULP energy -693854.234978 kJ/mol
# GULP energy per Si atom -12390.254196 kJ/mol
# Density = 1.495062 g / cm^3
# Si number density = 14.984726 Si / 1000 Ang^3
#
#
#
# Elastic Constant Matrix: (Units=GPa)
#
#
# Indices 1 2 3 4 5 6 
#
# 1 138.0435 31.3211 22.2322 0.0000 0.0000 0.0000
# 2 31.3211 35.4740 10.9978 0.0000 0.0000 0.0000
# 3 22.2322 10.9978 32.0598 0.0000 0.0000 0.0000
# 4 0.0000 0.0000 0.0000 9.3929 0.0000 0.0000
# 5 0.0000 0.0000 0.0000 0.0000 11.3014 0.0000
# 6 0.0000 0.0000 0.0000 0.0000 0.0000 20.1426
#
#
#
# Elastic Compliance Matrix: (Units=1/GPa)
#
#
# Indices 1 2 3 4 5 6 
#
# 1 0.009531 -0.007124 -0.004166 0.000000 0.000000 0.000000
# 2 -0.007124 0.036869 -0.007707 0.000000 0.000000 0.000000
# 3 -0.004166 -0.007707 0.036725 0.000000 0.000000 0.000000
# 4 0.000000 0.000000 0.000000 0.106464 0.000000 0.000000
# 5 0.000000 0.000000 0.000000 0.000000 0.088485 0.000000
# 6 0.000000 0.000000 0.000000 0.000000 0.000000 0.049646
#
#
# Mechanical properties :
#
#
# Convention : Reuss Voigt Hill
#
# Bulk Modulus (GPa) = 22.15791 37.18664 29.67227
# Shear Modulus (GPa) = 13.13172 17.56912 15.35042
#
# Velocity S-wave (km/s) = 2.96352 3.42785 3.20410
# Velocity P-wave (km/s) = 5.15063 6.36687 5.79077
#
# Compressibility (1/GPa) = 0.04513060
#
# Stress axis : x y z
#
# Youngs Moduli (GPa) = 104.91623 27.12292 27.22978
#
# Poissons Ratio (x) = 0.19323 0.11343
# Poissons Ratio (y) = 0.74743 0.20987
# Poissons Ratio (z) = 0.43706 0.20905
#
# Static dielectric constant tensor:
#      x y z
#    x 3.420950 0.000000 0.000000 
#    y 0.000000 2.743570 0.000000 
#    z 0.000000 0.000000 2.447970 
# 
# 
# High freq. dielectric constant tensor:
#      x y z
#    x 1.589840 0.000000 0.000000 
#    y 0.000000 1.541410 0.000000 
#    z 0.000000 0.000000 1.519790 
# 
# From -- ./inp_files/47543.got.cif
#   From: 2010.06.25/outbox.cif.g09.slc.cpg/sg71_24_cif.got.tgz:47543.got - 2010.06.28 04:59:45.
