data_PCOD8286300
_publ_section_title
;
Structure prediction by ZEFSAII (Michael W. Deem and Ramdas Pophale) SiO2 
 PCOD8286300
Probable space group: F D D D
;
_chemical_formula_sum "Si O2"
_cell_formula_units_Z 240
_cell_length_a 22.959439
_cell_length_b 26.716150
_cell_length_c 20.097626
_cell_angle_alpha 90.000000
_cell_angle_beta 90.000000
_cell_angle_gamma 90.000000
_cell_volume 12327.638924
_symmetry_space_group_name_H-M "F D D D"
_symmetry_group_IT_number 70
_space_group.IT_coordinate_system_code '2'
_symmetry_cell_setting 'orthorhombic'
loop_
_space_group_symop_operation_xyz
x,y,z
1/4-x,1/4-y,z
x,1/4-y,1/4-z
1/4-x,y,1/4-z
-x,-y,-z
3/4+x,3/4+y,-z
-x,3/4+y,3/4+z
3/4+x,-y,3/4+z
x,1/2+y,1/2+z
1/4-x,3/4-y,1/2+z
x,3/4-y,3/4-z
1/4-x,1/2+y,3/4-z
-x,1/2-y,1/2-z
3/4+x,1/4+y,1/2-z
-x,1/4+y,1/4+z
3/4+x,1/2-y,1/4+z
1/2+x,y,1/2+z
3/4-x,1/4-y,1/2+z
1/2+x,1/4-y,3/4-z
3/4-x,y,3/4-z
1/2-x,-y,1/2-z
1/4+x,3/4+y,1/2-z
1/2-x,3/4+y,1/4+z
1/4+x,-y,1/4+z
1/2+x,1/2+y,z
3/4-x,3/4-y,z
1/2+x,3/4-y,1/4-z
3/4-x,1/2+y,1/4-z
1/2-x,1/2-y,-z
1/4+x,1/4+y,-z
1/2-x,1/4+y,3/4+z
1/4+x,1/2-y,3/4+z
loop_
_atom_site_type_symbol
_atom_site_label
_atom_site_fract_x
_atom_site_fract_y
_atom_site_fract_z
Si Si1 0.788099 0.094987 0.208930
Si Si2 0.180530 0.157427 0.709250
Si Si3 0.855578 0.568220 0.482895
Si Si4 0.722534 0.944132 0.154716
Si Si5 0.326314 0.241608 0.639434
Si Si6 0.210906 0.835874 0.603785
Si Si7 0.125000 0.238390 0.625000
Si Si8 0.086374 0.673110 0.888985
O O1 0.738606 0.131964 0.179030
O O2 0.842252 0.127666 0.234903
O O3 0.754782 0.067810 0.270611
O O4 0.814367 0.057188 0.155183
O O5 0.125000 0.125000 0.690400
O O6 0.170164 0.209445 0.672214
O O7 0.188413 0.164271 0.787498
O O8 0.842347 0.524378 0.535652
O O9 0.923481 0.568679 0.460477
O O10 0.814437 0.558234 0.419238
O O11 0.704144 0.895398 0.113407
O O12 0.770212 0.972954 0.111232
O O13 0.665988 0.977464 0.170379
O O14 0.379492 0.274772 0.612010
O O15 0.278993 0.822533 0.592446
O O16 0.125000 0.625000 0.866723
#
# Coordination Sequence:
#
# PCOD8286300 Si02
#       8
#    32  32  32  32  32  32  16  32
#     4  11  21  40  56  85 130 165 196 247 306 371
#     4  11  21  36  52  81 127 169 195 236 296 357
#     4  10  22  39  59  88 116 161 201 254 312 360
#     4  11  20  36  57  86 119 164 205 238 295 374
#     4  12  23  35  62  93 122 153 211 261 302 357
#     4  10  21  43  64  77 120 163 202 254 313 373
#     4  12  23  30  54  92 118 160 208 236 287 368
#     4  11  21  41  60  86 116 159 208 252 302 363
#
# _framework density 19.468449
#
# number of rings (size 3 to 8) (size 9 to 14) (size 15 to 20)
#    0.000    1.067    4.000    5.800    0.000    1.600 
#    0.000    0.000    0.000    0.000    0.000    1.867 
#    0.000    0.000    0.000    0.000    0.000    0.000 
#
# Total GULP energy -743845.209181 kJ/mol
# GULP energy per Si atom -12397.420153 kJ/mol
# Density = 1.942414 g / cm^3
# Si number density = 19.468449 Si / 1000 Ang^3
#
#
#
# Elastic Constant Matrix: (Units=GPa)
#
#
# Indices 1 2 3 4 5 6 
#
# 1 146.0458 52.2488 43.5189 0.0000 0.0000 0.0000
# 2 52.2488 84.9398 39.1193 0.0000 0.0000 0.0000
# 3 43.5189 39.1193 90.2684 0.0000 0.0000 0.0000
# 4 0.0000 0.0000 0.0000 1.8386 0.0000 0.0000
# 5 0.0000 0.0000 0.0000 0.0000 90.2016 0.0000
# 6 0.0000 0.0000 0.0000 0.0000 0.0000 47.3318
#
#
#
# Elastic Compliance Matrix: (Units=1/GPa)
#
#
# Indices 1 2 3 4 5 6 
#
# 1 0.009202 -0.004519 -0.002478 0.000000 0.000000 0.000000
# 2 -0.004519 0.016928 -0.005157 0.000000 0.000000 0.000000
# 3 -0.002478 -0.005157 0.014508 0.000000 0.000000 0.000000
# 4 0.000000 0.000000 0.000000 0.543889 0.000000 0.000000
# 5 0.000000 0.000000 0.000000 0.000000 0.011086 0.000000
# 6 0.000000 0.000000 0.000000 0.000000 0.000000 0.021127
#
#
# Mechanical properties :
#
#
# Convention : Reuss Voigt Hill
#
# Bulk Modulus (GPa) = 61.24071 65.66979 63.45525
# Shear Modulus (GPa) = 7.73403 40.29887 24.01645
#
# Velocity S-wave (km/s) = 1.99530 4.55461 3.51609
# Velocity P-wave (km/s) = 6.06902 7.83990 7.01060
#
# Compressibility (1/GPa) = 0.01632901
#
# Stress axis : x y z
#
# Youngs Moduli (GPa) = 108.66731 59.07276 68.92876
#
# Poissons Ratio (x) = 0.26697 0.17080
# Poissons Ratio (y) = 0.49111 0.35549
# Poissons Ratio (z) = 0.26927 0.30466
#
# Static dielectric constant tensor:
#      x y z
#    x 3.697240 0.000000 0.000000 
#    y 0.000000 2.217870 0.000000 
#    z 0.000000 0.000000 3.457920 
# 
# 
# High freq. dielectric constant tensor:
#      x y z
#    x 1.764550 0.000000 0.000000 
#    y 0.000000 1.753010 0.000000 
#    z 0.000000 0.000000 1.740310 
# 
# From -- ./inp_files/46164.got.cif
#   From: 2010.03.12/outbox.cif.g09.slc.cpg/sg70_24_cif.got.tgz:46164.got - 2010.04.16 13:46:32.
