data_PCOD8286121
_publ_section_title
;
Structure prediction by ZEFSAII (Michael W. Deem and Ramdas Pophale) SiO2 
 PCOD8286121
Probable space group: F D D D
;
_chemical_formula_sum "Si O2"
_cell_formula_units_Z 208
_cell_length_a 21.558056
_cell_length_b 18.563480
_cell_length_c 26.308455
_cell_angle_alpha 90.000000
_cell_angle_beta 90.000000
_cell_angle_gamma 90.000000
_cell_volume 10528.447467
_symmetry_space_group_name_H-M "F D D D"
_symmetry_group_IT_number 70
_space_group.IT_coordinate_system_code '2'
_symmetry_cell_setting 'orthorhombic'
loop_
_space_group_symop_operation_xyz
x,y,z
1/4-x,1/4-y,z
x,1/4-y,1/4-z
1/4-x,y,1/4-z
-x,-y,-z
3/4+x,3/4+y,-z
-x,3/4+y,3/4+z
3/4+x,-y,3/4+z
x,1/2+y,1/2+z
1/4-x,3/4-y,1/2+z
x,3/4-y,3/4-z
1/4-x,1/2+y,3/4-z
-x,1/2-y,1/2-z
3/4+x,1/4+y,1/2-z
-x,1/4+y,1/4+z
3/4+x,1/2-y,1/4+z
1/2+x,y,1/2+z
3/4-x,1/4-y,1/2+z
1/2+x,1/4-y,3/4-z
3/4-x,y,3/4-z
1/2-x,-y,1/2-z
1/4+x,3/4+y,1/2-z
1/2-x,3/4+y,1/4+z
1/4+x,-y,1/4+z
1/2+x,1/2+y,z
3/4-x,3/4-y,z
1/2+x,3/4-y,1/4-z
3/4-x,1/2+y,1/4-z
1/2-x,1/2-y,-z
1/4+x,1/4+y,-z
1/2-x,1/4+y,3/4+z
1/4+x,1/2-y,3/4+z
loop_
_atom_site_type_symbol
_atom_site_label
_atom_site_fract_x
_atom_site_fract_y
_atom_site_fract_z
Si Si1 0.000747 0.152296 0.375100
Si Si2 0.375000 0.375000 0.685029
Si Si3 0.300479 0.734753 0.835626
Si Si4 0.304449 0.450966 0.892242
Si Si5 0.515894 0.387668 0.513099
Si Si6 0.813366 0.971435 0.307829
Si Si7 0.308287 0.758713 0.243129
O O1 0.065052 0.136620 0.348263
O O2 0.945981 0.099684 0.353596
O O3 0.981345 0.234259 0.364377
O O4 0.014287 0.139480 0.434575
O O5 0.365292 0.302267 0.718317
O O6 0.363563 0.773535 0.818634
O O7 0.277589 0.774761 0.887687
O O8 0.254188 0.736378 0.789198
O O9 0.274791 0.375000 0.875000
O O10 0.375000 0.455424 0.875000
O O11 0.297049 0.455743 0.952485
O O12 0.460933 0.398994 0.470727
O O13 0.550936 0.462522 0.519747
O O14 0.567900 0.327958 0.496613
#
# Coordination Sequence:
#
# PCOD8286121 Si02
#       7
#    32  16  32  32  32  32  32
#     4   9  20  35  60  80 114 156 193 232 298 347
#     4  10  20  40  55  82 116 157 188 246 298 356
#     4   9  19  34  56  85 114 147 196 233 285 364
#     4  10  21  38  59  85 113 149 198 253 294 350
#     4   9  19  34  56  83 112 150 188 236 288 350
#     4   9  18  35  57  85 114 150 188 230 291 359
#     4  10  21  37  55  82 115 148 196 247 296 344
#
# _framework density 19.756
#
# number of rings (size 3 to 8) (size 9 to 14) (size 15 to 20)
#    0.000    2.615    0.000    0.923    6.462    3.692 
#    2.769    3.846    0.000    0.000    0.000    0.000 
#    0.000    0.000    0.000    0.000    0.000    0.000 
#
# Total GULP energy -644186.970401 kJ/mol
# GULP energy per Si atom -12388.210969 kJ/mol
# Density = 1.971103 g / cm^3
# Si number density = 19.756000 Si / 1000 Ang^3
#
#
#
# Elastic Constant Matrix: (Units=GPa)
#
#
# Indices 1 2 3 4 5 6 
#
# 1 55.1344 20.3966 28.9150 0.0000 0.0000 0.0000
# 2 20.3966 111.1974 37.4036 0.0000 0.0000 0.0000
# 3 28.9150 37.4036 105.0663 0.0000 0.0000 0.0000
# 4 0.0000 0.0000 0.0000 32.3092 0.0000 0.0000
# 5 0.0000 0.0000 0.0000 0.0000 25.7216 0.0000
# 6 0.0000 0.0000 0.0000 0.0000 0.0000 31.5594
#
#
#
# Elastic Compliance Matrix: (Units=1/GPa)
#
#
# Indices 1 2 3 4 5 6 
#
# 1 0.021676 -0.002237 -0.005169 0.000000 0.000000 0.000000
# 2 -0.002237 0.010447 -0.003104 0.000000 0.000000 0.000000
# 3 -0.005169 -0.003104 0.012045 0.000000 0.000000 0.000000
# 4 0.000000 0.000000 0.000000 0.030951 0.000000 0.000000
# 5 0.000000 0.000000 0.000000 0.000000 0.038878 0.000000
# 6 0.000000 0.000000 0.000000 0.000000 0.000000 0.031686
#
#
# Mechanical properties :
#
#
# Convention : Reuss Voigt Hill
#
# Bulk Modulus (GPa) = 43.19834 49.42537 46.31185
# Shear Modulus (GPa) = 28.66653 30.23022 29.44837
#
# Velocity S-wave (km/s) = 3.81337 3.91599 3.86502
# Velocity P-wave (km/s) = 6.42670 6.74677 6.58868
#
# Compressibility (1/GPa) = 0.02314904
#
# Stress axis : x y z
#
# Youngs Moduli (GPa) = 46.13397 95.71818 83.02076
#
# Poissons Ratio (x) = 0.21415 0.42913
# Poissons Ratio (y) = 0.10322 0.25766
# Poissons Ratio (z) = 0.23846 0.29706
#
# Static dielectric constant tensor:
#      x y z
#    x 3.299260 0.000000 0.000000 
#    y 0.000000 4.209190 0.000000 
#    z 0.000000 0.000000 3.939830 
# 
# 
# High freq. dielectric constant tensor:
#      x y z
#    x 1.733510 0.000000 0.000000 
#    y 0.000000 1.784920 0.000000 
#    z 0.000000 0.000000 1.784830 
# 
# From -- ./inp_files/61265.got.cif
#   From: 2010.03.12/outbox.cif.g09.slc.cpg/sg70_31_cif.got.tgz:61265.got - 2010.04.16 13:46:32.
