data_PCOD8286893
_publ_section_title
;
Structure prediction by ZEFSAII (Michael W. Deem and Ramdas Pophale) SiO2 
 PCOD8286893
Probable space group: I M M M
;
_chemical_formula_sum "Si O2"
_cell_formula_units_Z 60
_cell_length_a 12.546656
_cell_length_b 20.907268
_cell_length_c 14.218593
_cell_angle_alpha 90.000000
_cell_angle_beta 90.000000
_cell_angle_gamma 90.000000
_cell_volume 3729.768700
_symmetry_space_group_name_H-M "I M M M"
_symmetry_group_IT_number 71
_symmetry_cell_setting 'orthorhombic'
loop_
_space_group_symop_operation_xyz
x,y,z
-x,-y,z
x,-y,-z
-x,y,-z
-x,-y,-z
x,y,-z
-x,y,z
x,-y,z
1/2+x,1/2+y,1/2+z
1/2-x,1/2-y,1/2+z
1/2+x,1/2-y,1/2-z
1/2-x,1/2+y,1/2-z
1/2-x,1/2-y,1/2-z
1/2+x,1/2+y,1/2-z
1/2-x,1/2+y,1/2+z
1/2+x,1/2-y,1/2+z
loop_
_atom_site_type_symbol
_atom_site_label
_atom_site_fract_x
_atom_site_fract_y
_atom_site_fract_z
Si Si1 0.380319 0.792673 0.000000
Si Si2 0.500000 0.073647 0.296652
Si Si3 0.500000 0.875267 0.500000
Si Si4 0.614999 0.293668 0.301965
Si Si5 0.338088 0.836631 0.799631
Si Si6 0.338606 0.763985 0.500000
O O1 0.363642 0.838932 0.089601
O O2 0.291810 0.735218 0.000000
O O3 0.500000 0.763177 0.000000
O O4 0.500000 0.080200 0.408823
O O5 0.394492 0.105519 0.253381
O O6 0.500000 0.000000 0.268168
O O7 0.390698 0.834103 0.500000
O O8 0.500000 0.326852 0.283505
O O9 0.620652 0.231274 0.237116
O O10 0.711067 0.342448 0.278918
O O11 0.620182 0.273495 0.410010
#
# Coordination Sequence:
#
# PCOD8286893 Si02
#       6
#     8   8   4  16  16   8
#     4  10  18  28  45  73 108 134 154 201 255 311
#     4  12  23  37  52  69 101 140 175 207 237 292
#     4  12  19  36  50  76 100 126 171 206 246 304
#     4  10  16  28  49  73 103 129 153 211 264 298
#     4  10  19  30  46  72 100 131 171 201 246 302
#     4  10  16  25  50  74 105 130 155 202 261 310
#
# _framework density 16.086787999999999
#
# number of rings (size 3 to 8) (size 9 to 14) (size 15 to 20)
#    0.000    1.600    6.667    0.200    0.000    0.000 
#    0.000    1.333    0.000    0.800    0.000    0.000 
#    0.000    9.600    0.000    0.000    0.000    0.000 
#
# Total GULP energy -371819.038959 kJ/mol
# GULP energy per Si atom -12393.967965 kJ/mol
# Density = 1.605017 g / cm^3
# Si number density = 16.086788 Si / 1000 Ang^3
#
#
#
# Elastic Constant Matrix: (Units=GPa)
#
#
# Indices 1 2 3 4 5 6 
#
# 1 183.7936 43.1959 28.7325 0.0000 0.0000 0.0000
# 2 43.1959 67.5539 29.6973 -0.0001 0.0000 0.0000
# 3 28.7325 29.6973 108.8995 -0.0001 0.0000 0.0000
# 4 0.0000 -0.0001 -0.0001 15.7478 0.0000 0.0000
# 5 0.0000 0.0000 0.0000 0.0000 22.4620 0.0000
# 6 0.0000 0.0000 0.0000 0.0000 0.0000 11.4615
#
#
#
# Elastic Compliance Matrix: (Units=1/GPa)
#
#
# Indices 1 2 3 4 5 6 
#
# 1 0.006444 -0.003833 -0.000655 0.000000 0.000000 0.000000
# 2 -0.003833 0.019099 -0.004197 0.000000 0.000000 0.000000
# 3 -0.000655 -0.004197 0.010500 0.000000 0.000000 0.000000
# 4 0.000000 0.000000 0.000000 0.063501 0.000000 0.000000
# 5 0.000000 0.000000 0.000000 0.000000 0.044520 0.000000
# 6 0.000000 0.000000 0.000000 0.000000 0.000000 0.087248
#
#
# Mechanical properties :
#
#
# Convention : Reuss Voigt Hill
#
# Bulk Modulus (GPa) = 53.55175 62.61093 58.08134
# Shear Modulus (GPa) = 19.61511 27.17570 23.39540
#
# Velocity S-wave (km/s) = 3.49568 4.11459 3.81770
# Velocity P-wave (km/s) = 7.04660 7.84719 7.45764
#
# Compressibility (1/GPa) = 0.01867352
#
# Stress axis : x y z
#
# Youngs Moduli (GPa) = 155.18248 52.35961 95.23650
#
# Poissons Ratio (x) = 0.20067 0.06239
# Poissons Ratio (y) = 0.59474 0.39972
# Poissons Ratio (z) = 0.10166 0.21976
#
# Static dielectric constant tensor:
#      x y z
#    x 3.633380 0.000000 0.000000 
#    y 0.000000 2.425880 0.000000 
#    z 0.000000 0.000000 3.352870 
# 
# 
# High freq. dielectric constant tensor:
#      x y z
#    x 1.642480 0.000000 0.000000 
#    y 0.000000 1.534200 0.000000 
#    z 0.000000 0.000000 1.645250 
# 
# From -- ./inp_files/32437.got.cif
#   From: 2010.06.25/outbox.cif.g09.slc.cpg/sg71_17_cif.got.tgz:32437.got - 2010.06.28 04:59:45.
