data_PCOD8286312
_publ_section_title
;
Structure prediction by ZEFSAII (Michael W. Deem and Ramdas Pophale) SiO2 
 PCOD8286312
Probable space group: F D D D
;
_chemical_formula_sum "Si O2"
_cell_formula_units_Z 168
_cell_length_a 26.732852
_cell_length_b 14.827703
_cell_length_c 19.541317
_cell_angle_alpha 90.000000
_cell_angle_beta 90.000000
_cell_angle_gamma 90.000000
_cell_volume 7745.919914
_symmetry_space_group_name_H-M "F D D D"
_symmetry_group_IT_number 70
_space_group.IT_coordinate_system_code '2'
_symmetry_cell_setting 'orthorhombic'
loop_
_space_group_symop_operation_xyz
x,y,z
1/4-x,1/4-y,z
x,1/4-y,1/4-z
1/4-x,y,1/4-z
-x,-y,-z
3/4+x,3/4+y,-z
-x,3/4+y,3/4+z
3/4+x,-y,3/4+z
x,1/2+y,1/2+z
1/4-x,3/4-y,1/2+z
x,3/4-y,3/4-z
1/4-x,1/2+y,3/4-z
-x,1/2-y,1/2-z
3/4+x,1/4+y,1/2-z
-x,1/4+y,1/4+z
3/4+x,1/2-y,1/4+z
1/2+x,y,1/2+z
3/4-x,1/4-y,1/2+z
1/2+x,1/4-y,3/4-z
3/4-x,y,3/4-z
1/2-x,-y,1/2-z
1/4+x,3/4+y,1/2-z
1/2-x,3/4+y,1/4+z
1/4+x,-y,1/4+z
1/2+x,1/2+y,z
3/4-x,3/4-y,z
1/2+x,3/4-y,1/4-z
3/4-x,1/2+y,1/4-z
1/2-x,1/2-y,-z
1/4+x,1/4+y,-z
1/2-x,1/4+y,3/4+z
1/4+x,1/2-y,3/4+z
loop_
_atom_site_type_symbol
_atom_site_label
_atom_site_fract_x
_atom_site_fract_y
_atom_site_fract_z
Si Si1 0.079564 0.990758 0.228874
Si Si2 0.559170 0.979089 0.878281
Si Si3 0.339897 0.605188 0.438164
Si Si4 0.081843 0.964245 0.830198
Si Si5 0.750066 0.355154 0.651377
Si Si6 0.875000 0.375000 0.375000
O O1 0.071352 0.026134 0.305174
O O2 0.129446 0.931318 0.228296
O O3 0.029987 0.930909 0.216753
O O4 0.086952 0.068691 0.172603
O O5 0.540835 0.875000 0.875000
O O6 0.609753 0.987155 0.920689
O O7 0.516786 0.040936 0.913634
O O8 0.375000 0.566158 0.375000
O O9 0.321271 0.538275 0.498014
O O10 0.289487 0.650499 0.410465
O O11 0.070490 0.875000 0.875000
O O12 0.048267 0.042969 0.862999
#
# Coordination Sequence:
#
# PCOD8286312 Si02
#       6
#    32  32  32  32  32   8
#     4  11  23  43  64 101 135 182 223 276 351 414
#     4  11  24  45  68  93 137 182 229 284 344 403
#     4  10  21  45  64  92 143 175 221 289 338 414
#     4  11  23  40  66  99 138 181 225 286 351 415
#     4  11  24  40  69 100 132 175 240 282 338 418
#     4  12  24  40  72  96 150 180 214 280 372 408
#
# _framework density 21.688838000000001
#
# number of rings (size 3 to 8) (size 9 to 14) (size 15 to 20)
#    0.000    1.143    6.667    1.714    4.000    1.524 
#    0.000    0.000    0.000    1.143    0.000    0.000 
#    0.000    0.000    0.000    0.000    0.000    0.000 
#
# Total GULP energy -520450.238356 kJ/mol
# GULP energy per Si atom -12391.672342 kJ/mol
# Density = 2.163947 g / cm^3
# Si number density = 21.688838 Si / 1000 Ang^3
#
#
#
# Elastic Constant Matrix: (Units=GPa)
#
#
# Indices 1 2 3 4 5 6 
#
# 1 96.3545 61.2306 4.0798 0.0000 0.0000 0.0000
# 2 61.2306 107.1616 22.5607 0.0000 0.0000 0.0000
# 3 4.0798 22.5607 117.5673 0.0000 0.0000 0.0000
# 4 0.0000 0.0000 0.0000 22.6076 0.0000 0.0000
# 5 0.0000 0.0000 0.0000 0.0000 4.8825 0.0000
# 6 0.0000 0.0000 0.0000 0.0000 0.0000 38.8801
#
#
#
# Elastic Compliance Matrix: (Units=1/GPa)
#
#
# Indices 1 2 3 4 5 6 
#
# 1 0.016480 -0.009687 0.001287 0.000000 0.000000 0.000000
# 2 -0.009687 0.015419 -0.002623 0.000000 0.000000 0.000000
# 3 0.001287 -0.002623 0.008964 0.000000 0.000000 0.000000
# 4 0.000000 0.000000 0.000000 0.044233 0.000000 0.000000
# 5 0.000000 0.000000 0.000000 0.000000 0.204813 0.000000
# 6 0.000000 0.000000 0.000000 0.000000 0.000000 0.025720
#
#
# Mechanical properties :
#
#
# Convention : Reuss Voigt Hill
#
# Bulk Modulus (GPa) = 53.14220 55.20284 54.17252
# Shear Modulus (GPa) = 14.53708 28.82152 21.67930
#
# Velocity S-wave (km/s) = 2.59174 3.64931 3.16501
# Velocity P-wave (km/s) = 5.78891 6.57754 6.19579
#
# Compressibility (1/GPa) = 0.01881744
#
# Stress axis : x y z
#
# Youngs Moduli (GPa) = 60.68006 64.85480 111.55249
#
# Poissons Ratio (x) = 0.62827 -0.14358
# Poissons Ratio (y) = 0.58783 0.29257
# Poissons Ratio (z) = -0.07810 0.17009
#
# Static dielectric constant tensor:
#      x y z
#    x 4.011490 0.000000 0.000000 
#    y 0.000000 3.899090 0.000000 
#    z 0.000000 0.000000 4.021870 
# 
# 
# High freq. dielectric constant tensor:
#      x y z
#    x 1.859870 0.000000 0.000000 
#    y 0.000000 1.826970 0.000000 
#    z 0.000000 0.000000 1.856990 
# 
# From -- ./inp_files/46783.got.cif
#   From: 2010.03.12/outbox.cif.g09.slc.cpg/sg70_24_cif.got.tgz:46783.got - 2010.04.16 13:46:32.
