data_PCOD8286171
_publ_section_title
;
Structure prediction by ZEFSAII (Michael W. Deem and Ramdas Pophale) SiO2 
 PCOD8286171
Probable space group: F D D D
;
_chemical_formula_sum "Si O2"
_cell_formula_units_Z 112
_cell_length_a 22.952544
_cell_length_b 19.150170
_cell_length_c 12.913106
_cell_angle_alpha 90.000000
_cell_angle_beta 90.000000
_cell_angle_gamma 90.000000
_cell_volume 5675.892720
_symmetry_space_group_name_H-M "F D D D"
_symmetry_group_IT_number 70
_space_group.IT_coordinate_system_code '2'
_symmetry_cell_setting 'orthorhombic'
loop_
_space_group_symop_operation_xyz
x,y,z
1/4-x,1/4-y,z
x,1/4-y,1/4-z
1/4-x,y,1/4-z
-x,-y,-z
3/4+x,3/4+y,-z
-x,3/4+y,3/4+z
3/4+x,-y,3/4+z
x,1/2+y,1/2+z
1/4-x,3/4-y,1/2+z
x,3/4-y,3/4-z
1/4-x,1/2+y,3/4-z
-x,1/2-y,1/2-z
3/4+x,1/4+y,1/2-z
-x,1/4+y,1/4+z
3/4+x,1/2-y,1/4+z
1/2+x,y,1/2+z
3/4-x,1/4-y,1/2+z
1/2+x,1/4-y,3/4-z
3/4-x,y,3/4-z
1/2-x,-y,1/2-z
1/4+x,3/4+y,1/2-z
1/2-x,3/4+y,1/4+z
1/4+x,-y,1/4+z
1/2+x,1/2+y,z
3/4-x,3/4-y,z
1/2+x,3/4-y,1/4-z
3/4-x,1/2+y,1/4-z
1/2-x,1/2-y,-z
1/4+x,1/4+y,-z
1/2-x,1/4+y,3/4+z
1/4+x,1/2-y,3/4+z
loop_
_atom_site_type_symbol
_atom_site_label
_atom_site_fract_x
_atom_site_fract_y
_atom_site_fract_z
Si Si1 0.875000 0.233567 0.375000
Si Si2 0.846659 0.563724 0.707028
Si Si3 0.919819 0.933550 0.681214
Si Si4 0.298834 0.106460 0.920436
O O1 0.900788 0.282691 0.461912
O O2 0.926249 0.185554 0.326702
O O3 0.836208 0.625000 0.625000
O O4 0.827793 0.490476 0.659025
O O5 0.913888 0.561814 0.745929
O O6 0.805275 0.576236 0.805120
O O7 0.875000 0.875000 0.644708
O O8 0.981709 0.896557 0.701077
#
# Coordination Sequence:
#
# PCOD8286171 Si02
#       4
#    16  32  32  32
#     4  10  23  46  60  96 131 174 208 268 337 372
#     4  10  20  43  67  89 126 176 209 259 333 381
#     4  12  25  39  65 102 125 166 226 265 319 393
#     4  10  23  42  67  89 131 172 214 265 324 384
#
# _framework density 19.732579000000001
#
# number of rings (size 3 to 8) (size 9 to 14) (size 15 to 20)
#    0.000    1.714    5.714    1.286    4.000    3.429 
#    0.000    2.857    0.000    0.000    0.000    0.000 
#    0.000    0.000    0.000    0.000    0.000    0.000 
#
# Total GULP energy -347225.712255 kJ/mol
# GULP energy per Si atom -12400.918295 kJ/mol
# Density = 1.968767 g / cm^3
# Si number density = 19.732579 Si / 1000 Ang^3
#
#
#
# Elastic Constant Matrix: (Units=GPa)
#
#
# Indices 1 2 3 4 5 6 
#
# 1 135.2903 54.4039 24.5904 0.0000 0.0000 0.0000
# 2 54.4039 104.5713 26.4146 0.0000 0.0000 0.0000
# 3 24.5904 26.4146 80.8164 0.0000 0.0000 0.0000
# 4 0.0000 0.0000 0.0000 26.4817 0.0000 0.0000
# 5 0.0000 0.0000 0.0000 0.0000 15.0995 0.0000
# 6 0.0000 0.0000 0.0000 0.0000 0.0000 13.2509
#
#
#
# Elastic Compliance Matrix: (Units=1/GPa)
#
#
# Indices 1 2 3 4 5 6 
#
# 1 0.009488 -0.004585 -0.001388 0.000000 0.000000 0.000000
# 2 -0.004585 0.012640 -0.002736 0.000000 0.000000 0.000000
# 3 -0.001388 -0.002736 0.013690 0.000000 0.000000 0.000000
# 4 0.000000 0.000000 0.000000 0.037762 0.000000 0.000000
# 5 0.000000 0.000000 0.000000 0.000000 0.066227 0.000000
# 6 0.000000 0.000000 0.000000 0.000000 0.000000 0.075467
#
#
# Mechanical properties :
#
#
# Convention : Reuss Voigt Hill
#
# Bulk Modulus (GPa) = 54.35207 59.05510 56.70358
# Shear Modulus (GPa) = 20.93578 25.31769 23.12673
#
# Velocity S-wave (km/s) = 3.26080 3.58584 3.42717
# Velocity P-wave (km/s) = 6.46384 6.86564 6.66777
#
# Compressibility (1/GPa) = 0.01839856
#
# Stress axis : x y z
#
# Youngs Moduli (GPa) = 105.39916 79.11680 73.04412
#
# Poissons Ratio (x) = 0.36278 0.10140
# Poissons Ratio (y) = 0.48330 0.19985
# Poissons Ratio (z) = 0.14631 0.21646
#
# Static dielectric constant tensor:
#      x y z
#    x 3.424540 0.000000 0.000000 
#    y 0.000000 3.626090 0.000000 
#    z 0.000000 0.000000 3.778190 
# 
# 
# High freq. dielectric constant tensor:
#      x y z
#    x 1.763360 0.000000 0.000000 
#    y 0.000000 1.767190 0.000000 
#    z 0.000000 0.000000 1.782950 
# 
# From -- ./inp_files/17275.got.cif
#   From: 2010.03.12/outbox.cif.g09.slc.cpg/sg70_9_cif.got.tgz:17275.got - 2010.04.16 13:46:32.
