data_PCOD8286958
_publ_section_title
;
Structure prediction by ZEFSAII (Michael W. Deem and Ramdas Pophale) SiO2 
 PCOD8286958
Probable space group: I M M M
;
_chemical_formula_sum "Si O2"
_cell_formula_units_Z 72
_cell_length_a 22.908872
_cell_length_b 23.514712
_cell_length_c 9.195227
_cell_angle_alpha 90.000000
_cell_angle_beta 90.000000
_cell_angle_gamma 90.000000
_cell_volume 4953.427658
_symmetry_space_group_name_H-M "I M M M"
_symmetry_group_IT_number 71
_symmetry_cell_setting 'orthorhombic'
loop_
_space_group_symop_operation_xyz
x,y,z
-x,-y,z
x,-y,-z
-x,y,-z
-x,-y,-z
x,y,-z
-x,y,z
x,-y,z
1/2+x,1/2+y,1/2+z
1/2-x,1/2-y,1/2+z
1/2+x,1/2-y,1/2-z
1/2-x,1/2+y,1/2-z
1/2-x,1/2-y,1/2-z
1/2+x,1/2+y,1/2-z
1/2-x,1/2+y,1/2+z
1/2+x,1/2-y,1/2+z
loop_
_atom_site_type_symbol
_atom_site_label
_atom_site_fract_x
_atom_site_fract_y
_atom_site_fract_z
Si Si1 0.564638 0.258982 0.832191
Si Si2 0.600246 0.852749 0.672722
Si Si3 0.000000 0.563288 0.172161
Si Si4 0.817658 0.196926 0.338395
Si Si5 0.212040 0.670399 0.336746
O O1 0.500000 0.285351 0.810421
O O2 0.571027 0.205067 0.728279
O O3 0.613598 0.306944 0.793786
O O4 0.574293 0.239277 0.000000
O O5 0.607281 0.848890 0.500000
O O6 0.558342 0.904081 0.722911
O O7 0.663765 0.863391 0.743430
O O8 0.000000 0.500000 0.240521
O O9 0.000000 0.560034 0.000000
O O10 0.807093 0.172783 0.500000
O O11 0.802558 0.263374 0.332488
O O12 0.776668 0.160964 0.230568
O O13 0.212506 0.646286 0.500000
#
# Coordination Sequence:
#
# PCOD8286958 Si02
#       5
#    16  16   8  16  16
#     4   9  16  25  37  52  73  96 118 147 181 213
#     4  10  17  26  40  54  66  87 118 150 184 222
#     4   9  18  30  41  55  73  91 117 155 195 229
#     4   8  14  23  34  50  69  91 116 142 172 208
#     4   9  16  25  36  50  68  89 112 145 182 212
#
# _framework density 14.53539
#
# number of rings (size 3 to 8) (size 9 to 14) (size 15 to 20)
#    0.000    3.000    1.111    2.667    0.000    5.333 
#    0.000    0.000    0.000    5.333    0.000    0.000 
#    0.000    0.000    0.000    0.000    0.000    1.111 
#
# Total GULP energy -446108.661452 kJ/mol
# GULP energy per Si atom -12391.907263 kJ/mol
# Density = 1.450231 g / cm^3
# Si number density = 14.535390 Si / 1000 Ang^3
#
#
#
# Elastic Constant Matrix: (Units=GPa)
#
#
# Indices 1 2 3 4 5 6 
#
# 1 160.2841 33.4168 59.7793 0.0000 0.0000 0.0000
# 2 33.4168 26.4306 20.9603 0.0000 0.0000 0.0000
# 3 59.7793 20.9603 83.1420 0.0000 0.0000 0.0000
# 4 0.0000 0.0000 0.0000 6.2177 0.0000 0.0000
# 5 0.0000 0.0000 0.0000 0.0000 23.5797 0.0000
# 6 0.0000 0.0000 0.0000 0.0000 0.0000 11.9642
#
#
#
# Elastic Compliance Matrix: (Units=1/GPa)
#
#
# Indices 1 2 3 4 5 6 
#
# 1 0.009863 -0.008557 -0.004934 0.000000 0.000000 0.000000
# 2 -0.008557 0.054713 -0.007641 0.000000 0.000000 0.000000
# 3 -0.004934 -0.007641 0.017502 0.000000 0.000000 0.000000
# 4 0.000000 0.000000 0.000000 0.160831 0.000000 0.000000
# 5 0.000000 0.000000 0.000000 0.000000 0.042409 0.000000
# 6 0.000000 0.000000 0.000000 0.000000 0.000000 0.083582
#
#
# Mechanical properties :
#
#
# Convention : Reuss Voigt Hill
#
# Bulk Modulus (GPa) = 25.11700 55.35219 40.23460
# Shear Modulus (GPa) = 11.78031 18.73235 15.25633
#
# Velocity S-wave (km/s) = 2.84994 3.59380 3.24327
# Velocity P-wave (km/s) = 5.30537 7.44205 6.46263
#
# Compressibility (1/GPa) = 0.03981367
#
# Stress axis : x y z
#
# Youngs Moduli (GPa) = 101.38566 18.27704 57.13713
#
# Poissons Ratio (x) = 0.15640 0.28194
# Poissons Ratio (y) = 0.86758 0.43657
# Poissons Ratio (z) = 0.50028 0.13965
#
# Static dielectric constant tensor:
#      x y z
#    x 3.316000 0.000000 0.000000 
#    y 0.000000 2.293140 0.000000 
#    z 0.000000 0.000000 2.911100 
# 
# 
# High freq. dielectric constant tensor:
#      x y z
#    x 1.577450 0.000000 0.000000 
#    y 0.000000 1.462890 0.000000 
#    z 0.000000 0.000000 1.560610 
# 
# From -- ./inp_files/10110.got.cif
#   From: 2010.06.25/outbox.cif.g09.slc.cpg/sg71_6_cif.got.tgz:10110.got - 2010.06.28 04:59:45.
