data_PCOD8286221
_publ_section_title
;
Structure prediction by ZEFSAII (Michael W. Deem and Ramdas Pophale) SiO2 
 PCOD8286221
Probable space group: F D D D
;
_chemical_formula_sum "Si O2"
_cell_formula_units_Z 160
_cell_length_a 22.835671
_cell_length_b 15.102666
_cell_length_c 21.441911
_cell_angle_alpha 90.000000
_cell_angle_beta 90.000000
_cell_angle_gamma 90.000000
_cell_volume 7394.875802
_symmetry_space_group_name_H-M "F D D D"
_symmetry_group_IT_number 70
_space_group.IT_coordinate_system_code '2'
_symmetry_cell_setting 'orthorhombic'
loop_
_space_group_symop_operation_xyz
x,y,z
1/4-x,1/4-y,z
x,1/4-y,1/4-z
1/4-x,y,1/4-z
-x,-y,-z
3/4+x,3/4+y,-z
-x,3/4+y,3/4+z
3/4+x,-y,3/4+z
x,1/2+y,1/2+z
1/4-x,3/4-y,1/2+z
x,3/4-y,3/4-z
1/4-x,1/2+y,3/4-z
-x,1/2-y,1/2-z
3/4+x,1/4+y,1/2-z
-x,1/4+y,1/4+z
3/4+x,1/2-y,1/4+z
1/2+x,y,1/2+z
3/4-x,1/4-y,1/2+z
1/2+x,1/4-y,3/4-z
3/4-x,y,3/4-z
1/2-x,-y,1/2-z
1/4+x,3/4+y,1/2-z
1/2-x,3/4+y,1/4+z
1/4+x,-y,1/4+z
1/2+x,1/2+y,z
3/4-x,3/4-y,z
1/2+x,3/4-y,1/4-z
3/4-x,1/2+y,1/4-z
1/2-x,1/2-y,-z
1/4+x,1/4+y,-z
1/2-x,1/4+y,3/4+z
1/4+x,1/2-y,3/4+z
loop_
_atom_site_type_symbol
_atom_site_label
_atom_site_fract_x
_atom_site_fract_y
_atom_site_fract_z
Si Si1 0.972255 0.375000 0.375000
Si Si2 0.716840 0.403123 0.501258
Si Si3 0.895908 0.066103 0.566500
Si Si4 0.625000 0.625000 0.458457
Si Si5 0.440094 0.067663 0.375818
Si Si6 0.750324 0.346633 0.749760
O O1 0.933313 0.287776 0.382871
O O2 0.010749 0.360561 0.312920
O O3 0.647148 0.417171 0.491794
O O4 0.724189 0.338522 0.559953
O O5 0.752718 0.492854 0.517800
O O6 0.877280 0.125000 0.625000
O O7 0.962153 0.092170 0.546227
O O8 0.884875 0.962513 0.584548
O O9 0.568332 0.626395 0.503536
O O10 0.375000 0.108648 0.375000
O O11 0.478231 0.110394 0.320844
#
# Coordination Sequence:
#
# PCOD8286221 Si02
#       6
#    16  32  32  16  32  32
#     4  10  21  38  58  92 126 169 216 266 326 400
#     4  10  21  39  61  92 127 168 207 272 329 388
#     4  11  22  42  66  93 131 169 217 270 328 391
#     4  10  24  44  65  92 130 173 218 278 322 380
#     4  11  21  38  62  89 129 168 215 269 328 387
#     4  10  23  41  64  92 127 169 223 266 324 390
#
# _framework density 21.636603999999998
#
# number of rings (size 3 to 8) (size 9 to 14) (size 15 to 20)
#    0.000    1.600    3.000    1.500    2.800    0.000 
#    0.000    0.500    0.000    0.000    0.000    0.000 
#    0.000    0.000    0.000    0.000    0.000    0.000 
#
# Total GULP energy -495746.038015 kJ/mol
# GULP energy per Si atom -12393.650950 kJ/mol
# Density = 2.158736 g / cm^3
# Si number density = 21.636604 Si / 1000 Ang^3
#
#
#
# Elastic Constant Matrix: (Units=GPa)
#
#
# Indices 1 2 3 4 5 6 
#
# 1 117.5306 27.0839 23.4523 0.0000 0.0000 0.0000
# 2 27.0839 119.9821 39.4103 0.0000 0.0000 0.0000
# 3 23.4523 39.4103 107.1201 0.0000 0.0000 0.0000
# 4 0.0000 0.0000 0.0000 26.9671 0.0000 0.0000
# 5 0.0000 0.0000 0.0000 0.0000 16.2216 0.0000
# 6 0.0000 0.0000 0.0000 0.0000 0.0000 24.7894
#
#
#
# Elastic Compliance Matrix: (Units=1/GPa)
#
#
# Indices 1 2 3 4 5 6 
#
# 1 0.009160 -0.001603 -0.001416 0.000000 0.000000 0.000000
# 2 -0.001603 0.009761 -0.003240 0.000000 0.000000 0.000000
# 3 -0.001416 -0.003240 0.010837 0.000000 0.000000 0.000000
# 4 0.000000 0.000000 0.000000 0.037082 0.000000 0.000000
# 5 0.000000 0.000000 0.000000 0.000000 0.061646 0.000000
# 6 0.000000 0.000000 0.000000 0.000000 0.000000 0.040340
#
#
# Mechanical properties :
#
#
# Convention : Reuss Voigt Hill
#
# Bulk Modulus (GPa) = 58.00162 58.28065 58.14114
# Shear Modulus (GPa) = 26.72497 30.57470 28.64983
#
# Velocity S-wave (km/s) = 3.51832 3.76320 3.64282
# Velocity P-wave (km/s) = 6.58560 6.77325 6.68008
#
# Compressibility (1/GPa) = 0.01724090
#
# Stress axis : x y z
#
# Youngs Moduli (GPa) = 109.16699 102.45230 92.27339
#
# Poissons Ratio (x) = 0.16420 0.13065
# Poissons Ratio (y) = 0.17496 0.29898
# Poissons Ratio (z) = 0.15456 0.33196
#
# Static dielectric constant tensor:
#      x y z
#    x 3.863670 0.000000 0.000000 
#    y 0.000000 3.931290 0.000000 
#    z 0.000000 0.000000 3.543680 
# 
# 
# High freq. dielectric constant tensor:
#      x y z
#    x 1.853310 0.000000 0.000000 
#    y 0.000000 1.849360 0.000000 
#    z 0.000000 0.000000 1.825500 
# 
# From -- ./inp_files/35182.got.cif
#   From: 2010.03.12/outbox.cif.g09.slc.cpg/sg70_18_cif.got.tgz:35182.got - 2010.04.16 13:46:32.
