data_PCOD8286765
_publ_section_title
;
Structure prediction by ZEFSAII (Michael W. Deem and Ramdas Pophale) SiO2 
 PCOD8286765
Probable space group: F D D D
;
_chemical_formula_sum "Si O2"
_cell_formula_units_Z 112
_cell_length_a 12.752082
_cell_length_b 24.585389
_cell_length_c 15.484441
_cell_angle_alpha 90.000000
_cell_angle_beta 90.000000
_cell_angle_gamma 90.000000
_cell_volume 4854.602918
_symmetry_space_group_name_H-M "F D D D"
_symmetry_group_IT_number 70
_space_group.IT_coordinate_system_code '2'
_symmetry_cell_setting 'orthorhombic'
loop_
_space_group_symop_operation_xyz
x,y,z
1/4-x,1/4-y,z
x,1/4-y,1/4-z
1/4-x,y,1/4-z
-x,-y,-z
3/4+x,3/4+y,-z
-x,3/4+y,3/4+z
3/4+x,-y,3/4+z
x,1/2+y,1/2+z
1/4-x,3/4-y,1/2+z
x,3/4-y,3/4-z
1/4-x,1/2+y,3/4-z
-x,1/2-y,1/2-z
3/4+x,1/4+y,1/2-z
-x,1/4+y,1/4+z
3/4+x,1/2-y,1/4+z
1/2+x,y,1/2+z
3/4-x,1/4-y,1/2+z
1/2+x,1/4-y,3/4-z
3/4-x,y,3/4-z
1/2-x,-y,1/2-z
1/4+x,3/4+y,1/2-z
1/2-x,3/4+y,1/4+z
1/4+x,-y,1/4+z
1/2+x,1/2+y,z
3/4-x,3/4-y,z
1/2+x,3/4-y,1/4-z
3/4-x,1/2+y,1/4-z
1/2-x,1/2-y,-z
1/4+x,1/4+y,-z
1/2-x,1/4+y,3/4+z
1/4+x,1/2-y,3/4+z
loop_
_atom_site_type_symbol
_atom_site_label
_atom_site_fract_x
_atom_site_fract_y
_atom_site_fract_z
Si Si1 0.448673 0.685068 0.156948
Si Si2 0.269830 0.455987 0.323803
Si Si3 0.375000 0.875000 0.711614
Si Si4 0.986086 0.048478 0.896486
O O1 0.481477 0.625000 0.125000
O O2 0.324743 0.697284 0.142136
O O3 0.507926 0.735842 0.111250
O O4 0.494118 0.691994 0.252195
O O5 0.375000 0.473034 0.375000
O O6 0.250000 0.500000 0.250000
O O7 0.284806 0.398844 0.273938
O O8 0.420197 0.921360 0.650900
O O9 0.875000 0.074965 0.875000
#
# Coordination Sequence:
#
# PCOD8286765 Si02
#       4
#    32  32  16  32
#     4  11  25  44  70 104 140 189 237 293 361 428
#     4  12  25  45  75 104 143 188 244 299 359 420
#     4  12  25  50  71 108 142 188 242 298 351 432
#     4  11  25  45  71 102 146 185 237 297 357 426
#
# _framework density 23.070889000000001
#
# number of rings (size 3 to 8) (size 9 to 14) (size 15 to 20)
#    0.000    0.571    2.857    5.571    0.000    8.571 
#    0.000    0.000    0.000    0.000    0.000    0.000 
#    0.000    0.000    0.000    0.000    0.000    0.000 
#
# Total GULP energy -346908.050487 kJ/mol
# GULP energy per Si atom -12389.573232 kJ/mol
# Density = 2.301838 g / cm^3
# Si number density = 23.070889 Si / 1000 Ang^3
#
#
#
# Elastic Constant Matrix: (Units=GPa)
#
#
# Indices 1 2 3 4 5 6 
#
# 1 85.1431 18.9844 35.9188 0.0000 0.0000 0.0000
# 2 18.9844 162.5324 50.6281 0.0000 0.0000 0.0000
# 3 35.9188 50.6281 97.3178 0.0000 0.0000 0.0000
# 4 0.0000 0.0000 0.0000 32.4718 0.0000 0.0000
# 5 0.0000 0.0000 0.0000 0.0000 44.8092 0.0000
# 6 0.0000 0.0000 0.0000 0.0000 0.0000 34.4936
#
#
#
# Elastic Compliance Matrix: (Units=1/GPa)
#
#
# Indices 1 2 3 4 5 6 
#
# 1 0.013911 -0.000030 -0.005119 0.000000 0.000000 0.000000
# 2 -0.000030 0.007343 -0.003809 0.000000 0.000000 0.000000
# 3 -0.005119 -0.003809 0.014146 0.000000 0.000000 0.000000
# 4 0.000000 0.000000 0.000000 0.030796 0.000000 0.000000
# 5 0.000000 0.000000 0.000000 0.000000 0.022317 0.000000
# 6 0.000000 0.000000 0.000000 0.000000 0.000000 0.028991
#
#
# Mechanical properties :
#
#
# Convention : Reuss Voigt Hill
#
# Bulk Modulus (GPa) = 57.19341 61.78401 59.48871
# Shear Modulus (GPa) = 35.39901 38.31904 36.85902
#
# Velocity S-wave (km/s) = 3.92134 4.07987 4.00139
# Velocity P-wave (km/s) = 6.73399 7.00228 6.86945
#
# Compressibility (1/GPa) = 0.01748453
#
# Stress axis : x y z
#
# Youngs Moduli (GPa) = 71.88528 136.19269 70.69050
#
# Poissons Ratio (x) = 0.00415 0.36183
# Poissons Ratio (y) = 0.00219 0.26923
# Poissons Ratio (z) = 0.36795 0.51870
#
# Static dielectric constant tensor:
#      x y z
#    x 4.375700 0.000000 0.000000 
#    y 0.000000 4.856760 0.000000 
#    z 0.000000 0.000000 4.499870 
# 
# 
# High freq. dielectric constant tensor:
#      x y z
#    x 1.911190 0.000000 0.000000 
#    y 0.000000 1.925830 0.000000 
#    z 0.000000 0.000000 1.916200 
# 
# From -- ./inp_files/25188.got.cif
#   From: 2010.03.12/outbox.cif.g09.slc.cpg/sg70_13_cif.got.tgz:25188.got - 2010.04.16 13:46:32.
