data_PCOD8286364
_publ_section_title
;
Structure prediction by ZEFSAII (Michael W. Deem and Ramdas Pophale) SiO2 
 PCOD8286364
Probable space group: F D D D
;
_chemical_formula_sum "Si O2"
_cell_formula_units_Z 160
_cell_length_a 28.883268
_cell_length_b 14.875025
_cell_length_c 18.458635
_cell_angle_alpha 90.000000
_cell_angle_beta 90.000000
_cell_angle_gamma 90.000000
_cell_volume 7930.555640
_symmetry_space_group_name_H-M "F D D D"
_symmetry_group_IT_number 70
_space_group.IT_coordinate_system_code '2'
_symmetry_cell_setting 'orthorhombic'
loop_
_space_group_symop_operation_xyz
x,y,z
1/4-x,1/4-y,z
x,1/4-y,1/4-z
1/4-x,y,1/4-z
-x,-y,-z
3/4+x,3/4+y,-z
-x,3/4+y,3/4+z
3/4+x,-y,3/4+z
x,1/2+y,1/2+z
1/4-x,3/4-y,1/2+z
x,3/4-y,3/4-z
1/4-x,1/2+y,3/4-z
-x,1/2-y,1/2-z
3/4+x,1/4+y,1/2-z
-x,1/4+y,1/4+z
3/4+x,1/2-y,1/4+z
1/2+x,y,1/2+z
3/4-x,1/4-y,1/2+z
1/2+x,1/4-y,3/4-z
3/4-x,y,3/4-z
1/2-x,-y,1/2-z
1/4+x,3/4+y,1/2-z
1/2-x,3/4+y,1/4+z
1/4+x,-y,1/4+z
1/2+x,1/2+y,z
3/4-x,3/4-y,z
1/2+x,3/4-y,1/4-z
3/4-x,1/2+y,1/4-z
1/2-x,1/2-y,-z
1/4+x,1/4+y,-z
1/2-x,1/4+y,3/4+z
1/4+x,1/2-y,3/4+z
loop_
_atom_site_type_symbol
_atom_site_label
_atom_site_fract_x
_atom_site_fract_y
_atom_site_fract_z
Si Si1 0.375000 0.875000 0.691738
Si Si2 0.326666 0.324744 0.941540
Si Si3 0.873307 0.687410 0.262604
Si Si4 0.323537 0.625000 0.625000
Si Si5 0.687878 0.364620 0.622858
Si Si6 0.459543 0.816506 0.151813
O O1 0.384971 0.789354 0.741610
O O2 0.418759 0.884097 0.639568
O O3 0.300808 0.375000 0.875000
O O4 0.375000 0.375000 0.957842
O O5 0.334903 0.223356 0.914646
O O6 0.294196 0.329495 0.011816
O O7 0.857793 0.630042 0.193220
O O8 0.918056 0.636339 0.297001
O O9 0.830759 0.693539 0.320026
O O10 0.290521 0.538807 0.632508
O O11 0.742989 0.360214 0.625774
#
# Coordination Sequence:
#
# PCOD8286364 Si02
#       6
#    16  32  32  16  32  32
#     4  10  24  43  67  88 132 170 224 266 318 377
#     4  11  22  35  61  96 133 165 206 263 328 391
#     4  10  22  42  63  93 127 174 209 268 316 386
#     4  10  22  40  64  89 136 161 214 262 334 382
#     4  11  24  40  64  94 130 167 220 261 330 385
#     4  11  23  42  63  97 126 172 213 272 326 388
#
# _framework density 20.175129999999999
#
# number of rings (size 3 to 8) (size 9 to 14) (size 15 to 20)
#    0.000    1.400    3.000    3.000    1.400    4.000 
#    0.000    0.000    0.000    4.800    0.000    0.000 
#    0.000    0.000    0.000    0.000    0.000    0.000 
#
# Total GULP energy -495891.765199 kJ/mol
# GULP energy per Si atom -12397.294130 kJ/mol
# Density = 2.012921 g / cm^3
# Si number density = 20.175130 Si / 1000 Ang^3
#
#
#
# Elastic Constant Matrix: (Units=GPa)
#
#
# Indices 1 2 3 4 5 6 
#
# 1 163.0674 50.8570 64.0786 0.0000 0.0000 0.0000
# 2 50.8570 93.7644 37.6664 0.0000 0.0000 0.0000
# 3 64.0786 37.6664 140.9982 0.0000 0.0000 0.0000
# 4 0.0000 0.0000 0.0000 33.6386 0.0000 0.0000
# 5 0.0000 0.0000 0.0000 0.0000 8.6762 0.0000
# 6 0.0000 0.0000 0.0000 0.0000 0.0000 23.0930
#
#
#
# Elastic Compliance Matrix: (Units=1/GPa)
#
#
# Indices 1 2 3 4 5 6 
#
# 1 0.008309 -0.003349 -0.002882 0.000000 0.000000 0.000000
# 2 -0.003349 0.013297 -0.002030 0.000000 0.000000 0.000000
# 3 -0.002882 -0.002030 0.008944 0.000000 0.000000 0.000000
# 4 0.000000 0.000000 0.000000 0.029728 0.000000 0.000000
# 5 0.000000 0.000000 0.000000 0.000000 0.115258 0.000000
# 6 0.000000 0.000000 0.000000 0.000000 0.000000 0.043303
#
#
# Mechanical properties :
#
#
# Convention : Reuss Voigt Hill
#
# Bulk Modulus (GPa) = 71.28215 78.11491 74.69853
# Shear Modulus (GPa) = 20.83005 29.43008 25.13007
#
# Velocity S-wave (km/s) = 3.21668 3.82348 3.53313
# Velocity P-wave (km/s) = 7.01459 7.63508 7.33140
#
# Compressibility (1/GPa) = 0.01402876
#
# Stress axis : x y z
#
# Youngs Moduli (GPa) = 120.34639 75.20384 111.80476
#
# Poissons Ratio (x) = 0.25188 0.32217
# Poissons Ratio (y) = 0.40308 0.22697
# Poissons Ratio (z) = 0.34678 0.15267
#
# Static dielectric constant tensor:
#      x y z
#    x 3.438490 0.000000 0.000000 
#    y 0.000000 3.729700 0.000000 
#    z 0.000000 0.000000 3.963910 
# 
# 
# High freq. dielectric constant tensor:
#      x y z
#    x 1.779790 0.000000 0.000000 
#    y 0.000000 1.783150 0.000000 
#    z 0.000000 0.000000 1.801400 
# 
# From -- ./inp_files/39535.got.cif
#   From: 2010.03.12/outbox.cif.g09.slc.cpg/sg70_20_cif.got.tgz:39535.got - 2010.04.16 13:46:32.
