data_PCOD8286767
_publ_section_title
;
Structure prediction by ZEFSAII (Michael W. Deem and Ramdas Pophale) SiO2 
 PCOD8286767
Probable space group: F D D D
;
_chemical_formula_sum "Si O2"
_cell_formula_units_Z 144
_cell_length_a 22.887987
_cell_length_b 13.296607
_cell_length_c 20.977809
_cell_angle_alpha 90.000000
_cell_angle_beta 90.000000
_cell_angle_gamma 90.000000
_cell_volume 6384.230487
_symmetry_space_group_name_H-M "F D D D"
_symmetry_group_IT_number 70
_space_group.IT_coordinate_system_code '2'
_symmetry_cell_setting 'orthorhombic'
loop_
_space_group_symop_operation_xyz
x,y,z
1/4-x,1/4-y,z
x,1/4-y,1/4-z
1/4-x,y,1/4-z
-x,-y,-z
3/4+x,3/4+y,-z
-x,3/4+y,3/4+z
3/4+x,-y,3/4+z
x,1/2+y,1/2+z
1/4-x,3/4-y,1/2+z
x,3/4-y,3/4-z
1/4-x,1/2+y,3/4-z
-x,1/2-y,1/2-z
3/4+x,1/4+y,1/2-z
-x,1/4+y,1/4+z
3/4+x,1/2-y,1/4+z
1/2+x,y,1/2+z
3/4-x,1/4-y,1/2+z
1/2+x,1/4-y,3/4-z
3/4-x,y,3/4-z
1/2-x,-y,1/2-z
1/4+x,3/4+y,1/2-z
1/2-x,3/4+y,1/4+z
1/4+x,-y,1/4+z
1/2+x,1/2+y,z
3/4-x,3/4-y,z
1/2+x,3/4-y,1/4-z
3/4-x,1/2+y,1/4-z
1/2-x,1/2-y,-z
1/4+x,1/4+y,-z
1/2-x,1/4+y,3/4+z
1/4+x,1/2-y,3/4+z
loop_
_atom_site_type_symbol
_atom_site_label
_atom_site_fract_x
_atom_site_fract_y
_atom_site_fract_z
Si Si1 0.208414 0.471878 0.843089
Si Si2 0.035746 0.542645 0.075706
Si Si3 0.306709 0.392961 0.185590
Si Si4 0.080578 0.036855 0.037272
Si Si5 0.375000 0.635033 0.875000
O O1 0.177053 0.375000 0.875000
O O2 0.224827 0.552513 0.897944
O O3 0.166652 0.520132 0.789161
O O4 0.266384 0.428575 0.808780
O O5 0.054268 0.625000 0.125000
O O6 0.080965 0.451133 0.082345
O O7 0.970173 0.499323 0.089384
O O8 0.040021 0.604092 0.009751
O O9 0.375000 0.375000 0.173584
O O10 0.125000 0.125000 0.056715
O O11 0.093373 0.932554 0.072399
#
# Coordination Sequence:
#
# PCOD8286767 Si02
#       5
#    32  32  32  32  16
#     4  11  25  44  71 104 142 185 234 299 360 425
#     4  11  26  45  74 103 143 191 235 295 354 431
#     4  11  25  47  68 107 140 181 237 294 360 416
#     4  11  25  45  71 104 143 189 239 290 357 432
#     4  12  22  46  74 108 136 200 240 286 354 446
#
# _framework density 22.555575999999999
#
# number of rings (size 3 to 8) (size 9 to 14) (size 15 to 20)
#    0.000    0.889    2.222    4.000    6.222    0.889 
#    8.000    0.000    0.000    0.000    0.000    0.000 
#    0.000    0.000    0.000    0.000    0.000    0.000 
#
# Total GULP energy -446268.242873 kJ/mol
# GULP energy per Si atom -12396.340080 kJ/mol
# Density = 2.250424 g / cm^3
# Si number density = 22.555576 Si / 1000 Ang^3
#
#
#
# Elastic Constant Matrix: (Units=GPa)
#
#
# Indices 1 2 3 4 5 6 
#
# 1 88.2626 17.8519 14.1754 0.0000 0.0000 0.0000
# 2 17.8519 107.5070 72.6158 0.0000 0.0000 0.0000
# 3 14.1754 72.6158 137.1323 0.0000 0.0000 0.0000
# 4 0.0000 0.0000 0.0000 39.2860 0.0000 0.0000
# 5 0.0000 0.0000 0.0000 0.0000 28.7367 0.0000
# 6 0.0000 0.0000 0.0000 0.0000 0.0000 22.9180
#
#
#
# Elastic Compliance Matrix: (Units=1/GPa)
#
#
# Indices 1 2 3 4 5 6 
#
# 1 0.011731 -0.001757 -0.000282 0.000000 0.000000 0.000000
# 2 -0.001757 0.014745 -0.007626 0.000000 0.000000 0.000000
# 3 -0.000282 -0.007626 0.011360 0.000000 0.000000 0.000000
# 4 0.000000 0.000000 0.000000 0.025454 0.000000 0.000000
# 5 0.000000 0.000000 0.000000 0.000000 0.034799 0.000000
# 6 0.000000 0.000000 0.000000 0.000000 0.000000 0.043634
#
#
# Mechanical properties :
#
#
# Convention : Reuss Voigt Hill
#
# Bulk Modulus (GPa) = 54.04282 60.24310 57.14296
# Shear Modulus (GPa) = 29.90063 33.40539 31.65301
#
# Velocity S-wave (km/s) = 3.64489 3.85258 3.75017
# Velocity P-wave (km/s) = 6.45953 6.82324 6.64387
#
# Compressibility (1/GPa) = 0.01850384
#
# Stress axis : x y z
#
# Youngs Moduli (GPa) = 85.24730 67.82161 88.03135
#
# Poissons Ratio (x) = 0.11919 0.02482
# Poissons Ratio (y) = 0.14982 0.67133
# Poissons Ratio (z) = 0.02404 0.51721
#
# Static dielectric constant tensor:
#      x y z
#    x 3.995120 0.000000 0.000000 
#    y 0.000000 4.057380 0.000000 
#    z 0.000000 0.000000 4.235220 
# 
# 
# High freq. dielectric constant tensor:
#      x y z
#    x 1.882100 0.000000 0.000000 
#    y 0.000000 1.892650 0.000000 
#    z 0.000000 0.000000 1.902840 
# 
# From -- ./inp_files/54183.got.cif
#   From: 2010.03.12/outbox.cif.g09.slc.cpg/sg70_28_cif.got.tgz:54183.got - 2010.04.16 13:46:32.
