data_PCOD8286002
_publ_section_title
;
Structure prediction by ZEFSAII (Michael W. Deem and Ramdas Pophale) SiO2 
 PCOD8286002
Probable space group: F D D D
;
_chemical_formula_sum "Si O2"
_cell_formula_units_Z 160
_cell_length_a 15.176222
_cell_length_b 21.943377
_cell_length_c 22.434313
_cell_angle_alpha 90.000000
_cell_angle_beta 90.000000
_cell_angle_gamma 90.000000
_cell_volume 7471.020193
_symmetry_space_group_name_H-M "F D D D"
_symmetry_group_IT_number 70
_space_group.IT_coordinate_system_code '2'
_symmetry_cell_setting 'orthorhombic'
loop_
_space_group_symop_operation_xyz
x,y,z
1/4-x,1/4-y,z
x,1/4-y,1/4-z
1/4-x,y,1/4-z
-x,-y,-z
3/4+x,3/4+y,-z
-x,3/4+y,3/4+z
3/4+x,-y,3/4+z
x,1/2+y,1/2+z
1/4-x,3/4-y,1/2+z
x,3/4-y,3/4-z
1/4-x,1/2+y,3/4-z
-x,1/2-y,1/2-z
3/4+x,1/4+y,1/2-z
-x,1/4+y,1/4+z
3/4+x,1/2-y,1/4+z
1/2+x,y,1/2+z
3/4-x,1/4-y,1/2+z
1/2+x,1/4-y,3/4-z
3/4-x,y,3/4-z
1/2-x,-y,1/2-z
1/4+x,3/4+y,1/2-z
1/2-x,3/4+y,1/4+z
1/4+x,-y,1/4+z
1/2+x,1/2+y,z
3/4-x,3/4-y,z
1/2+x,3/4-y,1/4-z
3/4-x,1/2+y,1/4-z
1/2-x,1/2-y,-z
1/4+x,1/4+y,-z
1/2-x,1/4+y,3/4+z
1/4+x,1/2-y,3/4+z
loop_
_atom_site_type_symbol
_atom_site_label
_atom_site_fract_x
_atom_site_fract_y
_atom_site_fract_z
Si Si1 0.875000 0.375000 0.238473
Si Si2 0.505626 0.949827 0.167968
Si Si3 0.375000 0.526490 0.875000
Si Si4 0.679734 0.387473 0.698281
Si Si5 0.795983 0.665862 0.680105
Si Si6 0.744523 0.953610 0.803526
O O1 0.837186 0.321554 0.196074
O O2 0.796821 0.394599 0.281770
O O3 0.588103 0.923852 0.205249
O O4 0.510041 0.924026 0.099598
O O5 0.511306 0.022666 0.173643
O O6 0.405588 0.568757 0.820778
O O7 0.458285 0.484292 0.890004
O O8 0.726880 0.375933 0.761714
O O9 0.768403 0.625000 0.625000
O O10 0.898206 0.683362 0.677439
O O11 0.750000 0.000000 0.750000
#
# Coordination Sequence:
#
# PCOD8286002 Si02
#       6
#    16  32  16  32  32  32
#     4  12  20  37  64 102 131 174 202 272 332 418
#     4  10  22  41  68  90 135 178 217 269 338 394
#     4  10  20  35  62  90 135 178 202 256 334 406
#     4  10  22  45  64  92 129 179 221 275 333 396
#     4  12  26  41  65  99 135 172 229 283 321 399
#     4  12  22  38  61  99 136 164 209 265 338 401
#
# _framework density 21.416084999999999
#
# number of rings (size 3 to 8) (size 9 to 14) (size 15 to 20)
#    0.000    1.200    6.000    1.200    2.800    2.400 
#    0.000    2.000    0.000    0.000    0.000    0.000 
#    0.000    0.000    0.000    0.000    0.000    0.000 
#
# Total GULP energy -495861.729424 kJ/mol
# GULP energy per Si atom -12396.543236 kJ/mol
# Density = 2.136734 g / cm^3
# Si number density = 21.416085 Si / 1000 Ang^3
#
#
#
# Elastic Constant Matrix: (Units=GPa)
#
#
# Indices 1 2 3 4 5 6 
#
# 1 53.9186 25.5221 12.0990 0.0000 0.0000 0.0000
# 2 25.5221 128.0934 62.5107 0.0000 0.0000 0.0000
# 3 12.0990 62.5107 112.7814 0.0000 0.0000 0.0000
# 4 0.0000 0.0000 0.0000 26.0382 0.0000 0.0000
# 5 0.0000 0.0000 0.0000 0.0000 27.1486 0.0000
# 6 0.0000 0.0000 0.0000 0.0000 0.0000 37.8803
#
#
#
# Elastic Compliance Matrix: (Units=1/GPa)
#
#
# Indices 1 2 3 4 5 6 
#
# 1 0.020478 -0.004123 0.000089 0.000000 0.000000 0.000000
# 2 -0.004123 0.011532 -0.005949 0.000000 0.000000 0.000000
# 3 0.000089 -0.005949 0.012155 0.000000 0.000000 0.000000
# 4 0.000000 0.000000 0.000000 0.038405 0.000000 0.000000
# 5 0.000000 0.000000 0.000000 0.000000 0.036834 0.000000
# 6 0.000000 0.000000 0.000000 0.000000 0.000000 0.026399
#
#
# Mechanical properties :
#
#
# Convention : Reuss Voigt Hill
#
# Bulk Modulus (GPa) = 41.32822 55.00631 48.16727
# Shear Modulus (GPa) = 28.76260 31.19085 29.97672
#
# Velocity S-wave (km/s) = 3.66872 3.82045 3.74535
# Velocity P-wave (km/s) = 6.10620 6.72320 6.42212
#
# Compressibility (1/GPa) = 0.02419654
#
# Stress axis : x y z
#
# Youngs Moduli (GPa) = 48.83185 86.71776 82.27305
#
# Poissons Ratio (x) = 0.35758 -0.00729
# Poissons Ratio (y) = 0.20136 0.48946
# Poissons Ratio (z) = -0.00433 0.51590
#
# Static dielectric constant tensor:
#      x y z
#    x 3.760630 0.000000 0.000000 
#    y 0.000000 3.914840 0.000000 
#    z 0.000000 0.000000 3.635580 
# 
# 
# High freq. dielectric constant tensor:
#      x y z
#    x 1.819260 0.000000 0.000000 
#    y 0.000000 1.849630 0.000000 
#    z 0.000000 0.000000 1.835930 
# 
# From -- ./inp_files/36383.got.cif
#   From: 2010.03.12/outbox.cif.g09.slc.cpg/sg70_19_cif.got.tgz:36383.got - 2010.04.16 13:46:32.
