data_PCOD8286916
_publ_section_title
;
Structure prediction by ZEFSAII (Michael W. Deem and Ramdas Pophale) SiO2 
 PCOD8286916
Probable space group: I M M M
;
_chemical_formula_sum "Si O2"
_cell_formula_units_Z 104
_cell_length_a 12.500795
_cell_length_b 15.539800
_cell_length_c 29.550703
_cell_angle_alpha 90.000000
_cell_angle_beta 90.000000
_cell_angle_gamma 90.000000
_cell_volume 5740.515255
_symmetry_space_group_name_H-M "I M M M"
_symmetry_group_IT_number 71
_symmetry_cell_setting 'orthorhombic'
loop_
_space_group_symop_operation_xyz
x,y,z
-x,-y,z
x,-y,-z
-x,y,-z
-x,-y,-z
x,y,-z
-x,y,z
x,-y,z
1/2+x,1/2+y,1/2+z
1/2-x,1/2-y,1/2+z
1/2+x,1/2-y,1/2-z
1/2-x,1/2+y,1/2-z
1/2-x,1/2-y,1/2-z
1/2+x,1/2+y,1/2-z
1/2-x,1/2+y,1/2+z
1/2+x,1/2-y,1/2+z
loop_
_atom_site_type_symbol
_atom_site_label
_atom_site_fract_x
_atom_site_fract_y
_atom_site_fract_z
Si Si1 0.000000 0.095521 0.946596
Si Si2 0.883953 0.349864 0.000000
Si Si3 0.707090 0.598412 0.823490
Si Si4 0.380125 0.235159 0.317735
Si Si5 0.619513 0.302408 0.909991
Si Si6 0.662677 0.727101 0.582196
Si Si7 0.842782 0.905367 0.500000
Si Si8 0.378111 0.406144 0.727876
O O1 0.111055 0.135036 0.928209
O O2 0.000000 0.000000 0.927796
O O3 0.000000 0.101359 0.000000
O O4 0.877089 0.291810 0.955763
O O5 0.786215 0.416149 0.000000
O O6 0.000000 0.396937 0.000000
O O7 0.740914 0.500000 0.834031
O O8 0.809860 0.651821 0.805868
O O9 0.653257 0.637400 0.868199
O O10 0.624363 0.603825 0.782132
O O11 0.500000 0.221762 0.297998
O O12 0.386606 0.240351 0.371403
O O13 0.325983 0.323108 0.297256
O O14 0.500000 0.264623 0.901643
O O15 0.706796 0.225342 0.915374
O O16 0.616229 0.357137 0.955712
O O17 0.893153 0.000000 0.500000
O O18 0.500000 0.408139 0.711884
O O19 0.325484 0.500000 0.714556
#
# Coordination Sequence:
#
# PCOD8286916 Si02
#       8
#     8   8  16  16  16  16   8  16
#     4  11  20  32  56  84 106 134 170 212 258 305
#     4  10  16  30  51  64  98 142 164 197 245 305
#     4  10  20  33  50  71  99 136 174 213 257 307
#     4  10  19  31  49  73 101 133 166 211 263 316
#     4  10  21  34  52  73  97 137 175 208 253 299
#     4  10  18  33  51  74 105 132 165 208 250 302
#     4  10  21  31  44  73 101 126 168 216 253 287
#     4   9  18  32  50  72  97 126 163 213 266 309
#
# _framework density 18.116841999999998
#
# number of rings (size 3 to 8) (size 9 to 14) (size 15 to 20)
#    0.000    2.077    2.308    1.615    0.000    3.231 
#    0.000    0.000    0.000    6.000    0.000    1.077 
#    0.000    0.000    0.000    0.000    0.000    0.000 
#
# Total GULP energy -644312.610653 kJ/mol
# GULP energy per Si atom -12390.627128 kJ/mol
# Density = 1.807561 g / cm^3
# Si number density = 18.116842 Si / 1000 Ang^3
#
#
#
# Elastic Constant Matrix: (Units=GPa)
#
#
# Indices 1 2 3 4 5 6 
#
# 1 128.1255 54.3269 7.8928 0.0000 0.0000 0.0000
# 2 54.3269 112.6905 27.9554 0.0000 0.0000 0.0000
# 3 7.8928 27.9554 78.1350 0.0000 0.0000 0.0000
# 4 0.0000 0.0000 0.0000 22.8237 0.0000 0.0000
# 5 0.0000 0.0000 0.0000 0.0000 21.1298 0.0000
# 6 0.0000 0.0000 0.0000 0.0000 0.0000 23.5433
#
#
#
# Elastic Compliance Matrix: (Units=1/GPa)
#
#
# Indices 1 2 3 4 5 6 
#
# 1 0.009853 -0.004941 0.000773 0.000000 0.000000 0.000000
# 2 -0.004941 0.012217 -0.003872 0.000000 0.000000 0.000000
# 3 0.000773 -0.003872 0.014106 0.000000 0.000000 0.000000
# 4 0.000000 0.000000 0.000000 0.043814 0.000000 0.000000
# 5 0.000000 0.000000 0.000000 0.000000 0.047327 0.000000
# 6 0.000000 0.000000 0.000000 0.000000 0.000000 0.042475
#
#
# Mechanical properties :
#
#
# Convention : Reuss Voigt Hill
#
# Bulk Modulus (GPa) = 49.76691 55.47789 52.62240
# Shear Modulus (GPa) = 25.96469 28.75106 27.35788
#
# Velocity S-wave (km/s) = 3.78984 3.98801 3.89019
# Velocity P-wave (km/s) = 6.83229 7.20378 7.02049
#
# Compressibility (1/GPa) = 0.02009367
#
# Stress axis : x y z
#
# Youngs Moduli (GPa) = 101.49707 81.85608 70.89411
#
# Poissons Ratio (x) = 0.40449 -0.05478
# Poissons Ratio (y) = 0.50155 0.27448
# Poissons Ratio (z) = -0.07843 0.31692
#
# Static dielectric constant tensor:
#      x y z
#    x 4.040000 0.000000 0.000000 
#    y 0.000000 3.404560 0.000000 
#    z 0.000000 0.000000 3.409080 
# 
# 
# High freq. dielectric constant tensor:
#      x y z
#    x 1.693960 0.000000 0.000000 
#    y 0.000000 1.679470 0.000000 
#    z 0.000000 0.000000 1.713410 
# 
# From -- ./inp_files/64704.got.cif
#   From: 2010.06.25/outbox.cif.g09.slc.cpg/sg71_33_cif.got.tgz:64704.got - 2010.06.28 04:59:45.
