data_PCOD8286534
_publ_section_title
;
Structure prediction by ZEFSAII (Michael W. Deem and Ramdas Pophale) SiO2 
 PCOD8286534
Probable space group: F D D D
;
_chemical_formula_sum "Si O2"
_cell_formula_units_Z 168
_cell_length_a 13.652160
_cell_length_b 28.493573
_cell_length_c 20.717650
_cell_angle_alpha 90.000000
_cell_angle_beta 90.000000
_cell_angle_gamma 90.000000
_cell_volume 8059.141353
_symmetry_space_group_name_H-M "F D D D"
_symmetry_group_IT_number 70
_space_group.IT_coordinate_system_code '2'
_symmetry_cell_setting 'orthorhombic'
loop_
_space_group_symop_operation_xyz
x,y,z
1/4-x,1/4-y,z
x,1/4-y,1/4-z
1/4-x,y,1/4-z
-x,-y,-z
3/4+x,3/4+y,-z
-x,3/4+y,3/4+z
3/4+x,-y,3/4+z
x,1/2+y,1/2+z
1/4-x,3/4-y,1/2+z
x,3/4-y,3/4-z
1/4-x,1/2+y,3/4-z
-x,1/2-y,1/2-z
3/4+x,1/4+y,1/2-z
-x,1/4+y,1/4+z
3/4+x,1/2-y,1/4+z
1/2+x,y,1/2+z
3/4-x,1/4-y,1/2+z
1/2+x,1/4-y,3/4-z
3/4-x,y,3/4-z
1/2-x,-y,1/2-z
1/4+x,3/4+y,1/2-z
1/2-x,3/4+y,1/4+z
1/4+x,-y,1/4+z
1/2+x,1/2+y,z
3/4-x,3/4-y,z
1/2+x,3/4-y,1/4-z
3/4-x,1/2+y,1/4-z
1/2-x,1/2-y,-z
1/4+x,1/4+y,-z
1/2-x,1/4+y,3/4+z
1/4+x,1/2-y,3/4+z
loop_
_atom_site_type_symbol
_atom_site_label
_atom_site_fract_x
_atom_site_fract_y
_atom_site_fract_z
Si Si1 0.271713 0.064794 0.539811
Si Si2 0.375000 0.375000 0.375000
Si Si3 0.899005 0.119267 0.301434
Si Si4 0.059349 0.186858 0.277324
Si Si5 0.266107 0.714837 0.742814
Si Si6 0.966475 0.030603 0.094847
O O1 0.191863 0.093833 0.578654
O O2 0.322397 0.095178 0.482727
O O3 0.353056 0.045943 0.589512
O O4 0.216611 0.019422 0.509807
O O5 0.875000 0.109810 0.375000
O O6 0.011057 0.138851 0.302090
O O7 0.894073 0.068843 0.264402
O O8 0.175432 0.192193 0.281824
O O9 0.012038 0.227795 0.320928
O O10 0.030927 0.187461 0.201835
O O11 0.247304 0.711804 0.666885
#
# Coordination Sequence:
#
# PCOD8286534 Si02
#       6
#    32   8  32  32  32  32
#     4  10  24  42  63  87 122 170 205 265 306 375
#     4  12  24  48  60  80 122 172 232 238 312 368
#     4  11  23  41  61  90 129 161 206 264 322 371
#     4   9  19  35  62  93 125 164 191 254 319 387
#     4  11  21  37  64  97 119 160 208 259 311 378
#     4   9  18  37  63  91 127 156 203 251 321 373
#
# _framework density 20.845894000000001
#
# number of rings (size 3 to 8) (size 9 to 14) (size 15 to 20)
#    0.000    1.905    0.000    4.571    1.333    2.286 
#   10.286    5.714    0.000    0.000    0.000    0.000 
#    0.000    0.000    0.000    0.000    0.000    0.000 
#
# Total GULP energy -520517.752345 kJ/mol
# GULP energy per Si atom -12393.279818 kJ/mol
# Density = 2.079845 g / cm^3
# Si number density = 20.845894 Si / 1000 Ang^3
#
#
#
# Elastic Constant Matrix: (Units=GPa)
#
#
# Indices 1 2 3 4 5 6 
#
# 1 48.9295 39.8642 22.2524 0.0000 0.0000 0.0000
# 2 39.8642 145.2815 58.6260 0.0000 0.0000 0.0000
# 3 22.2524 58.6260 127.5684 0.0000 0.0000 0.0000
# 4 0.0000 0.0000 0.0000 26.2401 0.0000 0.0000
# 5 0.0000 0.0000 0.0000 0.0000 27.7572 0.0000
# 6 0.0000 0.0000 0.0000 0.0000 0.0000 22.1069
#
#
#
# Elastic Compliance Matrix: (Units=1/GPa)
#
#
# Indices 1 2 3 4 5 6 
#
# 1 0.026578 -0.006656 -0.001577 0.000000 0.000000 0.000000
# 2 -0.006656 0.010117 -0.003488 0.000000 0.000000 0.000000
# 3 -0.001577 -0.003488 0.009717 0.000000 0.000000 0.000000
# 4 0.000000 0.000000 0.000000 0.038110 0.000000 0.000000
# 5 0.000000 0.000000 0.000000 0.000000 0.036027 0.000000
# 6 0.000000 0.000000 0.000000 0.000000 0.000000 0.045235
#
#
# Mechanical properties :
#
#
# Convention : Reuss Voigt Hill
#
# Bulk Modulus (GPa) = 43.53766 62.58495 53.06130
# Shear Modulus (GPa) = 25.39572 28.62331 27.00951
#
# Velocity S-wave (km/s) = 3.49414 3.70954 3.60345
# Velocity P-wave (km/s) = 6.09996 6.95956 6.54389
#
# Compressibility (1/GPa) = 0.02296862
#
# Stress axis : x y z
#
# Youngs Moduli (GPa) = 37.62520 98.83994 102.91014
#
# Poissons Ratio (x) = 0.65792 0.16230
# Poissons Ratio (y) = 0.25045 0.35900
# Poissons Ratio (z) = 0.05934 0.34480
#
# Static dielectric constant tensor:
#      x y z
#    x 3.669480 0.000000 0.000000 
#    y 0.000000 3.991150 0.000000 
#    z 0.000000 0.000000 3.597680 
# 
# 
# High freq. dielectric constant tensor:
#      x y z
#    x 1.796410 0.000000 0.000000 
#    y 0.000000 1.828170 0.000000 
#    z 0.000000 0.000000 1.809750 
# 
# From -- ./inp_files/42853.got.cif
#   From: 2010.03.12/outbox.cif.g09.slc.cpg/sg70_22_cif.got.tgz:42853.got - 2010.04.16 13:46:32.
