data_PCOD8286510
_publ_section_title
;
Structure prediction by ZEFSAII (Michael W. Deem and Ramdas Pophale) SiO2 
 PCOD8286510
Probable space group: F D D D
;
_chemical_formula_sum "Si O2"
_cell_formula_units_Z 192
_cell_length_a 28.546341
_cell_length_b 10.481697
_cell_length_c 29.666088
_cell_angle_alpha 90.000000
_cell_angle_beta 90.000000
_cell_angle_gamma 90.000000
_cell_volume 8876.511727
_symmetry_space_group_name_H-M "F D D D"
_symmetry_group_IT_number 70
_space_group.IT_coordinate_system_code '2'
_symmetry_cell_setting 'orthorhombic'
loop_
_space_group_symop_operation_xyz
x,y,z
1/4-x,1/4-y,z
x,1/4-y,1/4-z
1/4-x,y,1/4-z
-x,-y,-z
3/4+x,3/4+y,-z
-x,3/4+y,3/4+z
3/4+x,-y,3/4+z
x,1/2+y,1/2+z
1/4-x,3/4-y,1/2+z
x,3/4-y,3/4-z
1/4-x,1/2+y,3/4-z
-x,1/2-y,1/2-z
3/4+x,1/4+y,1/2-z
-x,1/4+y,1/4+z
3/4+x,1/2-y,1/4+z
1/2+x,y,1/2+z
3/4-x,1/4-y,1/2+z
1/2+x,1/4-y,3/4-z
3/4-x,y,3/4-z
1/2-x,-y,1/2-z
1/4+x,3/4+y,1/2-z
1/2-x,3/4+y,1/4+z
1/4+x,-y,1/4+z
1/2+x,1/2+y,z
3/4-x,3/4-y,z
1/2+x,3/4-y,1/4-z
3/4-x,1/2+y,1/4-z
1/2-x,1/2-y,-z
1/4+x,1/4+y,-z
1/2-x,1/4+y,3/4+z
1/4+x,1/2-y,3/4+z
loop_
_atom_site_type_symbol
_atom_site_label
_atom_site_fract_x
_atom_site_fract_y
_atom_site_fract_z
Si Si1 0.049794 0.608042 0.254740
Si Si2 0.332619 0.273523 0.708397
Si Si3 0.196568 0.359093 0.536284
Si Si4 0.890834 0.625000 0.125000
Si Si5 0.516163 0.359061 0.715971
Si Si6 0.625000 0.125000 0.329186
Si Si7 0.928848 0.524249 0.378543
O O1 0.069453 0.710141 0.217444
O O2 0.052090 0.461219 0.238534
O O3 0.078652 0.636821 0.299615
O O4 0.995857 0.632999 0.262255
O O5 0.375000 0.375000 0.704995
O O6 0.337073 0.205045 0.757544
O O7 0.331472 0.164856 0.669918
O O8 0.282728 0.336700 0.698730
O O9 0.203292 0.402751 0.587425
O O10 0.863029 0.752739 0.139366
O O11 0.500000 0.250000 0.750000
O O12 0.546532 0.308244 0.674889
O O13 0.934858 0.375000 0.375000
O O14 0.875000 0.566670 0.375000
#
# Coordination Sequence:
#
# PCOD8286510 Si02
#       7
#    32  32  32  16  32  16  32
#     4  10  24  43  69  95 134 181 227 301 352 437
#     4  11  25  44  71  99 145 188 239 304 367 437
#     4  10  23  45  67  96 136 182 232 289 370 422
#     4  12  26  42  68 110 131 192 227 308 364 440
#     4  11  27  46  70 104 140 189 244 300 371 442
#     4  12  26  44  70 103 144 176 251 288 378 432
#     4  11  26  44  70 102 140 185 237 295 359 440
#
# _framework density 21.630118
#
# number of rings (size 3 to 8) (size 9 to 14) (size 15 to 20)
#    0.000    1.167    2.500    2.000   11.667    0.667 
#    3.000    0.833    0.000    0.000    0.000    0.000 
#    0.000    0.000    0.000    0.000    0.000    0.000 
#
# Total GULP energy -594697.675640 kJ/mol
# GULP energy per Si atom -12389.534909 kJ/mol
# Density = 2.158089 g / cm^3
# Si number density = 21.630118 Si / 1000 Ang^3
#
#
#
# Elastic Constant Matrix: (Units=GPa)
#
#
# Indices 1 2 3 4 5 6 
#
# 1 64.4538 54.2426 31.9760 0.0000 0.0000 0.0000
# 2 54.2426 109.2596 64.7860 0.0000 -0.0001 0.0000
# 3 31.9760 64.7860 147.7943 0.0000 0.0000 0.0000
# 4 0.0000 0.0000 0.0000 46.8177 0.0000 0.0000
# 5 0.0000 -0.0001 0.0000 0.0000 8.8631 0.0000
# 6 0.0000 0.0000 0.0000 0.0000 0.0000 40.2436
#
#
#
# Elastic Compliance Matrix: (Units=1/GPa)
#
#
# Indices 1 2 3 4 5 6 
#
# 1 0.026649 -0.013257 0.000046 0.000000 0.000000 0.000000
# 2 -0.013257 0.018962 -0.005444 0.000000 0.000000 0.000000
# 3 0.000046 -0.005444 0.009143 0.000000 0.000000 0.000000
# 4 0.000000 0.000000 0.000000 0.021359 0.000000 0.000000
# 5 0.000000 0.000000 0.000000 0.000000 0.112827 0.000000
# 6 0.000000 0.000000 0.000000 0.000000 0.000000 0.024849
#
#
# Mechanical properties :
#
#
# Convention : Reuss Voigt Hill
#
# Bulk Modulus (GPa) = 57.32913 69.27965 63.30439
# Shear Modulus (GPa) = 19.46174 30.55178 25.00676
#
# Velocity S-wave (km/s) = 3.00284 3.76235 3.40385
# Velocity P-wave (km/s) = 6.21165 7.13950 6.69168
#
# Compressibility (1/GPa) = 0.01744314
#
# Stress axis : x y z
#
# Youngs Moduli (GPa) = 37.52436 52.73666 109.37826
#
# Poissons Ratio (x) = 0.69915 -0.00500
# Poissons Ratio (y) = 0.49747 0.59543
# Poissons Ratio (z) = -0.00171 0.28709
#
# Static dielectric constant tensor:
#      x y z
#    x 4.619590 0.000000 0.000000 
#    y 0.000000 5.205390 0.000000 
#    z 0.000000 0.000000 3.926420 
# 
# 
# High freq. dielectric constant tensor:
#      x y z
#    x 1.838150 0.000000 0.000000 
#    y 0.000000 1.875440 0.000000 
#    z 0.000000 0.000000 1.852720 
# 
# From -- ./inp_files/62258.got.cif
#   From: 2010.03.12/outbox.cif.g09.slc.cpg/sg70_32_cif.got.tgz:62258.got - 2010.04.16 13:46:32.
