data_PCOD8286020
_publ_section_title
;
Structure prediction by ZEFSAII (Michael W. Deem and Ramdas Pophale) SiO2 
 PCOD8286020
Probable space group: F D D D
;
_chemical_formula_sum "Si O2"
_cell_formula_units_Z 192
_cell_length_a 23.842312
_cell_length_b 18.388316
_cell_length_c 22.327494
_cell_angle_alpha 90.000000
_cell_angle_beta 90.000000
_cell_angle_gamma 90.000000
_cell_volume 9788.819188
_symmetry_space_group_name_H-M "F D D D"
_symmetry_group_IT_number 70
_space_group.IT_coordinate_system_code '2'
_symmetry_cell_setting 'orthorhombic'
loop_
_space_group_symop_operation_xyz
x,y,z
1/4-x,1/4-y,z
x,1/4-y,1/4-z
1/4-x,y,1/4-z
-x,-y,-z
3/4+x,3/4+y,-z
-x,3/4+y,3/4+z
3/4+x,-y,3/4+z
x,1/2+y,1/2+z
1/4-x,3/4-y,1/2+z
x,3/4-y,3/4-z
1/4-x,1/2+y,3/4-z
-x,1/2-y,1/2-z
3/4+x,1/4+y,1/2-z
-x,1/4+y,1/4+z
3/4+x,1/2-y,1/4+z
1/2+x,y,1/2+z
3/4-x,1/4-y,1/2+z
1/2+x,1/4-y,3/4-z
3/4-x,y,3/4-z
1/2-x,-y,1/2-z
1/4+x,3/4+y,1/2-z
1/2-x,3/4+y,1/4+z
1/4+x,-y,1/4+z
1/2+x,1/2+y,z
3/4-x,3/4-y,z
1/2+x,3/4-y,1/4-z
3/4-x,1/2+y,1/4-z
1/2-x,1/2-y,-z
1/4+x,1/4+y,-z
1/2-x,1/4+y,3/4+z
1/4+x,1/2-y,3/4+z
loop_
_atom_site_type_symbol
_atom_site_label
_atom_site_fract_x
_atom_site_fract_y
_atom_site_fract_z
Si Si1 0.976066 0.136945 0.191349
Si Si2 0.870784 0.215201 0.694258
Si Si3 0.831394 0.279935 0.573908
Si Si4 0.452602 0.316311 0.046285
Si Si5 0.893251 0.792072 0.311343
Si Si6 0.758835 0.044723 0.144923
O O1 0.001707 0.125000 0.125000
O O2 0.911832 0.110429 0.194432
O O3 0.964672 0.223147 0.203797
O O4 0.015732 0.089284 0.234805
O O5 0.845674 0.264819 0.642484
O O6 0.861313 0.252194 0.758007
O O7 0.935356 0.200085 0.683066
O O8 0.802067 0.357643 0.580594
O O9 0.889430 0.284177 0.534502
O O10 0.487215 0.259597 0.087446
O O11 0.875000 0.758994 0.375000
O O12 0.875000 0.875000 0.306069
O O13 0.959646 0.774184 0.308620
O O14 0.741405 0.125000 0.125000
#
# Coordination Sequence:
#
# PCOD8286020 Si02
#       6
#    32  32  32  32  32  32
#     4  10  20  38  59  88 118 152 199 250 302 360
#     4  10  21  36  59  81 114 152 203 241 290 367
#     4   9  20  38  58  88 114 152 206 251 296 366
#     4  10  20  36  63  84 116 160 197 248 310 356
#     4  11  22  36  53  81 121 155 191 241 303 358
#     4  11  21  38  57  87 118 160 202 248 301 363
#
# _framework density 19.614214
#
# number of rings (size 3 to 8) (size 9 to 14) (size 15 to 20)
#    0.000    1.833    1.667    4.500    4.667    0.000 
#    0.000    3.333    0.000    2.000    0.000    0.000 
#    0.000    0.000    0.000    0.000    0.000    0.000 
#
# Total GULP energy -594631.095122 kJ/mol
# GULP energy per Si atom -12388.147815 kJ/mol
# Density = 1.956957 g / cm^3
# Si number density = 19.614214 Si / 1000 Ang^3
#
#
#
# Elastic Constant Matrix: (Units=GPa)
#
#
# Indices 1 2 3 4 5 6 
#
# 1 56.8235 23.0186 30.9024 0.0000 0.0000 0.0000
# 2 23.0186 98.5271 29.3578 0.0000 0.0000 0.0000
# 3 30.9024 29.3578 100.2419 0.0000 0.0000 0.0000
# 4 0.0000 0.0000 0.0000 16.9010 0.0000 0.0000
# 5 0.0000 0.0000 0.0000 0.0000 29.8632 0.0000
# 6 0.0000 0.0000 0.0000 0.0000 0.0000 28.5980
#
#
#
# Elastic Compliance Matrix: (Units=1/GPa)
#
#
# Indices 1 2 3 4 5 6 
#
# 1 0.022160 -0.003442 -0.005823 0.000000 0.000000 0.000000
# 2 -0.003442 0.011654 -0.002352 0.000000 0.000000 0.000000
# 3 -0.005823 -0.002352 0.012460 0.000000 0.000000 0.000000
# 4 0.000000 0.000000 0.000000 0.059168 0.000000 0.000000
# 5 0.000000 0.000000 0.000000 0.000000 0.033486 0.000000
# 6 0.000000 0.000000 0.000000 0.000000 0.000000 0.034968
#
#
# Mechanical properties :
#
#
# Convention : Reuss Voigt Hill
#
# Bulk Modulus (GPa) = 43.40426 46.90556 45.15491
# Shear Modulus (GPa) = 24.41287 26.56002 25.48645
#
# Velocity S-wave (km/s) = 3.53179 3.68383 3.60861
# Velocity P-wave (km/s) = 6.22964 6.48538 6.35879
#
# Compressibility (1/GPa) = 0.02303921
#
# Stress axis : x y z
#
# Youngs Moduli (GPa) = 45.12735 85.80390 80.25722
#
# Poissons Ratio (x) = 0.29533 0.46736
# Poissons Ratio (y) = 0.15532 0.18878
# Poissons Ratio (z) = 0.26279 0.20183
#
# Static dielectric constant tensor:
#      x y z
#    x 3.758620 0.000000 0.000000 
#    y 0.000000 3.679010 0.000000 
#    z 0.000000 0.000000 3.637870 
# 
# 
# High freq. dielectric constant tensor:
#      x y z
#    x 1.769100 0.000000 0.000000 
#    y 0.000000 1.767420 0.000000 
#    z 0.000000 0.000000 1.751930 
# 
# From -- ./inp_files/45943.got.cif
#   From: 2010.03.12/outbox.cif.g09.slc.cpg/sg70_23_cif.got.tgz:45943.got - 2010.04.16 13:46:32.
