data_PCOD8286572
_publ_section_title
;
Structure prediction by ZEFSAII (Michael W. Deem and Ramdas Pophale) SiO2 
 PCOD8286572
Probable space group: F D D D
;
_chemical_formula_sum "Si O2"
_cell_formula_units_Z 176
_cell_length_a 22.667865
_cell_length_b 14.225720
_cell_length_c 23.714688
_cell_angle_alpha 90.000000
_cell_angle_beta 90.000000
_cell_angle_gamma 90.000000
_cell_volume 7647.197192
_symmetry_space_group_name_H-M "F D D D"
_symmetry_group_IT_number 70
_space_group.IT_coordinate_system_code '2'
_symmetry_cell_setting 'orthorhombic'
loop_
_space_group_symop_operation_xyz
x,y,z
1/4-x,1/4-y,z
x,1/4-y,1/4-z
1/4-x,y,1/4-z
-x,-y,-z
3/4+x,3/4+y,-z
-x,3/4+y,3/4+z
3/4+x,-y,3/4+z
x,1/2+y,1/2+z
1/4-x,3/4-y,1/2+z
x,3/4-y,3/4-z
1/4-x,1/2+y,3/4-z
-x,1/2-y,1/2-z
3/4+x,1/4+y,1/2-z
-x,1/4+y,1/4+z
3/4+x,1/2-y,1/4+z
1/2+x,y,1/2+z
3/4-x,1/4-y,1/2+z
1/2+x,1/4-y,3/4-z
3/4-x,y,3/4-z
1/2-x,-y,1/2-z
1/4+x,3/4+y,1/2-z
1/2-x,3/4+y,1/4+z
1/4+x,-y,1/4+z
1/2+x,1/2+y,z
3/4-x,3/4-y,z
1/2+x,3/4-y,1/4-z
3/4-x,1/2+y,1/4-z
1/2-x,1/2-y,-z
1/4+x,1/4+y,-z
1/2-x,1/4+y,3/4+z
1/4+x,1/2-y,3/4+z
loop_
_atom_site_type_symbol
_atom_site_label
_atom_site_fract_x
_atom_site_fract_y
_atom_site_fract_z
Si Si1 0.004285 0.444114 0.193347
Si Si2 0.309093 0.266507 0.033562
Si Si3 0.493407 0.637087 0.484215
Si Si4 0.398635 0.625000 0.125000
Si Si5 0.043523 0.987463 0.417441
Si Si6 0.129030 0.321462 0.062407
O O1 0.947733 0.372335 0.193004
O O2 0.006717 0.504031 0.251464
O O3 0.989352 0.515210 0.142762
O O4 0.067240 0.395163 0.186634
O O5 0.312414 0.188877 0.083214
O O6 0.250000 0.250000 0.000000
O O7 0.361827 0.255444 0.987716
O O8 0.543377 0.594219 0.442451
O O9 0.494524 0.577345 0.541308
O O10 0.431458 0.625172 0.451273
O O11 0.359219 0.696606 0.088153
O O12 0.125000 0.274830 0.125000
#
# Coordination Sequence:
#
# PCOD8286572 Si02
#       6
#    32  32  32  16  32  32
#     4  11  23  44  71  99 139 184 234 294 355 424
#     4  10  25  45  69 103 139 181 242 294 349 442
#     4  11  23  43  69 103 141 177 238 293 348 435
#     4  12  22  46  76  99 147 190 236 298 370 426
#     4  11  22  41  70 100 137 182 232 292 352 423
#     4  11  22  45  70  98 142 183 226 293 359 421
#
# _framework density 23.014968
#
# number of rings (size 3 to 8) (size 9 to 14) (size 15 to 20)
#    0.000    1.091    5.455    0.000    0.000    5.818 
#    3.273    3.636    4.000    0.000    0.000    0.000 
#    0.000    0.000    0.000    0.000    0.000    0.000 
#
# Total GULP energy -545352.665718 kJ/mol
# GULP energy per Si atom -12394.378766 kJ/mol
# Density = 2.296259 g / cm^3
# Si number density = 23.014968 Si / 1000 Ang^3
#
#
#
# Elastic Constant Matrix: (Units=GPa)
#
#
# Indices 1 2 3 4 5 6 
#
# 1 75.4496 44.6475 28.5628 0.0000 0.0000 0.0000
# 2 44.6475 114.3793 59.7666 0.0000 0.0000 0.0000
# 3 28.5628 59.7666 129.0361 0.0000 0.0000 0.0000
# 4 0.0000 0.0000 0.0000 36.6604 0.0000 0.0000
# 5 0.0000 0.0000 0.0000 0.0000 35.9535 0.0000
# 6 0.0000 0.0000 0.0000 0.0000 0.0000 31.4443
#
#
#
# Elastic Compliance Matrix: (Units=1/GPa)
#
#
# Indices 1 2 3 4 5 6 
#
# 1 0.017319 -0.006276 -0.000927 0.000000 0.000000 0.000000
# 2 -0.006276 0.013809 -0.005007 0.000000 0.000000 0.000000
# 3 -0.000927 -0.005007 0.010274 0.000000 0.000000 0.000000
# 4 0.000000 0.000000 0.000000 0.027277 0.000000 0.000000
# 5 0.000000 0.000000 0.000000 0.000000 0.027814 0.000000
# 6 0.000000 0.000000 0.000000 0.000000 0.000000 0.031802
#
#
# Mechanical properties :
#
#
# Convention : Reuss Voigt Hill
#
# Bulk Modulus (GPa) = 58.88414 64.97988 61.93201
# Shear Modulus (GPa) = 31.57081 33.20418 32.38749
#
# Velocity S-wave (km/s) = 3.70773 3.80244 3.75538
# Velocity P-wave (km/s) = 6.63102 6.89732 6.76548
#
# Compressibility (1/GPa) = 0.01698250
#
# Stress axis : x y z
#
# Youngs Moduli (GPa) = 57.74161 72.41752 97.33421
#
# Poissons Ratio (x) = 0.45449 0.09019
# Poissons Ratio (y) = 0.36239 0.48732
# Poissons Ratio (z) = 0.05351 0.36257
#
# Static dielectric constant tensor:
#      x y z
#    x 4.209210 0.000000 0.000000 
#    y 0.000000 3.194980 0.000000 
#    z 0.000000 0.000000 4.752560 
# 
# 
# High freq. dielectric constant tensor:
#      x y z
#    x 1.889830 0.000000 0.000000 
#    y 0.000000 1.904760 0.000000 
#    z 0.000000 0.000000 1.929990 
# 
# From -- ./inp_files/53628.got.cif
#   From: 2010.03.12/outbox.cif.g09.slc.cpg/sg70_27_cif.got.tgz:53628.got - 2010.04.16 13:46:32.
