data_PCOD8286076
_publ_section_title
;
Structure prediction by ZEFSAII (Michael W. Deem and Ramdas Pophale) SiO2 
 PCOD8286076
Probable space group: F D D D
;
_chemical_formula_sum "Si O2"
_cell_formula_units_Z 176
_cell_length_a 10.361223
_cell_length_b 32.043794
_cell_length_c 26.367687
_cell_angle_alpha 90.000000
_cell_angle_beta 90.000000
_cell_angle_gamma 90.000000
_cell_volume 8754.412106
_symmetry_space_group_name_H-M "F D D D"
_symmetry_group_IT_number 70
_space_group.IT_coordinate_system_code '2'
_symmetry_cell_setting 'orthorhombic'
loop_
_space_group_symop_operation_xyz
x,y,z
1/4-x,1/4-y,z
x,1/4-y,1/4-z
1/4-x,y,1/4-z
-x,-y,-z
3/4+x,3/4+y,-z
-x,3/4+y,3/4+z
3/4+x,-y,3/4+z
x,1/2+y,1/2+z
1/4-x,3/4-y,1/2+z
x,3/4-y,3/4-z
1/4-x,1/2+y,3/4-z
-x,1/2-y,1/2-z
3/4+x,1/4+y,1/2-z
-x,1/4+y,1/4+z
3/4+x,1/2-y,1/4+z
1/2+x,y,1/2+z
3/4-x,1/4-y,1/2+z
1/2+x,1/4-y,3/4-z
3/4-x,y,3/4-z
1/2-x,-y,1/2-z
1/4+x,3/4+y,1/2-z
1/2-x,3/4+y,1/4+z
1/4+x,-y,1/4+z
1/2+x,1/2+y,z
3/4-x,3/4-y,z
1/2+x,3/4-y,1/4-z
3/4-x,1/2+y,1/4-z
1/2-x,1/2-y,-z
1/4+x,1/4+y,-z
1/2-x,1/4+y,3/4+z
1/4+x,1/2-y,3/4+z
loop_
_atom_site_type_symbol
_atom_site_label
_atom_site_fract_x
_atom_site_fract_y
_atom_site_fract_z
Si Si1 0.808519 0.784542 0.223325
Si Si2 0.301998 0.683544 0.924547
Si Si3 0.375000 0.875000 0.238000
Si Si4 0.116720 0.907661 0.069682
Si Si5 0.329250 0.421563 0.318358
Si Si6 0.437078 0.690961 0.027136
O O1 0.678433 0.811329 0.221013
O O2 0.867677 0.793417 0.279327
O O3 0.768182 0.737455 0.208757
O O4 0.907650 0.798714 0.179078
O O5 0.375000 0.700750 0.875000
O O6 0.295427 0.633557 0.925493
O O7 0.383809 0.699176 0.971471
O O8 0.276346 0.897775 0.200040
O O9 0.444758 0.908215 0.275133
O O10 0.125000 0.929283 0.125000
O O11 0.375000 0.432920 0.375000
O O12 0.375000 0.375000 0.302889
O O13 0.173034 0.423058 0.315048
#
# Coordination Sequence:
#
# PCOD8286076 Si02
#       6
#    32  32  16  32  32  32
#     4  11  21  35  58  92 123 149 202 251 307 349
#     4   9  18  33  60  89 122 154 188 245 309 373
#     4  10  22  42  58  81 124 162 209 236 314 368
#     4  10  22  35  59  87 118 160 195 242 302 375
#     4  10  20  38  63  89 116 158 209 247 294 358
#     4  10  22  36  58  88 120 159 196 254 301 359
#
# _framework density 20.104149
#
# number of rings (size 3 to 8) (size 9 to 14) (size 15 to 20)
#    0.000    2.000    0.000    6.000    7.636    3.636 
#    0.000    0.000    4.000    1.091    0.000    0.000 
#    0.000    0.000    0.000    0.000    0.000    0.000 
#
# Total GULP energy -545404.818892 kJ/mol
# GULP energy per Si atom -12395.564066 kJ/mol
# Density = 2.005839 g / cm^3
# Si number density = 20.104149 Si / 1000 Ang^3
#
#
#
# Elastic Constant Matrix: (Units=GPa)
#
#
# Indices 1 2 3 4 5 6 
#
# 1 135.4266 62.2809 50.6539 0.0000 0.0000 0.0000
# 2 62.2809 114.5938 26.7588 0.0000 0.0000 0.0000
# 3 50.6539 26.7588 100.6677 0.0000 0.0000 0.0000
# 4 0.0000 0.0000 0.0000 11.9499 0.0000 0.0000
# 5 0.0000 0.0000 0.0000 0.0000 29.9880 0.0000
# 6 0.0000 0.0000 0.0000 0.0000 0.0000 15.9597
#
#
#
# Elastic Compliance Matrix: (Units=1/GPa)
#
#
# Indices 1 2 3 4 5 6 
#
# 1 0.011394 -0.005175 -0.004358 0.000000 0.000000 0.000000
# 2 -0.005175 0.011654 -0.000494 0.000000 0.000000 0.000000
# 3 -0.004358 -0.000494 0.012258 0.000000 0.000000 0.000000
# 4 0.000000 0.000000 0.000000 0.083682 0.000000 0.000000
# 5 0.000000 0.000000 0.000000 0.000000 0.033347 0.000000
# 6 0.000000 0.000000 0.000000 0.000000 0.000000 0.062658
#
#
# Mechanical properties :
#
#
# Convention : Reuss Voigt Hill
#
# Bulk Modulus (GPa) = 65.56141 70.00834 67.78488
# Shear Modulus (GPa) = 20.82207 25.64583 23.23395
#
# Velocity S-wave (km/s) = 3.22174 3.57550 3.40322
# Velocity P-wave (km/s) = 6.82064 7.20722 7.01659
#
# Compressibility (1/GPa) = 0.01525287
#
# Stress axis : x y z
#
# Youngs Moduli (GPa) = 87.76682 85.80488 81.58191
#
# Poissons Ratio (x) = 0.44403 0.35550
# Poissons Ratio (y) = 0.45419 0.04030
# Poissons Ratio (z) = 0.38245 0.04238
#
# Static dielectric constant tensor:
#      x y z
#    x 3.758880 0.000000 0.000000 
#    y 0.000000 3.641680 0.000000 
#    z 0.000000 0.000000 3.685540 
# 
# 
# High freq. dielectric constant tensor:
#      x y z
#    x 1.774850 0.000000 0.000000 
#    y 0.000000 1.782860 0.000000 
#    z 0.000000 0.000000 1.769850 
# 
# From -- ./inp_files/57769.got.cif
#   From: 2010.03.12/outbox.cif.g09.slc.cpg/sg70_29_cif.got.tgz:57769.got - 2010.04.16 13:46:32.
