data_PCOD8286018
_publ_section_title
;
Structure prediction by ZEFSAII (Michael W. Deem and Ramdas Pophale) SiO2 
 PCOD8286018
Probable space group: F D D D
;
_chemical_formula_sum "Si O2"
_cell_formula_units_Z 112
_cell_length_a 10.176680
_cell_length_b 15.581792
_cell_length_c 32.693150
_cell_angle_alpha 90.000000
_cell_angle_beta 90.000000
_cell_angle_gamma 90.000000
_cell_volume 5184.182579
_symmetry_space_group_name_H-M "F D D D"
_symmetry_group_IT_number 70
_space_group.IT_coordinate_system_code '2'
_symmetry_cell_setting 'orthorhombic'
loop_
_space_group_symop_operation_xyz
x,y,z
1/4-x,1/4-y,z
x,1/4-y,1/4-z
1/4-x,y,1/4-z
-x,-y,-z
3/4+x,3/4+y,-z
-x,3/4+y,3/4+z
3/4+x,-y,3/4+z
x,1/2+y,1/2+z
1/4-x,3/4-y,1/2+z
x,3/4-y,3/4-z
1/4-x,1/2+y,3/4-z
-x,1/2-y,1/2-z
3/4+x,1/4+y,1/2-z
-x,1/4+y,1/4+z
3/4+x,1/2-y,1/4+z
1/2+x,y,1/2+z
3/4-x,1/4-y,1/2+z
1/2+x,1/4-y,3/4-z
3/4-x,y,3/4-z
1/2-x,-y,1/2-z
1/4+x,3/4+y,1/2-z
1/2-x,3/4+y,1/4+z
1/4+x,-y,1/4+z
1/2+x,1/2+y,z
3/4-x,3/4-y,z
1/2+x,3/4-y,1/4-z
3/4-x,1/2+y,1/4-z
1/2-x,1/2-y,-z
1/4+x,1/4+y,-z
1/2-x,1/4+y,3/4+z
1/4+x,1/2-y,3/4+z
loop_
_atom_site_type_symbol
_atom_site_label
_atom_site_fract_x
_atom_site_fract_y
_atom_site_fract_z
Si Si1 0.329479 0.576784 0.959595
Si Si2 0.625000 0.125000 0.901393
Si Si3 0.504844 0.764956 0.348850
Si Si4 0.773728 0.647849 0.215607
O O1 0.255831 0.642054 0.928713
O O2 0.465042 0.543299 0.940177
O O3 0.220938 0.500580 0.963541
O O4 0.364693 0.618361 0.002794
O O5 0.612358 0.211527 0.874053
O O6 0.375000 0.784398 0.375000
O O7 0.556726 0.855054 0.329194
O O8 0.625000 0.625000 0.229568
#
# Coordination Sequence:
#
# PCOD8286018 Si02
#       4
#    32  16  32  32
#     4  10  22  36  59  87 117 161 194 256 304 377
#     4  10  22  36  54  88 122 159 203 250 316 362
#     4   9  19  34  57  85 114 150 200 257 299 355
#     4  10  20  36  62  88 119 152 207 252 313 364
#
# _framework density 21.604178000000001
#
# number of rings (size 3 to 8) (size 9 to 14) (size 15 to 20)
#    0.000    2.286    0.000    3.429    6.000   14.286 
#    0.000    0.000    0.000    0.000    0.000    0.000 
#    0.000    0.000    0.000    0.000    0.000    0.000 
#
# Total GULP energy -346990.652302 kJ/mol
# GULP energy per Si atom -12392.523297 kJ/mol
# Density = 2.155501 g / cm^3
# Si number density = 21.604178 Si / 1000 Ang^3
#
#
#
# Elastic Constant Matrix: (Units=GPa)
#
#
# Indices 1 2 3 4 5 6 
#
# 1 46.6202 51.0165 40.0631 0.0000 0.0000 0.0000
# 2 51.0165 114.0959 65.2909 0.0000 0.0000 0.0000
# 3 40.0631 65.2909 140.8314 0.0000 0.0000 0.0000
# 4 0.0000 0.0000 0.0000 32.2647 0.0000 0.0000
# 5 0.0000 0.0000 0.0000 0.0000 44.8122 0.0000
# 6 0.0000 0.0000 0.0000 0.0000 0.0000 25.1466
#
#
#
# Elastic Compliance Matrix: (Units=1/GPa)
#
#
# Indices 1 2 3 4 5 6 
#
# 1 0.044117 -0.017074 -0.004634 0.000000 0.000000 0.000000
# 2 -0.017074 0.018538 -0.003737 0.000000 0.000000 0.000000
# 3 -0.004634 -0.003737 0.010152 0.000000 0.000000 0.000000
# 4 0.000000 0.000000 0.000000 0.030994 0.000000 0.000000
# 5 0.000000 0.000000 0.000000 0.000000 0.022315 0.000000
# 6 0.000000 0.000000 0.000000 0.000000 0.000000 0.039767
#
#
# Mechanical properties :
#
#
# Convention : Reuss Voigt Hill
#
# Bulk Modulus (GPa) = 45.63145 68.25428 56.94287
# Shear Modulus (GPa) = 22.31367 30.12316 26.21842
#
# Velocity S-wave (km/s) = 3.21727 3.73811 3.48743
# Velocity P-wave (km/s) = 5.91342 7.09175 6.52922
#
# Compressibility (1/GPa) = 0.02191471
#
# Stress axis : x y z
#
# Youngs Moduli (GPa) = 22.66709 53.94453 98.50705
#
# Poissons Ratio (x) = 0.92106 0.45652
# Poissons Ratio (y) = 0.38702 0.36812
# Poissons Ratio (z) = 0.10505 0.20159
#
# Static dielectric constant tensor:
#      x y z
#    x 3.432410 0.000000 0.000000 
#    y 0.000000 4.060260 0.000000 
#    z 0.000000 0.000000 4.221350 
# 
# 
# High freq. dielectric constant tensor:
#      x y z
#    x 1.788970 0.000000 0.000000 
#    y 0.000000 1.842320 0.000000 
#    z 0.000000 0.000000 1.867980 
# 
# From -- ./inp_files/16486.got.cif
#   From: 2010.03.12/outbox.cif.g09.slc.cpg/sg70_9_cif.got.tgz:16486.got - 2010.04.16 13:46:32.
