data_PCOD8286069
_publ_section_title
;
Structure prediction by ZEFSAII (Michael W. Deem and Ramdas Pophale) SiO2 
 PCOD8286069
Probable space group: F D D D
;
_chemical_formula_sum "Si O2"
_cell_formula_units_Z 160
_cell_length_a 22.898527
_cell_length_b 13.597894
_cell_length_c 24.647032
_cell_angle_alpha 90.000000
_cell_angle_beta 90.000000
_cell_angle_gamma 90.000000
_cell_volume 7674.389311
_symmetry_space_group_name_H-M "F D D D"
_symmetry_group_IT_number 70
_space_group.IT_coordinate_system_code '2'
_symmetry_cell_setting 'orthorhombic'
loop_
_space_group_symop_operation_xyz
x,y,z
1/4-x,1/4-y,z
x,1/4-y,1/4-z
1/4-x,y,1/4-z
-x,-y,-z
3/4+x,3/4+y,-z
-x,3/4+y,3/4+z
3/4+x,-y,3/4+z
x,1/2+y,1/2+z
1/4-x,3/4-y,1/2+z
x,3/4-y,3/4-z
1/4-x,1/2+y,3/4-z
-x,1/2-y,1/2-z
3/4+x,1/4+y,1/2-z
-x,1/4+y,1/4+z
3/4+x,1/2-y,1/4+z
1/2+x,y,1/2+z
3/4-x,1/4-y,1/2+z
1/2+x,1/4-y,3/4-z
3/4-x,y,3/4-z
1/2-x,-y,1/2-z
1/4+x,3/4+y,1/2-z
1/2-x,3/4+y,1/4+z
1/4+x,-y,1/4+z
1/2+x,1/2+y,z
3/4-x,3/4-y,z
1/2+x,3/4-y,1/4-z
3/4-x,1/2+y,1/4-z
1/2-x,1/2-y,-z
1/4+x,1/4+y,-z
1/2-x,1/4+y,3/4+z
1/4+x,1/2-y,3/4+z
loop_
_atom_site_type_symbol
_atom_site_label
_atom_site_fract_x
_atom_site_fract_y
_atom_site_fract_z
Si Si1 0.339369 0.074490 0.711735
Si Si2 0.887393 0.261888 0.933279
Si Si3 0.691426 0.148227 0.893448
Si Si4 0.481159 0.975803 0.215049
Si Si5 0.720887 0.810535 0.824324
O O1 0.308825 0.178678 0.715858
O O2 0.403444 0.089767 0.685776
O O3 0.344445 0.034433 0.772544
O O4 0.298079 0.001252 0.675594
O O5 0.875000 0.210807 0.875000
O O6 0.875000 0.375000 0.929421
O O7 0.954050 0.252541 0.948539
O O8 0.625000 0.125000 0.905289
O O9 0.703916 0.153391 0.829471
O O10 0.728465 0.056781 0.916213
O O11 0.486221 0.919122 0.272942
O O12 0.743837 0.875000 0.875000
#
# Coordination Sequence:
#
# PCOD8286069 Si02
#       5
#    32  32  32  32  32
#     4  10  20  38  62  89 119 159 205 242 303 370
#     4  10  23  36  52  92 132 156 194 249 301 365
#     4  10  21  38  63  89 117 157 207 255 290 361
#     4  11  23  37  65  90 118 168 195 247 313 351
#     4  10  22  40  59  87 120 155 208 252 290 359
#
# _framework density 20.848565000000001
#
# number of rings (size 3 to 8) (size 9 to 14) (size 15 to 20)
#    0.000    1.800    0.000    6.000    8.400    2.400 
#    0.000    0.000    0.000    0.000    0.000    0.000 
#    0.000    0.000    0.000    0.000    0.000    0.000 
#
# Total GULP energy -495891.154579 kJ/mol
# GULP energy per Si atom -12397.278864 kJ/mol
# Density = 2.080111 g / cm^3
# Si number density = 20.848565 Si / 1000 Ang^3
#
#
#
# Elastic Constant Matrix: (Units=GPa)
#
#
# Indices 1 2 3 4 5 6 
#
# 1 28.3754 19.7479 18.2481 0.0000 0.0000 0.0000
# 2 19.7479 40.9498 27.4103 0.0000 0.0000 0.0000
# 3 18.2481 27.4103 170.4000 0.0000 0.0000 0.0000
# 4 0.0000 0.0000 0.0000 36.0070 0.0000 0.0000
# 5 0.0000 0.0000 0.0000 0.0000 31.8665 0.0000
# 6 0.0000 0.0000 0.0000 0.0000 0.0000 11.4986
#
#
#
# Elastic Compliance Matrix: (Units=1/GPa)
#
#
# Indices 1 2 3 4 5 6 
#
# 1 0.053517 -0.024623 -0.001770 0.000000 0.000000 0.000000
# 2 -0.024623 0.038696 -0.003588 0.000000 0.000000 0.000000
# 3 -0.001770 -0.003588 0.006635 0.000000 0.000000 0.000000
# 4 0.000000 0.000000 0.000000 0.027772 0.000000 0.000000
# 5 0.000000 0.000000 0.000000 0.000000 0.031381 0.000000
# 6 0.000000 0.000000 0.000000 0.000000 0.000000 0.086967
#
#
# Mechanical properties :
#
#
# Convention : Reuss Voigt Hill
#
# Bulk Modulus (GPa) = 25.71642 41.17087 33.44365
# Shear Modulus (GPa) = 15.72856 27.49568 21.61212
#
# Velocity S-wave (km/s) = 2.74965 3.63551 3.22316
# Velocity P-wave (km/s) = 4.73734 6.11662 5.47062
#
# Compressibility (1/GPa) = 0.03888566
#
# Stress axis : x y z
#
# Youngs Moduli (GPa) = 18.68568 25.84239 150.71064
#
# Poissons Ratio (x) = 0.63633 0.26679
# Poissons Ratio (y) = 0.46010 0.54070
# Poissons Ratio (z) = 0.03308 0.09271
#
# Static dielectric constant tensor:
#      x y z
#    x 3.564280 0.000000 0.000000 
#    y 0.000000 3.643980 0.000000 
#    z 0.000000 0.000000 4.641170 
# 
# 
# High freq. dielectric constant tensor:
#      x y z
#    x 1.794840 0.000000 0.000000 
#    y 0.000000 1.799120 0.000000 
#    z 0.000000 0.000000 1.840540 
# 
# From -- ./inp_files/28603.got.cif
#   From: 2010.03.12/outbox.cif.g09.slc.cpg/sg70_15_cif.got.tgz:28603.got - 2010.04.16 13:46:32.
