data_PCOD8286523
_publ_section_title
;
Structure prediction by ZEFSAII (Michael W. Deem and Ramdas Pophale) SiO2 
 PCOD8286523
Probable space group: F D D D
;
_chemical_formula_sum "Si O2"
_cell_formula_units_Z 104
_cell_length_a 26.499839
_cell_length_b 15.097021
_cell_length_c 8.854926
_cell_angle_alpha 90.000000
_cell_angle_beta 90.000000
_cell_angle_gamma 90.000000
_cell_volume 3542.578077
_symmetry_space_group_name_H-M "F D D D"
_symmetry_group_IT_number 70
_space_group.IT_coordinate_system_code '2'
_symmetry_cell_setting 'orthorhombic'
loop_
_space_group_symop_operation_xyz
x,y,z
1/4-x,1/4-y,z
x,1/4-y,1/4-z
1/4-x,y,1/4-z
-x,-y,-z
3/4+x,3/4+y,-z
-x,3/4+y,3/4+z
3/4+x,-y,3/4+z
x,1/2+y,1/2+z
1/4-x,3/4-y,1/2+z
x,3/4-y,3/4-z
1/4-x,1/2+y,3/4-z
-x,1/2-y,1/2-z
3/4+x,1/4+y,1/2-z
-x,1/4+y,1/4+z
3/4+x,1/2-y,1/4+z
1/2+x,y,1/2+z
3/4-x,1/4-y,1/2+z
1/2+x,1/4-y,3/4-z
3/4-x,y,3/4-z
1/2-x,-y,1/2-z
1/4+x,3/4+y,1/2-z
1/2-x,3/4+y,1/4+z
1/4+x,-y,1/4+z
1/2+x,1/2+y,z
3/4-x,3/4-y,z
1/2+x,3/4-y,1/4-z
3/4-x,1/2+y,1/4-z
1/2-x,1/2-y,-z
1/4+x,1/4+y,-z
1/2-x,1/4+y,3/4+z
1/4+x,1/2-y,3/4+z
loop_
_atom_site_type_symbol
_atom_site_label
_atom_site_fract_x
_atom_site_fract_y
_atom_site_fract_z
Si Si1 0.918079 0.044795 0.983529
Si Si2 0.426540 0.276064 0.457379
Si Si3 0.625000 0.125000 0.625000
Si Si4 0.010845 0.857533 0.214380
O O1 0.917414 0.054718 0.169629
O O2 0.875000 0.091766 0.875000
O O3 0.971078 0.070766 0.910189
O O4 0.910366 0.937894 0.977690
O O5 0.375000 0.297366 0.375000
O O6 0.450184 0.368973 0.520990
O O7 0.472407 0.240444 0.346711
O O8 0.038856 0.875000 0.375000
#
# Coordination Sequence:
#
# PCOD8286523 Si02
#       4
#    32  32   8  32
#     4  10  23  46  78 112 161 210 273 319 410 483
#     4  12  28  49  79 120 164 214 276 341 405 494
#     4   8  24  40  78 112 164 212 272 312 420 472
#     4  12  27  48  77 114 160 211 272 337 412 485
#
# _framework density 29.357150000000001
#
# number of rings (size 3 to 8) (size 9 to 14) (size 15 to 20)
#    0.923    0.000    0.000    5.538    4.308    3.077 
#    0.000    0.000    0.000    0.000    0.000    0.000 
#    0.000    0.000    0.000    0.000    0.000    0.000 
#
# Total GULP energy -322192.298179 kJ/mol
# GULP energy per Si atom -12392.011468 kJ/mol
# Density = 2.929033 g / cm^3
# Si number density = 29.357150 Si / 1000 Ang^3
#
#
#
# Elastic Constant Matrix: (Units=GPa)
#
#
# Indices 1 2 3 4 5 6 
#
# 1 216.7636 66.0733 93.4026 0.0000 0.0000 0.0000
# 2 66.0733 141.8216 33.7199 0.0000 0.0000 0.0000
# 3 93.4026 33.7199 216.9028 0.0000 0.0000 0.0000
# 4 0.0000 0.0000 0.0000 20.7223 0.0000 0.0000
# 5 0.0000 0.0000 0.0000 0.0000 56.8460 0.0000
# 6 0.0000 0.0000 0.0000 0.0000 0.0000 36.3698
#
#
#
# Elastic Compliance Matrix: (Units=1/GPa)
#
#
# Indices 1 2 3 4 5 6 
#
# 1 0.006366 -0.002403 -0.002368 0.000000 0.000000 0.000000
# 2 -0.002403 0.008229 -0.000245 0.000000 0.000000 0.000000
# 3 -0.002368 -0.000245 0.005668 0.000000 0.000000 0.000000
# 4 0.000000 0.000000 0.000000 0.048257 0.000000 0.000000
# 5 0.000000 0.000000 0.000000 0.000000 0.017591 0.000000
# 6 0.000000 0.000000 0.000000 0.000000 0.000000 0.027495
#
#
# Mechanical properties :
#
#
# Convention : Reuss Voigt Hill
#
# Bulk Modulus (GPa) = 97.72909 106.87550 102.30230
# Shear Modulus (GPa) = 39.35525 48.27376 43.81450
#
# Velocity S-wave (km/s) = 3.66535 4.05947 3.86743
# Velocity P-wave (km/s) = 7.16066 7.64570 7.40715
#
# Compressibility (1/GPa) = 0.01023237
#
# Stress axis : x y z
#
# Youngs Moduli (GPa) = 157.08359 121.52532 176.42950
#
# Poissons Ratio (x) = 0.29201 0.41775
# Poissons Ratio (y) = 0.37746 0.04314
# Poissons Ratio (z) = 0.37194 0.02971
#
# Static dielectric constant tensor:
#      x y z
#    x 4.797170 0.000000 0.000000 
#    y 0.000000 5.640650 0.000000 
#    z 0.000000 0.000000 6.219750 
# 
# 
# High freq. dielectric constant tensor:
#      x y z
#    x 2.173230 0.000000 0.000000 
#    y 0.000000 2.251400 0.000000 
#    z 0.000000 0.000000 2.225150 
# 
# From -- ./inp_files/11708.got.cif
#   From: 2010.03.12/outbox.cif.g09.slc.cpg/sg70_6_cif.got.tgz:11708.got - 2010.04.16 13:46:32.
