data_PCOD8286754
_publ_section_title
;
Structure prediction by ZEFSAII (Michael W. Deem and Ramdas Pophale) SiO2 
 PCOD8286754
Probable space group: F D D D
;
_chemical_formula_sum "Si O2"
_cell_formula_units_Z 136
_cell_length_a 29.054804
_cell_length_b 10.969043
_cell_length_c 18.718968
_cell_angle_alpha 90.000000
_cell_angle_beta 90.000000
_cell_angle_gamma 90.000000
_cell_volume 5965.798642
_symmetry_space_group_name_H-M "F D D D"
_symmetry_group_IT_number 70
_space_group.IT_coordinate_system_code '2'
_symmetry_cell_setting 'orthorhombic'
loop_
_space_group_symop_operation_xyz
x,y,z
1/4-x,1/4-y,z
x,1/4-y,1/4-z
1/4-x,y,1/4-z
-x,-y,-z
3/4+x,3/4+y,-z
-x,3/4+y,3/4+z
3/4+x,-y,3/4+z
x,1/2+y,1/2+z
1/4-x,3/4-y,1/2+z
x,3/4-y,3/4-z
1/4-x,1/2+y,3/4-z
-x,1/2-y,1/2-z
3/4+x,1/4+y,1/2-z
-x,1/4+y,1/4+z
3/4+x,1/2-y,1/4+z
1/2+x,y,1/2+z
3/4-x,1/4-y,1/2+z
1/2+x,1/4-y,3/4-z
3/4-x,y,3/4-z
1/2-x,-y,1/2-z
1/4+x,3/4+y,1/2-z
1/2-x,3/4+y,1/4+z
1/4+x,-y,1/4+z
1/2+x,1/2+y,z
3/4-x,3/4-y,z
1/2+x,3/4-y,1/4-z
3/4-x,1/2+y,1/4-z
1/2-x,1/2-y,-z
1/4+x,1/4+y,-z
1/2-x,1/4+y,3/4+z
1/4+x,1/2-y,3/4+z
loop_
_atom_site_type_symbol
_atom_site_label
_atom_site_fract_x
_atom_site_fract_y
_atom_site_fract_z
Si Si1 0.688513 0.903145 0.292109
Si Si2 0.021316 0.501010 0.578703
Si Si3 0.907840 0.581189 0.777126
Si Si4 0.875000 0.375000 0.875000
Si Si5 0.975306 0.334378 0.042268
O O1 0.684923 0.875000 0.375000
O O2 0.639931 0.872589 0.255536
O O3 0.729310 0.823151 0.257773
O O4 0.696611 0.044902 0.275059
O O5 0.024213 0.625000 0.625000
O O6 0.072621 0.445655 0.571598
O O7 0.000000 0.500000 0.500000
O O8 0.990313 0.408446 0.625119
O O9 0.906638 0.462800 0.827774
O O10 0.944117 0.537111 0.716636
#
# Coordination Sequence:
#
# PCOD8286754 Si02
#       5
#    32  32  32   8  32
#     4  11  25  43  75 112 147 191 256 321 389 470
#     4  12  27  48  77 107 154 209 252 319 393 477
#     4  12  25  46  76 105 151 195 260 315 394 454
#     4  12  24  48  74 108 140 196 246 330 372 456
#     4  11  24  47  72 109 143 201 255 318 388 465
#
# _framework density 22.796612
#
# number of rings (size 3 to 8) (size 9 to 14) (size 15 to 20)
#    0.000    0.471    4.706    2.824    8.235    0.000 
#    0.000    5.294    0.000    0.000    0.000    0.000 
#    0.000    0.000    0.000    0.000    0.000    0.000 
#
# Total GULP energy -421564.469755 kJ/mol
# GULP energy per Si atom -12398.954993 kJ/mol
# Density = 2.274473 g / cm^3
# Si number density = 22.796612 Si / 1000 Ang^3
#
#
#
# Elastic Constant Matrix: (Units=GPa)
#
#
# Indices 1 2 3 4 5 6 
#
# 1 148.8704 41.9831 52.8695 0.0000 0.0000 0.0000
# 2 41.9831 83.4806 35.4646 0.0000 0.0000 0.0000
# 3 52.8695 35.4646 150.1849 0.0000 0.0000 0.0000
# 4 0.0000 0.0000 0.0000 35.1938 0.0000 0.0000
# 5 0.0000 0.0000 0.0000 0.0000 39.3973 0.0000
# 6 0.0000 0.0000 0.0000 0.0000 0.0000 27.9580
#
#
#
# Elastic Compliance Matrix: (Units=1/GPa)
#
#
# Indices 1 2 3 4 5 6 
#
# 1 0.008427 -0.003310 -0.002185 0.000000 0.000000 0.000000
# 2 -0.003310 0.014614 -0.002286 0.000000 0.000000 0.000000
# 3 -0.002185 -0.002286 0.007967 0.000000 0.000000 0.000000
# 4 0.000000 0.000000 0.000000 0.028414 0.000000 0.000000
# 5 0.000000 0.000000 0.000000 0.000000 0.025382 0.000000
# 6 0.000000 0.000000 0.000000 0.000000 0.000000 0.035768
#
#
# Mechanical properties :
#
#
# Convention : Reuss Voigt Hill
#
# Bulk Modulus (GPa) = 64.73546 71.46339 68.09942
# Shear Modulus (GPa) = 35.39002 37.32440 36.35721
#
# Velocity S-wave (km/s) = 3.94436 4.05072 3.99789
# Velocity P-wave (km/s) = 7.01445 7.30028 7.15879
#
# Compressibility (1/GPa) = 0.01544748
#
# Stress axis : x y z
#
# Youngs Moduli (GPa) = 118.67300 68.42570 125.51150
#
# Poissons Ratio (x) = 0.22646 0.27422
# Poissons Ratio (y) = 0.39276 0.28691
# Poissons Ratio (z) = 0.25928 0.15642
#
# Static dielectric constant tensor:
#      x y z
#    x 4.148680 0.000000 0.000000 
#    y 0.000000 4.173410 0.000000 
#    z 0.000000 0.000000 4.304060 
# 
# 
# High freq. dielectric constant tensor:
#      x y z
#    x 1.904650 0.000000 0.000000 
#    y 0.000000 1.894960 0.000000 
#    z 0.000000 0.000000 1.914690 
# 
# From -- ./inp_files/41975.got.cif
#   From: 2010.03.12/outbox.cif.g09.slc.cpg/sg70_21_cif.got.tgz:41975.got - 2010.04.16 13:46:32.
