data_PCOD8286099
_publ_section_title
;
Structure prediction by ZEFSAII (Michael W. Deem and Ramdas Pophale) SiO2 
 PCOD8286099
Probable space group: F D D D
;
_chemical_formula_sum "Si O2"
_cell_formula_units_Z 160
_cell_length_a 27.172330
_cell_length_b 12.099016
_cell_length_c 22.757948
_cell_angle_alpha 90.000000
_cell_angle_beta 90.000000
_cell_angle_gamma 90.000000
_cell_volume 7481.867833
_symmetry_space_group_name_H-M "F D D D"
_symmetry_group_IT_number 70
_space_group.IT_coordinate_system_code '2'
_symmetry_cell_setting 'orthorhombic'
loop_
_space_group_symop_operation_xyz
x,y,z
1/4-x,1/4-y,z
x,1/4-y,1/4-z
1/4-x,y,1/4-z
-x,-y,-z
3/4+x,3/4+y,-z
-x,3/4+y,3/4+z
3/4+x,-y,3/4+z
x,1/2+y,1/2+z
1/4-x,3/4-y,1/2+z
x,3/4-y,3/4-z
1/4-x,1/2+y,3/4-z
-x,1/2-y,1/2-z
3/4+x,1/4+y,1/2-z
-x,1/4+y,1/4+z
3/4+x,1/2-y,1/4+z
1/2+x,y,1/2+z
3/4-x,1/4-y,1/2+z
1/2+x,1/4-y,3/4-z
3/4-x,y,3/4-z
1/2-x,-y,1/2-z
1/4+x,3/4+y,1/2-z
1/2-x,3/4+y,1/4+z
1/4+x,-y,1/4+z
1/2+x,1/2+y,z
3/4-x,3/4-y,z
1/2+x,3/4-y,1/4-z
3/4-x,1/2+y,1/4-z
1/2-x,1/2-y,-z
1/4+x,1/4+y,-z
1/2-x,1/4+y,3/4+z
1/4+x,1/2-y,3/4+z
loop_
_atom_site_type_symbol
_atom_site_label
_atom_site_fract_x
_atom_site_fract_y
_atom_site_fract_z
Si Si1 0.825240 0.083430 0.004236
Si Si2 0.375000 0.375000 0.778514
Si Si3 0.730163 0.389596 0.109222
Si Si4 0.706647 0.625000 0.125000
Si Si5 0.276001 0.944292 0.934315
Si Si6 0.674016 0.075000 0.290381
O O1 0.775471 0.041833 0.033556
O O2 0.841329 0.197467 0.033646
O O3 0.815087 0.110819 0.936065
O O4 0.866534 0.986432 0.010577
O O5 0.326348 0.388334 0.817224
O O6 0.741701 0.517362 0.124428
O O7 0.710447 0.320020 0.165401
O O8 0.779236 0.332725 0.083147
O O9 0.272205 0.875000 0.875000
O O10 0.314887 0.886929 0.978348
O O11 0.625000 0.125000 0.319485
#
# Coordination Sequence:
#
# PCOD8286099 Si02
#       6
#    32  16  32  16  32  32
#     4  10  20  39  58  83 124 151 191 247 297 344
#     4   9  20  38  58  90 118 154 196 244 285 346
#     4  10  20  41  59  83 118 157 196 238 302 358
#     4   9  20  38  64  84 118 160 194 240 290 355
#     4  11  19  38  63  82 110 162 195 234 306 351
#     4  11  23  37  58  89 121 145 194 262 288 342
#
# _framework density 21.385034000000001
#
# number of rings (size 3 to 8) (size 9 to 14) (size 15 to 20)
#    0.000    1.800    4.000    1.200    2.800    0.400 
#    5.400    3.000    0.000    0.000    0.000    0.000 
#    0.000    0.000    0.000    0.000    0.000    0.000 
#
# Total GULP energy -495733.977296 kJ/mol
# GULP energy per Si atom -12393.349432 kJ/mol
# Density = 2.133636 g / cm^3
# Si number density = 21.385034 Si / 1000 Ang^3
#
#
#
# Elastic Constant Matrix: (Units=GPa)
#
#
# Indices 1 2 3 4 5 6 
#
# 1 61.5383 39.8073 -1.3663 0.0000 0.0000 0.0000
# 2 39.8073 200.3806 15.8002 0.0000 0.0000 0.0000
# 3 -1.3663 15.8002 33.9045 0.0000 0.0000 0.0000
# 4 0.0000 0.0000 0.0000 32.0025 0.0000 0.0000
# 5 0.0000 0.0000 0.0000 0.0000 3.6550 0.0000
# 6 0.0000 0.0000 0.0000 0.0000 0.0000 39.5015
#
#
#
# Elastic Compliance Matrix: (Units=1/GPa)
#
#
# Indices 1 2 3 4 5 6 
#
# 1 0.018865 -0.003953 0.002602 0.000000 0.000000 0.000000
# 2 -0.003953 0.006009 -0.002960 0.000000 0.000000 0.000000
# 3 0.002602 -0.002960 0.030979 0.000000 0.000000 0.000000
# 4 0.000000 0.000000 0.000000 0.031248 0.000000 0.000000
# 5 0.000000 0.000000 0.000000 0.000000 0.273597 0.000000
# 6 0.000000 0.000000 0.000000 0.000000 0.000000 0.025315
#
#
# Mechanical properties :
#
#
# Convention : Reuss Voigt Hill
#
# Bulk Modulus (GPa) = 21.17197 44.92289 33.04743
# Shear Modulus (GPa) = 12.18391 31.13727 21.66059
#
# Velocity S-wave (km/s) = 2.38951 3.81994 3.18604
# Velocity P-wave (km/s) = 4.18747 6.36460 5.38716
#
# Compressibility (1/GPa) = 0.04723226
#
# Stress axis : x y z
#
# Youngs Moduli (GPa) = 53.00875 166.41305 32.28021
#
# Poissons Ratio (x) = 0.65781 -0.08400
# Poissons Ratio (y) = 0.20954 0.09554
# Poissons Ratio (z) = -0.13795 0.49253
#
# Static dielectric constant tensor:
#      x y z
#    x 3.514570 0.000000 0.000000 
#    y 0.000000 4.432060 0.000000 
#    z 0.000000 0.000000 3.896280 
# 
# 
# High freq. dielectric constant tensor:
#      x y z
#    x 1.805550 0.000000 0.000000 
#    y 0.000000 1.863460 0.000000 
#    z 0.000000 0.000000 1.820300 
# 
# From -- ./inp_files/21109.got.cif
#   From: 2010.03.12/outbox.cif.g09.slc.cpg/sg70_11_cif.got.tgz:21109.got - 2010.04.16 13:46:32.
