data_PCOD8286859
_publ_section_title
;
Structure prediction by ZEFSAII (Michael W. Deem and Ramdas Pophale) SiO2 
 PCOD8286859
Probable space group: F D D D
;
_chemical_formula_sum "Si O2"
_cell_formula_units_Z 120
_cell_length_a 29.306315
_cell_length_b 8.392491
_cell_length_c 21.025287
_cell_angle_alpha 90.000000
_cell_angle_beta 90.000000
_cell_angle_gamma 90.000000
_cell_volume 5171.232096
_symmetry_space_group_name_H-M "F D D D"
_symmetry_group_IT_number 70
_space_group.IT_coordinate_system_code '2'
_symmetry_cell_setting 'orthorhombic'
loop_
_space_group_symop_operation_xyz
x,y,z
1/4-x,1/4-y,z
x,1/4-y,1/4-z
1/4-x,y,1/4-z
-x,-y,-z
3/4+x,3/4+y,-z
-x,3/4+y,3/4+z
3/4+x,-y,3/4+z
x,1/2+y,1/2+z
1/4-x,3/4-y,1/2+z
x,3/4-y,3/4-z
1/4-x,1/2+y,3/4-z
-x,1/2-y,1/2-z
3/4+x,1/4+y,1/2-z
-x,1/4+y,1/4+z
3/4+x,1/2-y,1/4+z
1/2+x,y,1/2+z
3/4-x,1/4-y,1/2+z
1/2+x,1/4-y,3/4-z
3/4-x,y,3/4-z
1/2-x,-y,1/2-z
1/4+x,3/4+y,1/2-z
1/2-x,3/4+y,1/4+z
1/4+x,-y,1/4+z
1/2+x,1/2+y,z
3/4-x,3/4-y,z
1/2+x,3/4-y,1/4-z
3/4-x,1/2+y,1/4-z
1/2-x,1/2-y,-z
1/4+x,1/4+y,-z
1/2-x,1/4+y,3/4+z
1/4+x,1/2-y,3/4+z
loop_
_atom_site_type_symbol
_atom_site_label
_atom_site_fract_x
_atom_site_fract_y
_atom_site_fract_z
Si Si1 0.892140 0.547376 0.690945
Si Si2 0.125000 0.125000 0.125000
Si Si3 0.791163 0.875000 0.375000
Si Si4 0.320701 0.107617 0.461454
Si Si5 0.736089 0.932895 0.011805
O O1 0.907080 0.625000 0.625000
O O2 0.875000 0.375000 0.672958
O O3 0.850467 0.640027 0.724428
O O4 0.934925 0.544209 0.737801
O O5 0.091569 0.228536 0.083977
O O6 0.821369 0.780237 0.427110
O O7 0.762345 0.739376 0.336274
O O8 0.269136 0.054245 0.475372
O O9 0.750000 0.750000 0.000000
#
# Coordination Sequence:
#
# PCOD8286859 Si02
#       5
#    32   8  16  32  32
#     4  12  30  49  76 113 157 204 261 323 398 476
#     4  12  28  46  80 110 156 200 268 326 384 478
#     4  12  26  49  80 105 160 201 272 328 400 481
#     4  12  27  50  76 115 149 212 257 332 395 468
#     4  12  29  48  80 116 156 208 267 331 404 481
#
# _framework density 23.205302
#
# number of rings (size 3 to 8) (size 9 to 14) (size 15 to 20)
#    0.000    0.000    2.667    5.600   13.067    1.067 
#    0.000    0.000    0.000    0.000    0.000    0.000 
#    0.000    0.000    0.000    0.000    0.000    0.000 
#
# Total GULP energy -372052.562981 kJ/mol
# GULP energy per Si atom -12401.752099 kJ/mol
# Density = 2.315249 g / cm^3
# Si number density = 23.205302 Si / 1000 Ang^3
#
#
#
# Elastic Constant Matrix: (Units=GPa)
#
#
# Indices 1 2 3 4 5 6 
#
# 1 98.4240 52.3376 26.1122 0.0000 0.0000 0.0000
# 2 52.3376 137.0848 62.1024 0.0000 0.0000 -0.0001
# 3 26.1122 62.1024 133.8232 0.0000 0.0000 0.0000
# 4 0.0000 0.0000 0.0000 47.1595 0.0000 0.0000
# 5 0.0000 0.0000 0.0000 0.0000 29.2084 0.0000
# 6 0.0000 -0.0001 0.0000 0.0000 0.0000 44.4445
#
#
#
# Elastic Compliance Matrix: (Units=1/GPa)
#
#
# Indices 1 2 3 4 5 6 
#
# 1 0.012757 -0.004739 -0.000290 0.000000 0.000000 0.000000
# 2 -0.004739 0.010997 -0.004179 0.000000 0.000000 0.000000
# 3 -0.000290 -0.004179 0.009468 0.000000 0.000000 0.000000
# 4 0.000000 0.000000 0.000000 0.021205 0.000000 0.000000
# 5 0.000000 0.000000 0.000000 0.000000 0.034237 0.000000
# 6 0.000000 0.000000 0.000000 0.000000 0.000000 0.022500
#
#
# Mechanical properties :
#
#
# Convention : Reuss Voigt Hill
#
# Bulk Modulus (GPa) = 67.53560 72.27070 69.90315
# Shear Modulus (GPa) = 37.17055 39.41447 38.29251
#
# Velocity S-wave (km/s) = 4.00661 4.12577 4.06663
# Velocity P-wave (km/s) = 7.11130 7.34218 7.22766
#
# Compressibility (1/GPa) = 0.01480701
#
# Stress axis : x y z
#
# Youngs Moduli (GPa) = 78.38749 90.93272 105.61596
#
# Poissons Ratio (x) = 0.43095 0.03062
# Poissons Ratio (y) = 0.37149 0.44133
# Poissons Ratio (z) = 0.02273 0.37997
#
# Static dielectric constant tensor:
#      x y z
#    x 4.301350 0.000000 0.000000 
#    y 0.000000 4.046130 0.000000 
#    z 0.000000 0.000000 4.365860 
# 
# 
# High freq. dielectric constant tensor:
#      x y z
#    x 1.918520 0.000000 0.000000 
#    y 0.000000 1.938640 0.000000 
#    z 0.000000 0.000000 1.930840 
# 
# From -- ./inp_files/60847.got.cif
#   From: 2010.03.12/outbox.cif.g09.slc.cpg/sg70_31_cif.got.tgz:60847.got - 2010.04.16 13:46:32.
