data_PCOD8286389
_publ_section_title
;
Structure prediction by ZEFSAII (Michael W. Deem and Ramdas Pophale) SiO2 
 PCOD8286389
Probable space group: F D D D
;
_chemical_formula_sum "Si O2"
_cell_formula_units_Z 128
_cell_length_a 9.964984
_cell_length_b 23.294866
_cell_length_c 27.972231
_cell_angle_alpha 90.000000
_cell_angle_beta 90.000000
_cell_angle_gamma 90.000000
_cell_volume 6493.276975
_symmetry_space_group_name_H-M "F D D D"
_symmetry_group_IT_number 70
_space_group.IT_coordinate_system_code '2'
_symmetry_cell_setting 'orthorhombic'
loop_
_space_group_symop_operation_xyz
x,y,z
1/4-x,1/4-y,z
x,1/4-y,1/4-z
1/4-x,y,1/4-z
-x,-y,-z
3/4+x,3/4+y,-z
-x,3/4+y,3/4+z
3/4+x,-y,3/4+z
x,1/2+y,1/2+z
1/4-x,3/4-y,1/2+z
x,3/4-y,3/4-z
1/4-x,1/2+y,3/4-z
-x,1/2-y,1/2-z
3/4+x,1/4+y,1/2-z
-x,1/4+y,1/4+z
3/4+x,1/2-y,1/4+z
1/2+x,y,1/2+z
3/4-x,1/4-y,1/2+z
1/2+x,1/4-y,3/4-z
3/4-x,y,3/4-z
1/2-x,-y,1/2-z
1/4+x,3/4+y,1/2-z
1/2-x,3/4+y,1/4+z
1/4+x,-y,1/4+z
1/2+x,1/2+y,z
3/4-x,3/4-y,z
1/2+x,3/4-y,1/4-z
3/4-x,1/2+y,1/4-z
1/2-x,1/2-y,-z
1/4+x,1/4+y,-z
1/2-x,1/4+y,3/4+z
1/4+x,1/2-y,3/4+z
loop_
_atom_site_type_symbol
_atom_site_label
_atom_site_fract_x
_atom_site_fract_y
_atom_site_fract_z
Si Si1 0.177090 0.561686 0.798659
Si Si2 0.528194 0.489207 0.865109
Si Si3 0.176666 0.375000 0.375000
Si Si4 0.217383 0.970305 0.014826
Si Si5 0.125000 0.625000 0.042441
O O1 0.125000 0.625000 0.793056
O O2 0.167510 0.542546 0.853852
O O3 0.075689 0.522116 0.769045
O O4 0.331053 0.561456 0.780908
O O5 0.375000 0.478493 0.875000
O O6 0.592030 0.431345 0.886290
O O7 0.550161 0.503162 0.809431
O O8 0.257494 0.355193 0.421982
O O9 0.321731 0.927217 0.989818
#
# Coordination Sequence:
#
# PCOD8286389 Si02
#       5
#    32  32  16  32  16
#     4  10  22  42  64  94 126 164 215 268 316 383
#     4  10  22  41  66  94 121 168 215 264 316 381
#     4  11  23  42  64  88 135 163 214 266 316 385
#     4  10  23  41  64  93 126 166 216 258 323 390
#     4  11  24  42  58  96 132 164 210 266 319 392
#
# _framework density 19.712696999999999
#
# number of rings (size 3 to 8) (size 9 to 14) (size 15 to 20)
#    0.000    1.750    2.500    0.375    5.250    1.000 
#    0.000    0.000    0.000    0.000    0.000    0.000 
#    0.000    0.000    0.000    0.000    0.000    0.000 
#
# Total GULP energy -396686.419589 kJ/mol
# GULP energy per Si atom -12396.450612 kJ/mol
# Density = 1.966783 g / cm^3
# Si number density = 19.712697 Si / 1000 Ang^3
#
#
#
# Elastic Constant Matrix: (Units=GPa)
#
#
# Indices 1 2 3 4 5 6 
#
# 1 59.2919 72.4681 57.6042 0.0000 0.0000 0.0000
# 2 72.4681 148.7058 55.5992 0.0000 0.0000 0.0000
# 3 57.6042 55.5992 141.4485 0.0000 0.0000 0.0000
# 4 0.0000 0.0000 0.0000 26.7004 0.0000 0.0000
# 5 0.0000 0.0000 0.0000 0.0000 5.1820 0.0000
# 6 0.0000 0.0000 0.0000 0.0000 0.0000 38.0750
#
#
#
# Elastic Compliance Matrix: (Units=1/GPa)
#
#
# Indices 1 2 3 4 5 6 
#
# 1 0.061493 -0.024154 -0.015549 0.000000 0.000000 0.000000
# 2 -0.024154 0.017370 0.003009 0.000000 0.000000 0.000000
# 3 -0.015549 0.003009 0.012219 0.000000 0.000000 0.000000
# 4 0.000000 0.000000 0.000000 0.037453 0.000000 0.000000
# 5 0.000000 0.000000 0.000000 0.000000 0.192976 0.000000
# 6 0.000000 0.000000 0.000000 0.000000 0.000000 0.026264
#
#
# Mechanical properties :
#
#
# Convention : Reuss Voigt Hill
#
# Bulk Modulus (GPa) = 56.51193 80.08769 68.29981
# Shear Modulus (GPa) = 11.70793 24.90980 18.30886
#
# Velocity S-wave (km/s) = 2.43971 3.55863 3.05090
# Velocity P-wave (km/s) = 6.05527 7.58952 6.86539
#
# Compressibility (1/GPa) = 0.01769538
#
# Stress axis : x y z
#
# Youngs Moduli (GPa) = 16.26201 57.56894 81.83829
#
# Poissons Ratio (x) = 1.39050 1.27248
# Poissons Ratio (y) = 0.39279 -0.24622
# Poissons Ratio (z) = 0.25285 -0.17320
#
# Static dielectric constant tensor:
#      x y z
#    x 3.615000 0.000000 0.000000 
#    y 0.000000 3.668360 0.000000 
#    z 0.000000 0.000000 4.313340 
# 
# 
# High freq. dielectric constant tensor:
#      x y z
#    x 1.764540 0.000000 0.000000 
#    y 0.000000 1.764840 0.000000 
#    z 0.000000 0.000000 1.785850 
# 
# From -- ./inp_files/57357.got.cif
#   From: 2010.03.12/outbox.cif.g09.slc.cpg/sg70_29_cif.got.tgz:57357.got - 2010.04.16 13:46:32.
