data_PCOD8286029
_publ_section_title
;
Structure prediction by ZEFSAII (Michael W. Deem and Ramdas Pophale) SiO2 
 PCOD8286029
Probable space group: F D D D
;
_chemical_formula_sum "Si O2"
_cell_formula_units_Z 136
_cell_length_a 24.755736
_cell_length_b 28.402076
_cell_length_c 9.426608
_cell_angle_alpha 90.000000
_cell_angle_beta 90.000000
_cell_angle_gamma 90.000000
_cell_volume 6627.982841
_symmetry_space_group_name_H-M "F D D D"
_symmetry_group_IT_number 70
_space_group.IT_coordinate_system_code '2'
_symmetry_cell_setting 'orthorhombic'
loop_
_space_group_symop_operation_xyz
x,y,z
1/4-x,1/4-y,z
x,1/4-y,1/4-z
1/4-x,y,1/4-z
-x,-y,-z
3/4+x,3/4+y,-z
-x,3/4+y,3/4+z
3/4+x,-y,3/4+z
x,1/2+y,1/2+z
1/4-x,3/4-y,1/2+z
x,3/4-y,3/4-z
1/4-x,1/2+y,3/4-z
-x,1/2-y,1/2-z
3/4+x,1/4+y,1/2-z
-x,1/4+y,1/4+z
3/4+x,1/2-y,1/4+z
1/2+x,y,1/2+z
3/4-x,1/4-y,1/2+z
1/2+x,1/4-y,3/4-z
3/4-x,y,3/4-z
1/2-x,-y,1/2-z
1/4+x,3/4+y,1/2-z
1/2-x,3/4+y,1/4+z
1/4+x,-y,1/4+z
1/2+x,1/2+y,z
3/4-x,3/4-y,z
1/2+x,3/4-y,1/4-z
3/4-x,1/2+y,1/4-z
1/2-x,1/2-y,-z
1/4+x,1/4+y,-z
1/2-x,1/4+y,3/4+z
1/4+x,1/2-y,3/4+z
loop_
_atom_site_type_symbol
_atom_site_label
_atom_site_fract_x
_atom_site_fract_y
_atom_site_fract_z
Si Si1 0.307946 0.177235 0.627005
Si Si2 0.625000 0.784707 0.625000
Si Si3 0.299649 0.955096 0.290850
Si Si4 0.125000 0.286025 0.125000
Si Si5 0.125000 0.625000 0.625000
Si Si6 0.520971 0.743698 0.489570
O O1 0.282030 0.125000 0.625000
O O2 0.342311 0.183190 0.484141
O O3 0.346272 0.180334 0.763236
O O4 0.262258 0.218094 0.634129
O O5 0.581621 0.752642 0.541606
O O6 0.335742 0.908230 0.284151
O O7 0.268504 0.956429 0.141426
O O8 0.335325 0.002219 0.287868
O O9 0.259690 0.958725 0.429707
#
# Coordination Sequence:
#
# PCOD8286029 Si02
#       6
#    32  16  32  16   8  32
#     4  11  23  39  61  92 121 158 210 261 303 369
#     4  12  23  42  64  90 121 173 204 246 318 385
#     4   9  19  39  63  93 119 166 203 253 305 375
#     4   9  17  39  64  78 123 165 200 243 318 370
#     4  10  20  36  70 102 120 152 224 264 292 356
#     4  10  22  41  63  86 129 166 200 248 323 372
#
# _framework density 20.519064
#
# number of rings (size 3 to 8) (size 9 to 14) (size 15 to 20)
#    0.000    1.882    2.353    1.412    0.000    1.882 
#    6.353    0.000    0.000    0.000    0.000    0.000 
#    0.000    0.000    0.000    0.000    0.000    0.000 
#
# Total GULP energy -421357.450929 kJ/mol
# GULP energy per Si atom -12392.866204 kJ/mol
# Density = 2.047236 g / cm^3
# Si number density = 20.519064 Si / 1000 Ang^3
#
#
#
# Elastic Constant Matrix: (Units=GPa)
#
#
# Indices 1 2 3 4 5 6 
#
# 1 113.1285 37.4242 32.2975 0.0068 -0.0076 -0.0064
# 2 37.4242 97.7487 40.2034 0.0065 -0.0064 -0.0056
# 3 32.2975 40.2034 80.8139 0.0268 -0.0301 -0.0242
# 4 0.0068 0.0065 0.0268 19.1857 -0.0146 -0.0131
# 5 -0.0076 -0.0064 -0.0301 -0.0146 35.8441 0.0130
# 6 -0.0064 -0.0056 -0.0242 -0.0131 0.0130 25.4039
#
#
#
# Elastic Compliance Matrix: (Units=1/GPa)
#
#
# Indices 1 2 3 4 5 6 
#
# 1 0.010598 -0.002911 -0.002787 0.000001 -0.000001 -0.000001
# 2 -0.002911 0.013662 -0.005633 0.000004 -0.000003 -0.000003
# 3 -0.002787 -0.005633 0.016290 -0.000020 0.000012 0.000014
# 4 0.000001 0.000004 -0.000020 0.052122 0.000021 0.000027
# 5 -0.000001 -0.000003 0.000012 0.000021 0.027899 -0.000014
# 6 -0.000001 -0.000003 0.000014 0.000027 -0.000014 0.039364
#
#
# Mechanical properties :
#
#
# Convention : Reuss Voigt Hill
#
# Bulk Modulus (GPa) = 55.90562 56.83792 56.37177
# Shear Modulus (GPa) = 26.51660 28.20446 27.36053
#
# Velocity S-wave (km/s) = 3.59874 3.71151 3.65556
# Velocity P-wave (km/s) = 6.67629 6.79171 6.73424
#
# Compressibility (1/GPa) = 0.01788729
#
# Stress axis : x y z
#
# Youngs Moduli (GPa) = 94.35423 73.19720 61.38593
#
# Poissons Ratio (x) = 0.21310 0.17110
# Poissons Ratio (y) = 0.27469 0.34578
# Poissons Ratio (z) = 0.26300 0.41232
#
# Static dielectric constant tensor:
#      x y z
#    x 3.929860 0.000000 0.000020 
#    y 0.000000 3.396220 -0.000010 
#    z 0.000020 -0.000010 3.729770 
# 
# 
# High freq. dielectric constant tensor:
#      x y z
#    x 1.813660 0.000000 0.000000 
#    y 0.000000 1.772410 0.000000 
#    z 0.000000 0.000000 1.803230 
# 
# From -- ./inp_files/11093.got.cif
#   From: 2010.03.12/outbox.cif.g09.slc.cpg/sg70_6_cif.got.tgz:11093.got - 2010.04.16 13:46:32.
