data_PCOD8286294
_publ_section_title
;
Structure prediction by ZEFSAII (Michael W. Deem and Ramdas Pophale) SiO2 
 PCOD8286294
Probable space group: F D D D
;
_chemical_formula_sum "Si O2"
_cell_formula_units_Z 160
_cell_length_a 22.588057
_cell_length_b 11.566050
_cell_length_c 25.726652
_cell_angle_alpha 90.000000
_cell_angle_beta 90.000000
_cell_angle_gamma 90.000000
_cell_volume 6721.206092
_symmetry_space_group_name_H-M "F D D D"
_symmetry_group_IT_number 70
_space_group.IT_coordinate_system_code '2'
_symmetry_cell_setting 'orthorhombic'
loop_
_space_group_symop_operation_xyz
x,y,z
1/4-x,1/4-y,z
x,1/4-y,1/4-z
1/4-x,y,1/4-z
-x,-y,-z
3/4+x,3/4+y,-z
-x,3/4+y,3/4+z
3/4+x,-y,3/4+z
x,1/2+y,1/2+z
1/4-x,3/4-y,1/2+z
x,3/4-y,3/4-z
1/4-x,1/2+y,3/4-z
-x,1/2-y,1/2-z
3/4+x,1/4+y,1/2-z
-x,1/4+y,1/4+z
3/4+x,1/2-y,1/4+z
1/2+x,y,1/2+z
3/4-x,1/4-y,1/2+z
1/2+x,1/4-y,3/4-z
3/4-x,y,3/4-z
1/2-x,-y,1/2-z
1/4+x,3/4+y,1/2-z
1/2-x,3/4+y,1/4+z
1/4+x,-y,1/4+z
1/2+x,1/2+y,z
3/4-x,3/4-y,z
1/2+x,3/4-y,1/4-z
3/4-x,1/2+y,1/4-z
1/2-x,1/2-y,-z
1/4+x,1/4+y,-z
1/2-x,1/4+y,3/4+z
1/4+x,1/2-y,3/4+z
loop_
_atom_site_type_symbol
_atom_site_label
_atom_site_fract_x
_atom_site_fract_y
_atom_site_fract_z
Si Si1 0.529035 0.717297 0.669024
Si Si2 0.911081 0.721680 0.231704
Si Si3 0.903949 0.755014 0.612512
Si Si4 0.868930 0.996164 0.960162
Si Si5 0.288278 0.710995 0.379187
O O1 0.540981 0.625000 0.625000
O O2 0.461513 0.724730 0.687327
O O3 0.571551 0.697280 0.719379
O O4 0.547883 0.833691 0.641891
O O5 0.852342 0.765852 0.200994
O O6 0.904421 0.589256 0.249229
O O7 0.876323 0.625000 0.625000
O O8 0.970707 0.750148 0.632665
O O9 0.875000 0.875000 0.636258
O O10 0.875000 0.875000 0.991348
O O11 0.931690 0.036168 0.935865
O O12 0.822419 0.962573 0.913951
#
# Coordination Sequence:
#
# PCOD8286294 Si02
#       5
#    32  32  32  32  32
#     4  10  21  43  69  97 139 183 232 293 359 435
#     4  10  23  41  66 101 139 181 230 297 357 429
#     4  12  25  43  67 101 145 192 235 294 367 431
#     4  10  21  43  69  96 133 176 236 299 356 424
#     4  10  21  42  69  96 132 181 233 294 361 420
#
# _framework density 23.805251999999999
#
# number of rings (size 3 to 8) (size 9 to 14) (size 15 to 20)
#    0.000    1.600    2.000    3.000    0.000    2.400 
#    0.000    9.000    0.000    0.000    0.000    0.000 
#    0.000    0.000    0.000    0.000    0.000    0.000 
#
# Total GULP energy -495566.568135 kJ/mol
# GULP energy per Si atom -12389.164203 kJ/mol
# Density = 2.375107 g / cm^3
# Si number density = 23.805252 Si / 1000 Ang^3
#
#
#
# Elastic Constant Matrix: (Units=GPa)
#
#
# Indices 1 2 3 4 5 6 
#
# 1 110.2781 16.3631 26.8889 0.0000 0.0000 0.0000
# 2 16.3631 97.0639 26.1869 0.0000 0.0000 0.0000
# 3 26.8889 26.1869 91.9734 0.0000 0.0000 0.0000
# 4 0.0000 0.0000 0.0000 19.8639 0.0000 0.0000
# 5 0.0000 0.0000 0.0000 0.0000 -292.2020 0.0000
# 6 0.0000 0.0000 0.0000 0.0000 0.0000 30.2696
#
#
#
# Elastic Compliance Matrix: (Units=1/GPa)
#
#
# Indices 1 2 3 4 5 6 
#
# 1 0.009845 -0.000957 -0.002606 0.000000 0.000000 0.000000
# 2 -0.000957 0.011253 -0.002924 0.000000 0.000000 0.000000
# 3 -0.002606 -0.002924 0.012467 0.000000 0.000000 0.000000
# 4 0.000000 0.000000 0.000000 0.050342 0.000000 0.000000
# 5 0.000000 0.000000 0.000000 0.000000 -0.003422 0.000000
# 6 0.000000 0.000000 0.000000 0.000000 0.000000 0.033036
#
#
# Mechanical properties :
#
#
# Convention : Reuss Voigt Hill
#
# Bulk Modulus (GPa) = 48.56365 48.68813 48.62589
# Shear Modulus (GPa) = 37.49270 -33.08858 2.20206
#
# Velocity S-wave (km/s) = 3.97290 -3.73227 0.96283
# Velocity P-wave (km/s) = 6.44127 1.38705 4.65907
#
# Compressibility (1/GPa) = 0.02059153
#
# Stress axis : x y z
#
# Youngs Moduli (GPa) = 101.57089 88.86760 80.21080
#
# Poissons Ratio (x) = 0.08502 0.20902
# Poissons Ratio (y) = 0.09717 0.23455
# Poissons Ratio (z) = 0.26469 0.25987
#
# Static dielectric constant tensor:
#      x y z
#    x 4.189250 0.000000 0.000000 
#    y 0.000000 5.331590 0.000000 
#    z 0.000000 0.000000 4.327270 
# 
# 
# High freq. dielectric constant tensor:
#      x y z
#    x 1.933500 0.000000 0.000000 
#    y 0.000000 1.968450 0.000000 
#    z 0.000000 0.000000 1.926400 
# 
# From -- ./inp_files/67711.got.cif
#   From: 2010.03.12/outbox.cif.g09.slc.cpg/sg70_34_cif.got.tgz:67711.got - 2010.04.16 13:46:32.
