data_PCOD8286033
_publ_section_title
;
Structure prediction by ZEFSAII (Michael W. Deem and Ramdas Pophale) SiO2 
 PCOD8286033
Probable space group: F D D D
;
_chemical_formula_sum "Si O2"
_cell_formula_units_Z 208
_cell_length_a 21.358170
_cell_length_b 28.267967
_cell_length_c 15.811376
_cell_angle_alpha 90.000000
_cell_angle_beta 90.000000
_cell_angle_gamma 90.000000
_cell_volume 9546.150590
_symmetry_space_group_name_H-M "F D D D"
_symmetry_group_IT_number 70
_space_group.IT_coordinate_system_code '2'
_symmetry_cell_setting 'orthorhombic'
loop_
_space_group_symop_operation_xyz
x,y,z
1/4-x,1/4-y,z
x,1/4-y,1/4-z
1/4-x,y,1/4-z
-x,-y,-z
3/4+x,3/4+y,-z
-x,3/4+y,3/4+z
3/4+x,-y,3/4+z
x,1/2+y,1/2+z
1/4-x,3/4-y,1/2+z
x,3/4-y,3/4-z
1/4-x,1/2+y,3/4-z
-x,1/2-y,1/2-z
3/4+x,1/4+y,1/2-z
-x,1/4+y,1/4+z
3/4+x,1/2-y,1/4+z
1/2+x,y,1/2+z
3/4-x,1/4-y,1/2+z
1/2+x,1/4-y,3/4-z
3/4-x,y,3/4-z
1/2-x,-y,1/2-z
1/4+x,3/4+y,1/2-z
1/2-x,3/4+y,1/4+z
1/4+x,-y,1/4+z
1/2+x,1/2+y,z
3/4-x,3/4-y,z
1/2+x,3/4-y,1/4-z
3/4-x,1/2+y,1/4-z
1/2-x,1/2-y,-z
1/4+x,1/4+y,-z
1/2-x,1/4+y,3/4+z
1/4+x,1/2-y,3/4+z
loop_
_atom_site_type_symbol
_atom_site_label
_atom_site_fract_x
_atom_site_fract_y
_atom_site_fract_z
Si Si1 0.541303 0.746816 0.991492
Si Si2 0.789125 0.819601 0.499657
Si Si3 0.625000 0.906557 0.625000
Si Si4 0.380592 0.927429 0.593575
Si Si5 0.194597 0.392678 0.464513
Si Si6 0.557006 0.984010 0.106322
Si Si7 0.487696 0.528652 0.915519
O O1 0.602480 0.715602 0.971486
O O2 0.554225 0.800756 0.964850
O O3 0.482684 0.726594 0.940908
O O4 0.524978 0.741495 0.090072
O O5 0.844299 0.821815 0.567476
O O6 0.765487 0.871625 0.471361
O O7 0.725406 0.794500 0.531063
O O8 0.813230 0.789365 0.419806
O O9 0.655268 0.875967 0.548291
O O10 0.572934 0.938261 0.577238
O O11 0.375000 0.875000 0.553830
O O12 0.453085 0.938984 0.609231
O O13 0.164621 0.375000 0.375000
O O14 0.625000 0.962642 0.125000
O O15 0.500000 0.500000 0.000000
#
# Coordination Sequence:
#
# PCOD8286033 Si02
#       7
#    32  32  16  32  32  32  32
#     4  10  22  41  64  95 129 171 223 271 329 402
#     4  10  22  38  62  97 132 172 213 263 336 401
#     4  10  24  40  62  94 127 168 231 274 336 404
#     4  11  23  43  68  95 137 174 220 282 341 404
#     4  11  21  42  67  94 133 176 219 277 335 413
#     4  10  20  37  59  96 134 171 207 264 322 397
#     4  11  22  43  67  93 128 178 220 282 339 397
#
# _framework density 21.788888
#
# number of rings (size 3 to 8) (size 9 to 14) (size 15 to 20)
#    0.000    1.538    1.538    4.615    1.077    0.000 
#    2.769    2.308    0.000    0.000    0.000    0.000 
#    0.000    0.000    0.000    0.000    0.000    0.000 
#
# Total GULP energy -644689.501063 kJ/mol
# GULP energy per Si atom -12397.875020 kJ/mol
# Density = 2.173930 g / cm^3
# Si number density = 21.788888 Si / 1000 Ang^3
#
#
#
# Elastic Constant Matrix: (Units=GPa)
#
#
# Indices 1 2 3 4 5 6 
#
# 1 119.6248 22.8537 15.4770 0.0000 0.0000 0.0000
# 2 22.8537 91.4001 14.6413 0.0000 0.0000 0.0000
# 3 15.4770 14.6413 132.7776 0.0000 0.0000 0.0000
# 4 0.0000 0.0000 0.0000 31.8674 0.0000 0.0000
# 5 0.0000 0.0000 0.0000 0.0000 26.3357 0.0000
# 6 0.0000 0.0000 0.0000 0.0000 0.0000 35.6987
#
#
#
# Elastic Compliance Matrix: (Units=1/GPa)
#
#
# Indices 1 2 3 4 5 6 
#
# 1 0.008862 -0.002087 -0.000803 0.000000 0.000000 0.000000
# 2 -0.002087 0.011629 -0.001039 0.000000 0.000000 0.000000
# 3 -0.000803 -0.001039 0.007740 0.000000 0.000000 0.000000
# 4 0.000000 0.000000 0.000000 0.031380 0.000000 0.000000
# 5 0.000000 0.000000 0.000000 0.000000 0.037971 0.000000
# 6 0.000000 0.000000 0.000000 0.000000 0.000000 0.028012
#
#
# Mechanical properties :
#
#
# Convention : Reuss Voigt Hill
#
# Bulk Modulus (GPa) = 49.08558 49.97184 49.52871
# Shear Modulus (GPa) = 35.65226 38.16906 36.91066
#
# Velocity S-wave (km/s) = 4.04946 4.18995 4.12030
# Velocity P-wave (km/s) = 6.66640 6.81116 6.73917
#
# Compressibility (1/GPa) = 0.02037258
#
# Stress axis : x y z
#
# Youngs Moduli (GPa) = 112.84008 85.99007 129.20650
#
# Poissons Ratio (x) = 0.17948 0.10373
# Poissons Ratio (y) = 0.23553 0.13425
# Poissons Ratio (z) = 0.09059 0.08935
#
# Static dielectric constant tensor:
#      x y z
#    x 4.032080 0.000000 0.000000 
#    y 0.000000 3.908800 0.000000 
#    z 0.000000 0.000000 4.045620 
# 
# 
# High freq. dielectric constant tensor:
#      x y z
#    x 1.860590 0.000000 0.000000 
#    y 0.000000 1.850060 0.000000 
#    z 0.000000 0.000000 1.855230 
# 
# From -- ./inp_files/36880.got.cif
#   From: 2010.03.12/outbox.cif.g09.slc.cpg/sg70_19_cif.got.tgz:36880.got - 2010.04.16 13:46:32.
