data_PCOD8286481
_publ_section_title
;
Structure prediction by ZEFSAII (Michael W. Deem and Ramdas Pophale) SiO2 
 PCOD8286481
Probable space group: F D D D
;
_chemical_formula_sum "Si O2"
_cell_formula_units_Z 176
_cell_length_a 30.098051
_cell_length_b 25.097714
_cell_length_c 11.009811
_cell_angle_alpha 90.000000
_cell_angle_beta 90.000000
_cell_angle_gamma 90.000000
_cell_volume 8316.726189
_symmetry_space_group_name_H-M "F D D D"
_symmetry_group_IT_number 70
_space_group.IT_coordinate_system_code '2'
_symmetry_cell_setting 'orthorhombic'
loop_
_space_group_symop_operation_xyz
x,y,z
1/4-x,1/4-y,z
x,1/4-y,1/4-z
1/4-x,y,1/4-z
-x,-y,-z
3/4+x,3/4+y,-z
-x,3/4+y,3/4+z
3/4+x,-y,3/4+z
x,1/2+y,1/2+z
1/4-x,3/4-y,1/2+z
x,3/4-y,3/4-z
1/4-x,1/2+y,3/4-z
-x,1/2-y,1/2-z
3/4+x,1/4+y,1/2-z
-x,1/4+y,1/4+z
3/4+x,1/2-y,1/4+z
1/2+x,y,1/2+z
3/4-x,1/4-y,1/2+z
1/2+x,1/4-y,3/4-z
3/4-x,y,3/4-z
1/2-x,-y,1/2-z
1/4+x,3/4+y,1/2-z
1/2-x,3/4+y,1/4+z
1/4+x,-y,1/4+z
1/2+x,1/2+y,z
3/4-x,3/4-y,z
1/2+x,3/4-y,1/4-z
3/4-x,1/2+y,1/4-z
1/2-x,1/2-y,-z
1/4+x,1/4+y,-z
1/2-x,1/4+y,3/4+z
1/4+x,1/2-y,3/4+z
loop_
_atom_site_type_symbol
_atom_site_label
_atom_site_fract_x
_atom_site_fract_y
_atom_site_fract_z
Si Si1 0.375000 0.074033 0.875000
Si Si2 0.110190 0.514383 0.493329
Si Si3 0.020270 0.045627 0.912922
Si Si4 0.688662 0.849060 0.004307
Si Si5 0.321901 0.005427 0.703391
Si Si6 0.735415 0.188281 0.133253
O O1 0.416962 0.110261 0.846874
O O2 0.362355 0.037959 0.761417
O O3 0.125000 0.533054 0.625000
O O4 0.071711 0.554696 0.447512
O O5 0.090098 0.454736 0.496637
O O6 0.154510 0.521334 0.412500
O O7 0.019392 0.035921 0.767633
O O8 0.988496 0.095231 0.941688
O O9 0.000000 0.000000 0.000000
O O10 0.692407 0.875000 0.875000
O O11 0.283854 0.046072 0.663323
O O12 0.302906 0.962051 0.796915
O O13 0.729928 0.125000 0.125000
#
# Coordination Sequence:
#
# PCOD8286481 Si02
#       6
#    16  32  32  32  32  32
#     4  12  22  38  67 104 130 162 237 288 350 424
#     4  11  22  42  66  94 134 179 225 284 352 422
#     4  10  23  42  63  97 136 176 221 281 353 407
#     4  11  22  36  65 100 133 169 216 291 348 412
#     4  11  24  40  69 100 131 177 231 282 346 414
#     4  11  25  45  67  97 139 182 228 286 349 425
#
# _framework density 21.162174
#
# number of rings (size 3 to 8) (size 9 to 14) (size 15 to 20)
#    0.000    1.091    2.727    4.364    5.091    0.000 
#    3.273    4.091    0.000    0.000    0.000    0.000 
#    0.000    0.000    0.000    0.000    0.000    0.000 
#
# Total GULP energy -545468.769515 kJ/mol
# GULP energy per Si atom -12397.017489 kJ/mol
# Density = 2.111401 g / cm^3
# Si number density = 21.162174 Si / 1000 Ang^3
#
#
#
# Elastic Constant Matrix: (Units=GPa)
#
#
# Indices 1 2 3 4 5 6 
#
# 1 133.2814 48.1175 54.9778 0.0002 0.0000 0.0001
# 2 48.1175 77.3259 40.6857 0.0006 -0.0002 -0.0002
# 3 54.9778 40.6857 160.8912 0.0018 -0.0009 -0.0009
# 4 0.0002 0.0006 0.0018 15.0640 -0.0004 -0.0003
# 5 0.0000 -0.0002 -0.0009 -0.0004 50.5757 0.0005
# 6 0.0001 -0.0002 -0.0009 -0.0003 0.0005 33.9471
#
#
#
# Elastic Compliance Matrix: (Units=1/GPa)
#
#
# Indices 1 2 3 4 5 6 
#
# 1 0.010306 -0.005260 -0.002191 0.000000 0.000000 0.000000
# 2 -0.005260 0.017602 -0.002654 0.000000 0.000000 0.000000
# 3 -0.002191 -0.002654 0.007635 -0.000001 0.000000 0.000000
# 4 0.000000 0.000000 -0.000001 0.066383 0.000000 0.000001
# 5 0.000000 0.000000 0.000000 0.000000 0.019772 0.000000
# 6 0.000000 0.000000 0.000000 0.000001 0.000000 0.029458
#
#
# Mechanical properties :
#
#
# Convention : Reuss Voigt Hill
#
# Bulk Modulus (GPa) = 65.22069 73.22896 69.22482
# Shear Modulus (GPa) = 28.33229 35.09852 31.71541
#
# Velocity S-wave (km/s) = 3.66296 4.07695 3.87548
# Velocity P-wave (km/s) = 6.98398 7.53929 7.26694
#
# Compressibility (1/GPa) = 0.01533256
#
# Stress axis : x y z
#
# Youngs Moduli (GPa) = 97.03223 56.81286 130.97094
#
# Poissons Ratio (x) = 0.29883 0.28702
# Poissons Ratio (y) = 0.51039 0.34756
# Poissons Ratio (z) = 0.21264 0.15076
#
# Static dielectric constant tensor:
#      x y z
#    x 4.243560 0.000000 0.000000 
#    y 0.000000 3.632010 -0.000010 
#    z 0.000000 -0.000010 4.069390 
# 
# 
# High freq. dielectric constant tensor:
#      x y z
#    x 1.846450 0.000000 0.000000 
#    y 0.000000 1.798440 0.000000 
#    z 0.000000 0.000000 1.852450 
# 
# From -- ./inp_files/22313.got.cif
#   From: 2010.03.12/outbox.cif.g09.slc.cpg/sg70_12_cif.got.tgz:22313.got - 2010.04.16 13:46:32.
