data_PCOD8286383
_publ_section_title
;
Structure prediction by ZEFSAII (Michael W. Deem and Ramdas Pophale) SiO2 
 PCOD8286383
Probable space group: F D D D
;
_chemical_formula_sum "Si O2"
_cell_formula_units_Z 168
_cell_length_a 13.290726
_cell_length_b 30.858282
_cell_length_c 19.975766
_cell_angle_alpha 90.000000
_cell_angle_beta 90.000000
_cell_angle_gamma 90.000000
_cell_volume 8192.640352
_symmetry_space_group_name_H-M "F D D D"
_symmetry_group_IT_number 70
_space_group.IT_coordinate_system_code '2'
_symmetry_cell_setting 'orthorhombic'
loop_
_space_group_symop_operation_xyz
x,y,z
1/4-x,1/4-y,z
x,1/4-y,1/4-z
1/4-x,y,1/4-z
-x,-y,-z
3/4+x,3/4+y,-z
-x,3/4+y,3/4+z
3/4+x,-y,3/4+z
x,1/2+y,1/2+z
1/4-x,3/4-y,1/2+z
x,3/4-y,3/4-z
1/4-x,1/2+y,3/4-z
-x,1/2-y,1/2-z
3/4+x,1/4+y,1/2-z
-x,1/4+y,1/4+z
3/4+x,1/2-y,1/4+z
1/2+x,y,1/2+z
3/4-x,1/4-y,1/2+z
1/2+x,1/4-y,3/4-z
3/4-x,y,3/4-z
1/2-x,-y,1/2-z
1/4+x,3/4+y,1/2-z
1/2-x,3/4+y,1/4+z
1/4+x,-y,1/4+z
1/2+x,1/2+y,z
3/4-x,3/4-y,z
1/2+x,3/4-y,1/4-z
3/4-x,1/2+y,1/4-z
1/2-x,1/2-y,-z
1/4+x,1/4+y,-z
1/2-x,1/4+y,3/4+z
1/4+x,1/2-y,3/4+z
loop_
_atom_site_type_symbol
_atom_site_label
_atom_site_fract_x
_atom_site_fract_y
_atom_site_fract_z
Si Si1 0.973930 0.717774 0.612376
Si Si2 0.331289 0.934894 0.125756
Si Si3 0.967041 0.102402 0.420865
Si Si4 0.606092 0.575669 0.032235
Si Si5 0.125000 0.125000 0.625000
Si Si6 0.187282 0.908623 0.821317
O O1 0.971918 0.769222 0.616941
O O2 0.860923 0.704423 0.591110
O O3 0.048899 0.703475 0.553369
O O4 0.008023 0.695102 0.681939
O O5 0.439600 0.931008 0.088619
O O6 0.253537 0.900685 0.095347
O O7 0.344858 0.925068 0.203426
O O8 0.875000 0.087462 0.375000
O O9 0.917870 0.102936 0.494513
O O10 0.625000 0.625000 0.056204
O O11 0.191696 0.092479 0.670036
O O12 0.137986 0.875000 0.875000
#
# Coordination Sequence:
#
# PCOD8286383 Si02
#       6
#    32  32  32  32   8  32
#     4  11  24  39  67 101 129 165 222 282 331 384
#     4  11  25  43  65  98 132 171 224 273 332 396
#     4  11  24  43  69  90 132 182 219 264 337 401
#     4  11  22  44  67  98 134 172 212 277 343 398
#     4   8  20  36  60  86 120 172 218 252 308 398
#     4  10  22  41  64  92 126 175 220 267 323 396
#
# _framework density 20.506211
#
# number of rings (size 3 to 8) (size 9 to 14) (size 15 to 20)
#    0.571    0.762    1.905    5.143    5.333    2.286 
#    1.714    0.000    0.000    0.000    0.000    0.000 
#    0.000    0.000    0.000    0.000    0.000    0.000 
#
# Total GULP energy -520558.396270 kJ/mol
# GULP energy per Si atom -12394.247530 kJ/mol
# Density = 2.045954 g / cm^3
# Si number density = 20.506211 Si / 1000 Ang^3
#
#
#
# Elastic Constant Matrix: (Units=GPa)
#
#
# Indices 1 2 3 4 5 6 
#
# 1 99.5575 37.4029 21.8522 0.0000 0.0000 0.0000
# 2 37.4029 141.1700 30.9720 0.0000 0.0000 0.0000
# 3 21.8522 30.9720 135.6782 0.0000 0.0000 0.0000
# 4 0.0000 0.0000 0.0000 178.0613 0.0000 0.0000
# 5 0.0000 0.0000 0.0000 0.0000 14.4946 0.0000
# 6 0.0000 0.0000 0.0000 0.0000 0.0000 30.1539
#
#
#
# Elastic Compliance Matrix: (Units=1/GPa)
#
#
# Indices 1 2 3 4 5 6 
#
# 1 0.011338 -0.002741 -0.001200 0.000000 0.000000 0.000000
# 2 -0.002741 0.008120 -0.001412 0.000000 0.000000 0.000000
# 3 -0.001200 -0.001412 0.007886 0.000000 0.000000 0.000000
# 4 0.000000 0.000000 0.000000 0.005616 0.000000 0.000000
# 5 0.000000 0.000000 0.000000 0.000000 0.068991 0.000000
# 6 0.000000 0.000000 0.000000 0.000000 0.000000 0.033163
#
#
# Mechanical properties :
#
#
# Convention : Reuss Voigt Hill
#
# Bulk Modulus (GPa) = 60.10674 61.87335 60.99005
# Shear Modulus (GPa) = 33.03263 63.62054 48.32659
#
# Velocity S-wave (km/s) = 4.01791 5.57605 4.85983
# Velocity P-wave (km/s) = 7.13441 8.46729 7.82927
#
# Compressibility (1/GPa) = 0.01663707
#
# Stress axis : x y z
#
# Youngs Moduli (GPa) = 88.20276 123.15936 126.80590
#
# Poissons Ratio (x) = 0.33752 0.15222
# Poissons Ratio (y) = 0.24172 0.17906
# Poissons Ratio (z) = 0.10588 0.17392
#
# Static dielectric constant tensor:
#      x y z
#    x 3.754280 0.000000 0.000000 
#    y 0.000000 3.599370 0.000000 
#    z 0.000000 0.000000 3.770730 
# 
# 
# High freq. dielectric constant tensor:
#      x y z
#    x 1.808280 0.000000 0.000000 
#    y 0.000000 1.784710 0.000000 
#    z 0.000000 0.000000 1.812030 
# 
# From -- ./inp_files/42958.got.cif
#   From: 2010.03.12/outbox.cif.g09.slc.cpg/sg70_22_cif.got.tgz:42958.got - 2010.04.16 13:46:32.
