data_PCOD8286352
_publ_section_title
;
Structure prediction by ZEFSAII (Michael W. Deem and Ramdas Pophale) SiO2 
 PCOD8286352
Probable space group: F D D D
;
_chemical_formula_sum "Si O2"
_cell_formula_units_Z 96
_cell_length_a 7.055779
_cell_length_b 26.933260
_cell_length_c 25.765682
_cell_angle_alpha 90.000000
_cell_angle_beta 90.000000
_cell_angle_gamma 90.000000
_cell_volume 4896.384736
_symmetry_space_group_name_H-M "F D D D"
_symmetry_group_IT_number 70
_space_group.IT_coordinate_system_code '2'
_symmetry_cell_setting 'orthorhombic'
loop_
_space_group_symop_operation_xyz
x,y,z
1/4-x,1/4-y,z
x,1/4-y,1/4-z
1/4-x,y,1/4-z
-x,-y,-z
3/4+x,3/4+y,-z
-x,3/4+y,3/4+z
3/4+x,-y,3/4+z
x,1/2+y,1/2+z
1/4-x,3/4-y,1/2+z
x,3/4-y,3/4-z
1/4-x,1/2+y,3/4-z
-x,1/2-y,1/2-z
3/4+x,1/4+y,1/2-z
-x,1/4+y,1/4+z
3/4+x,1/2-y,1/4+z
1/2+x,y,1/2+z
3/4-x,1/4-y,1/2+z
1/2+x,1/4-y,3/4-z
3/4-x,y,3/4-z
1/2-x,-y,1/2-z
1/4+x,3/4+y,1/2-z
1/2-x,3/4+y,1/4+z
1/4+x,-y,1/4+z
1/2+x,1/2+y,z
3/4-x,3/4-y,z
1/2+x,3/4-y,1/4-z
3/4-x,1/2+y,1/4-z
1/2-x,1/2-y,-z
1/4+x,1/4+y,-z
1/2-x,1/4+y,3/4+z
1/4+x,1/2-y,3/4+z
loop_
_atom_site_type_symbol
_atom_site_label
_atom_site_fract_x
_atom_site_fract_y
_atom_site_fract_z
Si Si1 0.657240 0.180972 0.875392
Si Si2 0.299471 0.485525 0.525508
Si Si3 0.203655 0.571063 0.757775
O O1 0.625000 0.125000 0.895872
O O2 0.568051 0.219719 0.915040
O O3 0.568291 0.188585 0.819116
O O4 0.875000 0.193597 0.875000
O O5 0.500000 0.500000 0.500000
O O6 0.172502 0.534431 0.526065
O O7 0.177674 0.441153 0.496125
O O8 0.125000 0.625000 0.742474
#
# Coordination Sequence:
#
# PCOD8286352 Si02
#       3
#    32  32  32
#     4  11  20  36  60  90 120 153 196 250 297 352
#     4  11  22  35  58  92 120 154 196 249 305 355
#     4  10  22  40  60  88 120 157 200 251 297 356
#
# _framework density 19.606303
#
# number of rings (size 3 to 8) (size 9 to 14) (size 15 to 20)
#    0.000    1.333    3.333    5.000    0.000    0.000 
#    0.000    0.000    0.000   16.000    8.667    0.000 
#    0.000    0.000    0.000    0.000    0.000    0.000 
#
# Total GULP energy -297322.614255 kJ/mol
# GULP energy per Si atom -12388.442261 kJ/mol
# Density = 1.956168 g / cm^3
# Si number density = 19.606303 Si / 1000 Ang^3
#
#
#
# Elastic Constant Matrix: (Units=GPa)
#
#
# Indices 1 2 3 4 5 6 
#
# 1 165.5131 56.3445 13.9006 0.0000 0.0000 0.0000
# 2 56.3445 141.8314 57.6966 0.0000 0.0000 0.0000
# 3 13.9006 57.6966 72.8973 0.0000 0.0000 0.0000
# 4 0.0000 0.0000 0.0000 41.8465 0.0000 0.0000
# 5 0.0000 0.0000 0.0000 0.0000 51.1788 0.0000
# 6 0.0000 0.0000 0.0000 0.0000 0.0000 35.5464
#
#
#
# Elastic Compliance Matrix: (Units=1/GPa)
#
#
# Indices 1 2 3 4 5 6 
#
# 1 0.007068 -0.003333 0.001290 0.000000 0.000000 0.000000
# 2 -0.003333 0.011970 -0.008839 0.000000 0.000000 0.000000
# 3 0.001290 -0.008839 0.020467 0.000000 0.000000 0.000000
# 4 0.000000 0.000000 0.000000 0.023897 0.000000 0.000000
# 5 0.000000 0.000000 0.000000 0.000000 0.019539 0.000000
# 6 0.000000 0.000000 0.000000 0.000000 0.000000 0.028132
#
#
# Mechanical properties :
#
#
# Convention : Reuss Voigt Hill
#
# Bulk Modulus (GPa) = 56.36017 70.68056 63.52037
# Shear Modulus (GPa) = 36.03588 42.53436 39.28512
#
# Velocity S-wave (km/s) = 4.29181 4.66276 4.48113
# Velocity P-wave (km/s) = 7.30533 8.06949 7.69690
#
# Compressibility (1/GPa) = 0.01774303
#
# Stress axis : x y z
#
# Youngs Moduli (GPa) = 141.48337 83.54209 48.85806
#
# Poissons Ratio (x) = 0.27841 -0.06302
# Poissons Ratio (y) = 0.47150 0.43183
# Poissons Ratio (z) = -0.18250 0.73839
#
# Static dielectric constant tensor:
#      x y z
#    x 4.134270 0.000000 0.000000 
#    y 0.000000 3.752150 0.000000 
#    z 0.000000 0.000000 3.434730 
# 
# 
# High freq. dielectric constant tensor:
#      x y z
#    x 1.798970 0.000000 0.000000 
#    y 0.000000 1.759910 0.000000 
#    z 0.000000 0.000000 1.729840 
# 
# From -- ./inp_files/10522.got.cif
#   From: 2010.03.12/outbox.cif.g09.slc.cpg/sg70_6_cif.got.tgz:10522.got - 2010.04.16 13:46:32.
