data_PCOD8286760
_publ_section_title
;
Structure prediction by ZEFSAII (Michael W. Deem and Ramdas Pophale) SiO2 
 PCOD8286760
Probable space group: F D D D
;
_chemical_formula_sum "Si O2"
_cell_formula_units_Z 176
_cell_length_a 13.662859
_cell_length_b 23.541663
_cell_length_c 23.685304
_cell_angle_alpha 90.000000
_cell_angle_beta 90.000000
_cell_angle_gamma 90.000000
_cell_volume 7618.293290
_symmetry_space_group_name_H-M "F D D D"
_symmetry_group_IT_number 70
_space_group.IT_coordinate_system_code '2'
_symmetry_cell_setting 'orthorhombic'
loop_
_space_group_symop_operation_xyz
x,y,z
1/4-x,1/4-y,z
x,1/4-y,1/4-z
1/4-x,y,1/4-z
-x,-y,-z
3/4+x,3/4+y,-z
-x,3/4+y,3/4+z
3/4+x,-y,3/4+z
x,1/2+y,1/2+z
1/4-x,3/4-y,1/2+z
x,3/4-y,3/4-z
1/4-x,1/2+y,3/4-z
-x,1/2-y,1/2-z
3/4+x,1/4+y,1/2-z
-x,1/4+y,1/4+z
3/4+x,1/2-y,1/4+z
1/2+x,y,1/2+z
3/4-x,1/4-y,1/2+z
1/2+x,1/4-y,3/4-z
3/4-x,y,3/4-z
1/2-x,-y,1/2-z
1/4+x,3/4+y,1/2-z
1/2-x,3/4+y,1/4+z
1/4+x,-y,1/4+z
1/2+x,1/2+y,z
3/4-x,3/4-y,z
1/2+x,3/4-y,1/4-z
3/4-x,1/2+y,1/4-z
1/2-x,1/2-y,-z
1/4+x,1/4+y,-z
1/2-x,1/4+y,3/4+z
1/4+x,1/2-y,3/4+z
loop_
_atom_site_type_symbol
_atom_site_label
_atom_site_fract_x
_atom_site_fract_y
_atom_site_fract_z
Si Si1 0.178176 0.835390 0.465718
Si Si2 0.905166 0.275721 0.144183
Si Si3 0.625000 0.535248 0.625000
Si Si4 0.508792 0.467044 0.556353
Si Si5 0.375000 0.875000 0.230558
Si Si6 0.190863 0.344657 0.175511
Si Si7 0.791600 0.125000 0.125000
O O1 0.195312 0.779190 0.427841
O O2 0.280020 0.867329 0.479433
O O3 0.125151 0.817752 0.524614
O O4 0.110441 0.879398 0.430617
O O5 0.816496 0.259801 0.103372
O O6 0.866867 0.320878 0.189778
O O7 0.988987 0.297845 0.101633
O O8 0.615470 0.491216 0.573186
O O9 0.722697 0.571191 0.616539
O O10 0.500000 0.500000 0.500000
O O11 0.500718 0.399001 0.549509
O O12 0.125000 0.369128 0.125000
#
# Coordination Sequence:
#
# PCOD8286760 Si02
#       7
#    32  32  16  32  16  32  16
#     4  12  28  49  78 114 156 210 262 328 392 467
#     4  12  26  51  74 115 155 209 262 320 401 470
#     4  11  24  48  70 106 158 186 246 317 388 452
#     4  12  25  45  78 112 148 204 251 317 393 463
#     4  12  26  51  78 106 158 207 268 326 384 462
#     4  12  25  48  77 107 154 203 263 317 385 464
#     4  11  26  47  72 116 154 195 254 325 384 460
#
# _framework density 23.102288000000001
#
# number of rings (size 3 to 8) (size 9 to 14) (size 15 to 20)
#    0.000    0.182    6.364    1.636    2.545    1.818 
#    0.000    0.000    0.000    0.000    0.000    0.000 
#    0.000    0.000    0.000    0.000    0.000    0.000 
#
# Total GULP energy -545223.838866 kJ/mol
# GULP energy per Si atom -12391.450883 kJ/mol
# Density = 2.304971 g / cm^3
# Si number density = 23.102288 Si / 1000 Ang^3
#
#
#
# Elastic Constant Matrix: (Units=GPa)
#
#
# Indices 1 2 3 4 5 6 
#
# 1 144.3292 66.4906 76.1494 0.0000 0.0000 0.0000
# 2 66.4906 105.8673 59.2953 0.0000 0.0000 0.0000
# 3 76.1494 59.2953 158.3073 0.0000 0.0000 0.0000
# 4 0.0000 0.0000 0.0000 38.0474 0.0000 0.0000
# 5 0.0000 0.0000 0.0000 0.0000 49.3588 0.0000
# 6 0.0000 0.0000 0.0000 0.0000 0.0000 27.9551
#
#
#
# Elastic Compliance Matrix: (Units=1/GPa)
#
#
# Indices 1 2 3 4 5 6 
#
# 1 0.011054 -0.005017 -0.003438 0.000000 0.000000 0.000000
# 2 -0.005017 0.014230 -0.002917 0.000000 0.000000 0.000000
# 3 -0.003438 -0.002917 0.009063 0.000000 0.000000 0.000000
# 4 0.000000 0.000000 0.000000 0.026283 0.000000 0.000000
# 5 0.000000 0.000000 0.000000 0.000000 0.020260 0.000000
# 6 0.000000 0.000000 0.000000 0.000000 0.000000 0.035772
#
#
# Mechanical properties :
#
#
# Convention : Reuss Voigt Hill
#
# Bulk Modulus (GPa) = 86.17857 90.26382 88.22120
# Shear Modulus (GPa) = 34.89845 36.84349 35.87097
#
# Velocity S-wave (km/s) = 3.89087 3.99783 3.94471
# Velocity P-wave (km/s) = 7.58743 7.77601 7.68230
#
# Compressibility (1/GPa) = 0.01160381
#
# Stress axis : x y z
#
# Youngs Moduli (GPa) = 90.46761 70.27249 110.33695
#
# Poissons Ratio (x) = 0.35254 0.37934
# Poissons Ratio (y) = 0.45385 0.32184
# Poissons Ratio (z) = 0.31103 0.20498
#
# Static dielectric constant tensor:
#      x y z
#    x 3.034330 0.000000 0.000000 
#    y 0.000000 4.311820 0.000000 
#    z 0.000000 0.000000 4.027650 
# 
# 
# High freq. dielectric constant tensor:
#      x y z
#    x 1.916580 0.000000 0.000000 
#    y 0.000000 1.920340 0.000000 
#    z 0.000000 0.000000 1.925000 
# 
# From -- ./inp_files/51240.got.cif
#   From: 2010.03.12/outbox.cif.g09.slc.cpg/sg70_26_cif.got.tgz:51240.got - 2010.04.16 13:46:32.
