data_PCOD8286368
_publ_section_title
;
Structure prediction by ZEFSAII (Michael W. Deem and Ramdas Pophale) SiO2 
 PCOD8286368
Probable space group: F D D D
;
_chemical_formula_sum "Si O2"
_cell_formula_units_Z 176
_cell_length_a 22.465887
_cell_length_b 29.397475
_cell_length_c 11.326356
_cell_angle_alpha 90.000000
_cell_angle_beta 90.000000
_cell_angle_gamma 90.000000
_cell_volume 7480.382537
_symmetry_space_group_name_H-M "F D D D"
_symmetry_group_IT_number 70
_space_group.IT_coordinate_system_code '2'
_symmetry_cell_setting 'orthorhombic'
loop_
_space_group_symop_operation_xyz
x,y,z
1/4-x,1/4-y,z
x,1/4-y,1/4-z
1/4-x,y,1/4-z
-x,-y,-z
3/4+x,3/4+y,-z
-x,3/4+y,3/4+z
3/4+x,-y,3/4+z
x,1/2+y,1/2+z
1/4-x,3/4-y,1/2+z
x,3/4-y,3/4-z
1/4-x,1/2+y,3/4-z
-x,1/2-y,1/2-z
3/4+x,1/4+y,1/2-z
-x,1/4+y,1/4+z
3/4+x,1/2-y,1/4+z
1/2+x,y,1/2+z
3/4-x,1/4-y,1/2+z
1/2+x,1/4-y,3/4-z
3/4-x,y,3/4-z
1/2-x,-y,1/2-z
1/4+x,3/4+y,1/2-z
1/2-x,3/4+y,1/4+z
1/4+x,-y,1/4+z
1/2+x,1/2+y,z
3/4-x,3/4-y,z
1/2+x,3/4-y,1/4-z
3/4-x,1/2+y,1/4-z
1/2-x,1/2-y,-z
1/4+x,1/4+y,-z
1/2-x,1/4+y,3/4+z
1/4+x,1/2-y,3/4+z
loop_
_atom_site_type_symbol
_atom_site_label
_atom_site_fract_x
_atom_site_fract_y
_atom_site_fract_z
Si Si1 0.875000 0.751866 0.375000
Si Si2 0.454418 0.831102 0.315777
Si Si3 0.832261 0.694723 0.564085
Si Si4 0.696067 0.561529 0.441593
Si Si5 0.484418 0.875000 0.875000
Si Si6 0.069315 0.875000 0.875000
Si Si7 0.931059 0.511406 0.302736
O O1 0.826063 0.720339 0.439149
O O2 0.905535 0.778600 0.481007
O O3 0.422882 0.875000 0.375000
O O4 0.422082 0.819110 0.191531
O O5 0.524858 0.843859 0.293850
O O6 0.445723 0.790145 0.408720
O O7 0.771665 0.667888 0.581893
O O8 0.888357 0.660081 0.554995
O O9 0.838411 0.732867 0.666280
O O10 0.695619 0.609353 0.512662
O O11 0.761950 0.542215 0.422268
O O12 0.875000 0.530964 0.375000
#
# Coordination Sequence:
#
# PCOD8286368 Si02
#       7
#    16  32  32  32  16  16  32
#     4  12  26  41  70  94 140 194 238 290 359 458
#     4  10  23  39  70  96 134 180 231 303 355 435
#     4  10  22  40  66 100 134 183 240 294 361 435
#     4  11  24  43  64 101 134 189 238 293 369 435
#     4   9  24  41  62  95 139 178 233 304 355 434
#     4   9  20  42  67 105 127 183 242 302 359 424
#     4  11  22  41  67  99 142 177 234 304 366 435
#
# _framework density 23.528207999999999
#
# number of rings (size 3 to 8) (size 9 to 14) (size 15 to 20)
#    0.545    1.091    0.000    3.818    2.545    5.091 
#    3.273    1.818    0.000    0.000    0.000    0.000 
#    0.000    0.000    0.000    0.000    0.000    0.000 
#
# Total GULP energy -545158.603043 kJ/mol
# GULP energy per Si atom -12389.968251 kJ/mol
# Density = 2.347466 g / cm^3
# Si number density = 23.528208 Si / 1000 Ang^3
#
#
#
# Elastic Constant Matrix: (Units=GPa)
#
#
# Indices 1 2 3 4 5 6 
#
# 1 56.5931 12.5267 12.7406 0.0000 0.0000 0.0000
# 2 12.5267 132.3148 81.2276 0.0000 0.0000 0.0000
# 3 12.7406 81.2276 150.7844 0.0001 -0.0001 -0.0001
# 4 0.0000 0.0000 0.0001 35.4702 0.0000 0.0000
# 5 0.0000 0.0000 -0.0001 0.0000 31.9264 0.0000
# 6 0.0000 0.0000 -0.0001 0.0000 0.0000 31.5214
#
#
#
# Elastic Compliance Matrix: (Units=1/GPa)
#
#
# Indices 1 2 3 4 5 6 
#
# 1 0.018131 -0.001160 -0.000907 0.000000 0.000000 0.000000
# 2 -0.001160 0.011366 -0.006025 0.000000 0.000000 0.000000
# 3 -0.000907 -0.006025 0.009954 0.000000 0.000000 0.000000
# 4 0.000000 0.000000 0.000000 0.028193 0.000000 0.000000
# 5 0.000000 0.000000 0.000000 0.000000 0.031322 0.000000
# 6 0.000000 0.000000 0.000000 0.000000 0.000000 0.031724
#
#
# Mechanical properties :
#
#
# Convention : Reuss Voigt Hill
#
# Bulk Modulus (GPa) = 42.97796 61.40912 52.19354
# Shear Modulus (GPa) = 32.33517 35.33009 33.83263
#
# Velocity S-wave (km/s) = 3.71120 3.87926 3.79616
# Velocity P-wave (km/s) = 6.05559 6.79866 6.43785
#
# Compressibility (1/GPa) = 0.02326774
#
# Stress axis : x y z
#
# Youngs Moduli (GPa) = 55.15439 87.97980 100.45876
#
# Poissons Ratio (x) = 0.10201 0.09115
# Poissons Ratio (y) = 0.06395 0.60527
# Poissons Ratio (z) = 0.05004 0.53008
#
# Static dielectric constant tensor:
#      x y z
#    x 4.122030 0.000000 0.000000 
#    y 0.000000 4.314380 0.000000 
#    z 0.000000 0.000000 4.370410 
# 
# 
# High freq. dielectric constant tensor:
#      x y z
#    x 1.926670 0.000000 0.000000 
#    y 0.000000 1.938400 0.000000 
#    z 0.000000 0.000000 1.928170 
# 
# From -- ./inp_files/21218.got.cif
#   From: 2010.03.12/outbox.cif.g09.slc.cpg/sg70_11_cif.got.tgz:21218.got - 2010.04.16 13:46:32.
