data_PCOD8286659
_publ_section_title
;
Structure prediction by ZEFSAII (Michael W. Deem and Ramdas Pophale) SiO2 
 PCOD8286659
Probable space group: F D D D
;
_chemical_formula_sum "Si O2"
_cell_formula_units_Z 160
_cell_length_a 30.678072
_cell_length_b 21.849463
_cell_length_c 10.870722
_cell_angle_alpha 90.000000
_cell_angle_beta 90.000000
_cell_angle_gamma 90.000000
_cell_volume 7286.638424
_symmetry_space_group_name_H-M "F D D D"
_symmetry_group_IT_number 70
_space_group.IT_coordinate_system_code '2'
_symmetry_cell_setting 'orthorhombic'
loop_
_space_group_symop_operation_xyz
x,y,z
1/4-x,1/4-y,z
x,1/4-y,1/4-z
1/4-x,y,1/4-z
-x,-y,-z
3/4+x,3/4+y,-z
-x,3/4+y,3/4+z
3/4+x,-y,3/4+z
x,1/2+y,1/2+z
1/4-x,3/4-y,1/2+z
x,3/4-y,3/4-z
1/4-x,1/2+y,3/4-z
-x,1/2-y,1/2-z
3/4+x,1/4+y,1/2-z
-x,1/4+y,1/4+z
3/4+x,1/2-y,1/4+z
1/2+x,y,1/2+z
3/4-x,1/4-y,1/2+z
1/2+x,1/4-y,3/4-z
3/4-x,y,3/4-z
1/2-x,-y,1/2-z
1/4+x,3/4+y,1/2-z
1/2-x,3/4+y,1/4+z
1/4+x,-y,1/4+z
1/2+x,1/2+y,z
3/4-x,3/4-y,z
1/2+x,3/4-y,1/4-z
3/4-x,1/2+y,1/4-z
1/2-x,1/2-y,-z
1/4+x,1/4+y,-z
1/2-x,1/4+y,3/4+z
1/4+x,1/2-y,3/4+z
loop_
_atom_site_type_symbol
_atom_site_label
_atom_site_fract_x
_atom_site_fract_y
_atom_site_fract_z
Si Si1 0.241741 0.625000 0.125000
Si Si2 0.305983 0.699029 0.419529
Si Si3 0.680334 0.788277 0.362592
Si Si4 0.533573 0.165985 0.738700
Si Si5 0.670933 0.100929 0.317792
Si Si6 0.391385 0.125000 0.625000
O O1 0.271919 0.564976 0.143580
O O2 0.209805 0.630298 0.240011
O O3 0.327312 0.701115 0.284128
O O4 0.304763 0.769022 0.460504
O O5 0.256736 0.673660 0.416788
O O6 0.331098 0.655345 0.515245
O O7 0.676038 0.721328 0.418417
O O8 0.641266 0.823851 0.431817
O O9 0.516604 0.125000 0.625000
O O10 0.573425 0.128915 0.797242
O O11 0.625000 0.125000 0.263176
#
# Coordination Sequence:
#
# PCOD8286659 Si02
#       6
#    16  32  32  32  32  16
#     4  11  25  48  69  96 138 186 229 280 349 435
#     4  11  22  42  68 103 141 178 235 290 354 430
#     4  11  24  45  69  98 139 186 233 286 356 423
#     4  11  22  41  73 103 135 179 234 296 353 422
#     4  12  25  45  69 103 137 181 236 292 350 418
#     4  11  24  40  63 102 140 182 231 292 352 421
#
# _framework density 21.957999000000001
#
# number of rings (size 3 to 8) (size 9 to 14) (size 15 to 20)
#    0.000    0.800    5.000    2.700    0.000    0.400 
#    3.600    6.000    0.000    0.000    0.000    0.000 
#    0.000    0.000    0.000    0.000    0.000    0.000 
#
# Total GULP energy -495646.177892 kJ/mol
# GULP energy per Si atom -12391.154447 kJ/mol
# Density = 2.190802 g / cm^3
# Si number density = 21.957999 Si / 1000 Ang^3
#
#
#
# Elastic Constant Matrix: (Units=GPa)
#
#
# Indices 1 2 3 4 5 6 
#
# 1 129.5378 72.5840 35.7184 0.0000 0.0000 0.0000
# 2 72.5840 156.9601 29.2598 0.0000 0.0000 0.0000
# 3 35.7184 29.2598 54.8658 0.0000 -0.0001 0.0000
# 4 0.0000 0.0000 0.0000 24.9504 0.0000 0.0000
# 5 0.0000 0.0000 -0.0001 0.0000 8.7975 0.0000
# 6 0.0000 0.0000 0.0000 0.0000 0.0000 22.6023
#
#
#
# Elastic Compliance Matrix: (Units=1/GPa)
#
#
# Indices 1 2 3 4 5 6 
#
# 1 0.011627 -0.004403 -0.005221 0.000000 0.000000 0.000000
# 2 -0.004403 0.008742 -0.001795 0.000000 0.000000 0.000000
# 3 -0.005221 -0.001795 0.022583 0.000000 0.000000 0.000000
# 4 0.000000 0.000000 0.000000 0.040079 0.000000 0.000000
# 5 0.000000 0.000000 0.000000 0.000000 0.113669 0.000000
# 6 0.000000 0.000000 0.000000 0.000000 0.000000 0.044243
#
#
# Mechanical properties :
#
#
# Convention : Reuss Voigt Hill
#
# Bulk Modulus (GPa) = 49.72143 68.49869 59.11006
# Shear Modulus (GPa) = 18.48522 24.85680 21.67101
#
# Velocity S-wave (km/s) = 2.90460 3.36819 3.14495
# Velocity P-wave (km/s) = 5.82598 6.81097 6.33764
#
# Compressibility (1/GPa) = 0.02011205
#
# Stress axis : x y z
#
# Youngs Moduli (GPa) = 86.00921 114.39017 44.28182
#
# Poissons Ratio (x) = 0.50370 0.23119
# Poissons Ratio (y) = 0.37873 0.07951
# Poissons Ratio (z) = 0.44904 0.20538
#
# Static dielectric constant tensor:
#      x y z
#    x 4.069900 0.000000 0.000000 
#    y 0.000000 4.034760 0.000000 
#    z 0.000000 0.000000 3.806540 
# 
# 
# High freq. dielectric constant tensor:
#      x y z
#    x 1.880620 0.000000 0.000000 
#    y 0.000000 1.874070 0.000000 
#    z 0.000000 0.000000 1.852060 
# 
# From -- ./inp_files/22237.got.cif
#   From: 2010.03.12/outbox.cif.g09.slc.cpg/sg70_12_cif.got.tgz:22237.got - 2010.04.16 13:46:32.
