data_PCOD8286114
_publ_section_title
;
Structure prediction by ZEFSAII (Michael W. Deem and Ramdas Pophale) SiO2 
 PCOD8286114
Probable space group: F D D D
;
_chemical_formula_sum "Si O2"
_cell_formula_units_Z 240
_cell_length_a 24.558227
_cell_length_b 15.108404
_cell_length_c 27.538492
_cell_angle_alpha 90.000000
_cell_angle_beta 90.000000
_cell_angle_gamma 90.000000
_cell_volume 10217.761316
_symmetry_space_group_name_H-M "F D D D"
_symmetry_group_IT_number 70
_space_group.IT_coordinate_system_code '2'
_symmetry_cell_setting 'orthorhombic'
loop_
_space_group_symop_operation_xyz
x,y,z
1/4-x,1/4-y,z
x,1/4-y,1/4-z
1/4-x,y,1/4-z
-x,-y,-z
3/4+x,3/4+y,-z
-x,3/4+y,3/4+z
3/4+x,-y,3/4+z
x,1/2+y,1/2+z
1/4-x,3/4-y,1/2+z
x,3/4-y,3/4-z
1/4-x,1/2+y,3/4-z
-x,1/2-y,1/2-z
3/4+x,1/4+y,1/2-z
-x,1/4+y,1/4+z
3/4+x,1/2-y,1/4+z
1/2+x,y,1/2+z
3/4-x,1/4-y,1/2+z
1/2+x,1/4-y,3/4-z
3/4-x,y,3/4-z
1/2-x,-y,1/2-z
1/4+x,3/4+y,1/2-z
1/2-x,3/4+y,1/4+z
1/4+x,-y,1/4+z
1/2+x,1/2+y,z
3/4-x,3/4-y,z
1/2+x,3/4-y,1/4-z
3/4-x,1/2+y,1/4-z
1/2-x,1/2-y,-z
1/4+x,1/4+y,-z
1/2-x,1/4+y,3/4+z
1/4+x,1/2-y,3/4+z
loop_
_atom_site_type_symbol
_atom_site_label
_atom_site_fract_x
_atom_site_fract_y
_atom_site_fract_z
Si Si1 0.052088 0.697624 0.544707
Si Si2 0.305153 0.708662 0.654588
Si Si3 0.375588 0.138887 0.517958
Si Si4 0.172376 0.499431 0.706339
Si Si5 0.257949 0.859654 0.607795
Si Si6 0.167059 0.945691 0.663613
Si Si7 0.700550 0.625000 0.625000
Si Si8 0.031833 0.781144 0.446085
O O1 0.109496 0.739759 0.563571
O O2 0.057550 0.595973 0.527422
O O3 0.024912 0.758560 0.503040
O O4 0.010218 0.698954 0.588865
O O5 0.327604 0.625000 0.625000
O O6 0.339915 0.714290 0.704248
O O7 0.309167 0.800288 0.625335
O O8 0.417727 0.060154 0.504758
O O9 0.350084 0.180682 0.469214
O O10 0.332363 0.098877 0.556291
O O11 0.214318 0.449085 0.671820
O O12 0.226406 0.903385 0.653860
O O13 0.289310 0.935783 0.578596
O O14 0.125000 0.901686 0.625000
O O15 0.165834 0.050841 0.652867
O O16 0.732798 0.579693 0.580635
#
# Coordination Sequence:
#
# PCOD8286114 Si02
#       8
#    32  32  32  32  32  32  16  32
#     4  10  22  39  64 101 135 182 228 291 359 427
#     4  12  26  40  65 101 146 188 236 287 354 432
#     4  11  25  44  70  98 146 189 234 295 357 434
#     4  10  20  39  66 100 136 176 232 293 354 417
#     4  11  22  42  72 104 137 184 237 294 356 425
#     4  11  23  45  76 105 135 180 235 302 361 410
#     4  10  25  46  76 104 136 178 244 309 358 408
#     4  10  24  45  72  97 141 184 237 294 366 424
#
# _framework density 23.488512
#
# number of rings (size 3 to 8) (size 9 to 14) (size 15 to 20)
#    0.000    1.333    2.667    2.600    4.667    1.600 
#    0.000    0.000    2.933    0.000    0.000    0.000 
#    0.000    0.000    0.000    0.000    0.000    0.000 
#
# Total GULP energy -743427.891928 kJ/mol
# GULP energy per Si atom -12390.464865 kJ/mol
# Density = 2.343505 g / cm^3
# Si number density = 23.488512 Si / 1000 Ang^3
#
#
#
# Elastic Constant Matrix: (Units=GPa)
#
#
# Indices 1 2 3 4 5 6 
#
# 1 73.9048 41.4922 50.5088 0.0000 0.0000 0.0000
# 2 41.4922 133.6774 48.5648 0.0000 0.0000 0.0000
# 3 50.5088 48.5648 96.6868 0.0000 0.0000 0.0000
# 4 0.0000 0.0000 0.0000 28.0302 0.0000 0.0000
# 5 0.0000 0.0000 0.0000 0.0000 37.0316 0.0000
# 6 0.0000 0.0000 0.0000 0.0000 0.0000 26.0196
#
#
#
# Elastic Compliance Matrix: (Units=1/GPa)
#
#
# Indices 1 2 3 4 5 6 
#
# 1 0.022153 -0.003268 -0.009931 0.000000 0.000000 0.000000
# 2 -0.003268 0.009633 -0.003131 0.000000 0.000000 0.000000
# 3 -0.009931 -0.003131 0.017103 0.000000 0.000000 0.000000
# 4 0.000000 0.000000 0.000000 0.035676 0.000000 0.000000
# 5 0.000000 0.000000 0.000000 0.000000 0.027004 0.000000
# 6 0.000000 0.000000 0.000000 0.000000 0.000000 0.038433
#
#
# Mechanical properties :
#
#
# Convention : Reuss Voigt Hill
#
# Bulk Modulus (GPa) = 61.62074 65.04452 63.33263
# Shear Modulus (GPa) = 26.58569 29.12984 27.85776
#
# Velocity S-wave (km/s) = 3.36796 3.52543 3.44760
# Velocity P-wave (km/s) = 6.43549 6.65761 6.54749
#
# Compressibility (1/GPa) = 0.01622830
#
# Stress axis : x y z
#
# Youngs Moduli (GPa) = 45.14078 103.81393 58.46810
#
# Poissons Ratio (x) = 0.33928 0.58065
# Poissons Ratio (y) = 0.14753 0.18307
# Poissons Ratio (z) = 0.44830 0.32505
#
# Static dielectric constant tensor:
#      x y z
#    x 4.101770 0.000000 0.000000 
#    y 0.000000 4.653130 0.000000 
#    z 0.000000 0.000000 3.955630 
# 
# 
# High freq. dielectric constant tensor:
#      x y z
#    x 1.914110 0.000000 0.000000 
#    y 0.000000 1.944020 0.000000 
#    z 0.000000 0.000000 1.919640 
# 
# From -- ./inp_files/61873.got.cif
#   From: 2010.03.12/outbox.cif.g09.slc.cpg/sg70_31_cif.got.tgz:61873.got - 2010.04.16 13:46:32.
