data_PCOD8286278
_publ_section_title
;
Structure prediction by ZEFSAII (Michael W. Deem and Ramdas Pophale) SiO2 
 PCOD8286278
Probable space group: F D D D
;
_chemical_formula_sum "Si O2"
_cell_formula_units_Z 192
_cell_length_a 10.038352
_cell_length_b 25.563356
_cell_length_c 33.356756
_cell_angle_alpha 90.000000
_cell_angle_beta 90.000000
_cell_angle_gamma 90.000000
_cell_volume 8559.809444
_symmetry_space_group_name_H-M "F D D D"
_symmetry_group_IT_number 70
_space_group.IT_coordinate_system_code '2'
_symmetry_cell_setting 'orthorhombic'
loop_
_space_group_symop_operation_xyz
x,y,z
1/4-x,1/4-y,z
x,1/4-y,1/4-z
1/4-x,y,1/4-z
-x,-y,-z
3/4+x,3/4+y,-z
-x,3/4+y,3/4+z
3/4+x,-y,3/4+z
x,1/2+y,1/2+z
1/4-x,3/4-y,1/2+z
x,3/4-y,3/4-z
1/4-x,1/2+y,3/4-z
-x,1/2-y,1/2-z
3/4+x,1/4+y,1/2-z
-x,1/4+y,1/4+z
3/4+x,1/2-y,1/4+z
1/2+x,y,1/2+z
3/4-x,1/4-y,1/2+z
1/2+x,1/4-y,3/4-z
3/4-x,y,3/4-z
1/2-x,-y,1/2-z
1/4+x,3/4+y,1/2-z
1/2-x,3/4+y,1/4+z
1/4+x,-y,1/4+z
1/2+x,1/2+y,z
3/4-x,3/4-y,z
1/2+x,3/4-y,1/4-z
3/4-x,1/2+y,1/4-z
1/2-x,1/2-y,-z
1/4+x,1/4+y,-z
1/2-x,1/4+y,3/4+z
1/4+x,1/2-y,3/4+z
loop_
_atom_site_type_symbol
_atom_site_label
_atom_site_fract_x
_atom_site_fract_y
_atom_site_fract_z
Si Si1 0.977486 0.209377 0.560733
Si Si2 0.892582 0.310387 0.533547
Si Si3 0.125000 0.125000 0.739522
Si Si4 0.625000 0.973799 0.125000
Si Si5 0.190248 0.572881 0.697931
Si Si6 0.083309 0.394941 0.055297
Si Si7 0.893211 0.214291 0.329745
O O1 0.960298 0.253771 0.526329
O O2 0.838043 0.180619 0.570105
O O3 0.078348 0.168959 0.541426
O O4 0.025043 0.237259 0.601911
O O5 0.804913 0.329102 0.496009
O O6 0.796381 0.301445 0.571557
O O7 0.009019 0.352052 0.543738
O O8 0.239248 0.097039 0.766606
O O9 0.553327 0.936047 0.091584
O O10 0.125000 0.625000 0.678692
O O11 0.105559 0.519571 0.691176
O O12 0.050440 0.335071 0.068088
O O13 0.875000 0.227990 0.375000
#
# Coordination Sequence:
#
# PCOD8286278 Si02
#       7
#    32  32  16  16  32  32  32
#     4  10  23  43  65  99 133 186 226 282 345 419
#     4  10  21  41  69  92 131 170 221 278 346 404
#     4  12  24  39  68  98 136 178 248 280 328 407
#     4  10  24  45  64  96 145 184 228 278 364 420
#     4  11  22  42  68  96 131 170 221 282 343 406
#     4  11  23  42  66 100 134 182 225 285 344 411
#     4  11  22  39  65  95 128 166 217 275 340 407
#
# _framework density 22.430406999999999
#
# number of rings (size 3 to 8) (size 9 to 14) (size 15 to 20)
#    0.000    1.333    0.833    6.500    0.000    7.333 
#    0.000   16.667    0.000    0.000    0.000    0.000 
#    0.000    0.000    0.000    0.000    0.000    0.000 
#
# Total GULP energy -594692.830777 kJ/mol
# GULP energy per Si atom -12389.433975 kJ/mol
# Density = 2.237935 g / cm^3
# Si number density = 22.430407 Si / 1000 Ang^3
#
#
#
# Elastic Constant Matrix: (Units=GPa)
#
#
# Indices 1 2 3 4 5 6 
#
# 1 78.3305 54.0891 52.7130 0.0000 0.0000 0.0000
# 2 54.0891 199.0007 64.1259 0.0000 0.0000 0.0000
# 3 52.7130 64.1259 113.1728 0.0000 0.0000 0.0000
# 4 0.0000 0.0000 0.0000 29.9913 0.0000 0.0000
# 5 0.0000 0.0000 0.0000 0.0000 30.9366 0.0000
# 6 0.0000 0.0000 0.0000 0.0000 0.0000 39.2491
#
#
#
# Elastic Compliance Matrix: (Units=1/GPa)
#
#
# Indices 1 2 3 4 5 6 
#
# 1 0.019932 -0.002968 -0.007602 0.000000 0.000000 0.000000
# 2 -0.002968 0.006589 -0.002351 0.000000 0.000000 0.000000
# 3 -0.007602 -0.002351 0.013709 0.000000 0.000000 0.000000
# 4 0.000000 0.000000 0.000000 0.033343 0.000000 0.000000
# 5 0.000000 0.000000 0.000000 0.000000 0.032324 0.000000
# 6 0.000000 0.000000 0.000000 0.000000 0.000000 0.025478
#
#
# Mechanical properties :
#
#
# Convention : Reuss Voigt Hill
#
# Bulk Modulus (GPa) = 69.50310 81.37334 75.43822
# Shear Modulus (GPa) = 30.86150 34.67379 32.76765
#
# Velocity S-wave (km/s) = 3.71331 3.93598 3.82626
# Velocity P-wave (km/s) = 7.03123 7.55068 7.29558
#
# Compressibility (1/GPa) = 0.01438785
#
# Stress axis : x y z
#
# Youngs Moduli (GPa) = 50.17165 151.75696 72.94362
#
# Poissons Ratio (x) = 0.45039 0.55452
# Poissons Ratio (y) = 0.14890 0.17152
# Poissons Ratio (z) = 0.38141 0.35684
#
# Static dielectric constant tensor:
#      x y z
#    x 4.046920 0.000000 0.000000 
#    y 0.000000 4.521330 0.000000 
#    z 0.000000 0.000000 3.995280 
# 
# 
# High freq. dielectric constant tensor:
#      x y z
#    x 1.861320 0.000000 0.000000 
#    y 0.000000 1.915120 0.000000 
#    z 0.000000 0.000000 1.871720 
# 
# From -- ./inp_files/65002.got.cif
#   From: 2010.03.12/outbox.cif.g09.slc.cpg/sg70_33_cif.got.tgz:65002.got - 2010.04.16 13:46:32.
