data_PCOD8286138
_publ_section_title
;
Structure prediction by ZEFSAII (Michael W. Deem and Ramdas Pophale) SiO2 
 PCOD8286138
Probable space group: F D D D
;
_chemical_formula_sum "Si O2"
_cell_formula_units_Z 208
_cell_length_a 29.860972
_cell_length_b 16.434979
_cell_length_c 18.820413
_cell_angle_alpha 90.000000
_cell_angle_beta 90.000000
_cell_angle_gamma 90.000000
_cell_volume 9236.389592
_symmetry_space_group_name_H-M "F D D D"
_symmetry_group_IT_number 70
_space_group.IT_coordinate_system_code '2'
_symmetry_cell_setting 'orthorhombic'
loop_
_space_group_symop_operation_xyz
x,y,z
1/4-x,1/4-y,z
x,1/4-y,1/4-z
1/4-x,y,1/4-z
-x,-y,-z
3/4+x,3/4+y,-z
-x,3/4+y,3/4+z
3/4+x,-y,3/4+z
x,1/2+y,1/2+z
1/4-x,3/4-y,1/2+z
x,3/4-y,3/4-z
1/4-x,1/2+y,3/4-z
-x,1/2-y,1/2-z
3/4+x,1/4+y,1/2-z
-x,1/4+y,1/4+z
3/4+x,1/2-y,1/4+z
1/2+x,y,1/2+z
3/4-x,1/4-y,1/2+z
1/2+x,1/4-y,3/4-z
3/4-x,y,3/4-z
1/2-x,-y,1/2-z
1/4+x,3/4+y,1/2-z
1/2-x,3/4+y,1/4+z
1/4+x,-y,1/4+z
1/2+x,1/2+y,z
3/4-x,3/4-y,z
1/2+x,3/4-y,1/4-z
3/4-x,1/2+y,1/4-z
1/2-x,1/2-y,-z
1/4+x,1/4+y,-z
1/2-x,1/4+y,3/4+z
1/4+x,1/2-y,3/4+z
loop_
_atom_site_type_symbol
_atom_site_label
_atom_site_fract_x
_atom_site_fract_y
_atom_site_fract_z
Si Si1 0.125000 0.125000 0.482913
Si Si2 0.230471 0.259822 0.384046
Si Si3 0.351920 0.798786 0.478974
Si Si4 0.433936 0.008023 0.966809
Si Si5 0.316519 0.061718 0.496634
Si Si6 0.553466 0.159374 0.865028
Si Si7 0.023179 0.530350 0.623744
O O1 0.140270 0.200029 0.533978
O O2 0.083038 0.158028 0.436920
O O3 0.199317 0.259688 0.452094
O O4 0.281154 0.279900 0.409415
O O5 0.210671 0.320447 0.322442
O O6 0.229652 0.167132 0.356921
O O7 0.375000 0.875000 0.436228
O O8 0.384525 0.726714 0.504687
O O9 0.335890 0.844430 0.548924
O O10 0.312774 0.758984 0.431747
O O11 0.425961 0.103954 0.953528
O O12 0.286280 0.001295 0.451049
O O13 0.523986 0.239911 0.855028
O O14 0.013560 0.625000 0.625000
#
# Coordination Sequence:
#
# PCOD8286138 Si02
#       7
#    16  32  32  32  32  32  32
#     4  10  22  44  76  99 143 182 226 304 366 416
#     4  10  20  40  69  99 129 181 237 284 342 425
#     4  12  22  40  68  97 140 188 229 284 352 420
#     4  10  22  41  70 103 134 174 238 295 348 419
#     4  12  23  40  70 100 137 189 231 280 358 425
#     4  11  21  42  67 100 136 185 234 287 354 421
#     4  12  25  39  64 102 144 179 231 294 344 418
#
# _framework density 22.519621999999998
#
# number of rings (size 3 to 8) (size 9 to 14) (size 15 to 20)
#    0.000    0.923    5.385    2.308    0.000    1.231 
#    0.000    0.000    3.385    0.923    0.000    0.000 
#    0.000    0.000    0.000    0.000    0.000    0.000 
#
# Total GULP energy -644517.193947 kJ/mol
# GULP energy per Si atom -12394.561422 kJ/mol
# Density = 2.246837 g / cm^3
# Si number density = 22.519622 Si / 1000 Ang^3
#
#
#
# Elastic Constant Matrix: (Units=GPa)
#
#
# Indices 1 2 3 4 5 6 
#
# 1 119.5246 46.2151 30.6291 0.0000 0.0000 0.0000
# 2 46.2151 115.5396 13.8042 0.0000 0.0000 0.0000
# 3 30.6291 13.8042 57.0152 0.0000 0.0000 0.0000
# 4 0.0000 0.0000 0.0000 23.2598 0.0000 0.0000
# 5 0.0000 0.0000 0.0000 0.0000 24.4461 0.0000
# 6 0.0000 0.0000 0.0000 0.0000 0.0000 40.6852
#
#
#
# Elastic Compliance Matrix: (Units=1/GPa)
#
#
# Indices 1 2 3 4 5 6 
#
# 1 0.011154 -0.003857 -0.005058 0.000000 0.000000 0.000000
# 2 -0.003857 0.010247 -0.000409 0.000000 0.000000 0.000000
# 3 -0.005058 -0.000409 0.020355 0.000000 0.000000 0.000000
# 4 0.000000 0.000000 0.000000 0.042993 0.000000 0.000000
# 5 0.000000 0.000000 0.000000 0.000000 0.040906 0.000000
# 6 0.000000 0.000000 0.000000 0.000000 0.000000 0.024579
#
#
# Mechanical properties :
#
#
# Convention : Reuss Voigt Hill
#
# Bulk Modulus (GPa) = 43.27513 52.59735 47.93624
# Shear Modulus (GPa) = 28.31494 31.10695 29.71094
#
# Velocity S-wave (km/s) = 3.54975 3.72065 3.63621
# Velocity P-wave (km/s) = 6.00494 6.47029 6.24195
#
# Compressibility (1/GPa) = 0.02310796
#
# Stress axis : x y z
#
# Youngs Moduli (GPa) = 89.65307 97.59198 49.12683
#
# Poissons Ratio (x) = 0.37643 0.24849
# Poissons Ratio (y) = 0.34581 0.02008
# Poissons Ratio (z) = 0.45348 0.03989
#
# Static dielectric constant tensor:
#      x y z
#    x 4.158660 0.000000 0.000000 
#    y 0.000000 4.454750 0.000000 
#    z 0.000000 0.000000 3.975790 
# 
# 
# High freq. dielectric constant tensor:
#      x y z
#    x 1.880140 0.000000 0.000000 
#    y 0.000000 1.896530 0.000000 
#    z 0.000000 0.000000 1.883500 
# 
# From -- ./inp_files/47738.got.cif
#   From: 2010.03.12/outbox.cif.g09.slc.cpg/sg70_24_cif.got.tgz:47738.got - 2010.04.16 13:46:32.
