data_PCOD8286768
_publ_section_title
;
Structure prediction by ZEFSAII (Michael W. Deem and Ramdas Pophale) SiO2 
 PCOD8286768
Probable space group: F D D D
;
_chemical_formula_sum "Si O2"
_cell_formula_units_Z 176
_cell_length_a 28.340655
_cell_length_b 24.988517
_cell_length_c 10.789521
_cell_angle_alpha 90.000000
_cell_angle_beta 90.000000
_cell_angle_gamma 90.000000
_cell_volume 7641.041011
_symmetry_space_group_name_H-M "F D D D"
_symmetry_group_IT_number 70
_space_group.IT_coordinate_system_code '2'
_symmetry_cell_setting 'orthorhombic'
loop_
_space_group_symop_operation_xyz
x,y,z
1/4-x,1/4-y,z
x,1/4-y,1/4-z
1/4-x,y,1/4-z
-x,-y,-z
3/4+x,3/4+y,-z
-x,3/4+y,3/4+z
3/4+x,-y,3/4+z
x,1/2+y,1/2+z
1/4-x,3/4-y,1/2+z
x,3/4-y,3/4-z
1/4-x,1/2+y,3/4-z
-x,1/2-y,1/2-z
3/4+x,1/4+y,1/2-z
-x,1/4+y,1/4+z
3/4+x,1/2-y,1/4+z
1/2+x,y,1/2+z
3/4-x,1/4-y,1/2+z
1/2+x,1/4-y,3/4-z
3/4-x,y,3/4-z
1/2-x,-y,1/2-z
1/4+x,3/4+y,1/2-z
1/2-x,3/4+y,1/4+z
1/4+x,-y,1/4+z
1/2+x,1/2+y,z
3/4-x,3/4-y,z
1/2+x,3/4-y,1/4-z
3/4-x,1/2+y,1/4-z
1/2-x,1/2-y,-z
1/4+x,1/4+y,-z
1/2-x,1/4+y,3/4+z
1/4+x,1/2-y,3/4+z
loop_
_atom_site_type_symbol
_atom_site_label
_atom_site_fract_x
_atom_site_fract_y
_atom_site_fract_z
Si Si1 0.227593 0.625000 0.625000
Si Si2 0.485001 0.087372 0.384107
Si Si3 0.823023 0.871629 0.520657
Si Si4 0.180693 0.011449 0.097572
Si Si5 0.593549 0.398252 0.505279
Si Si6 0.049235 0.002650 0.431402
O O1 0.261663 0.625628 0.506450
O O2 0.194570 0.572303 0.626086
O O3 0.538662 0.083127 0.329544
O O4 0.456194 0.118993 0.278508
O O5 0.461624 0.030987 0.428050
O O6 0.821895 0.875000 0.375000
O O7 0.875000 0.875000 0.576739
O O8 0.811524 0.813454 0.564465
O O9 0.125000 0.003536 0.125000
O O10 0.198191 0.989337 0.964045
O O11 0.625000 0.384146 0.625000
O O12 0.614557 0.375000 0.375000
O O13 0.585899 0.462243 0.497883
O O14 0.000000 0.000000 0.500000
#
# Coordination Sequence:
#
# PCOD8286768 Si02
#       6
#    16  32  32  32  32  32
#     4  12  27  46  70 110 150 200 258 312 379 466
#     4  12  25  48  74 108 150 198 246 318 375 460
#     4  11  25  44  73 109 146 189 258 313 376 450
#     4  12  27  47  77 107 154 201 256 313 390 459
#     4  12  27  47  77 109 155 199 253 313 387 463
#     4  12  24  48  75 109 146 206 246 316 384 456
#
# _framework density 23.033511000000001
#
# number of rings (size 3 to 8) (size 9 to 14) (size 15 to 20)
#    0.000    0.182    5.455    3.000    6.364    0.000 
#    0.000    0.000    0.000    0.000    0.000    0.000 
#    0.000    0.000    0.000    0.000    0.000    0.000 
#
# Total GULP energy -545220.602455 kJ/mol
# GULP energy per Si atom -12391.377329 kJ/mol
# Density = 2.298109 g / cm^3
# Si number density = 23.033511 Si / 1000 Ang^3
#
#
#
# Elastic Constant Matrix: (Units=GPa)
#
#
# Indices 1 2 3 4 5 6 
#
# 1 145.3974 62.6649 48.4444 0.0004 -0.0002 -0.0002
# 2 62.6649 130.0808 5.3724 0.0030 -0.0020 -0.0011
# 3 48.4444 5.3724 127.0181 0.0056 -0.0035 -0.0022
# 4 0.0004 0.0030 0.0056 34.5111 -0.0019 -0.0012
# 5 -0.0002 -0.0020 -0.0035 -0.0019 43.9390 0.0009
# 6 -0.0002 -0.0011 -0.0022 -0.0012 0.0009 37.3336
#
#
#
# Elastic Compliance Matrix: (Units=1/GPa)
#
#
# Indices 1 2 3 4 5 6 
#
# 1 0.010139 -0.004733 -0.003667 0.000001 0.000000 0.000000
# 2 -0.004733 0.009910 0.001386 -0.000001 0.000001 0.000000
# 3 -0.003667 0.001386 0.009213 -0.000002 0.000001 0.000001
# 4 0.000001 -0.000001 -0.000002 0.028976 0.000001 0.000001
# 5 0.000000 0.000001 0.000001 0.000001 0.022759 -0.000001
# 6 0.000000 0.000000 0.000001 0.000001 -0.000001 0.026786
#
#
# Mechanical properties :
#
#
# Convention : Reuss Voigt Hill
#
# Bulk Modulus (GPa) = 65.64013 70.60665 68.12339
# Shear Modulus (GPa) = 39.40436 42.22435 40.81435
#
# Velocity S-wave (km/s) = 4.14060 4.28620 4.21403
# Velocity P-wave (km/s) = 7.17070 7.43073 7.30187
#
# Compressibility (1/GPa) = 0.01523458
#
# Stress axis : x y z
#
# Youngs Moduli (GPa) = 98.62513 100.90408 108.54414
#
# Poissons Ratio (x) = 0.47759 0.39803
# Poissons Ratio (y) = 0.46680 -0.15044
# Poissons Ratio (z) = 0.36165 -0.13985
#
# Static dielectric constant tensor:
#      x y z
#    x 4.210670 0.000000 0.000000 
#    y 0.000000 4.097470 0.000000 
#    z 0.000000 0.000000 4.173300 
# 
# 
# High freq. dielectric constant tensor:
#      x y z
#    x 1.905010 0.000000 0.000000 
#    y 0.000000 1.923780 0.000000 
#    z 0.000000 0.000000 1.921720 
# 
# From -- ./inp_files/20999.got.cif
#   From: 2010.03.12/outbox.cif.g09.slc.cpg/sg70_11_cif.got.tgz:20999.got - 2010.04.16 13:46:32.
