data_PCOD8286116
_publ_section_title
;
Structure prediction by ZEFSAII (Michael W. Deem and Ramdas Pophale) SiO2 
 PCOD8286116
Probable space group: F D D D
;
_chemical_formula_sum "Si O2"
_cell_formula_units_Z 168
_cell_length_a 13.602800
_cell_length_b 27.797302
_cell_length_c 20.283458
_cell_angle_alpha 90.000000
_cell_angle_beta 90.000000
_cell_angle_gamma 90.000000
_cell_volume 7669.604255
_symmetry_space_group_name_H-M "F D D D"
_symmetry_group_IT_number 70
_space_group.IT_coordinate_system_code '2'
_symmetry_cell_setting 'orthorhombic'
loop_
_space_group_symop_operation_xyz
x,y,z
1/4-x,1/4-y,z
x,1/4-y,1/4-z
1/4-x,y,1/4-z
-x,-y,-z
3/4+x,3/4+y,-z
-x,3/4+y,3/4+z
3/4+x,-y,3/4+z
x,1/2+y,1/2+z
1/4-x,3/4-y,1/2+z
x,3/4-y,3/4-z
1/4-x,1/2+y,3/4-z
-x,1/2-y,1/2-z
3/4+x,1/4+y,1/2-z
-x,1/4+y,1/4+z
3/4+x,1/2-y,1/4+z
1/2+x,y,1/2+z
3/4-x,1/4-y,1/2+z
1/2+x,1/4-y,3/4-z
3/4-x,y,3/4-z
1/2-x,-y,1/2-z
1/4+x,3/4+y,1/2-z
1/2-x,3/4+y,1/4+z
1/4+x,-y,1/4+z
1/2+x,1/2+y,z
3/4-x,3/4-y,z
1/2+x,3/4-y,1/4-z
3/4-x,1/2+y,1/4-z
1/2-x,1/2-y,-z
1/4+x,1/4+y,-z
1/2-x,1/4+y,3/4+z
1/4+x,1/2-y,3/4+z
loop_
_atom_site_type_symbol
_atom_site_label
_atom_site_fract_x
_atom_site_fract_y
_atom_site_fract_z
Si Si1 0.916965 0.571926 0.737558
Si Si2 0.101747 0.006111 0.248479
Si Si3 0.375000 0.190376 0.875000
Si Si4 0.469896 0.345498 0.709612
Si Si5 0.375000 0.875000 0.875000
Si Si6 0.972294 0.048131 0.634161
Si Si7 0.625000 0.966922 0.125000
O O1 0.836463 0.568163 0.679583
O O2 0.871725 0.566720 0.810537
O O3 0.997889 0.530382 0.731911
O O4 0.967324 0.624874 0.735297
O O5 0.188916 0.044520 0.258886
O O6 0.123083 0.973265 0.187842
O O7 0.101487 0.968253 0.308862
O O8 0.471550 0.158542 0.860031
O O9 0.375000 0.375000 0.688061
O O10 0.450392 0.911423 0.837230
O O11 0.029038 0.999622 0.615227
#
# Coordination Sequence:
#
# PCOD8286116 Si02
#       7
#    32  32  16  32   8  32  16
#     4  10  20  39  66  93 129 171 208 272 325 381
#     4  10  23  42  63  93 127 171 220 261 329 399
#     4  12  23  42  64  90 127 179 206 274 326 387
#     4  10  23  42  63  97 130 160 226 271 320 397
#     4  10  24  40  58 100 130 156 232 272 316 398
#     4  10  21  40  64  93 132 174 212 269 327 395
#     4   9  19  37  64  96 131 169 216 255 326 398
#
# _framework density 21.90465
#
# number of rings (size 3 to 8) (size 9 to 14) (size 15 to 20)
#    0.000    1.905    0.000    2.857    2.667    0.000 
#    1.714    5.238    0.000    0.000    0.000    0.000 
#    0.000    0.000    0.000    0.000    0.000    0.000 
#
# Total GULP energy -520364.081876 kJ/mol
# GULP energy per Si atom -12389.620997 kJ/mol
# Density = 2.185479 g / cm^3
# Si number density = 21.904650 Si / 1000 Ang^3
#
#
#
# Elastic Constant Matrix: (Units=GPa)
#
#
# Indices 1 2 3 4 5 6 
#
# 1 107.6388 54.3448 76.7694 0.0000 0.0000 0.0000
# 2 54.3448 122.1561 57.8945 0.0000 0.0000 0.0000
# 3 76.7694 57.8945 141.5600 0.0000 0.0000 0.0000
# 4 0.0000 0.0000 0.0000 19.6354 0.0000 0.0000
# 5 0.0000 0.0000 0.0000 0.0000 26.5372 0.0000
# 6 0.0000 0.0000 0.0000 0.0000 0.0000 41.1582
#
#
#
# Elastic Compliance Matrix: (Units=1/GPa)
#
#
# Indices 1 2 3 4 5 6 
#
# 1 0.016486 -0.003842 -0.007369 0.000000 0.000000 0.000000
# 2 -0.003842 0.011050 -0.002436 0.000000 0.000000 0.000000
# 3 -0.007369 -0.002436 0.012057 0.000000 0.000000 0.000000
# 4 0.000000 0.000000 0.000000 0.050928 0.000000 0.000000
# 5 0.000000 0.000000 0.000000 0.000000 0.037683 0.000000
# 6 0.000000 0.000000 0.000000 0.000000 0.000000 0.024296
#
#
# Mechanical properties :
#
#
# Convention : Reuss Voigt Hill
#
# Bulk Modulus (GPa) = 81.30749 83.26361 82.28555
# Shear Modulus (GPa) = 27.18977 29.62258 28.40618
#
# Velocity S-wave (km/s) = 3.52700 3.68141 3.60503
# Velocity P-wave (km/s) = 7.33387 7.49431 7.41453
#
# Compressibility (1/GPa) = 0.01229899
#
# Stress axis : x y z
#
# Youngs Moduli (GPa) = 60.65847 90.50039 82.94137
#
# Poissons Ratio (x) = 0.34767 0.61122
# Poissons Ratio (y) = 0.23303 0.20202
# Poissons Ratio (z) = 0.44701 0.22043
#
# Static dielectric constant tensor:
#      x y z
#    x 4.570150 0.000000 0.000000 
#    y 0.000000 4.362870 0.000000 
#    z 0.000000 0.000000 3.382090 
# 
# 
# High freq. dielectric constant tensor:
#      x y z
#    x 1.876950 0.000000 0.000000 
#    y 0.000000 1.887680 0.000000 
#    z 0.000000 0.000000 1.829670 
# 
# From -- ./inp_files/42870.got.cif
#   From: 2010.03.12/outbox.cif.g09.slc.cpg/sg70_22_cif.got.tgz:42870.got - 2010.04.16 13:46:32.
