data_PCOD8286180
_publ_section_title
;
Structure prediction by ZEFSAII (Michael W. Deem and Ramdas Pophale) SiO2 
 PCOD8286180
Probable space group: F D D D
;
_chemical_formula_sum "Si O2"
_cell_formula_units_Z 144
_cell_length_a 13.807082
_cell_length_b 20.399122
_cell_length_c 23.719506
_cell_angle_alpha 90.000000
_cell_angle_beta 90.000000
_cell_angle_gamma 90.000000
_cell_volume 6680.654610
_symmetry_space_group_name_H-M "F D D D"
_symmetry_group_IT_number 70
_space_group.IT_coordinate_system_code '2'
_symmetry_cell_setting 'orthorhombic'
loop_
_space_group_symop_operation_xyz
x,y,z
1/4-x,1/4-y,z
x,1/4-y,1/4-z
1/4-x,y,1/4-z
-x,-y,-z
3/4+x,3/4+y,-z
-x,3/4+y,3/4+z
3/4+x,-y,3/4+z
x,1/2+y,1/2+z
1/4-x,3/4-y,1/2+z
x,3/4-y,3/4-z
1/4-x,1/2+y,3/4-z
-x,1/2-y,1/2-z
3/4+x,1/4+y,1/2-z
-x,1/4+y,1/4+z
3/4+x,1/2-y,1/4+z
1/2+x,y,1/2+z
3/4-x,1/4-y,1/2+z
1/2+x,1/4-y,3/4-z
3/4-x,y,3/4-z
1/2-x,-y,1/2-z
1/4+x,3/4+y,1/2-z
1/2-x,3/4+y,1/4+z
1/4+x,-y,1/4+z
1/2+x,1/2+y,z
3/4-x,3/4-y,z
1/2+x,3/4-y,1/4-z
3/4-x,1/2+y,1/4-z
1/2-x,1/2-y,-z
1/4+x,1/4+y,-z
1/2-x,1/4+y,3/4+z
1/4+x,1/2-y,3/4+z
loop_
_atom_site_type_symbol
_atom_site_label
_atom_site_fract_x
_atom_site_fract_y
_atom_site_fract_z
Si Si1 0.375000 0.375000 0.739917
Si Si2 0.080625 0.229498 0.902865
Si Si3 0.875000 0.721891 0.375000
Si Si4 0.125000 0.125000 0.811722
Si Si5 0.050727 0.820266 0.238876
Si Si6 0.553202 0.396512 0.935952
O O1 0.432670 0.427315 0.702570
O O2 0.458218 0.341555 0.777112
O O3 0.126565 0.191600 0.849057
O O4 0.147862 0.283798 0.928890
O O5 0.975680 0.261436 0.885417
O O6 0.889196 0.677942 0.319405
O O7 0.217316 0.124875 0.770060
O O8 0.121029 0.842525 0.289554
O O9 0.000000 0.750000 0.250000
O O10 0.517346 0.375000 0.875000
#
# Coordination Sequence:
#
# PCOD8286180 Si02
#       6
#    16  32  16  16  32  32
#     4  11  23  46  67  94 139 180 224 282 330 412
#     4  10  22  42  70  99 130 177 229 275 353 409
#     4  10  20  44  69  92 142 169 220 292 334 414
#     4   9  22  42  66  98 138 168 219 286 344 410
#     4  11  24  43  68  99 135 180 226 283 351 415
#     4  12  25  42  66 101 136 177 230 278 341 410
#
# _framework density 21.554773999999998
#
# number of rings (size 3 to 8) (size 9 to 14) (size 15 to 20)
#    0.000    1.333    2.222    3.667    3.111    1.778 
#    0.000    2.222    0.000    0.000    0.000    0.000 
#    0.000    0.000    0.000    0.000    0.000    0.000 
#
# Total GULP energy -446099.793985 kJ/mol
# GULP energy per Si atom -12391.660944 kJ/mol
# Density = 2.150571 g / cm^3
# Si number density = 21.554774 Si / 1000 Ang^3
#
#
#
# Elastic Constant Matrix: (Units=GPa)
#
#
# Indices 1 2 3 4 5 6 
#
# 1 141.3962 36.9944 34.0025 0.0000 0.0000 0.0000
# 2 36.9944 76.7737 13.4449 0.0000 0.0000 0.0000
# 3 34.0025 13.4449 102.0321 0.0000 0.0000 0.0000
# 4 0.0000 0.0000 0.0000 13.1100 0.0000 0.0000
# 5 0.0000 0.0000 0.0000 0.0000 15.9283 0.0000
# 6 0.0000 0.0000 0.0000 0.0000 0.0000 21.3591
#
#
#
# Elastic Compliance Matrix: (Units=1/GPa)
#
#
# Indices 1 2 3 4 5 6 
#
# 1 0.008623 -0.003738 -0.002381 0.000000 0.000000 0.000000
# 2 -0.003738 0.014953 -0.000725 0.000000 0.000000 0.000000
# 3 -0.002381 -0.000725 0.010690 0.000000 0.000000 0.000000
# 4 0.000000 0.000000 0.000000 0.076278 0.000000 0.000000
# 5 0.000000 0.000000 0.000000 0.000000 0.062781 0.000000
# 6 0.000000 0.000000 0.000000 0.000000 0.000000 0.046818
#
#
# Mechanical properties :
#
#
# Convention : Reuss Voigt Hill
#
# Bulk Modulus (GPa) = 48.59437 54.34286 51.46861
# Shear Modulus (GPa) = 20.77352 25.79682 23.28517
#
# Velocity S-wave (km/s) = 3.10781 3.46324 3.29033
# Velocity P-wave (km/s) = 5.95580 6.42326 6.19394
#
# Compressibility (1/GPa) = 0.02057852
#
# Stress axis : x y z
#
# Youngs Moduli (GPa) = 115.96981 66.87417 93.54695
#
# Poissons Ratio (x) = 0.24998 0.22274
# Poissons Ratio (y) = 0.43351 0.06779
# Poissons Ratio (z) = 0.27613 0.04846
#
# Static dielectric constant tensor:
#      x y z
#    x 4.047080 0.000000 0.000000 
#    y 0.000000 3.572400 0.000000 
#    z 0.000000 0.000000 4.275860 
# 
# 
# High freq. dielectric constant tensor:
#      x y z
#    x 1.858090 0.000000 0.000000 
#    y 0.000000 1.811880 0.000000 
#    z 0.000000 0.000000 1.869860 
# 
# From -- ./inp_files/20709.got.cif
#   From: 2010.03.12/outbox.cif.g09.slc.cpg/sg70_11_cif.got.tgz:20709.got - 2010.04.16 13:46:32.
