data_PCOD8286551
_publ_section_title
;
Structure prediction by ZEFSAII (Michael W. Deem and Ramdas Pophale) SiO2 
 PCOD8286551
Probable space group: F D D D
;
_chemical_formula_sum "Si O2"
_cell_formula_units_Z 152
_cell_length_a 24.130337
_cell_length_b 12.822149
_cell_length_c 21.285948
_cell_angle_alpha 90.000000
_cell_angle_beta 90.000000
_cell_angle_gamma 90.000000
_cell_volume 6585.931410
_symmetry_space_group_name_H-M "F D D D"
_symmetry_group_IT_number 70
_space_group.IT_coordinate_system_code '2'
_symmetry_cell_setting 'orthorhombic'
loop_
_space_group_symop_operation_xyz
x,y,z
1/4-x,1/4-y,z
x,1/4-y,1/4-z
1/4-x,y,1/4-z
-x,-y,-z
3/4+x,3/4+y,-z
-x,3/4+y,3/4+z
3/4+x,-y,3/4+z
x,1/2+y,1/2+z
1/4-x,3/4-y,1/2+z
x,3/4-y,3/4-z
1/4-x,1/2+y,3/4-z
-x,1/2-y,1/2-z
3/4+x,1/4+y,1/2-z
-x,1/4+y,1/4+z
3/4+x,1/2-y,1/4+z
1/2+x,y,1/2+z
3/4-x,1/4-y,1/2+z
1/2+x,1/4-y,3/4-z
3/4-x,y,3/4-z
1/2-x,-y,1/2-z
1/4+x,3/4+y,1/2-z
1/2-x,3/4+y,1/4+z
1/4+x,-y,1/4+z
1/2+x,1/2+y,z
3/4-x,3/4-y,z
1/2+x,3/4-y,1/4-z
3/4-x,1/2+y,1/4-z
1/2-x,1/2-y,-z
1/4+x,1/4+y,-z
1/2-x,1/4+y,3/4+z
1/4+x,1/2-y,3/4+z
loop_
_atom_site_type_symbol
_atom_site_label
_atom_site_fract_x
_atom_site_fract_y
_atom_site_fract_z
Si Si1 0.546458 0.664981 0.892330
Si Si2 0.941843 0.233165 0.045635
Si Si3 0.067293 0.737432 0.096918
Si Si4 0.790003 0.908788 0.773461
Si Si5 0.139746 0.375000 0.375000
Si Si6 0.125000 0.125000 0.125000
O O1 0.566058 0.578953 0.843126
O O2 0.479740 0.676790 0.888716
O O3 0.569507 0.631387 0.960355
O O4 0.571336 0.776338 0.878531
O O5 0.899430 0.140203 0.063973
O O6 0.926990 0.276575 0.977548
O O7 0.003590 0.186560 0.051225
O O8 0.051940 0.625000 0.125000
O O9 0.125000 0.779675 0.125000
O O10 0.835134 0.941611 0.827228
O O11 0.750000 0.000000 0.750000
#
# Coordination Sequence:
#
# PCOD8286551 Si02
#       6
#    32  32  32  32  16   8
#     4  11  25  46  72 107 144 192 253 307 383 470
#     4  11  26  46  73 104 148 196 251 322 371 473
#     4  10  24  45  68 105 146 192 248 313 385 460
#     4  11  26  49  71 111 149 192 262 308 384 465
#     4  12  25  42  73 103 136 201 234 310 386 442
#     4  12  26  44  84 108 152 208 238 324 390 452
#
# _framework density 23.079498999999998
#
# number of rings (size 3 to 8) (size 9 to 14) (size 15 to 20)
#    0.000    1.053    1.053    3.789   11.789    4.211 
#   13.263    0.000    0.000    0.000    0.000    0.000 
#    0.000    0.000    0.000    0.000    0.000    0.000 
#
# Total GULP energy -471078.088456 kJ/mol
# GULP energy per Si atom -12396.791801 kJ/mol
# Density = 2.302697 g / cm^3
# Si number density = 23.079499 Si / 1000 Ang^3
#
#
#
# Elastic Constant Matrix: (Units=GPa)
#
#
# Indices 1 2 3 4 5 6 
#
# 1 124.3812 34.1421 73.2589 0.0000 0.0000 0.0000
# 2 34.1421 95.5983 45.8392 0.0000 0.0000 0.0000
# 3 73.2589 45.8392 162.6397 0.0000 0.0000 0.0000
# 4 0.0000 0.0000 0.0000 35.4341 0.0000 0.0000
# 5 0.0000 0.0000 0.0000 0.0000 42.0438 0.0000
# 6 0.0000 0.0000 0.0000 0.0000 0.0000 8.0976
#
#
#
# Elastic Compliance Matrix: (Units=1/GPa)
#
#
# Indices 1 2 3 4 5 6 
#
# 1 0.011213 -0.001830 -0.004535 0.000000 0.000000 0.000000
# 2 -0.001830 0.012394 -0.002669 0.000000 0.000000 0.000000
# 3 -0.004535 -0.002669 0.008943 0.000000 0.000000 0.000000
# 4 0.000000 0.000000 0.000000 0.028221 0.000000 0.000000
# 5 0.000000 0.000000 0.000000 0.000000 0.023785 0.000000
# 6 0.000000 0.000000 0.000000 0.000000 0.000000 0.123494
#
#
# Mechanical properties :
#
#
# Convention : Reuss Voigt Hill
#
# Bulk Modulus (GPa) = 69.04854 76.56662 72.80758
# Shear Modulus (GPa) = 21.65010 32.40704 27.02857
#
# Velocity S-wave (km/s) = 3.06611 3.75126 3.42586
# Velocity P-wave (km/s) = 6.52053 7.21178 6.87485
#
# Compressibility (1/GPa) = 0.01448257
#
# Stress axis : x y z
#
# Youngs Moduli (GPa) = 89.18020 80.68598 111.81338
#
# Poissons Ratio (x) = 0.14767 0.50708
# Poissons Ratio (y) = 0.16322 0.29840
# Poissons Ratio (z) = 0.40444 0.21533
#
# Static dielectric constant tensor:
#      x y z
#    x 4.507960 0.000000 0.000000 
#    y 0.000000 3.899590 0.000000 
#    z 0.000000 0.000000 3.805160 
# 
# 
# High freq. dielectric constant tensor:
#      x y z
#    x 1.929800 0.000000 0.000000 
#    y 0.000000 1.903280 0.000000 
#    z 0.000000 0.000000 1.921530 
# 
# From -- ./inp_files/46723.got.cif
#   From: 2010.03.12/outbox.cif.g09.slc.cpg/sg70_24_cif.got.tgz:46723.got - 2010.04.16 13:46:32.
