data_PCOD8286000
_publ_section_title
;
Structure prediction by ZEFSAII (Michael W. Deem and Ramdas Pophale) SiO2 
 PCOD8286000
Probable space group: F D D D
;
_chemical_formula_sum "Si O2"
_cell_formula_units_Z 128
_cell_length_a 8.717748
_cell_length_b 29.762526
_cell_length_c 22.018596
_cell_angle_alpha 90.000000
_cell_angle_beta 90.000000
_cell_angle_gamma 90.000000
_cell_volume 5712.993392
_symmetry_space_group_name_H-M "F D D D"
_symmetry_group_IT_number 70
_space_group.IT_coordinate_system_code '2'
_symmetry_cell_setting 'orthorhombic'
loop_
_space_group_symop_operation_xyz
x,y,z
1/4-x,1/4-y,z
x,1/4-y,1/4-z
1/4-x,y,1/4-z
-x,-y,-z
3/4+x,3/4+y,-z
-x,3/4+y,3/4+z
3/4+x,-y,3/4+z
x,1/2+y,1/2+z
1/4-x,3/4-y,1/2+z
x,3/4-y,3/4-z
1/4-x,1/2+y,3/4-z
-x,1/2-y,1/2-z
3/4+x,1/4+y,1/2-z
-x,1/4+y,1/4+z
3/4+x,1/2-y,1/4+z
1/2+x,y,1/2+z
3/4-x,1/4-y,1/2+z
1/2+x,1/4-y,3/4-z
3/4-x,y,3/4-z
1/2-x,-y,1/2-z
1/4+x,3/4+y,1/2-z
1/2-x,3/4+y,1/4+z
1/4+x,-y,1/4+z
1/2+x,1/2+y,z
3/4-x,3/4-y,z
1/2+x,3/4-y,1/4-z
3/4-x,1/2+y,1/4-z
1/2-x,1/2-y,-z
1/4+x,1/4+y,-z
1/2-x,1/4+y,3/4+z
1/4+x,1/2-y,3/4+z
loop_
_atom_site_type_symbol
_atom_site_label
_atom_site_fract_x
_atom_site_fract_y
_atom_site_fract_z
Si Si1 0.372592 0.060854 0.016489
Si Si2 0.375000 0.375000 0.968210
Si Si3 0.795716 0.458061 0.011560
Si Si4 0.375000 0.725337 0.375000
Si Si5 0.330419 0.055568 0.153787
O O1 0.256077 0.099608 0.991255
O O2 0.535962 0.064272 0.982552
O O3 0.395099 0.070308 0.088334
O O4 0.302163 0.011878 0.005884
O O5 0.308171 0.336795 0.924683
O O6 0.719026 0.439601 0.950837
O O7 0.694403 0.444748 0.070676
O O8 0.513928 0.755091 0.347967
#
# Coordination Sequence:
#
# PCOD8286000 Si02
#       5
#    32  16  32  16  32
#     4  10  21  36  57  92 119 149 194 254 299 365
#     4  12  21  36  58  88 128 152 190 244 327 368
#     4  10  21  36  57  87 116 154 205 239 300 348
#     4  10  20  35  60  86 114 160 204 248 288 368
#     4  11  19  35  60  86 117 156 189 246 309 357
#
# _framework density 22.405066999999999
#
# number of rings (size 3 to 8) (size 9 to 14) (size 15 to 20)
#    0.000    1.500    5.000    3.000    0.000    1.000 
#    0.000    2.500    0.000    3.000    0.000    0.000 
#    0.000    0.000    0.000    0.000    0.000    0.000 
#
# Total GULP energy -396728.607973 kJ/mol
# GULP energy per Si atom -12397.768999 kJ/mol
# Density = 2.235407 g / cm^3
# Si number density = 22.405067 Si / 1000 Ang^3
#
#
#
# Elastic Constant Matrix: (Units=GPa)
#
#
# Indices 1 2 3 4 5 6 
#
# 1 134.1280 34.1711 46.3156 0.0000 0.0000 0.0000
# 2 34.1711 50.4323 10.8828 0.0000 0.0000 0.0000
# 3 46.3156 10.8828 60.1781 0.0000 0.0000 0.0000
# 4 0.0000 0.0000 0.0000 20.0151 0.0000 0.0000
# 5 0.0000 0.0000 0.0000 0.0000 40.6935 0.0000
# 6 0.0000 0.0000 0.0000 0.0000 0.0000 40.5419
#
#
#
# Elastic Compliance Matrix: (Units=1/GPa)
#
#
# Indices 1 2 3 4 5 6 
#
# 1 0.011799 -0.006280 -0.007945 0.000000 0.000000 0.000000
# 2 -0.006280 0.023976 0.000498 0.000000 0.000000 0.000000
# 3 -0.007945 0.000498 0.022642 0.000000 0.000000 0.000000
# 4 0.000000 0.000000 0.000000 0.049962 0.000000 0.000000
# 5 0.000000 0.000000 0.000000 0.000000 0.024574 0.000000
# 6 0.000000 0.000000 0.000000 0.000000 0.000000 0.024666
#
#
# Mechanical properties :
#
#
# Convention : Reuss Voigt Hill
#
# Bulk Modulus (GPa) = 32.29770 47.49749 39.89759
# Shear Modulus (GPa) = 25.58894 30.47468 28.03181
#
# Velocity S-wave (km/s) = 3.38317 3.69205 3.54098
# Velocity P-wave (km/s) = 5.45048 6.27857 5.87912
#
# Compressibility (1/GPa) = 0.03096196
#
# Stress axis : x y z
#
# Youngs Moduli (GPa) = 84.75191 41.70762 44.16482
#
# Poissons Ratio (x) = 0.26193 0.35091
# Poissons Ratio (y) = 0.53226 -0.02197
# Poissons Ratio (z) = 0.67339 -0.02075
#
# Static dielectric constant tensor:
#      x y z
#    x 4.216630 0.000000 0.000000 
#    y 0.000000 3.916450 0.000000 
#    z 0.000000 0.000000 3.850670 
# 
# 
# High freq. dielectric constant tensor:
#      x y z
#    x 1.895100 0.000000 0.000000 
#    y 0.000000 1.856190 0.000000 
#    z 0.000000 0.000000 1.849100 
# 
# From -- ./inp_files/56630.got.cif
#   From: 2010.03.12/outbox.cif.g09.slc.cpg/sg70_29_cif.got.tgz:56630.got - 2010.04.16 13:46:32.
