data_PCOD8286776
_publ_section_title
;
Structure prediction by ZEFSAII (Michael W. Deem and Ramdas Pophale) SiO2 
 PCOD8286776
Probable space group: F D D D
;
_chemical_formula_sum "Si O2"
_cell_formula_units_Z 96
_cell_length_a 17.747551
_cell_length_b 25.604759
_cell_length_c 8.249297
_cell_angle_alpha 90.000000
_cell_angle_beta 90.000000
_cell_angle_gamma 90.000000
_cell_volume 3748.660113
_symmetry_space_group_name_H-M "F D D D"
_symmetry_group_IT_number 70
_space_group.IT_coordinate_system_code '2'
_symmetry_cell_setting 'orthorhombic'
loop_
_space_group_symop_operation_xyz
x,y,z
1/4-x,1/4-y,z
x,1/4-y,1/4-z
1/4-x,y,1/4-z
-x,-y,-z
3/4+x,3/4+y,-z
-x,3/4+y,3/4+z
3/4+x,-y,3/4+z
x,1/2+y,1/2+z
1/4-x,3/4-y,1/2+z
x,3/4-y,3/4-z
1/4-x,1/2+y,3/4-z
-x,1/2-y,1/2-z
3/4+x,1/4+y,1/2-z
-x,1/4+y,1/4+z
3/4+x,1/2-y,1/4+z
1/2+x,y,1/2+z
3/4-x,1/4-y,1/2+z
1/2+x,1/4-y,3/4-z
3/4-x,y,3/4-z
1/2-x,-y,1/2-z
1/4+x,3/4+y,1/2-z
1/2-x,3/4+y,1/4+z
1/4+x,-y,1/4+z
1/2+x,1/2+y,z
3/4-x,3/4-y,z
1/2+x,3/4-y,1/4-z
3/4-x,1/2+y,1/4-z
1/2-x,1/2-y,-z
1/4+x,1/4+y,-z
1/2-x,1/4+y,3/4+z
1/4+x,1/2-y,3/4+z
loop_
_atom_site_type_symbol
_atom_site_label
_atom_site_fract_x
_atom_site_fract_y
_atom_site_fract_z
Si Si1 0.625000 0.862749 0.625000
Si Si2 0.125000 0.125000 0.625000
Si Si3 0.375000 0.875000 0.375000
Si Si4 0.252615 0.946736 0.444171
Si Si5 0.749682 0.936528 0.558982
O O1 0.575455 0.826189 0.508951
O O2 0.678774 0.899699 0.515289
O O3 0.175256 0.086785 0.516251
O O4 0.323441 0.910459 0.497696
O O5 0.255830 0.807820 0.498770
O O6 0.264485 0.005176 0.511516
#
# Coordination Sequence:
#
# PCOD8286776 Si02
#       5
#    16   8   8  32  32
#     4  12  24  48  76 114 148 198 258 322 382 464
#     4  12  28  50  74 114 160 200 260 324 382 466
#     4  12  20  46  68 108 140 196 246 310 370 456
#     4  11  25  47  78 108 151 202 256 321 390 460
#     4  11  26  48  73 112 151 202 257 317 390 465
#
# _framework density 25.609148999999999
#
# number of rings (size 3 to 8) (size 9 to 14) (size 15 to 20)
#    0.000    0.667    3.333    3.000    4.667    0.000 
#    0.000    3.333    0.000    0.000    0.000    0.000 
#    0.000    0.000    0.000    0.000    0.000    0.000 
#
# Total GULP energy -297555.022698 kJ/mol
# GULP energy per Si atom -12398.125946 kJ/mol
# Density = 2.555086 g / cm^3
# Si number density = 25.609149 Si / 1000 Ang^3
#
#
#
# Elastic Constant Matrix: (Units=GPa)
#
#
# Indices 1 2 3 4 5 6 
#
# 1 200.2478 99.5927 66.9090 -0.0005 0.0000 0.0000
# 2 99.5927 241.9395 59.2927 0.0006 0.0001 0.0000
# 3 66.9090 59.2927 73.1575 -0.0034 -0.0003 0.0001
# 4 -0.0005 0.0006 -0.0034 -52.1083 0.0018 -0.0005
# 5 0.0000 0.0001 -0.0003 0.0018 56.0314 -0.0001
# 6 0.0000 0.0000 0.0001 -0.0005 -0.0001 33.0224
#
#
#
# Elastic Compliance Matrix: (Units=1/GPa)
#
#
# Indices 1 2 3 4 5 6 
#
# 1 0.007786 -0.001822 -0.005644 0.000000 0.000000 0.000000
# 2 -0.001822 0.005584 -0.002860 0.000000 0.000000 0.000000
# 3 -0.005644 -0.002860 0.021149 -0.000001 0.000000 0.000000
# 4 0.000000 0.000000 -0.000001 -0.019191 0.000001 0.000000
# 5 0.000000 0.000000 0.000000 0.000001 0.017847 0.000000
# 6 0.000000 0.000000 0.000000 0.000000 0.000000 0.030283
#
#
# Mechanical properties :
#
#
# Convention : Reuss Voigt Hill
#
# Bulk Modulus (GPa) = 72.11096 107.43707 89.77401
# Shear Modulus (GPa) = 56.34991 26.69246 41.52118
#
# Velocity S-wave (km/s) = 4.69591 3.23197 4.03096
# Velocity P-wave (km/s) = 7.59088 7.48139 7.53634
#
# Compressibility (1/GPa) = 0.01386752
#
# Stress axis : x y z
#
# Youngs Moduli (GPa) = 128.43949 179.08446 47.28355
#
# Poissons Ratio (x) = 0.32624 0.26688
# Poissons Ratio (y) = 0.23398 0.13521
# Poissons Ratio (z) = 0.72495 0.51211
#
# Static dielectric constant tensor:
#      x y z
#    x 5.005480 0.000000 0.000000 
#    y 0.000000 5.599900 0.000000 
#    z 0.000000 0.000000 4.230540 
# 
# 
# High freq. dielectric constant tensor:
#      x y z
#    x 2.041600 0.000000 0.000000 
#    y 0.000000 2.047590 0.000000 
#    z 0.000000 0.000000 1.998840 
# 
# From -- ./inp_files/15947.got.cif
#   From: 2010.03.12/outbox.cif.g09.slc.cpg/sg70_8_cif.got.tgz:15947.got - 2010.04.16 13:46:32.
