data_PCOD8286005
_publ_section_title
;
Structure prediction by ZEFSAII (Michael W. Deem and Ramdas Pophale) SiO2 
 PCOD8286005
Probable space group: F D D D
;
_chemical_formula_sum "Si O2"
_cell_formula_units_Z 192
_cell_length_a 27.774462
_cell_length_b 23.016331
_cell_length_c 14.554431
_cell_angle_alpha 90.000000
_cell_angle_beta 90.000000
_cell_angle_gamma 90.000000
_cell_volume 9304.155955
_symmetry_space_group_name_H-M "F D D D"
_symmetry_group_IT_number 70
_space_group.IT_coordinate_system_code '2'
_symmetry_cell_setting 'orthorhombic'
loop_
_space_group_symop_operation_xyz
x,y,z
1/4-x,1/4-y,z
x,1/4-y,1/4-z
1/4-x,y,1/4-z
-x,-y,-z
3/4+x,3/4+y,-z
-x,3/4+y,3/4+z
3/4+x,-y,3/4+z
x,1/2+y,1/2+z
1/4-x,3/4-y,1/2+z
x,3/4-y,3/4-z
1/4-x,1/2+y,3/4-z
-x,1/2-y,1/2-z
3/4+x,1/4+y,1/2-z
-x,1/4+y,1/4+z
3/4+x,1/2-y,1/4+z
1/2+x,y,1/2+z
3/4-x,1/4-y,1/2+z
1/2+x,1/4-y,3/4-z
3/4-x,y,3/4-z
1/2-x,-y,1/2-z
1/4+x,3/4+y,1/2-z
1/2-x,3/4+y,1/4+z
1/4+x,-y,1/4+z
1/2+x,1/2+y,z
3/4-x,3/4-y,z
1/2+x,3/4-y,1/4-z
3/4-x,1/2+y,1/4-z
1/2-x,1/2-y,-z
1/4+x,1/4+y,-z
1/2-x,1/4+y,3/4+z
1/4+x,1/2-y,3/4+z
loop_
_atom_site_type_symbol
_atom_site_label
_atom_site_fract_x
_atom_site_fract_y
_atom_site_fract_z
Si Si1 0.281415 0.920754 0.073422
Si Si2 0.375000 0.375000 0.653140
Si Si3 0.712633 0.414244 0.234539
Si Si4 0.561229 0.896187 0.773053
Si Si5 0.231973 0.296054 0.816570
Si Si6 0.875000 0.141430 0.375000
Si Si7 0.590709 0.024958 0.712820
O O1 0.330639 0.885812 0.083486
O O2 0.258948 0.930949 0.174630
O O3 0.288311 0.984771 0.029543
O O4 0.244223 0.886540 0.006707
O O5 0.384688 0.431999 0.713734
O O6 0.710488 0.344775 0.249897
O O7 0.713057 0.447256 0.329963
O O8 0.665100 0.432233 0.176690
O O9 0.570016 0.875000 0.875000
O O10 0.595159 0.856811 0.704086
O O11 0.580019 0.962350 0.760059
O O12 0.289727 0.301927 0.817799
O O13 0.625000 0.020753 0.625000
#
# Coordination Sequence:
#
# PCOD8286005 Si02
#       7
#    32  16  32  32  32  16  32
#     4  10  22  39  59  90 130 163 217 270 318 390
#     4  12  23  36  65  96 138 174 216 261 335 414
#     4  10  20  36  56  92 127 168 208 258 326 391
#     4  10  23  43  65  90 128 174 219 278 324 379
#     4  10  21  36  61  89 132 170 206 263 336 389
#     4  10  22  36  60  91 126 155 222 272 314 374
#     4  11  22  37  63 103 135 171 209 268 337 405
#
# _framework density 20.635939
#
# number of rings (size 3 to 8) (size 9 to 14) (size 15 to 20)
#    0.000    1.667    2.500    1.750    7.000    0.000 
#    0.000    1.250    7.333    0.000    0.000    0.000 
#    0.000    0.000    0.000    0.000    0.000    0.000 
#
# Total GULP energy -594771.286491 kJ/mol
# GULP energy per Si atom -12391.068469 kJ/mol
# Density = 2.058897 g / cm^3
# Si number density = 20.635939 Si / 1000 Ang^3
#
#
#
# Elastic Constant Matrix: (Units=GPa)
#
#
# Indices 1 2 3 4 5 6 
#
# 1 146.6488 32.5719 54.6014 0.0000 0.0000 0.0000
# 2 32.5719 75.6289 36.8030 0.0000 0.0000 0.0000
# 3 54.6014 36.8030 120.8469 0.0000 0.0000 0.0000
# 4 0.0000 0.0000 0.0000 23.4031 0.0000 0.0000
# 5 0.0000 0.0000 0.0000 0.0000 28.4717 0.0000
# 6 0.0000 0.0000 0.0000 0.0000 0.0000 17.8344
#
#
#
# Elastic Compliance Matrix: (Units=1/GPa)
#
#
# Indices 1 2 3 4 5 6 
#
# 1 0.008472 -0.002097 -0.003189 0.000000 0.000000 0.000000
# 2 -0.002097 0.016042 -0.003938 0.000000 0.000000 0.000000
# 3 -0.003189 -0.003938 0.010915 0.000000 0.000000 0.000000
# 4 0.000000 0.000000 0.000000 0.042729 0.000000 0.000000
# 5 0.000000 0.000000 0.000000 0.000000 0.035123 0.000000
# 6 0.000000 0.000000 0.000000 0.000000 0.000000 0.056071
#
#
# Mechanical properties :
#
#
# Convention : Reuss Voigt Hill
#
# Bulk Modulus (GPa) = 58.88965 65.67527 62.28246
# Shear Modulus (GPa) = 25.84494 28.55172 27.19833
#
# Velocity S-wave (km/s) = 3.54280 3.72370 3.63438
# Velocity P-wave (km/s) = 6.73310 7.09808 6.91800
#
# Compressibility (1/GPa) = 0.01698091
#
# Stress axis : x y z
#
# Youngs Moduli (GPa) = 118.03273 62.33686 91.61476
#
# Poissons Ratio (x) = 0.13071 0.29219
# Poissons Ratio (y) = 0.24749 0.36078
# Poissons Ratio (z) = 0.37645 0.24549
#
# Static dielectric constant tensor:
#      x y z
#    x 3.983750 0.000000 0.000000 
#    y 0.000000 3.732100 0.000000 
#    z 0.000000 0.000000 3.626370 
# 
# 
# High freq. dielectric constant tensor:
#      x y z
#    x 1.823530 0.000000 0.000000 
#    y 0.000000 1.785470 0.000000 
#    z 0.000000 0.000000 1.789410 
# 
# From -- ./inp_files/30159.got.cif
#   From: 2010.03.12/outbox.cif.g09.slc.cpg/sg70_16_cif.got.tgz:30159.got - 2010.04.16 13:46:32.
