data_PCOD8286154
_publ_section_title
;
Structure prediction by ZEFSAII (Michael W. Deem and Ramdas Pophale) SiO2 
 PCOD8286154
Probable space group: F D D D
;
_chemical_formula_sum "Si O2"
_cell_formula_units_Z 192
_cell_length_a 14.428008
_cell_length_b 28.391458
_cell_length_c 22.396091
_cell_angle_alpha 90.000000
_cell_angle_beta 90.000000
_cell_angle_gamma 90.000000
_cell_volume 9174.159650
_symmetry_space_group_name_H-M "F D D D"
_symmetry_group_IT_number 70
_space_group.IT_coordinate_system_code '2'
_symmetry_cell_setting 'orthorhombic'
loop_
_space_group_symop_operation_xyz
x,y,z
1/4-x,1/4-y,z
x,1/4-y,1/4-z
1/4-x,y,1/4-z
-x,-y,-z
3/4+x,3/4+y,-z
-x,3/4+y,3/4+z
3/4+x,-y,3/4+z
x,1/2+y,1/2+z
1/4-x,3/4-y,1/2+z
x,3/4-y,3/4-z
1/4-x,1/2+y,3/4-z
-x,1/2-y,1/2-z
3/4+x,1/4+y,1/2-z
-x,1/4+y,1/4+z
3/4+x,1/2-y,1/4+z
1/2+x,y,1/2+z
3/4-x,1/4-y,1/2+z
1/2+x,1/4-y,3/4-z
3/4-x,y,3/4-z
1/2-x,-y,1/2-z
1/4+x,3/4+y,1/2-z
1/2-x,3/4+y,1/4+z
1/4+x,-y,1/4+z
1/2+x,1/2+y,z
3/4-x,3/4-y,z
1/2+x,3/4-y,1/4-z
3/4-x,1/2+y,1/4-z
1/2-x,1/2-y,-z
1/4+x,1/4+y,-z
1/2-x,1/4+y,3/4+z
1/4+x,1/2-y,3/4+z
loop_
_atom_site_type_symbol
_atom_site_label
_atom_site_fract_x
_atom_site_fract_y
_atom_site_fract_z
Si Si1 0.539691 0.158767 0.818411
Si Si2 0.073891 0.875000 0.375000
Si Si3 0.179292 0.838489 0.259547
Si Si4 0.625000 0.960052 0.625000
Si Si5 0.184553 0.486327 0.198455
Si Si6 0.741967 0.530721 0.584944
Si Si7 0.153852 0.020110 0.009116
O O1 0.625000 0.125000 0.842753
O O2 0.471073 0.130733 0.776638
O O3 0.472241 0.179624 0.871343
O O4 0.576951 0.198241 0.773028
O O5 0.136557 0.858943 0.319884
O O6 0.005631 0.832389 0.389767
O O7 0.105590 0.815082 0.213746
O O8 0.256322 0.800293 0.277710
O O9 0.619171 0.993773 0.567719
O O10 0.250000 0.500000 0.250000
O O11 0.240234 0.488854 0.135681
O O12 0.107019 0.527476 0.197386
O O13 0.823533 0.519973 0.539220
#
# Coordination Sequence:
#
# PCOD8286154 Si02
#       7
#    32  16  32  16  32  32  32
#     4  10  24  45  65  98 137 172 226 290 335 407
#     4  12  22  37  65 100 138 164 236 288 328 408
#     4  10  23  40  63  96 130 174 222 282 347 396
#     4  12  24  40  71  94 132 184 230 265 350 412
#     4  10  20  42  63  90 126 181 219 268 359 401
#     4  10  23  39  65  93 136 172 226 283 334 411
#     4  10  24  42  65  97 131 179 222 276 346 409
#
# _framework density 20.928346999999999
#
# number of rings (size 3 to 8) (size 9 to 14) (size 15 to 20)
#    0.000    1.667    1.667    1.500    4.667    5.333 
#    0.000    0.000    3.667    0.000    0.000    0.000 
#    0.000    0.000    0.000    0.000    0.000    0.000 
#
# Total GULP energy -594776.531444 kJ/mol
# GULP energy per Si atom -12391.177738 kJ/mol
# Density = 2.088071 g / cm^3
# Si number density = 20.928347 Si / 1000 Ang^3
#
#
#
# Elastic Constant Matrix: (Units=GPa)
#
#
# Indices 1 2 3 4 5 6 
#
# 1 90.2856 34.9576 59.6836 0.0000 0.0000 0.0000
# 2 34.9576 88.6676 51.4626 0.0000 0.0000 0.0000
# 3 59.6836 51.4626 104.2248 0.0000 0.0000 0.0000
# 4 0.0000 0.0000 0.0000 35.2102 0.0000 0.0000
# 5 0.0000 0.0000 0.0000 0.0000 44.9111 0.0000
# 6 0.0000 0.0000 0.0000 0.0000 0.0000 35.0066
#
#
#
# Elastic Compliance Matrix: (Units=1/GPa)
#
#
# Indices 1 2 3 4 5 6 
#
# 1 0.017975 -0.001559 -0.009523 0.000000 0.000000 0.000000
# 2 -0.001559 0.015944 -0.006979 0.000000 0.000000 0.000000
# 3 -0.009523 -0.006979 0.018494 0.000000 0.000000 0.000000
# 4 0.000000 0.000000 0.000000 0.028401 0.000000 0.000000
# 5 0.000000 0.000000 0.000000 0.000000 0.022266 0.000000
# 6 0.000000 0.000000 0.000000 0.000000 0.000000 0.028566
#
#
# Mechanical properties :
#
#
# Convention : Reuss Voigt Hill
#
# Bulk Modulus (GPa) = 61.39207 63.93175 62.66191
# Shear Modulus (GPa) = 28.86824 32.16385 30.51605
#
# Velocity S-wave (km/s) = 3.71804 3.92453 3.82268
# Velocity P-wave (km/s) = 6.91591 7.15193 7.03491
#
# Compressibility (1/GPa) = 0.01628875
#
# Stress axis : x y z
#
# Youngs Moduli (GPa) = 55.63211 62.72033 54.07050
#
# Poissons Ratio (x) = 0.09781 0.51493
# Poissons Ratio (y) = 0.08676 0.37738
# Poissons Ratio (z) = 0.52981 0.43776
#
# Static dielectric constant tensor:
#      x y z
#    x 3.998130 0.000000 0.000000 
#    y 0.000000 3.695730 0.000000 
#    z 0.000000 0.000000 3.685150 
# 
# 
# High freq. dielectric constant tensor:
#      x y z
#    x 1.829020 0.000000 0.000000 
#    y 0.000000 1.823370 0.000000 
#    z 0.000000 0.000000 1.817110 
# 
# From -- ./inp_files/51567.got.cif
#   From: 2010.03.12/outbox.cif.g09.slc.cpg/sg70_26_cif.got.tgz:51567.got - 2010.04.16 13:46:32.
