data_PCOD8286650
_publ_section_title
;
Structure prediction by ZEFSAII (Michael W. Deem and Ramdas Pophale) SiO2 
 PCOD8286650
Probable space group: F D D D
;
_chemical_formula_sum "Si O2"
_cell_formula_units_Z 104
_cell_length_a 10.451566
_cell_length_b 32.991650
_cell_length_c 11.514168
_cell_angle_alpha 90.000000
_cell_angle_beta 90.000000
_cell_angle_gamma 90.000000
_cell_volume 3970.251016
_symmetry_space_group_name_H-M "F D D D"
_symmetry_group_IT_number 70
_space_group.IT_coordinate_system_code '2'
_symmetry_cell_setting 'orthorhombic'
loop_
_space_group_symop_operation_xyz
x,y,z
1/4-x,1/4-y,z
x,1/4-y,1/4-z
1/4-x,y,1/4-z
-x,-y,-z
3/4+x,3/4+y,-z
-x,3/4+y,3/4+z
3/4+x,-y,3/4+z
x,1/2+y,1/2+z
1/4-x,3/4-y,1/2+z
x,3/4-y,3/4-z
1/4-x,1/2+y,3/4-z
-x,1/2-y,1/2-z
3/4+x,1/4+y,1/2-z
-x,1/4+y,1/4+z
3/4+x,1/2-y,1/4+z
1/2+x,y,1/2+z
3/4-x,1/4-y,1/2+z
1/2+x,1/4-y,3/4-z
3/4-x,y,3/4-z
1/2-x,-y,1/2-z
1/4+x,3/4+y,1/2-z
1/2-x,3/4+y,1/4+z
1/4+x,-y,1/4+z
1/2+x,1/2+y,z
3/4-x,3/4-y,z
1/2+x,3/4-y,1/4-z
3/4-x,1/2+y,1/4-z
1/2-x,1/2-y,-z
1/4+x,1/4+y,-z
1/2-x,1/4+y,3/4+z
1/4+x,1/2-y,3/4+z
loop_
_atom_site_type_symbol
_atom_site_label
_atom_site_fract_x
_atom_site_fract_y
_atom_site_fract_z
Si Si1 0.343228 0.832263 0.509796
Si Si2 0.680547 0.309259 0.788971
Si Si3 0.375000 0.375000 0.375000
Si Si4 0.699933 0.770217 0.739319
O O1 0.375000 0.834919 0.375000
O O2 0.375000 0.875000 0.571316
O O3 0.193767 0.823898 0.532054
O O4 0.433183 0.797264 0.559588
O O5 0.782103 0.346135 0.798106
O O6 0.744059 0.272749 0.714684
O O7 0.636480 0.292941 0.915832
O O8 0.625000 0.758194 0.625000
#
# Coordination Sequence:
#
# PCOD8286650 Si02
#       4
#    32  32   8  32
#     4   9  19  40  65  90 123 168 215 258 317 390
#     4  11  23  41  65  91 124 171 216 262 325 390
#     4  12  24  40  70  84 128 176 222 258 336 392
#     4  11  22  40  63  93 126 161 212 270 323 386
#
# _framework density 26.194817
#
# number of rings (size 3 to 8) (size 9 to 14) (size 15 to 20)
#    0.000    1.538    1.538    5.538    0.000    0.000 
#    2.769    3.077    0.000    0.000    0.000    0.000 
#    0.000    0.000    0.000    0.000    0.000    0.000 
#
# Total GULP energy -322332.195589 kJ/mol
# GULP energy per Si atom -12397.392138 kJ/mol
# Density = 2.613520 g / cm^3
# Si number density = 26.194817 Si / 1000 Ang^3
#
#
#
# Elastic Constant Matrix: (Units=GPa)
#
#
# Indices 1 2 3 4 5 6 
#
# 1 194.4021 95.2366 23.0829 0.0000 0.0000 0.0000
# 2 95.2366 213.3840 -2.0918 0.0000 0.0000 0.0000
# 3 23.0829 -2.0918 21.4137 0.0000 0.0000 0.0000
# 4 0.0000 0.0000 0.0000 25.4642 0.0000 0.0000
# 5 0.0000 0.0000 0.0000 0.0000 39.0979 0.0000
# 6 0.0000 0.0000 0.0000 0.0000 0.0000 75.2279
#
#
#
# Elastic Compliance Matrix: (Units=1/GPa)
#
#
# Indices 1 2 3 4 5 6 
#
# 1 0.008004 -0.003660 -0.008986 0.000000 0.000000 0.000000
# 2 -0.003660 0.006365 0.004568 0.000000 0.000000 0.000000
# 3 -0.008986 0.004568 0.056831 0.000000 0.000000 0.000000
# 4 0.000000 0.000000 0.000000 0.039271 0.000000 0.000000
# 5 0.000000 0.000000 0.000000 0.000000 0.025577 0.000000
# 6 0.000000 0.000000 0.000000 0.000000 0.000000 0.013293
#
#
# Mechanical properties :
#
#
# Convention : Reuss Voigt Hill
#
# Bulk Modulus (GPa) = 18.16756 73.51725 45.84241
# Shear Modulus (GPa) = 27.19671 48.82279 38.00975
#
# Velocity S-wave (km/s) = 3.22568 4.32190 3.81339
# Velocity P-wave (km/s) = 4.56333 7.28228 6.07682
#
# Compressibility (1/GPa) = 0.05504317
#
# Stress axis : x y z
#
# Youngs Moduli (GPa) = 124.93509 157.11199 17.59595
#
# Poissons Ratio (x) = 0.57510 0.15811
# Poissons Ratio (y) = 0.45732 -0.08037
# Poissons Ratio (z) = 1.12262 -0.71762
#
# Static dielectric constant tensor:
#      x y z
#    x 5.300630 0.000000 0.000000 
#    y 0.000000 5.488130 0.000000 
#    z 0.000000 0.000000 4.092710 
# 
# 
# High freq. dielectric constant tensor:
#      x y z
#    x 2.073610 0.000000 0.000000 
#    y 0.000000 2.066450 0.000000 
#    z 0.000000 0.000000 2.031240 
# 
# From -- ./inp_files/15035.got.cif
#   From: 2010.03.12/outbox.cif.g09.slc.cpg/sg70_8_cif.got.tgz:15035.got - 2010.04.16 13:46:32.
