data_PCOD8286836
_publ_section_title
;
Structure prediction by ZEFSAII (Michael W. Deem and Ramdas Pophale) SiO2 
 PCOD8286836
Probable space group: F D D D
;
_chemical_formula_sum "Si O2"
_cell_formula_units_Z 192
_cell_length_a 12.164883
_cell_length_b 25.617340
_cell_length_c 26.636892
_cell_angle_alpha 90.000000
_cell_angle_beta 90.000000
_cell_angle_gamma 90.000000
_cell_volume 8300.906433
_symmetry_space_group_name_H-M "F D D D"
_symmetry_group_IT_number 70
_space_group.IT_coordinate_system_code '2'
_symmetry_cell_setting 'orthorhombic'
loop_
_space_group_symop_operation_xyz
x,y,z
1/4-x,1/4-y,z
x,1/4-y,1/4-z
1/4-x,y,1/4-z
-x,-y,-z
3/4+x,3/4+y,-z
-x,3/4+y,3/4+z
3/4+x,-y,3/4+z
x,1/2+y,1/2+z
1/4-x,3/4-y,1/2+z
x,3/4-y,3/4-z
1/4-x,1/2+y,3/4-z
-x,1/2-y,1/2-z
3/4+x,1/4+y,1/2-z
-x,1/4+y,1/4+z
3/4+x,1/2-y,1/4+z
1/2+x,y,1/2+z
3/4-x,1/4-y,1/2+z
1/2+x,1/4-y,3/4-z
3/4-x,y,3/4-z
1/2-x,-y,1/2-z
1/4+x,3/4+y,1/2-z
1/2-x,3/4+y,1/4+z
1/4+x,-y,1/4+z
1/2+x,1/2+y,z
3/4-x,3/4-y,z
1/2+x,3/4-y,1/4-z
3/4-x,1/2+y,1/4-z
1/2-x,1/2-y,-z
1/4+x,1/4+y,-z
1/2-x,1/4+y,3/4+z
1/4+x,1/2-y,3/4+z
loop_
_atom_site_type_symbol
_atom_site_label
_atom_site_fract_x
_atom_site_fract_y
_atom_site_fract_z
Si Si1 0.434443 0.054168 0.263134
Si Si2 0.036880 0.789078 0.401412
Si Si3 0.875000 0.375000 0.875000
Si Si4 0.992889 0.677766 0.380078
Si Si5 0.224801 0.953562 0.432667
Si Si6 0.493747 0.882733 0.232716
Si Si7 0.125000 0.125000 0.125000
Si Si8 0.625000 0.625000 0.453233
O O1 0.412955 0.032094 0.207121
O O2 0.318332 0.081368 0.277174
O O3 0.534614 0.095878 0.262960
O O4 0.465331 0.008391 0.303012
O O5 0.968180 0.738738 0.386458
O O6 0.127949 0.792426 0.357764
O O7 0.956050 0.838421 0.406921
O O8 0.047259 0.656174 0.430107
O O9 0.067765 0.668241 0.331756
O O10 0.875000 0.649273 0.375000
O O11 0.185154 0.924918 0.484450
O O12 0.307133 0.912896 0.409644
O O13 0.375000 0.875000 0.260052
#
# Coordination Sequence:
#
# PCOD8286836 Si02
#       8
#    32  32   8  32  32  32   8  16
#     4  12  27  46  78 112 149 205 259 309 387 464
#     4  12  26  47  71 108 149 203 253 313 388 457
#     4  12  24  44  72 100 154 200 238 312 378 472
#     4  12  24  46  75 109 154 192 253 322 385 447
#     4  12  27  48  75 107 150 199 250 322 380 458
#     4  12  26  47  74 111 155 199 254 319 382 460
#     4  12  26  46  68 104 146 184 244 312 380 444
#     4  12  25  47  76 115 152 201 261 318 379 464
#
# _framework density 23.130004
#
# number of rings (size 3 to 8) (size 9 to 14) (size 15 to 20)
#    0.000    0.000    7.500    3.000    0.000    3.333 
#    0.000    3.333    0.000    0.000    0.000    0.000 
#    0.000    0.000    0.000    0.000    0.000    0.000 
#
# Total GULP energy -594689.440934 kJ/mol
# GULP energy per Si atom -12389.363353 kJ/mol
# Density = 2.307736 g / cm^3
# Si number density = 23.130004 Si / 1000 Ang^3
#
#
#
# Elastic Constant Matrix: (Units=GPa)
#
#
# Indices 1 2 3 4 5 6 
#
# 1 135.6676 55.3597 42.2885 0.0000 0.0000 0.0000
# 2 55.3597 142.1699 37.7556 0.0000 0.0000 0.0000
# 3 42.2885 37.7556 126.1439 0.0000 0.0000 0.0000
# 4 0.0000 0.0000 0.0000 34.1940 0.0000 0.0000
# 5 0.0000 0.0000 0.0000 0.0000 24.7696 0.0000
# 6 0.0000 0.0000 0.0000 0.0000 0.0000 41.7592
#
#
#
# Elastic Compliance Matrix: (Units=1/GPa)
#
#
# Indices 1 2 3 4 5 6 
#
# 1 0.009297 -0.003034 -0.002209 0.000000 0.000000 0.000000
# 2 -0.003034 0.008631 -0.001566 0.000000 0.000000 0.000000
# 3 -0.002209 -0.001566 0.009137 0.000000 0.000000 0.000000
# 4 0.000000 0.000000 0.000000 0.029245 0.000000 0.000000
# 5 0.000000 0.000000 0.000000 0.000000 0.040372 0.000000
# 6 0.000000 0.000000 0.000000 0.000000 0.000000 0.023947
#
#
# Mechanical properties :
#
#
# Convention : Reuss Voigt Hill
#
# Bulk Modulus (GPa) = 74.36337 74.97655 74.66996
# Shear Modulus (GPa) = 36.04141 38.04973 37.04557
#
# Velocity S-wave (km/s) = 3.95170 4.06031 4.00637
# Velocity P-wave (km/s) = 7.28294 7.38018 7.33172
#
# Compressibility (1/GPa) = 0.01344748
#
# Stress axis : x y z
#
# Youngs Moduli (GPa) = 107.55698 115.86005 109.44803
#
# Poissons Ratio (x) = 0.35149 0.24175
# Poissons Ratio (y) = 0.32630 0.17143
# Poissons Ratio (z) = 0.23758 0.18147
#
# Static dielectric constant tensor:
#      x y z
#    x 4.304460 0.000000 0.000000 
#    y 0.000000 4.241700 0.000000 
#    z 0.000000 0.000000 4.082250 
# 
# 
# High freq. dielectric constant tensor:
#      x y z
#    x 1.912870 0.000000 0.000000 
#    y 0.000000 1.919960 0.000000 
#    z 0.000000 0.000000 1.925890 
# 
# From -- ./inp_files/57861.got.cif
#   From: 2010.03.12/outbox.cif.g09.slc.cpg/sg70_29_cif.got.tgz:57861.got - 2010.04.16 13:46:32.
