data_PCOD8286589
_publ_section_title
;
Structure prediction by ZEFSAII (Michael W. Deem and Ramdas Pophale) SiO2 
 PCOD8286589
Probable space group: F D D D
;
_chemical_formula_sum "Si O2"
_cell_formula_units_Z 176
_cell_length_a 28.345622
_cell_length_b 10.425597
_cell_length_c 24.026033
_cell_angle_alpha 90.000000
_cell_angle_beta 90.000000
_cell_angle_gamma 90.000000
_cell_volume 7100.174033
_symmetry_space_group_name_H-M "F D D D"
_symmetry_group_IT_number 70
_space_group.IT_coordinate_system_code '2'
_symmetry_cell_setting 'orthorhombic'
loop_
_space_group_symop_operation_xyz
x,y,z
1/4-x,1/4-y,z
x,1/4-y,1/4-z
1/4-x,y,1/4-z
-x,-y,-z
3/4+x,3/4+y,-z
-x,3/4+y,3/4+z
3/4+x,-y,3/4+z
x,1/2+y,1/2+z
1/4-x,3/4-y,1/2+z
x,3/4-y,3/4-z
1/4-x,1/2+y,3/4-z
-x,1/2-y,1/2-z
3/4+x,1/4+y,1/2-z
-x,1/4+y,1/4+z
3/4+x,1/2-y,1/4+z
1/2+x,y,1/2+z
3/4-x,1/4-y,1/2+z
1/2+x,1/4-y,3/4-z
3/4-x,y,3/4-z
1/2-x,-y,1/2-z
1/4+x,3/4+y,1/2-z
1/2-x,3/4+y,1/4+z
1/4+x,-y,1/4+z
1/2+x,1/2+y,z
3/4-x,3/4-y,z
1/2+x,3/4-y,1/4-z
3/4-x,1/2+y,1/4-z
1/2-x,1/2-y,-z
1/4+x,1/4+y,-z
1/2-x,1/4+y,3/4+z
1/4+x,1/2-y,3/4+z
loop_
_atom_site_type_symbol
_atom_site_label
_atom_site_fract_x
_atom_site_fract_y
_atom_site_fract_z
Si Si1 0.049262 0.691330 0.228792
Si Si2 0.536129 0.907955 0.238971
Si Si3 0.636136 0.833678 0.257094
Si Si4 0.708070 0.693183 0.181953
Si Si5 0.579331 0.875000 0.875000
Si Si6 0.494502 0.549494 0.384540
O O1 0.056204 0.549564 0.253192
O O2 0.095100 0.775064 0.242697
O O3 0.042106 0.694832 0.161109
O O4 0.000000 0.750000 0.250000
O O5 0.581350 0.814185 0.239549
O O6 0.496248 0.858191 0.283019
O O7 0.512283 0.919423 0.179451
O O8 0.664060 0.725237 0.222271
O O9 0.639528 0.819818 0.324059
O O10 0.690918 0.625000 0.125000
O O11 0.737233 0.820274 0.168509
O O12 0.547038 0.755938 0.854431
#
# Coordination Sequence:
#
# PCOD8286589 Si02
#       6
#    32  32  32  32  16  32
#     4  11  17  37  64 102 136 172 225 301 366 418
#     4  12  22  40  66 105 133 184 245 285 359 438
#     4  11  24  38  68 103 139 181 238 301 360 421
#     4  11  25  45  67  94 144 194 235 288 360 433
#     4  12  18  42  70  99 142 174 232 317 362 418
#     4  11  20  39  73  96 133 185 228 286 372 420
#
# _framework density 24.788125999999998
#
# number of rings (size 3 to 8) (size 9 to 14) (size 15 to 20)
#    0.000    0.727    9.091    0.545    1.273    3.636 
#    0.000    5.455    0.000    0.000    0.000    0.000 
#    0.000    0.000    0.000    0.000    0.000    0.000 
#
# Total GULP energy -545303.387126 kJ/mol
# GULP energy per Si atom -12393.258798 kJ/mol
# Density = 2.473171 g / cm^3
# Si number density = 24.788126 Si / 1000 Ang^3
#
#
#
# Elastic Constant Matrix: (Units=GPa)
#
#
# Indices 1 2 3 4 5 6 
#
# 1 127.4332 5.8475 44.8234 0.0000 0.0000 0.0000
# 2 5.8475 22.1066 15.3183 0.0000 0.0000 0.0000
# 3 44.8234 15.3183 163.1650 0.0000 0.0000 0.0000
# 4 0.0000 0.0000 0.0000 36.4109 0.0000 0.0000
# 5 0.0000 0.0000 0.0000 0.0000 8.9997 0.0000
# 6 0.0000 0.0000 0.0000 0.0000 0.0000 25.6466
#
#
#
# Elastic Compliance Matrix: (Units=1/GPa)
#
#
# Indices 1 2 3 4 5 6 
#
# 1 0.008696 -0.000690 -0.002324 0.000000 0.000000 0.000000
# 2 -0.000690 0.048438 -0.004358 0.000000 0.000000 0.000000
# 3 -0.002324 -0.004358 0.007176 0.000000 0.000000 0.000000
# 4 0.000000 0.000000 0.000000 0.027464 0.000000 0.000000
# 5 0.000000 0.000000 0.000000 0.000000 0.111114 0.000000
# 6 0.000000 0.000000 0.000000 0.000000 0.000000 0.038992
#
#
# Mechanical properties :
#
#
# Convention : Reuss Voigt Hill
#
# Bulk Modulus (GPa) = 20.17492 49.40925 34.79209
# Shear Modulus (GPa) = 18.30517 30.65914 24.48215
#
# Velocity S-wave (km/s) = 2.72042 3.52070 3.14611
# Velocity P-wave (km/s) = 4.24549 6.04177 5.22146
#
# Compressibility (1/GPa) = 0.04956648
#
# Stress axis : x y z
#
# Youngs Moduli (GPa) = 114.98966 20.64511 139.34558
#
# Poissons Ratio (x) = 0.01424 0.32388
# Poissons Ratio (y) = 0.07932 0.60726
# Poissons Ratio (z) = 0.26727 0.08997
#
# Static dielectric constant tensor:
#      x y z
#    x 4.052120 0.000000 0.000000 
#    y 0.000000 4.907810 0.000000 
#    z 0.000000 0.000000 4.987380 
# 
# 
# High freq. dielectric constant tensor:
#      x y z
#    x 1.958090 0.000000 0.000000 
#    y 0.000000 1.986300 0.000000 
#    z 0.000000 0.000000 2.011270 
# 
# From -- ./inp_files/54984.got.cif
#   From: 2010.03.12/outbox.cif.g09.slc.cpg/sg70_28_cif.got.tgz:54984.got - 2010.04.16 13:46:32.
