data_PCOD8286847
_publ_section_title
;
Structure prediction by ZEFSAII (Michael W. Deem and Ramdas Pophale) SiO2 
 PCOD8286847
Probable space group: F D D D
;
_chemical_formula_sum "Si O2"
_cell_formula_units_Z 96
_cell_length_a 9.800032
_cell_length_b 16.469618
_cell_length_c 27.186059
_cell_angle_alpha 90.000000
_cell_angle_beta 90.000000
_cell_angle_gamma 90.000000
_cell_volume 4387.905593
_symmetry_space_group_name_H-M "F D D D"
_symmetry_group_IT_number 70
_space_group.IT_coordinate_system_code '2'
_symmetry_cell_setting 'orthorhombic'
loop_
_space_group_symop_operation_xyz
x,y,z
1/4-x,1/4-y,z
x,1/4-y,1/4-z
1/4-x,y,1/4-z
-x,-y,-z
3/4+x,3/4+y,-z
-x,3/4+y,3/4+z
3/4+x,-y,3/4+z
x,1/2+y,1/2+z
1/4-x,3/4-y,1/2+z
x,3/4-y,3/4-z
1/4-x,1/2+y,3/4-z
-x,1/2-y,1/2-z
3/4+x,1/4+y,1/2-z
-x,1/4+y,1/4+z
3/4+x,1/2-y,1/4+z
1/2+x,y,1/2+z
3/4-x,1/4-y,1/2+z
1/2+x,1/4-y,3/4-z
3/4-x,y,3/4-z
1/2-x,-y,1/2-z
1/4+x,3/4+y,1/2-z
1/2-x,3/4+y,1/4+z
1/4+x,-y,1/4+z
1/2+x,1/2+y,z
3/4-x,3/4-y,z
1/2+x,3/4-y,1/4-z
3/4-x,1/2+y,1/4-z
1/2-x,1/2-y,-z
1/4+x,1/4+y,-z
1/2-x,1/4+y,3/4+z
1/4+x,1/2-y,3/4+z
loop_
_atom_site_type_symbol
_atom_site_label
_atom_site_fract_x
_atom_site_fract_y
_atom_site_fract_z
Si Si1 0.652132 0.298757 0.964550
Si Si2 0.349265 0.236480 0.731489
Si Si3 0.966410 0.448860 0.126000
O O1 0.683072 0.392706 0.972814
O O2 0.687657 0.276866 0.908245
O O3 0.750000 0.250000 0.000000
O O4 0.496946 0.275115 0.976771
O O5 0.500000 0.250000 0.750000
O O6 0.328545 0.283988 0.681148
O O7 0.875000 0.375000 0.105278
O O8 0.125000 0.423999 0.125000
#
# Coordination Sequence:
#
# PCOD8286847 Si02
#       3
#    32  32  32
#     4  12  25  45  74 103 141 186 238 287 356 421
#     4  12  27  47  71 107 144 185 234 295 353 422
#     4  12  27  46  73 106 144 187 240 296 355 423
#
# _framework density 21.878321
#
# number of rings (size 3 to 8) (size 9 to 14) (size 15 to 20)
#    0.000    0.000    3.333    7.000    4.667    1.333 
#    0.000    3.333    0.000    0.000    0.000    0.000 
#    0.000    0.000    0.000    0.000    0.000    0.000 
#
# Total GULP energy -297811.233387 kJ/mol
# GULP energy per Si atom -12408.801391 kJ/mol
# Density = 2.182853 g / cm^3
# Si number density = 21.878321 Si / 1000 Ang^3
#
#
#
# Elastic Constant Matrix: (Units=GPa)
#
#
# Indices 1 2 3 4 5 6 
#
# 1 130.6240 -13.7080 44.6691 0.0000 0.0000 0.0000
# 2 -13.7080 93.4546 3.5234 0.0000 0.0000 0.0000
# 3 44.6691 3.5234 103.8448 0.0000 0.0000 0.0000
# 4 0.0000 0.0000 0.0000 37.8931 0.0000 0.0000
# 5 0.0000 0.0000 0.0000 0.0000 42.7512 0.0000
# 6 0.0000 0.0000 0.0000 0.0000 0.0000 33.5822
#
#
#
# Elastic Compliance Matrix: (Units=1/GPa)
#
#
# Indices 1 2 3 4 5 6 
#
# 1 0.009181 0.001497 -0.004000 0.000000 0.000000 0.000000
# 2 0.001497 0.010958 -0.001016 0.000000 0.000000 0.000000
# 3 -0.004000 -0.001016 0.011385 0.000000 0.000000 0.000000
# 4 0.000000 0.000000 0.000000 0.026390 0.000000 0.000000
# 5 0.000000 0.000000 0.000000 0.000000 0.023391 0.000000
# 6 0.000000 0.000000 0.000000 0.000000 0.000000 0.029778
#
#
# Mechanical properties :
#
#
# Convention : Reuss Voigt Hill
#
# Bulk Modulus (GPa) = 40.83814 44.09915 42.46865
# Shear Modulus (GPa) = 39.59409 42.40788 41.00099
#
# Velocity S-wave (km/s) = 4.25872 4.40745 4.33372
# Velocity P-wave (km/s) = 6.54896 6.78978 6.67045
#
# Compressibility (1/GPa) = 0.02448691
#
# Stress axis : x y z
#
# Youngs Moduli (GPa) = 108.92637 91.25481 87.83675
#
# Poissons Ratio (x) = -0.13665 0.35133
# Poissons Ratio (y) = -0.16311 0.08924
# Poissons Ratio (z) = 0.43569 0.09271
#
# Static dielectric constant tensor:
#      x y z
#    x 3.175370 0.000000 0.000000 
#    y 0.000000 2.335130 0.000000 
#    z 0.000000 0.000000 4.159680 
# 
# 
# High freq. dielectric constant tensor:
#      x y z
#    x 1.879180 0.000000 0.000000 
#    y 0.000000 1.872390 0.000000 
#    z 0.000000 0.000000 1.869290 
# 
# From -- ./inp_files/10521.got.cif
#   From: 2010.03.12/outbox.cif.g09.slc.cpg/sg70_6_cif.got.tgz:10521.got - 2010.04.16 13:46:32.
