data_PCOD8286860
_publ_section_title
;
Structure prediction by ZEFSAII (Michael W. Deem and Ramdas Pophale) SiO2 
 PCOD8286860
Probable space group: F D D D
;
_chemical_formula_sum "Si O2"
_cell_formula_units_Z 112
_cell_length_a 13.488582
_cell_length_b 34.228343
_cell_length_c 10.410160
_cell_angle_alpha 90.000000
_cell_angle_beta 90.000000
_cell_angle_gamma 90.000000
_cell_volume 4806.285626
_symmetry_space_group_name_H-M "F D D D"
_symmetry_group_IT_number 70
_space_group.IT_coordinate_system_code '2'
_symmetry_cell_setting 'orthorhombic'
loop_
_space_group_symop_operation_xyz
x,y,z
1/4-x,1/4-y,z
x,1/4-y,1/4-z
1/4-x,y,1/4-z
-x,-y,-z
3/4+x,3/4+y,-z
-x,3/4+y,3/4+z
3/4+x,-y,3/4+z
x,1/2+y,1/2+z
1/4-x,3/4-y,1/2+z
x,3/4-y,3/4-z
1/4-x,1/2+y,3/4-z
-x,1/2-y,1/2-z
3/4+x,1/4+y,1/2-z
-x,1/4+y,1/4+z
3/4+x,1/2-y,1/4+z
1/2+x,y,1/2+z
3/4-x,1/4-y,1/2+z
1/2+x,1/4-y,3/4-z
3/4-x,y,3/4-z
1/2-x,-y,1/2-z
1/4+x,3/4+y,1/2-z
1/2-x,3/4+y,1/4+z
1/4+x,-y,1/4+z
1/2+x,1/2+y,z
3/4-x,3/4-y,z
1/2+x,3/4-y,1/4-z
3/4-x,1/2+y,1/4-z
1/2-x,1/2-y,-z
1/4+x,1/4+y,-z
1/2-x,1/4+y,3/4+z
1/4+x,1/2-y,3/4+z
loop_
_atom_site_type_symbol
_atom_site_label
_atom_site_fract_x
_atom_site_fract_y
_atom_site_fract_z
Si Si1 0.446925 0.966989 0.252996
Si Si2 0.293505 0.904476 0.699375
Si Si3 0.125000 0.399894 0.625000
Si Si4 0.152618 0.798588 0.867507
O O1 0.375000 0.967532 0.375000
O O2 0.408022 0.934734 0.152090
O O3 0.560561 0.958571 0.288443
O O4 0.447202 0.008278 0.182121
O O5 0.375000 0.875000 0.757959
O O6 0.219126 0.877800 0.619989
O O7 0.240559 0.927834 0.813778
O O8 0.135615 0.426300 0.749581
#
# Coordination Sequence:
#
# PCOD8286860 Si02
#       4
#    32  32  16  32
#     4  12  26  50  80 111 155 207 254 316 391 471
#     4  12  28  49  77 115 153 203 259 331 388 454
#     4  12  26  50  74 108 155 198 261 320 386 458
#     4  12  27  50  75 111 158 199 264 314 386 476
#
# _framework density 23.302817999999998
#
# number of rings (size 3 to 8) (size 9 to 14) (size 15 to 20)
#    0.000    0.000    4.286    4.286    4.000    5.143 
#    0.000    0.000    0.000    0.000    0.000    0.000 
#    0.000    0.000    0.000    0.000    0.000    0.000 
#
# Total GULP energy -347360.718879 kJ/mol
# GULP energy per Si atom -12405.739960 kJ/mol
# Density = 2.324978 g / cm^3
# Si number density = 23.302818 Si / 1000 Ang^3
#
#
#
# Elastic Constant Matrix: (Units=GPa)
#
#
# Indices 1 2 3 4 5 6 
#
# 1 127.9000 69.1971 49.7255 0.0000 0.0000 0.0000
# 2 69.1971 193.0020 80.7388 0.0000 0.0000 0.0000
# 3 49.7255 80.7388 132.3389 0.0000 0.0000 0.0000
# 4 0.0000 0.0000 0.0000 -74.4606 0.0000 0.0000
# 5 0.0000 0.0000 0.0000 0.0000 33.9582 0.0000
# 6 0.0000 0.0000 0.0000 0.0000 0.0000 79.9147
#
#
#
# Elastic Compliance Matrix: (Units=1/GPa)
#
#
# Indices 1 2 3 4 5 6 
#
# 1 0.010131 -0.002739 -0.002136 0.000000 0.000000 0.000000
# 2 -0.002739 0.007697 -0.003667 0.000000 0.000000 0.000000
# 3 -0.002136 -0.003667 0.010596 0.000000 0.000000 0.000000
# 4 0.000000 0.000000 0.000000 -0.013430 0.000000 0.000000
# 5 0.000000 0.000000 0.000000 0.000000 0.029448 0.000000
# 6 0.000000 0.000000 0.000000 0.000000 0.000000 0.012513
#
#
# Mechanical properties :
#
#
# Convention : Reuss Voigt Hill
#
# Bulk Modulus (GPa) = 88.17418 94.72931 91.45175
# Shear Modulus (GPa) = 64.25231 24.78776 44.52003
#
# Velocity S-wave (km/s) = 5.25667 3.26502 4.37567
# Velocity P-wave (km/s) = 8.64662 7.41306 8.05349
#
# Compressibility (1/GPa) = 0.01134119
#
# Stress axis : x y z
#
# Youngs Moduli (GPa) = 98.71047 129.91727 94.37544
#
# Poissons Ratio (x) = 0.35581 0.20155
# Poissons Ratio (y) = 0.27034 0.34607
# Poissons Ratio (z) = 0.21081 0.47640
#
# Static dielectric constant tensor:
#      x y z
#    x 53.475090 0.000000 0.000000 
#    y 0.000000 4.683110 0.000000 
#    z 0.000000 0.000000 4.320930 
# 
# 
# High freq. dielectric constant tensor:
#      x y z
#    x 1.924700 0.000000 0.000000 
#    y 0.000000 1.952480 0.000000 
#    z 0.000000 0.000000 1.936700 
# 
# From -- ./inp_files/15047.got.cif
#   From: 2010.03.12/outbox.cif.g09.slc.cpg/sg70_8_cif.got.tgz:15047.got - 2010.04.16 13:46:32.
