data_PCOD8286587
_publ_section_title
;
Structure prediction by ZEFSAII (Michael W. Deem and Ramdas Pophale) SiO2 
 PCOD8286587
Probable space group: F D D D
;
_chemical_formula_sum "Si O2"
_cell_formula_units_Z 88
_cell_length_a 10.252677
_cell_length_b 15.572978
_cell_length_c 18.419151
_cell_angle_alpha 90.000000
_cell_angle_beta 90.000000
_cell_angle_gamma 90.000000
_cell_volume 2940.888465
_symmetry_space_group_name_H-M "F D D D"
_symmetry_group_IT_number 70
_space_group.IT_coordinate_system_code '2'
_symmetry_cell_setting 'orthorhombic'
loop_
_space_group_symop_operation_xyz
x,y,z
1/4-x,1/4-y,z
x,1/4-y,1/4-z
1/4-x,y,1/4-z
-x,-y,-z
3/4+x,3/4+y,-z
-x,3/4+y,3/4+z
3/4+x,-y,3/4+z
x,1/2+y,1/2+z
1/4-x,3/4-y,1/2+z
x,3/4-y,3/4-z
1/4-x,1/2+y,3/4-z
-x,1/2-y,1/2-z
3/4+x,1/4+y,1/2-z
-x,1/4+y,1/4+z
3/4+x,1/2-y,1/4+z
1/2+x,y,1/2+z
3/4-x,1/4-y,1/2+z
1/2+x,1/4-y,3/4-z
3/4-x,y,3/4-z
1/2-x,-y,1/2-z
1/4+x,3/4+y,1/2-z
1/2-x,3/4+y,1/4+z
1/4+x,-y,1/4+z
1/2+x,1/2+y,z
3/4-x,3/4-y,z
1/2+x,3/4-y,1/4-z
3/4-x,1/2+y,1/4-z
1/2-x,1/2-y,-z
1/4+x,1/4+y,-z
1/2-x,1/4+y,3/4+z
1/4+x,1/2-y,3/4+z
loop_
_atom_site_type_symbol
_atom_site_label
_atom_site_fract_x
_atom_site_fract_y
_atom_site_fract_z
Si Si1 0.182819 0.007463 0.846940
Si Si2 0.125000 0.125000 0.625000
Si Si3 0.585170 0.723512 0.012675
Si Si4 0.125000 0.403442 0.625000
O O1 0.251731 0.101480 0.843099
O O2 0.287984 0.935718 0.821642
O O3 0.164253 0.990183 0.932314
O O4 0.054984 0.992719 0.799974
O O5 0.625000 0.625000 0.021980
O O6 0.682504 0.785798 0.059740
#
# Coordination Sequence:
#
# PCOD8286587 Si02
#       4
#    32   8  32  16
#     4  11  29  52  81 125 166 223 284 349 418 508
#     4  10  28  48  84 112 174 220 270 352 420 494
#     4  12  28  50  85 123 166 221 287 345 423 499
#     4  11  27  47  79 122 164 218 277 357 407 509
#
# _framework density 29.922930000000001
#
# number of rings (size 3 to 8) (size 9 to 14) (size 15 to 20)
#    0.000    0.727    0.000    3.818   15.273    5.818 
#    0.000    0.000    0.000    0.000    0.000    0.000 
#    0.000    0.000    0.000    0.000    0.000    0.000 
#
# Total GULP energy -272628.127478 kJ/mol
# GULP energy per Si atom -12392.187613 kJ/mol
# Density = 2.985482 g / cm^3
# Si number density = 29.922930 Si / 1000 Ang^3
#
#
#
# Elastic Constant Matrix: (Units=GPa)
#
#
# Indices 1 2 3 4 5 6 
#
# 1 198.7444 63.9680 45.7602 0.0000 0.0000 0.0000
# 2 63.9680 170.8363 17.1286 0.0000 0.0000 0.0000
# 3 45.7602 17.1286 142.0803 0.0000 0.0000 0.0000
# 4 0.0000 0.0000 0.0000 32.3579 0.0000 0.0000
# 5 0.0000 0.0000 0.0000 0.0000 33.5855 0.0000
# 6 0.0000 0.0000 0.0000 0.0000 0.0000 21.4090
#
#
#
# Elastic Compliance Matrix: (Units=1/GPa)
#
#
# Indices 1 2 3 4 5 6 
#
# 1 0.006106 -0.002115 -0.001712 0.000000 0.000000 0.000000
# 2 -0.002115 0.006658 -0.000121 0.000000 0.000000 0.000000
# 3 -0.001712 -0.000121 0.007604 0.000000 0.000000 0.000000
# 4 0.000000 0.000000 0.000000 0.030904 0.000000 0.000000
# 5 0.000000 0.000000 0.000000 0.000000 0.029775 0.000000
# 6 0.000000 0.000000 0.000000 0.000000 0.000000 0.046709
#
#
# Mechanical properties :
#
#
# Convention : Reuss Voigt Hill
#
# Bulk Modulus (GPa) = 80.17906 85.04164 82.61035
# Shear Modulus (GPa) = 35.76277 43.12410 39.44344
#
# Velocity S-wave (km/s) = 3.46086 3.80040 3.63460
# Velocity P-wave (km/s) = 6.54396 6.90936 6.72914
#
# Compressibility (1/GPa) = 0.01247208
#
# Stress axis : x y z
#
# Youngs Moduli (GPa) = 163.76257 150.20377 131.50584
#
# Poissons Ratio (x) = 0.31766 0.22511
# Poissons Ratio (y) = 0.34633 0.01597
# Poissons Ratio (z) = 0.28032 0.01825
#
# Static dielectric constant tensor:
#      x y z
#    x 6.514350 0.000000 0.000000 
#    y 0.000000 6.161720 0.000000 
#    z 0.000000 0.000000 5.850940 
# 
# 
# High freq. dielectric constant tensor:
#      x y z
#    x 2.266950 0.000000 0.000000 
#    y 0.000000 2.249780 0.000000 
#    z 0.000000 0.000000 2.216780 
# 
# From -- ./inp_files/49581.got.cif
#   From: 2010.03.12/outbox.cif.g09.slc.cpg/sg70_25_cif.got.tgz:49581.got - 2010.04.16 13:46:32.
