data_PCOD8286820
_publ_section_title
;
Structure prediction by ZEFSAII (Michael W. Deem and Ramdas Pophale) SiO2 
 PCOD8286820
Probable space group: F D D D
;
_chemical_formula_sum "Si O2"
_cell_formula_units_Z 176
_cell_length_a 30.667683
_cell_length_b 28.574684
_cell_length_c 10.496033
_cell_angle_alpha 90.000000
_cell_angle_beta 90.000000
_cell_angle_gamma 90.000000
_cell_volume 9197.876824
_symmetry_space_group_name_H-M "F D D D"
_symmetry_group_IT_number 70
_space_group.IT_coordinate_system_code '2'
_symmetry_cell_setting 'orthorhombic'
loop_
_space_group_symop_operation_xyz
x,y,z
1/4-x,1/4-y,z
x,1/4-y,1/4-z
1/4-x,y,1/4-z
-x,-y,-z
3/4+x,3/4+y,-z
-x,3/4+y,3/4+z
3/4+x,-y,3/4+z
x,1/2+y,1/2+z
1/4-x,3/4-y,1/2+z
x,3/4-y,3/4-z
1/4-x,1/2+y,3/4-z
-x,1/2-y,1/2-z
3/4+x,1/4+y,1/2-z
-x,1/4+y,1/4+z
3/4+x,1/2-y,1/4+z
1/2+x,y,1/2+z
3/4-x,1/4-y,1/2+z
1/2+x,1/4-y,3/4-z
3/4-x,y,3/4-z
1/2-x,-y,1/2-z
1/4+x,3/4+y,1/2-z
1/2-x,3/4+y,1/4+z
1/4+x,-y,1/4+z
1/2+x,1/2+y,z
3/4-x,3/4-y,z
1/2+x,3/4-y,1/4-z
3/4-x,1/2+y,1/4-z
1/2-x,1/2-y,-z
1/4+x,1/4+y,-z
1/2-x,1/4+y,3/4+z
1/4+x,1/2-y,3/4+z
loop_
_atom_site_type_symbol
_atom_site_label
_atom_site_fract_x
_atom_site_fract_y
_atom_site_fract_z
Si Si1 0.545010 0.421960 0.939909
Si Si2 0.094469 0.582973 0.896195
Si Si3 0.504231 0.806854 0.057081
Si Si4 0.041675 0.125000 0.625000
Si Si5 0.917452 0.768569 0.681741
Si Si6 0.041693 0.709865 0.564868
O O1 0.563583 0.375000 0.875000
O O2 0.581268 0.462280 0.920062
O O3 0.500530 0.436638 0.873499
O O4 0.534440 0.415891 0.090077
O O5 0.125000 0.625000 0.848856
O O6 0.124263 0.536111 0.892578
O O7 0.055899 0.575579 0.795805
O O8 0.073422 0.594991 0.032824
O O9 0.459269 0.791349 0.118845
O O10 0.529950 0.761022 0.007517
O O11 0.492053 0.840557 0.942372
O O12 0.919722 0.783653 0.830756
#
# Coordination Sequence:
#
# PCOD8286820 Si02
#       6
#    32  32  32  16  32  32
#     4   9  17  34  59  82 106 140 190 236 278 326
#     4  12  23  34  54  85 116 150 177 231 289 346
#     4   9  19  36  54  79 115 148 185 228 279 331
#     4  12  23  36  56  80 122 156 184 216 284 360
#     4   9  19  34  53  82 114 141 179 236 291 330
#     4   9  20  35  55  83 109 141 187 242 276 329
#
# _framework density 19.134851000000001
#
# number of rings (size 3 to 8) (size 9 to 14) (size 15 to 20)
#    0.000    2.182    1.818    4.091    2.545    1.455 
#    0.000    0.000    2.000    0.000   14.182    0.000 
#    0.000    0.000    0.000    0.000    0.000    0.000 
#
# Total GULP energy -545342.608968 kJ/mol
# GULP energy per Si atom -12394.150204 kJ/mol
# Density = 1.909130 g / cm^3
# Si number density = 19.134851 Si / 1000 Ang^3
#
#
#
# Elastic Constant Matrix: (Units=GPa)
#
#
# Indices 1 2 3 4 5 6 
#
# 1 53.9619 34.2332 37.8463 -0.0019 0.0029 0.0015
# 2 34.2332 122.5572 68.7602 -0.0011 -0.0079 -0.0038
# 3 37.8463 68.7602 114.9308 -0.0152 0.0084 0.0019
# 4 -0.0019 -0.0011 -0.0152 37.9027 0.0032 0.0004
# 5 0.0029 -0.0079 0.0084 0.0032 15.3595 -0.0003
# 6 0.0015 -0.0038 0.0019 0.0004 -0.0003 39.9788
#
#
#
# Elastic Compliance Matrix: (Units=1/GPa)
#
#
# Indices 1 2 3 4 5 6 
#
# 1 0.025095 -0.003572 -0.006126 -0.000001 -0.000003 -0.000001
# 2 -0.003572 0.012791 -0.006476 -0.000002 0.000011 0.000002
# 3 -0.006126 -0.006476 0.014593 0.000005 -0.000010 -0.000001
# 4 -0.000001 -0.000002 0.000005 0.026383 -0.000005 0.000000
# 5 -0.000003 0.000011 -0.000010 -0.000005 0.065106 0.000001
# 6 -0.000001 0.000002 -0.000001 0.000000 0.000001 0.025013
#
#
# Mechanical properties :
#
#
# Convention : Reuss Voigt Hill
#
# Bulk Modulus (GPa) = 49.68049 63.68104 56.68076
# Shear Modulus (GPa) = 24.03387 28.68886 26.36136
#
# Velocity S-wave (km/s) = 3.54789 3.87628 3.71571
# Velocity P-wave (km/s) = 6.54241 7.30660 6.93504
#
# Compressibility (1/GPa) = 0.02012863
#
# Stress axis : x y z
#
# Youngs Moduli (GPa) = 39.84917 78.18238 68.52774
#
# Poissons Ratio (x) = 0.27930 0.41982
# Poissons Ratio (y) = 0.14236 0.44378
# Poissons Ratio (z) = 0.24413 0.50630
#
# Static dielectric constant tensor:
#      x y z
#    x 3.410100 0.000020 0.000010 
#    y 0.000020 3.963100 0.000000 
#    z 0.000010 0.000000 3.527560 
# 
# 
# High freq. dielectric constant tensor:
#      x y z
#    x 1.724190 0.000000 0.000000 
#    y 0.000000 1.746180 0.000000 
#    z 0.000000 0.000000 1.729770 
# 
# From -- ./inp_files/22444.got.cif
#   From: 2010.03.12/outbox.cif.g09.slc.cpg/sg70_12_cif.got.tgz:22444.got - 2010.04.16 13:46:32.
