data_PCOD8286694
_publ_section_title
;
Structure prediction by ZEFSAII (Michael W. Deem and Ramdas Pophale) SiO2 
 PCOD8286694
Probable space group: F D D D
;
_chemical_formula_sum "Si O2"
_cell_formula_units_Z 176
_cell_length_a 13.658404
_cell_length_b 23.886688
_cell_length_c 22.590070
_cell_angle_alpha 90.000000
_cell_angle_beta 90.000000
_cell_angle_gamma 90.000000
_cell_volume 7370.101487
_symmetry_space_group_name_H-M "F D D D"
_symmetry_group_IT_number 70
_space_group.IT_coordinate_system_code '2'
_symmetry_cell_setting 'orthorhombic'
loop_
_space_group_symop_operation_xyz
x,y,z
1/4-x,1/4-y,z
x,1/4-y,1/4-z
1/4-x,y,1/4-z
-x,-y,-z
3/4+x,3/4+y,-z
-x,3/4+y,3/4+z
3/4+x,-y,3/4+z
x,1/2+y,1/2+z
1/4-x,3/4-y,1/2+z
x,3/4-y,3/4-z
1/4-x,1/2+y,3/4-z
-x,1/2-y,1/2-z
3/4+x,1/4+y,1/2-z
-x,1/4+y,1/4+z
3/4+x,1/2-y,1/4+z
1/2+x,y,1/2+z
3/4-x,1/4-y,1/2+z
1/2+x,1/4-y,3/4-z
3/4-x,y,3/4-z
1/2-x,-y,1/2-z
1/4+x,3/4+y,1/2-z
1/2-x,3/4+y,1/4+z
1/4+x,-y,1/4+z
1/2+x,1/2+y,z
3/4-x,3/4-y,z
1/2+x,3/4-y,1/4-z
3/4-x,1/2+y,1/4-z
1/2-x,1/2-y,-z
1/4+x,1/4+y,-z
1/2-x,1/4+y,3/4+z
1/4+x,1/2-y,3/4+z
loop_
_atom_site_type_symbol
_atom_site_label
_atom_site_fract_x
_atom_site_fract_y
_atom_site_fract_z
Si Si1 0.875691 0.731212 0.964551
Si Si2 0.549439 0.078276 0.779641
Si Si3 0.029462 0.987508 0.879093
Si Si4 0.882460 0.125000 0.625000
Si Si5 0.063652 0.573434 0.911691
Si Si6 0.339203 0.143852 0.499543
O O1 0.763243 0.735032 0.940604
O O2 0.941894 0.764026 0.917402
O O3 0.898485 0.766845 0.024572
O O4 0.908386 0.667234 0.969796
O O5 0.625000 0.125000 0.755883
O O6 0.520085 0.090552 0.847798
O O7 0.448144 0.080815 0.743585
O O8 0.063588 0.925677 0.896691
O O9 0.119365 0.019489 0.847514
O O10 0.949302 0.109047 0.567748
O O11 0.125000 0.625000 0.938166
O O12 0.976858 0.564415 0.959598
#
# Coordination Sequence:
#
# PCOD8286694 Si02
#       6
#    32  32  32  16  32  32
#     4  11  23  42  71 104 142 185 238 309 384 434
#     4  11  23  40  69 106 137 184 235 308 376 443
#     4  11  24  43  72 103 141 192 236 309 371 450
#     4  12  26  45  65 104 146 190 240 304 378 436
#     4  11  23  43  70  98 137 189 248 292 356 436
#     4  12  25  44  70 102 146 187 243 304 370 454
#
# _framework density 23.880268999999998
#
# number of rings (size 3 to 8) (size 9 to 14) (size 15 to 20)
#    0.000    0.727    3.636    4.909    2.545    3.636 
#    0.000    0.455    0.000    0.000    0.000    0.000 
#    0.000    0.000    0.000    0.000    0.000    0.000 
#
# Total GULP energy -545568.004178 kJ/mol
# GULP energy per Si atom -12399.272822 kJ/mol
# Density = 2.382592 g / cm^3
# Si number density = 23.880269 Si / 1000 Ang^3
#
#
#
# Elastic Constant Matrix: (Units=GPa)
#
#
# Indices 1 2 3 4 5 6 
#
# 1 121.3751 41.2435 55.5505 0.0000 0.0000 0.0000
# 2 41.2435 97.8380 10.4910 0.0000 0.0000 0.0000
# 3 55.5505 10.4910 129.7872 0.0000 0.0000 0.0000
# 4 0.0000 0.0000 0.0000 32.2772 0.0000 0.0000
# 5 0.0000 0.0000 0.0000 0.0000 30.2699 0.0000
# 6 0.0000 0.0000 0.0000 0.0000 0.0000 33.4091
#
#
#
# Elastic Compliance Matrix: (Units=1/GPa)
#
#
# Indices 1 2 3 4 5 6 
#
# 1 0.011951 -0.004529 -0.004749 0.000000 0.000000 0.000000
# 2 -0.004529 0.012027 0.000966 0.000000 0.000000 0.000000
# 3 -0.004749 0.000966 0.009660 0.000000 0.000000 0.000000
# 4 0.000000 0.000000 0.000000 0.030982 0.000000 0.000000
# 5 0.000000 0.000000 0.000000 0.000000 0.033036 0.000000
# 6 0.000000 0.000000 0.000000 0.000000 0.000000 0.029932
#
#
# Mechanical properties :
#
#
# Convention : Reuss Voigt Hill
#
# Bulk Modulus (GPa) = 58.77593 62.61894 60.69744
# Shear Modulus (GPa) = 33.35949 35.30558 34.33254
#
# Velocity S-wave (km/s) = 3.74163 3.84922 3.79581
# Velocity P-wave (km/s) = 6.58275 6.78486 6.68457
#
# Compressibility (1/GPa) = 0.01701377
#
# Stress axis : x y z
#
# Youngs Moduli (GPa) = 83.67158 83.14969 103.52430
#
# Poissons Ratio (x) = 0.37657 0.49167
# Poissons Ratio (y) = 0.37894 -0.10003
# Poissons Ratio (z) = 0.39738 -0.08035
#
# Static dielectric constant tensor:
#      x y z
#    x 4.132480 0.000000 0.000000 
#    y 0.000000 4.069510 0.000000 
#    z 0.000000 0.000000 4.526940 
# 
# 
# High freq. dielectric constant tensor:
#      x y z
#    x 1.930830 0.000000 0.000000 
#    y 0.000000 1.936780 0.000000 
#    z 0.000000 0.000000 1.963770 
# 
# From -- ./inp_files/51211.got.cif
#   From: 2010.03.12/outbox.cif.g09.slc.cpg/sg70_26_cif.got.tgz:51211.got - 2010.04.16 13:46:32.
