data_PCOD8286586
_publ_section_title
;
Structure prediction by ZEFSAII (Michael W. Deem and Ramdas Pophale) SiO2 
 PCOD8286586
Probable space group: F D D D
;
_chemical_formula_sum "Si O2"
_cell_formula_units_Z 120
_cell_length_a 20.460912
_cell_length_b 22.306433
_cell_length_c 11.469314
_cell_angle_alpha 90.000000
_cell_angle_beta 90.000000
_cell_angle_gamma 90.000000
_cell_volume 5234.709174
_symmetry_space_group_name_H-M "F D D D"
_symmetry_group_IT_number 70
_space_group.IT_coordinate_system_code '2'
_symmetry_cell_setting 'orthorhombic'
loop_
_space_group_symop_operation_xyz
x,y,z
1/4-x,1/4-y,z
x,1/4-y,1/4-z
1/4-x,y,1/4-z
-x,-y,-z
3/4+x,3/4+y,-z
-x,3/4+y,3/4+z
3/4+x,-y,3/4+z
x,1/2+y,1/2+z
1/4-x,3/4-y,1/2+z
x,3/4-y,3/4-z
1/4-x,1/2+y,3/4-z
-x,1/2-y,1/2-z
3/4+x,1/4+y,1/2-z
-x,1/4+y,1/4+z
3/4+x,1/2-y,1/4+z
1/2+x,y,1/2+z
3/4-x,1/4-y,1/2+z
1/2+x,1/4-y,3/4-z
3/4-x,y,3/4-z
1/2-x,-y,1/2-z
1/4+x,3/4+y,1/2-z
1/2-x,3/4+y,1/4+z
1/4+x,-y,1/4+z
1/2+x,1/2+y,z
3/4-x,3/4-y,z
1/2+x,3/4-y,1/4-z
3/4-x,1/2+y,1/4-z
1/2-x,1/2-y,-z
1/4+x,1/4+y,-z
1/2-x,1/4+y,3/4+z
1/4+x,1/2-y,3/4+z
loop_
_atom_site_type_symbol
_atom_site_label
_atom_site_fract_x
_atom_site_fract_y
_atom_site_fract_z
Si Si1 0.679126 0.226177 0.473538
Si Si2 0.875000 0.375000 0.375000
Si Si3 0.375000 0.572722 0.875000
Si Si4 0.899169 0.780292 0.247861
Si Si5 0.969894 0.655553 0.250416
O O1 0.750000 0.250000 0.500000
O O2 0.671515 0.165544 0.546032
O O3 0.631237 0.279859 0.512809
O O4 0.662782 0.212500 0.338520
O O5 0.439923 0.612107 0.849962
O O6 0.875000 0.799299 0.375000
O O7 0.922991 0.712501 0.244899
O O8 0.957500 0.825061 0.209160
O O9 0.971805 0.625000 0.125000
#
# Coordination Sequence:
#
# PCOD8286586 Si02
#       5
#    32   8  16  32  32
#     4  11  27  47  74 108 149 198 259 308 392 463
#     4  10  28  48  70 108 148 192 254 312 374 460
#     4  11  24  47  72 104 139 204 257 306 382 468
#     4  11  26  44  72 114 150 195 254 316 393 457
#     4  11  24  45  72 103 150 195 254 311 380 461
#
# _framework density 22.923909999999999
#
# number of rings (size 3 to 8) (size 9 to 14) (size 15 to 20)
#    0.000    1.067    4.000    0.000    7.467    4.800 
#    0.000    0.000    0.000    0.000    0.000    0.000 
#    0.000    0.000    0.000    0.000    0.000    0.000 
#
# Total GULP energy -372052.699277 kJ/mol
# GULP energy per Si atom -12401.756643 kJ/mol
# Density = 2.287173 g / cm^3
# Si number density = 22.923910 Si / 1000 Ang^3
#
#
#
# Elastic Constant Matrix: (Units=GPa)
#
#
# Indices 1 2 3 4 5 6 
#
# 1 139.0604 50.8430 62.8897 0.0000 0.0000 0.0000
# 2 50.8430 133.6785 47.8719 0.0000 0.0000 0.0000
# 3 62.8897 47.8719 156.1424 0.0000 0.0000 0.0000
# 4 0.0000 0.0000 0.0000 27.9865 0.0000 0.0000
# 5 0.0000 0.0000 0.0000 0.0000 42.3262 0.0000
# 6 0.0000 0.0000 0.0000 0.0000 0.0000 34.7973
#
#
#
# Elastic Compliance Matrix: (Units=1/GPa)
#
#
# Indices 1 2 3 4 5 6 
#
# 1 0.009491 -0.002517 -0.003051 0.000000 0.000000 0.000000
# 2 -0.002517 0.009071 -0.001767 0.000000 0.000000 0.000000
# 3 -0.003051 -0.001767 0.008175 0.000000 0.000000 0.000000
# 4 0.000000 0.000000 0.000000 0.035731 0.000000 0.000000
# 5 0.000000 0.000000 0.000000 0.000000 0.023626 0.000000
# 6 0.000000 0.000000 0.000000 0.000000 0.000000 0.028738
#
#
# Mechanical properties :
#
#
# Convention : Reuss Voigt Hill
#
# Bulk Modulus (GPa) = 82.87555 83.56561 83.22058
# Shear Modulus (GPa) = 37.44596 38.84046 38.14321
#
# Velocity S-wave (km/s) = 4.04603 4.12068 4.08352
# Velocity P-wave (km/s) = 7.61958 7.69237 7.65607
#
# Compressibility (1/GPa) = 0.01206629
#
# Stress axis : x y z
#
# Youngs Moduli (GPa) = 105.35944 110.24264 122.32290
#
# Poissons Ratio (x) = 0.27751 0.37321
# Poissons Ratio (y) = 0.26522 0.21616
# Poissons Ratio (z) = 0.32146 0.19482
#
# Static dielectric constant tensor:
#      x y z
#    x 4.046870 0.000000 0.000000 
#    y 0.000000 4.551550 0.000000 
#    z 0.000000 0.000000 4.764890 
# 
# 
# High freq. dielectric constant tensor:
#      x y z
#    x 1.901990 0.000000 0.000000 
#    y 0.000000 1.932460 0.000000 
#    z 0.000000 0.000000 1.900770 
# 
# From -- ./inp_files/17391.got.cif
#   From: 2010.03.12/outbox.cif.g09.slc.cpg/sg70_9_cif.got.tgz:17391.got - 2010.04.16 13:46:32.
