data_PCOD8286381
_publ_section_title
;
Structure prediction by ZEFSAII (Michael W. Deem and Ramdas Pophale) SiO2 
 PCOD8286381
Probable space group: F D D D
;
_chemical_formula_sum "Si O2"
_cell_formula_units_Z 160
_cell_length_a 23.244485
_cell_length_b 11.405514
_cell_length_c 23.373397
_cell_angle_alpha 90.000000
_cell_angle_beta 90.000000
_cell_angle_gamma 90.000000
_cell_volume 6196.645136
_symmetry_space_group_name_H-M "F D D D"
_symmetry_group_IT_number 70
_space_group.IT_coordinate_system_code '2'
_symmetry_cell_setting 'orthorhombic'
loop_
_space_group_symop_operation_xyz
x,y,z
1/4-x,1/4-y,z
x,1/4-y,1/4-z
1/4-x,y,1/4-z
-x,-y,-z
3/4+x,3/4+y,-z
-x,3/4+y,3/4+z
3/4+x,-y,3/4+z
x,1/2+y,1/2+z
1/4-x,3/4-y,1/2+z
x,3/4-y,3/4-z
1/4-x,1/2+y,3/4-z
-x,1/2-y,1/2-z
3/4+x,1/4+y,1/2-z
-x,1/4+y,1/4+z
3/4+x,1/2-y,1/4+z
1/2+x,y,1/2+z
3/4-x,1/4-y,1/2+z
1/2+x,1/4-y,3/4-z
3/4-x,y,3/4-z
1/2-x,-y,1/2-z
1/4+x,3/4+y,1/2-z
1/2-x,3/4+y,1/4+z
1/4+x,-y,1/4+z
1/2+x,1/2+y,z
3/4-x,3/4-y,z
1/2+x,3/4-y,1/4-z
3/4-x,1/2+y,1/4-z
1/2-x,1/2-y,-z
1/4+x,1/4+y,-z
1/2-x,1/4+y,3/4+z
1/4+x,1/2-y,3/4+z
loop_
_atom_site_type_symbol
_atom_site_label
_atom_site_fract_x
_atom_site_fract_y
_atom_site_fract_z
Si Si1 0.254758 0.018556 0.991635
Si Si2 0.132255 0.347069 0.702713
Si Si3 0.537483 0.538230 0.072875
Si Si4 0.175509 0.892482 0.817025
Si Si5 0.010256 0.402196 0.094583
O O1 0.260450 0.919665 0.039557
O O2 0.246333 0.146484 0.021271
O O3 0.201081 0.982935 0.952421
O O4 0.309901 0.017781 0.948347
O O5 0.151516 0.484605 0.699487
O O6 0.112243 0.307363 0.766215
O O7 0.169499 0.325678 0.592423
O O8 0.551008 0.625000 0.125000
O O9 0.499578 0.426978 0.097919
O O10 0.137250 0.875000 0.875000
O O11 0.226945 0.976765 0.839336
#
# Coordination Sequence:
#
# PCOD8286381 Si02
#       5
#    32  32  32  32  32
#     4  10  22  41  64  89 125 166 209 263 321 379
#     4  11  22  39  64  91 119 163 212 254 314 381
#     4  10  22  41  67  97 127 162 212 274 326 377
#     4  11  25  41  58  89 129 165 206 258 316 383
#     4  10  23  41  61  91 128 163 210 264 317 383
#
# _framework density 25.820422000000001
#
# number of rings (size 3 to 8) (size 9 to 14) (size 15 to 20)
#    0.000    1.600    0.000    4.800    0.000   16.800 
#    0.000    3.000    0.000    0.000    0.000    0.000 
#    0.000    0.000    0.000    0.000    0.000    0.000 
#
# Total GULP energy -495541.749621 kJ/mol
# GULP energy per Si atom -12388.543741 kJ/mol
# Density = 2.576165 g / cm^3
# Si number density = 25.820422 Si / 1000 Ang^3
#
#
#
# Elastic Constant Matrix: (Units=GPa)
#
#
# Indices 1 2 3 4 5 6 
#
# 1 51.3642 1.3285 -7.1021 0.0000 0.0000 0.0000
# 2 1.3285 90.1980 17.1646 0.0000 0.0000 0.0000
# 3 -7.1021 17.1646 99.5403 0.0000 0.0000 0.0000
# 4 0.0000 0.0000 0.0000 34.8999 0.0000 0.0000
# 5 0.0000 0.0000 0.0000 0.0000 17.2331 0.0000
# 6 0.0000 0.0000 0.0000 0.0000 0.0000 28.2377
#
#
#
# Elastic Compliance Matrix: (Units=1/GPa)
#
#
# Indices 1 2 3 4 5 6 
#
# 1 0.019692 -0.000576 0.001504 0.000000 0.000000 0.000000
# 2 -0.000576 0.011480 -0.002021 0.000000 0.000000 0.000000
# 3 0.001504 -0.002021 0.010502 0.000000 0.000000 0.000000
# 4 0.000000 0.000000 0.000000 0.028653 0.000000 0.000000
# 5 0.000000 0.000000 0.000000 0.000000 0.058028 0.000000
# 6 0.000000 0.000000 0.000000 0.000000 0.000000 0.035414
#
#
# Mechanical properties :
#
#
# Convention : Reuss Voigt Hill
#
# Bulk Modulus (GPa) = 25.32402 29.32050 27.32226
# Shear Modulus (GPa) = 27.91481 31.38822 29.65151
#
# Velocity S-wave (km/s) = 3.29160 3.49038 3.39244
# Velocity P-wave (km/s) = 4.92698 5.25584 5.09407
#
# Compressibility (1/GPa) = 0.03948820
#
# Stress axis : x y z
#
# Youngs Moduli (GPa) = 50.78271 87.10995 95.22034
#
# Poissons Ratio (x) = 0.05020 -0.14325
# Poissons Ratio (y) = 0.02927 0.19241
# Poissons Ratio (z) = -0.07640 0.17602
#
# Static dielectric constant tensor:
#      x y z
#    x 4.377830 0.000000 0.000000 
#    y 0.000000 4.691550 0.000000 
#    z 0.000000 0.000000 5.597380 
# 
# 
# High freq. dielectric constant tensor:
#      x y z
#    x 1.999260 0.000000 0.000000 
#    y 0.000000 2.026670 0.000000 
#    z 0.000000 0.000000 2.082760 
# 
# From -- ./inp_files/61608.got.cif
#   From: 2010.03.12/outbox.cif.g09.slc.cpg/sg70_31_cif.got.tgz:61608.got - 2010.04.16 13:46:32.
