data_PCOD8286742
_publ_section_title
;
Structure prediction by ZEFSAII (Michael W. Deem and Ramdas Pophale) SiO2 
 PCOD8286742
Probable space group: F D D D
;
_chemical_formula_sum "Si O2"
_cell_formula_units_Z 192
_cell_length_a 19.884837
_cell_length_b 22.842741
_cell_length_c 19.179953
_cell_angle_alpha 90.000000
_cell_angle_beta 90.000000
_cell_angle_gamma 90.000000
_cell_volume 8711.998451
_symmetry_space_group_name_H-M "F D D D"
_symmetry_group_IT_number 70
_space_group.IT_coordinate_system_code '2'
_symmetry_cell_setting 'orthorhombic'
loop_
_space_group_symop_operation_xyz
x,y,z
1/4-x,1/4-y,z
x,1/4-y,1/4-z
1/4-x,y,1/4-z
-x,-y,-z
3/4+x,3/4+y,-z
-x,3/4+y,3/4+z
3/4+x,-y,3/4+z
x,1/2+y,1/2+z
1/4-x,3/4-y,1/2+z
x,3/4-y,3/4-z
1/4-x,1/2+y,3/4-z
-x,1/2-y,1/2-z
3/4+x,1/4+y,1/2-z
-x,1/4+y,1/4+z
3/4+x,1/2-y,1/4+z
1/2+x,y,1/2+z
3/4-x,1/4-y,1/2+z
1/2+x,1/4-y,3/4-z
3/4-x,y,3/4-z
1/2-x,-y,1/2-z
1/4+x,3/4+y,1/2-z
1/2-x,3/4+y,1/4+z
1/4+x,-y,1/4+z
1/2+x,1/2+y,z
3/4-x,3/4-y,z
1/2+x,3/4-y,1/4-z
3/4-x,1/2+y,1/4-z
1/2-x,1/2-y,-z
1/4+x,1/4+y,-z
1/2-x,1/4+y,3/4+z
1/4+x,1/2-y,3/4+z
loop_
_atom_site_type_symbol
_atom_site_label
_atom_site_fract_x
_atom_site_fract_y
_atom_site_fract_z
Si Si1 0.783737 0.162360 0.725160
Si Si2 0.735308 0.403082 0.943266
Si Si3 0.288569 0.804378 0.032535
Si Si4 0.588730 0.803280 0.326920
Si Si5 0.655854 0.509457 0.549637
Si Si6 0.661256 0.564385 0.932954
O O1 0.799944 0.191780 0.650282
O O2 0.792290 0.091352 0.726513
O O3 0.839047 0.191882 0.776216
O O4 0.707622 0.177781 0.748589
O O5 0.770908 0.375000 0.875000
O O6 0.657875 0.410807 0.924857
O O7 0.768026 0.466467 0.954704
O O8 0.748799 0.362830 0.010759
O O9 0.291830 0.798898 0.116194
O O10 0.250000 0.750000 0.000000
O O11 0.363917 0.801328 0.002331
O O12 0.604192 0.736190 0.305156
O O13 0.625000 0.511747 0.625000
O O14 0.625000 0.625000 0.915884
#
# Coordination Sequence:
#
# PCOD8286742 Si02
#       6
#    32  32  32  32  32  32
#     4  11  24  44  70  98 134 194 234 281 358 436
#     4  12  21  38  64  98 143 194 218 277 358 423
#     4  12  24  39  64 104 148 187 230 287 352 427
#     4  11  24  47  71  93 140 189 232 291 363 421
#     4  12  22  35  62 106 142 181 236 275 348 437
#     4  12  26  46  72 105 142 184 242 304 355 418
#
# _framework density 22.03857
#
# number of rings (size 3 to 8) (size 9 to 14) (size 15 to 20)
#    0.000    0.333    6.667    4.500    0.000    0.667 
#    0.000    1.667    0.000    4.000    0.000    0.000 
#    0.000    0.000    0.000    0.000    0.000    0.000 
#
# Total GULP energy -594946.162681 kJ/mol
# GULP energy per Si atom -12394.711723 kJ/mol
# Density = 2.198841 g / cm^3
# Si number density = 22.038570 Si / 1000 Ang^3
#
#
#
# Elastic Constant Matrix: (Units=GPa)
#
#
# Indices 1 2 3 4 5 6 
#
# 1 73.1636 30.8246 45.3770 0.0000 0.0000 0.0000
# 2 30.8246 160.9913 44.5731 0.0000 0.0000 0.0000
# 3 45.3770 44.5731 92.3117 0.0000 0.0000 0.0000
# 4 0.0000 0.0000 0.0000 34.4289 0.0000 0.0000
# 5 0.0000 0.0000 0.0000 0.0000 37.5632 0.0000
# 6 0.0000 0.0000 0.0000 0.0000 0.0000 27.2166
#
#
#
# Elastic Compliance Matrix: (Units=1/GPa)
#
#
# Indices 1 2 3 4 5 6 
#
# 1 0.019885 -0.001271 -0.009161 0.000000 0.000000 0.000000
# 2 -0.001271 0.007251 -0.002877 0.000000 0.000000 0.000000
# 3 -0.009161 -0.002877 0.016725 0.000000 0.000000 0.000000
# 4 0.000000 0.000000 0.000000 0.029045 0.000000 0.000000
# 5 0.000000 0.000000 0.000000 0.000000 0.026622 0.000000
# 6 0.000000 0.000000 0.000000 0.000000 0.000000 0.036742
#
#
# Mechanical properties :
#
#
# Convention : Reuss Voigt Hill
#
# Bulk Modulus (GPa) = 57.99014 63.11289 60.55152
# Shear Modulus (GPa) = 29.64951 33.55454 31.60202
#
# Velocity S-wave (km/s) = 3.67188 3.90620 3.79085
# Velocity P-wave (km/s) = 6.65936 7.00316 6.83342
#
# Compressibility (1/GPa) = 0.01724431
#
# Stress axis : x y z
#
# Youngs Moduli (GPa) = 50.28818 137.90655 59.79025
#
# Poissons Ratio (x) = 0.17528 0.54775
# Poissons Ratio (y) = 0.06392 0.17199
# Poissons Ratio (z) = 0.46070 0.39669
#
# Static dielectric constant tensor:
#      x y z
#    x 4.056910 0.000000 0.000000 
#    y 0.000000 4.508870 0.000000 
#    z 0.000000 0.000000 3.976850 
# 
# 
# High freq. dielectric constant tensor:
#      x y z
#    x 1.857020 0.000000 0.000000 
#    y 0.000000 1.880620 0.000000 
#    z 0.000000 0.000000 1.848220 
# 
# From -- ./inp_files/44991.got.cif
#   From: 2010.03.12/outbox.cif.g09.slc.cpg/sg70_23_cif.got.tgz:44991.got - 2010.04.16 13:46:32.
