data_PCOD8286142
_publ_section_title
;
Structure prediction by ZEFSAII (Michael W. Deem and Ramdas Pophale) SiO2 
 PCOD8286142
Probable space group: F D D D
;
_chemical_formula_sum "Si O2"
_cell_formula_units_Z 112
_cell_length_a 12.653486
_cell_length_b 12.152192
_cell_length_c 27.415318
_cell_angle_alpha 90.000000
_cell_angle_beta 90.000000
_cell_angle_gamma 90.000000
_cell_volume 4215.587415
_symmetry_space_group_name_H-M "F D D D"
_symmetry_group_IT_number 70
_space_group.IT_coordinate_system_code '2'
_symmetry_cell_setting 'orthorhombic'
loop_
_space_group_symop_operation_xyz
x,y,z
1/4-x,1/4-y,z
x,1/4-y,1/4-z
1/4-x,y,1/4-z
-x,-y,-z
3/4+x,3/4+y,-z
-x,3/4+y,3/4+z
3/4+x,-y,3/4+z
x,1/2+y,1/2+z
1/4-x,3/4-y,1/2+z
x,3/4-y,3/4-z
1/4-x,1/2+y,3/4-z
-x,1/2-y,1/2-z
3/4+x,1/4+y,1/2-z
-x,1/4+y,1/4+z
3/4+x,1/2-y,1/4+z
1/2+x,y,1/2+z
3/4-x,1/4-y,1/2+z
1/2+x,1/4-y,3/4-z
3/4-x,y,3/4-z
1/2-x,-y,1/2-z
1/4+x,3/4+y,1/2-z
1/2-x,3/4+y,1/4+z
1/4+x,-y,1/4+z
1/2+x,1/2+y,z
3/4-x,3/4-y,z
1/2+x,3/4-y,1/4-z
3/4-x,1/2+y,1/4-z
1/2-x,1/2-y,-z
1/4+x,1/4+y,-z
1/2-x,1/4+y,3/4+z
1/4+x,1/2-y,3/4+z
loop_
_atom_site_type_symbol
_atom_site_label
_atom_site_fract_x
_atom_site_fract_y
_atom_site_fract_z
Si Si1 0.041493 0.721806 0.887972
Si Si2 0.653083 0.250882 0.547838
Si Si3 0.125000 0.625000 0.233558
Si Si4 0.647789 0.398859 0.788765
O O1 0.125000 0.625000 0.887479
O O2 0.091955 0.836237 0.908888
O O3 0.943481 0.689965 0.923369
O O4 0.005791 0.740953 0.832207
O O5 0.625000 0.125000 0.537277
O O6 0.831234 0.184398 0.503517
O O7 0.232018 0.643761 0.202123
O O8 0.145207 0.520728 0.267001
#
# Coordination Sequence:
#
# PCOD8286142 Si02
#       4
#    32  32  16  32
#     4  11  22  47  78 109 158 204 265 339 391 480
#     4  11  26  48  72 115 166 205 261 337 408 487
#     4  10  20  40  78 119 144 198 278 330 400 493
#     4  11  20  44  78 113 156 211 261 335 410 480
#
# _framework density 26.568064
#
# number of rings (size 3 to 8) (size 9 to 14) (size 15 to 20)
#    0.000    1.143    4.286    3.429    0.000    1.143 
#   10.286    2.857    0.000    3.429    0.000    0.000 
#    0.000    0.000    0.000    0.000    0.000    0.000 
#
# Total GULP energy -347135.268610 kJ/mol
# GULP energy per Si atom -12397.688165 kJ/mol
# Density = 2.650759 g / cm^3
# Si number density = 26.568064 Si / 1000 Ang^3
#
#
#
# Elastic Constant Matrix: (Units=GPa)
#
#
# Indices 1 2 3 4 5 6 
#
# 1 172.1310 61.0238 84.0043 0.0000 0.0000 0.0000
# 2 61.0238 161.0033 80.2902 0.0000 0.0000 0.0000
# 3 84.0043 80.2902 199.9193 0.0000 0.0000 0.0000
# 4 0.0000 0.0000 0.0000 -29.9237 0.0000 0.0000
# 5 0.0000 0.0000 0.0000 0.0000 -6.9673 0.0000
# 6 0.0000 0.0000 0.0000 0.0000 0.0000 56.6892
#
#
#
# Elastic Compliance Matrix: (Units=1/GPa)
#
#
# Indices 1 2 3 4 5 6 
#
# 1 0.007631 -0.001617 -0.002557 0.000000 0.000000 0.000000
# 2 -0.001617 0.008109 -0.002577 0.000000 0.000000 0.000000
# 3 -0.002557 -0.002577 0.007111 0.000000 0.000000 0.000000
# 4 0.000000 0.000000 0.000000 -0.033418 0.000000 0.000000
# 5 0.000000 0.000000 0.000000 0.000000 -0.143528 0.000000
# 6 0.000000 0.000000 0.000000 0.000000 0.000000 0.017640
#
#
# Mechanical properties :
#
#
# Convention : Reuss Voigt Hill
#
# Bulk Modulus (GPa) = 106.96543 109.29891 108.13217
# Shear Modulus (GPa) = -41.72372 24.47534 -8.62419
#
# Velocity S-wave (km/s) = -3.96718 3.03847 -1.80364
# Velocity P-wave (km/s) = 4.40041 7.31698 6.03746
#
# Compressibility (1/GPa) = 0.00934882
#
# Stress axis : x y z
#
# Youngs Moduli (GPa) = 131.05059 123.31634 140.61807
#
# Poissons Ratio (x) = 0.19941 0.35954
# Poissons Ratio (y) = 0.21192 0.36241
# Poissons Ratio (z) = 0.33508 0.31782
#
# Static dielectric constant tensor:
#      x y z
#    x 5.965810 0.000000 0.000000 
#    y 0.000000 4.829270 0.000000 
#    z 0.000000 0.000000 5.125940 
# 
# 
# High freq. dielectric constant tensor:
#      x y z
#    x 2.094510 0.000000 0.000000 
#    y 0.000000 2.073650 0.000000 
#    z 0.000000 0.000000 2.067820 
# 
# From -- ./inp_files/64369.got.cif
#   From: 2010.03.12/outbox.cif.g09.slc.cpg/sg70_33_cif.got.tgz:64369.got - 2010.04.16 13:46:32.
