data_PCOD8286878
_publ_section_title
;
Structure prediction by ZEFSAII (Michael W. Deem and Ramdas Pophale) SiO2 
 PCOD8286878
Probable space group: I M M M
;
_chemical_formula_sum "Si O2"
_cell_formula_units_Z 88
_cell_length_a 8.536573
_cell_length_b 25.976035
_cell_length_c 28.140940
_cell_angle_alpha 90.000000
_cell_angle_beta 90.000000
_cell_angle_gamma 90.000000
_cell_volume 6240.149859
_symmetry_space_group_name_H-M "I M M M"
_symmetry_group_IT_number 71
_symmetry_cell_setting 'orthorhombic'
loop_
_space_group_symop_operation_xyz
x,y,z
-x,-y,z
x,-y,-z
-x,y,-z
-x,-y,-z
x,y,-z
-x,y,z
x,-y,z
1/2+x,1/2+y,1/2+z
1/2-x,1/2-y,1/2+z
1/2+x,1/2-y,1/2-z
1/2-x,1/2+y,1/2-z
1/2-x,1/2-y,1/2-z
1/2+x,1/2+y,1/2-z
1/2-x,1/2+y,1/2+z
1/2+x,1/2-y,1/2+z
loop_
_atom_site_type_symbol
_atom_site_label
_atom_site_fract_x
_atom_site_fract_y
_atom_site_fract_z
Si Si1 0.182093 0.743483 0.356639
Si Si2 0.185964 0.796142 0.552434
Si Si3 0.683555 0.000000 0.444522
Si Si4 0.816440 0.345662 0.813241
Si Si5 0.683622 0.697388 0.728292
Si Si6 0.814721 0.100838 0.603776
O O1 0.236173 0.749406 0.411962
O O2 0.214432 0.798809 0.333611
O O3 0.273591 0.698152 0.328156
O O4 0.000000 0.730582 0.352913
O O5 0.257773 0.786060 0.500000
O O6 0.245697 0.851250 0.571814
O O7 0.000000 0.798439 0.549846
O O8 0.761248 0.950589 0.421373
O O9 0.500000 0.000000 0.434476
O O10 0.722853 0.000000 0.500000
O O11 0.766545 0.349711 0.757275
O O12 0.766495 0.395634 0.843884
O O13 0.000000 0.334597 0.817748
O O14 0.500000 0.693278 0.734761
O O15 0.750000 0.750000 0.750000
O O16 0.000000 0.100925 0.610329
#
# Coordination Sequence:
#
# PCOD8286878 Si02
#       6
#    16  16   8  16  16  16
#     4   9  15  23  35  52  72  93 118 145 175 213
#     4   8  14  24  38  54  70  90 119 153 184 216
#     4  11  23  35  45  59  77  95 119 155 196 231
#     4  10  17  26  39  54  72  90 110 141 182 222
#     4  10  16  23  35  51  71  92 114 139 172 214
#     4  10  19  31  45  58  71  91 121 153 189 232
#
# _framework density 14.102225000000001
#
# number of rings (size 3 to 8) (size 9 to 14) (size 15 to 20)
#    0.000    2.455    0.000    8.455    0.000    1.455 
#    0.000    0.000    0.000   10.909    0.000    0.000 
#    0.000    0.000    0.000    0.000    0.000    0.000 
#
# Total GULP energy -545097.480561 kJ/mol
# GULP energy per Si atom -12388.579104 kJ/mol
# Density = 1.407013 g / cm^3
# Si number density = 14.102225 Si / 1000 Ang^3
#
#
#
# Elastic Constant Matrix: (Units=GPa)
#
#
# Indices 1 2 3 4 5 6 
#
# 1 66.2868 17.5404 34.8689 0.0000 0.0000 0.0000
# 2 17.5404 25.7911 44.3403 0.0000 0.0000 0.0000
# 3 34.8689 44.3403 123.5511 0.0000 0.0000 0.0000
# 4 0.0000 0.0000 0.0000 29.8243 0.0000 0.0000
# 5 0.0000 0.0000 0.0000 0.0000 19.5266 0.0000
# 6 0.0000 0.0000 0.0000 0.0000 0.0000 14.9341
#
#
#
# Elastic Compliance Matrix: (Units=1/GPa)
#
#
# Indices 1 2 3 4 5 6 
#
# 1 0.018557 -0.009443 -0.001848 0.000000 0.000000 0.000000
# 2 -0.009443 0.106038 -0.035390 0.000000 0.000000 0.000000
# 3 -0.001848 -0.035390 0.021316 0.000000 0.000000 0.000000
# 4 0.000000 0.000000 0.000000 0.033530 0.000000 0.000000
# 5 0.000000 0.000000 0.000000 0.000000 0.051212 0.000000
# 6 0.000000 0.000000 0.000000 0.000000 0.000000 0.066961
#
#
# Mechanical properties :
#
#
# Convention : Reuss Voigt Hill
#
# Bulk Modulus (GPa) = 19.02993 45.45869 32.24431
# Shear Modulus (GPa) = 12.24008 20.78228 16.51118
#
# Velocity S-wave (km/s) = 2.94930 3.84303 3.42544
# Velocity P-wave (km/s) = 5.01213 7.21089 6.20960
#
# Compressibility (1/GPa) = 0.05254879
#
# Stress axis : x y z
#
# Youngs Moduli (GPa) = 53.88819 9.43054 46.91232
#
# Poissons Ratio (x) = 0.08905 0.08671
# Poissons Ratio (y) = 0.50886 1.66024
# Poissons Ratio (z) = 0.09960 0.33375
#
# Static dielectric constant tensor:
#      x y z
#    x 2.758740 0.000000 0.000000 
#    y 0.000000 2.478370 0.000000 
#    z 0.000000 0.000000 3.788480 
# 
# 
# High freq. dielectric constant tensor:
#      x y z
#    x 1.546750 0.000000 0.000000 
#    y 0.000000 1.464310 0.000000 
#    z 0.000000 0.000000 1.547070 
# 
# From -- ./inp_files/68166.got.cif
#   From: 2010.06.25/outbox.cif.g09.slc.cpg/sg71_35_cif.got.tgz:68166.got - 2010.06.28 04:59:45.
