data_PCOD8286891
_publ_section_title
;
Structure prediction by ZEFSAII (Michael W. Deem and Ramdas Pophale) SiO2 
 PCOD8286891
Probable space group: I M M M
;
_chemical_formula_sum "Si O2"
_cell_formula_units_Z 88
_cell_length_a 27.872801
_cell_length_b 9.721323
_cell_length_c 19.415197
_cell_angle_alpha 90.000000
_cell_angle_beta 90.000000
_cell_angle_gamma 90.000000
_cell_volume 5260.751515
_symmetry_space_group_name_H-M "I M M M"
_symmetry_group_IT_number 71
_symmetry_cell_setting 'orthorhombic'
loop_
_space_group_symop_operation_xyz
x,y,z
-x,-y,z
x,-y,-z
-x,y,-z
-x,-y,-z
x,y,-z
-x,y,z
x,-y,z
1/2+x,1/2+y,1/2+z
1/2-x,1/2-y,1/2+z
1/2+x,1/2-y,1/2-z
1/2-x,1/2+y,1/2-z
1/2-x,1/2-y,1/2-z
1/2+x,1/2+y,1/2-z
1/2-x,1/2+y,1/2+z
1/2+x,1/2-y,1/2+z
loop_
_atom_site_type_symbol
_atom_site_label
_atom_site_fract_x
_atom_site_fract_y
_atom_site_fract_z
Si Si1 0.701008 0.750986 0.000000
Si Si2 0.806708 0.342314 0.000000
Si Si3 0.403772 0.655928 0.000000
Si Si4 0.053418 0.836333 0.640295
Si Si5 0.819137 0.157475 0.127605
Si Si6 0.711044 0.848386 0.148695
Si Si7 0.139830 0.159997 0.269721
O O1 0.700666 0.846271 0.067116
O O2 0.748847 0.657510 0.000000
O O3 0.653798 0.657119 0.000000
O O4 0.828360 0.263927 0.066109
O O5 0.824509 0.500000 0.000000
O O6 0.425602 0.726267 0.068740
O O7 0.421237 0.500000 0.000000
O O8 0.087920 0.789486 0.702952
O O9 0.000000 0.777333 0.653281
O O10 0.052185 0.000000 0.636214
O O11 0.767074 0.181028 0.161438
O O12 0.857602 0.188258 0.187969
O O13 0.823707 0.000000 0.100398
O O14 0.681644 0.735772 0.189504
O O15 0.697162 0.000000 0.175938
O O16 0.147835 0.000000 0.286168
#
# Coordination Sequence:
#
# PCOD8286891 Si02
#       7
#     8   8   8  16  16  16  16
#     4  10  18  29  43  64  92 131 165 194 227 271
#     4  10  20  31  49  73  96 120 157 197 227 270
#     4  10  16  25  43  66  92 122 159 199 234 262
#     4   9  17  28  44  68  95 122 157 202 244 275
#     4   9  19  33  47  66  96 128 153 184 236 288
#     4  10  19  30  44  64  93 128 161 195 232 276
#     4  10  19  31  48  69  92 122 158 196 237 284
#
# _framework density 16.727647999999999
#
# number of rings (size 3 to 8) (size 9 to 14) (size 15 to 20)
#    0.000    2.364    1.818    1.636    0.000    6.909 
#    0.000    0.000    0.000    0.545    0.000    1.909 
#    0.000    5.091    0.000    0.000    0.000    0.000 
#
# Total GULP energy -545442.049128 kJ/mol
# GULP energy per Si atom -12396.410207 kJ/mol
# Density = 1.668958 g / cm^3
# Si number density = 16.727648 Si / 1000 Ang^3
#
#
#
# Elastic Constant Matrix: (Units=GPa)
#
#
# Indices 1 2 3 4 5 6 
#
# 1 81.4171 26.1790 63.0642 0.0000 0.0000 0.0000
# 2 26.1790 63.8348 47.6005 0.0000 0.0000 0.0000
# 3 63.0642 47.6005 116.9517 0.0000 0.0000 0.0000
# 4 0.0000 0.0000 0.0000 19.7947 0.0000 0.0000
# 5 0.0000 0.0000 0.0000 0.0000 24.9651 0.0000
# 6 0.0000 0.0000 0.0000 0.0000 0.0000 12.1360
#
#
#
# Elastic Compliance Matrix: (Units=1/GPa)
#
#
# Indices 1 2 3 4 5 6 
#
# 1 0.021095 -0.000243 -0.011276 0.000000 0.000000 0.000000
# 2 -0.000243 0.022494 -0.009025 0.000000 0.000000 0.000000
# 3 -0.011276 -0.009025 0.018304 0.000000 0.000000 0.000000
# 4 0.000000 0.000000 0.000000 0.050519 0.000000 0.000000
# 5 0.000000 0.000000 0.000000 0.000000 0.040056 0.000000
# 6 0.000000 0.000000 0.000000 0.000000 0.000000 0.082400
#
#
# Mechanical properties :
#
#
# Convention : Reuss Voigt Hill
#
# Bulk Modulus (GPa) = 48.06202 59.54342 53.80272
# Shear Modulus (GPa) = 17.67471 19.73648 18.70559
#
# Velocity S-wave (km/s) = 3.25409 3.43865 3.34764
# Velocity P-wave (km/s) = 6.55082 7.17209 6.86848
#
# Compressibility (1/GPa) = 0.02080645
#
# Stress axis : x y z
#
# Youngs Moduli (GPa) = 47.40491 44.45539 54.63221
#
# Poissons Ratio (x) = 0.01078 0.61605
# Poissons Ratio (y) = 0.01150 0.49304
# Poissons Ratio (z) = 0.53455 0.40119
#
# Static dielectric constant tensor:
#      x y z
#    x 3.136110 0.000000 0.000000 
#    y 0.000000 2.867560 0.000000 
#    z 0.000000 0.000000 3.238040 
# 
# 
# High freq. dielectric constant tensor:
#      x y z
#    x 1.615480 0.000000 0.000000 
#    y 0.000000 1.617950 0.000000 
#    z 0.000000 0.000000 1.646100 
# 
# From -- ./inp_files/12648.got.cif
#   From: 2010.06.25/outbox.cif.g09.slc.cpg/sg71_7_cif.got.tgz:12648.got - 2010.06.28 04:59:45.
