data_PCOD8286908
_publ_section_title
;
Structure prediction by ZEFSAII (Michael W. Deem and Ramdas Pophale) SiO2 
 PCOD8286908
Probable space group: I M M M
;
_chemical_formula_sum "Si O2"
_cell_formula_units_Z 80
_cell_length_a 9.350000
_cell_length_b 27.059354
_cell_length_c 16.767596
_cell_angle_alpha 90.000000
_cell_angle_beta 90.000000
_cell_angle_gamma 90.000000
_cell_volume 4242.284954
_symmetry_space_group_name_H-M "I M M M"
_symmetry_group_IT_number 71
_symmetry_cell_setting 'orthorhombic'
loop_
_space_group_symop_operation_xyz
x,y,z
-x,-y,z
x,-y,-z
-x,y,-z
-x,-y,-z
x,y,-z
-x,y,z
x,-y,z
1/2+x,1/2+y,1/2+z
1/2-x,1/2-y,1/2+z
1/2+x,1/2-y,1/2-z
1/2-x,1/2+y,1/2-z
1/2-x,1/2-y,1/2-z
1/2+x,1/2+y,1/2-z
1/2-x,1/2+y,1/2+z
1/2+x,1/2-y,1/2+z
loop_
_atom_site_type_symbol
_atom_site_label
_atom_site_fract_x
_atom_site_fract_y
_atom_site_fract_z
Si Si1 0.842939 0.657407 0.500000
Si Si2 0.159440 0.943873 0.823979
Si Si3 0.669299 0.213522 0.853381
Si Si4 0.831334 0.820273 0.406971
Si Si5 0.170033 0.636442 0.771949
Si Si6 0.751394 0.553972 0.500000
O O1 0.763597 0.677596 0.578611
O O2 0.864262 0.598421 0.500000
O O3 0.000000 0.681600 0.500000
O O4 0.274886 0.909106 0.781103
O O5 0.157826 0.939728 0.920203
O O6 0.000000 0.929555 0.794900
O O7 0.196871 0.000000 0.798885
O O8 0.500000 0.213368 0.857520
O O9 0.725289 0.268541 0.870018
O O10 0.715383 0.188719 0.769848
O O11 0.790792 0.823503 0.500000
O O12 0.746126 0.862891 0.358680
O O13 0.000000 0.827457 0.394597
O O14 0.000000 0.630755 0.781318
O O15 0.828144 0.500000 0.500000
#
# Coordination Sequence:
#
# PCOD8286908 Si02
#       6
#     8  16  16  16  16   8
#     4  10  16  28  49  76 114 150 183 221 263 312
#     4  10  21  37  56  79 110 146 183 222 264 316
#     4   9  17  31  52  77 108 148 185 220 264 313
#     4  10  20  36  58  79 104 143 187 225 268 323
#     4  11  22  35  55  82 112 143 178 224 274 321
#     4  10  19  31  52  79 110 148 188 227 266 308
#
# _framework density 18.857762999999998
#
# number of rings (size 3 to 8) (size 9 to 14) (size 15 to 20)
#    0.000    2.000    3.000    1.500    0.000    2.200 
#    0.000    3.000    0.000    0.600    0.000    4.200 
#    0.000    0.000    0.000    0.000    0.000    0.000 
#
# Total GULP energy -495567.751025 kJ/mol
# GULP energy per Si atom -12389.193776 kJ/mol
# Density = 1.881484 g / cm^3
# Si number density = 18.857763 Si / 1000 Ang^3
#
#
#
# Elastic Constant Matrix: (Units=GPa)
#
#
# Indices 1 2 3 4 5 6 
#
# 1 69.4313 34.0090 52.6067 0.0000 0.0000 0.0000
# 2 34.0090 79.9045 55.8120 0.0000 0.0000 0.0000
# 3 52.6067 55.8120 124.4030 0.0001 -0.0001 0.0000
# 4 0.0000 0.0000 0.0001 23.7385 0.0000 0.0000
# 5 0.0000 0.0000 -0.0001 0.0000 23.8051 0.0000
# 6 0.0000 0.0000 0.0000 0.0000 0.0000 25.7119
#
#
#
# Elastic Compliance Matrix: (Units=1/GPa)
#
#
# Indices 1 2 3 4 5 6 
#
# 1 0.022119 -0.004196 -0.007471 0.000000 0.000000 0.000000
# 2 -0.004196 0.019022 -0.006760 0.000000 0.000000 0.000000
# 3 -0.007471 -0.006760 0.014230 0.000000 0.000000 0.000000
# 4 0.000000 0.000000 0.000000 0.042126 0.000000 0.000000
# 5 0.000000 0.000000 0.000000 0.000000 0.042008 0.000000
# 6 0.000000 0.000000 0.000000 0.000000 0.000000 0.038892
#
#
# Mechanical properties :
#
#
# Convention : Reuss Voigt Hill
#
# Bulk Modulus (GPa) = 54.00125 62.06605 58.03365
# Shear Modulus (GPa) = 22.58118 23.40517 22.99318
#
# Velocity S-wave (km/s) = 3.46417 3.52681 3.49563
# Velocity P-wave (km/s) = 6.68572 7.04050 6.86540
#
# Compressibility (1/GPa) = 0.01851809
#
# Stress axis : x y z
#
# Youngs Moduli (GPa) = 45.21101 52.56946 70.27195
#
# Poissons Ratio (x) = 0.22057 0.52500
# Poissons Ratio (y) = 0.18969 0.47503
# Poissons Ratio (z) = 0.33777 0.35537
#
# Static dielectric constant tensor:
#      x y z
#    x 3.039660 0.000000 0.000000 
#    y 0.000000 3.455930 0.000000 
#    z 0.000000 0.000000 3.516210 
# 
# 
# High freq. dielectric constant tensor:
#      x y z
#    x 1.701260 0.000000 0.000000 
#    y 0.000000 1.723660 0.000000 
#    z 0.000000 0.000000 1.732260 
# 
# From -- ./inp_files/32881.got.cif
#   From: 2010.06.25/outbox.cif.g09.slc.cpg/sg71_17_cif.got.tgz:32881.got - 2010.06.28 04:59:45.
