data_PCOD8286741
_publ_section_title
;
Structure prediction by ZEFSAII (Michael W. Deem and Ramdas Pophale) SiO2 
 PCOD8286741
Probable space group: F D D D
;
_chemical_formula_sum "Si O2"
_cell_formula_units_Z 152
_cell_length_a 24.815244
_cell_length_b 13.876079
_cell_length_c 19.726229
_cell_angle_alpha 90.000000
_cell_angle_beta 90.000000
_cell_angle_gamma 90.000000
_cell_volume 6792.495886
_symmetry_space_group_name_H-M "F D D D"
_symmetry_group_IT_number 70
_space_group.IT_coordinate_system_code '2'
_symmetry_cell_setting 'orthorhombic'
loop_
_space_group_symop_operation_xyz
x,y,z
1/4-x,1/4-y,z
x,1/4-y,1/4-z
1/4-x,y,1/4-z
-x,-y,-z
3/4+x,3/4+y,-z
-x,3/4+y,3/4+z
3/4+x,-y,3/4+z
x,1/2+y,1/2+z
1/4-x,3/4-y,1/2+z
x,3/4-y,3/4-z
1/4-x,1/2+y,3/4-z
-x,1/2-y,1/2-z
3/4+x,1/4+y,1/2-z
-x,1/4+y,1/4+z
3/4+x,1/2-y,1/4+z
1/2+x,y,1/2+z
3/4-x,1/4-y,1/2+z
1/2+x,1/4-y,3/4-z
3/4-x,y,3/4-z
1/2-x,-y,1/2-z
1/4+x,3/4+y,1/2-z
1/2-x,3/4+y,1/4+z
1/4+x,-y,1/4+z
1/2+x,1/2+y,z
3/4-x,3/4-y,z
1/2+x,3/4-y,1/4-z
3/4-x,1/2+y,1/4-z
1/2-x,1/2-y,-z
1/4+x,1/4+y,-z
1/2-x,1/4+y,3/4+z
1/4+x,1/2-y,3/4+z
loop_
_atom_site_type_symbol
_atom_site_label
_atom_site_fract_x
_atom_site_fract_y
_atom_site_fract_z
Si Si1 0.678645 0.805385 0.816006
Si Si2 0.875000 0.875000 0.620081
Si Si3 0.125000 0.625000 0.625000
Si Si4 0.294387 0.737130 0.318859
Si Si5 0.541513 0.967190 0.830713
Si Si6 0.820586 0.184666 0.837822
O O1 0.654148 0.875000 0.875000
O O2 0.656994 0.697147 0.821853
O O3 0.742072 0.802695 0.826605
O O4 0.664683 0.841194 0.740239
O O5 0.830762 0.810645 0.660938
O O6 0.092663 0.561441 0.678131
O O7 0.295854 0.682401 0.246886
O O8 0.299392 0.663392 0.380074
O O9 0.559302 0.875000 0.875000
O O10 0.478593 0.990435 0.845686
O O11 0.875000 0.222831 0.875000
#
# Coordination Sequence:
#
# PCOD8286741 Si02
#       6
#    32  16   8  32  32  32
#     4  11  26  46  70 103 143 186 233 295 352 413
#     4  12  25  44  69 107 137 188 234 292 345 418
#     4  12  22  40  76 104 136 184 236 302 360 416
#     4  11  24  44  68 106 141 182 235 294 352 415
#     4  11  27  46  72 102 144 188 239 290 349 424
#     4  11  26  46  70 104 143 185 235 288 352 422
#
# _framework density 22.377635000000001
#
# number of rings (size 3 to 8) (size 9 to 14) (size 15 to 20)
#    0.000    0.842    4.211    1.263    5.895    7.158 
#    0.000    0.000    0.000    0.000    0.000    0.000 
#    0.000    0.000    0.000    0.000    0.000    0.000 
#
# Total GULP energy -471046.576583 kJ/mol
# GULP energy per Si atom -12395.962542 kJ/mol
# Density = 2.232670 g / cm^3
# Si number density = 22.377635 Si / 1000 Ang^3
#
#
#
# Elastic Constant Matrix: (Units=GPa)
#
#
# Indices 1 2 3 4 5 6 
#
# 1 140.7062 32.6653 49.6662 0.0000 0.0000 0.0000
# 2 32.6653 117.4285 75.8306 0.0000 0.0000 0.0000
# 3 49.6662 75.8306 185.4047 0.0000 0.0000 0.0000
# 4 0.0000 0.0000 0.0000 37.5085 0.0000 0.0000
# 5 0.0000 0.0000 0.0000 0.0000 74.1105 0.0000
# 6 0.0000 0.0000 0.0000 0.0000 0.0000 13.8522
#
#
#
# Elastic Compliance Matrix: (Units=1/GPa)
#
#
# Indices 1 2 3 4 5 6 
#
# 1 0.007959 -0.001138 -0.001667 0.000000 0.000000 0.000000
# 2 -0.001138 0.011735 -0.004495 0.000000 0.000000 0.000000
# 3 -0.001667 -0.004495 0.007678 0.000000 0.000000 0.000000
# 4 0.000000 0.000000 0.000000 0.026661 0.000000 0.000000
# 5 0.000000 0.000000 0.000000 0.000000 0.013493 0.000000
# 6 0.000000 0.000000 0.000000 0.000000 0.000000 0.072191
#
#
# Mechanical properties :
#
#
# Convention : Reuss Voigt Hill
#
# Bulk Modulus (GPa) = 78.28331 84.42929 81.35630
# Shear Modulus (GPa) = 31.53095 44.11939 37.82517
#
# Velocity S-wave (km/s) = 3.75779 4.44507 4.11580
# Velocity P-wave (km/s) = 7.34076 8.00975 7.68254
#
# Compressibility (1/GPa) = 0.01277411
#
# Stress axis : x y z
#
# Youngs Moduli (GPa) = 125.63608 85.21617 130.23382
#
# Poissons Ratio (x) = 0.09695 0.21708
# Poissons Ratio (y) = 0.14294 0.58537
# Poissons Ratio (z) = 0.20942 0.38303
#
# Static dielectric constant tensor:
#      x y z
#    x 4.454910 0.000000 0.000000 
#    y 0.000000 3.973470 0.000000 
#    z 0.000000 0.000000 4.001260 
# 
# 
# High freq. dielectric constant tensor:
#      x y z
#    x 1.913190 0.000000 0.000000 
#    y 0.000000 1.868610 0.000000 
#    z 0.000000 0.000000 1.882460 
# 
# From -- ./inp_files/46750.got.cif
#   From: 2010.03.12/outbox.cif.g09.slc.cpg/sg70_24_cif.got.tgz:46750.got - 2010.04.16 13:46:32.
