data_PCOD8286395
_publ_section_title
;
Structure prediction by ZEFSAII (Michael W. Deem and Ramdas Pophale) SiO2 
 PCOD8286395
Probable space group: F D D D
;
_chemical_formula_sum "Si O2"
_cell_formula_units_Z 144
_cell_length_a 9.628037
_cell_length_b 26.192703
_cell_length_c 23.665089
_cell_angle_alpha 90.000000
_cell_angle_beta 90.000000
_cell_angle_gamma 90.000000
_cell_volume 5967.964226
_symmetry_space_group_name_H-M "F D D D"
_symmetry_group_IT_number 70
_space_group.IT_coordinate_system_code '2'
_symmetry_cell_setting 'orthorhombic'
loop_
_space_group_symop_operation_xyz
x,y,z
1/4-x,1/4-y,z
x,1/4-y,1/4-z
1/4-x,y,1/4-z
-x,-y,-z
3/4+x,3/4+y,-z
-x,3/4+y,3/4+z
3/4+x,-y,3/4+z
x,1/2+y,1/2+z
1/4-x,3/4-y,1/2+z
x,3/4-y,3/4-z
1/4-x,1/2+y,3/4-z
-x,1/2-y,1/2-z
3/4+x,1/4+y,1/2-z
-x,1/4+y,1/4+z
3/4+x,1/2-y,1/4+z
1/2+x,y,1/2+z
3/4-x,1/4-y,1/2+z
1/2+x,1/4-y,3/4-z
3/4-x,y,3/4-z
1/2-x,-y,1/2-z
1/4+x,3/4+y,1/2-z
1/2-x,3/4+y,1/4+z
1/4+x,-y,1/4+z
1/2+x,1/2+y,z
3/4-x,3/4-y,z
1/2+x,3/4-y,1/4-z
3/4-x,1/2+y,1/4-z
1/2-x,1/2-y,-z
1/4+x,1/4+y,-z
1/2-x,1/4+y,3/4+z
1/4+x,1/2-y,3/4+z
loop_
_atom_site_type_symbol
_atom_site_label
_atom_site_fract_x
_atom_site_fract_y
_atom_site_fract_z
Si Si1 0.690474 0.526981 0.344357
Si Si2 0.125000 0.625000 0.044488
Si Si3 0.500097 0.163198 0.475385
Si Si4 0.111776 0.423306 0.344144
Si Si5 0.697698 0.921530 0.550562
O O1 0.548326 0.539738 0.312576
O O2 0.669213 0.469540 0.363932
O O3 0.702912 0.567171 0.396420
O O4 0.826482 0.534150 0.303081
O O5 0.212302 0.583277 0.007004
O O6 0.226101 0.659236 0.083601
O O7 0.625000 0.125000 0.487129
O O8 0.455143 0.187261 0.534627
O O9 0.375606 0.133758 0.443738
O O10 0.040459 0.375000 0.375000
#
# Coordination Sequence:
#
# PCOD8286395 Si02
#       5
#    32  16  32  32  32
#     4  10  22  41  75 103 139 188 240 297 362 426
#     4  10  23  46  72 100 148 186 243 298 364 426
#     4   9  21  42  69 105 139 183 239 293 360 433
#     4  11  25  46  71  98 145 194 235 297 357 435
#     4   9  21  40  70 103 139 182 234 304 358 422
#
# _framework density 24.128831000000002
#
# number of rings (size 3 to 8) (size 9 to 14) (size 15 to 20)
#    0.000    2.222    0.000    0.333    7.778    8.444 
#    0.000   17.778    4.889    0.000    0.000    0.000 
#    0.000    0.000    0.000    0.000    0.000    0.000 
#
# Total GULP energy -446053.383334 kJ/mol
# GULP energy per Si atom -12390.371759 kJ/mol
# Density = 2.407391 g / cm^3
# Si number density = 24.128831 Si / 1000 Ang^3
#
#
#
# Elastic Constant Matrix: (Units=GPa)
#
#
# Indices 1 2 3 4 5 6 
#
# 1 89.4544 56.7472 50.2303 0.0000 0.0000 0.0000
# 2 56.7472 163.2816 84.3599 0.0000 0.0000 0.0000
# 3 50.2303 84.3599 88.1208 0.0000 0.0000 0.0000
# 4 0.0000 0.0000 0.0000 37.5233 0.0000 0.0000
# 5 0.0000 0.0000 0.0000 0.0000 55.8082 0.0000
# 6 0.0000 0.0000 0.0000 0.0000 0.0000 27.9962
#
#
#
# Elastic Compliance Matrix: (Units=1/GPa)
#
#
# Indices 1 2 3 4 5 6 
#
# 1 0.016691 -0.001752 -0.007837 0.000000 0.000000 0.000000
# 2 -0.001752 0.012302 -0.010778 0.000000 0.000000 0.000000
# 3 -0.007837 -0.010778 0.026134 0.000000 0.000000 0.000000
# 4 0.000000 0.000000 0.000000 0.026650 0.000000 0.000000
# 5 0.000000 0.000000 0.000000 0.000000 0.017919 0.000000
# 6 0.000000 0.000000 0.000000 0.000000 0.000000 0.035719
#
#
# Mechanical properties :
#
#
# Convention : Reuss Voigt Hill
#
# Bulk Modulus (GPa) = 69.48273 80.39240 74.93757
# Shear Modulus (GPa) = 27.63264 34.23350 30.93307
#
# Velocity S-wave (km/s) = 3.38777 3.77076 3.58438
# Velocity P-wave (km/s) = 6.64543 7.23522 6.94659
#
# Compressibility (1/GPa) = 0.01439206
#
# Stress axis : x y z
#
# Youngs Moduli (GPa) = 59.91341 81.28875 38.26488
#
# Poissons Ratio (x) = 0.14239 0.29988
# Poissons Ratio (y) = 0.10495 0.41243
# Poissons Ratio (z) = 0.46955 0.87616
#
# Static dielectric constant tensor:
#      x y z
#    x 4.770700 0.000000 0.000000 
#    y 0.000000 4.048890 0.000000 
#    z 0.000000 0.000000 4.481290 
# 
# 
# High freq. dielectric constant tensor:
#      x y z
#    x 1.960670 0.000000 0.000000 
#    y 0.000000 1.934990 0.000000 
#    z 0.000000 0.000000 1.966730 
# 
# From -- ./inp_files/57395.got.cif
#   From: 2010.03.12/outbox.cif.g09.slc.cpg/sg70_29_cif.got.tgz:57395.got - 2010.04.16 13:46:32.
