data_PCOD8286063
_publ_section_title
;
Structure prediction by ZEFSAII (Michael W. Deem and Ramdas Pophale) SiO2 
 PCOD8286063
Probable space group: F D D D
;
_chemical_formula_sum "Si O2"
_cell_formula_units_Z 112
_cell_length_a 27.867821
_cell_length_b 33.951109
_cell_length_c 6.195310
_cell_angle_alpha 90.000000
_cell_angle_beta 90.000000
_cell_angle_gamma 90.000000
_cell_volume 5861.651843
_symmetry_space_group_name_H-M "F D D D"
_symmetry_group_IT_number 70
_space_group.IT_coordinate_system_code '2'
_symmetry_cell_setting 'orthorhombic'
loop_
_space_group_symop_operation_xyz
x,y,z
1/4-x,1/4-y,z
x,1/4-y,1/4-z
1/4-x,y,1/4-z
-x,-y,-z
3/4+x,3/4+y,-z
-x,3/4+y,3/4+z
3/4+x,-y,3/4+z
x,1/2+y,1/2+z
1/4-x,3/4-y,1/2+z
x,3/4-y,3/4-z
1/4-x,1/2+y,3/4-z
-x,1/2-y,1/2-z
3/4+x,1/4+y,1/2-z
-x,1/4+y,1/4+z
3/4+x,1/2-y,1/4+z
1/2+x,y,1/2+z
3/4-x,1/4-y,1/2+z
1/2+x,1/4-y,3/4-z
3/4-x,y,3/4-z
1/2-x,-y,1/2-z
1/4+x,3/4+y,1/2-z
1/2-x,3/4+y,1/4+z
1/4+x,-y,1/4+z
1/2+x,1/2+y,z
3/4-x,3/4-y,z
1/2+x,3/4-y,1/4-z
3/4-x,1/2+y,1/4-z
1/2-x,1/2-y,-z
1/4+x,1/4+y,-z
1/2-x,1/4+y,3/4+z
1/4+x,1/2-y,3/4+z
loop_
_atom_site_type_symbol
_atom_site_label
_atom_site_fract_x
_atom_site_fract_y
_atom_site_fract_z
Si Si1 0.041359 0.125000 0.125000
Si Si2 0.821638 0.251414 0.343813
Si Si3 0.763092 0.806020 0.144218
Si Si4 0.672137 0.570983 0.769276
O O1 0.006783 0.158735 0.221867
O O2 0.076207 0.106364 0.307155
O O3 0.875000 0.234724 0.375000
O O4 0.802601 0.275206 0.552826
O O5 0.787544 0.214137 0.306094
O O6 0.824219 0.278941 0.134656
O O7 0.781629 0.824305 0.366748
O O8 0.625000 0.575510 0.625000
#
# Coordination Sequence:
#
# PCOD8286063 Si02
#       4
#    16  32  32  32
#     4  10  24  37  54  86 122 156 192 236 297 358
#     4  10  20  38  60  88 112 149 197 244 286 344
#     4  10  21  37  59  83 119 152 194 238 289 350
#     4  11  21  37  59  87 122 152 190 240 304 348
#
# _framework density 19.107240999999998
#
# number of rings (size 3 to 8) (size 9 to 14) (size 15 to 20)
#    0.000    1.714    2.857    1.714    0.000    3.429 
#    0.000    0.000    6.286    0.000    0.000    0.000 
#    0.000    0.000    0.000    0.000    0.000    0.000 
#
# Total GULP energy -347205.324915 kJ/mol
# GULP energy per Si atom -12400.190176 kJ/mol
# Density = 1.906375 g / cm^3
# Si number density = 19.107241 Si / 1000 Ang^3
#
#
#
# Elastic Constant Matrix: (Units=GPa)
#
#
# Indices 1 2 3 4 5 6 
#
# 1 141.4989 71.3517 55.0557 0.1435 -0.2101 -0.1992
# 2 71.3517 115.7781 53.8966 -0.2063 0.0408 0.1645
# 3 55.0557 53.8966 113.3214 0.0649 -0.0865 -0.1744
# 4 0.1435 -0.2063 0.0649 30.9962 -0.2154 -0.1311
# 5 -0.2101 0.0408 -0.0865 -0.2154 22.4033 0.2784
# 6 -0.1992 0.1645 -0.1744 -0.1311 0.2784 6.5603
#
#
#
# Elastic Compliance Matrix: (Units=1/GPa)
#
#
# Indices 1 2 3 4 5 6 
#
# 1 0.010857 -0.005441 -0.002686 -0.000079 0.000096 0.000389
# 2 -0.005441 0.013822 -0.003931 0.000122 -0.000083 -0.000610
# 3 -0.002686 -0.003931 0.012000 -0.000037 0.000024 0.000334
# 4 -0.000079 0.000122 -0.000037 0.032268 0.000301 0.000626
# 5 0.000096 -0.000083 0.000024 0.000301 0.044664 -0.001884
# 6 0.000389 -0.000610 0.000334 0.000626 -0.001884 0.152560
#
#
# Mechanical properties :
#
#
# Convention : Reuss Voigt Hill
#
# Bulk Modulus (GPa) = 79.60981 81.24515 80.42748
# Shear Modulus (GPa) = 16.97942 24.67825 20.82884
#
# Velocity S-wave (km/s) = 2.98424 3.59773 3.30525
# Velocity P-wave (km/s) = 7.32321 7.73765 7.53328
#
# Compressibility (1/GPa) = 0.01256127
#
# Stress axis : x y z
#
# Youngs Moduli (GPa) = 92.10801 72.35019 83.33517
#
# Poissons Ratio (x) = 0.39367 0.22384
# Poissons Ratio (y) = 0.50117 0.32761
# Poissons Ratio (z) = 0.24741 0.28443
#
# Static dielectric constant tensor:
#      x y z
#    x 3.295470 0.000300 0.001080 
#    y 0.000300 3.518250 -0.000280 
#    z 0.001080 -0.000280 3.789220 
# 
# 
# High freq. dielectric constant tensor:
#      x y z
#    x 1.717300 0.000030 0.000070 
#    y 0.000030 1.736180 -0.000060 
#    z 0.000070 -0.000060 1.760130 
# 
# From -- ./inp_files/4024.got.cif
#   From: 2010.03.12/outbox.cif.g09.slc.cpg/sg70_3_cif.got.tgz:4024.got - 2010.04.16 13:46:32.
