data_PCOD8286012
_publ_section_title
;
Structure prediction by ZEFSAII (Michael W. Deem and Ramdas Pophale) SiO2 
 PCOD8286012
Probable space group: F D D D
;
_chemical_formula_sum "Si O2"
_cell_formula_units_Z 112
_cell_length_a 9.874977
_cell_length_b 21.462442
_cell_length_c 27.211780
_cell_angle_alpha 90.000000
_cell_angle_beta 90.000000
_cell_angle_gamma 90.000000
_cell_volume 5767.295161
_symmetry_space_group_name_H-M "F D D D"
_symmetry_group_IT_number 70
_space_group.IT_coordinate_system_code '2'
_symmetry_cell_setting 'orthorhombic'
loop_
_space_group_symop_operation_xyz
x,y,z
1/4-x,1/4-y,z
x,1/4-y,1/4-z
1/4-x,y,1/4-z
-x,-y,-z
3/4+x,3/4+y,-z
-x,3/4+y,3/4+z
3/4+x,-y,3/4+z
x,1/2+y,1/2+z
1/4-x,3/4-y,1/2+z
x,3/4-y,3/4-z
1/4-x,1/2+y,3/4-z
-x,1/2-y,1/2-z
3/4+x,1/4+y,1/2-z
-x,1/4+y,1/4+z
3/4+x,1/2-y,1/4+z
1/2+x,y,1/2+z
3/4-x,1/4-y,1/2+z
1/2+x,1/4-y,3/4-z
3/4-x,y,3/4-z
1/2-x,-y,1/2-z
1/4+x,3/4+y,1/2-z
1/2-x,3/4+y,1/4+z
1/4+x,-y,1/4+z
1/2+x,1/2+y,z
3/4-x,3/4-y,z
1/2+x,3/4-y,1/4-z
3/4-x,1/2+y,1/4-z
1/2-x,1/2-y,-z
1/4+x,1/4+y,-z
1/2-x,1/4+y,3/4+z
1/4+x,1/2-y,3/4+z
loop_
_atom_site_type_symbol
_atom_site_label
_atom_site_fract_x
_atom_site_fract_y
_atom_site_fract_z
Si Si1 0.868032 0.595072 0.929328
Si Si2 0.810449 0.235751 0.426128
Si Si3 0.458642 0.737395 0.524768
Si Si4 0.125000 0.625000 0.259173
O O1 0.875000 0.565573 0.875000
O O2 0.790422 0.661091 0.925001
O O3 0.784333 0.550128 0.963330
O O4 0.014933 0.597311 0.953794
O O5 0.875000 0.260140 0.375000
O O6 0.668366 0.270680 0.437738
O O7 0.914270 0.250609 0.469247
O O8 0.556813 0.676987 0.526386
#
# Coordination Sequence:
#
# PCOD8286012 Si02
#       4
#    32  32  32  16
#     4  10  21  34  63  86 115 153 202 246 292 342
#     4   9  20  37  63  89 114 151 207 243 293 351
#     4  10  20  36  60  87 121 154 190 253 295 352
#     4  10  22  38  53  90 124 156 195 242 298 366
#
# _framework density 19.419848999999999
#
# number of rings (size 3 to 8) (size 9 to 14) (size 15 to 20)
#    0.000    2.286    0.000    1.714   12.000    0.000 
#    0.000    0.714    6.286   20.571    0.000    0.000 
#    0.000    0.000    0.000    0.000    0.000    0.000 
#
# Total GULP energy -347109.137464 kJ/mol
# GULP energy per Si atom -12396.754909 kJ/mol
# Density = 1.937565 g / cm^3
# Si number density = 19.419849 Si / 1000 Ang^3
#
#
#
# Elastic Constant Matrix: (Units=GPa)
#
#
# Indices 1 2 3 4 5 6 
#
# 1 84.0096 40.5979 55.7741 0.0000 0.0000 0.0000
# 2 40.5979 68.8624 51.2298 0.0000 0.0000 0.0000
# 3 55.7741 51.2298 133.4742 0.0000 0.0000 0.0000
# 4 0.0000 0.0000 0.0000 -10.7364 0.0000 0.0000
# 5 0.0000 0.0000 0.0000 0.0000 31.4074 0.0000
# 6 0.0000 0.0000 0.0000 0.0000 0.0000 46.1811
#
#
#
# Elastic Compliance Matrix: (Units=1/GPa)
#
#
# Indices 1 2 3 4 5 6 
#
# 1 0.018791 -0.007329 -0.005039 0.000000 0.000000 0.000000
# 2 -0.007329 0.023184 -0.005836 0.000000 0.000000 0.000000
# 3 -0.005039 -0.005836 0.011837 0.000000 0.000000 0.000000
# 4 0.000000 0.000000 0.000000 -0.093141 0.000000 0.000000
# 5 0.000000 0.000000 0.000000 0.000000 0.031840 0.000000
# 6 0.000000 0.000000 0.000000 0.000000 0.000000 0.021654
#
#
# Mechanical properties :
#
#
# Convention : Reuss Voigt Hill
#
# Bulk Modulus (GPa) = 57.45695 64.61666 61.03680
# Shear Modulus (GPa) = 88.69252 22.62004 55.65628
#
# Velocity S-wave (km/s) = 6.76537 3.41660 5.35926
# Velocity P-wave (km/s) = 9.52249 6.99357 8.35428
#
# Compressibility (1/GPa) = 0.01740433
#
# Stress axis : x y z
#
# Youngs Moduli (GPa) = 53.21806 43.13251 84.47736
#
# Poissons Ratio (x) = 0.31614 0.42566
# Poissons Ratio (y) = 0.39006 0.49300
# Poissons Ratio (z) = 0.26815 0.25171
#
# Static dielectric constant tensor:
#      x y z
#    x 3.880810 0.000000 0.000000 
#    y 0.000000 3.435450 0.000000 
#    z 0.000000 0.000000 3.748820 
# 
# 
# High freq. dielectric constant tensor:
#      x y z
#    x 1.769160 0.000000 0.000000 
#    y 0.000000 1.733390 0.000000 
#    z 0.000000 0.000000 1.757150 
# 
# From -- ./inp_files/9465.got.cif
#   From: 2010.03.12/outbox.cif.g09.slc.cpg/sg70_5_cif.got.tgz:9465.got - 2010.04.16 13:46:32.
