data_PCOD8286907
_publ_section_title
;
Structure prediction by ZEFSAII (Michael W. Deem and Ramdas Pophale) SiO2 
 PCOD8286907
Probable space group: I M M M
;
_chemical_formula_sum "Si O2"
_cell_formula_units_Z 96
_cell_length_a 24.395677
_cell_length_b 11.849263
_cell_length_c 19.871405
_cell_angle_alpha 90.000000
_cell_angle_beta 90.000000
_cell_angle_gamma 90.000000
_cell_volume 5744.242798
_symmetry_space_group_name_H-M "I M M M"
_symmetry_group_IT_number 71
_symmetry_cell_setting 'orthorhombic'
loop_
_space_group_symop_operation_xyz
x,y,z
-x,-y,z
x,-y,-z
-x,y,-z
-x,-y,-z
x,y,-z
-x,y,z
x,-y,z
1/2+x,1/2+y,1/2+z
1/2-x,1/2-y,1/2+z
1/2+x,1/2-y,1/2-z
1/2-x,1/2+y,1/2-z
1/2-x,1/2-y,1/2-z
1/2+x,1/2+y,1/2-z
1/2-x,1/2+y,1/2+z
1/2+x,1/2-y,1/2+z
loop_
_atom_site_type_symbol
_atom_site_label
_atom_site_fract_x
_atom_site_fract_y
_atom_site_fract_z
Si Si1 0.734313 0.788547 0.920824
Si Si2 0.641148 0.370559 0.079161
Si Si3 0.062870 0.747538 0.319357
Si Si4 0.060777 0.500000 0.357816
Si Si5 0.848904 0.868049 0.922949
Si Si6 0.671376 0.000000 0.077457
Si Si7 0.937369 0.868765 0.814483
O O1 0.703076 0.671836 0.903336
O O2 0.797003 0.795455 0.894772
O O3 0.697944 0.889236 0.888365
O O4 0.737608 0.807007 0.000000
O O5 0.636861 0.500000 0.101622
O O6 0.596715 0.296205 0.118028
O O7 0.629250 0.354814 0.000000
O O8 0.068617 0.612137 0.312766
O O9 0.084569 0.799922 0.249745
O O10 0.000000 0.783875 0.331343
O O11 0.105805 0.500000 0.416128
O O12 0.000000 0.500000 0.390991
O O13 0.901378 0.834711 0.878878
O O14 0.833851 0.000000 0.916202
O O15 0.863255 0.837678 0.000000
O O16 0.686241 0.000000 0.000000
O O17 0.000000 0.837227 0.831831
O O18 0.931218 0.000000 0.797107
#
# Coordination Sequence:
#
# PCOD8286907 Si02
#       7
#    16  16  16   8  16   8  16
#     4   9  16  28  47  70  96 125 157 193 238 286
#     4  10  20  32  48  69  96 131 165 198 234 276
#     4  10  20  34  50  68  94 127 163 201 240 284
#     4  10  20  31  48  70  91 123 165 207 243 272
#     4   9  16  28  50  78 101 122 154 193 235 287
#     4  10  16  27  48  70  93 123 155 197 247 285
#     4   9  18  32  50  72  99 130 156 187 238 290
#
# _framework density 16.712385000000001
#
# number of rings (size 3 to 8) (size 9 to 14) (size 15 to 20)
#    0.000    2.500    2.500    0.500    0.000    1.833 
#    0.000    5.000    1.833    0.000    0.000    0.000 
#    0.000    3.333    0.000    0.000    0.000    0.000 
#
# Total GULP energy -594943.993332 kJ/mol
# GULP energy per Si atom -12394.666528 kJ/mol
# Density = 1.667435 g / cm^3
# Si number density = 16.712385 Si / 1000 Ang^3
#
#
#
# Elastic Constant Matrix: (Units=GPa)
#
#
# Indices 1 2 3 4 5 6 
#
# 1 102.3906 42.7907 46.3230 0.0000 0.0000 0.0000
# 2 42.7907 90.7357 37.8777 0.0000 0.0000 0.0000
# 3 46.3230 37.8777 64.3698 0.0000 0.0000 0.0000
# 4 0.0000 0.0000 0.0000 15.0559 0.0000 0.0000
# 5 0.0000 0.0000 0.0000 0.0000 13.3669 0.0000
# 6 0.0000 0.0000 0.0000 0.0000 0.0000 21.0920
#
#
#
# Elastic Compliance Matrix: (Units=1/GPa)
#
#
# Indices 1 2 3 4 5 6 
#
# 1 0.015260 -0.003463 -0.008944 0.000000 0.000000 0.000000
# 2 -0.003463 0.015396 -0.006567 0.000000 0.000000 0.000000
# 3 -0.008944 -0.006567 0.025836 0.000000 0.000000 0.000000
# 4 0.000000 0.000000 0.000000 0.066419 0.000000 0.000000
# 5 0.000000 0.000000 0.000000 0.000000 0.074812 0.000000
# 6 0.000000 0.000000 0.000000 0.000000 0.000000 0.047411
#
#
# Mechanical properties :
#
#
# Convention : Reuss Voigt Hill
#
# Bulk Modulus (GPa) = 53.92775 56.83100 55.37937
# Shear Modulus (GPa) = 17.28525 18.60328 17.94427
#
# Velocity S-wave (km/s) = 3.21951 3.34000 3.28031
# Velocity P-wave (km/s) = 6.79400 6.99666 6.89608
#
# Compressibility (1/GPa) = 0.01854333
#
# Stress axis : x y z
#
# Youngs Moduli (GPa) = 65.53005 64.95328 38.70531
#
# Poissons Ratio (x) = 0.22493 0.34618
# Poissons Ratio (y) = 0.22693 0.25419
# Poissons Ratio (z) = 0.58611 0.42657
#
# Static dielectric constant tensor:
#      x y z
#    x 3.275800 0.000000 0.000000 
#    y 0.000000 3.206450 0.000000 
#    z 0.000000 0.000000 2.861660 
# 
# 
# High freq. dielectric constant tensor:
#      x y z
#    x 1.650390 0.000000 0.000000 
#    y 0.000000 1.636580 0.000000 
#    z 0.000000 0.000000 1.608330 
# 
# From -- ./inp_files/48789.got.cif
#   From: 2010.06.25/outbox.cif.g09.slc.cpg/sg71_25_cif.got.tgz:48789.got - 2010.06.28 04:59:45.
