data_PCOD8286379
_publ_section_title
;
Structure prediction by ZEFSAII (Michael W. Deem and Ramdas Pophale) SiO2 
 PCOD8286379
Probable space group: F D D D
;
_chemical_formula_sum "Si O2"
_cell_formula_units_Z 160
_cell_length_a 28.846066
_cell_length_b 14.630418
_cell_length_c 18.612506
_cell_angle_alpha 90.000000
_cell_angle_beta 90.000000
_cell_angle_gamma 90.000000
_cell_volume 7855.035967
_symmetry_space_group_name_H-M "F D D D"
_symmetry_group_IT_number 70
_space_group.IT_coordinate_system_code '2'
_symmetry_cell_setting 'orthorhombic'
loop_
_space_group_symop_operation_xyz
x,y,z
1/4-x,1/4-y,z
x,1/4-y,1/4-z
1/4-x,y,1/4-z
-x,-y,-z
3/4+x,3/4+y,-z
-x,3/4+y,3/4+z
3/4+x,-y,3/4+z
x,1/2+y,1/2+z
1/4-x,3/4-y,1/2+z
x,3/4-y,3/4-z
1/4-x,1/2+y,3/4-z
-x,1/2-y,1/2-z
3/4+x,1/4+y,1/2-z
-x,1/4+y,1/4+z
3/4+x,1/2-y,1/4+z
1/2+x,y,1/2+z
3/4-x,1/4-y,1/2+z
1/2+x,1/4-y,3/4-z
3/4-x,y,3/4-z
1/2-x,-y,1/2-z
1/4+x,3/4+y,1/2-z
1/2-x,3/4+y,1/4+z
1/4+x,-y,1/4+z
1/2+x,1/2+y,z
3/4-x,3/4-y,z
1/2+x,3/4-y,1/4-z
3/4-x,1/2+y,1/4-z
1/2-x,1/2-y,-z
1/4+x,1/4+y,-z
1/2-x,1/4+y,3/4+z
1/4+x,1/2-y,3/4+z
loop_
_atom_site_type_symbol
_atom_site_label
_atom_site_fract_x
_atom_site_fract_y
_atom_site_fract_z
Si Si1 0.438089 0.128217 0.874017
Si Si2 0.680505 0.375000 0.875000
Si Si3 0.870999 0.562345 0.761089
Si Si4 0.125000 0.125000 0.813198
Si Si5 0.424072 0.926993 0.310387
Si Si6 0.538982 0.680655 0.904679
O O1 0.419183 0.050485 0.928537
O O2 0.415861 0.113354 0.795093
O O3 0.418639 0.219404 0.912530
O O4 0.493152 0.123170 0.868827
O O5 0.647030 0.377776 0.805916
O O6 0.713683 0.463095 0.881282
O O7 0.884636 0.461520 0.736528
O O8 0.080991 0.133651 0.864160
O O9 0.451001 0.875000 0.375000
O O10 0.375000 0.875000 0.297969
O O11 0.455132 0.921374 0.239783
#
# Coordination Sequence:
#
# PCOD8286379 Si02
#       6
#    32  16  32  16  32  32
#     4  11  25  42  70  99 131 175 230 269 338 408
#     4  10  22  42  70  91 138 175 218 276 338 396
#     4  10  22  41  63  98 130 180 219 275 332 396
#     4  10  24  39  65  98 140 176 222 282 332 391
#     4  11  23  43  70  93 132 177 217 274 342 394
#     4  11  24  43  67 102 133 177 225 276 340 397
#
# _framework density 20.369098999999999
#
# number of rings (size 3 to 8) (size 9 to 14) (size 15 to 20)
#    0.000    1.400    3.000    2.400    2.800    7.200 
#    1.800    0.000    0.000    0.000    0.000    0.000 
#    0.000    0.000    0.000    0.000    0.000    0.000 
#
# Total GULP energy -495880.244368 kJ/mol
# GULP energy per Si atom -12397.006109 kJ/mol
# Density = 2.032274 g / cm^3
# Si number density = 20.369099 Si / 1000 Ang^3
#
#
#
# Elastic Constant Matrix: (Units=GPa)
#
#
# Indices 1 2 3 4 5 6 
#
# 1 144.4916 46.9021 51.1707 0.0000 0.0000 0.0000
# 2 46.9021 104.1430 37.4934 0.0000 0.0000 0.0000
# 3 51.1707 37.4934 133.1185 0.0000 0.0000 0.0000
# 4 0.0000 0.0000 0.0000 30.1274 0.0000 0.0000
# 5 0.0000 0.0000 0.0000 0.0000 13.8881 0.0000
# 6 0.0000 0.0000 0.0000 0.0000 0.0000 21.4778
#
#
#
# Elastic Compliance Matrix: (Units=1/GPa)
#
#
# Indices 1 2 3 4 5 6 
#
# 1 0.008807 -0.003058 -0.002524 0.000000 0.000000 0.000000
# 2 -0.003058 0.011747 -0.002133 0.000000 0.000000 0.000000
# 3 -0.002524 -0.002133 0.009083 0.000000 0.000000 0.000000
# 4 0.000000 0.000000 0.000000 0.033192 0.000000 0.000000
# 5 0.000000 0.000000 0.000000 0.000000 0.072004 0.000000
# 6 0.000000 0.000000 0.000000 0.000000 0.000000 0.046560
#
#
# Mechanical properties :
#
#
# Convention : Reuss Voigt Hill
#
# Bulk Modulus (GPa) = 70.38639 72.54283 71.46461
# Shear Modulus (GPa) = 24.80648 29.51113 27.15880
#
# Velocity S-wave (km/s) = 3.49355 3.81046 3.65545
# Velocity P-wave (km/s) = 7.13468 7.41964 7.27855
#
# Compressibility (1/GPa) = 0.01420729
#
# Stress axis : x y z
#
# Youngs Moduli (GPa) = 113.54193 85.12612 110.09203
#
# Poissons Ratio (x) = 0.26029 0.27791
# Poissons Ratio (y) = 0.34718 0.23486
# Poissons Ratio (z) = 0.28662 0.18160
#
# Static dielectric constant tensor:
#      x y z
#    x 3.372900 0.000000 0.000000 
#    y 0.000000 3.799930 0.000000 
#    z 0.000000 0.000000 4.073410 
# 
# 
# High freq. dielectric constant tensor:
#      x y z
#    x 1.772970 0.000000 0.000000 
#    y 0.000000 1.800070 0.000000 
#    z 0.000000 0.000000 1.819490 
# 
# From -- ./inp_files/30914.got.cif
#   From: 2010.03.12/outbox.cif.g09.slc.cpg/sg70_16_cif.got.tgz:30914.got - 2010.04.16 13:46:32.
