data_PCOD8286220
_publ_section_title
;
Structure prediction by ZEFSAII (Michael W. Deem and Ramdas Pophale) SiO2 
 PCOD8286220
Probable space group: F D D D
;
_chemical_formula_sum "Si O2"
_cell_formula_units_Z 144
_cell_length_a 32.068877
_cell_length_b 6.948537
_cell_length_c 31.853477
_cell_angle_alpha 90.000000
_cell_angle_beta 90.000000
_cell_angle_gamma 90.000000
_cell_volume 7097.966928
_symmetry_space_group_name_H-M "F D D D"
_symmetry_group_IT_number 70
_space_group.IT_coordinate_system_code '2'
_symmetry_cell_setting 'orthorhombic'
loop_
_space_group_symop_operation_xyz
x,y,z
1/4-x,1/4-y,z
x,1/4-y,1/4-z
1/4-x,y,1/4-z
-x,-y,-z
3/4+x,3/4+y,-z
-x,3/4+y,3/4+z
3/4+x,-y,3/4+z
x,1/2+y,1/2+z
1/4-x,3/4-y,1/2+z
x,3/4-y,3/4-z
1/4-x,1/2+y,3/4-z
-x,1/2-y,1/2-z
3/4+x,1/4+y,1/2-z
-x,1/4+y,1/4+z
3/4+x,1/2-y,1/4+z
1/2+x,y,1/2+z
3/4-x,1/4-y,1/2+z
1/2+x,1/4-y,3/4-z
3/4-x,y,3/4-z
1/2-x,-y,1/2-z
1/4+x,3/4+y,1/2-z
1/2-x,3/4+y,1/4+z
1/4+x,-y,1/4+z
1/2+x,1/2+y,z
3/4-x,3/4-y,z
1/2+x,3/4-y,1/4-z
3/4-x,1/2+y,1/4-z
1/2-x,1/2-y,-z
1/4+x,1/4+y,-z
1/2-x,1/4+y,3/4+z
1/4+x,1/2-y,3/4+z
loop_
_atom_site_type_symbol
_atom_site_label
_atom_site_fract_x
_atom_site_fract_y
_atom_site_fract_z
Si Si1 0.795716 0.863850 0.162068
Si Si2 0.277427 0.455591 0.071011
Si Si3 0.531709 0.639107 0.171994
Si Si4 0.375000 0.375000 0.534429
Si Si5 0.835452 0.747324 0.753972
O O1 0.801452 0.867949 0.111647
O O2 0.763625 0.703668 0.176265
O O3 0.838890 0.802991 0.184111
O O4 0.774666 0.064502 0.176018
O O5 0.230428 0.362828 0.066764
O O6 0.304386 0.412855 0.030010
O O7 0.550189 0.625000 0.125000
O O8 0.563686 0.523978 0.201037
O O9 0.397684 0.532155 0.504882
O O10 0.875000 0.875000 0.754221
#
# Coordination Sequence:
#
# PCOD8286220 Si02
#       5
#    32  32  32  16  32
#     4   9  19  36  56  85 116 149 185 233 296 353
#     4   9  19  35  57  84 111 148 191 233 290 353
#     4  10  21  38  58  78 110 155 197 242 285 338
#     4  10  22  36  56  89 120 150 179 240 294 352
#     4  11  23  36  55  85 115 151 196 239 287 339
#
# _framework density 20.287500000000001
#
# number of rings (size 3 to 8) (size 9 to 14) (size 15 to 20)
#    0.000    2.222    0.000    2.000    1.556    5.778 
#    8.000    0.000    0.000    1.333    0.000    0.000 
#    0.000    0.000    0.000    0.000    0.000    0.000 
#
# Total GULP energy -446033.241060 kJ/mol
# GULP energy per Si atom -12389.812252 kJ/mol
# Density = 2.024132 g / cm^3
# Si number density = 20.287500 Si / 1000 Ang^3
#
#
#
# Elastic Constant Matrix: (Units=GPa)
#
#
# Indices 1 2 3 4 5 6 
#
# 1 82.1302 43.2212 76.1069 -0.0060 0.0043 -0.0086
# 2 43.2212 68.4083 46.3767 -0.0131 0.0118 0.0097
# 3 76.1069 46.3767 151.2519 0.0003 0.0007 -0.0040
# 4 -0.0060 -0.0131 0.0003 20.9009 0.0027 0.0007
# 5 0.0043 0.0118 0.0007 0.0027 33.5983 0.0003
# 6 -0.0086 0.0097 -0.0040 0.0007 0.0003 33.5858
#
#
#
# Elastic Compliance Matrix: (Units=1/GPa)
#
#
# Indices 1 2 3 4 5 6 
#
# 1 0.027369 -0.010044 -0.010692 0.000002 0.000000 0.000009
# 2 -0.010044 0.022140 -0.001735 0.000011 -0.000006 -0.000009
# 3 -0.010692 -0.001735 0.012523 -0.000004 0.000002 -0.000001
# 4 0.000002 0.000011 -0.000004 0.047845 -0.000004 -0.000001
# 5 0.000000 -0.000006 0.000002 -0.000004 0.029763 0.000000
# 6 0.000009 -0.000009 -0.000001 -0.000001 0.000000 0.029774
#
#
# Mechanical properties :
#
#
# Convention : Reuss Voigt Hill
#
# Bulk Modulus (GPa) = 58.50827 70.35557 64.43192
# Shear Modulus (GPa) = 22.72175 26.68937 24.70556
#
# Velocity S-wave (km/s) = 3.35025 3.63100 3.49345
# Velocity P-wave (km/s) = 6.62327 7.23418 6.93546
#
# Compressibility (1/GPa) = 0.01709160
#
# Stress axis : x y z
#
# Youngs Moduli (GPa) = 36.53736 45.16742 79.85024
#
# Poissons Ratio (x) = 0.45364 0.85377
# Poissons Ratio (y) = 0.36697 0.13852
# Poissons Ratio (z) = 0.39066 0.07835
#
# Static dielectric constant tensor:
#      x y z
#    x 3.469320 0.000000 0.000000 
#    y 0.000000 3.834400 0.000000 
#    z 0.000000 0.000000 3.559880 
# 
# 
# High freq. dielectric constant tensor:
#      x y z
#    x 1.768620 0.000000 0.000000 
#    y 0.000000 1.804080 0.000000 
#    z 0.000000 0.000000 1.794150 
# 
# From -- ./inp_files/68776.got.cif
#   From: 2010.03.12/outbox.cif.g09.slc.cpg/sg70_35_cif.got.tgz:68776.got - 2010.04.16 13:46:32.
