data_PCOD8286322
_publ_section_title
;
Structure prediction by ZEFSAII (Michael W. Deem and Ramdas Pophale) SiO2 
 PCOD8286322
Probable space group: F D D D
;
_chemical_formula_sum "Si O2"
_cell_formula_units_Z 168
_cell_length_a 24.173863
_cell_length_b 25.918174
_cell_length_c 14.066612
_cell_angle_alpha 90.000000
_cell_angle_beta 90.000000
_cell_angle_gamma 90.000000
_cell_volume 8813.328666
_symmetry_space_group_name_H-M "F D D D"
_symmetry_group_IT_number 70
_space_group.IT_coordinate_system_code '2'
_symmetry_cell_setting 'orthorhombic'
loop_
_space_group_symop_operation_xyz
x,y,z
1/4-x,1/4-y,z
x,1/4-y,1/4-z
1/4-x,y,1/4-z
-x,-y,-z
3/4+x,3/4+y,-z
-x,3/4+y,3/4+z
3/4+x,-y,3/4+z
x,1/2+y,1/2+z
1/4-x,3/4-y,1/2+z
x,3/4-y,3/4-z
1/4-x,1/2+y,3/4-z
-x,1/2-y,1/2-z
3/4+x,1/4+y,1/2-z
-x,1/4+y,1/4+z
3/4+x,1/2-y,1/4+z
1/2+x,y,1/2+z
3/4-x,1/4-y,1/2+z
1/2+x,1/4-y,3/4-z
3/4-x,y,3/4-z
1/2-x,-y,1/2-z
1/4+x,3/4+y,1/2-z
1/2-x,3/4+y,1/4+z
1/4+x,-y,1/4+z
1/2+x,1/2+y,z
3/4-x,3/4-y,z
1/2+x,3/4-y,1/4-z
3/4-x,1/2+y,1/4-z
1/2-x,1/2-y,-z
1/4+x,1/4+y,-z
1/2-x,1/4+y,3/4+z
1/4+x,1/2-y,3/4+z
loop_
_atom_site_type_symbol
_atom_site_label
_atom_site_fract_x
_atom_site_fract_y
_atom_site_fract_z
Si Si1 0.580807 0.991285 0.421004
Si Si2 0.560150 0.613856 0.317950
Si Si3 0.125000 0.125000 0.625000
Si Si4 0.053042 0.005147 0.262424
Si Si5 0.723894 0.187888 0.575173
Si Si6 0.050198 0.687026 0.981270
O O1 0.540513 0.941750 0.414004
O O2 0.639633 0.975383 0.465121
O O3 0.548461 0.034374 0.480599
O O4 0.587118 0.017830 0.317238
O O5 0.625000 0.625000 0.325236
O O6 0.546840 0.553451 0.334910
O O7 0.539115 0.628399 0.208450
O O8 0.530493 0.643950 0.404418
O O9 0.085991 0.161625 0.563418
O O10 0.057799 0.032914 0.159841
O O11 0.004905 0.963470 0.274145
#
# Coordination Sequence:
#
# PCOD8286322 Si02
#       6
#    32  32   8  32  32  32
#     4   9  17  33  49  83 118 137 179 234 269 343
#     4  11  19  35  54  85 118 142 186 238 269 347
#     4  12  20  44  64  72  98 152 204 244 278 340
#     4  11  19  32  59  84 111 149 185 224 285 347
#     4   9  18  27  51  84 113 149 172 209 288 340
#     4  10  22  37  60  83 106 148 194 243 289 324
#
# _framework density 19.062037
#
# number of rings (size 3 to 8) (size 9 to 14) (size 15 to 20)
#    0.000    1.905    4.762    2.286    0.000    0.762 
#    0.000    3.810   12.571    0.000    0.000    0.000 
#    0.000    0.000    0.000    0.000    0.000    0.000 
#
# Total GULP energy -520373.571626 kJ/mol
# GULP energy per Si atom -12389.846943 kJ/mol
# Density = 1.901865 g / cm^3
# Si number density = 19.062037 Si / 1000 Ang^3
#
#
#
# Elastic Constant Matrix: (Units=GPa)
#
#
# Indices 1 2 3 4 5 6 
#
# 1 149.2748 59.2575 49.7824 0.0000 0.0000 0.0000
# 2 59.2575 69.2203 20.2782 0.0000 0.0000 0.0000
# 3 49.7824 20.2782 72.0607 0.0000 0.0000 0.0000
# 4 0.0000 0.0000 0.0000 19.8777 0.0000 0.0000
# 5 0.0000 0.0000 0.0000 0.0000 25.0513 0.0000
# 6 0.0000 0.0000 0.0000 0.0000 0.0000 31.8600
#
#
#
# Elastic Compliance Matrix: (Units=1/GPa)
#
#
# Indices 1 2 3 4 5 6 
#
# 1 0.012100 -0.008620 -0.005933 0.000000 0.000000 0.000000
# 2 -0.008620 0.021886 -0.000204 0.000000 0.000000 0.000000
# 3 -0.005933 -0.000204 0.018033 0.000000 0.000000 0.000000
# 4 0.000000 0.000000 0.000000 0.050308 0.000000 0.000000
# 5 0.000000 0.000000 0.000000 0.000000 0.039918 0.000000
# 6 0.000000 0.000000 0.000000 0.000000 0.000000 0.031387
#
#
# Mechanical properties :
#
#
# Convention : Reuss Voigt Hill
#
# Bulk Modulus (GPa) = 44.43472 61.02133 52.72802
# Shear Modulus (GPa) = 23.73637 26.10696 24.92167
#
# Velocity S-wave (km/s) = 3.53259 3.70480 3.61972
# Velocity P-wave (km/s) = 6.32457 7.09804 6.72244
#
# Compressibility (1/GPa) = 0.02250493
#
# Stress axis : x y z
#
# Youngs Moduli (GPa) = 82.64722 45.69210 55.45263
#
# Poissons Ratio (x) = 0.39387 0.32901
# Poissons Ratio (y) = 0.71242 0.01129
# Poissons Ratio (z) = 0.49036 0.00931
#
# Static dielectric constant tensor:
#      x y z
#    x 3.390870 0.000000 0.000000 
#    y 0.000000 3.720040 0.000000 
#    z 0.000000 0.000000 3.512200 
# 
# 
# High freq. dielectric constant tensor:
#      x y z
#    x 1.720910 0.000000 0.000000 
#    y 0.000000 1.731990 0.000000 
#    z 0.000000 0.000000 1.733320 
# 
# From -- ./inp_files/27802.got.cif
#   From: 2010.03.12/outbox.cif.g09.slc.cpg/sg70_14_cif.got.tgz:27802.got - 2010.04.16 13:46:32.
