data_PCOD8286749
_publ_section_title
;
Structure prediction by ZEFSAII (Michael W. Deem and Ramdas Pophale) SiO2 
 PCOD8286749
Probable space group: F D D D
;
_chemical_formula_sum "Si O2"
_cell_formula_units_Z 96
_cell_length_a 23.392118
_cell_length_b 7.753154
_cell_length_c 23.392118
_cell_angle_alpha 90.000000
_cell_angle_beta 90.000000
_cell_angle_gamma 90.000000
_cell_volume 4242.457521
_symmetry_space_group_name_H-M "F D D D"
_symmetry_group_IT_number 70
_space_group.IT_coordinate_system_code '2'
_symmetry_cell_setting 'orthorhombic'
loop_
_space_group_symop_operation_xyz
x,y,z
1/4-x,1/4-y,z
x,1/4-y,1/4-z
1/4-x,y,1/4-z
-x,-y,-z
3/4+x,3/4+y,-z
-x,3/4+y,3/4+z
3/4+x,-y,3/4+z
x,1/2+y,1/2+z
1/4-x,3/4-y,1/2+z
x,3/4-y,3/4-z
1/4-x,1/2+y,3/4-z
-x,1/2-y,1/2-z
3/4+x,1/4+y,1/2-z
-x,1/4+y,1/4+z
3/4+x,1/2-y,1/4+z
1/2+x,y,1/2+z
3/4-x,1/4-y,1/2+z
1/2+x,1/4-y,3/4-z
3/4-x,y,3/4-z
1/2-x,-y,1/2-z
1/4+x,3/4+y,1/2-z
1/2-x,3/4+y,1/4+z
1/4+x,-y,1/4+z
1/2+x,1/2+y,z
3/4-x,3/4-y,z
1/2+x,3/4-y,1/4-z
3/4-x,1/2+y,1/4-z
1/2-x,1/2-y,-z
1/4+x,1/4+y,-z
1/2-x,1/4+y,3/4+z
1/4+x,1/2-y,3/4+z
loop_
_atom_site_type_symbol
_atom_site_label
_atom_site_fract_x
_atom_site_fract_y
_atom_site_fract_z
Si Si1 0.353502 0.566326 0.290905
Si Si2 0.459095 0.183674 0.853502
Si Si3 0.571813 0.250000 0.428187
O O1 0.375000 0.375000 0.278119
O O2 0.407141 0.688063 0.307956
O O3 0.307956 0.561936 0.342859
O O4 0.321896 0.638444 0.235652
O O5 0.471881 0.375000 0.875000
O O6 0.514348 0.111556 0.821896
O O7 0.625000 0.125000 0.425240
O O8 0.574760 0.375000 0.375000
#
# Coordination Sequence:
#
# PCOD8286749 Si02
#       3
#    32  32  32
#     4  11  24  45  70  95 130 176 220 263 322 395
#     4  11  24  45  70  95 130 176 220 263 322 395
#     4  12  26  42  66 100 134 170 216 274 328 376
#
# _framework density 22.628392000000002
#
# number of rings (size 3 to 8) (size 9 to 14) (size 15 to 20)
#    0.000    0.667    0.000   10.000    0.000   13.333 
#    0.000    0.000    0.000    0.000    0.000    0.000 
#    0.000    0.000    0.000    0.000    0.000    0.000 
#
# Total GULP energy -297806.914757 kJ/mol
# GULP energy per Si atom -12408.621448 kJ/mol
# Density = 2.257689 g / cm^3
# Si number density = 22.628392 Si / 1000 Ang^3
#
#
#
# Elastic Constant Matrix: (Units=GPa)
#
#
# Indices 1 2 3 4 5 6 
#
# 1 141.5501 51.7616 72.0116 0.0001 0.0000 0.0001
# 2 51.7616 137.3581 51.7616 0.0002 0.0000 0.0000
# 3 72.0116 51.7616 141.5501 0.0000 0.0000 0.0000
# 4 0.0001 0.0002 0.0000 18.4270 0.0000 -0.0001
# 5 0.0000 0.0000 0.0000 0.0000 21.3184 0.0000
# 6 0.0001 0.0000 0.0000 -0.0001 0.0000 18.4274
#
#
#
# Elastic Compliance Matrix: (Units=1/GPa)
#
#
# Indices 1 2 3 4 5 6 
#
# 1 0.010055 -0.002159 -0.004326 0.000000 0.000000 0.000000
# 2 -0.002159 0.008907 -0.002159 0.000000 0.000000 0.000000
# 3 -0.004326 -0.002159 0.010055 0.000000 0.000000 0.000000
# 4 0.000000 0.000000 0.000000 0.054268 0.000000 0.000000
# 5 0.000000 0.000000 0.000000 0.000000 0.046908 0.000000
# 6 0.000000 0.000000 0.000000 0.000000 0.000000 0.054267
#
#
# Mechanical properties :
#
#
# Convention : Reuss Voigt Hill
#
# Bulk Modulus (GPa) = 85.25325 85.72531 85.48928
# Shear Modulus (GPa) = 24.31233 27.96279 26.13756
#
# Velocity S-wave (km/s) = 3.28139 3.51912 3.40233
# Velocity P-wave (km/s) = 7.21899 7.38096 7.30042
#
# Compressibility (1/GPa) = 0.01172976
#
# Stress axis : x y z
#
# Youngs Moduli (GPa) = 99.45537 112.26689 99.45530
#
# Poissons Ratio (x) = 0.24237 0.43022
# Poissons Ratio (y) = 0.21471 0.21471
# Poissons Ratio (z) = 0.43022 0.24237
#
# Static dielectric constant tensor:
#      x y z
#    x 4.236650 0.000000 0.000000 
#    y 0.000000 4.150660 0.000000 
#    z 0.000000 0.000000 4.236650 
# 
# 
# High freq. dielectric constant tensor:
#      x y z
#    x 1.900100 0.000000 0.000000 
#    y 0.000000 1.907600 0.000000 
#    z 0.000000 0.000000 1.900100 
# 
# From -- ./inp_files/53300.got.cif
#   From: 2010.03.12/outbox.cif.g09.slc.cpg/sg70_27_cif.got.tgz:53300.got - 2010.04.16 13:46:32.
