data_PCOD8286367
_publ_section_title
;
Structure prediction by ZEFSAII (Michael W. Deem and Ramdas Pophale) SiO2 
 PCOD8286367
Probable space group: F D D D
;
_chemical_formula_sum "Si O2"
_cell_formula_units_Z 208
_cell_length_a 21.883180
_cell_length_b 16.198744
_cell_length_c 29.596158
_cell_angle_alpha 90.000000
_cell_angle_beta 90.000000
_cell_angle_gamma 90.000000
_cell_volume 10491.246997
_symmetry_space_group_name_H-M "F D D D"
_symmetry_group_IT_number 70
_space_group.IT_coordinate_system_code '2'
_symmetry_cell_setting 'orthorhombic'
loop_
_space_group_symop_operation_xyz
x,y,z
1/4-x,1/4-y,z
x,1/4-y,1/4-z
1/4-x,y,1/4-z
-x,-y,-z
3/4+x,3/4+y,-z
-x,3/4+y,3/4+z
3/4+x,-y,3/4+z
x,1/2+y,1/2+z
1/4-x,3/4-y,1/2+z
x,3/4-y,3/4-z
1/4-x,1/2+y,3/4-z
-x,1/2-y,1/2-z
3/4+x,1/4+y,1/2-z
-x,1/4+y,1/4+z
3/4+x,1/2-y,1/4+z
1/2+x,y,1/2+z
3/4-x,1/4-y,1/2+z
1/2+x,1/4-y,3/4-z
3/4-x,y,3/4-z
1/2-x,-y,1/2-z
1/4+x,3/4+y,1/2-z
1/2-x,3/4+y,1/4+z
1/4+x,-y,1/4+z
1/2+x,1/2+y,z
3/4-x,3/4-y,z
1/2+x,3/4-y,1/4-z
3/4-x,1/2+y,1/4-z
1/2-x,1/2-y,-z
1/4+x,1/4+y,-z
1/2-x,1/4+y,3/4+z
1/4+x,1/2-y,3/4+z
loop_
_atom_site_type_symbol
_atom_site_label
_atom_site_fract_x
_atom_site_fract_y
_atom_site_fract_z
Si Si1 0.353727 0.138385 0.941838
Si Si2 0.601616 0.040941 0.075209
Si Si3 0.688644 0.172870 0.288967
Si Si4 0.726433 0.875000 0.875000
Si Si5 0.150229 0.357461 0.789089
Si Si6 0.532809 0.799819 0.110320
Si Si7 0.239383 0.327912 0.468637
O O1 0.409048 0.193633 0.923060
O O2 0.296839 0.151537 0.907501
O O3 0.375638 0.042942 0.948067
O O4 0.336965 0.162474 0.993618
O O5 0.625000 0.125000 0.049549
O O6 0.625000 0.038496 0.125000
O O7 0.528367 0.052219 0.075768
O O8 0.625000 0.125000 0.291720
O O9 0.678372 0.268509 0.282509
O O10 0.724845 0.156843 0.336252
O O11 0.731656 0.153036 0.246450
O O12 0.683011 0.852041 0.917634
O O13 0.770460 0.796869 0.868012
O O14 0.077915 0.349588 0.797635
O O15 0.250000 0.250000 0.500000
#
# Coordination Sequence:
#
# PCOD8286367 Si02
#       7
#    32  32  32  16  32  32  32
#     4  11  20  39  67  91 118 167 220 255 305 382
#     4  11  22  34  53  96 131 155 199 252 303 371
#     4  11  20  36  60  90 126 167 201 246 317 384
#     4  10  26  45  60  92 125 166 210 276 328 352
#     4  11  23  39  63  90 125 161 207 260 317 379
#     4  10  22  40  65  90 122 165 217 263 310 372
#     4  12  20  34  60  88 123 169 201 240 310 376
#
# _framework density 19.826052000000001
#
# number of rings (size 3 to 8) (size 9 to 14) (size 15 to 20)
#    0.000    1.077    6.154    1.385    0.000    3.077 
#    0.000    4.615    0.000    0.000    0.000    0.000 
#    0.000    0.000    0.000    0.000    0.000    0.000 
#
# Total GULP energy -644245.073895 kJ/mol
# GULP energy per Si atom -12389.328344 kJ/mol
# Density = 1.978093 g / cm^3
# Si number density = 19.826052 Si / 1000 Ang^3
#
#
#
# Elastic Constant Matrix: (Units=GPa)
#
#
# Indices 1 2 3 4 5 6 
#
# 1 111.1396 31.3872 60.0197 0.0000 0.0000 0.0000
# 2 31.3872 72.3424 21.2608 0.0000 0.0000 0.0000
# 3 60.0197 21.2608 146.4303 0.0000 0.0000 0.0000
# 4 0.0000 0.0000 0.0000 9.9300 0.0000 0.0000
# 5 0.0000 0.0000 0.0000 0.0000 -11.1143 0.0000
# 6 0.0000 0.0000 0.0000 0.0000 0.0000 28.0158
#
#
#
# Elastic Compliance Matrix: (Units=1/GPa)
#
#
# Indices 1 2 3 4 5 6 
#
# 1 0.012640 -0.004138 -0.004580 0.000000 0.000000 0.000000
# 2 -0.004138 0.015794 -0.000597 0.000000 0.000000 0.000000
# 3 -0.004580 -0.000597 0.008793 0.000000 0.000000 0.000000
# 4 0.000000 0.000000 0.000000 0.100705 0.000000 0.000000
# 5 0.000000 0.000000 0.000000 0.000000 -0.089974 0.000000
# 6 0.000000 0.000000 0.000000 0.000000 0.000000 0.035694
#
#
# Mechanical properties :
#
#
# Convention : Reuss Voigt Hill
#
# Bulk Modulus (GPa) = 53.77307 61.69419 57.73363
# Shear Modulus (GPa) = 46.09096 19.84926 32.97011
#
# Velocity S-wave (km/s) = 4.82682 3.16756 4.08238
# Velocity P-wave (km/s) = 7.63187 6.67557 7.16968
#
# Compressibility (1/GPa) = 0.01859667
#
# Stress axis : x y z
#
# Youngs Moduli (GPa) = 79.11588 63.31536 113.72459
#
# Poissons Ratio (x) = 0.26200 0.52086
# Poissons Ratio (y) = 0.32738 0.06791
# Poissons Ratio (z) = 0.36235 0.03781
#
# Static dielectric constant tensor:
#      x y z
#    x 5.032360 0.000000 0.000000 
#    y 0.000000 2.866930 0.000000 
#    z 0.000000 0.000000 3.860950 
# 
# 
# High freq. dielectric constant tensor:
#      x y z
#    x 1.774310 0.000000 0.000000 
#    y 0.000000 1.757620 0.000000 
#    z 0.000000 0.000000 1.779500 
# 
# From -- ./inp_files/67303.got.cif
#   From: 2010.03.12/outbox.cif.g09.slc.cpg/sg70_34_cif.got.tgz:67303.got - 2010.04.16 13:46:32.
