data_PCOD8286735
_publ_section_title
;
Structure prediction by ZEFSAII (Michael W. Deem and Ramdas Pophale) SiO2 
 PCOD8286735
Probable space group: F D D D
;
_chemical_formula_sum "Si O2"
_cell_formula_units_Z 192
_cell_length_a 27.239826
_cell_length_b 30.440356
_cell_length_c 10.820877
_cell_angle_alpha 90.000000
_cell_angle_beta 90.000000
_cell_angle_gamma 90.000000
_cell_volume 8972.563008
_symmetry_space_group_name_H-M "F D D D"
_symmetry_group_IT_number 70
_space_group.IT_coordinate_system_code '2'
_symmetry_cell_setting 'orthorhombic'
loop_
_space_group_symop_operation_xyz
x,y,z
1/4-x,1/4-y,z
x,1/4-y,1/4-z
1/4-x,y,1/4-z
-x,-y,-z
3/4+x,3/4+y,-z
-x,3/4+y,3/4+z
3/4+x,-y,3/4+z
x,1/2+y,1/2+z
1/4-x,3/4-y,1/2+z
x,3/4-y,3/4-z
1/4-x,1/2+y,3/4-z
-x,1/2-y,1/2-z
3/4+x,1/4+y,1/2-z
-x,1/4+y,1/4+z
3/4+x,1/2-y,1/4+z
1/2+x,y,1/2+z
3/4-x,1/4-y,1/2+z
1/2+x,1/4-y,3/4-z
3/4-x,y,3/4-z
1/2-x,-y,1/2-z
1/4+x,3/4+y,1/2-z
1/2-x,3/4+y,1/4+z
1/4+x,-y,1/4+z
1/2+x,1/2+y,z
3/4-x,3/4-y,z
1/2+x,3/4-y,1/4-z
3/4-x,1/2+y,1/4-z
1/2-x,1/2-y,-z
1/4+x,1/4+y,-z
1/2-x,1/4+y,3/4+z
1/4+x,1/2-y,3/4+z
loop_
_atom_site_type_symbol
_atom_site_label
_atom_site_fract_x
_atom_site_fract_y
_atom_site_fract_z
Si Si1 0.202800 0.598886 0.510757
Si Si2 0.485985 0.227434 0.439812
Si Si3 0.917665 0.846060 0.541951
Si Si4 0.246165 0.375000 0.375000
Si Si5 0.125000 0.715892 0.625000
Si Si6 0.656212 0.500620 0.375970
Si Si7 0.307556 0.710913 0.062838
O O1 0.226460 0.625000 0.625000
O O2 0.244607 0.572586 0.437845
O O3 0.177023 0.635293 0.427899
O O4 0.162966 0.563494 0.551288
O O5 0.458846 0.234787 0.571281
O O6 0.530579 0.261824 0.422126
O O7 0.450931 0.232900 0.321240
O O8 0.875000 0.875000 0.476753
O O9 0.968720 0.848184 0.468086
O O10 0.896591 0.797087 0.555541
O O11 0.210551 0.339455 0.438663
O O12 0.094979 0.745117 0.726393
O O13 0.615582 0.464638 0.414193
#
# Coordination Sequence:
#
# PCOD8286735 Si02
#       7
#    32  32  32  16  16  32  32
#     4  12  22  42  67  96 138 173 226 285 344 404
#     4  11  24  43  69  98 135 185 224 279 357 412
#     4  12  22  39  68 105 132 174 229 282 345 415
#     4  12  25  42  68 102 140 176 230 291 348 422
#     4  12  23  40  66  98 136 176 224 292 340 410
#     4  12  25  43  69  99 136 182 230 282 350 419
#     4  11  24  44  69 100 141 176 225 293 347 422
#
# _framework density 21.398568999999998
#
# number of rings (size 3 to 8) (size 9 to 14) (size 15 to 20)
#    0.000    0.333    8.333    1.000    2.333    2.000 
#    4.500    0.000    0.000    0.000    0.000    0.000 
#    0.000    0.000    0.000    0.000    0.000    0.000 
#
# Total GULP energy -595153.445807 kJ/mol
# GULP energy per Si atom -12399.030121 kJ/mol
# Density = 2.134986 g / cm^3
# Si number density = 21.398569 Si / 1000 Ang^3
#
#
#
# Elastic Constant Matrix: (Units=GPa)
#
#
# Indices 1 2 3 4 5 6 
#
# 1 79.5870 27.0676 26.9787 -0.0002 0.0006 0.0002
# 2 27.0676 80.1550 14.0899 -0.0001 0.0005 0.0001
# 3 26.9787 14.0899 100.1728 -0.0023 0.0033 0.0005
# 4 -0.0002 -0.0001 -0.0023 34.7096 0.0013 0.0002
# 5 0.0006 0.0005 0.0033 0.0013 35.6138 -0.0005
# 6 0.0002 0.0001 0.0005 0.0002 -0.0005 37.5248
#
#
#
# Elastic Compliance Matrix: (Units=1/GPa)
#
#
# Indices 1 2 3 4 5 6 
#
# 1 0.015292 -0.004553 -0.003478 0.000000 0.000000 0.000000
# 2 -0.004553 0.014147 -0.000764 0.000000 0.000000 0.000000
# 3 -0.003478 -0.000764 0.011027 0.000001 -0.000001 0.000000
# 4 0.000000 0.000000 0.000001 0.028810 -0.000001 0.000000
# 5 0.000000 0.000000 -0.000001 -0.000001 0.028079 0.000000
# 6 0.000000 0.000000 0.000000 0.000000 0.000000 0.026649
#
#
# Mechanical properties :
#
#
# Convention : Reuss Voigt Hill
#
# Bulk Modulus (GPa) = 43.71123 44.02081 43.86602
# Shear Modulus (GPa) = 33.50751 34.35488 33.93119
#
# Velocity S-wave (km/s) = 3.96141 4.01119 3.98637
# Velocity P-wave (km/s) = 6.43391 6.48609 6.46005
#
# Compressibility (1/GPa) = 0.02287741
#
# Stress axis : x y z
#
# Youngs Moduli (GPa) = 65.39250 70.68393 90.68702
#
# Poissons Ratio (x) = 0.32180 0.31543
# Poissons Ratio (y) = 0.29771 0.06927
# Poissons Ratio (z) = 0.22745 0.05399
#
# Static dielectric constant tensor:
#      x y z
#    x 3.715380 0.000000 0.000000 
#    y 0.000000 3.730410 0.000000 
#    z 0.000000 0.000000 4.000830 
# 
# 
# High freq. dielectric constant tensor:
#      x y z
#    x 1.823520 0.000000 0.000000 
#    y 0.000000 1.826880 0.000000 
#    z 0.000000 0.000000 1.847580 
# 
# From -- ./inp_files/21250.got.cif
#   From: 2010.03.12/outbox.cif.g09.slc.cpg/sg70_11_cif.got.tgz:21250.got - 2010.04.16 13:46:32.
