data_PCOD8286442
_publ_section_title
;
Structure prediction by ZEFSAII (Michael W. Deem and Ramdas Pophale) SiO2 
 PCOD8286442
Probable space group: F D D D
;
_chemical_formula_sum "Si O2"
_cell_formula_units_Z 240
_cell_length_a 30.403472
_cell_length_b 19.187024
_cell_length_c 21.239693
_cell_angle_alpha 90.000000
_cell_angle_beta 90.000000
_cell_angle_gamma 90.000000
_cell_volume 12390.220512
_symmetry_space_group_name_H-M "F D D D"
_symmetry_group_IT_number 70
_space_group.IT_coordinate_system_code '2'
_symmetry_cell_setting 'orthorhombic'
loop_
_space_group_symop_operation_xyz
x,y,z
1/4-x,1/4-y,z
x,1/4-y,1/4-z
1/4-x,y,1/4-z
-x,-y,-z
3/4+x,3/4+y,-z
-x,3/4+y,3/4+z
3/4+x,-y,3/4+z
x,1/2+y,1/2+z
1/4-x,3/4-y,1/2+z
x,3/4-y,3/4-z
1/4-x,1/2+y,3/4-z
-x,1/2-y,1/2-z
3/4+x,1/4+y,1/2-z
-x,1/4+y,1/4+z
3/4+x,1/2-y,1/4+z
1/2+x,y,1/2+z
3/4-x,1/4-y,1/2+z
1/2+x,1/4-y,3/4-z
3/4-x,y,3/4-z
1/2-x,-y,1/2-z
1/4+x,3/4+y,1/2-z
1/2-x,3/4+y,1/4+z
1/4+x,-y,1/4+z
1/2+x,1/2+y,z
3/4-x,3/4-y,z
1/2+x,3/4-y,1/4-z
3/4-x,1/2+y,1/4-z
1/2-x,1/2-y,-z
1/4+x,1/4+y,-z
1/2-x,1/4+y,3/4+z
1/4+x,1/2-y,3/4+z
loop_
_atom_site_type_symbol
_atom_site_label
_atom_site_fract_x
_atom_site_fract_y
_atom_site_fract_z
Si Si1 0.079854 0.344769 0.958566
Si Si2 0.693281 0.980986 0.967152
Si Si3 0.480302 0.971979 0.184193
Si Si4 0.136081 0.939109 0.693873
Si Si5 0.746206 0.449926 0.810839
Si Si6 0.423941 0.375070 0.605234
Si Si7 0.842015 0.125000 0.625000
Si Si8 0.667161 0.079794 0.223537
O O1 0.058106 0.269851 0.962138
O O2 0.048994 0.406705 0.930259
O O3 0.125523 0.334043 0.921753
O O4 0.091761 0.370117 0.028372
O O5 0.690741 0.926844 0.910256
O O6 0.690506 0.056952 0.934042
O O7 0.736629 0.962806 0.007498
O O8 0.653102 0.970865 0.014400
O O9 0.458604 0.898865 0.159010
O O10 0.503616 0.006422 0.124301
O O11 0.125000 0.913630 0.625000
O O12 0.168768 0.004313 0.690318
O O13 0.750000 0.500000 0.750000
O O14 0.785620 0.391396 0.802235
O O15 0.375000 0.375000 0.636119
O O16 0.419060 0.432292 0.549208
O O17 0.625000 0.125000 0.201878
#
# Coordination Sequence:
#
# PCOD8286442 Si02
#       8
#    32  32  32  32  32  32  16  32
#     4  11  22  38  61  86 123 170 206 246 305 373
#     4  11  24  39  63  90 118 167 209 262 310 365
#     4  12  24  38  63  92 117 160 211 256 312 362
#     4  11  22  37  54  85 125 168 205 250 302 366
#     4  12  21  34  55  86 126 162 200 251 293 364
#     4  11  21  40  62  88 125 159 205 253 300 380
#     4  10  22  46  62  84 124 168 210 246 316 390
#     4  11  21  34  49  79 126 166 205 235 296 356
#
# _framework density 19.370115999999999
#
# number of rings (size 3 to 8) (size 9 to 14) (size 15 to 20)
#    0.000    0.800    6.667    2.400    0.000    0.267 
#    4.800    0.667    0.000    1.600    0.000    0.000 
#    0.000    0.000    0.000    0.000    0.000    0.000 
#
# Total GULP energy -743308.062954 kJ/mol
# GULP energy per Si atom -12388.467716 kJ/mol
# Density = 1.932603 g / cm^3
# Si number density = 19.370116 Si / 1000 Ang^3
#
#
#
# Elastic Constant Matrix: (Units=GPa)
#
#
# Indices 1 2 3 4 5 6 
#
# 1 106.7746 45.2657 53.4125 0.0000 0.0000 0.0000
# 2 45.2657 73.9988 60.6519 0.0000 0.0000 0.0000
# 3 53.4125 60.6519 112.3061 0.0000 0.0000 0.0000
# 4 0.0000 0.0000 0.0000 23.6698 0.0000 0.0000
# 5 0.0000 0.0000 0.0000 0.0000 33.9783 0.0000
# 6 0.0000 0.0000 0.0000 0.0000 0.0000 26.5150
#
#
#
# Elastic Compliance Matrix: (Units=1/GPa)
#
#
# Indices 1 2 3 4 5 6 
#
# 1 0.013363 -0.005320 -0.003482 0.000000 0.000000 0.000000
# 2 -0.005320 0.026364 -0.011708 0.000000 0.000000 0.000000
# 3 -0.003482 -0.011708 0.016883 0.000000 0.000000 0.000000
# 4 0.000000 0.000000 0.000000 0.042248 0.000000 0.000000
# 5 0.000000 0.000000 0.000000 0.000000 0.029431 0.000000
# 6 0.000000 0.000000 0.000000 0.000000 0.000000 0.037715
#
#
# Mechanical properties :
#
#
# Convention : Reuss Voigt Hill
#
# Bulk Modulus (GPa) = 64.14390 67.97108 66.05749
# Shear Modulus (GPa) = 23.56034 25.74924 24.65479
#
# Velocity S-wave (km/s) = 3.49137 3.64995 3.57154
# Velocity P-wave (km/s) = 7.03133 7.27528 7.15435
#
# Compressibility (1/GPa) = 0.01558995
#
# Stress axis : x y z
#
# Youngs Moduli (GPa) = 74.83468 37.92987 59.22962
#
# Poissons Ratio (x) = 0.20179 0.20625
# Poissons Ratio (y) = 0.39812 0.69347
# Poissons Ratio (z) = 0.26059 0.44409
#
# Static dielectric constant tensor:
#      x y z
#    x 3.828150 0.000000 0.000000 
#    y 0.000000 3.400700 0.000000 
#    z 0.000000 0.000000 3.543500 
# 
# 
# High freq. dielectric constant tensor:
#      x y z
#    x 1.762110 0.000000 0.000000 
#    y 0.000000 1.723990 0.000000 
#    z 0.000000 0.000000 1.740320 
# 
# From -- ./inp_files/47844.got.cif
#   From: 2010.03.12/outbox.cif.g09.slc.cpg/sg70_24_cif.got.tgz:47844.got - 2010.04.16 13:46:32.
