data_PCOD8286670
_publ_section_title
;
Structure prediction by ZEFSAII (Michael W. Deem and Ramdas Pophale) SiO2 
 PCOD8286670
Probable space group: F D D D
;
_chemical_formula_sum "Si O2"
_cell_formula_units_Z 160
_cell_length_a 20.282786
_cell_length_b 18.980979
_cell_length_c 20.630425
_cell_angle_alpha 90.000000
_cell_angle_beta 90.000000
_cell_angle_gamma 90.000000
_cell_volume 7942.448217
_symmetry_space_group_name_H-M "F D D D"
_symmetry_group_IT_number 70
_space_group.IT_coordinate_system_code '2'
_symmetry_cell_setting 'orthorhombic'
loop_
_space_group_symop_operation_xyz
x,y,z
1/4-x,1/4-y,z
x,1/4-y,1/4-z
1/4-x,y,1/4-z
-x,-y,-z
3/4+x,3/4+y,-z
-x,3/4+y,3/4+z
3/4+x,-y,3/4+z
x,1/2+y,1/2+z
1/4-x,3/4-y,1/2+z
x,3/4-y,3/4-z
1/4-x,1/2+y,3/4-z
-x,1/2-y,1/2-z
3/4+x,1/4+y,1/2-z
-x,1/4+y,1/4+z
3/4+x,1/2-y,1/4+z
1/2+x,y,1/2+z
3/4-x,1/4-y,1/2+z
1/2+x,1/4-y,3/4-z
3/4-x,y,3/4-z
1/2-x,-y,1/2-z
1/4+x,3/4+y,1/2-z
1/2-x,3/4+y,1/4+z
1/4+x,-y,1/4+z
1/2+x,1/2+y,z
3/4-x,3/4-y,z
1/2+x,3/4-y,1/4-z
3/4-x,1/2+y,1/4-z
1/2-x,1/2-y,-z
1/4+x,1/4+y,-z
1/2-x,1/4+y,3/4+z
1/4+x,1/2-y,3/4+z
loop_
_atom_site_type_symbol
_atom_site_label
_atom_site_fract_x
_atom_site_fract_y
_atom_site_fract_z
Si Si1 0.715100 0.910076 0.059470
Si Si2 0.694371 0.325859 0.431938
Si Si3 0.625000 0.738036 0.625000
Si Si4 0.229635 0.125000 0.625000
Si Si5 0.056355 0.276697 0.964707
Si Si6 0.050035 0.977832 0.135912
O O1 0.711065 0.852252 0.115044
O O2 0.651919 0.962528 0.066404
O O3 0.780848 0.956349 0.071140
O O4 0.719295 0.875242 0.989314
O O5 0.666907 0.375000 0.375000
O O6 0.635325 0.277451 0.458739
O O7 0.754294 0.278563 0.406727
O O8 0.683903 0.688639 0.597715
O O9 0.274958 0.097242 0.566185
O O10 0.032431 0.270283 0.038666
O O11 0.125000 0.002401 0.125000
#
# Coordination Sequence:
#
# PCOD8286670 Si02
#       6
#    32  32  16  16  32  32
#     4  11  22  43  65  92 130 169 215 262 318 383
#     4  12  24  44  63  93 131 168 215 272 319 380
#     4   9  18  40  66  94 123 166 206 254 321 394
#     4   9  20  38  66  98 129 164 204 264 329 386
#     4  11  23  42  66  96 132 165 214 266 324 385
#     4  12  25  43  66  91 124 173 216 262 322 380
#
# _framework density 20.144922000000001
#
# number of rings (size 3 to 8) (size 9 to 14) (size 15 to 20)
#    0.000    1.000    6.000    0.600    0.000    1.200 
#    3.600    5.000    0.000    0.000    0.000    0.000 
#    0.000    0.000    0.000    0.000    0.000    0.000 
#
# Total GULP energy -495970.967326 kJ/mol
# GULP energy per Si atom -12399.274183 kJ/mol
# Density = 2.009907 g / cm^3
# Si number density = 20.144922 Si / 1000 Ang^3
#
#
#
# Elastic Constant Matrix: (Units=GPa)
#
#
# Indices 1 2 3 4 5 6 
#
# 1 119.4720 74.9756 48.0706 0.0000 0.0000 0.0000
# 2 74.9756 121.1876 48.2378 0.0000 0.0000 0.0000
# 3 48.0706 48.2378 88.0811 0.0000 0.0000 0.0000
# 4 0.0000 0.0000 0.0000 40.2024 0.0000 0.0000
# 5 0.0000 0.0000 0.0000 0.0000 29.8201 0.0000
# 6 0.0000 0.0000 0.0000 0.0000 0.0000 31.1717
#
#
#
# Elastic Compliance Matrix: (Units=1/GPa)
#
#
# Indices 1 2 3 4 5 6 
#
# 1 0.014649 -0.007520 -0.003876 0.000000 0.000000 0.000000
# 2 -0.007520 0.014412 -0.003789 0.000000 0.000000 0.000000
# 3 -0.003876 -0.003789 0.015544 0.000000 0.000000 0.000000
# 4 0.000000 0.000000 0.000000 0.024874 0.000000 0.000000
# 5 0.000000 0.000000 0.000000 0.000000 0.033534 0.000000
# 6 0.000000 0.000000 0.000000 0.000000 0.000000 0.032080
#
#
# Mechanical properties :
#
#
# Convention : Reuss Voigt Hill
#
# Bulk Modulus (GPa) = 70.25191 74.58983 72.42087
# Shear Modulus (GPa) = 29.37558 30.73597 30.05578
#
# Velocity S-wave (km/s) = 3.82280 3.91031 3.86680
# Velocity P-wave (km/s) = 7.37794 7.58251 7.48092
#
# Compressibility (1/GPa) = 0.01423449
#
# Stress axis : x y z
#
# Youngs Moduli (GPa) = 68.26333 69.38558 64.33471
#
# Poissons Ratio (x) = 0.52178 0.24939
# Poissons Ratio (y) = 0.51334 0.24375
# Poissons Ratio (z) = 0.26462 0.26289
#
# Static dielectric constant tensor:
#      x y z
#    x 3.721150 0.000000 0.000000 
#    y 0.000000 3.923710 0.000000 
#    z 0.000000 0.000000 3.615680 
# 
# 
# High freq. dielectric constant tensor:
#      x y z
#    x 1.790710 0.000000 0.000000 
#    y 0.000000 1.799970 0.000000 
#    z 0.000000 0.000000 1.777930 
# 
# From -- ./inp_files/36343.got.cif
#   From: 2010.03.12/outbox.cif.g09.slc.cpg/sg70_19_cif.got.tgz:36343.got - 2010.04.16 13:46:32.
