data_PCOD8286325
_publ_section_title
;
Structure prediction by ZEFSAII (Michael W. Deem and Ramdas Pophale) SiO2 
 PCOD8286325
Probable space group: F D D D
;
_chemical_formula_sum "Si O2"
_cell_formula_units_Z 128
_cell_length_a 25.782445
_cell_length_b 26.005525
_cell_length_c 10.358643
_cell_angle_alpha 90.000000
_cell_angle_beta 90.000000
_cell_angle_gamma 90.000000
_cell_volume 6945.325297
_symmetry_space_group_name_H-M "F D D D"
_symmetry_group_IT_number 70
_space_group.IT_coordinate_system_code '2'
_symmetry_cell_setting 'orthorhombic'
loop_
_space_group_symop_operation_xyz
x,y,z
1/4-x,1/4-y,z
x,1/4-y,1/4-z
1/4-x,y,1/4-z
-x,-y,-z
3/4+x,3/4+y,-z
-x,3/4+y,3/4+z
3/4+x,-y,3/4+z
x,1/2+y,1/2+z
1/4-x,3/4-y,1/2+z
x,3/4-y,3/4-z
1/4-x,1/2+y,3/4-z
-x,1/2-y,1/2-z
3/4+x,1/4+y,1/2-z
-x,1/4+y,1/4+z
3/4+x,1/2-y,1/4+z
1/2+x,y,1/2+z
3/4-x,1/4-y,1/2+z
1/2+x,1/4-y,3/4-z
3/4-x,y,3/4-z
1/2-x,-y,1/2-z
1/4+x,3/4+y,1/2-z
1/2-x,3/4+y,1/4+z
1/4+x,-y,1/4+z
1/2+x,1/2+y,z
3/4-x,3/4-y,z
1/2+x,3/4-y,1/4-z
3/4-x,1/2+y,1/4-z
1/2-x,1/2-y,-z
1/4+x,1/4+y,-z
1/2-x,1/4+y,3/4+z
1/4+x,1/2-y,3/4+z
loop_
_atom_site_type_symbol
_atom_site_label
_atom_site_fract_x
_atom_site_fract_y
_atom_site_fract_z
Si Si1 0.031750 0.252009 0.443186
Si Si2 0.317796 0.209420 0.923660
Si Si3 0.989055 0.138274 0.979053
Si Si4 0.316850 0.355643 0.240788
O O1 0.059338 0.262428 0.308095
O O2 0.065484 0.206293 0.504158
O O3 0.972506 0.233002 0.428498
O O4 0.030622 0.302955 0.532219
O O5 0.375000 0.220712 0.875000
O O6 0.308975 0.148292 0.940633
O O7 0.008062 0.125000 0.125000
O O8 0.036134 0.127243 0.882382
O O9 0.291914 0.375000 0.375000
O O10 0.375000 0.375000 0.225644
#
# Coordination Sequence:
#
# PCOD8286325 Si02
#       4
#    32  32  32  32
#     4   9  19  36  57  82 118 148 189 243 282 339
#     4   9  18  34  57  89 116 143 190 242 288 340
#     4   9  19  38  59  86 115 143 192 244 279 340
#     4  10  22  38  53  82 119 150 192 234 281 355
#
# _framework density 18.429662
#
# number of rings (size 3 to 8) (size 9 to 14) (size 15 to 20)
#    0.000    2.750    0.000    1.500    3.500    1.500 
#    4.500   15.000    0.000    0.000    0.000    0.000 
#    0.000    0.000    0.000    0.000    0.000    0.000 
#
# Total GULP energy -396684.132384 kJ/mol
# GULP energy per Si atom -12396.379137 kJ/mol
# Density = 1.838772 g / cm^3
# Si number density = 18.429662 Si / 1000 Ang^3
#
#
#
# Elastic Constant Matrix: (Units=GPa)
#
#
# Indices 1 2 3 4 5 6 
#
# 1 116.7193 45.9384 37.0631 -0.0001 -0.0003 -0.0003
# 2 45.9384 172.2923 32.4254 -0.0003 -0.0001 -0.0001
# 3 37.0631 32.4254 71.0401 -0.0017 0.0002 -0.0002
# 4 -0.0001 -0.0003 -0.0017 22.7460 0.0000 -0.0001
# 5 -0.0003 -0.0001 0.0002 0.0000 22.8272 0.0007
# 6 -0.0003 -0.0001 -0.0002 -0.0001 0.0007 21.0331
#
#
#
# Elastic Compliance Matrix: (Units=1/GPa)
#
#
# Indices 1 2 3 4 5 6 
#
# 1 0.010865 -0.002002 -0.004755 0.000000 0.000000 0.000000
# 2 -0.002002 0.006718 -0.002022 0.000000 0.000000 0.000000
# 3 -0.004755 -0.002022 0.017480 0.000001 0.000000 0.000000
# 4 0.000000 0.000000 0.000001 0.043964 0.000000 0.000000
# 5 0.000000 0.000000 0.000000 0.000000 0.043807 -0.000001
# 6 0.000000 0.000000 0.000000 0.000000 -0.000001 0.047544
#
#
# Mechanical properties :
#
#
# Convention : Reuss Voigt Hill
#
# Bulk Modulus (GPa) = 57.12315 65.65617 61.38966
# Shear Modulus (GPa) = 25.80341 29.62957 27.71649
#
# Velocity S-wave (km/s) = 3.74585 4.01398 3.88223
# Velocity P-wave (km/s) = 7.05486 7.56210 7.31288
#
# Compressibility (1/GPa) = 0.01750604
#
# Stress axis : x y z
#
# Youngs Moduli (GPa) = 92.03487 148.84331 57.20768
#
# Poissons Ratio (x) = 0.29801 0.27201
# Poissons Ratio (y) = 0.18427 0.11567
# Poissons Ratio (z) = 0.43761 0.30096
#
# Static dielectric constant tensor:
#      x y z
#    x 3.082370 0.000000 0.000000 
#    y 0.000000 3.742210 0.000000 
#    z 0.000000 0.000000 3.387400 
# 
# 
# High freq. dielectric constant tensor:
#      x y z
#    x 1.694890 0.000000 0.000000 
#    y 0.000000 1.735190 0.000000 
#    z 0.000000 0.000000 1.703670 
# 
# From -- ./inp_files/18803.got.cif
#   From: 2010.03.12/outbox.cif.g09.slc.cpg/sg70_10_cif.got.tgz:18803.got - 2010.04.16 13:46:32.
