data_PCOD8286321
_publ_section_title
;
Structure prediction by ZEFSAII (Michael W. Deem and Ramdas Pophale) SiO2 
 PCOD8286321
Probable space group: F D D D
;
_chemical_formula_sum "Si O2"
_cell_formula_units_Z 96
_cell_length_a 26.830213
_cell_length_b 20.230276
_cell_length_c 7.266113
_cell_angle_alpha 90.000000
_cell_angle_beta 90.000000
_cell_angle_gamma 90.000000
_cell_volume 3943.919809
_symmetry_space_group_name_H-M "F D D D"
_symmetry_group_IT_number 70
_space_group.IT_coordinate_system_code '2'
_symmetry_cell_setting 'orthorhombic'
loop_
_space_group_symop_operation_xyz
x,y,z
1/4-x,1/4-y,z
x,1/4-y,1/4-z
1/4-x,y,1/4-z
-x,-y,-z
3/4+x,3/4+y,-z
-x,3/4+y,3/4+z
3/4+x,-y,3/4+z
x,1/2+y,1/2+z
1/4-x,3/4-y,1/2+z
x,3/4-y,3/4-z
1/4-x,1/2+y,3/4-z
-x,1/2-y,1/2-z
3/4+x,1/4+y,1/2-z
-x,1/4+y,1/4+z
3/4+x,1/2-y,1/4+z
1/2+x,y,1/2+z
3/4-x,1/4-y,1/2+z
1/2+x,1/4-y,3/4-z
3/4-x,y,3/4-z
1/2-x,-y,1/2-z
1/4+x,3/4+y,1/2-z
1/2-x,3/4+y,1/4+z
1/4+x,-y,1/4+z
1/2+x,1/2+y,z
3/4-x,3/4-y,z
1/2+x,3/4-y,1/4-z
3/4-x,1/2+y,1/4-z
1/2-x,1/2-y,-z
1/4+x,1/4+y,-z
1/2-x,1/4+y,3/4+z
1/4+x,1/2-y,3/4+z
loop_
_atom_site_type_symbol
_atom_site_label
_atom_site_fract_x
_atom_site_fract_y
_atom_site_fract_z
Si Si1 0.177735 0.709234 0.524779
Si Si2 0.532593 0.675749 0.870487
Si Si3 0.930001 0.221528 0.910486
O O1 0.125000 0.701113 0.625000
O O2 0.191245 0.643169 0.411158
O O3 0.215277 0.721923 0.694977
O O4 0.180974 0.768791 0.381300
O O5 0.560928 0.709249 0.698694
O O6 0.472553 0.670368 0.838979
O O7 0.875000 0.192406 0.875000
#
# Coordination Sequence:
#
# PCOD8286321 Si02
#       3
#    32  32  32
#     4  11  21  38  64  87 116 156 203 244 296 359
#     4  10  22  37  59  90 119 151 199 251 299 348
#     4  11  22  37  62  88 119 155 199 247 299 358
#
# _framework density 24.341265
#
# number of rings (size 3 to 8) (size 9 to 14) (size 15 to 20)
#    0.000    1.333    3.333    4.000    0.000    1.333 
#    0.000    0.000   29.333    0.000    0.000    0.000 
#    0.000    0.000    0.000    0.000    0.000    0.000 
#
# Total GULP energy -297318.216781 kJ/mol
# GULP energy per Si atom -12388.259033 kJ/mol
# Density = 2.428586 g / cm^3
# Si number density = 24.341265 Si / 1000 Ang^3
#
#
#
# Elastic Constant Matrix: (Units=GPa)
#
#
# Indices 1 2 3 4 5 6 
#
# 1 169.3729 11.2734 -4.0114 0.0007 -0.0006 -0.0002
# 2 11.2734 14.1444 -0.1280 -0.0123 0.0013 0.0021
# 3 -4.0114 -0.1280 121.4453 -0.0174 0.0005 0.0027
# 4 0.0007 -0.0123 -0.0174 15.7349 0.0019 0.0035
# 5 -0.0006 0.0013 0.0005 0.0019 14.9721 -0.0004
# 6 -0.0002 0.0021 0.0027 0.0035 -0.0004 19.2722
#
#
#
# Elastic Compliance Matrix: (Units=1/GPa)
#
#
# Indices 1 2 3 4 5 6 
#
# 1 0.006240 -0.004971 0.000201 -0.000004 0.000001 0.000001
# 2 -0.004971 0.074661 -0.000086 0.000058 -0.000007 -0.000008
# 3 0.000201 -0.000086 0.008241 0.000009 0.000000 -0.000001
# 4 -0.000004 0.000058 0.000009 0.063553 -0.000008 -0.000012
# 5 0.000001 -0.000007 0.000000 -0.000008 0.066791 0.000001
# 6 0.000001 -0.000008 -0.000001 -0.000012 0.000001 0.051888
#
#
# Mechanical properties :
#
#
# Convention : Reuss Voigt Hill
#
# Bulk Modulus (GPa) = 12.58981 35.47007 24.02994
# Shear Modulus (GPa) = 16.25687 29.85108 23.05398
#
# Velocity S-wave (km/s) = 2.58713 3.50574 3.08086
# Velocity P-wave (km/s) = 3.75603 5.56692 4.74859
#
# Compressibility (1/GPa) = 0.07942929
#
# Stress axis : x y z
#
# Youngs Moduli (GPa) = 160.26201 13.39389 121.34884
#
# Poissons Ratio (x) = 0.06659 -0.02437
# Poissons Ratio (y) = 0.79673 0.01038
# Poissons Ratio (z) = -0.03219 0.00115
#
# Static dielectric constant tensor:
#      x y z
#    x 4.718240 0.000000 0.000000 
#    y 0.000000 3.464850 0.000000 
#    z 0.000000 0.000000 5.162900 
# 
# 
# High freq. dielectric constant tensor:
#      x y z
#    x 1.992370 0.000000 0.000000 
#    y 0.000000 1.893190 0.000000 
#    z 0.000000 0.000000 1.994710 
# 
# From -- ./inp_files/10326.got.cif
#   From: 2010.03.12/outbox.cif.g09.slc.cpg/sg70_6_cif.got.tgz:10326.got - 2010.04.16 13:46:32.
