data_PCOD8286151
_publ_section_title
;
Structure prediction by ZEFSAII (Michael W. Deem and Ramdas Pophale) SiO2 
 PCOD8286151
Probable space group: F D D D
;
_chemical_formula_sum "Si O2"
_cell_formula_units_Z 168
_cell_length_a 25.174062
_cell_length_b 16.138843
_cell_length_c 19.780285
_cell_angle_alpha 90.000000
_cell_angle_beta 90.000000
_cell_angle_gamma 90.000000
_cell_volume 8036.338824
_symmetry_space_group_name_H-M "F D D D"
_symmetry_group_IT_number 70
_space_group.IT_coordinate_system_code '2'
_symmetry_cell_setting 'orthorhombic'
loop_
_space_group_symop_operation_xyz
x,y,z
1/4-x,1/4-y,z
x,1/4-y,1/4-z
1/4-x,y,1/4-z
-x,-y,-z
3/4+x,3/4+y,-z
-x,3/4+y,3/4+z
3/4+x,-y,3/4+z
x,1/2+y,1/2+z
1/4-x,3/4-y,1/2+z
x,3/4-y,3/4-z
1/4-x,1/2+y,3/4-z
-x,1/2-y,1/2-z
3/4+x,1/4+y,1/2-z
-x,1/4+y,1/4+z
3/4+x,1/2-y,1/4+z
1/2+x,y,1/2+z
3/4-x,1/4-y,1/2+z
1/2+x,1/4-y,3/4-z
3/4-x,y,3/4-z
1/2-x,-y,1/2-z
1/4+x,3/4+y,1/2-z
1/2-x,3/4+y,1/4+z
1/4+x,-y,1/4+z
1/2+x,1/2+y,z
3/4-x,3/4-y,z
1/2+x,3/4-y,1/4-z
3/4-x,1/2+y,1/4-z
1/2-x,1/2-y,-z
1/4+x,1/4+y,-z
1/2-x,1/4+y,3/4+z
1/4+x,1/2-y,3/4+z
loop_
_atom_site_type_symbol
_atom_site_label
_atom_site_fract_x
_atom_site_fract_y
_atom_site_fract_z
Si Si1 0.169899 0.992470 0.392288
Si Si2 0.550006 0.281780 0.396818
Si Si3 0.375000 0.375000 0.875000
Si Si4 0.689707 0.352299 0.488150
Si Si5 0.083466 0.275866 0.044093
Si Si6 0.247755 0.371351 0.118546
O O1 0.197470 0.081643 0.396170
O O2 0.107638 0.996420 0.378534
O O3 0.201067 0.948669 0.330058
O O4 0.177330 0.945784 0.463521
O O5 0.536435 0.375000 0.375000
O O6 0.548177 0.270367 0.477240
O O7 0.505324 0.219741 0.367533
O O8 0.411522 0.315505 0.922053
O O9 0.640707 0.313667 0.529140
O O10 0.740109 0.353437 0.538167
O O11 0.054054 0.339294 0.093563
#
# Coordination Sequence:
#
# PCOD8286151 Si02
#       6
#    32  32   8  32  32  32
#     4  10  21  40  62  88 130 171 209 263 325 392
#     4  11  24  45  63  86 131 176 218 261 324 384
#     4  12  24  40  68 100 142 164 196 270 360 380
#     4  10  20  42  60  88 135 164 204 266 328 389
#     4  11  24  42  62  97 132 170 208 265 332 395
#     4  12  23  36  67  96 118 165 221 269 314 383
#
# _framework density 20.905042000000002
#
# number of rings (size 3 to 8) (size 9 to 14) (size 15 to 20)
#    0.000    1.143    5.714    2.286    5.333    3.810 
#    0.000    0.000    0.000    1.143    0.000    0.000 
#    0.000    0.000    0.000    0.000    0.000    0.000 
#
# Total GULP energy -520593.674279 kJ/mol
# GULP energy per Si atom -12395.087483 kJ/mol
# Density = 2.085746 g / cm^3
# Si number density = 20.905042 Si / 1000 Ang^3
#
#
#
# Elastic Constant Matrix: (Units=GPa)
#
#
# Indices 1 2 3 4 5 6 
#
# 1 45.4316 53.8559 25.3040 0.0000 0.0000 0.0000
# 2 53.8559 165.5445 57.9301 0.0000 0.0000 0.0000
# 3 25.3040 57.9301 93.3140 0.0000 0.0000 0.0000
# 4 0.0000 0.0000 0.0000 28.7084 0.0000 0.0000
# 5 0.0000 0.0000 0.0000 0.0000 8.8169 0.0000
# 6 0.0000 0.0000 0.0000 0.0000 0.0000 31.3612
#
#
#
# Elastic Compliance Matrix: (Units=1/GPa)
#
#
# Indices 1 2 3 4 5 6 
#
# 1 0.036577 -0.010768 -0.003234 0.000000 0.000000 0.000000
# 2 -0.010768 0.010887 -0.003839 0.000000 0.000000 0.000000
# 3 -0.003234 -0.003839 0.013977 0.000000 0.000000 0.000000
# 4 0.000000 0.000000 0.000000 0.034833 0.000000 0.000000
# 5 0.000000 0.000000 0.000000 0.000000 0.113418 0.000000
# 6 0.000000 0.000000 0.000000 0.000000 0.000000 0.031887
#
#
# Mechanical properties :
#
#
# Convention : Reuss Voigt Hill
#
# Bulk Modulus (GPa) = 38.82067 64.27448 51.54758
# Shear Modulus (GPa) = 17.49197 24.92396 21.20796
#
# Velocity S-wave (km/s) = 2.89577 3.45664 3.18856
# Velocity P-wave (km/s) = 5.45811 6.83694 6.18606
#
# Compressibility (1/GPa) = 0.02575947
#
# Stress axis : x y z
#
# Youngs Moduli (GPa) = 27.33989 91.85229 71.54793
#
# Poissons Ratio (x) = 0.98904 0.23137
# Poissons Ratio (y) = 0.29439 0.27466
# Poissons Ratio (z) = 0.08841 0.35261
#
# Static dielectric constant tensor:
#      x y z
#    x 3.486820 0.000000 0.000000 
#    y 0.000000 3.811470 0.000000 
#    z 0.000000 0.000000 4.144070 
# 
# 
# High freq. dielectric constant tensor:
#      x y z
#    x 1.803900 0.000000 0.000000 
#    y 0.000000 1.816070 0.000000 
#    z 0.000000 0.000000 1.819750 
# 
# From -- ./inp_files/46776.got.cif
#   From: 2010.03.12/outbox.cif.g09.slc.cpg/sg70_24_cif.got.tgz:46776.got - 2010.04.16 13:46:32.
