data_PCOD8286163
_publ_section_title
;
Structure prediction by ZEFSAII (Michael W. Deem and Ramdas Pophale) SiO2 
 PCOD8286163
Probable space group: F D D D
;
_chemical_formula_sum "Si O2"
_cell_formula_units_Z 136
_cell_length_a 21.888199
_cell_length_b 9.174717
_cell_length_c 29.935166
_cell_angle_alpha 90.000000
_cell_angle_beta 90.000000
_cell_angle_gamma 90.000000
_cell_volume 6011.521108
_symmetry_space_group_name_H-M "F D D D"
_symmetry_group_IT_number 70
_space_group.IT_coordinate_system_code '2'
_symmetry_cell_setting 'orthorhombic'
loop_
_space_group_symop_operation_xyz
x,y,z
1/4-x,1/4-y,z
x,1/4-y,1/4-z
1/4-x,y,1/4-z
-x,-y,-z
3/4+x,3/4+y,-z
-x,3/4+y,3/4+z
3/4+x,-y,3/4+z
x,1/2+y,1/2+z
1/4-x,3/4-y,1/2+z
x,3/4-y,3/4-z
1/4-x,1/2+y,3/4-z
-x,1/2-y,1/2-z
3/4+x,1/4+y,1/2-z
-x,1/4+y,1/4+z
3/4+x,1/2-y,1/4+z
1/2+x,y,1/2+z
3/4-x,1/4-y,1/2+z
1/2+x,1/4-y,3/4-z
3/4-x,y,3/4-z
1/2-x,-y,1/2-z
1/4+x,3/4+y,1/2-z
1/2-x,3/4+y,1/4+z
1/4+x,-y,1/4+z
1/2+x,1/2+y,z
3/4-x,3/4-y,z
1/2+x,3/4-y,1/4-z
3/4-x,1/2+y,1/4-z
1/2-x,1/2-y,-z
1/4+x,1/4+y,-z
1/2-x,1/4+y,3/4+z
1/4+x,1/2-y,3/4+z
loop_
_atom_site_type_symbol
_atom_site_label
_atom_site_fract_x
_atom_site_fract_y
_atom_site_fract_z
Si Si1 0.530809 0.443779 0.286765
Si Si2 0.770166 0.394429 0.055787
Si Si3 0.125000 0.125000 0.125000
Si Si4 0.599070 0.392028 0.924583
Si Si5 0.979083 0.065816 0.904937
O O1 0.519040 0.464816 0.234491
O O2 0.529053 0.275263 0.299600
O O3 0.601264 0.485584 0.297593
O O4 0.481049 0.533848 0.316523
O O5 0.835072 0.480102 0.056244
O O6 0.735081 0.412640 0.102133
O O7 0.084251 0.226290 0.158634
O O8 0.626651 0.375000 0.875000
O O9 0.534386 0.472956 0.925028
#
# Coordination Sequence:
#
# PCOD8286163 Si02
#       5
#    32  32   8  32  32
#     4  11  23  38  72 106 137 176 236 289 360 436
#     4  10  22  42  62 108 140 173 226 291 363 421
#     4  12  24  48  66  92 152 188 246 302 360 444
#     4  10  20  42  69  98 135 179 233 288 346 420
#     4  11  23  45  67  93 135 195 230 288 359 419
#
# _framework density 22.623227
#
# number of rings (size 3 to 8) (size 9 to 14) (size 15 to 20)
#    0.000    1.412    3.529    3.529    0.000    6.588 
#    4.235    4.706    0.000    0.000    0.000    0.000 
#    0.000    0.000    0.000    0.000    0.000    0.000 
#
# Total GULP energy -421347.123180 kJ/mol
# GULP energy per Si atom -12392.562446 kJ/mol
# Density = 2.257174 g / cm^3
# Si number density = 22.623227 Si / 1000 Ang^3
#
#
#
# Elastic Constant Matrix: (Units=GPa)
#
#
# Indices 1 2 3 4 5 6 
#
# 1 128.6227 44.9327 63.6387 0.0000 0.0000 0.0000
# 2 44.9327 108.0286 65.7490 0.0000 0.0000 0.0000
# 3 63.6387 65.7490 140.1354 0.0000 0.0000 0.0000
# 4 0.0000 0.0000 0.0000 31.8322 0.0000 0.0000
# 5 0.0000 0.0000 0.0000 0.0000 3.7140 0.0000
# 6 0.0000 0.0000 0.0000 0.0000 0.0000 37.0409
#
#
#
# Elastic Compliance Matrix: (Units=1/GPa)
#
#
# Indices 1 2 3 4 5 6 
#
# 1 0.010333 -0.002018 -0.003746 0.000000 0.000000 0.000000
# 2 -0.002018 0.013351 -0.005347 0.000000 0.000000 0.000000
# 3 -0.003746 -0.005347 0.011346 0.000000 0.000000 0.000000
# 4 0.000000 0.000000 0.000000 0.031415 0.000000 0.000000
# 5 0.000000 0.000000 0.000000 0.000000 0.269250 0.000000
# 6 0.000000 0.000000 0.000000 0.000000 0.000000 0.026997
#
#
# Mechanical properties :
#
#
# Convention : Reuss Voigt Hill
#
# Bulk Modulus (GPa) = 78.08096 80.60306 79.34201
# Shear Modulus (GPa) = 12.84744 28.01517 20.43130
#
# Velocity S-wave (km/s) = 2.38562 3.52282 3.00844
# Velocity P-wave (km/s) = 6.49437 7.22861 6.87130
#
# Compressibility (1/GPa) = 0.01280722
#
# Stress axis : x y z
#
# Youngs Moduli (GPa) = 96.77857 74.90160 88.13818
#
# Poissons Ratio (x) = 0.15116 0.33012
# Poissons Ratio (y) = 0.19532 0.47132
# Poissons Ratio (z) = 0.36248 0.40053
#
# Static dielectric constant tensor:
#      x y z
#    x 4.191690 0.000000 0.000000 
#    y 0.000000 4.511980 0.000000 
#    z 0.000000 0.000000 4.209750 
# 
# 
# High freq. dielectric constant tensor:
#      x y z
#    x 1.877250 0.000000 0.000000 
#    y 0.000000 1.912010 0.000000 
#    z 0.000000 0.000000 1.881700 
# 
# From -- ./inp_files/67106.got.cif
#   From: 2010.03.12/outbox.cif.g09.slc.cpg/sg70_34_cif.got.tgz:67106.got - 2010.04.16 13:46:32.
