data_PCOD8286954
_publ_section_title
;
Structure prediction by ZEFSAII (Michael W. Deem and Ramdas Pophale) SiO2 
 PCOD8286954
Probable space group: I M M M
;
_chemical_formula_sum "Si O2"
_cell_formula_units_Z 128
_cell_length_a 18.213578
_cell_length_b 24.067848
_cell_length_c 20.214440
_cell_angle_alpha 90.000000
_cell_angle_beta 90.000000
_cell_angle_gamma 90.000000
_cell_volume 8861.234804
_symmetry_space_group_name_H-M "I M M M"
_symmetry_group_IT_number 71
_symmetry_cell_setting 'orthorhombic'
loop_
_space_group_symop_operation_xyz
x,y,z
-x,-y,z
x,-y,-z
-x,y,-z
-x,-y,-z
x,y,-z
-x,y,z
x,-y,z
1/2+x,1/2+y,1/2+z
1/2-x,1/2-y,1/2+z
1/2+x,1/2-y,1/2-z
1/2-x,1/2+y,1/2-z
1/2-x,1/2-y,1/2-z
1/2+x,1/2+y,1/2-z
1/2-x,1/2+y,1/2+z
1/2+x,1/2-y,1/2+z
loop_
_atom_site_type_symbol
_atom_site_label
_atom_site_fract_x
_atom_site_fract_y
_atom_site_fract_z
Si Si1 0.301078 0.728068 0.575011
Si Si2 0.084985 0.156790 0.571389
Si Si3 0.916757 0.729610 0.709744
Si Si4 0.916982 0.134357 0.925343
Si Si5 0.584450 0.562644 0.303231
Si Si6 0.290793 0.794727 0.295814
Si Si7 0.648477 0.353481 0.201346
Si Si8 0.364767 0.220776 0.928716
O O1 0.316199 0.750190 0.500000
O O2 0.360443 0.682098 0.595537
O O3 0.307627 0.776194 0.629246
O O4 0.219652 0.701774 0.579258
O O5 0.092276 0.125828 0.500000
O O6 0.118388 0.120746 0.631680
O O7 0.133064 0.212543 0.568879
O O8 0.000000 0.172016 0.585515
O O9 0.868131 0.692375 0.759969
O O10 0.891131 0.793901 0.712079
O O11 0.910131 0.702310 0.636005
O O12 0.000000 0.725718 0.733793
O O13 0.905534 0.080898 0.879205
O O14 0.000000 0.157892 0.917446
O O15 0.901923 0.114381 0.000000
O O16 0.500000 0.566390 0.281122
O O17 0.614098 0.500000 0.295959
O O18 0.631345 0.603625 0.258520
O O19 0.250000 0.750000 0.250000
O O20 0.236904 0.847699 0.300041
O O21 0.395731 0.197852 0.000000
#
# Coordination Sequence:
#
# PCOD8286954 Si02
#       8
#    16  16  16  16  16  16  16  16
#     4  10  17  26  41  60  84 110 138 169 202 244
#     4   9  15  23  38  59  79 103 136 166 192 231
#     4  10  18  26  39  59  82 111 137 164 200 243
#     4   9  18  30  43  59  81 112 145 174 209 251
#     4  10  20  31  44  60  77 102 141 189 227 249
#     4  10  17  26  38  57  80 108 138 164 193 247
#     4  10  17  27  42  56  79 109 136 167 207 251
#     4   9  15  23  36  56  80 105 133 163 193 232
#
# _framework density 14.444939
#
# number of rings (size 3 to 8) (size 9 to 14) (size 15 to 20)
#    0.000    2.375    3.750    3.750    0.000    2.500 
#    0.000    1.250    0.000    0.375    0.000    1.750 
#    0.000    0.500    0.000    0.000    0.000    7.000 
#
# Total GULP energy -792906.844088 kJ/mol
# GULP energy per Si atom -12389.169439 kJ/mol
# Density = 1.441206 g / cm^3
# Si number density = 14.444939 Si / 1000 Ang^3
#
#
#
# Elastic Constant Matrix: (Units=GPa)
#
#
# Indices 1 2 3 4 5 6 
#
# 1 92.6127 31.8143 41.2819 0.0000 0.0000 0.0000
# 2 31.8143 41.8497 32.0327 0.0000 0.0000 0.0000
# 3 41.2819 32.0327 101.5423 -0.0001 0.0000 0.0000
# 4 0.0000 0.0000 -0.0001 10.3304 0.0000 0.0000
# 5 0.0000 0.0000 0.0000 0.0000 23.5289 0.0000
# 6 0.0000 0.0000 0.0000 0.0000 0.0000 11.6846
#
#
#
# Elastic Compliance Matrix: (Units=1/GPa)
#
#
# Indices 1 2 3 4 5 6 
#
# 1 0.015455 -0.009148 -0.003397 0.000000 0.000000 0.000000
# 2 -0.009148 0.036917 -0.007927 0.000000 0.000000 0.000000
# 3 -0.003397 -0.007927 0.013730 0.000000 0.000000 0.000000
# 4 0.000000 0.000000 0.000000 0.096802 0.000000 0.000000
# 5 0.000000 0.000000 0.000000 0.000000 0.042501 0.000000
# 6 0.000000 0.000000 0.000000 0.000000 0.000000 0.085583
#
#
# Mechanical properties :
#
#
# Convention : Reuss Voigt Hill
#
# Bulk Modulus (GPa) = 39.75029 49.58470 44.66750
# Shear Modulus (GPa) = 14.69219 17.83383 16.26301
#
# Velocity S-wave (km/s) = 3.19269 3.51751 3.35903
# Velocity P-wave (km/s) = 6.41633 7.13431 6.78482
#
# Compressibility (1/GPa) = 0.02515705
#
# Stress axis : x y z
#
# Youngs Moduli (GPa) = 64.70592 27.08786 72.83483
#
# Poissons Ratio (x) = 0.24781 0.24742
# Poissons Ratio (y) = 0.59196 0.57733
# Poissons Ratio (z) = 0.21981 0.21471
#
# Static dielectric constant tensor:
#      x y z
#    x 2.990000 0.000000 0.000000 
#    y 0.000000 2.258930 0.000000 
#    z 0.000000 0.000000 3.333770 
# 
# 
# High freq. dielectric constant tensor:
#      x y z
#    x 1.553030 0.000000 0.000000 
#    y 0.000000 1.465730 0.000000 
#    z 0.000000 0.000000 1.581010 
# 
# From -- ./inp_files/54460.got.cif
#   From: 2010.06.25/outbox.cif.g09.slc.cpg/sg71_28_cif.got.tgz:54460.got - 2010.06.28 04:59:45.
