data_PCOD8286334
_publ_section_title
;
Structure prediction by ZEFSAII (Michael W. Deem and Ramdas Pophale) SiO2 
 PCOD8286334
Probable space group: F D D D
;
_chemical_formula_sum "Si O2"
_cell_formula_units_Z 160
_cell_length_a 17.881867
_cell_length_b 15.146346
_cell_length_c 30.704488
_cell_angle_alpha 90.000000
_cell_angle_beta 90.000000
_cell_angle_gamma 90.000000
_cell_volume 8316.155355
_symmetry_space_group_name_H-M "F D D D"
_symmetry_group_IT_number 70
_space_group.IT_coordinate_system_code '2'
_symmetry_cell_setting 'orthorhombic'
loop_
_space_group_symop_operation_xyz
x,y,z
1/4-x,1/4-y,z
x,1/4-y,1/4-z
1/4-x,y,1/4-z
-x,-y,-z
3/4+x,3/4+y,-z
-x,3/4+y,3/4+z
3/4+x,-y,3/4+z
x,1/2+y,1/2+z
1/4-x,3/4-y,1/2+z
x,3/4-y,3/4-z
1/4-x,1/2+y,3/4-z
-x,1/2-y,1/2-z
3/4+x,1/4+y,1/2-z
-x,1/4+y,1/4+z
3/4+x,1/2-y,1/4+z
1/2+x,y,1/2+z
3/4-x,1/4-y,1/2+z
1/2+x,1/4-y,3/4-z
3/4-x,y,3/4-z
1/2-x,-y,1/2-z
1/4+x,3/4+y,1/2-z
1/2-x,3/4+y,1/4+z
1/4+x,-y,1/4+z
1/2+x,1/2+y,z
3/4-x,3/4-y,z
1/2+x,3/4-y,1/4-z
3/4-x,1/2+y,1/4-z
1/2-x,1/2-y,-z
1/4+x,1/4+y,-z
1/2-x,1/4+y,3/4+z
1/4+x,1/2-y,3/4+z
loop_
_atom_site_type_symbol
_atom_site_label
_atom_site_fract_x
_atom_site_fract_y
_atom_site_fract_z
Si Si1 0.750911 0.375000 0.375000
Si Si2 0.757784 0.474735 0.919308
Si Si3 0.373011 0.121346 0.196420
Si Si4 0.012196 0.219530 0.678675
Si Si5 0.129821 0.397768 0.043592
Si Si6 0.375000 0.020151 0.375000
O O1 0.701976 0.367009 0.331166
O O2 0.800837 0.288138 0.378940
O O3 0.668717 0.463492 0.927830
O O4 0.770387 0.507015 0.870139
O O5 0.796838 0.379778 0.929212
O O6 0.794239 0.547570 0.949831
O O7 0.424303 0.210604 0.191902
O O8 0.358003 0.101473 0.247135
O O9 0.057848 0.286694 0.709160
O O10 0.117665 0.326841 0.081224
#
# Coordination Sequence:
#
# PCOD8286334 Si02
#       6
#    16  32  32  32  32  16
#     4  11  24  52  56  79 118 168 202 239 314 352
#     4   9  18  35  61  91 120 164 178 239 309 348
#     4  10  22  38  66  84 124 162 192 245 295 360
#     4   9  17  37  60  92 124 159 183 235 310 345
#     4  12  21  37  61 100 118 146 210 245 287 356
#     4  11  28  40  67  80 116 160 203 260 292 351
#
# _framework density 19.239660000000001
#
# number of rings (size 3 to 8) (size 9 to 14) (size 15 to 20)
#    1.200    0.600    4.000    1.200    2.800    2.400 
#    0.000    4.000    0.000    0.000    0.000    0.000 
#    0.000    0.000    0.000    0.000    0.000    0.000 
#
# Total GULP energy -495614.951066 kJ/mol
# GULP energy per Si atom -12390.373777 kJ/mol
# Density = 1.919587 g / cm^3
# Si number density = 19.239660 Si / 1000 Ang^3
#
#
#
# Elastic Constant Matrix: (Units=GPa)
#
#
# Indices 1 2 3 4 5 6 
#
# 1 105.8205 32.7336 26.6865 0.0000 0.0000 0.0000
# 2 32.7336 62.4072 29.8598 0.0000 0.0000 0.0000
# 3 26.6865 29.8598 121.9857 0.0000 0.0000 0.0000
# 4 0.0000 0.0000 0.0000 19.3199 0.0000 0.0000
# 5 0.0000 0.0000 0.0000 0.0000 22.9265 0.0000
# 6 0.0000 0.0000 0.0000 0.0000 0.0000 -77.8085
#
#
#
# Elastic Compliance Matrix: (Units=1/GPa)
#
#
# Indices 1 2 3 4 5 6 
#
# 1 0.011426 -0.005433 -0.001170 0.000000 0.000000 0.000000
# 2 -0.005433 0.020733 -0.003886 0.000000 0.000000 0.000000
# 3 -0.001170 -0.003886 0.009405 0.000000 0.000000 0.000000
# 4 0.000000 0.000000 0.000000 0.051760 0.000000 0.000000
# 5 0.000000 0.000000 0.000000 0.000000 0.043618 0.000000
# 6 0.000000 0.000000 0.000000 0.000000 0.000000 -0.012852
#
#
# Mechanical properties :
#
#
# Convention : Reuss Voigt Hill
#
# Bulk Modulus (GPa) = 48.57913 52.08592 50.33253
# Shear Modulus (GPa) = 32.90995 6.28315 19.59655
#
# Velocity S-wave (km/s) = 4.14034 1.80909 3.19493
# Velocity P-wave (km/s) = 6.93980 5.61201 6.31092
#
# Compressibility (1/GPa) = 0.02058497
#
# Stress axis : x y z
#
# Youngs Moduli (GPa) = 87.52275 48.23186 106.32777
#
# Poissons Ratio (x) = 0.26206 0.12436
# Poissons Ratio (y) = 0.47554 0.41324
# Poissons Ratio (z) = 0.10236 0.18745
#
# Static dielectric constant tensor:
#      x y z
#    x 3.391640 0.000000 0.000000 
#    y 0.000000 3.207350 0.000000 
#    z 0.000000 0.000000 3.433860 
# 
# 
# High freq. dielectric constant tensor:
#      x y z
#    x 1.742560 0.000000 0.000000 
#    y 0.000000 1.715240 0.000000 
#    z 0.000000 0.000000 1.755030 
# 
# From -- ./inp_files/66557.got.cif
#   From: 2010.03.12/outbox.cif.g09.slc.cpg/sg70_34_cif.got.tgz:66557.got - 2010.04.16 13:46:32.
