data_PCOD8286209
_publ_section_title
;
Structure prediction by ZEFSAII (Michael W. Deem and Ramdas Pophale) SiO2 
 PCOD8286209
Probable space group: F D D D
;
_chemical_formula_sum "Si O2"
_cell_formula_units_Z 168
_cell_length_a 21.999325
_cell_length_b 15.158374
_cell_length_c 22.826097
_cell_angle_alpha 90.000000
_cell_angle_beta 90.000000
_cell_angle_gamma 90.000000
_cell_volume 7611.909782
_symmetry_space_group_name_H-M "F D D D"
_symmetry_group_IT_number 70
_space_group.IT_coordinate_system_code '2'
_symmetry_cell_setting 'orthorhombic'
loop_
_space_group_symop_operation_xyz
x,y,z
1/4-x,1/4-y,z
x,1/4-y,1/4-z
1/4-x,y,1/4-z
-x,-y,-z
3/4+x,3/4+y,-z
-x,3/4+y,3/4+z
3/4+x,-y,3/4+z
x,1/2+y,1/2+z
1/4-x,3/4-y,1/2+z
x,3/4-y,3/4-z
1/4-x,1/2+y,3/4-z
-x,1/2-y,1/2-z
3/4+x,1/4+y,1/2-z
-x,1/4+y,1/4+z
3/4+x,1/2-y,1/4+z
1/2+x,y,1/2+z
3/4-x,1/4-y,1/2+z
1/2+x,1/4-y,3/4-z
3/4-x,y,3/4-z
1/2-x,-y,1/2-z
1/4+x,3/4+y,1/2-z
1/2-x,3/4+y,1/4+z
1/4+x,-y,1/4+z
1/2+x,1/2+y,z
3/4-x,3/4-y,z
1/2+x,3/4-y,1/4-z
3/4-x,1/2+y,1/4-z
1/2-x,1/2-y,-z
1/4+x,1/4+y,-z
1/2-x,1/4+y,3/4+z
1/4+x,1/2-y,3/4+z
loop_
_atom_site_type_symbol
_atom_site_label
_atom_site_fract_x
_atom_site_fract_y
_atom_site_fract_z
Si Si1 0.125000 0.125000 0.236962
Si Si2 0.027987 0.118667 0.334848
Si Si3 0.596912 0.809722 0.186138
Si Si4 0.166430 0.305212 0.488481
Si Si5 0.983249 0.768807 0.337240
Si Si6 0.125000 0.125000 0.434029
Si Si7 0.625000 0.125000 0.125000
O O1 0.066957 0.106627 0.276962
O O2 0.116558 0.209484 0.196061
O O3 0.067347 0.145313 0.391833
O O4 0.976054 0.189973 0.320081
O O5 0.994769 0.025573 0.349565
O O6 0.625000 0.845251 0.125000
O O7 0.617683 0.870832 0.241692
O O8 0.207309 0.328225 0.430348
O O9 0.219544 0.304688 0.538008
O O10 0.133860 0.211365 0.474464
O O11 0.919825 0.819952 0.334381
#
# Coordination Sequence:
#
# PCOD8286209 Si02
#       7
#    16  32  32  32  32  16   8
#     4  11  27  44  70  92 129 179 235 267 328 376
#     4  10  22  45  65  95 136 172 216 281 321 392
#     4  12  24  44  66  95 131 176 225 279 320 388
#     4  10  21  40  64  96 133 173 209 265 333 389
#     4  10  21  37  62  97 136 167 211 263 329 400
#     4   9  21  42  70 100 136 168 214 268 336 402
#     4  12  22  32  62 104 132 168 208 256 328 412
#
# _framework density 22.070675999999999
#
# number of rings (size 3 to 8) (size 9 to 14) (size 15 to 20)
#    0.000    1.524    1.905    2.571    2.667    1.524 
#    0.000    1.905    0.000    0.000    0.000    0.000 
#    0.000    0.000    0.000    0.000    0.000    0.000 
#
# Total GULP energy -520331.074572 kJ/mol
# GULP energy per Si atom -12388.835109 kJ/mol
# Density = 2.202044 g / cm^3
# Si number density = 22.070676 Si / 1000 Ang^3
#
#
#
# Elastic Constant Matrix: (Units=GPa)
#
#
# Indices 1 2 3 4 5 6 
#
# 1 154.5797 56.2468 42.1399 0.0000 0.0000 0.0000
# 2 56.2468 118.8928 39.2620 0.0000 0.0000 0.0000
# 3 42.1399 39.2620 74.5490 0.0000 0.0000 0.0000
# 4 0.0000 0.0000 0.0000 27.9154 0.0000 0.0000
# 5 0.0000 0.0000 0.0000 0.0000 11.9897 0.0000
# 6 0.0000 0.0000 0.0000 0.0000 0.0000 72.2036
#
#
#
# Elastic Compliance Matrix: (Units=1/GPa)
#
#
# Indices 1 2 3 4 5 6 
#
# 1 0.008407 -0.002915 -0.003217 0.000000 0.000000 0.000000
# 2 -0.002915 0.011192 -0.004247 0.000000 0.000000 0.000000
# 3 -0.003217 -0.004247 0.017469 0.000000 0.000000 0.000000
# 4 0.000000 0.000000 0.000000 0.035822 0.000000 0.000000
# 5 0.000000 0.000000 0.000000 0.000000 0.083405 0.000000
# 6 0.000000 0.000000 0.000000 0.000000 0.000000 0.013850
#
#
# Mechanical properties :
#
#
# Convention : Reuss Voigt Hill
#
# Bulk Modulus (GPa) = 61.30879 69.25765 65.28322
# Shear Modulus (GPa) = 25.46607 36.44661 30.95634
#
# Velocity S-wave (km/s) = 3.40051 4.06810 3.74919
# Velocity P-wave (km/s) = 6.57698 7.31533 6.95596
#
# Compressibility (1/GPa) = 0.01631088
#
# Stress axis : x y z
#
# Youngs Moduli (GPa) = 118.95239 89.34671 57.24400
#
# Poissons Ratio (x) = 0.26043 0.18415
# Poissons Ratio (y) = 0.34672 0.24311
# Poissons Ratio (z) = 0.38266 0.37945
#
# Static dielectric constant tensor:
#      x y z
#    x 4.190510 0.000000 0.000000 
#    y 0.000000 3.665660 0.000000 
#    z 0.000000 0.000000 3.816480 
# 
# 
# High freq. dielectric constant tensor:
#      x y z
#    x 1.885230 0.000000 0.000000 
#    y 0.000000 1.839440 0.000000 
#    z 0.000000 0.000000 1.873610 
# 
# From -- ./inp_files/53706.got.cif
#   From: 2010.03.12/outbox.cif.g09.slc.cpg/sg70_27_cif.got.tgz:53706.got - 2010.04.16 13:46:32.
