data_PCOD8286900
_publ_section_title
;
Structure prediction by ZEFSAII (Michael W. Deem and Ramdas Pophale) SiO2 
 PCOD8286900
Probable space group: I M M M
;
_chemical_formula_sum "Si O2"
_cell_formula_units_Z 72
_cell_length_a 8.883416
_cell_length_b 28.231904
_cell_length_c 19.043399
_cell_angle_alpha 90.000000
_cell_angle_beta 90.000000
_cell_angle_gamma 90.000000
_cell_volume 4776.003491
_symmetry_space_group_name_H-M "I M M M"
_symmetry_group_IT_number 71
_symmetry_cell_setting 'orthorhombic'
loop_
_space_group_symop_operation_xyz
x,y,z
-x,-y,z
x,-y,-z
-x,y,-z
-x,-y,-z
x,y,-z
-x,y,z
x,-y,z
1/2+x,1/2+y,1/2+z
1/2-x,1/2-y,1/2+z
1/2+x,1/2-y,1/2-z
1/2-x,1/2+y,1/2-z
1/2-x,1/2-y,1/2-z
1/2+x,1/2+y,1/2-z
1/2-x,1/2+y,1/2+z
1/2+x,1/2-y,1/2+z
loop_
_atom_site_type_symbol
_atom_site_label
_atom_site_fract_x
_atom_site_fract_y
_atom_site_fract_z
Si Si1 0.324447 0.272490 0.643245
Si Si2 0.821952 0.340919 0.000000
Si Si3 0.677249 0.240245 0.000000
Si Si4 0.822441 0.401045 0.132008
Si Si5 0.319902 0.000000 0.581040
Si Si6 0.676452 0.820076 0.270035
O O1 0.500000 0.278817 0.630490
O O2 0.241658 0.283993 0.570317
O O3 0.286605 0.219504 0.670733
O O4 0.270021 0.310882 0.699929
O O5 0.769653 0.370877 0.933885
O O6 0.725477 0.294192 0.000000
O O7 0.000000 0.328483 0.000000
O O8 0.500000 0.234516 0.000000
O O9 0.756369 0.454232 0.123775
O O10 0.772489 0.372051 0.201611
O O11 0.000000 0.404895 0.131176
O O12 0.500000 0.000000 0.579856
O O13 0.262737 0.000000 0.500000
O O14 0.500000 0.818356 0.252116
#
# Coordination Sequence:
#
# PCOD8286900 Si02
#       6
#    16   8   8  16   8  16
#     4  10  19  31  46  62  84 113 147 182 220 263
#     4  10  16  27  42  60  86 120 153 185 222 253
#     4  12  22  30  43  65  89 113 147 184 220 265
#     4   9  15  24  40  61  89 119 150 188 222 253
#     4   9  14  20  36  64  92 117 150 187 220 250
#     4   9  17  29  43  61  87 116 147 183 222 257
#
# _framework density 15.075366000000001
#
# number of rings (size 3 to 8) (size 9 to 14) (size 15 to 20)
#    0.000    2.333    3.333    1.667    0.000    0.889 
#    0.000    0.000    0.000    0.000    0.000    3.889 
#    0.000    0.889    0.000   10.444    0.000    2.000 
#
# Total GULP energy -446171.276437 kJ/mol
# GULP energy per Si atom -12393.646568 kJ/mol
# Density = 1.504105 g / cm^3
# Si number density = 15.075366 Si / 1000 Ang^3
#
#
#
# Elastic Constant Matrix: (Units=GPa)
#
#
# Indices 1 2 3 4 5 6 
#
# 1 52.9927 17.4130 42.5750 0.0000 0.0000 0.0000
# 2 17.4130 93.2755 46.3369 0.0001 0.0000 0.0000
# 3 42.5750 46.3369 103.7313 0.0003 0.0000 0.0000
# 4 0.0000 0.0001 0.0003 7.3776 0.0000 0.0000
# 5 0.0000 0.0000 0.0000 0.0000 22.1734 0.0000
# 6 0.0000 0.0000 0.0000 0.0000 0.0000 12.1123
#
#
#
# Elastic Compliance Matrix: (Units=1/GPa)
#
#
# Indices 1 2 3 4 5 6 
#
# 1 0.028183 0.000623 -0.011846 0.000000 0.000000 0.000000
# 2 0.000623 0.013792 -0.006417 0.000000 0.000000 0.000000
# 3 -0.011846 -0.006417 0.017369 -0.000001 0.000000 0.000000
# 4 0.000000 0.000000 -0.000001 0.135545 0.000000 0.000000
# 5 0.000000 0.000000 0.000000 0.000000 0.045099 0.000000
# 6 0.000000 0.000000 0.000000 0.000000 0.000000 0.082561
#
#
# Mechanical properties :
#
#
# Convention : Reuss Voigt Hill
#
# Bulk Modulus (GPa) = 41.55373 51.40547 46.47960
# Shear Modulus (GPa) = 13.66687 17.91098 15.78892
#
# Velocity S-wave (km/s) = 3.01420 3.45062 3.23976
# Velocity P-wave (km/s) = 6.30378 7.07451 6.70024
#
# Compressibility (1/GPa) = 0.02406523
#
# Stress axis : x y z
#
# Youngs Moduli (GPa) = 35.48295 72.50424 57.57526
#
# Poissons Ratio (x) = -0.04520 0.68201
# Poissons Ratio (y) = -0.02212 0.36945
# Poissons Ratio (z) = 0.42032 0.46525
#
# Static dielectric constant tensor:
#      x y z
#    x 2.650470 0.000000 0.000000 
#    y 0.000000 3.032800 0.000000 
#    z 0.000000 0.000000 2.866330 
# 
# 
# High freq. dielectric constant tensor:
#      x y z
#    x 1.553270 0.000000 0.000000 
#    y 0.000000 1.551960 0.000000 
#    z 0.000000 0.000000 1.569420 
# 
# From -- ./inp_files/50723.got.cif
#   From: 2010.06.25/outbox.cif.g09.slc.cpg/sg71_26_cif.got.tgz:50723.got - 2010.06.28 04:59:45.
