data_PCOD8286610
_publ_section_title
;
Structure prediction by ZEFSAII (Michael W. Deem and Ramdas Pophale) SiO2 
 PCOD8286610
Probable space group: F D D D
;
_chemical_formula_sum "Si O2"
_cell_formula_units_Z 176
_cell_length_a 12.245536
_cell_length_b 22.411611
_cell_length_c 26.789918
_cell_angle_alpha 90.000000
_cell_angle_beta 90.000000
_cell_angle_gamma 90.000000
_cell_volume 7352.283748
_symmetry_space_group_name_H-M "F D D D"
_symmetry_group_IT_number 70
_space_group.IT_coordinate_system_code '2'
_symmetry_cell_setting 'orthorhombic'
loop_
_space_group_symop_operation_xyz
x,y,z
1/4-x,1/4-y,z
x,1/4-y,1/4-z
1/4-x,y,1/4-z
-x,-y,-z
3/4+x,3/4+y,-z
-x,3/4+y,3/4+z
3/4+x,-y,3/4+z
x,1/2+y,1/2+z
1/4-x,3/4-y,1/2+z
x,3/4-y,3/4-z
1/4-x,1/2+y,3/4-z
-x,1/2-y,1/2-z
3/4+x,1/4+y,1/2-z
-x,1/4+y,1/4+z
3/4+x,1/2-y,1/4+z
1/2+x,y,1/2+z
3/4-x,1/4-y,1/2+z
1/2+x,1/4-y,3/4-z
3/4-x,y,3/4-z
1/2-x,-y,1/2-z
1/4+x,3/4+y,1/2-z
1/2-x,3/4+y,1/4+z
1/4+x,-y,1/4+z
1/2+x,1/2+y,z
3/4-x,3/4-y,z
1/2+x,3/4-y,1/4-z
3/4-x,1/2+y,1/4-z
1/2-x,1/2-y,-z
1/4+x,1/4+y,-z
1/2-x,1/4+y,3/4+z
1/4+x,1/2-y,3/4+z
loop_
_atom_site_type_symbol
_atom_site_label
_atom_site_fract_x
_atom_site_fract_y
_atom_site_fract_z
Si Si1 0.738326 0.728197 0.420717
Si Si2 0.506524 0.625245 0.044450
Si Si3 0.659837 0.291008 0.828634
Si Si4 0.625000 0.870376 0.625000
Si Si5 0.036343 0.075334 0.943166
Si Si6 0.323055 0.749945 0.750151
O O1 0.727961 0.782395 0.380142
O O2 0.770668 0.668430 0.392003
O O3 0.833426 0.742336 0.459125
O O4 0.624287 0.718751 0.450977
O O5 0.625000 0.625000 0.072392
O O6 0.408352 0.603332 0.080578
O O7 0.518762 0.573823 0.002485
O O8 0.478928 0.687181 0.016741
O O9 0.573671 0.237484 0.828299
O O10 0.732879 0.290253 0.778058
O O11 0.668018 0.911348 0.669511
O O12 0.125000 0.125000 0.928576
#
# Coordination Sequence:
#
# PCOD8286610 Si02
#       6
#    32  32  32  16  32  32
#     4  11  22  42  68  99 131 180 229 286 338 408
#     4  11  23  43  68  96 138 182 221 276 351 416
#     4  12  23  44  69  98 140 176 224 287 349 405
#     4  12  20  42  70  97 139 162 234 302 330 390
#     4  11  20  38  68  98 128 172 215 285 342 393
#     4  11  23  43  70  96 135 180 230 280 345 414
#
# _framework density 23.938140000000001
#
# number of rings (size 3 to 8) (size 9 to 14) (size 15 to 20)
#    0.000    0.727    9.091    0.545    0.000    2.182 
#    3.273    3.636    4.000    0.000    0.000    0.000 
#    0.000    0.000    0.000    0.000    0.000    0.000 
#
# Total GULP energy -545344.851176 kJ/mol
# GULP energy per Si atom -12394.201163 kJ/mol
# Density = 2.388366 g / cm^3
# Si number density = 23.938140 Si / 1000 Ang^3
#
#
#
# Elastic Constant Matrix: (Units=GPa)
#
#
# Indices 1 2 3 4 5 6 
#
# 1 137.9281 35.1216 46.6407 0.0000 0.0000 0.0000
# 2 35.1216 31.6817 15.1585 0.0000 0.0000 0.0000
# 3 46.6407 15.1585 88.1756 0.0000 0.0000 0.0000
# 4 0.0000 0.0000 0.0000 15.2847 0.0000 0.0000
# 5 0.0000 0.0000 0.0000 0.0000 32.5726 0.0000
# 6 0.0000 0.0000 0.0000 0.0000 0.0000 43.8528
#
#
#
# Elastic Compliance Matrix: (Units=1/GPa)
#
#
# Indices 1 2 3 4 5 6 
#
# 1 0.011365 -0.010594 -0.004190 0.000000 0.000000 0.000000
# 2 -0.010594 0.044268 -0.002007 0.000000 0.000000 0.000000
# 3 -0.004190 -0.002007 0.013902 0.000000 0.000000 0.000000
# 4 0.000000 0.000000 0.000000 0.065425 0.000000 0.000000
# 5 0.000000 0.000000 0.000000 0.000000 0.030701 0.000000
# 6 0.000000 0.000000 0.000000 0.000000 0.000000 0.022804
#
#
# Mechanical properties :
#
#
# Convention : Reuss Voigt Hill
#
# Bulk Modulus (GPa) = 27.81333 50.18079 38.99706
# Shear Modulus (GPa) = 21.36477 29.06631 25.21554
#
# Velocity S-wave (km/s) = 2.99071 3.48836 3.24908
# Velocity P-wave (km/s) = 4.85488 6.10189 5.51375
#
# Compressibility (1/GPa) = 0.03595398
#
# Stress axis : x y z
#
# Youngs Moduli (GPa) = 87.99229 22.58964 71.93021
#
# Poissons Ratio (x) = 0.23931 0.30140
# Poissons Ratio (y) = 0.93217 0.14434
# Poissons Ratio (z) = 0.36870 0.04533
#
# Static dielectric constant tensor:
#      x y z
#    x 4.756460 0.000000 0.000000 
#    y 0.000000 4.021000 0.000000 
#    z 0.000000 0.000000 4.720670 
# 
# 
# High freq. dielectric constant tensor:
#      x y z
#    x 1.962850 0.000000 0.000000 
#    y 0.000000 1.909920 0.000000 
#    z 0.000000 0.000000 1.959020 
# 
# From -- ./inp_files/64751.got.cif
#   From: 2010.03.12/outbox.cif.g09.slc.cpg/sg70_33_cif.got.tgz:64751.got - 2010.04.16 13:46:32.
