data_PCOD8286150
_publ_section_title
;
Structure prediction by ZEFSAII (Michael W. Deem and Ramdas Pophale) SiO2 
 PCOD8286150
Probable space group: F D D D
;
_chemical_formula_sum "Si O2"
_cell_formula_units_Z 168
_cell_length_a 25.510077
_cell_length_b 15.607263
_cell_length_c 19.950973
_cell_angle_alpha 90.000000
_cell_angle_beta 90.000000
_cell_angle_gamma 90.000000
_cell_volume 7943.329886
_symmetry_space_group_name_H-M "F D D D"
_symmetry_group_IT_number 70
_space_group.IT_coordinate_system_code '2'
_symmetry_cell_setting 'orthorhombic'
loop_
_space_group_symop_operation_xyz
x,y,z
1/4-x,1/4-y,z
x,1/4-y,1/4-z
1/4-x,y,1/4-z
-x,-y,-z
3/4+x,3/4+y,-z
-x,3/4+y,3/4+z
3/4+x,-y,3/4+z
x,1/2+y,1/2+z
1/4-x,3/4-y,1/2+z
x,3/4-y,3/4-z
1/4-x,1/2+y,3/4-z
-x,1/2-y,1/2-z
3/4+x,1/4+y,1/2-z
-x,1/4+y,1/4+z
3/4+x,1/2-y,1/4+z
1/2+x,y,1/2+z
3/4-x,1/4-y,1/2+z
1/2+x,1/4-y,3/4-z
3/4-x,y,3/4-z
1/2-x,-y,1/2-z
1/4+x,3/4+y,1/2-z
1/2-x,3/4+y,1/4+z
1/4+x,-y,1/4+z
1/2+x,1/2+y,z
3/4-x,3/4-y,z
1/2+x,3/4-y,1/4-z
3/4-x,1/2+y,1/4-z
1/2-x,1/2-y,-z
1/4+x,1/4+y,-z
1/2-x,1/4+y,3/4+z
1/4+x,1/2-y,3/4+z
loop_
_atom_site_type_symbol
_atom_site_label
_atom_site_fract_x
_atom_site_fract_y
_atom_site_fract_z
Si Si1 0.581519 0.222928 0.872734
Si Si2 0.305959 0.231613 0.432707
Si Si3 0.125000 0.414631 0.625000
Si Si4 0.991328 0.625000 0.625000
Si Si5 0.057500 0.539200 0.919169
Si Si6 0.420741 0.808029 0.283252
Si Si7 0.875000 0.875000 0.375000
O O1 0.545655 0.298606 0.900588
O O2 0.567626 0.141915 0.920112
O O3 0.643239 0.249441 0.878066
O O4 0.569600 0.204960 0.795181
O O5 0.335078 0.143712 0.416001
O O6 0.251070 0.228516 0.390268
O O7 0.301495 0.237663 0.512047
O O8 0.338178 0.316483 0.419013
O O9 0.157015 0.470382 0.678874
O O10 0.025712 0.597075 0.561689
O O11 0.375000 0.875000 0.297462
#
# Coordination Sequence:
#
# PCOD8286150 Si02
#       7
#    32  32  16  16  32  32   8
#     4  11  25  44  67 100 137 177 230 286 343 416
#     4  10  23  42  70  92 131 178 220 287 335 401
#     4  11  23  43  73 100 134 178 233 277 349 417
#     4  12  25  41  68 102 137 187 228 278 356 412
#     4  10  22  46  62  96 133 172 226 281 340 400
#     4  12  23  46  66 101 143 177 227 289 346 416
#     4  10  20  42  58  96 120 168 222 262 330 390
#
# _framework density 21.149820999999999
#
# number of rings (size 3 to 8) (size 9 to 14) (size 15 to 20)
#    0.000    1.143    3.810    2.857    2.667    0.762 
#   10.286    0.000    0.000    0.000    0.000    0.000 
#    0.000    0.000    0.000    0.000    0.000    0.000 
#
# Total GULP energy -520509.850677 kJ/mol
# GULP energy per Si atom -12393.091683 kJ/mol
# Density = 2.110168 g / cm^3
# Si number density = 21.149821 Si / 1000 Ang^3
#
#
#
# Elastic Constant Matrix: (Units=GPa)
#
#
# Indices 1 2 3 4 5 6 
#
# 1 187.9872 79.1609 46.2942 0.0000 0.0000 0.0000
# 2 79.1609 136.6658 39.6835 0.0000 0.0000 0.0000
# 3 46.2942 39.6835 88.9102 0.0000 0.0000 0.0000
# 4 0.0000 0.0000 0.0000 -7.5838 0.0000 0.0000
# 5 0.0000 0.0000 0.0000 0.0000 313.4787 0.0000
# 6 0.0000 0.0000 0.0000 0.0000 0.0000 59.4881
#
#
#
# Elastic Compliance Matrix: (Units=1/GPa)
#
#
# Indices 1 2 3 4 5 6 
#
# 1 0.007401 -0.003640 -0.002229 0.000000 0.000000 0.000000
# 2 -0.003640 0.010197 -0.002656 0.000000 0.000000 0.000000
# 3 -0.002229 -0.002656 0.013593 0.000000 0.000000 0.000000
# 4 0.000000 0.000000 0.000000 -0.131859 0.000000 0.000000
# 5 0.000000 0.000000 0.000000 0.000000 0.003190 0.000000
# 6 0.000000 0.000000 0.000000 0.000000 0.000000 0.016810
#
#
# Mechanical properties :
#
#
# Convention : Reuss Voigt Hill
#
# Bulk Modulus (GPa) = 70.71348 82.64895 76.68121
# Shear Modulus (GPa) = -84.88248 89.63822 2.37787
#
# Velocity S-wave (km/s) = -6.34201 6.51725 1.06148
# Velocity P-wave (km/s) = 4.48563 9.78751 6.15120
#
# Compressibility (1/GPa) = 0.01414158
#
# Stress axis : x y z
#
# Youngs Moduli (GPa) = 135.11458 98.07268 73.56506
#
# Poissons Ratio (x) = 0.35695 0.16399
# Poissons Ratio (y) = 0.49177 0.19538
# Poissons Ratio (z) = 0.30119 0.26047
#
# Static dielectric constant tensor:
#      x y z
#    x 4.623470 0.000000 0.000000 
#    y 0.000000 3.860890 0.000000 
#    z 0.000000 0.000000 3.614070 
# 
# 
# High freq. dielectric constant tensor:
#      x y z
#    x 1.857300 0.000000 0.000000 
#    y 0.000000 1.833540 0.000000 
#    z 0.000000 0.000000 1.811140 
# 
# From -- ./inp_files/46817.got.cif
#   From: 2010.03.12/outbox.cif.g09.slc.cpg/sg70_24_cif.got.tgz:46817.got - 2010.04.16 13:46:32.
