data_PCOD8286262
_publ_section_title
;
Structure prediction by ZEFSAII (Michael W. Deem and Ramdas Pophale) SiO2 
 PCOD8286262
Probable space group: F D D D
;
_chemical_formula_sum "Si O2"
_cell_formula_units_Z 192
_cell_length_a 18.122092
_cell_length_b 18.757828
_cell_length_c 26.964173
_cell_angle_alpha 90.000000
_cell_angle_beta 90.000000
_cell_angle_gamma 90.000000
_cell_volume 9165.960577
_symmetry_space_group_name_H-M "F D D D"
_symmetry_group_IT_number 70
_space_group.IT_coordinate_system_code '2'
_symmetry_cell_setting 'orthorhombic'
loop_
_space_group_symop_operation_xyz
x,y,z
1/4-x,1/4-y,z
x,1/4-y,1/4-z
1/4-x,y,1/4-z
-x,-y,-z
3/4+x,3/4+y,-z
-x,3/4+y,3/4+z
3/4+x,-y,3/4+z
x,1/2+y,1/2+z
1/4-x,3/4-y,1/2+z
x,3/4-y,3/4-z
1/4-x,1/2+y,3/4-z
-x,1/2-y,1/2-z
3/4+x,1/4+y,1/2-z
-x,1/4+y,1/4+z
3/4+x,1/2-y,1/4+z
1/2+x,y,1/2+z
3/4-x,1/4-y,1/2+z
1/2+x,1/4-y,3/4-z
3/4-x,y,3/4-z
1/2-x,-y,1/2-z
1/4+x,3/4+y,1/2-z
1/2-x,3/4+y,1/4+z
1/4+x,-y,1/4+z
1/2+x,1/2+y,z
3/4-x,3/4-y,z
1/2+x,3/4-y,1/4-z
3/4-x,1/2+y,1/4-z
1/2-x,1/2-y,-z
1/4+x,1/4+y,-z
1/2-x,1/4+y,3/4+z
1/4+x,1/2-y,3/4+z
loop_
_atom_site_type_symbol
_atom_site_label
_atom_site_fract_x
_atom_site_fract_y
_atom_site_fract_z
Si Si1 0.950849 0.616017 0.294689
Si Si2 0.402001 0.641651 0.039342
Si Si3 0.430859 0.487749 0.417747
Si Si4 0.375000 0.716162 0.375000
Si Si5 0.405715 0.303154 0.514525
Si Si6 0.195905 0.660532 0.572425
Si Si7 0.043881 0.875000 0.375000
O O1 0.874365 0.621914 0.265315
O O2 0.976292 0.697014 0.307458
O O3 0.936730 0.578811 0.346917
O O4 0.007526 0.572288 0.260217
O O5 0.481625 0.603638 0.040339
O O6 0.348272 0.605641 0.079700
O O7 0.400694 0.728605 0.044943
O O8 0.375000 0.514464 0.375000
O O9 0.383238 0.448957 0.460704
O O10 0.491634 0.438526 0.392509
O O11 0.326686 0.758526 0.416027
O O12 0.375000 0.375000 0.542835
O O13 0.125000 0.625000 0.545381
O O14 0.211707 0.625000 0.625000
#
# Coordination Sequence:
#
# PCOD8286262 Si02
#       7
#    32  32  32  16  32  32  16
#     4  11  23  39  62  93 126 166 211 261 318 381
#     4  11  23  38  63  96 122 159 219 262 306 388
#     4  11  22  39  60  90 128 165 209 255 318 380
#     4  10  21  40  64  83 126 168 202 260 324 371
#     4  11  22  39  62  91 127 168 205 261 319 378
#     4   9  18  37  64  89 116 161 209 250 313 377
#     4  12  23  38  63  90 118 166 210 260 315 382
#
# _framework density 20.947068000000002
#
# number of rings (size 3 to 8) (size 9 to 14) (size 15 to 20)
#    0.000    1.500    1.667    6.250    0.000    3.333 
#    0.000    0.000    0.000    1.000    0.000    0.000 
#    0.000    0.000    0.000    0.000    0.000    0.000 
#
# Total GULP energy -594686.419611 kJ/mol
# GULP energy per Si atom -12389.300409 kJ/mol
# Density = 2.089939 g / cm^3
# Si number density = 20.947068 Si / 1000 Ang^3
#
#
#
# Elastic Constant Matrix: (Units=GPa)
#
#
# Indices 1 2 3 4 5 6 
#
# 1 137.7109 61.9224 44.7710 0.0000 0.0000 0.0000
# 2 61.9224 121.5772 44.5199 0.0000 0.0000 0.0000
# 3 44.7710 44.5199 66.1658 0.0000 0.0000 0.0000
# 4 0.0000 0.0000 0.0000 15.5415 0.0000 0.0000
# 5 0.0000 0.0000 0.0000 0.0000 29.5844 0.0000
# 6 0.0000 0.0000 0.0000 0.0000 0.0000 19.0085
#
#
#
# Elastic Compliance Matrix: (Units=1/GPa)
#
#
# Indices 1 2 3 4 5 6 
#
# 1 0.010375 -0.003601 -0.004598 0.000000 0.000000 0.000000
# 2 -0.003601 0.012164 -0.005748 0.000000 0.000000 0.000000
# 3 -0.004598 -0.005748 0.022092 0.000000 0.000000 0.000000
# 4 0.000000 0.000000 0.000000 0.064344 0.000000 0.000000
# 5 0.000000 0.000000 0.000000 0.000000 0.033802 0.000000
# 6 0.000000 0.000000 0.000000 0.000000 0.000000 0.052608
#
#
# Mechanical properties :
#
#
# Convention : Reuss Voigt Hill
#
# Bulk Modulus (GPa) = 59.74283 69.76450 64.75367
# Shear Modulus (GPa) = 21.84757 24.44291 23.14524
#
# Velocity S-wave (km/s) = 3.23304 3.41968 3.32767
# Velocity P-wave (km/s) = 6.52070 6.99784 6.76348
#
# Compressibility (1/GPa) = 0.01673841
#
# Stress axis : x y z
#
# Youngs Moduli (GPa) = 96.38092 82.20880 45.26480
#
# Poissons Ratio (x) = 0.29603 0.20811
# Poissons Ratio (y) = 0.34706 0.26019
# Poissons Ratio (z) = 0.44313 0.47255
#
# Static dielectric constant tensor:
#      x y z
#    x 4.036890 0.000000 0.000000 
#    y 0.000000 3.990490 0.000000 
#    z 0.000000 0.000000 3.583980 
# 
# 
# High freq. dielectric constant tensor:
#      x y z
#    x 1.827520 0.000000 0.000000 
#    y 0.000000 1.825720 0.000000 
#    z 0.000000 0.000000 1.796030 
# 
# From -- ./inp_files/66705.got.cif
#   From: 2010.03.12/outbox.cif.g09.slc.cpg/sg70_34_cif.got.tgz:66705.got - 2010.04.16 13:46:32.
