data_PCOD8286284
_publ_section_title
;
Structure prediction by ZEFSAII (Michael W. Deem and Ramdas Pophale) SiO2 
 PCOD8286284
Probable space group: F D D D
;
_chemical_formula_sum "Si O2"
_cell_formula_units_Z 192
_cell_length_a 30.101057
_cell_length_b 18.197614
_cell_length_c 16.157945
_cell_angle_alpha 90.000000
_cell_angle_beta 90.000000
_cell_angle_gamma 90.000000
_cell_volume 8850.795785
_symmetry_space_group_name_H-M "F D D D"
_symmetry_group_IT_number 70
_space_group.IT_coordinate_system_code '2'
_symmetry_cell_setting 'orthorhombic'
loop_
_space_group_symop_operation_xyz
x,y,z
1/4-x,1/4-y,z
x,1/4-y,1/4-z
1/4-x,y,1/4-z
-x,-y,-z
3/4+x,3/4+y,-z
-x,3/4+y,3/4+z
3/4+x,-y,3/4+z
x,1/2+y,1/2+z
1/4-x,3/4-y,1/2+z
x,3/4-y,3/4-z
1/4-x,1/2+y,3/4-z
-x,1/2-y,1/2-z
3/4+x,1/4+y,1/2-z
-x,1/4+y,1/4+z
3/4+x,1/2-y,1/4+z
1/2+x,y,1/2+z
3/4-x,1/4-y,1/2+z
1/2+x,1/4-y,3/4-z
3/4-x,y,3/4-z
1/2-x,-y,1/2-z
1/4+x,3/4+y,1/2-z
1/2-x,3/4+y,1/4+z
1/4+x,-y,1/4+z
1/2+x,1/2+y,z
3/4-x,3/4-y,z
1/2+x,3/4-y,1/4-z
3/4-x,1/2+y,1/4-z
1/2-x,1/2-y,-z
1/4+x,1/4+y,-z
1/2-x,1/4+y,3/4+z
1/4+x,1/2-y,3/4+z
loop_
_atom_site_type_symbol
_atom_site_label
_atom_site_fract_x
_atom_site_fract_y
_atom_site_fract_z
Si Si1 0.634232 0.375000 0.375000
Si Si2 0.929267 0.261460 0.054335
Si Si3 0.421775 0.903981 0.148679
Si Si4 0.339741 0.276438 0.481695
Si Si5 0.339758 0.633817 0.301943
Si Si6 0.979602 0.514031 0.238045
Si Si7 0.722161 0.625000 0.625000
O O1 0.662655 0.448025 0.385808
O O2 0.607638 0.392339 0.291248
O O3 0.943630 0.333954 0.104751
O O4 0.894437 0.280637 0.977261
O O5 0.974941 0.229771 0.020317
O O6 0.375000 0.875000 0.185921
O O7 0.451809 0.940623 0.218032
O O8 0.415078 0.969474 0.081419
O O9 0.323137 0.200635 0.440357
O O10 0.311142 0.342310 0.443934
O O11 0.375000 0.652445 0.375000
O O12 0.297791 0.688742 0.306767
O O13 0.993946 0.565153 0.161033
#
# Coordination Sequence:
#
# PCOD8286284 Si02
#       7
#    16  32  32  32  32  32  16
#     4  10  23  50  65  92 133 185 216 283 350 407
#     4  10  23  41  66  93 134 175 231 275 352 407
#     4  10  21  42  64  89 137 180 224 278 352 400
#     4  10  23  39  60  97 139 187 201 269 348 423
#     4  11  25  43  69  94 136 183 234 274 343 408
#     4  12  25  39  64 103 128 177 230 288 329 411
#     4  12  25  37  63 102 156 170 220 275 342 432
#
# _framework density 21.692964
#
# number of rings (size 3 to 8) (size 9 to 14) (size 15 to 20)
#    0.000    1.333    1.667    4.500    7.000    2.000 
#    0.000    5.000    0.000    1.000    0.000    0.000 
#    0.000    0.000    0.000    0.000    0.000    0.000 
#
# Total GULP energy -594632.825030 kJ/mol
# GULP energy per Si atom -12388.183855 kJ/mol
# Density = 2.164359 g / cm^3
# Si number density = 21.692964 Si / 1000 Ang^3
#
#
#
# Elastic Constant Matrix: (Units=GPa)
#
#
# Indices 1 2 3 4 5 6 
#
# 1 124.6675 40.4729 34.0500 0.0000 0.0000 0.0000
# 2 40.4729 88.8013 12.7688 0.0000 0.0000 0.0000
# 3 34.0500 12.7688 55.9776 0.0000 0.0000 0.0000
# 4 0.0000 0.0000 0.0000 24.6852 0.0000 0.0000
# 5 0.0000 0.0000 0.0000 0.0000 21.4247 0.0000
# 6 0.0000 0.0000 0.0000 0.0000 0.0000 38.6627
#
#
#
# Elastic Compliance Matrix: (Units=1/GPa)
#
#
# Indices 1 2 3 4 5 6 
#
# 1 0.010929 -0.004162 -0.005698 0.000000 0.000000 0.000000
# 2 -0.004162 0.013228 -0.000486 0.000000 0.000000 0.000000
# 3 -0.005698 -0.000486 0.021441 0.000000 0.000000 0.000000
# 4 0.000000 0.000000 0.000000 0.040510 0.000000 0.000000
# 5 0.000000 0.000000 0.000000 0.000000 0.046675 0.000000
# 6 0.000000 0.000000 0.000000 0.000000 0.000000 0.025865
#
#
# Mechanical properties :
#
#
# Convention : Reuss Voigt Hill
#
# Bulk Modulus (GPa) = 40.15108 49.33664 44.74386
# Shear Modulus (GPa) = 26.64653 29.09817 27.87235
#
# Velocity S-wave (km/s) = 3.50858 3.66644 3.58838
# Velocity P-wave (km/s) = 5.91291 6.38093 6.15137
#
# Compressibility (1/GPa) = 0.02490593
#
# Stress axis : x y z
#
# Youngs Moduli (GPa) = 91.50142 75.59894 46.63875
#
# Poissons Ratio (x) = 0.31461 0.26577
# Poissons Ratio (y) = 0.38079 0.02266
# Poissons Ratio (z) = 0.52142 0.03673
#
# Static dielectric constant tensor:
#      x y z
#    x 4.106550 0.000000 0.000000 
#    y 0.000000 4.005940 0.000000 
#    z 0.000000 0.000000 3.599370 
# 
# 
# High freq. dielectric constant tensor:
#      x y z
#    x 1.857550 0.000000 0.000000 
#    y 0.000000 1.859230 0.000000 
#    z 0.000000 0.000000 1.813770 
# 
# From -- ./inp_files/39759.got.cif
#   From: 2010.03.12/outbox.cif.g09.slc.cpg/sg70_20_cif.got.tgz:39759.got - 2010.04.16 13:46:32.
