data_PCOD8286349
_publ_section_title
;
Structure prediction by ZEFSAII (Michael W. Deem and Ramdas Pophale) SiO2 
 PCOD8286349
Probable space group: F D D D
;
_chemical_formula_sum "Si O2"
_cell_formula_units_Z 184
_cell_length_a 23.864528
_cell_length_b 24.109173
_cell_length_c 15.581722
_cell_angle_alpha 90.000000
_cell_angle_beta 90.000000
_cell_angle_gamma 90.000000
_cell_volume 8965.006611
_symmetry_space_group_name_H-M "F D D D"
_symmetry_group_IT_number 70
_space_group.IT_coordinate_system_code '2'
_symmetry_cell_setting 'orthorhombic'
loop_
_space_group_symop_operation_xyz
x,y,z
1/4-x,1/4-y,z
x,1/4-y,1/4-z
1/4-x,y,1/4-z
-x,-y,-z
3/4+x,3/4+y,-z
-x,3/4+y,3/4+z
3/4+x,-y,3/4+z
x,1/2+y,1/2+z
1/4-x,3/4-y,1/2+z
x,3/4-y,3/4-z
1/4-x,1/2+y,3/4-z
-x,1/2-y,1/2-z
3/4+x,1/4+y,1/2-z
-x,1/4+y,1/4+z
3/4+x,1/2-y,1/4+z
1/2+x,y,1/2+z
3/4-x,1/4-y,1/2+z
1/2+x,1/4-y,3/4-z
3/4-x,y,3/4-z
1/2-x,-y,1/2-z
1/4+x,3/4+y,1/2-z
1/2-x,3/4+y,1/4+z
1/4+x,-y,1/4+z
1/2+x,1/2+y,z
3/4-x,3/4-y,z
1/2+x,3/4-y,1/4-z
3/4-x,1/2+y,1/4-z
1/2-x,1/2-y,-z
1/4+x,1/4+y,-z
1/2-x,1/4+y,3/4+z
1/4+x,1/2-y,3/4+z
loop_
_atom_site_type_symbol
_atom_site_label
_atom_site_fract_x
_atom_site_fract_y
_atom_site_fract_z
Si Si1 0.706265 0.834033 0.152876
Si Si2 0.732994 0.816571 0.707130
Si Si3 0.102762 0.793665 0.753049
Si Si4 0.681195 0.047408 0.993107
Si Si5 0.954439 0.625000 0.625000
Si Si6 0.625000 0.625000 0.625000
Si Si7 0.358880 0.937620 0.585651
O O1 0.702614 0.896367 0.115311
O O2 0.659915 0.825067 0.225738
O O3 0.767670 0.821502 0.187625
O O4 0.693166 0.793593 0.072705
O O5 0.694583 0.762973 0.720115
O O6 0.741080 0.849844 0.797042
O O7 0.793353 0.800017 0.671843
O O8 0.083390 0.824965 0.838863
O O9 0.110327 0.728739 0.770306
O O10 0.626651 0.047130 0.932440
O O11 0.667715 0.087665 0.071165
O O12 0.375000 0.875000 0.560690
#
# Coordination Sequence:
#
# PCOD8286349 Si02
#       7
#    32  32  32  32  16   8  32
#     4  10  22  43  65  97 137 170 217 278 338 394
#     4  11  23  42  68  99 129 182 217 275 341 398
#     4  10  22  40  66  98 130 173 217 277 334 395
#     4  12  24  45  68  95 140 171 226 276 337 398
#     4  10  22  39  65  94 132 166 222 272 332 392
#     4  12  28  46  68 100 128 188 224 284 326 394
#     4  12  23  43  67  96 135 175 222 271 336 404
#
# _framework density 20.524245000000001
#
# number of rings (size 3 to 8) (size 9 to 14) (size 15 to 20)
#    0.000    1.043    6.087    0.000    0.000    5.565 
#    0.000    1.739    0.000    0.000    0.000    0.000 
#    0.000    0.000    0.000    0.000    0.000    0.000 
#
# Total GULP energy -570462.832157 kJ/mol
# GULP energy per Si atom -12401.365916 kJ/mol
# Density = 2.047753 g / cm^3
# Si number density = 20.524245 Si / 1000 Ang^3
#
#
#
# Elastic Constant Matrix: (Units=GPa)
#
#
# Indices 1 2 3 4 5 6 
#
# 1 98.0555 53.4594 60.6189 0.0000 0.0000 0.0000
# 2 53.4594 171.1436 63.1602 0.0000 0.0000 0.0000
# 3 60.6189 63.1602 107.9764 0.0000 0.0000 0.0000
# 4 0.0000 0.0000 0.0000 41.0597 0.0000 0.0000
# 5 0.0000 0.0000 0.0000 0.0000 13.2581 0.0000
# 6 0.0000 0.0000 0.0000 0.0000 0.0000 27.9268
#
#
#
# Elastic Compliance Matrix: (Units=1/GPa)
#
#
# Indices 1 2 3 4 5 6 
#
# 1 0.016231 -0.002177 -0.007839 0.000000 0.000000 0.000000
# 2 -0.002177 0.007744 -0.003307 0.000000 0.000000 0.000000
# 3 -0.007839 -0.003307 0.015597 0.000000 0.000000 0.000000
# 4 0.000000 0.000000 0.000000 0.024355 0.000000 0.000000
# 5 0.000000 0.000000 0.000000 0.000000 0.075426 0.000000
# 6 0.000000 0.000000 0.000000 0.000000 0.000000 0.035808
#
#
# Mechanical properties :
#
#
# Convention : Reuss Voigt Hill
#
# Bulk Modulus (GPa) = 77.36984 81.29471 79.33228
# Shear Modulus (GPa) = 24.25827 29.77805 27.01816
#
# Velocity S-wave (km/s) = 3.44165 3.81316 3.63216
# Velocity P-wave (km/s) = 7.31929 7.68649 7.50513
#
# Compressibility (1/GPa) = 0.01292493
#
# Stress axis : x y z
#
# Youngs Moduli (GPa) = 61.60908 129.13734 64.11611
#
# Poissons Ratio (x) = 0.28116 0.50260
# Poissons Ratio (y) = 0.13413 0.21205
# Poissons Ratio (z) = 0.48295 0.42710
#
# Static dielectric constant tensor:
#      x y z
#    x 3.691850 0.000000 0.000000 
#    y 0.000000 3.878350 0.000000 
#    z 0.000000 0.000000 3.815600 
# 
# 
# High freq. dielectric constant tensor:
#      x y z
#    x 1.799350 0.000000 0.000000 
#    y 0.000000 1.813210 0.000000 
#    z 0.000000 0.000000 1.805420 
# 
# From -- ./inp_files/37605.got.cif
#   From: 2010.03.12/outbox.cif.g09.slc.cpg/sg70_19_cif.got.tgz:37605.got - 2010.04.16 13:46:32.
