data_PCOD8286761
_publ_section_title
;
Structure prediction by ZEFSAII (Michael W. Deem and Ramdas Pophale) SiO2 
 PCOD8286761
Probable space group: F D D D
;
_chemical_formula_sum "Si O2"
_cell_formula_units_Z 240
_cell_length_a 20.735086
_cell_length_b 18.132233
_cell_length_c 25.670089
_cell_angle_alpha 90.000000
_cell_angle_beta 90.000000
_cell_angle_gamma 90.000000
_cell_volume 9651.270912
_symmetry_space_group_name_H-M "F D D D"
_symmetry_group_IT_number 70
_space_group.IT_coordinate_system_code '2'
_symmetry_cell_setting 'orthorhombic'
loop_
_space_group_symop_operation_xyz
x,y,z
1/4-x,1/4-y,z
x,1/4-y,1/4-z
1/4-x,y,1/4-z
-x,-y,-z
3/4+x,3/4+y,-z
-x,3/4+y,3/4+z
3/4+x,-y,3/4+z
x,1/2+y,1/2+z
1/4-x,3/4-y,1/2+z
x,3/4-y,3/4-z
1/4-x,1/2+y,3/4-z
-x,1/2-y,1/2-z
3/4+x,1/4+y,1/2-z
-x,1/4+y,1/4+z
3/4+x,1/2-y,1/4+z
1/2+x,y,1/2+z
3/4-x,1/4-y,1/2+z
1/2+x,1/4-y,3/4-z
3/4-x,y,3/4-z
1/2-x,-y,1/2-z
1/4+x,3/4+y,1/2-z
1/2-x,3/4+y,1/4+z
1/4+x,-y,1/4+z
1/2+x,1/2+y,z
3/4-x,3/4-y,z
1/2+x,3/4-y,1/4-z
3/4-x,1/2+y,1/4-z
1/2-x,1/2-y,-z
1/4+x,1/4+y,-z
1/2-x,1/4+y,3/4+z
1/4+x,1/2-y,3/4+z
loop_
_atom_site_type_symbol
_atom_site_label
_atom_site_fract_x
_atom_site_fract_y
_atom_site_fract_z
Si Si1 0.382681 0.231650 0.678467
Si Si2 0.015909 0.600567 0.434152
Si Si3 0.782145 0.166539 0.919289
Si Si4 0.881059 0.560957 0.461835
Si Si5 0.503330 0.548319 0.646129
Si Si6 0.767056 0.953425 0.968404
Si Si7 0.966397 0.125000 0.125000
Si Si8 0.194954 0.093001 0.495270
O O1 0.417190 0.308154 0.694159
O O2 0.382822 0.172589 0.726125
O O3 0.309073 0.249364 0.663358
O O4 0.422229 0.196943 0.631269
O O5 0.010145 0.625864 0.374634
O O6 0.953950 0.546547 0.442844
O O7 0.012125 0.668909 0.474022
O O8 0.852832 0.130610 0.929070
O O9 0.790725 0.251394 0.899096
O O10 0.744081 0.156767 0.974372
O O11 0.837264 0.488077 0.456380
O O12 0.475805 0.625000 0.625000
O O13 0.549263 0.571624 0.693905
O O14 0.759255 0.889637 0.925791
O O15 0.712870 0.017889 0.964075
O O16 0.125000 0.125000 0.482977
#
# Coordination Sequence:
#
# PCOD8286761 Si02
#       8
#    32  32  32  32  32  32  16  32
#     4  12  24  46  74 109 150 199 260 319 385 469
#     4  12  25  47  79 106 154 207 251 327 393 467
#     4  11  25  47  79 110 150 208 251 324 393 468
#     4  11  24  48  73 109 151 195 259 307 392 475
#     4  12  27  49  75 116 157 199 264 329 392 471
#     4  11  25  49  73 114 151 198 261 324 385 477
#     4  12  26  44  75 104 155 194 256 332 386 456
#     4  11  26  50  78 114 153 204 270 316 388 477
#
# _framework density 24.867190999999998
#
# number of rings (size 3 to 8) (size 9 to 14) (size 15 to 20)
#    0.000    0.533    6.000    2.400    3.733    3.467 
#    2.400    0.667    0.000    0.000    0.000    0.000 
#    0.000    0.000    0.000    0.000    0.000    0.000 
#
# Total GULP energy -743696.791121 kJ/mol
# GULP energy per Si atom -12394.946519 kJ/mol
# Density = 2.481059 g / cm^3
# Si number density = 24.867191 Si / 1000 Ang^3
#
#
#
# Elastic Constant Matrix: (Units=GPa)
#
#
# Indices 1 2 3 4 5 6 
#
# 1 92.6382 39.0877 9.9144 0.0000 0.0000 0.0000
# 2 39.0877 109.5111 41.2294 0.0000 0.0000 0.0000
# 3 9.9144 41.2294 96.0035 0.0000 0.0000 0.0000
# 4 0.0000 0.0000 0.0000 54.0322 0.0000 0.0000
# 5 0.0000 0.0000 0.0000 0.0000 29.4448 0.0000
# 6 0.0000 0.0000 0.0000 0.0000 0.0000 28.7416
#
#
#
# Elastic Compliance Matrix: (Units=1/GPa)
#
#
# Indices 1 2 3 4 5 6 
#
# 1 0.012755 -0.004839 0.000761 0.000000 0.000000 0.000000
# 2 -0.004839 0.012729 -0.004967 0.000000 0.000000 0.000000
# 3 0.000761 -0.004967 0.012471 0.000000 0.000000 0.000000
# 4 0.000000 0.000000 0.000000 0.018507 0.000000 0.000000
# 5 0.000000 0.000000 0.000000 0.000000 0.033962 0.000000
# 6 0.000000 0.000000 0.000000 0.000000 0.000000 0.034793
#
#
# Mechanical properties :
#
#
# Convention : Reuss Voigt Hill
#
# Bulk Modulus (GPa) = 50.34058 53.17953 51.76005
# Shear Modulus (GPa) = 33.34945 36.30516 34.82730
#
# Velocity S-wave (km/s) = 3.66608 3.82509 3.74643
# Velocity P-wave (km/s) = 6.18125 6.39846 6.29079
#
# Compressibility (1/GPa) = 0.01986469
#
# Stress axis : x y z
#
# Youngs Moduli (GPa) = 78.40020 78.56328 80.18820
#
# Poissons Ratio (x) = 0.38018 -0.06102
# Poissons Ratio (y) = 0.37939 0.39827
# Poissons Ratio (z) = -0.05966 0.39020
#
# Static dielectric constant tensor:
#      x y z
#    x 4.341090 0.000000 0.000000 
#    y 0.000000 4.403890 0.000000 
#    z 0.000000 0.000000 4.619510 
# 
# 
# High freq. dielectric constant tensor:
#      x y z
#    x 1.983860 0.000000 0.000000 
#    y 0.000000 1.981810 0.000000 
#    z 0.000000 0.000000 2.000560 
# 
# From -- ./inp_files/60565.got.cif
#   From: 2010.03.12/outbox.cif.g09.slc.cpg/sg70_31_cif.got.tgz:60565.got - 2010.04.16 13:46:32.
