data_PCOD8286243
_publ_section_title
;
Structure prediction by ZEFSAII (Michael W. Deem and Ramdas Pophale) SiO2 
 PCOD8286243
Probable space group: F D D D
;
_chemical_formula_sum "Si O2"
_cell_formula_units_Z 160
_cell_length_a 19.553633
_cell_length_b 23.851414
_cell_length_c 17.423802
_cell_angle_alpha 90.000000
_cell_angle_beta 90.000000
_cell_angle_gamma 90.000000
_cell_volume 8126.144068
_symmetry_space_group_name_H-M "F D D D"
_symmetry_group_IT_number 70
_space_group.IT_coordinate_system_code '2'
_symmetry_cell_setting 'orthorhombic'
loop_
_space_group_symop_operation_xyz
x,y,z
1/4-x,1/4-y,z
x,1/4-y,1/4-z
1/4-x,y,1/4-z
-x,-y,-z
3/4+x,3/4+y,-z
-x,3/4+y,3/4+z
3/4+x,-y,3/4+z
x,1/2+y,1/2+z
1/4-x,3/4-y,1/2+z
x,3/4-y,3/4-z
1/4-x,1/2+y,3/4-z
-x,1/2-y,1/2-z
3/4+x,1/4+y,1/2-z
-x,1/4+y,1/4+z
3/4+x,1/2-y,1/4+z
1/2+x,y,1/2+z
3/4-x,1/4-y,1/2+z
1/2+x,1/4-y,3/4-z
3/4-x,y,3/4-z
1/2-x,-y,1/2-z
1/4+x,3/4+y,1/2-z
1/2-x,3/4+y,1/4+z
1/4+x,-y,1/4+z
1/2+x,1/2+y,z
3/4-x,3/4-y,z
1/2+x,3/4-y,1/4-z
3/4-x,1/2+y,1/4-z
1/2-x,1/2-y,-z
1/4+x,1/4+y,-z
1/2-x,1/4+y,3/4+z
1/4+x,1/2-y,3/4+z
loop_
_atom_site_type_symbol
_atom_site_label
_atom_site_fract_x
_atom_site_fract_y
_atom_site_fract_z
Si Si1 0.454644 0.260420 0.822519
Si Si2 0.506314 0.939383 0.878590
Si Si3 0.760541 0.625000 0.125000
Si Si4 0.183092 0.953919 0.032548
Si Si5 0.374848 0.163286 0.240726
Si Si6 0.125000 0.492817 0.125000
O O1 0.500000 0.250000 0.750000
O O2 0.461881 0.324538 0.849378
O O3 0.478486 0.217512 0.891407
O O4 0.377843 0.248774 0.793839
O O5 0.484698 0.875000 0.875000
O O6 0.526944 0.965124 0.796123
O O7 0.570321 0.944872 0.936154
O O8 0.438916 0.971452 0.906822
O O9 0.809191 0.643767 0.194199
O O10 0.158288 0.889852 0.033372
O O11 0.348640 0.205869 0.304522
#
# Coordination Sequence:
#
# PCOD8286243 Si02
#       6
#    32  32  16  32  32  16
#     4  11  21  36  62  91 120 159 209 248 304 378
#     4  10  21  41  60  85 126 157 199 258 317 371
#     4  12  22  39  64  87 120 166 202 254 314 374
#     4  10  21  39  60  86 124 162 193 257 314 368
#     4  11  21  40  61  87 121 161 204 253 316 377
#     4  12  23  34  64  94 108 157 214 248 304 380
#
# _framework density 19.689534999999999
#
# number of rings (size 3 to 8) (size 9 to 14) (size 15 to 20)
#    0.000    1.200    5.000    3.300    0.000    1.600 
#    0.000    0.000    0.000    0.000    0.000    0.000 
#    0.000    0.000    0.000    0.000    0.000    0.000 
#
# Total GULP energy -495849.707696 kJ/mol
# GULP energy per Si atom -12396.242692 kJ/mol
# Density = 1.964472 g / cm^3
# Si number density = 19.689535 Si / 1000 Ang^3
#
#
#
# Elastic Constant Matrix: (Units=GPa)
#
#
# Indices 1 2 3 4 5 6 
#
# 1 69.4923 39.6063 38.4006 0.0000 0.0000 0.0000
# 2 39.6063 101.6235 60.7809 0.0000 0.0000 0.0000
# 3 38.4006 60.7809 139.5174 0.0000 0.0000 0.0000
# 4 0.0000 0.0000 0.0000 39.1157 0.0000 0.0000
# 5 0.0000 0.0000 0.0000 0.0000 30.6711 0.0000
# 6 0.0000 0.0000 0.0000 0.0000 0.0000 23.5072
#
#
#
# Elastic Compliance Matrix: (Units=1/GPa)
#
#
# Indices 1 2 3 4 5 6 
#
# 1 0.019246 -0.005859 -0.002745 0.000000 0.000000 0.000000
# 2 -0.005859 0.015092 -0.004962 0.000000 0.000000 0.000000
# 3 -0.002745 -0.004962 0.010085 0.000000 0.000000 0.000000
# 4 0.000000 0.000000 0.000000 0.025565 0.000000 0.000000
# 5 0.000000 0.000000 0.000000 0.000000 0.032604 0.000000
# 6 0.000000 0.000000 0.000000 0.000000 0.000000 0.042540
#
#
# Mechanical properties :
#
#
# Convention : Reuss Voigt Hill
#
# Bulk Modulus (GPa) = 57.83505 65.35652 61.59578
# Shear Modulus (GPa) = 28.08559 30.11517 29.10038
#
# Velocity S-wave (km/s) = 3.78090 3.91513 3.84860
# Velocity P-wave (km/s) = 6.96402 7.32825 7.14845
#
# Compressibility (1/GPa) = 0.01729055
#
# Stress axis : x y z
#
# Youngs Moduli (GPa) = 51.95824 66.26221 99.16035
#
# Poissons Ratio (x) = 0.38825 0.27216
# Poissons Ratio (y) = 0.30444 0.49203
# Poissons Ratio (z) = 0.14261 0.32879
#
# Static dielectric constant tensor:
#      x y z
#    x 2.863760 0.000000 0.000000 
#    y 0.000000 3.769730 0.000000 
#    z 0.000000 0.000000 3.594690 
# 
# 
# High freq. dielectric constant tensor:
#      x y z
#    x 1.754720 0.000000 0.000000 
#    y 0.000000 1.766680 0.000000 
#    z 0.000000 0.000000 1.783720 
# 
# From -- ./inp_files/36360.got.cif
#   From: 2010.03.12/outbox.cif.g09.slc.cpg/sg70_19_cif.got.tgz:36360.got - 2010.04.16 13:46:32.
