data_PCOD8286034
_publ_section_title
;
Structure prediction by ZEFSAII (Michael W. Deem and Ramdas Pophale) SiO2 
 PCOD8286034
Probable space group: F D D D
;
_chemical_formula_sum "Si O2"
_cell_formula_units_Z 176
_cell_length_a 14.320846
_cell_length_b 26.581991
_cell_length_c 23.910546
_cell_angle_alpha 90.000000
_cell_angle_beta 90.000000
_cell_angle_gamma 90.000000
_cell_volume 9102.185343
_symmetry_space_group_name_H-M "F D D D"
_symmetry_group_IT_number 70
_space_group.IT_coordinate_system_code '2'
_symmetry_cell_setting 'orthorhombic'
loop_
_space_group_symop_operation_xyz
x,y,z
1/4-x,1/4-y,z
x,1/4-y,1/4-z
1/4-x,y,1/4-z
-x,-y,-z
3/4+x,3/4+y,-z
-x,3/4+y,3/4+z
3/4+x,-y,3/4+z
x,1/2+y,1/2+z
1/4-x,3/4-y,1/2+z
x,3/4-y,3/4-z
1/4-x,1/2+y,3/4-z
-x,1/2-y,1/2-z
3/4+x,1/4+y,1/2-z
-x,1/4+y,1/4+z
3/4+x,1/2-y,1/4+z
1/2+x,y,1/2+z
3/4-x,1/4-y,1/2+z
1/2+x,1/4-y,3/4-z
3/4-x,y,3/4-z
1/2-x,-y,1/2-z
1/4+x,3/4+y,1/2-z
1/2-x,3/4+y,1/4+z
1/4+x,-y,1/4+z
1/2+x,1/2+y,z
3/4-x,3/4-y,z
1/2+x,3/4-y,1/4-z
3/4-x,1/2+y,1/4-z
1/2-x,1/2-y,-z
1/4+x,1/4+y,-z
1/2-x,1/4+y,3/4+z
1/4+x,1/2-y,3/4+z
loop_
_atom_site_type_symbol
_atom_site_label
_atom_site_fract_x
_atom_site_fract_y
_atom_site_fract_z
Si Si1 0.477521 0.889388 0.449067
Si Si2 0.040460 0.227601 0.807477
Si Si3 0.729069 0.895959 0.677719
Si Si4 0.625000 0.439486 0.625000
Si Si5 0.875000 0.875000 0.584834
Si Si6 0.375000 0.229311 0.875000
Si Si7 0.957933 0.044289 0.148000
O O1 0.375000 0.875000 0.424992
O O2 0.466518 0.900738 0.514313
O O3 0.527365 0.935447 0.416013
O O4 0.543634 0.841045 0.440433
O O5 0.084219 0.171317 0.797583
O O6 0.113969 0.263406 0.839510
O O7 0.000000 0.250000 0.750000
O O8 0.954377 0.224996 0.850047
O O9 0.666626 0.845541 0.674552
O O10 0.796954 0.898506 0.624715
O O11 0.666192 0.945349 0.674577
O O12 0.298653 0.260694 0.840696
#
# Coordination Sequence:
#
# PCOD8286034 Si02
#       7
#    32  32  32  16  16  16  32
#     4  11  21  38  62  91 127 166 194 257 328 379
#     4  11  23  44  64  89 126 171 213 261 313 369
#     4  10  20  37  60  90 121 156 207 254 312 371
#     4   9  22  42  62  86 122 162 212 260 301 368
#     4  10  20  38  66  90 120 162 212 264 306 374
#     4  11  20  37  56  91 124 153 202 257 297 378
#     4  11  22  40  59  89 131 158 204 252 314 378
#
# _framework density 19.336015
#
# number of rings (size 3 to 8) (size 9 to 14) (size 15 to 20)
#    0.000    1.455    4.545    1.636    0.000    0.727 
#    9.818    1.818    0.000    0.000    0.000    0.000 
#    0.000    0.000    0.000    0.000    0.000    0.000 
#
# Total GULP energy -545282.930815 kJ/mol
# GULP energy per Si atom -12392.793882 kJ/mol
# Density = 1.929201 g / cm^3
# Si number density = 19.336015 Si / 1000 Ang^3
#
#
#
# Elastic Constant Matrix: (Units=GPa)
#
#
# Indices 1 2 3 4 5 6 
#
# 1 127.9767 64.5065 37.3469 0.0000 0.0000 0.0000
# 2 64.5065 123.4518 53.4536 0.0000 0.0000 0.0000
# 3 37.3469 53.4536 103.1658 0.0000 0.0000 0.0000
# 4 0.0000 0.0000 0.0000 12.2212 0.0000 0.0000
# 5 0.0000 0.0000 0.0000 0.0000 25.5021 0.0000
# 6 0.0000 0.0000 0.0000 0.0000 0.0000 41.4107
#
#
#
# Elastic Compliance Matrix: (Units=1/GPa)
#
#
# Indices 1 2 3 4 5 6 
#
# 1 0.010734 -0.005062 -0.001263 0.000000 0.000000 0.000000
# 2 -0.005062 0.012830 -0.004815 0.000000 0.000000 0.000000
# 3 -0.001263 -0.004815 0.012645 0.000000 0.000000 0.000000
# 4 0.000000 0.000000 0.000000 0.081825 0.000000 0.000000
# 5 0.000000 0.000000 0.000000 0.000000 0.039212 0.000000
# 6 0.000000 0.000000 0.000000 0.000000 0.000000 0.024148
#
#
# Mechanical properties :
#
#
# Convention : Reuss Voigt Hill
#
# Bulk Modulus (GPa) = 71.79243 73.91203 72.85223
# Shear Modulus (GPa) = 24.00167 29.11261 26.55714
#
# Velocity S-wave (km/s) = 3.52702 3.88444 3.71004
# Velocity P-wave (km/s) = 7.33457 7.64372 7.49074
#
# Compressibility (1/GPa) = 0.01392905
#
# Stress axis : x y z
#
# Youngs Moduli (GPa) = 93.16250 77.94071 79.08032
#
# Poissons Ratio (x) = 0.39452 0.09988
# Poissons Ratio (y) = 0.47157 0.38080
# Poissons Ratio (z) = 0.11767 0.37531
#
# Static dielectric constant tensor:
#      x y z
#    x 3.683060 0.000000 0.000000 
#    y 0.000000 3.722470 0.000000 
#    z 0.000000 0.000000 3.272630 
# 
# 
# High freq. dielectric constant tensor:
#      x y z
#    x 1.759190 0.000000 0.000000 
#    y 0.000000 1.763700 0.000000 
#    z 0.000000 0.000000 1.727470 
# 
# From -- ./inp_files/51403.got.cif
#   From: 2010.03.12/outbox.cif.g09.slc.cpg/sg70_26_cif.got.tgz:51403.got - 2010.04.16 13:46:32.
