data_PCOD8286764
_publ_section_title
;
Structure prediction by ZEFSAII (Michael W. Deem and Ramdas Pophale) SiO2 
 PCOD8286764
Probable space group: F D D D
;
_chemical_formula_sum "Si O2"
_cell_formula_units_Z 136
_cell_length_a 9.201889
_cell_length_b 24.743835
_cell_length_c 24.355555
_cell_angle_alpha 90.000000
_cell_angle_beta 90.000000
_cell_angle_gamma 90.000000
_cell_volume 5545.516881
_symmetry_space_group_name_H-M "F D D D"
_symmetry_group_IT_number 70
_space_group.IT_coordinate_system_code '2'
_symmetry_cell_setting 'orthorhombic'
loop_
_space_group_symop_operation_xyz
x,y,z
1/4-x,1/4-y,z
x,1/4-y,1/4-z
1/4-x,y,1/4-z
-x,-y,-z
3/4+x,3/4+y,-z
-x,3/4+y,3/4+z
3/4+x,-y,3/4+z
x,1/2+y,1/2+z
1/4-x,3/4-y,1/2+z
x,3/4-y,3/4-z
1/4-x,1/2+y,3/4-z
-x,1/2-y,1/2-z
3/4+x,1/4+y,1/2-z
-x,1/4+y,1/4+z
3/4+x,1/2-y,1/4+z
1/2+x,y,1/2+z
3/4-x,1/4-y,1/2+z
1/2+x,1/4-y,3/4-z
3/4-x,y,3/4-z
1/2-x,-y,1/2-z
1/4+x,3/4+y,1/2-z
1/2-x,3/4+y,1/4+z
1/4+x,-y,1/4+z
1/2+x,1/2+y,z
3/4-x,3/4-y,z
1/2+x,3/4-y,1/4-z
3/4-x,1/2+y,1/4-z
1/2-x,1/2-y,-z
1/4+x,1/4+y,-z
1/2-x,1/4+y,3/4+z
1/4+x,1/2-y,3/4+z
loop_
_atom_site_type_symbol
_atom_site_label
_atom_site_fract_x
_atom_site_fract_y
_atom_site_fract_z
Si Si1 0.919990 0.953548 0.133292
Si Si2 0.875000 0.375000 0.875000
Si Si3 0.909530 0.158130 0.288880
Si Si4 0.088954 0.788273 0.208315
Si Si5 0.663752 0.292457 0.818396
O O1 0.753526 0.948401 0.153200
O O2 0.955838 0.914424 0.081069
O O3 0.020141 0.937201 0.184028
O O4 0.942101 0.017159 0.115557
O O5 0.770844 0.339739 0.836987
O O6 0.878589 0.097289 0.268757
O O7 0.937590 0.189558 0.231940
O O8 0.239430 0.759586 0.196010
O O9 0.000000 0.750000 0.250000
#
# Coordination Sequence:
#
# PCOD8286764 Si02
#       5
#    32   8  32  32  32
#     4  11  25  44  67 103 142 183 240 286 361 431
#     4  12  24  40  72 114 136 184 232 308 358 420
#     4  11  27  43  72  99 147 186 230 302 358 434
#     4  12  24  44  70 105 141 184 241 299 357 435
#     4  12  25  44  71 104 139 185 237 297 361 428
#
# _framework density 24.524312999999999
#
# number of rings (size 3 to 8) (size 9 to 14) (size 15 to 20)
#    0.000    0.471    4.706    2.824    9.882    0.000 
#    0.000    0.000    0.000    2.824    0.000    0.000 
#    0.000    0.000    0.000    0.000    0.000    0.000 
#
# Total GULP energy -421299.182957 kJ/mol
# GULP energy per Si atom -12391.152440 kJ/mol
# Density = 2.446849 g / cm^3
# Si number density = 24.524313 Si / 1000 Ang^3
#
#
#
# Elastic Constant Matrix: (Units=GPa)
#
#
# Indices 1 2 3 4 5 6 
#
# 1 59.2098 34.8560 15.4603 0.0000 0.0000 0.0000
# 2 34.8560 176.5115 50.0955 0.0000 0.0000 0.0000
# 3 15.4603 50.0955 82.2580 0.0000 0.0000 0.0000
# 4 0.0000 0.0000 0.0000 32.9061 0.0000 0.0000
# 5 0.0000 0.0000 0.0000 0.0000 33.2759 0.0000
# 6 0.0000 0.0000 0.0000 0.0000 0.0000 31.8900
#
#
#
# Elastic Compliance Matrix: (Units=1/GPa)
#
#
# Indices 1 2 3 4 5 6 
#
# 1 0.019279 -0.003359 -0.001578 0.000000 0.000000 0.000000
# 2 -0.003359 0.007435 -0.003896 0.000000 0.000000 0.000000
# 3 -0.001578 -0.003896 0.014826 0.000000 0.000000 0.000000
# 4 0.000000 0.000000 0.000000 0.030390 0.000000 0.000000
# 5 0.000000 0.000000 0.000000 0.000000 0.030052 0.000000
# 6 0.000000 0.000000 0.000000 0.000000 0.000000 0.031358
#
#
# Mechanical properties :
#
#
# Convention : Reuss Voigt Hill
#
# Bulk Modulus (GPa) = 41.88822 57.64478 49.76650
# Shear Modulus (GPa) = 31.45399 34.11889 32.78644
#
# Velocity S-wave (km/s) = 3.58518 3.73396 3.66032
# Velocity P-wave (km/s) = 5.85281 6.49201 6.18067
#
# Compressibility (1/GPa) = 0.02387306
#
# Stress axis : x y z
#
# Youngs Moduli (GPa) = 51.87112 134.50803 67.44803
#
# Poissons Ratio (x) = 0.45184 0.10641
# Poissons Ratio (y) = 0.17425 0.26280
# Poissons Ratio (z) = 0.08183 0.52408
#
# Static dielectric constant tensor:
#      x y z
#    x 4.426810 0.000000 0.000000 
#    y 0.000000 4.841160 0.000000 
#    z 0.000000 0.000000 4.600120 
# 
# 
# High freq. dielectric constant tensor:
#      x y z
#    x 1.963080 0.000000 0.000000 
#    y 0.000000 1.991430 0.000000 
#    z 0.000000 0.000000 1.976430 
# 
# From -- ./inp_files/17649.got.cif
#   From: 2010.03.12/outbox.cif.g09.slc.cpg/sg70_9_cif.got.tgz:17649.got - 2010.04.16 13:46:32.
