data_PCOD8286492
_publ_section_title
;
Structure prediction by ZEFSAII (Michael W. Deem and Ramdas Pophale) SiO2 
 PCOD8286492
Probable space group: F D D D
;
_chemical_formula_sum "Si O2"
_cell_formula_units_Z 160
_cell_length_a 10.862658
_cell_length_b 23.439375
_cell_length_c 28.471376
_cell_angle_alpha 90.000000
_cell_angle_beta 90.000000
_cell_angle_gamma 90.000000
_cell_volume 7249.208491
_symmetry_space_group_name_H-M "F D D D"
_symmetry_group_IT_number 70
_space_group.IT_coordinate_system_code '2'
_symmetry_cell_setting 'orthorhombic'
loop_
_space_group_symop_operation_xyz
x,y,z
1/4-x,1/4-y,z
x,1/4-y,1/4-z
1/4-x,y,1/4-z
-x,-y,-z
3/4+x,3/4+y,-z
-x,3/4+y,3/4+z
3/4+x,-y,3/4+z
x,1/2+y,1/2+z
1/4-x,3/4-y,1/2+z
x,3/4-y,3/4-z
1/4-x,1/2+y,3/4-z
-x,1/2-y,1/2-z
3/4+x,1/4+y,1/2-z
-x,1/4+y,1/4+z
3/4+x,1/2-y,1/4+z
1/2+x,y,1/2+z
3/4-x,1/4-y,1/2+z
1/2+x,1/4-y,3/4-z
3/4-x,y,3/4-z
1/2-x,-y,1/2-z
1/4+x,3/4+y,1/2-z
1/2-x,3/4+y,1/4+z
1/4+x,-y,1/4+z
1/2+x,1/2+y,z
3/4-x,3/4-y,z
1/2+x,3/4-y,1/4-z
3/4-x,1/2+y,1/4-z
1/2-x,1/2-y,-z
1/4+x,1/4+y,-z
1/2-x,1/4+y,3/4+z
1/4+x,1/2-y,3/4+z
loop_
_atom_site_type_symbol
_atom_site_label
_atom_site_fract_x
_atom_site_fract_y
_atom_site_fract_z
Si Si1 0.882877 0.576589 0.659620
Si Si2 0.004656 0.785923 0.150196
Si Si3 0.625000 0.125000 0.839878
Si Si4 0.729613 0.435603 0.237513
Si Si5 0.875000 0.375000 0.315571
Si Si6 0.235049 0.356571 0.507967
O O1 0.825906 0.625000 0.625000
O O2 0.850145 0.512257 0.644050
O O3 0.821599 0.581586 0.710585
O O4 0.033986 0.581953 0.655657
O O5 0.125000 0.760063 0.125000
O O6 0.029070 0.805918 0.203759
O O7 0.971079 0.843284 0.122689
O O8 0.560164 0.171920 0.807726
O O9 0.750000 0.500000 0.250000
O O10 0.773675 0.405613 0.284594
O O11 0.590319 0.414099 0.227668
O O12 0.375000 0.375000 0.501086
#
# Coordination Sequence:
#
# PCOD8286492 Si02
#       6
#    32  32  16  32  16  32
#     4  11  27  47  72 103 138 190 245 305 366 438
#     4  12  26  45  72 103 152 193 241 307 364 446
#     4  11  24  44  67 108 142 184 251 288 369 428
#     4  10  23  42  72 101 143 188 231 304 362 428
#     4   9  23  46  65 106 138 172 247 298 360 434
#     4  11  25  45  68 105 144 189 245 295 366 434
#
# _framework density 22.071376000000001
#
# number of rings (size 3 to 8) (size 9 to 14) (size 15 to 20)
#    0.000    1.200    3.000    0.900   11.200    0.000 
#    0.000    0.000    0.000    0.000    0.000    0.000 
#    0.000    0.000    0.000    0.000    0.000    0.000 
#
# Total GULP energy -495775.091494 kJ/mol
# GULP energy per Si atom -12394.377287 kJ/mol
# Density = 2.202114 g / cm^3
# Si number density = 22.071376 Si / 1000 Ang^3
#
#
#
# Elastic Constant Matrix: (Units=GPa)
#
#
# Indices 1 2 3 4 5 6 
#
# 1 158.4976 54.6463 33.8141 0.0000 0.0000 0.0000
# 2 54.6463 138.5687 41.7832 0.0000 0.0000 0.0000
# 3 33.8141 41.7832 121.8314 0.0000 0.0000 0.0000
# 4 0.0000 0.0000 0.0000 47.1703 0.0000 0.0000
# 5 0.0000 0.0000 0.0000 0.0000 -366.5972 0.0000
# 6 0.0000 0.0000 0.0000 0.0000 0.0000 46.5127
#
#
#
# Elastic Compliance Matrix: (Units=1/GPa)
#
#
# Indices 1 2 3 4 5 6 
#
# 1 0.007452 -0.002582 -0.001183 0.000000 0.000000 0.000000
# 2 -0.002582 0.008944 -0.002351 0.000000 0.000000 0.000000
# 3 -0.001183 -0.002351 0.009343 0.000000 0.000000 0.000000
# 4 0.000000 0.000000 0.000000 0.021200 0.000000 0.000000
# 5 0.000000 0.000000 0.000000 0.000000 -0.002728 0.000000
# 6 0.000000 0.000000 0.000000 0.000000 0.000000 0.021500
#
#
# Mechanical properties :
#
#
# Convention : Reuss Voigt Hill
#
# Bulk Modulus (GPa) = 74.03499 75.48721 74.76110
# Shear Modulus (GPa) = 60.64811 -35.33922 12.65445
#
# Velocity S-wave (km/s) = 5.24765 -4.00576 2.39705
# Velocity P-wave (km/s) = 8.38650 3.58899 6.45036
#
# Compressibility (1/GPa) = 0.01350713
#
# Stress axis : x y z
#
# Youngs Moduli (GPa) = 134.19567 111.81019 107.03773
#
# Poissons Ratio (x) = 0.28870 0.12659
# Poissons Ratio (y) = 0.34651 0.25161
# Poissons Ratio (z) = 0.15871 0.26283
#
# Static dielectric constant tensor:
#      x y z
#    x 4.390170 0.000000 0.000000 
#    y 0.000000 3.907550 0.000000 
#    z 0.000000 0.000000 4.299170 
# 
# 
# High freq. dielectric constant tensor:
#      x y z
#    x 1.875070 0.000000 0.000000 
#    y 0.000000 1.859240 0.000000 
#    z 0.000000 0.000000 1.888480 
# 
# From -- ./inp_files/64713.got.cif
#   From: 2010.03.12/outbox.cif.g09.slc.cpg/sg70_33_cif.got.tgz:64713.got - 2010.04.16 13:46:32.
