data_PCOD8286570
_publ_section_title
;
Structure prediction by ZEFSAII (Michael W. Deem and Ramdas Pophale) SiO2 
 PCOD8286570
Probable space group: F D D D
;
_chemical_formula_sum "Si O2"
_cell_formula_units_Z 104
_cell_length_a 6.572266
_cell_length_b 21.669265
_cell_length_c 30.860020
_cell_angle_alpha 90.000000
_cell_angle_beta 90.000000
_cell_angle_gamma 90.000000
_cell_volume 4394.965966
_symmetry_space_group_name_H-M "F D D D"
_symmetry_group_IT_number 70
_space_group.IT_coordinate_system_code '2'
_symmetry_cell_setting 'orthorhombic'
loop_
_space_group_symop_operation_xyz
x,y,z
1/4-x,1/4-y,z
x,1/4-y,1/4-z
1/4-x,y,1/4-z
-x,-y,-z
3/4+x,3/4+y,-z
-x,3/4+y,3/4+z
3/4+x,-y,3/4+z
x,1/2+y,1/2+z
1/4-x,3/4-y,1/2+z
x,3/4-y,3/4-z
1/4-x,1/2+y,3/4-z
-x,1/2-y,1/2-z
3/4+x,1/4+y,1/2-z
-x,1/4+y,1/4+z
3/4+x,1/2-y,1/4+z
1/2+x,y,1/2+z
3/4-x,1/4-y,1/2+z
1/2+x,1/4-y,3/4-z
3/4-x,y,3/4-z
1/2-x,-y,1/2-z
1/4+x,3/4+y,1/2-z
1/2-x,3/4+y,1/4+z
1/4+x,-y,1/4+z
1/2+x,1/2+y,z
3/4-x,3/4-y,z
1/2+x,3/4-y,1/4-z
3/4-x,1/2+y,1/4-z
1/2-x,1/2-y,-z
1/4+x,1/4+y,-z
1/2-x,1/4+y,3/4+z
1/4+x,1/2-y,3/4+z
loop_
_atom_site_type_symbol
_atom_site_label
_atom_site_fract_x
_atom_site_fract_y
_atom_site_fract_z
Si Si1 0.879507 0.708011 0.558853
Si Si2 0.375000 0.875000 0.875000
Si Si3 0.677160 0.803788 0.076857
Si Si4 0.132099 0.324665 0.712077
O O1 0.772876 0.666341 0.595250
O O2 0.900830 0.672572 0.513971
O O3 0.769554 0.773245 0.554271
O O4 0.105448 0.732248 0.571306
O O5 0.625000 0.825187 0.125000
O O6 0.560170 0.855611 0.048164
O O7 0.911804 0.807377 0.063396
#
# Coordination Sequence:
#
# PCOD8286570 Si02
#       4
#    32   8  32  32
#     4  11  25  47  68 100 150 183 239 291 367 424
#     4  12  28  44  74 112 148 202 236 302 362 448
#     4  11  24  44  73 105 134 183 247 299 353 430
#     4  10  25  43  74 100 136 189 238 296 362 427
#
# _framework density 23.663436000000001
#
# number of rings (size 3 to 8) (size 9 to 14) (size 15 to 20)
#    0.000    1.231    0.000    3.692   19.385    0.000 
#   11.077    1.538    0.000    0.000    0.000    0.000 
#    0.000    0.000    0.000    0.000    0.000    0.000 
#
# Total GULP energy -322156.201643 kJ/mol
# GULP energy per Si atom -12390.623140 kJ/mol
# Density = 2.360958 g / cm^3
# Si number density = 23.663436 Si / 1000 Ang^3
#
#
#
# Elastic Constant Matrix: (Units=GPa)
#
#
# Indices 1 2 3 4 5 6 
#
# 1 54.7611 27.7685 32.1259 0.0000 0.0000 0.0000
# 2 27.7685 129.7504 68.0242 0.0000 0.0000 0.0000
# 3 32.1259 68.0242 173.7663 0.0000 0.0000 0.0000
# 4 0.0000 0.0000 0.0000 -2.6468 0.0000 0.0000
# 5 0.0000 0.0000 0.0000 0.0000 35.7883 0.0000
# 6 0.0000 0.0000 0.0000 0.0000 0.0000 20.2762
#
#
#
# Elastic Compliance Matrix: (Units=1/GPa)
#
#
# Indices 1 2 3 4 5 6 
#
# 1 0.021467 -0.003163 -0.002731 0.000000 0.000000 0.000000
# 2 -0.003163 0.010163 -0.003394 0.000000 0.000000 0.000000
# 3 -0.002731 -0.003394 0.007588 0.000000 0.000000 0.000000
# 4 0.000000 0.000000 0.000000 -0.377811 0.000000 0.000000
# 5 0.000000 0.000000 0.000000 0.000000 0.027942 0.000000
# 6 0.000000 0.000000 0.000000 0.000000 0.000000 0.049319
#
#
# Mechanical properties :
#
#
# Convention : Reuss Voigt Hill
#
# Bulk Modulus (GPa) = 48.44027 68.23498 58.33762
# Shear Modulus (GPa) = -21.19759 26.04081 2.42161
#
# Velocity S-wave (km/s) = -2.99623 3.32093 1.01271
# Velocity P-wave (km/s) = 2.92320 6.60325 5.10627
#
# Compressibility (1/GPa) = 0.02064398
#
# Stress axis : x y z
#
# Youngs Moduli (GPa) = 46.58351 98.39355 131.78145
#
# Poissons Ratio (x) = 0.31118 0.35986
# Poissons Ratio (y) = 0.14732 0.44725
# Poissons Ratio (z) = 0.12721 0.33394
#
# Static dielectric constant tensor:
#      x y z
#    x 4.447410 0.000000 0.000000 
#    y 0.000000 4.455580 0.000000 
#    z 0.000000 0.000000 4.344570 
# 
# 
# High freq. dielectric constant tensor:
#      x y z
#    x 1.949580 0.000000 0.000000 
#    y 0.000000 1.949250 0.000000 
#    z 0.000000 0.000000 1.946130 
# 
# From -- ./inp_files/46454.got.cif
#   From: 2010.03.12/outbox.cif.g09.slc.cpg/sg70_24_cif.got.tgz:46454.got - 2010.04.16 13:46:32.
