data_PCOD8286261
_publ_section_title
;
Structure prediction by ZEFSAII (Michael W. Deem and Ramdas Pophale) SiO2 
 PCOD8286261
Probable space group: F D D D
;
_chemical_formula_sum "Si O2"
_cell_formula_units_Z 120
_cell_length_a 26.812158
_cell_length_b 6.770256
_cell_length_c 28.505188
_cell_angle_alpha 90.000000
_cell_angle_beta 90.000000
_cell_angle_gamma 90.000000
_cell_volume 5174.409199
_symmetry_space_group_name_H-M "F D D D"
_symmetry_group_IT_number 70
_space_group.IT_coordinate_system_code '2'
_symmetry_cell_setting 'orthorhombic'
loop_
_space_group_symop_operation_xyz
x,y,z
1/4-x,1/4-y,z
x,1/4-y,1/4-z
1/4-x,y,1/4-z
-x,-y,-z
3/4+x,3/4+y,-z
-x,3/4+y,3/4+z
3/4+x,-y,3/4+z
x,1/2+y,1/2+z
1/4-x,3/4-y,1/2+z
x,3/4-y,3/4-z
1/4-x,1/2+y,3/4-z
-x,1/2-y,1/2-z
3/4+x,1/4+y,1/2-z
-x,1/4+y,1/4+z
3/4+x,1/2-y,1/4+z
1/2+x,y,1/2+z
3/4-x,1/4-y,1/2+z
1/2+x,1/4-y,3/4-z
3/4-x,y,3/4-z
1/2-x,-y,1/2-z
1/4+x,3/4+y,1/2-z
1/2-x,3/4+y,1/4+z
1/4+x,-y,1/4+z
1/2+x,1/2+y,z
3/4-x,3/4-y,z
1/2+x,3/4-y,1/4-z
3/4-x,1/2+y,1/4-z
1/2-x,1/2-y,-z
1/4+x,1/4+y,-z
1/2-x,1/4+y,3/4+z
1/4+x,1/2-y,3/4+z
loop_
_atom_site_type_symbol
_atom_site_label
_atom_site_fract_x
_atom_site_fract_y
_atom_site_fract_z
Si Si1 0.758500 0.998586 0.666318
Si Si2 0.312064 0.125000 0.625000
Si Si3 0.343792 0.681811 0.448063
Si Si4 0.361710 0.101512 0.199042
Si Si5 0.375000 0.875000 0.875000
O O1 0.776498 0.786898 0.647812
O O2 0.714983 0.981874 0.705648
O O3 0.732995 0.125000 0.625000
O O4 0.804373 0.132388 0.684480
O O5 0.348578 0.031025 0.666070
O O6 0.367372 0.593596 0.496117
O O7 0.342174 0.515732 0.407929
O O8 0.375000 0.875000 0.432812
O O9 0.375000 0.875000 0.190732
#
# Coordination Sequence:
#
# PCOD8286261 Si02
#       5
#    32  16  32  32   8
#     4  11  21  36  64  92 124 165 211 264 324 381
#     4  10  21  40  64 101 127 162 224 271 320 382
#     4  11  24  42  61  89 130 171 215 263 324 387
#     4   9  20  39  63  93 126 165 211 272 323 381
#     4  12  24  40  60  82 120 172 210 254 312 372
#
# _framework density 23.191054999999999
#
# number of rings (size 3 to 8) (size 9 to 14) (size 15 to 20)
#    0.000    1.600    1.333    3.600    0.000    2.133 
#    0.000    0.000    0.000   16.000    0.000    0.000 
#    0.000    0.000    0.000    0.000    0.000    0.000 
#
# Total GULP energy -371801.062971 kJ/mol
# GULP energy per Si atom -12393.368766 kJ/mol
# Density = 2.313827 g / cm^3
# Si number density = 23.191055 Si / 1000 Ang^3
#
#
#
# Elastic Constant Matrix: (Units=GPa)
#
#
# Indices 1 2 3 4 5 6 
#
# 1 149.8305 35.1862 40.3990 -0.0019 -0.0013 -0.0043
# 2 35.1862 69.6354 18.9606 -0.0006 -0.0052 -0.0062
# 3 40.3990 18.9606 125.8624 -0.0001 -0.0006 0.0007
# 4 -0.0019 -0.0006 -0.0001 16.5072 -0.0012 0.0010
# 5 -0.0013 -0.0052 -0.0006 -0.0012 37.0433 0.0006
# 6 -0.0043 -0.0062 0.0007 0.0010 0.0006 30.2686
#
#
#
# Elastic Compliance Matrix: (Units=1/GPa)
#
#
# Indices 1 2 3 4 5 6 
#
# 1 0.008053 -0.003509 -0.002056 0.000001 0.000000 0.000000
# 2 -0.003509 0.016504 -0.001360 0.000000 0.000002 0.000003
# 3 -0.002056 -0.001360 0.008810 0.000000 0.000000 -0.000001
# 4 0.000001 0.000000 0.000000 0.060580 0.000002 -0.000002
# 5 0.000000 0.000002 0.000000 0.000002 0.026995 -0.000001
# 6 0.000000 0.000003 -0.000001 -0.000002 -0.000001 0.033038
#
#
# Mechanical properties :
#
#
# Convention : Reuss Voigt Hill
#
# Bulk Modulus (GPa) = 51.23897 59.37999 55.30948
# Shear Modulus (GPa) = 28.68045 33.48265 31.08155
#
# Velocity S-wave (km/s) = 3.52049 3.80383 3.66490
# Velocity P-wave (km/s) = 6.21831 6.70465 6.46606
#
# Compressibility (1/GPa) = 0.01951639
#
# Stress axis : x y z
#
# Youngs Moduli (GPa) = 124.18230 60.59170 113.50731
#
# Poissons Ratio (x) = 0.21262 0.23338
# Poissons Ratio (y) = 0.43577 0.15436
# Poissons Ratio (z) = 0.25533 0.08240
#
# Static dielectric constant tensor:
#      x y z
#    x 4.113610 0.000010 0.000000 
#    y 0.000010 3.892780 0.000000 
#    z 0.000000 0.000000 4.287140 
# 
# 
# High freq. dielectric constant tensor:
#      x y z
#    x 1.918510 0.000000 0.000000 
#    y 0.000000 1.905520 0.000000 
#    z 0.000000 0.000000 1.918670 
# 
# From -- ./inp_files/61509.got.cif
#   From: 2010.03.12/outbox.cif.g09.slc.cpg/sg70_31_cif.got.tgz:61509.got - 2010.04.16 13:46:32.
