data_PCOD8286558
_publ_section_title
;
Structure prediction by ZEFSAII (Michael W. Deem and Ramdas Pophale) SiO2 
 PCOD8286558
Probable space group: F D D D
;
_chemical_formula_sum "Si O2"
_cell_formula_units_Z 176
_cell_length_a 11.101710
_cell_length_b 22.034659
_cell_length_c 28.695564
_cell_angle_alpha 90.000000
_cell_angle_beta 90.000000
_cell_angle_gamma 90.000000
_cell_volume 7019.577568
_symmetry_space_group_name_H-M "F D D D"
_symmetry_group_IT_number 70
_space_group.IT_coordinate_system_code '2'
_symmetry_cell_setting 'orthorhombic'
loop_
_space_group_symop_operation_xyz
x,y,z
1/4-x,1/4-y,z
x,1/4-y,1/4-z
1/4-x,y,1/4-z
-x,-y,-z
3/4+x,3/4+y,-z
-x,3/4+y,3/4+z
3/4+x,-y,3/4+z
x,1/2+y,1/2+z
1/4-x,3/4-y,1/2+z
x,3/4-y,3/4-z
1/4-x,1/2+y,3/4-z
-x,1/2-y,1/2-z
3/4+x,1/4+y,1/2-z
-x,1/4+y,1/4+z
3/4+x,1/2-y,1/4+z
1/2+x,y,1/2+z
3/4-x,1/4-y,1/2+z
1/2+x,1/4-y,3/4-z
3/4-x,y,3/4-z
1/2-x,-y,1/2-z
1/4+x,3/4+y,1/2-z
1/2-x,3/4+y,1/4+z
1/4+x,-y,1/4+z
1/2+x,1/2+y,z
3/4-x,3/4-y,z
1/2+x,3/4-y,1/4-z
3/4-x,1/2+y,1/4-z
1/2-x,1/2-y,-z
1/4+x,1/4+y,-z
1/2-x,1/4+y,3/4+z
1/4+x,1/2-y,3/4+z
loop_
_atom_site_type_symbol
_atom_site_label
_atom_site_fract_x
_atom_site_fract_y
_atom_site_fract_z
Si Si1 0.140935 0.058811 0.010375
Si Si2 0.252273 0.707448 0.102474
Si Si3 0.249359 0.093726 0.382998
Si Si4 0.447855 0.232918 0.676240
Si Si5 0.088334 0.223987 0.465081
Si Si6 0.625000 0.625000 0.709067
O O1 0.125000 0.125000 0.987070
O O2 0.051535 0.061875 0.055028
O O3 0.274543 0.039415 0.027413
O O4 0.115682 0.007471 0.972577
O O5 0.125000 0.728163 0.125000
O O6 0.352539 0.700008 0.142570
O O7 0.292433 0.761047 0.065809
O O8 0.236200 0.642355 0.075658
O O9 0.125000 0.125000 0.367001
O O10 0.375000 0.131929 0.375000
O O11 0.243253 0.074173 0.436913
O O12 0.266905 0.035541 0.350679
O O13 0.111689 0.187681 0.512724
#
# Coordination Sequence:
#
# PCOD8286558 Si02
#       6
#    32  32  32  32  32  16
#     4  11  24  45  73 105 145 190 252 318 376 456
#     4  11  26  46  72 106 153 199 250 309 392 479
#     4  11  22  44  73 108 150 196 255 326 398 475
#     4  10  24  46  71 105 142 193 249 308 381 469
#     4  11  25  47  74 111 145 193 264 316 395 472
#     4  12  25  48  74 110 154 202 244 330 398 471
#
# _framework density 25.072732999999999
#
# number of rings (size 3 to 8) (size 9 to 14) (size 15 to 20)
#    0.000    1.091    2.727    2.455    0.000    8.727 
#    3.273    6.364    0.000    0.000    0.000    0.000 
#    0.000    0.000    0.000    0.000    0.000    0.000 
#
# Total GULP energy -545132.741906 kJ/mol
# GULP energy per Si atom -12389.380498 kJ/mol
# Density = 2.501567 g / cm^3
# Si number density = 25.072733 Si / 1000 Ang^3
#
#
#
# Elastic Constant Matrix: (Units=GPa)
#
#
# Indices 1 2 3 4 5 6 
#
# 1 173.0266 47.2640 54.9854 0.0000 0.0000 0.0000
# 2 47.2640 93.6361 34.2537 0.0000 0.0000 0.0000
# 3 54.9854 34.2537 134.1841 0.0000 0.0000 0.0000
# 4 0.0000 0.0000 0.0000 10.8682 0.0000 0.0000
# 5 0.0000 0.0000 0.0000 0.0000 30.2039 0.0000
# 6 0.0000 0.0000 0.0000 0.0000 0.0000 40.6860
#
#
#
# Elastic Compliance Matrix: (Units=1/GPa)
#
#
# Indices 1 2 3 4 5 6 
#
# 1 0.007273 -0.002847 -0.002254 0.000000 0.000000 0.000000
# 2 -0.002847 0.012894 -0.002125 0.000000 0.000000 0.000000
# 3 -0.002254 -0.002125 0.008918 0.000000 0.000000 0.000000
# 4 0.000000 0.000000 0.000000 0.092011 0.000000 0.000000
# 5 0.000000 0.000000 0.000000 0.000000 0.033108 0.000000
# 6 0.000000 0.000000 0.000000 0.000000 0.000000 0.024578
#
#
# Mechanical properties :
#
#
# Convention : Reuss Voigt Hill
#
# Bulk Modulus (GPa) = 68.33066 74.87257 71.60162
# Shear Modulus (GPa) = 25.23812 33.97455 29.60634
#
# Velocity S-wave (km/s) = 3.17613 3.68508 3.44003
# Velocity P-wave (km/s) = 6.38456 6.93061 6.66318
#
# Compressibility (1/GPa) = 0.01463472
#
# Stress axis : x y z
#
# Youngs Moduli (GPa) = 137.48921 77.55575 112.12785
#
# Poissons Ratio (x) = 0.22079 0.25270
# Poissons Ratio (y) = 0.39141 0.23826
# Poissons Ratio (z) = 0.30986 0.16480
#
# Static dielectric constant tensor:
#      x y z
#    x 4.686680 0.000000 0.000000 
#    y 0.000000 4.140270 0.000000 
#    z 0.000000 0.000000 4.847530 
# 
# 
# High freq. dielectric constant tensor:
#      x y z
#    x 1.998720 0.000000 0.000000 
#    y 0.000000 1.976260 0.000000 
#    z 0.000000 0.000000 2.022040 
# 
# From -- ./inp_files/64763.got.cif
#   From: 2010.03.12/outbox.cif.g09.slc.cpg/sg70_33_cif.got.tgz:64763.got - 2010.04.16 13:46:32.
