data_PCOD8286249
_publ_section_title
;
Structure prediction by ZEFSAII (Michael W. Deem and Ramdas Pophale) SiO2 
 PCOD8286249
Probable space group: F D D D
;
_chemical_formula_sum "Si O2"
_cell_formula_units_Z 176
_cell_length_a 10.844343
_cell_length_b 29.102676
_cell_length_c 25.898864
_cell_angle_alpha 90.000000
_cell_angle_beta 90.000000
_cell_angle_gamma 90.000000
_cell_volume 8173.665959
_symmetry_space_group_name_H-M "F D D D"
_symmetry_group_IT_number 70
_space_group.IT_coordinate_system_code '2'
_symmetry_cell_setting 'orthorhombic'
loop_
_space_group_symop_operation_xyz
x,y,z
1/4-x,1/4-y,z
x,1/4-y,1/4-z
1/4-x,y,1/4-z
-x,-y,-z
3/4+x,3/4+y,-z
-x,3/4+y,3/4+z
3/4+x,-y,3/4+z
x,1/2+y,1/2+z
1/4-x,3/4-y,1/2+z
x,3/4-y,3/4-z
1/4-x,1/2+y,3/4-z
-x,1/2-y,1/2-z
3/4+x,1/4+y,1/2-z
-x,1/4+y,1/4+z
3/4+x,1/2-y,1/4+z
1/2+x,y,1/2+z
3/4-x,1/4-y,1/2+z
1/2+x,1/4-y,3/4-z
3/4-x,y,3/4-z
1/2-x,-y,1/2-z
1/4+x,3/4+y,1/2-z
1/2-x,3/4+y,1/4+z
1/4+x,-y,1/4+z
1/2+x,1/2+y,z
3/4-x,3/4-y,z
1/2+x,3/4-y,1/4-z
3/4-x,1/2+y,1/4-z
1/2-x,1/2-y,-z
1/4+x,1/4+y,-z
1/2-x,1/4+y,3/4+z
1/4+x,1/2-y,3/4+z
loop_
_atom_site_type_symbol
_atom_site_label
_atom_site_fract_x
_atom_site_fract_y
_atom_site_fract_z
Si Si1 0.483403 0.130295 0.983929
Si Si2 0.125000 0.217002 0.625000
Si Si3 0.518332 0.039688 0.341493
Si Si4 0.219320 0.969255 0.702646
Si Si5 0.709087 0.503918 0.190942
Si Si6 0.616606 0.916652 0.840289
O O1 0.625000 0.125000 0.001476
O O2 0.473436 0.162528 0.933822
O O3 0.423302 0.081194 0.969261
O O4 0.412592 0.151731 0.032065
O O5 0.134383 0.251430 0.673621
O O6 0.247204 0.186008 0.628977
O O7 0.662463 0.033509 0.334024
O O8 0.440693 0.997638 0.313646
O O9 0.496846 0.039606 0.403765
O O10 0.250000 0.000000 0.750000
O O11 0.750000 0.500000 0.250000
O O12 0.770880 0.547741 0.163704
O O13 0.666273 0.875000 0.875000
#
# Coordination Sequence:
#
# PCOD8286249 Si02
#       6
#    32  16  32  32  32  32
#     4  10  21  39  66  99 136 172 220 280 346 402
#     4  12  23  40  68  96 134 166 224 282 345 396
#     4  10  22  43  67  93 136 177 224 279 343 406
#     4  11  23  39  67 101 133 170 219 279 341 410
#     4  11  23  42  70  93 130 188 233 271 338 415
#     4  12  23  42  69 101 133 177 228 287 343 410
#
# _framework density 21.532565000000002
#
# number of rings (size 3 to 8) (size 9 to 14) (size 15 to 20)
#    0.000    1.091    3.636    4.636    0.000    1.455 
#    0.000    1.818    0.000    2.182    0.000    0.000 
#    0.000    0.000    0.000    0.000    0.000    0.000 
#
# Total GULP energy -545263.867590 kJ/mol
# GULP energy per Si atom -12392.360627 kJ/mol
# Density = 2.148356 g / cm^3
# Si number density = 21.532565 Si / 1000 Ang^3
#
#
#
# Elastic Constant Matrix: (Units=GPa)
#
#
# Indices 1 2 3 4 5 6 
#
# 1 41.1771 21.0457 -13.7038 0.0000 0.0000 0.0000
# 2 21.0457 137.5009 43.9547 0.0000 0.0000 0.0000
# 3 -13.7038 43.9547 133.1501 0.0000 0.0000 0.0000
# 4 0.0000 0.0000 0.0000 45.4109 0.0000 0.0000
# 5 0.0000 0.0000 0.0000 0.0000 26.5728 0.0000
# 6 0.0000 0.0000 0.0000 0.0000 0.0000 36.5876
#
#
#
# Elastic Compliance Matrix: (Units=1/GPa)
#
#
# Indices 1 2 3 4 5 6 
#
# 1 0.029027 -0.006035 0.004980 0.000000 0.000000 0.000000
# 2 -0.006035 0.009385 -0.003719 0.000000 0.000000 0.000000
# 3 0.004980 -0.003719 0.009251 0.000000 0.000000 0.000000
# 4 0.000000 0.000000 0.000000 0.022021 0.000000 0.000000
# 5 0.000000 0.000000 0.000000 0.000000 0.037632 0.000000
# 6 0.000000 0.000000 0.000000 0.000000 0.000000 0.027332
#
#
# Mechanical properties :
#
#
# Convention : Reuss Voigt Hill
#
# Bulk Modulus (GPa) = 26.23708 46.04681 36.14194
# Shear Modulus (GPa) = 31.86717 39.08305 35.47511
#
# Velocity S-wave (km/s) = 3.85119 4.26498 4.06336
# Velocity P-wave (km/s) = 5.65569 6.75904 6.23183
#
# Compressibility (1/GPa) = 0.03811400
#
# Stress axis : x y z
#
# Youngs Moduli (GPa) = 34.45090 106.55002 108.10104
#
# Poissons Ratio (x) = 0.64299 -0.53829
# Poissons Ratio (y) = 0.20790 0.40206
# Poissons Ratio (z) = -0.17155 0.39629
#
# Static dielectric constant tensor:
#      x y z
#    x 3.563120 0.000000 0.000000 
#    y 0.000000 2.658010 0.000000 
#    z 0.000000 0.000000 3.966170 
# 
# 
# High freq. dielectric constant tensor:
#      x y z
#    x 1.829050 0.000000 0.000000 
#    y 0.000000 1.844620 0.000000 
#    z 0.000000 0.000000 1.860240 
# 
# From -- ./inp_files/20962.got.cif
#   From: 2010.03.12/outbox.cif.g09.slc.cpg/sg70_11_cif.got.tgz:20962.got - 2010.04.16 13:46:32.
