data_PCOD8286218
_publ_section_title
;
Structure prediction by ZEFSAII (Michael W. Deem and Ramdas Pophale) SiO2 
 PCOD8286218
Probable space group: F D D D
;
_chemical_formula_sum "Si O2"
_cell_formula_units_Z 208
_cell_length_a 20.500827
_cell_length_b 26.984005
_cell_length_c 19.003669
_cell_angle_alpha 90.000000
_cell_angle_beta 90.000000
_cell_angle_gamma 90.000000
_cell_volume 10512.723617
_symmetry_space_group_name_H-M "F D D D"
_symmetry_group_IT_number 70
_space_group.IT_coordinate_system_code '2'
_symmetry_cell_setting 'orthorhombic'
loop_
_space_group_symop_operation_xyz
x,y,z
1/4-x,1/4-y,z
x,1/4-y,1/4-z
1/4-x,y,1/4-z
-x,-y,-z
3/4+x,3/4+y,-z
-x,3/4+y,3/4+z
3/4+x,-y,3/4+z
x,1/2+y,1/2+z
1/4-x,3/4-y,1/2+z
x,3/4-y,3/4-z
1/4-x,1/2+y,3/4-z
-x,1/2-y,1/2-z
3/4+x,1/4+y,1/2-z
-x,1/4+y,1/4+z
3/4+x,1/2-y,1/4+z
1/2+x,y,1/2+z
3/4-x,1/4-y,1/2+z
1/2+x,1/4-y,3/4-z
3/4-x,y,3/4-z
1/2-x,-y,1/2-z
1/4+x,3/4+y,1/2-z
1/2-x,3/4+y,1/4+z
1/4+x,-y,1/4+z
1/2+x,1/2+y,z
3/4-x,3/4-y,z
1/2+x,3/4-y,1/4-z
3/4-x,1/2+y,1/4-z
1/2-x,1/2-y,-z
1/4+x,1/4+y,-z
1/2-x,1/4+y,3/4+z
1/4+x,1/2-y,3/4+z
loop_
_atom_site_type_symbol
_atom_site_label
_atom_site_fract_x
_atom_site_fract_y
_atom_site_fract_z
Si Si1 0.790617 0.672460 0.017925
Si Si2 0.233210 0.620185 0.395853
Si Si3 0.937395 0.026375 0.578885
Si Si4 0.888095 0.950054 0.095535
Si Si5 0.360260 0.125000 0.625000
Si Si6 0.190790 0.286543 0.583826
Si Si7 0.670697 0.018302 0.693017
O O1 0.846655 0.648634 0.063997
O O2 0.739667 0.702682 0.067807
O O3 0.759731 0.625930 0.975595
O O4 0.818706 0.710080 0.958485
O O5 0.171942 0.584995 0.390029
O O6 0.205602 0.675161 0.374827
O O7 0.288274 0.594627 0.346016
O O8 0.939170 0.084082 0.596143
O O9 0.929373 0.021735 0.495992
O O10 0.872881 0.001739 0.613967
O O11 0.001844 0.000106 0.610600
O O12 0.888825 0.957502 0.011866
O O13 0.125000 0.274463 0.625000
O O14 0.625000 0.025722 0.625000
#
# Coordination Sequence:
#
# PCOD8286218 Si02
#       7
#    32  32  32  32  16  32  32
#     4  10  22  36  56  90 119 156 201 246 297 362
#     4   9  19  36  62  84 117 151 199 241 296 362
#     4  10  22  40  62  86 122 156 198 253 304 358
#     4   9  18  39  58  88 117 158 192 240 303 359
#     4  12  22  38  58  86 124 154 194 252 300 354
#     4  10  21  42  64  88 114 156 208 251 301 369
#     4  10  21  38  56  84 125 159 198 244 294 367
#
# _framework density 19.785547999999999
#
# number of rings (size 3 to 8) (size 9 to 14) (size 15 to 20)
#    0.000    2.154    1.538    0.923    2.154    1.846 
#    2.769    0.385    0.000    0.000    0.000    0.000 
#    0.000    0.000    0.000    0.000    0.000    0.000 
#
# Total GULP energy -644298.779672 kJ/mol
# GULP energy per Si atom -12390.361148 kJ/mol
# Density = 1.974052 g / cm^3
# Si number density = 19.785548 Si / 1000 Ang^3
#
#
#
# Elastic Constant Matrix: (Units=GPa)
#
#
# Indices 1 2 3 4 5 6 
#
# 1 95.7417 43.4997 44.0786 0.0000 0.0000 0.0000
# 2 43.4997 106.1252 34.9938 0.0000 0.0000 0.0000
# 3 44.0786 34.9938 78.4209 0.0000 0.0000 0.0000
# 4 0.0000 0.0000 0.0000 28.8875 0.0000 0.0000
# 5 0.0000 0.0000 0.0000 0.0000 18.0513 0.0000
# 6 0.0000 0.0000 0.0000 0.0000 0.0000 12.5690
#
#
#
# Elastic Compliance Matrix: (Units=1/GPa)
#
#
# Indices 1 2 3 4 5 6 
#
# 1 0.015458 -0.004070 -0.006872 0.000000 0.000000 0.000000
# 2 -0.004070 0.012120 -0.003121 0.000000 0.000000 0.000000
# 3 -0.006872 -0.003121 0.018007 0.000000 0.000000 0.000000
# 4 0.000000 0.000000 0.000000 0.034617 0.000000 0.000000
# 5 0.000000 0.000000 0.000000 0.000000 0.055398 0.000000
# 6 0.000000 0.000000 0.000000 0.000000 0.000000 0.079561
#
#
# Mechanical properties :
#
#
# Convention : Reuss Voigt Hill
#
# Bulk Modulus (GPa) = 57.27726 58.38133 57.82929
# Shear Modulus (GPa) = 20.07175 22.41594 21.24384
#
# Velocity S-wave (km/s) = 3.18852 3.36958 3.28030
# Velocity P-wave (km/s) = 6.52437 6.68654 6.60596
#
# Compressibility (1/GPa) = 0.01745894
#
# Stress axis : x y z
#
# Youngs Moduli (GPa) = 64.69175 82.50751 55.53363
#
# Poissons Ratio (x) = 0.33580 0.38165
# Poissons Ratio (y) = 0.26329 0.17331
# Poissons Ratio (z) = 0.44459 0.25749
#
# Static dielectric constant tensor:
#      x y z
#    x 3.825030 0.000000 0.000000 
#    y 0.000000 4.079330 0.000000 
#    z 0.000000 0.000000 3.423360 
# 
# 
# High freq. dielectric constant tensor:
#      x y z
#    x 1.773210 0.000000 0.000000 
#    y 0.000000 1.782640 0.000000 
#    z 0.000000 0.000000 1.749000 
# 
# From -- ./inp_files/36702.got.cif
#   From: 2010.03.12/outbox.cif.g09.slc.cpg/sg70_19_cif.got.tgz:36702.got - 2010.04.16 13:46:32.
