data_PCOD8286225
_publ_section_title
;
Structure prediction by ZEFSAII (Michael W. Deem and Ramdas Pophale) SiO2 
 PCOD8286225
Probable space group: F D D D
;
_chemical_formula_sum "Si O2"
_cell_formula_units_Z 128
_cell_length_a 27.883579
_cell_length_b 10.025277
_cell_length_c 24.960831
_cell_angle_alpha 90.000000
_cell_angle_beta 90.000000
_cell_angle_gamma 90.000000
_cell_volume 6977.565755
_symmetry_space_group_name_H-M "F D D D"
_symmetry_group_IT_number 70
_space_group.IT_coordinate_system_code '2'
_symmetry_cell_setting 'orthorhombic'
loop_
_space_group_symop_operation_xyz
x,y,z
1/4-x,1/4-y,z
x,1/4-y,1/4-z
1/4-x,y,1/4-z
-x,-y,-z
3/4+x,3/4+y,-z
-x,3/4+y,3/4+z
3/4+x,-y,3/4+z
x,1/2+y,1/2+z
1/4-x,3/4-y,1/2+z
x,3/4-y,3/4-z
1/4-x,1/2+y,3/4-z
-x,1/2-y,1/2-z
3/4+x,1/4+y,1/2-z
-x,1/4+y,1/4+z
3/4+x,1/2-y,1/4+z
1/2+x,y,1/2+z
3/4-x,1/4-y,1/2+z
1/2+x,1/4-y,3/4-z
3/4-x,y,3/4-z
1/2-x,-y,1/2-z
1/4+x,3/4+y,1/2-z
1/2-x,3/4+y,1/4+z
1/4+x,-y,1/4+z
1/2+x,1/2+y,z
3/4-x,3/4-y,z
1/2+x,3/4-y,1/4-z
3/4-x,1/2+y,1/4-z
1/2-x,1/2-y,-z
1/4+x,1/4+y,-z
1/2-x,1/4+y,3/4+z
1/4+x,1/2-y,3/4+z
loop_
_atom_site_type_symbol
_atom_site_label
_atom_site_fract_x
_atom_site_fract_y
_atom_site_fract_z
Si Si1 0.806422 0.781484 0.628329
Si Si2 0.375000 0.875000 0.531125
Si Si3 0.121943 0.362668 0.537308
Si Si4 0.805235 0.218395 0.879724
Si Si5 0.125000 0.625000 0.290658
O O1 0.817854 0.625000 0.625000
O O2 0.828599 0.845945 0.681978
O O3 0.750439 0.812389 0.626135
O O4 0.828451 0.849764 0.576406
O O5 0.366737 0.752020 0.492163
O O6 0.174595 0.336860 0.563509
O O7 0.081702 0.360313 0.582794
O O8 0.110572 0.250155 0.494490
O O9 0.816860 0.375000 0.875000
#
# Coordination Sequence:
#
# PCOD8286225 Si02
#       5
#    32  16  32  32  16
#     4  10  22  38  59  88 118 151 197 243 285 345
#     4  11  24  39  58  88 122 155 188 239 302 338
#     4  11  21  39  61  86 118 153 192 241 290 344
#     4  10  21  38  61  89 115 152 202 239 281 347
#     4  11  20  37  60  84 110 155 194 237 286 338
#
# _framework density 18.344505999999999
#
# number of rings (size 3 to 8) (size 9 to 14) (size 15 to 20)
#    0.000    1.500    5.000    0.750    0.000    6.000 
#    0.000    2.500    0.000    0.000    0.000    0.000 
#    0.000    0.000    0.000    0.000    0.000    0.000 
#
# Total GULP energy -396868.767656 kJ/mol
# GULP energy per Si atom -12402.148989 kJ/mol
# Density = 1.830275 g / cm^3
# Si number density = 18.344506 Si / 1000 Ang^3
#
#
#
# Elastic Constant Matrix: (Units=GPa)
#
#
# Indices 1 2 3 4 5 6 
#
# 1 145.4893 52.6407 61.8483 0.0000 0.0000 0.0000
# 2 52.6407 138.9658 72.7531 0.0000 0.0000 0.0000
# 3 61.8483 72.7531 130.5795 0.0000 0.0000 0.0000
# 4 0.0000 0.0000 0.0000 50.9365 0.0000 0.0000
# 5 0.0000 0.0000 0.0000 0.0000 14.3347 0.0000
# 6 0.0000 0.0000 0.0000 0.0000 0.0000 19.2025
#
#
#
# Elastic Compliance Matrix: (Units=1/GPa)
#
#
# Indices 1 2 3 4 5 6 
#
# 1 0.008862 -0.001637 -0.003286 0.000000 0.000000 0.000000
# 2 -0.001637 0.010462 -0.005053 0.000000 0.000000 0.000000
# 3 -0.003286 -0.005053 0.012030 0.000000 0.000000 0.000000
# 4 0.000000 0.000000 0.000000 0.019632 0.000000 0.000000
# 5 0.000000 0.000000 0.000000 0.000000 0.069761 0.000000
# 6 0.000000 0.000000 0.000000 0.000000 0.000000 0.052076
#
#
# Mechanical properties :
#
#
# Convention : Reuss Voigt Hill
#
# Bulk Modulus (GPa) = 87.70384 87.72429 87.71407
# Shear Modulus (GPa) = 25.43543 32.08092 28.75817
#
# Velocity S-wave (km/s) = 3.72767 4.18641 3.96368
# Velocity P-wave (km/s) = 8.15110 8.44348 8.29858
#
# Compressibility (1/GPa) = 0.01140201
#
# Stress axis : x y z
#
# Youngs Moduli (GPa) = 112.83677 95.58608 83.12611
#
# Poissons Ratio (x) = 0.15648 0.27311
# Poissons Ratio (y) = 0.18471 0.42008
# Poissons Ratio (z) = 0.37073 0.48304
#
# Static dielectric constant tensor:
#      x y z
#    x 3.331770 0.000000 0.000000 
#    y 0.000000 3.287350 0.000000 
#    z 0.000000 0.000000 3.626390 
# 
# 
# High freq. dielectric constant tensor:
#      x y z
#    x 1.708560 0.000000 0.000000 
#    y 0.000000 1.710690 0.000000 
#    z 0.000000 0.000000 1.730350 
# 
# From -- ./inp_files/12019.got.cif
#   From: 2010.03.12/outbox.cif.g09.slc.cpg/sg70_7_cif.got.tgz:12019.got - 2010.04.16 13:46:32.
