data_PCOD8286835
_publ_section_title
;
Structure prediction by ZEFSAII (Michael W. Deem and Ramdas Pophale) SiO2 
 PCOD8286835
Probable space group: F D D D
;
_chemical_formula_sum "Si O2"
_cell_formula_units_Z 136
_cell_length_a 20.665974
_cell_length_b 19.701440
_cell_length_c 15.775514
_cell_angle_alpha 90.000000
_cell_angle_beta 90.000000
_cell_angle_gamma 90.000000
_cell_volume 6422.991798
_symmetry_space_group_name_H-M "F D D D"
_symmetry_group_IT_number 70
_space_group.IT_coordinate_system_code '2'
_symmetry_cell_setting 'orthorhombic'
loop_
_space_group_symop_operation_xyz
x,y,z
1/4-x,1/4-y,z
x,1/4-y,1/4-z
1/4-x,y,1/4-z
-x,-y,-z
3/4+x,3/4+y,-z
-x,3/4+y,3/4+z
3/4+x,-y,3/4+z
x,1/2+y,1/2+z
1/4-x,3/4-y,1/2+z
x,3/4-y,3/4-z
1/4-x,1/2+y,3/4-z
-x,1/2-y,1/2-z
3/4+x,1/4+y,1/2-z
-x,1/4+y,1/4+z
3/4+x,1/2-y,1/4+z
1/2+x,y,1/2+z
3/4-x,1/4-y,1/2+z
1/2+x,1/4-y,3/4-z
3/4-x,y,3/4-z
1/2-x,-y,1/2-z
1/4+x,3/4+y,1/2-z
1/2-x,3/4+y,1/4+z
1/4+x,-y,1/4+z
1/2+x,1/2+y,z
3/4-x,3/4-y,z
1/2+x,3/4-y,1/4-z
3/4-x,1/2+y,1/4-z
1/2-x,1/2-y,-z
1/4+x,1/4+y,-z
1/2-x,1/4+y,3/4+z
1/4+x,1/2-y,3/4+z
loop_
_atom_site_type_symbol
_atom_site_label
_atom_site_fract_x
_atom_site_fract_y
_atom_site_fract_z
Si Si1 0.529787 0.889998 0.277477
Si Si2 0.125000 0.125000 0.625000
Si Si3 0.829709 0.435600 0.189258
Si Si4 0.108916 0.436548 0.721702
Si Si5 0.464574 0.795253 0.005000
O O1 0.513739 0.875000 0.375000
O O2 0.490925 0.832236 0.225525
O O3 0.605032 0.880892 0.254220
O O4 0.514710 0.966156 0.247140
O O5 0.171769 0.174690 0.678674
O O6 0.875000 0.375000 0.218866
O O7 0.861425 0.503381 0.223033
O O8 0.827283 0.442689 0.088484
O O9 0.125000 0.453581 0.625000
O O10 0.034134 0.418522 0.738848
#
# Coordination Sequence:
#
# PCOD8286835 Si02
#       5
#    32   8  32  32  32
#     4  12  25  43  72 106 139 177 226 289 353 416
#     4  12  32  48  72  92 146 204 236 292 336 412
#     4  12  24  44  68 100 140 178 224 284 350 417
#     4  12  25  43  72 106 139 177 226 289 353 416
#     4  12  27  48  65 102 137 184 239 279 347 417
#
# _framework density 21.173933000000002
#
# number of rings (size 3 to 8) (size 9 to 14) (size 15 to 20)
#    0.000    0.000    8.235    2.118    3.294    0.000 
#    0.000    3.529    0.000    0.000    0.000    0.000 
#    0.000    0.000    0.000    0.000    0.000    0.000 
#
# Total GULP energy -421593.052363 kJ/mol
# GULP energy per Si atom -12399.795658 kJ/mol
# Density = 2.112574 g / cm^3
# Si number density = 21.173933 Si / 1000 Ang^3
#
#
#
# Elastic Constant Matrix: (Units=GPa)
#
#
# Indices 1 2 3 4 5 6 
#
# 1 114.8840 15.0938 41.5012 0.0000 0.0000 0.0000
# 2 15.0938 50.6226 22.9423 0.0000 0.0000 0.0000
# 3 41.5012 22.9423 140.7329 0.0000 0.0000 0.0000
# 4 0.0000 0.0000 0.0000 21.7473 0.0000 0.0000
# 5 0.0000 0.0000 0.0000 0.0000 45.8363 0.0000
# 6 0.0000 0.0000 0.0000 0.0000 0.0000 40.3280
#
#
#
# Elastic Compliance Matrix: (Units=1/GPa)
#
#
# Indices 1 2 3 4 5 6 
#
# 1 0.009885 -0.001756 -0.002629 0.000000 0.000000 0.000000
# 2 -0.001756 0.021642 -0.003010 0.000000 0.000000 0.000000
# 3 -0.002629 -0.003010 0.008372 0.000000 0.000000 0.000000
# 4 0.000000 0.000000 0.000000 0.045983 0.000000 0.000000
# 5 0.000000 0.000000 0.000000 0.000000 0.021817 0.000000
# 6 0.000000 0.000000 0.000000 0.000000 0.000000 0.024797
#
#
# Mechanical properties :
#
#
# Convention : Reuss Voigt Hill
#
# Bulk Modulus (GPa) = 39.82729 51.70158 45.76444
# Shear Modulus (GPa) = 32.12264 36.69580 34.40922
#
# Velocity S-wave (km/s) = 3.89920 4.16753 4.03559
# Velocity P-wave (km/s) = 6.25477 6.90132 6.58598
#
# Compressibility (1/GPa) = 0.02510841
#
# Stress axis : x y z
#
# Youngs Moduli (GPa) = 101.16616 46.20676 119.45184
#
# Poissons Ratio (x) = 0.08114 0.31400
# Poissons Ratio (y) = 0.17764 0.35958
# Poissons Ratio (z) = 0.26593 0.13909
#
# Static dielectric constant tensor:
#      x y z
#    x 3.046420 0.000000 0.000000 
#    y 0.000000 3.932150 0.000000 
#    z 0.000000 0.000000 3.895880 
# 
# 
# High freq. dielectric constant tensor:
#      x y z
#    x 1.847850 0.000000 0.000000 
#    y 0.000000 1.828960 0.000000 
#    z 0.000000 0.000000 1.834510 
# 
# From -- ./inp_files/27301.got.cif
#   From: 2010.03.12/outbox.cif.g09.slc.cpg/sg70_14_cif.got.tgz:27301.got - 2010.04.16 13:46:32.
