data_PCOD8286992
_publ_section_title
;
Structure prediction by ZEFSAII (Michael W. Deem and Ramdas Pophale) SiO2 
 PCOD8286992
Probable space group: I M M M
;
_chemical_formula_sum "Si O2"
_cell_formula_units_Z 120
_cell_length_a 30.869459
_cell_length_b 13.207494
_cell_length_c 20.138563
_cell_angle_alpha 90.000000
_cell_angle_beta 90.000000
_cell_angle_gamma 90.000000
_cell_volume 8210.657161
_symmetry_space_group_name_H-M "I M M M"
_symmetry_group_IT_number 71
_symmetry_cell_setting 'orthorhombic'
loop_
_space_group_symop_operation_xyz
x,y,z
-x,-y,z
x,-y,-z
-x,y,-z
-x,-y,-z
x,y,-z
-x,y,z
x,-y,z
1/2+x,1/2+y,1/2+z
1/2-x,1/2-y,1/2+z
1/2+x,1/2-y,1/2-z
1/2-x,1/2+y,1/2-z
1/2-x,1/2-y,1/2-z
1/2+x,1/2+y,1/2-z
1/2-x,1/2+y,1/2+z
1/2+x,1/2-y,1/2+z
loop_
_atom_site_type_symbol
_atom_site_label
_atom_site_fract_x
_atom_site_fract_y
_atom_site_fract_z
Si Si1 0.206985 0.769382 0.075817
Si Si2 0.664909 0.116874 0.669281
Si Si3 0.576635 0.796149 0.358859
Si Si4 0.119723 0.116037 0.923765
Si Si5 0.360089 0.881097 0.185354
Si Si6 0.000000 0.392197 0.925401
Si Si7 0.204622 0.618585 0.424530
Si Si8 0.451890 0.882310 0.774897
O O1 0.201111 0.677920 0.128107
O O2 0.169614 0.852407 0.084871
O O3 0.251789 0.823056 0.093619
O O4 0.207171 0.727597 0.000000
O O5 0.618542 0.131790 0.633912
O O6 0.659442 0.159987 0.744713
O O7 0.678612 0.000000 0.668233
O O8 0.589889 0.680172 0.373402
O O9 0.542753 0.827623 0.413941
O O10 0.552968 0.809274 0.288283
O O11 0.114809 0.000000 0.902558
O O12 0.105064 0.133208 0.000000
O O13 0.333310 0.837421 0.123082
O O14 0.411565 0.854565 0.176398
O O15 0.354193 0.000000 0.186773
O O16 0.000000 0.500000 0.884489
O O17 0.000000 0.423918 0.000000
O O18 0.190049 0.639610 0.500000
O O19 0.212971 0.500000 0.412941
O O20 0.500000 0.863749 0.806742
O O21 0.447270 0.000000 0.753092
#
# Coordination Sequence:
#
# PCOD8286992 Si02
#       8
#    16  16  16  16  16   8  16  16
#     4   9  17  27  41  60  78 105 143 170 198 239
#     4   9  17  28  41  58  83 108 132 167 204 241
#     4  10  17  27  40  55  74 100 134 166 202 243
#     4   9  17  29  41  52  72 103 139 176 205 232
#     4   8  15  26  40  61  83 105 134 163 199 242
#     4  11  20  26  35  53  75  97 127 169 208 239
#     4   9  16  27  43  61  82 105 132 169 203 233
#     4   9  15  25  43  61  79 102 127 158 195 242
#
# _framework density 14.615150999999999
#
# number of rings (size 3 to 8) (size 9 to 14) (size 15 to 20)
#    0.000    2.867    0.667    2.800    0.000    2.933 
#    0.000    0.333    0.000    1.600    0.000    2.800 
#    0.000    0.000    0.000    0.000    0.000    0.000 
#
# Total GULP energy -743481.947535 kJ/mol
# GULP energy per Si atom -12391.365792 kJ/mol
# Density = 1.458189 g / cm^3
# Si number density = 14.615151 Si / 1000 Ang^3
#
#
#
# Elastic Constant Matrix: (Units=GPa)
#
#
# Indices 1 2 3 4 5 6 
#
# 1 114.5443 39.4603 59.9896 0.0000 0.0000 0.0000
# 2 39.4603 64.6581 32.2344 0.0000 0.0000 0.0000
# 3 59.9896 32.2344 69.6523 0.0000 0.0000 0.0000
# 4 0.0000 0.0000 0.0000 13.2949 0.0000 0.0000
# 5 0.0000 0.0000 0.0000 0.0000 24.3233 0.0000
# 6 0.0000 0.0000 0.0000 0.0000 0.0000 18.0311
#
#
#
# Elastic Compliance Matrix: (Units=1/GPa)
#
#
# Indices 1 2 3 4 5 6 
#
# 1 0.016632 -0.003911 -0.012514 0.000000 0.000000 0.000000
# 2 -0.003911 0.021024 -0.006361 0.000000 0.000000 0.000000
# 3 -0.012514 -0.006361 0.028079 0.000000 0.000000 0.000000
# 4 0.000000 0.000000 0.000000 0.075217 0.000000 0.000000
# 5 0.000000 0.000000 0.000000 0.000000 0.041113 0.000000
# 6 0.000000 0.000000 0.000000 0.000000 0.000000 0.055460
#
#
# Mechanical properties :
#
#
# Convention : Reuss Voigt Hill
#
# Bulk Modulus (GPa) = 49.59923 56.91369 53.25646
# Shear Modulus (GPa) = 17.25218 18.94123 18.09671
#
# Velocity S-wave (km/s) = 3.43947 3.60390 3.52265
# Velocity P-wave (km/s) = 7.05576 7.50624 7.28448
#
# Compressibility (1/GPa) = 0.02016160
#
# Stress axis : x y z
#
# Youngs Moduli (GPa) = 60.12586 47.56403 35.61363
#
# Poissons Ratio (x) = 0.18604 0.44568
# Poissons Ratio (y) = 0.23518 0.22654
# Poissons Ratio (z) = 0.75244 0.30256
#
# Static dielectric constant tensor:
#      x y z
#    x 3.043620 0.000000 0.000000 
#    y 0.000000 2.635060 0.000000 
#    z 0.000000 0.000000 2.849110 
# 
# 
# High freq. dielectric constant tensor:
#      x y z
#    x 1.560310 0.000000 0.000000 
#    y 0.000000 1.529010 0.000000 
#    z 0.000000 0.000000 1.537180 
# 
# From -- ./inp_files/38582.got.cif
#   From: 2010.06.25/outbox.cif.g09.slc.cpg/sg71_20_cif.got.tgz:38582.got - 2010.06.28 04:59:45.
