data_PCOD8286037
_publ_section_title
;
Structure prediction by ZEFSAII (Michael W. Deem and Ramdas Pophale) SiO2 
 PCOD8286037
Probable space group: F D D D
;
_chemical_formula_sum "Si O2"
_cell_formula_units_Z 144
_cell_length_a 17.434535
_cell_length_b 18.770293
_cell_length_c 20.247687
_cell_angle_alpha 90.000000
_cell_angle_beta 90.000000
_cell_angle_gamma 90.000000
_cell_volume 6626.082506
_symmetry_space_group_name_H-M "F D D D"
_symmetry_group_IT_number 70
_space_group.IT_coordinate_system_code '2'
_symmetry_cell_setting 'orthorhombic'
loop_
_space_group_symop_operation_xyz
x,y,z
1/4-x,1/4-y,z
x,1/4-y,1/4-z
1/4-x,y,1/4-z
-x,-y,-z
3/4+x,3/4+y,-z
-x,3/4+y,3/4+z
3/4+x,-y,3/4+z
x,1/2+y,1/2+z
1/4-x,3/4-y,1/2+z
x,3/4-y,3/4-z
1/4-x,1/2+y,3/4-z
-x,1/2-y,1/2-z
3/4+x,1/4+y,1/2-z
-x,1/4+y,1/4+z
3/4+x,1/2-y,1/4+z
1/2+x,y,1/2+z
3/4-x,1/4-y,1/2+z
1/2+x,1/4-y,3/4-z
3/4-x,y,3/4-z
1/2-x,-y,1/2-z
1/4+x,3/4+y,1/2-z
1/2-x,3/4+y,1/4+z
1/4+x,-y,1/4+z
1/2+x,1/2+y,z
3/4-x,3/4-y,z
1/2+x,3/4-y,1/4-z
3/4-x,1/2+y,1/4-z
1/2-x,1/2-y,-z
1/4+x,1/4+y,-z
1/2-x,1/4+y,3/4+z
1/4+x,1/2-y,3/4+z
loop_
_atom_site_type_symbol
_atom_site_label
_atom_site_fract_x
_atom_site_fract_y
_atom_site_fract_z
Si Si1 0.125000 0.125000 0.014871
Si Si2 0.473261 0.943337 0.688477
Si Si3 0.298563 0.281780 0.559752
Si Si4 0.007351 0.791411 0.817324
Si Si5 0.828262 0.731151 0.694053
O O1 0.197493 0.142728 0.063279
O O2 0.144838 0.059870 0.966633
O O3 0.388836 0.970961 0.707649
O O4 0.474805 0.861099 0.668939
O O5 0.510864 0.990129 0.629809
O O6 0.525130 0.945347 0.752876
O O7 0.250000 0.250000 0.500000
O O8 0.282167 0.235335 0.625203
O O9 0.095885 0.817558 0.819395
O O10 0.000000 0.750000 0.750000
#
# Coordination Sequence:
#
# PCOD8286037 Si02
#       5
#    16  32  32  32  32
#     4  10  20  37  60  92 130 161 190 232 302 383
#     4  10  22  40  61  87 119 156 203 253 303 361
#     4  10  22  42  62  82 115 158 205 260 308 353
#     4   9  19  36  59  88 124 161 194 238 295 364
#     4  10  21  38  61  88 120 161 202 246 302 366
#
# _framework density 21.732298
#
# number of rings (size 3 to 8) (size 9 to 14) (size 15 to 20)
#    0.000    2.222    0.000    4.000    0.000    8.889 
#    0.000   11.111    0.000    0.000    0.000    0.000 
#    0.000    0.000    0.000    0.000    0.000    0.000 
#
# Total GULP energy -446209.707485 kJ/mol
# GULP energy per Si atom -12394.714097 kJ/mol
# Density = 2.168283 g / cm^3
# Si number density = 21.732298 Si / 1000 Ang^3
#
#
#
# Elastic Constant Matrix: (Units=GPa)
#
#
# Indices 1 2 3 4 5 6 
#
# 1 115.4198 42.1899 74.4717 0.0000 0.0000 0.0000
# 2 42.1899 50.6705 21.9956 0.0000 0.0000 0.0000
# 3 74.4717 21.9956 158.6367 0.0000 0.0000 0.0000
# 4 0.0000 0.0000 0.0000 34.7554 0.0000 0.0000
# 5 0.0000 0.0000 0.0000 0.0000 37.2899 0.0000
# 6 0.0000 0.0000 0.0000 0.0000 0.0000 39.3804
#
#
#
# Elastic Compliance Matrix: (Units=1/GPa)
#
#
# Indices 1 2 3 4 5 6 
#
# 1 0.016910 -0.011315 -0.006369 0.000000 0.000000 0.000000
# 2 -0.011315 0.028570 0.001350 0.000000 0.000000 0.000000
# 3 -0.006369 0.001350 0.009107 0.000000 0.000000 0.000000
# 4 0.000000 0.000000 0.000000 0.028773 0.000000 0.000000
# 5 0.000000 0.000000 0.000000 0.000000 0.026817 0.000000
# 6 0.000000 0.000000 0.000000 0.000000 0.000000 0.025393
#
#
# Mechanical properties :
#
#
# Convention : Reuss Voigt Hill
#
# Bulk Modulus (GPa) = 45.62273 66.89348 56.25811
# Shear Modulus (GPa) = 28.48310 34.68979 31.58644
#
# Velocity S-wave (km/s) = 3.62420 3.99962 3.81653
# Velocity P-wave (km/s) = 6.20900 7.22335 6.73530
#
# Compressibility (1/GPa) = 0.02191890
#
# Stress axis : x y z
#
# Youngs Moduli (GPa) = 59.13816 35.00159 109.81084
#
# Poissons Ratio (x) = 0.39603 0.69942
# Poissons Ratio (y) = 0.66912 -0.14827
# Poissons Ratio (z) = 0.37667 -0.04726
#
# Static dielectric constant tensor:
#      x y z
#    x 6.278950 0.000000 0.000000 
#    y 0.000000 3.901560 0.000000 
#    z 0.000000 0.000000 4.025730 
# 
# 
# High freq. dielectric constant tensor:
#      x y z
#    x 1.852490 0.000000 0.000000 
#    y 0.000000 1.840440 0.000000 
#    z 0.000000 0.000000 1.871400 
# 
# From -- ./inp_files/36214.got.cif
#   From: 2010.03.12/outbox.cif.g09.slc.cpg/sg70_19_cif.got.tgz:36214.got - 2010.04.16 13:46:32.
