data_PCOD8286028
_publ_section_title
;
Structure prediction by ZEFSAII (Michael W. Deem and Ramdas Pophale) SiO2 
 PCOD8286028
Probable space group: F D D D
;
_chemical_formula_sum "Si O2"
_cell_formula_units_Z 240
_cell_length_a 28.417952
_cell_length_b 19.647984
_cell_length_c 21.323265
_cell_angle_alpha 90.000000
_cell_angle_beta 90.000000
_cell_angle_gamma 90.000000
_cell_volume 11905.961570
_symmetry_space_group_name_H-M "F D D D"
_symmetry_group_IT_number 70
_space_group.IT_coordinate_system_code '2'
_symmetry_cell_setting 'orthorhombic'
loop_
_space_group_symop_operation_xyz
x,y,z
1/4-x,1/4-y,z
x,1/4-y,1/4-z
1/4-x,y,1/4-z
-x,-y,-z
3/4+x,3/4+y,-z
-x,3/4+y,3/4+z
3/4+x,-y,3/4+z
x,1/2+y,1/2+z
1/4-x,3/4-y,1/2+z
x,3/4-y,3/4-z
1/4-x,1/2+y,3/4-z
-x,1/2-y,1/2-z
3/4+x,1/4+y,1/2-z
-x,1/4+y,1/4+z
3/4+x,1/2-y,1/4+z
1/2+x,y,1/2+z
3/4-x,1/4-y,1/2+z
1/2+x,1/4-y,3/4-z
3/4-x,y,3/4-z
1/2-x,-y,1/2-z
1/4+x,3/4+y,1/2-z
1/2-x,3/4+y,1/4+z
1/4+x,-y,1/4+z
1/2+x,1/2+y,z
3/4-x,3/4-y,z
1/2+x,3/4-y,1/4-z
3/4-x,1/2+y,1/4-z
1/2-x,1/2-y,-z
1/4+x,1/4+y,-z
1/2-x,1/4+y,3/4+z
1/4+x,1/2-y,3/4+z
loop_
_atom_site_type_symbol
_atom_site_label
_atom_site_fract_x
_atom_site_fract_y
_atom_site_fract_z
Si Si1 0.427865 0.399313 0.438222
Si Si2 0.259823 0.402610 0.543509
Si Si3 0.572149 0.111791 0.415713
Si Si4 0.484615 0.450692 0.759624
Si Si5 0.927822 0.059560 0.438141
Si Si6 0.921035 0.646606 0.454444
Si Si7 0.760164 0.125000 0.625000
Si Si8 0.048840 0.976080 0.971989
O O1 0.454440 0.375000 0.375000
O O2 0.375000 0.375000 0.434172
O O3 0.447765 0.359278 0.496796
O O4 0.433486 0.479535 0.440681
O O5 0.283122 0.402716 0.612461
O O6 0.230116 0.470156 0.526813
O O7 0.223868 0.341154 0.530586
O O8 0.625000 0.125000 0.389525
O O9 0.552650 0.175223 0.457317
O O10 0.578171 0.043806 0.457082
O O11 0.538567 0.439218 0.738906
O O12 0.475986 0.408493 0.823325
O O13 0.925560 0.092616 0.369431
O O14 0.880336 0.077524 0.476315
O O15 0.925147 0.567295 0.473742
O O16 0.793100 0.068563 0.658591
O O17 0.000000 0.000000 0.000000
#
# Coordination Sequence:
#
# PCOD8286028 Si02
#       8
#    32  32  32  32  32  32  16  32
#     4  11  23  42  69  94 125 167 217 272 322 392
#     4  12  24  42  67  94 133 173 209 268 333 389
#     4  12  26  42  65  98 139 170 218 267 328 393
#     4  11  22  41  65  94 126 178 216 264 322 386
#     4  11  22  40  64  98 120 168 218 266 322 383
#     4  10  21  38  66  90 125 163 222 263 314 383
#     4  10  20  36  69  86 118 170 226 248 311 384
#     4  11  20  41  63  93 127 173 210 267 319 386
#
# _framework density 20.157969000000001
#
# number of rings (size 3 to 8) (size 9 to 14) (size 15 to 20)
#    0.000    0.933    5.333    4.000    1.867    0.000 
#    0.000    0.333    5.867    0.000    0.000    0.000 
#    0.000    0.000    0.000    0.000    0.000    0.000 
#
# Total GULP energy -743793.670023 kJ/mol
# GULP energy per Si atom -12396.561167 kJ/mol
# Density = 2.011209 g / cm^3
# Si number density = 20.157969 Si / 1000 Ang^3
#
#
#
# Elastic Constant Matrix: (Units=GPa)
#
#
# Indices 1 2 3 4 5 6 
#
# 1 80.2845 30.8079 12.4654 0.0000 0.0000 0.0000
# 2 30.8079 149.1890 30.3376 0.0000 0.0000 0.0000
# 3 12.4654 30.3376 83.9441 0.0000 0.0000 0.0000
# 4 0.0000 0.0000 0.0000 33.5151 0.0000 0.0000
# 5 0.0000 0.0000 0.0000 0.0000 22.1899 0.0000
# 6 0.0000 0.0000 0.0000 0.0000 0.0000 0.4437
#
#
#
# Elastic Compliance Matrix: (Units=1/GPa)
#
#
# Indices 1 2 3 4 5 6 
#
# 1 0.013619 -0.002592 -0.001086 0.000000 0.000000 0.000000
# 2 -0.002592 0.007728 -0.002408 0.000000 0.000000 0.000000
# 3 -0.001086 -0.002408 0.012944 0.000000 0.000000 0.000000
# 4 0.000000 0.000000 0.000000 0.029837 0.000000 0.000000
# 5 0.000000 0.000000 0.000000 0.000000 0.045066 0.000000
# 6 0.000000 0.000000 0.000000 0.000000 0.000000 2.253949
#
#
# Mechanical properties :
#
#
# Convention : Reuss Voigt Hill
#
# Bulk Modulus (GPa) = 45.20768 51.18212 48.19490
# Shear Modulus (GPa) = 2.09847 27.21684 14.65766
#
# Velocity S-wave (km/s) = 1.02141 3.67846 2.69948
# Velocity P-wave (km/s) = 4.88533 6.59447 5.80317
#
# Compressibility (1/GPa) = 0.02212014
#
# Stress axis : x y z
#
# Youngs Moduli (GPa) = 73.42822 129.40423 77.25484
#
# Poissons Ratio (x) = 0.33535 0.08388
# Poissons Ratio (y) = 0.19029 0.18603
# Poissons Ratio (z) = 0.07972 0.31160
#
# Static dielectric constant tensor:
#      x y z
#    x 3.620340 0.000000 0.000000 
#    y 0.000000 4.040230 0.000000 
#    z 0.000000 0.000000 3.820740 
# 
# 
# High freq. dielectric constant tensor:
#      x y z
#    x 1.770800 0.000000 0.000000 
#    y 0.000000 1.802170 0.000000 
#    z 0.000000 0.000000 1.787390 
# 
# From -- ./inp_files/47114.got.cif
#   From: 2010.03.12/outbox.cif.g09.slc.cpg/sg70_24_cif.got.tgz:47114.got - 2010.04.16 13:46:32.
