data_PCOD8286010
_publ_section_title
;
Structure prediction by ZEFSAII (Michael W. Deem and Ramdas Pophale) SiO2 
 PCOD8286010
Probable space group: F D D D
;
_chemical_formula_sum "Si O2"
_cell_formula_units_Z 232
_cell_length_a 16.870267
_cell_length_b 22.170758
_cell_length_c 31.109720
_cell_angle_alpha 90.000000
_cell_angle_beta 90.000000
_cell_angle_gamma 90.000000
_cell_volume 11635.863018
_symmetry_space_group_name_H-M "F D D D"
_symmetry_group_IT_number 70
_space_group.IT_coordinate_system_code '2'
_symmetry_cell_setting 'orthorhombic'
loop_
_space_group_symop_operation_xyz
x,y,z
1/4-x,1/4-y,z
x,1/4-y,1/4-z
1/4-x,y,1/4-z
-x,-y,-z
3/4+x,3/4+y,-z
-x,3/4+y,3/4+z
3/4+x,-y,3/4+z
x,1/2+y,1/2+z
1/4-x,3/4-y,1/2+z
x,3/4-y,3/4-z
1/4-x,1/2+y,3/4-z
-x,1/2-y,1/2-z
3/4+x,1/4+y,1/2-z
-x,1/4+y,1/4+z
3/4+x,1/2-y,1/4+z
1/2+x,y,1/2+z
3/4-x,1/4-y,1/2+z
1/2+x,1/4-y,3/4-z
3/4-x,y,3/4-z
1/2-x,-y,1/2-z
1/4+x,3/4+y,1/2-z
1/2-x,3/4+y,1/4+z
1/4+x,-y,1/4+z
1/2+x,1/2+y,z
3/4-x,3/4-y,z
1/2+x,3/4-y,1/4-z
3/4-x,1/2+y,1/4-z
1/2-x,1/2-y,-z
1/4+x,1/4+y,-z
1/2-x,1/4+y,3/4+z
1/4+x,1/2-y,3/4+z
loop_
_atom_site_type_symbol
_atom_site_label
_atom_site_fract_x
_atom_site_fract_y
_atom_site_fract_z
Si Si1 0.719969 0.312075 0.697199
Si Si2 0.806076 0.083931 0.766541
Si Si3 0.590681 0.528285 0.554775
Si Si4 0.843861 0.312018 0.634981
Si Si5 0.155271 0.014699 0.298088
Si Si6 0.214612 0.562397 0.289722
Si Si7 0.625000 0.625000 0.625000
Si Si8 0.234915 0.969361 0.515595
O O1 0.624687 0.315608 0.699573
O O2 0.750188 0.312867 0.647742
O O3 0.759685 0.369678 0.719470
O O4 0.755057 0.253033 0.720450
O O5 0.722494 0.062681 0.785166
O O6 0.806690 0.155047 0.757270
O O7 0.825754 0.050883 0.721358
O O8 0.558338 0.543822 0.507859
O O9 0.535264 0.471427 0.565659
O O10 0.578552 0.580152 0.591630
O O11 0.682552 0.507965 0.550036
O O12 0.875000 0.375000 0.614370
O O13 0.851040 0.259333 0.599773
O O14 0.889814 0.301677 0.679498
O O15 0.071799 0.041399 0.283811
#
# Coordination Sequence:
#
# PCOD8286010 Si02
#       8
#    32  32  32  32  32  32   8  32
#     4  10  20  36  62  89 118 162 214 248 315 385
#     4  10  21  40  61  92 117 165 207 271 327 381
#     4  11  23  40  61  88 133 166 207 247 314 374
#     4  10  20  36  59  89 119 162 206 260 309 375
#     4  10  23  39  61  87 127 154 213 276 320 372
#     4  10  21  41  62  85 124 177 205 245 305 393
#     4  12  28  40  60 108 136 164 206 278 308 368
#     4  11  20  38  65  88 121 168 209 255 324 387
#
# _framework density 19.938358000000001
#
# number of rings (size 3 to 8) (size 9 to 14) (size 15 to 20)
#    0.000    1.655    2.759    2.069    2.897    0.552 
#    0.000    0.690    0.000    0.000    0.000    5.793 
#    0.000    0.000    0.000    0.000    0.000    0.000 
#
# Total GULP energy -718512.506138 kJ/mol
# GULP energy per Si atom -12388.146658 kJ/mol
# Density = 1.989298 g / cm^3
# Si number density = 19.938358 Si / 1000 Ang^3
#
#
#
# Elastic Constant Matrix: (Units=GPa)
#
#
# Indices 1 2 3 4 5 6 
#
# 1 124.8194 34.6435 42.7448 0.0000 0.0000 0.0000
# 2 34.6435 103.7761 43.6705 0.0000 0.0000 0.0000
# 3 42.7448 43.6705 99.7813 0.0000 0.0000 0.0000
# 4 0.0000 0.0000 0.0000 29.7586 0.0000 0.0000
# 5 0.0000 0.0000 0.0000 0.0000 13.0759 0.0000
# 6 0.0000 0.0000 0.0000 0.0000 0.0000 29.3410
#
#
#
# Elastic Compliance Matrix: (Units=1/GPa)
#
#
# Indices 1 2 3 4 5 6 
#
# 1 0.009661 -0.001818 -0.003343 0.000000 0.000000 0.000000
# 2 -0.001818 0.012154 -0.004540 0.000000 0.000000 0.000000
# 3 -0.003343 -0.004540 0.013441 0.000000 0.000000 0.000000
# 4 0.000000 0.000000 0.000000 0.033604 0.000000 0.000000
# 5 0.000000 0.000000 0.000000 0.000000 0.076476 0.000000
# 6 0.000000 0.000000 0.000000 0.000000 0.000000 0.034082
#
#
# Mechanical properties :
#
#
# Convention : Reuss Voigt Hill
#
# Bulk Modulus (GPa) = 63.08005 63.38825 63.23415
# Shear Modulus (GPa) = 24.49715 28.25629 26.37672
#
# Velocity S-wave (km/s) = 3.50901 3.76863 3.64113
# Velocity P-wave (km/s) = 6.93713 7.12727 7.03284
#
# Compressibility (1/GPa) = 0.01585287
#
# Stress axis : x y z
#
# Youngs Moduli (GPa) = 103.50865 82.27894 74.39913
#
# Poissons Ratio (x) = 0.14962 0.24870
# Poissons Ratio (y) = 0.18822 0.33779
# Poissons Ratio (z) = 0.34601 0.37357
#
# Static dielectric constant tensor:
#      x y z
#    x 3.928860 0.000000 0.000000 
#    y 0.000000 3.705120 0.000000 
#    z 0.000000 0.000000 3.455820 
# 
# 
# High freq. dielectric constant tensor:
#      x y z
#    x 1.793050 0.000000 0.000000 
#    y 0.000000 1.773240 0.000000 
#    z 0.000000 0.000000 1.761060 
# 
# From -- ./inp_files/66872.got.cif
#   From: 2010.03.12/outbox.cif.g09.slc.cpg/sg70_34_cif.got.tgz:66872.got - 2010.04.16 13:46:32.
