data_PCOD8286285
_publ_section_title
;
Structure prediction by ZEFSAII (Michael W. Deem and Ramdas Pophale) SiO2 
 PCOD8286285
Probable space group: F D D D
;
_chemical_formula_sum "Si O2"
_cell_formula_units_Z 160
_cell_length_a 17.122775
_cell_length_b 19.051537
_cell_length_c 23.674744
_cell_angle_alpha 90.000000
_cell_angle_beta 90.000000
_cell_angle_gamma 90.000000
_cell_volume 7723.060910
_symmetry_space_group_name_H-M "F D D D"
_symmetry_group_IT_number 70
_space_group.IT_coordinate_system_code '2'
_symmetry_cell_setting 'orthorhombic'
loop_
_space_group_symop_operation_xyz
x,y,z
1/4-x,1/4-y,z
x,1/4-y,1/4-z
1/4-x,y,1/4-z
-x,-y,-z
3/4+x,3/4+y,-z
-x,3/4+y,3/4+z
3/4+x,-y,3/4+z
x,1/2+y,1/2+z
1/4-x,3/4-y,1/2+z
x,3/4-y,3/4-z
1/4-x,1/2+y,3/4-z
-x,1/2-y,1/2-z
3/4+x,1/4+y,1/2-z
-x,1/4+y,1/4+z
3/4+x,1/2-y,1/4+z
1/2+x,y,1/2+z
3/4-x,1/4-y,1/2+z
1/2+x,1/4-y,3/4-z
3/4-x,y,3/4-z
1/2-x,-y,1/2-z
1/4+x,3/4+y,1/2-z
1/2-x,3/4+y,1/4+z
1/4+x,-y,1/4+z
1/2+x,1/2+y,z
3/4-x,3/4-y,z
1/2+x,3/4-y,1/4-z
3/4-x,1/2+y,1/4-z
1/2-x,1/2-y,-z
1/4+x,1/4+y,-z
1/2-x,1/4+y,3/4+z
1/4+x,1/2-y,3/4+z
loop_
_atom_site_type_symbol
_atom_site_label
_atom_site_fract_x
_atom_site_fract_y
_atom_site_fract_z
Si Si1 0.203275 0.255518 0.773522
Si Si2 0.052068 0.080800 0.314335
Si Si3 0.585081 0.746479 0.683369
Si Si4 0.825263 0.703394 0.605901
Si Si5 0.802415 0.600165 0.407224
O O1 0.245851 0.317101 0.738670
O O2 0.138688 0.216395 0.734031
O O3 0.158676 0.290086 0.825918
O O4 0.266704 0.200169 0.795430
O O5 0.125000 0.125000 0.291318
O O6 0.013463 0.128212 0.362573
O O7 0.074155 0.005301 0.340538
O O8 0.625000 0.721693 0.625000
O O9 0.496076 0.719833 0.687310
O O10 0.586846 0.831062 0.688028
O O11 0.813234 0.625000 0.625000
O O12 0.875000 0.562353 0.375000
#
# Coordination Sequence:
#
# PCOD8286285 Si02
#       5
#    32  32  32  32  32
#     4  12  23  42  74  95 129 190 222 272 354 390
#     4  11  23  48  68  98 136 178 229 278 334 411
#     4  10  21  42  65 101 138 167 222 279 340 415
#     4  11  25  43  63 103 142 168 225 285 333 411
#     4  10  21  43  69  95 136 178 226 280 334 409
#
# _framework density 20.717172999999999
#
# number of rings (size 3 to 8) (size 9 to 14) (size 15 to 20)
#    0.000    1.200    8.000    0.600    2.800    0.400 
#   10.800    2.000    0.000    0.000    0.000    0.000 
#    0.000    0.000    0.000    0.000    0.000    0.000 
#
# Total GULP energy -496062.976896 kJ/mol
# GULP energy per Si atom -12401.574422 kJ/mol
# Density = 2.067002 g / cm^3
# Si number density = 20.717173 Si / 1000 Ang^3
#
#
#
# Elastic Constant Matrix: (Units=GPa)
#
#
# Indices 1 2 3 4 5 6 
#
# 1 112.7330 43.8280 43.8179 0.0000 0.0000 0.0000
# 2 43.8280 73.4084 27.9464 0.0000 0.0000 0.0000
# 3 43.8179 27.9464 69.1446 0.0000 0.0000 0.0000
# 4 0.0000 0.0000 0.0000 22.4889 0.0000 0.0000
# 5 0.0000 0.0000 0.0000 0.0000 51.7361 0.0000
# 6 0.0000 0.0000 0.0000 0.0000 0.0000 26.4278
#
#
#
# Elastic Compliance Matrix: (Units=1/GPa)
#
#
# Indices 1 2 3 4 5 6 
#
# 1 0.013517 -0.005684 -0.006269 0.000000 0.000000 0.000000
# 2 -0.005684 0.018490 -0.003871 0.000000 0.000000 0.000000
# 3 -0.006269 -0.003871 0.020000 0.000000 0.000000 0.000000
# 4 0.000000 0.000000 0.000000 0.044466 0.000000 0.000000
# 5 0.000000 0.000000 0.000000 0.000000 0.019329 0.000000
# 6 0.000000 0.000000 0.000000 0.000000 0.000000 0.037839
#
#
# Mechanical properties :
#
#
# Convention : Reuss Voigt Hill
#
# Bulk Modulus (GPa) = 49.11817 54.05228 51.58522
# Shear Modulus (GPa) = 26.03176 29.44347 27.73762
#
# Velocity S-wave (km/s) = 3.54860 3.77398 3.66303
# Velocity P-wave (km/s) = 6.36793 6.71847 6.54554
#
# Compressibility (1/GPa) = 0.02035907
#
# Stress axis : x y z
#
# Youngs Moduli (GPa) = 73.98261 54.08460 50.00117
#
# Poissons Ratio (x) = 0.30740 0.31343
# Poissons Ratio (y) = 0.42049 0.19356
# Poissons Ratio (z) = 0.46376 0.20937
#
# Static dielectric constant tensor:
#      x y z
#    x 4.059980 0.000000 0.000000 
#    y 0.000000 3.432330 0.000000 
#    z 0.000000 0.000000 3.633370 
# 
# 
# High freq. dielectric constant tensor:
#      x y z
#    x 1.827440 0.000000 0.000000 
#    y 0.000000 1.780770 0.000000 
#    z 0.000000 0.000000 1.802450 
# 
# From -- ./inp_files/43661.got.cif
#   From: 2010.03.12/outbox.cif.g09.slc.cpg/sg70_22_cif.got.tgz:43661.got - 2010.04.16 13:46:32.
