data_PCOD8286763
_publ_section_title
;
Structure prediction by ZEFSAII (Michael W. Deem and Ramdas Pophale) SiO2 
 PCOD8286763
Probable space group: F D D D
;
_chemical_formula_sum "Si O2"
_cell_formula_units_Z 192
_cell_length_a 23.700885
_cell_length_b 24.826948
_cell_length_c 15.310841
_cell_angle_alpha 90.000000
_cell_angle_beta 90.000000
_cell_angle_gamma 90.000000
_cell_volume 9009.214852
_symmetry_space_group_name_H-M "F D D D"
_symmetry_group_IT_number 70
_space_group.IT_coordinate_system_code '2'
_symmetry_cell_setting 'orthorhombic'
loop_
_space_group_symop_operation_xyz
x,y,z
1/4-x,1/4-y,z
x,1/4-y,1/4-z
1/4-x,y,1/4-z
-x,-y,-z
3/4+x,3/4+y,-z
-x,3/4+y,3/4+z
3/4+x,-y,3/4+z
x,1/2+y,1/2+z
1/4-x,3/4-y,1/2+z
x,3/4-y,3/4-z
1/4-x,1/2+y,3/4-z
-x,1/2-y,1/2-z
3/4+x,1/4+y,1/2-z
-x,1/4+y,1/4+z
3/4+x,1/2-y,1/4+z
1/2+x,y,1/2+z
3/4-x,1/4-y,1/2+z
1/2+x,1/4-y,3/4-z
3/4-x,y,3/4-z
1/2-x,-y,1/2-z
1/4+x,3/4+y,1/2-z
1/2-x,3/4+y,1/4+z
1/4+x,-y,1/4+z
1/2+x,1/2+y,z
3/4-x,3/4-y,z
1/2+x,3/4-y,1/4-z
3/4-x,1/2+y,1/4-z
1/2-x,1/2-y,-z
1/4+x,1/4+y,-z
1/2-x,1/4+y,3/4+z
1/4+x,1/2-y,3/4+z
loop_
_atom_site_type_symbol
_atom_site_label
_atom_site_fract_x
_atom_site_fract_y
_atom_site_fract_z
Si Si1 0.118425 0.287320 0.787496
Si Si2 0.975894 0.635266 0.274450
Si Si3 0.736555 0.321119 0.213806
Si Si4 0.375000 0.284003 0.875000
Si Si5 0.072568 0.975574 0.279658
Si Si6 0.842620 0.326561 0.967381
Si Si7 0.537417 0.125000 0.625000
O O1 0.080630 0.332767 0.744950
O O2 0.179302 0.292172 0.743719
O O3 0.113802 0.293537 0.892025
O O4 0.094676 0.228458 0.768665
O O5 0.985861 0.642729 0.377299
O O6 0.966987 0.572710 0.253537
O O7 0.026498 0.657357 0.212660
O O8 0.781969 0.274787 0.194612
O O9 0.750478 0.362715 0.290494
O O10 0.364896 0.244667 0.794638
O O11 0.427214 0.322053 0.851166
O O12 0.875000 0.320654 0.875000
O O13 0.875000 0.375000 0.019137
#
# Coordination Sequence:
#
# PCOD8286763 Si02
#       7
#    32  32  32  16  32  32  16
#     4  12  26  43  69 100 143 183 233 297 355 432
#     4  12  26  44  70 101 146 187 234 299 363 432
#     4  11  25  46  68 106 138 187 240 296 360 430
#     4   9  22  46  70  98 136 182 235 294 350 432
#     4  11  26  45  71 101 139 187 244 293 371 429
#     4  11  25  42  70 102 140 185 236 287 356 428
#     4   9  22  44  72  98 140 180 233 298 348 420
#
# _framework density 21.311513000000001
#
# number of rings (size 3 to 8) (size 9 to 14) (size 15 to 20)
#    0.000    1.000    1.667    3.500   11.667    2.667 
#    0.000    3.333    0.000    0.000    0.000    0.000 
#    0.000    0.000    0.000    0.000    0.000    0.000 
#
# Total GULP energy -595158.123639 kJ/mol
# GULP energy per Si atom -12399.127576 kJ/mol
# Density = 2.126301 g / cm^3
# Si number density = 21.311513 Si / 1000 Ang^3
#
#
#
# Elastic Constant Matrix: (Units=GPa)
#
#
# Indices 1 2 3 4 5 6 
#
# 1 64.2186 -12.0804 31.0485 0.0000 0.0000 0.0000
# 2 -12.0804 89.6618 38.6065 0.0000 0.0000 0.0000
# 3 31.0485 38.6065 144.7356 0.0000 0.0000 0.0000
# 4 0.0000 0.0000 0.0000 28.3291 0.0000 0.0000
# 5 0.0000 0.0000 0.0000 0.0000 37.0173 0.0000
# 6 0.0000 0.0000 0.0000 0.0000 0.0000 17.6758
#
#
#
# Elastic Compliance Matrix: (Units=1/GPa)
#
#
# Indices 1 2 3 4 5 6 
#
# 1 0.019108 0.004903 -0.005407 0.000000 0.000000 0.000000
# 2 0.004903 0.013858 -0.004748 0.000000 0.000000 0.000000
# 3 -0.005407 -0.004748 0.009336 0.000000 0.000000 0.000000
# 4 0.000000 0.000000 0.000000 0.035299 0.000000 0.000000
# 5 0.000000 0.000000 0.000000 0.000000 0.027014 0.000000
# 6 0.000000 0.000000 0.000000 0.000000 0.000000 0.056574
#
#
# Mechanical properties :
#
#
# Convention : Reuss Voigt Hill
#
# Bulk Modulus (GPa) = 31.44959 45.97390 38.71174
# Shear Modulus (GPa) = 27.42829 32.67387 30.05108
#
# Velocity S-wave (km/s) = 3.59139 3.91980 3.75919
# Velocity P-wave (km/s) = 5.65567 6.48888 6.08655
#
# Compressibility (1/GPa) = 0.03179692
#
# Stress axis : x y z
#
# Youngs Moduli (GPa) = 52.33377 72.16047 107.11788
#
# Poissons Ratio (x) = -0.35377 0.57916
# Poissons Ratio (y) = -0.25657 0.50861
# Poissons Ratio (z) = 0.28296 0.34263
#
# Static dielectric constant tensor:
#      x y z
#    x 3.890770 0.000000 0.000000 
#    y 0.000000 4.183050 0.000000 
#    z 0.000000 0.000000 3.943270 
# 
# 
# High freq. dielectric constant tensor:
#      x y z
#    x 1.839030 0.000000 0.000000 
#    y 0.000000 1.852750 0.000000 
#    z 0.000000 0.000000 1.840570 
# 
# From -- ./inp_files/28999.got.cif
#   From: 2010.03.12/outbox.cif.g09.slc.cpg/sg70_15_cif.got.tgz:28999.got - 2010.04.16 13:46:32.
