data_PCOD8286928
_publ_section_title
;
Structure prediction by ZEFSAII (Michael W. Deem and Ramdas Pophale) SiO2 
 PCOD8286928
Probable space group: I M M M
;
_chemical_formula_sum "Si O2"
_cell_formula_units_Z 80
_cell_length_a 13.796003
_cell_length_b 25.528234
_cell_length_c 16.727609
_cell_angle_alpha 90.000000
_cell_angle_beta 90.000000
_cell_angle_gamma 90.000000
_cell_volume 5891.256348
_symmetry_space_group_name_H-M "I M M M"
_symmetry_group_IT_number 71
_symmetry_cell_setting 'orthorhombic'
loop_
_space_group_symop_operation_xyz
x,y,z
-x,-y,z
x,-y,-z
-x,y,-z
-x,-y,-z
x,y,-z
-x,y,z
x,-y,z
1/2+x,1/2+y,1/2+z
1/2-x,1/2-y,1/2+z
1/2+x,1/2-y,1/2-z
1/2-x,1/2+y,1/2-z
1/2-x,1/2-y,1/2-z
1/2+x,1/2+y,1/2-z
1/2-x,1/2+y,1/2+z
1/2+x,1/2-y,1/2+z
loop_
_atom_site_type_symbol
_atom_site_label
_atom_site_fract_x
_atom_site_fract_y
_atom_site_fract_z
Si Si1 0.391794 0.748928 0.905832
Si Si2 0.213194 0.346095 0.333284
Si Si3 0.389358 0.059980 0.906995
Si Si4 0.225784 0.707874 0.182791
Si Si5 0.388639 0.711958 0.594210
O O1 0.500000 0.735703 0.876984
O O2 0.362266 0.805701 0.872607
O O3 0.320849 0.703072 0.873420
O O4 0.384040 0.751103 0.000000
O O5 0.184874 0.404661 0.357106
O O6 0.205222 0.344274 0.235099
O O7 0.321536 0.332404 0.364682
O O8 0.500000 0.071830 0.881723
O O9 0.363104 0.000000 0.888221
O O10 0.375463 0.072259 0.000000
O O11 0.250000 0.750000 0.250000
O O12 0.136362 0.730135 0.129998
O O13 0.367826 0.713118 0.500000
O O14 0.500000 0.698512 0.612965
#
# Coordination Sequence:
#
# PCOD8286928 Si02
#       5
#    16  16  16  16  16
#     4   9  15  23  37  55  76 100 123 149 179 214
#     4  10  17  24  37  54  73  98 124 151 181 215
#     4   9  17  28  41  56  73  93 119 153 188 216
#     4   8  16  24  33  51  74  98 122 149 177 209
#     4   9  16  25  36  50  72 101 127 147 169 205
#
# _framework density 13.579446000000001
#
# number of rings (size 3 to 8) (size 9 to 14) (size 15 to 20)
#    0.000    3.400    0.000    4.800    0.000    9.600 
#    0.000    0.000    0.000    0.600    0.000    2.800 
#    0.000    3.200    0.000   13.200    0.000    0.000 
#
# Total GULP energy -495549.053295 kJ/mol
# GULP energy per Si atom -12388.726332 kJ/mol
# Density = 1.354854 g / cm^3
# Si number density = 13.579446 Si / 1000 Ang^3
#
#
#
# Elastic Constant Matrix: (Units=GPa)
#
#
# Indices 1 2 3 4 5 6 
#
# 1 97.5402 37.3418 36.9931 0.0000 0.0000 0.0000
# 2 37.3418 63.0017 31.3115 -0.0001 0.0000 0.0000
# 3 36.9931 31.3115 52.6439 -0.0002 0.0001 0.0001
# 4 0.0000 -0.0001 -0.0002 20.8546 0.0001 0.0000
# 5 0.0000 0.0000 0.0001 0.0001 11.3645 0.0000
# 6 0.0000 0.0000 0.0001 0.0000 0.0000 14.3572
#
#
#
# Elastic Compliance Matrix: (Units=1/GPa)
#
#
# Indices 1 2 3 4 5 6 
#
# 1 0.015096 -0.005218 -0.007505 0.000000 0.000000 0.000000
# 2 -0.005218 0.024337 -0.010809 0.000000 0.000000 0.000000
# 3 -0.007505 -0.010809 0.030698 0.000000 0.000000 0.000000
# 4 0.000000 0.000000 0.000000 0.047951 0.000000 0.000000
# 5 0.000000 0.000000 0.000000 0.000000 0.087993 0.000000
# 6 0.000000 0.000000 0.000000 0.000000 0.000000 0.069651
#
#
# Mechanical properties :
#
#
# Convention : Reuss Voigt Hill
#
# Bulk Modulus (GPa) = 43.34851 47.16431 45.25641
# Shear Modulus (GPa) = 15.12962 16.48456 15.80709
#
# Velocity S-wave (km/s) = 3.34152 3.48794 3.41551
# Velocity P-wave (km/s) = 6.84683 7.14342 6.99670
#
# Compressibility (1/GPa) = 0.02306884
#
# Stress axis : x y z
#
# Youngs Moduli (GPa) = 66.24307 41.08965 32.57571
#
# Poissons Ratio (x) = 0.21440 0.24447
# Poissons Ratio (y) = 0.34564 0.35210
# Poissons Ratio (z) = 0.49712 0.44412
#
# Static dielectric constant tensor:
#      x y z
#    x 2.871270 0.000000 0.000000 
#    y 0.000000 2.519620 0.000000 
#    z 0.000000 0.000000 3.272710 
# 
# 
# High freq. dielectric constant tensor:
#      x y z
#    x 1.523380 0.000000 0.000000 
#    y 0.000000 1.460660 0.000000 
#    z 0.000000 0.000000 1.521890 
# 
# From -- ./inp_files/45029.got.cif
#   From: 2010.06.25/outbox.cif.g09.slc.cpg/sg71_23_cif.got.tgz:45029.got - 2010.06.28 04:59:45.
