data_PCOD8286350
_publ_section_title
;
Structure prediction by ZEFSAII (Michael W. Deem and Ramdas Pophale) SiO2 
 PCOD8286350
Probable space group: F D D D
;
_chemical_formula_sum "Si O2"
_cell_formula_units_Z 208
_cell_length_a 25.051239
_cell_length_b 20.032539
_cell_length_c 18.214891
_cell_angle_alpha 90.000000
_cell_angle_beta 90.000000
_cell_angle_gamma 90.000000
_cell_volume 9140.959484
_symmetry_space_group_name_H-M "F D D D"
_symmetry_group_IT_number 70
_space_group.IT_coordinate_system_code '2'
_symmetry_cell_setting 'orthorhombic'
loop_
_space_group_symop_operation_xyz
x,y,z
1/4-x,1/4-y,z
x,1/4-y,1/4-z
1/4-x,y,1/4-z
-x,-y,-z
3/4+x,3/4+y,-z
-x,3/4+y,3/4+z
3/4+x,-y,3/4+z
x,1/2+y,1/2+z
1/4-x,3/4-y,1/2+z
x,3/4-y,3/4-z
1/4-x,1/2+y,3/4-z
-x,1/2-y,1/2-z
3/4+x,1/4+y,1/2-z
-x,1/4+y,1/4+z
3/4+x,1/2-y,1/4+z
1/2+x,y,1/2+z
3/4-x,1/4-y,1/2+z
1/2+x,1/4-y,3/4-z
3/4-x,y,3/4-z
1/2-x,-y,1/2-z
1/4+x,3/4+y,1/2-z
1/2-x,3/4+y,1/4+z
1/4+x,-y,1/4+z
1/2+x,1/2+y,z
3/4-x,3/4-y,z
1/2+x,3/4-y,1/4-z
3/4-x,1/2+y,1/4-z
1/2-x,1/2-y,-z
1/4+x,1/4+y,-z
1/2-x,1/4+y,3/4+z
1/4+x,1/2-y,3/4+z
loop_
_atom_site_type_symbol
_atom_site_label
_atom_site_fract_x
_atom_site_fract_y
_atom_site_fract_z
Si Si1 0.039357 0.881990 0.217745
Si Si2 0.994547 0.482638 0.120899
Si Si3 0.812233 0.234431 0.513981
Si Si4 0.122244 0.202024 0.388645
Si Si5 0.968683 0.010981 0.222617
Si Si6 0.790348 0.125000 0.625000
Si Si7 0.775153 0.125000 0.125000
Si Si8 0.125000 0.306478 0.125000
O O1 0.060549 0.882587 0.301598
O O2 0.087469 0.891198 0.164198
O O3 0.012201 0.811509 0.197899
O O4 0.997916 0.941782 0.207341
O O5 0.930452 0.482020 0.126995
O O6 0.012339 0.560074 0.111771
O O7 0.022564 0.458701 0.196366
O O8 0.750000 0.250000 0.500000
O O9 0.837152 0.293273 0.564035
O O10 0.822042 0.164492 0.559215
O O11 0.843527 0.236640 0.436062
O O12 0.125000 0.125000 0.413001
O O13 0.093709 0.246481 0.452956
O O14 0.992942 0.066974 0.166791
#
# Coordination Sequence:
#
# PCOD8286350 Si02
#       8
#    32  32  32  32  32  16  16  16
#     4  11  23  43  66  97 137 186 236 301 358 425
#     4  11  23  42  72  99 138 184 236 304 360 417
#     4  11  25  43  67 105 146 188 247 298 363 441
#     4  11  23  42  69 100 143 191 232 287 370 432
#     4  10  22  40  66 102 139 180 236 285 352 435
#     4  10  22  39  66  97 138 186 222 289 354 421
#     4  10  24  43  66  93 130 176 240 285 358 423
#     4  12  24  42  67  99 142 180 238 304 358 438
#
# _framework density 22.754722999999998
#
# number of rings (size 3 to 8) (size 9 to 14) (size 15 to 20)
#    0.000    1.231    1.538    5.077    2.154    6.769 
#    0.000    0.000    0.000    6.462    0.000    0.000 
#    0.000    0.000    0.000    0.000    0.000    0.000 
#
# Total GULP energy -644256.121959 kJ/mol
# GULP energy per Si atom -12389.540807 kJ/mol
# Density = 2.270293 g / cm^3
# Si number density = 22.754723 Si / 1000 Ang^3
#
#
#
# Elastic Constant Matrix: (Units=GPa)
#
#
# Indices 1 2 3 4 5 6 
#
# 1 102.1130 9.6744 42.8362 0.0000 0.0000 0.0000
# 2 9.6744 123.2640 31.5294 0.0000 0.0000 0.0000
# 3 42.8362 31.5294 137.7217 0.0000 0.0000 0.0000
# 4 0.0000 0.0000 0.0000 41.0206 0.0000 0.0000
# 5 0.0000 0.0000 0.0000 0.0000 33.2211 0.0000
# 6 0.0000 0.0000 0.0000 0.0000 0.0000 18.7890
#
#
#
# Elastic Compliance Matrix: (Units=1/GPa)
#
#
# Indices 1 2 3 4 5 6 
#
# 1 0.011263 0.000013 -0.003506 0.000000 0.000000 0.000000
# 2 0.000013 0.008617 -0.001977 0.000000 0.000000 0.000000
# 3 -0.003506 -0.001977 0.008804 0.000000 0.000000 0.000000
# 4 0.000000 0.000000 0.000000 0.024378 0.000000 0.000000
# 5 0.000000 0.000000 0.000000 0.000000 0.030101 0.000000
# 6 0.000000 0.000000 0.000000 0.000000 0.000000 0.053223
#
#
# Mechanical properties :
#
#
# Convention : Reuss Voigt Hill
#
# Bulk Modulus (GPa) = 56.35687 59.01985 57.68836
# Shear Modulus (GPa) = 32.62844 37.21006 34.91925
#
# Velocity S-wave (km/s) = 3.79082 4.04823 3.92164
# Velocity P-wave (km/s) = 6.63184 6.91698 6.77591
#
# Compressibility (1/GPa) = 0.01774407
#
# Stress axis : x y z
#
# Youngs Moduli (GPa) = 88.78929 116.04565 113.58391
#
# Poissons Ratio (x) = -0.00149 0.39823
# Poissons Ratio (y) = -0.00114 0.22453
# Poissons Ratio (z) = 0.31130 0.22940
#
# Static dielectric constant tensor:
#      x y z
#    x 3.871520 0.000000 0.000000 
#    y 0.000000 4.279340 0.000000 
#    z 0.000000 0.000000 4.556450 
# 
# 
# High freq. dielectric constant tensor:
#      x y z
#    x 1.864930 0.000000 0.000000 
#    y 0.000000 1.908660 0.000000 
#    z 0.000000 0.000000 1.916620 
# 
# From -- ./inp_files/38762.got.cif
#   From: 2010.03.12/outbox.cif.g09.slc.cpg/sg70_20_cif.got.tgz:38762.got - 2010.04.16 13:46:32.
