data_PCOD8286184
_publ_section_title
;
Structure prediction by ZEFSAII (Michael W. Deem and Ramdas Pophale) SiO2 
 PCOD8286184
Probable space group: F D D D
;
_chemical_formula_sum "Si O2"
_cell_formula_units_Z 192
_cell_length_a 26.360529
_cell_length_b 27.321181
_cell_length_c 13.057024
_cell_angle_alpha 90.000000
_cell_angle_beta 90.000000
_cell_angle_gamma 90.000000
_cell_volume 9403.678922
_symmetry_space_group_name_H-M "F D D D"
_symmetry_group_IT_number 70
_space_group.IT_coordinate_system_code '2'
_symmetry_cell_setting 'orthorhombic'
loop_
_space_group_symop_operation_xyz
x,y,z
1/4-x,1/4-y,z
x,1/4-y,1/4-z
1/4-x,y,1/4-z
-x,-y,-z
3/4+x,3/4+y,-z
-x,3/4+y,3/4+z
3/4+x,-y,3/4+z
x,1/2+y,1/2+z
1/4-x,3/4-y,1/2+z
x,3/4-y,3/4-z
1/4-x,1/2+y,3/4-z
-x,1/2-y,1/2-z
3/4+x,1/4+y,1/2-z
-x,1/4+y,1/4+z
3/4+x,1/2-y,1/4+z
1/2+x,y,1/2+z
3/4-x,1/4-y,1/2+z
1/2+x,1/4-y,3/4-z
3/4-x,y,3/4-z
1/2-x,-y,1/2-z
1/4+x,3/4+y,1/2-z
1/2-x,3/4+y,1/4+z
1/4+x,-y,1/4+z
1/2+x,1/2+y,z
3/4-x,3/4-y,z
1/2+x,3/4-y,1/4-z
3/4-x,1/2+y,1/4-z
1/2-x,1/2-y,-z
1/4+x,1/4+y,-z
1/2-x,1/4+y,3/4+z
1/4+x,1/2-y,3/4+z
loop_
_atom_site_type_symbol
_atom_site_label
_atom_site_fract_x
_atom_site_fract_y
_atom_site_fract_z
Si Si1 0.243419 0.197596 0.773233
Si Si2 0.949558 0.125000 0.625000
Si Si3 0.263581 0.694536 0.692371
Si Si4 0.625000 0.625000 0.898743
Si Si5 0.124411 0.051021 0.739738
Si Si6 0.727907 0.596552 0.270644
Si Si7 0.872283 0.191532 0.992277
O O1 0.266230 0.165254 0.682210
O O2 0.260635 0.254425 0.767733
O O3 0.183454 0.198689 0.772947
O O4 0.258400 0.175829 0.883615
O O5 0.915269 0.095991 0.545524
O O6 0.243014 0.653044 0.766431
O O7 0.244761 0.684803 0.577032
O O8 0.324491 0.692150 0.697650
O O9 0.653078 0.586197 0.821207
O O10 0.666494 0.652736 0.968640
O O11 0.125000 0.072204 0.625000
O O12 0.149586 0.997042 0.744128
O O13 0.875000 0.173916 0.875000
#
# Coordination Sequence:
#
# PCOD8286184 Si02
#       7
#    32  16  32  16  32  32  32
#     4  10  23  38  58  95 120 159 206 259 311 371
#     4  12  24  36  63  92 130 149 218 262 304 366
#     4  10  21  41  64  80 123 167 198 253 316 364
#     4  10  21  33  60  90 120 152 208 250 298 368
#     4   9  20  38  60  82 122 162 200 249 314 365
#     4  10  21  38  63  86 121 160 207 246 306 372
#     4  10  22  42  59  86 118 162 207 248 310 373
#
# _framework density 20.417541
#
# number of rings (size 3 to 8) (size 9 to 14) (size 15 to 20)
#    0.000    2.000    0.000    2.750    7.000    1.333 
#    0.000    3.333    7.333    0.000    0.000    0.000 
#    0.000    0.000    0.000    0.000    0.000    0.000 
#
# Total GULP energy -594942.189279 kJ/mol
# GULP energy per Si atom -12394.628943 kJ/mol
# Density = 2.037107 g / cm^3
# Si number density = 20.417541 Si / 1000 Ang^3
#
#
#
# Elastic Constant Matrix: (Units=GPa)
#
#
# Indices 1 2 3 4 5 6 
#
# 1 45.0801 21.1409 26.1290 0.0000 0.0000 0.0000
# 2 21.1409 145.6717 51.9228 0.0000 0.0000 0.0000
# 3 26.1290 51.9228 102.4846 0.0001 0.0000 0.0000
# 4 0.0000 0.0000 0.0001 33.4327 0.0000 0.0000
# 5 0.0000 0.0000 0.0000 0.0000 29.2375 0.0000
# 6 0.0000 0.0000 0.0000 0.0000 0.0000 29.7538
#
#
#
# Elastic Compliance Matrix: (Units=1/GPa)
#
#
# Indices 1 2 3 4 5 6 
#
# 1 0.026389 -0.001747 -0.005843 0.000000 0.000000 0.000000
# 2 -0.001747 0.008493 -0.003858 0.000000 0.000000 0.000000
# 3 -0.005843 -0.003858 0.013202 0.000000 0.000000 0.000000
# 4 0.000000 0.000000 0.000000 0.029911 0.000000 0.000000
# 5 0.000000 0.000000 0.000000 0.000000 0.034203 0.000000
# 6 0.000000 0.000000 0.000000 0.000000 0.000000 0.033609
#
#
# Mechanical properties :
#
#
# Convention : Reuss Voigt Hill
#
# Bulk Modulus (GPa) = 39.70056 54.62466 47.16261
# Shear Modulus (GPa) = 28.23305 31.42103 29.82704
#
# Velocity S-wave (km/s) = 3.72261 3.92717 3.82626
# Velocity P-wave (km/s) = 6.16147 6.88298 6.53219
#
# Compressibility (1/GPa) = 0.02518856
#
# Stress axis : x y z
#
# Youngs Moduli (GPa) = 37.89512 117.73985 75.74827
#
# Poissons Ratio (x) = 0.20571 0.44258
# Poissons Ratio (y) = 0.06621 0.29221
# Poissons Ratio (z) = 0.22141 0.45419
#
# Static dielectric constant tensor:
#      x y z
#    x 3.437580 0.000000 0.000000 
#    y 0.000000 4.230700 0.000000 
#    z 0.000000 0.000000 3.830700 
# 
# 
# High freq. dielectric constant tensor:
#      x y z
#    x 1.770500 0.000000 0.000000 
#    y 0.000000 1.816950 0.000000 
#    z 0.000000 0.000000 1.807270 
# 
# From -- ./inp_files/21245.got.cif
#   From: 2010.03.12/outbox.cif.g09.slc.cpg/sg70_11_cif.got.tgz:21245.got - 2010.04.16 13:46:32.
