data_PCOD8286436
_publ_section_title
;
Structure prediction by ZEFSAII (Michael W. Deem and Ramdas Pophale) SiO2 
 PCOD8286436
Probable space group: F D D D
;
_chemical_formula_sum "Si O2"
_cell_formula_units_Z 112
_cell_length_a 12.968394
_cell_length_b 11.492038
_cell_length_c 33.297720
_cell_angle_alpha 90.000000
_cell_angle_beta 90.000000
_cell_angle_gamma 90.000000
_cell_volume 4962.468316
_symmetry_space_group_name_H-M "F D D D"
_symmetry_group_IT_number 70
_space_group.IT_coordinate_system_code '2'
_symmetry_cell_setting 'orthorhombic'
loop_
_space_group_symop_operation_xyz
x,y,z
1/4-x,1/4-y,z
x,1/4-y,1/4-z
1/4-x,y,1/4-z
-x,-y,-z
3/4+x,3/4+y,-z
-x,3/4+y,3/4+z
3/4+x,-y,3/4+z
x,1/2+y,1/2+z
1/4-x,3/4-y,1/2+z
x,3/4-y,3/4-z
1/4-x,1/2+y,3/4-z
-x,1/2-y,1/2-z
3/4+x,1/4+y,1/2-z
-x,1/4+y,1/4+z
3/4+x,1/2-y,1/4+z
1/2+x,y,1/2+z
3/4-x,1/4-y,1/2+z
1/2+x,1/4-y,3/4-z
3/4-x,y,3/4-z
1/2-x,-y,1/2-z
1/4+x,3/4+y,1/2-z
1/2-x,3/4+y,1/4+z
1/4+x,-y,1/4+z
1/2+x,1/2+y,z
3/4-x,3/4-y,z
1/2+x,3/4-y,1/4-z
3/4-x,1/2+y,1/4-z
1/2-x,1/2-y,-z
1/4+x,1/4+y,-z
1/2-x,1/4+y,3/4+z
1/4+x,1/2-y,3/4+z
loop_
_atom_site_type_symbol
_atom_site_label
_atom_site_fract_x
_atom_site_fract_y
_atom_site_fract_z
Si Si1 0.526294 0.481221 0.601179
Si Si2 0.866820 0.139373 0.200241
Si Si3 0.125000 0.625000 0.839130
Si Si4 0.761014 0.425725 0.030325
O O1 0.625000 0.530881 0.625000
O O2 0.455884 0.588332 0.585396
O O3 0.471071 0.400015 0.633033
O O4 0.552929 0.395667 0.563875
O O5 0.907698 0.265441 0.187934
O O6 0.798245 0.156605 0.239431
O O7 0.969058 0.061026 0.208155
O O8 0.875000 0.375000 0.025860
#
# Coordination Sequence:
#
# PCOD8286436 Si02
#       4
#    32  32  16  32
#     4  11  24  45  72 102 131 178 229 281 342 400
#     4  11  25  45  68  95 143 176 228 278 339 409
#     4  12  26  42  68 102 139 176 223 288 344 400
#     4  10  22  45  69  99 135 176 228 282 329 407
#
# _framework density 22.569413000000001
#
# number of rings (size 3 to 8) (size 9 to 14) (size 15 to 20)
#    0.000    1.143    4.286    4.286    8.000    2.286 
#    0.000    1.429    0.000    0.000    0.000    0.000 
#    0.000    0.000    0.000    0.000    0.000    0.000 
#
# Total GULP energy -347137.308511 kJ/mol
# GULP energy per Si atom -12397.761018 kJ/mol
# Density = 2.251804 g / cm^3
# Si number density = 22.569413 Si / 1000 Ang^3
#
#
#
# Elastic Constant Matrix: (Units=GPa)
#
#
# Indices 1 2 3 4 5 6 
#
# 1 52.7042 17.6385 29.3285 0.0000 0.0000 0.0000
# 2 17.6385 171.2386 58.6559 0.0000 0.0000 0.0000
# 3 29.3285 58.6559 129.8938 0.0000 0.0000 0.0000
# 4 0.0000 0.0000 0.0000 37.9387 0.0000 0.0000
# 5 0.0000 0.0000 0.0000 0.0000 24.1968 0.0000
# 6 0.0000 0.0000 0.0000 0.0000 0.0000 14.1466
#
#
#
# Elastic Compliance Matrix: (Units=1/GPa)
#
#
# Indices 1 2 3 4 5 6 
#
# 1 0.021763 -0.000661 -0.004616 0.000000 0.000000 0.000000
# 2 -0.000661 0.006928 -0.002979 0.000000 0.000000 0.000000
# 3 -0.004616 -0.002979 0.010086 0.000000 0.000000 0.000000
# 4 0.000000 0.000000 0.000000 0.026358 0.000000 0.000000
# 5 0.000000 0.000000 0.000000 0.000000 0.041328 0.000000
# 6 0.000000 0.000000 0.000000 0.000000 0.000000 0.070688
#
#
# Mechanical properties :
#
#
# Convention : Reuss Voigt Hill
#
# Bulk Modulus (GPa) = 44.91058 62.78693 53.84876
# Shear Modulus (GPa) = 24.86499 31.80402 28.33451
#
# Velocity S-wave (km/s) = 3.32281 3.75796 3.54706
# Velocity P-wave (km/s) = 5.88757 6.83444 6.37860
#
# Compressibility (1/GPa) = 0.02226647
#
# Stress axis : x y z
#
# Youngs Moduli (GPa) = 45.94879 144.33236 99.14564
#
# Poissons Ratio (x) = 0.09537 0.45761
# Poissons Ratio (y) = 0.03036 0.29540
# Poissons Ratio (z) = 0.21208 0.43004
#
# Static dielectric constant tensor:
#      x y z
#    x 3.599230 0.000000 0.000000 
#    y 0.000000 4.730510 0.000000 
#    z 0.000000 0.000000 4.399850 
# 
# 
# High freq. dielectric constant tensor:
#      x y z
#    x 1.852160 0.000000 0.000000 
#    y 0.000000 1.909700 0.000000 
#    z 0.000000 0.000000 1.914500 
# 
# From -- ./inp_files/15043.got.cif
#   From: 2010.03.12/outbox.cif.g09.slc.cpg/sg70_8_cif.got.tgz:15043.got - 2010.04.16 13:46:32.
