data_PCOD8286046
_publ_section_title
;
Structure prediction by ZEFSAII (Michael W. Deem and Ramdas Pophale) SiO2 
 PCOD8286046
Probable space group: F D D D
;
_chemical_formula_sum "Si O2"
_cell_formula_units_Z 112
_cell_length_a 9.733121
_cell_length_b 21.184217
_cell_length_c 25.638485
_cell_angle_alpha 90.000000
_cell_angle_beta 90.000000
_cell_angle_gamma 90.000000
_cell_volume 5286.361978
_symmetry_space_group_name_H-M "F D D D"
_symmetry_group_IT_number 70
_space_group.IT_coordinate_system_code '2'
_symmetry_cell_setting 'orthorhombic'
loop_
_space_group_symop_operation_xyz
x,y,z
1/4-x,1/4-y,z
x,1/4-y,1/4-z
1/4-x,y,1/4-z
-x,-y,-z
3/4+x,3/4+y,-z
-x,3/4+y,3/4+z
3/4+x,-y,3/4+z
x,1/2+y,1/2+z
1/4-x,3/4-y,1/2+z
x,3/4-y,3/4-z
1/4-x,1/2+y,3/4-z
-x,1/2-y,1/2-z
3/4+x,1/4+y,1/2-z
-x,1/4+y,1/4+z
3/4+x,1/2-y,1/4+z
1/2+x,y,1/2+z
3/4-x,1/4-y,1/2+z
1/2+x,1/4-y,3/4-z
3/4-x,y,3/4-z
1/2-x,-y,1/2-z
1/4+x,3/4+y,1/2-z
1/2-x,3/4+y,1/4+z
1/4+x,-y,1/4+z
1/2+x,1/2+y,z
3/4-x,3/4-y,z
1/2+x,3/4-y,1/4-z
3/4-x,1/2+y,1/4-z
1/2-x,1/2-y,-z
1/4+x,1/4+y,-z
1/2-x,1/4+y,3/4+z
1/4+x,1/2-y,3/4+z
loop_
_atom_site_type_symbol
_atom_site_label
_atom_site_fract_x
_atom_site_fract_y
_atom_site_fract_z
Si Si1 0.625000 0.625000 0.844928
Si Si2 0.369834 0.967579 0.184945
Si Si3 0.913845 0.058153 0.477941
Si Si4 0.258039 0.094688 0.213606
O O1 0.668908 0.683880 0.880917
O O2 0.498664 0.646043 0.809576
O O3 0.532289 0.967392 0.196382
O O4 0.286374 0.932228 0.229988
O O5 0.322082 0.039878 0.178336
O O6 0.869484 0.100321 0.527502
O O7 0.000000 0.000000 0.500000
O O8 0.125000 0.125000 0.185225
#
# Coordination Sequence:
#
# PCOD8286046 Si02
#       4
#    16  32  32  32
#     4  12  22  38  64  94 125 167 228 264 318 400
#     4  10  20  37  62  93 127 164 215 269 310 395
#     4  11  22  38  60  94 127 172 213 266 337 384
#     4   9  19  39  62  91 130 170 208 259 330 381
#
# _framework density 21.186592999999998
#
# number of rings (size 3 to 8) (size 9 to 14) (size 15 to 20)
#    0.000    1.714    4.286    2.571    0.000    0.000 
#    0.000    1.429    0.000   12.000    0.000    0.000 
#    0.000    0.000    0.000    0.000    0.000    0.000 
#
# Total GULP energy -347216.493621 kJ/mol
# GULP energy per Si atom -12400.589058 kJ/mol
# Density = 2.113837 g / cm^3
# Si number density = 21.186593 Si / 1000 Ang^3
#
#
#
# Elastic Constant Matrix: (Units=GPa)
#
#
# Indices 1 2 3 4 5 6 
#
# 1 138.3621 99.4114 46.0831 0.0000 0.0000 0.0000
# 2 99.4114 192.5850 48.9028 0.0000 0.0000 0.0000
# 3 46.0831 48.9028 62.2953 0.0000 0.0000 0.0000
# 4 0.0000 0.0000 0.0000 45.7898 0.0000 0.0000
# 5 0.0000 0.0000 0.0000 0.0000 0.4736 0.0000
# 6 0.0000 0.0000 0.0000 0.0000 0.0000 55.0529
#
#
#
# Elastic Compliance Matrix: (Units=1/GPa)
#
#
# Indices 1 2 3 4 5 6 
#
# 1 0.012765 -0.005235 -0.005333 0.000000 0.000000 0.000000
# 2 -0.005235 0.008632 -0.002904 0.000000 0.000000 0.000000
# 3 -0.005333 -0.002904 0.022278 0.000000 0.000000 0.000000
# 4 0.000000 0.000000 0.000000 0.021839 0.000000 0.000000
# 5 0.000000 0.000000 0.000000 0.000000 2.111626 0.000000
# 6 0.000000 0.000000 0.000000 0.000000 0.000000 0.018164
#
#
# Mechanical properties :
#
#
# Convention : Reuss Voigt Hill
#
# Bulk Modulus (GPa) = 59.77172 86.89300 73.33236
# Shear Modulus (GPa) = 2.24434 33.51960 17.88197
#
# Velocity S-wave (km/s) = 1.03035 3.98189 2.90836
# Velocity P-wave (km/s) = 5.44874 7.88942 6.77981
#
# Compressibility (1/GPa) = 0.01673032
#
# Stress axis : x y z
#
# Youngs Moduli (GPa) = 78.33924 115.84658 44.88823
#
# Poissons Ratio (x) = 0.60645 0.23941
# Poissons Ratio (y) = 0.41010 0.13035
# Poissons Ratio (z) = 0.41782 0.33640
#
# Static dielectric constant tensor:
#      x y z
#    x 4.017750 0.000000 0.000000 
#    y 0.000000 4.318120 0.000000 
#    z 0.000000 0.000000 3.437690 
# 
# 
# High freq. dielectric constant tensor:
#      x y z
#    x 1.839440 0.000000 0.000000 
#    y 0.000000 1.847920 0.000000 
#    z 0.000000 0.000000 1.794380 
# 
# From -- ./inp_files/9535.got.cif
#   From: 2010.03.12/outbox.cif.g09.slc.cpg/sg70_5_cif.got.tgz:9535.got - 2010.04.16 13:46:32.
