data_PCOD8286255
_publ_section_title
;
Structure prediction by ZEFSAII (Michael W. Deem and Ramdas Pophale) SiO2 
 PCOD8286255
Probable space group: F D D D
;
_chemical_formula_sum "Si O2"
_cell_formula_units_Z 192
_cell_length_a 17.603401
_cell_length_b 17.392738
_cell_length_c 28.913080
_cell_angle_alpha 90.000000
_cell_angle_beta 90.000000
_cell_angle_gamma 90.000000
_cell_volume 8852.356491
_symmetry_space_group_name_H-M "F D D D"
_symmetry_group_IT_number 70
_space_group.IT_coordinate_system_code '2'
_symmetry_cell_setting 'orthorhombic'
loop_
_space_group_symop_operation_xyz
x,y,z
1/4-x,1/4-y,z
x,1/4-y,1/4-z
1/4-x,y,1/4-z
-x,-y,-z
3/4+x,3/4+y,-z
-x,3/4+y,3/4+z
3/4+x,-y,3/4+z
x,1/2+y,1/2+z
1/4-x,3/4-y,1/2+z
x,3/4-y,3/4-z
1/4-x,1/2+y,3/4-z
-x,1/2-y,1/2-z
3/4+x,1/4+y,1/2-z
-x,1/4+y,1/4+z
3/4+x,1/2-y,1/4+z
1/2+x,y,1/2+z
3/4-x,1/4-y,1/2+z
1/2+x,1/4-y,3/4-z
3/4-x,y,3/4-z
1/2-x,-y,1/2-z
1/4+x,3/4+y,1/2-z
1/2-x,3/4+y,1/4+z
1/4+x,-y,1/4+z
1/2+x,1/2+y,z
3/4-x,3/4-y,z
1/2+x,3/4-y,1/4-z
3/4-x,1/2+y,1/4-z
1/2-x,1/2-y,-z
1/4+x,1/4+y,-z
1/2-x,1/4+y,3/4+z
1/4+x,1/2-y,3/4+z
loop_
_atom_site_type_symbol
_atom_site_label
_atom_site_fract_x
_atom_site_fract_y
_atom_site_fract_z
Si Si1 0.245512 0.608098 0.317586
Si Si2 0.614553 0.387289 0.008534
Si Si3 0.648540 0.999183 0.428983
Si Si4 0.511923 0.146110 0.830597
Si Si5 0.875000 0.375000 0.804506
Si Si6 0.992567 0.625000 0.125000
Si Si7 0.641817 0.019487 0.970722
O O1 0.318344 0.595750 0.286219
O O2 0.270056 0.612788 0.371051
O O3 0.208945 0.690646 0.307143
O O4 0.186851 0.538873 0.306268
O O5 0.553645 0.419790 0.044915
O O6 0.641407 0.457884 0.977997
O O7 0.588451 0.320804 0.972667
O O8 0.688381 0.946102 0.389785
O O9 0.566550 0.029949 0.410910
O O10 0.696361 0.073927 0.442359
O O11 0.799493 0.397327 0.833337
O O12 0.858058 0.301224 0.773161
#
# Coordination Sequence:
#
# PCOD8286255 Si02
#       7
#    32  32  32  32  16  16  32
#     4  10  22  40  62  93 128 165 200 258 322 389
#     4  12  23  39  66  91 120 169 216 256 313 378
#     4  11  25  41  63  89 123 168 211 267 308 376
#     4  11  25  45  61  88 126 167 215 265 315 368
#     4   9  20  38  58  98 142 156 192 256 326 405
#     4  11  22  36  64  98 125 166 208 256 323 388
#     4  10  21  40  61  97 133 163 200 255 326 389
#
# _framework density 21.689139999999998
#
# number of rings (size 3 to 8) (size 9 to 14) (size 15 to 20)
#    0.000    1.500    0.000    7.500    7.000    0.000 
#    0.000    0.000    0.000    0.000    0.000    0.000 
#    0.000    0.000    0.000    0.000    0.000    0.000 
#
# Total GULP energy -595063.960083 kJ/mol
# GULP energy per Si atom -12397.165835 kJ/mol
# Density = 2.163977 g / cm^3
# Si number density = 21.689140 Si / 1000 Ang^3
#
#
#
# Elastic Constant Matrix: (Units=GPa)
#
#
# Indices 1 2 3 4 5 6 
#
# 1 85.7800 28.4744 26.2582 0.0000 0.0000 0.0000
# 2 28.4744 87.2156 35.4021 0.0000 0.0000 0.0000
# 3 26.2582 35.4021 124.7181 0.0000 0.0000 0.0000
# 4 0.0000 0.0000 0.0000 23.3747 0.0000 0.0000
# 5 0.0000 0.0000 0.0000 0.0000 34.2419 0.0000
# 6 0.0000 0.0000 0.0000 0.0000 0.0000 19.9482
#
#
#
# Elastic Compliance Matrix: (Units=1/GPa)
#
#
# Indices 1 2 3 4 5 6 
#
# 1 0.013418 -0.003655 -0.001788 0.000000 0.000000 0.000000
# 2 -0.003655 0.013955 -0.003192 0.000000 0.000000 0.000000
# 3 -0.001788 -0.003192 0.009300 0.000000 0.000000 0.000000
# 4 0.000000 0.000000 0.000000 0.042781 0.000000 0.000000
# 5 0.000000 0.000000 0.000000 0.000000 0.029204 0.000000
# 6 0.000000 0.000000 0.000000 0.000000 0.000000 0.050130
#
#
# Mechanical properties :
#
#
# Convention : Reuss Voigt Hill
#
# Bulk Modulus (GPa) = 51.53396 53.10924 52.32160
# Shear Modulus (GPa) = 27.39344 29.35155 28.37249
#
# Velocity S-wave (km/s) = 3.55773 3.68269 3.62075
# Velocity P-wave (km/s) = 6.37875 6.52860 6.45411
#
# Compressibility (1/GPa) = 0.01940468
#
# Stress axis : x y z
#
# Youngs Moduli (GPa) = 74.52535 71.66037 107.52252
#
# Poissons Ratio (x) = 0.26194 0.19220
# Poissons Ratio (y) = 0.27241 0.34317
# Poissons Ratio (z) = 0.13322 0.22871
#
# Static dielectric constant tensor:
#      x y z
#    x 3.946630 0.000000 0.000000 
#    y 0.000000 3.797200 0.000000 
#    z 0.000000 0.000000 3.927750 
# 
# 
# High freq. dielectric constant tensor:
#      x y z
#    x 1.841470 0.000000 0.000000 
#    y 0.000000 1.842640 0.000000 
#    z 0.000000 0.000000 1.861140 
# 
# From -- ./inp_files/66724.got.cif
#   From: 2010.03.12/outbox.cif.g09.slc.cpg/sg70_34_cif.got.tgz:66724.got - 2010.04.16 13:46:32.
