data_PCOD8286574
_publ_section_title
;
Structure prediction by ZEFSAII (Michael W. Deem and Ramdas Pophale) SiO2 
 PCOD8286574
Probable space group: F D D D
;
_chemical_formula_sum "Si O2"
_cell_formula_units_Z 96
_cell_length_a 10.201275
_cell_length_b 16.446220
_cell_length_c 23.212928
_cell_angle_alpha 90.000000
_cell_angle_beta 90.000000
_cell_angle_gamma 90.000000
_cell_volume 3894.488942
_symmetry_space_group_name_H-M "F D D D"
_symmetry_group_IT_number 70
_space_group.IT_coordinate_system_code '2'
_symmetry_cell_setting 'orthorhombic'
loop_
_space_group_symop_operation_xyz
x,y,z
1/4-x,1/4-y,z
x,1/4-y,1/4-z
1/4-x,y,1/4-z
-x,-y,-z
3/4+x,3/4+y,-z
-x,3/4+y,3/4+z
3/4+x,-y,3/4+z
x,1/2+y,1/2+z
1/4-x,3/4-y,1/2+z
x,3/4-y,3/4-z
1/4-x,1/2+y,3/4-z
-x,1/2-y,1/2-z
3/4+x,1/4+y,1/2-z
-x,1/4+y,1/4+z
3/4+x,1/2-y,1/4+z
1/2+x,y,1/2+z
3/4-x,1/4-y,1/2+z
1/2+x,1/4-y,3/4-z
3/4-x,y,3/4-z
1/2-x,-y,1/2-z
1/4+x,3/4+y,1/2-z
1/2-x,3/4+y,1/4+z
1/4+x,-y,1/4+z
1/2+x,1/2+y,z
3/4-x,3/4-y,z
1/2+x,3/4-y,1/4-z
3/4-x,1/2+y,1/4-z
1/2-x,1/2-y,-z
1/4+x,1/4+y,-z
1/2-x,1/4+y,3/4+z
1/4+x,1/2-y,3/4+z
loop_
_atom_site_type_symbol
_atom_site_label
_atom_site_fract_x
_atom_site_fract_y
_atom_site_fract_z
Si Si1 0.479855 0.437657 0.122887
Si Si2 0.107879 0.329066 0.933107
Si Si3 0.402447 0.238913 0.508799
O O1 0.625000 0.399390 0.125000
O O2 0.375000 0.375000 0.096856
O O3 0.477087 0.518212 0.082917
O O4 0.441574 0.457572 0.187394
O O5 0.058946 0.375000 0.875000
O O6 0.170191 0.391851 0.979544
O O7 0.985795 0.274534 0.955597
O O8 0.250000 0.250000 0.500000
#
# Coordination Sequence:
#
# PCOD8286574 Si02
#       3
#    32  32  32
#     4  11  27  47  72 110 154 200 260 320 384 464
#     4  10  25  46  75 107 153 199 255 313 387 453
#     4  11  24  45  73 110 150 200 256 317 383 467
#
# _framework density 24.650217000000001
#
# number of rings (size 3 to 8) (size 9 to 14) (size 15 to 20)
#    0.000    1.333    0.000    3.000    9.333   15.333 
#    0.000    0.000    0.000    0.000    0.000    0.000 
#    0.000    0.000    0.000    0.000    0.000    0.000 
#
# Total GULP energy -297542.977292 kJ/mol
# GULP energy per Si atom -12397.624054 kJ/mol
# Density = 2.459411 g / cm^3
# Si number density = 24.650217 Si / 1000 Ang^3
#
#
#
# Elastic Constant Matrix: (Units=GPa)
#
#
# Indices 1 2 3 4 5 6 
#
# 1 162.1576 75.6077 36.1008 0.0000 0.0000 0.0000
# 2 75.6077 159.1294 56.6116 0.0000 0.0000 0.0000
# 3 36.1008 56.6116 74.3674 0.0000 0.0000 0.0000
# 4 0.0000 0.0000 0.0000 43.8643 0.0000 0.0000
# 5 0.0000 0.0000 0.0000 0.0000 33.1564 0.0000
# 6 0.0000 0.0000 0.0000 0.0000 0.0000 41.3090
#
#
#
# Elastic Compliance Matrix: (Units=1/GPa)
#
#
# Indices 1 2 3 4 5 6 
#
# 1 0.008021 -0.003327 -0.001361 0.000000 0.000000 0.000000
# 2 -0.003327 0.009998 -0.005996 0.000000 0.000000 0.000000
# 3 -0.001361 -0.005996 0.018672 0.000000 0.000000 0.000000
# 4 0.000000 0.000000 0.000000 0.022798 0.000000 0.000000
# 5 0.000000 0.000000 0.000000 0.000000 0.030160 0.000000
# 6 0.000000 0.000000 0.000000 0.000000 0.000000 0.024208
#
#
# Mechanical properties :
#
#
# Convention : Reuss Voigt Hill
#
# Bulk Modulus (GPa) = 65.26128 81.36606 73.31367
# Shear Modulus (GPa) = 35.62980 38.82155 37.22568
#
# Velocity S-wave (km/s) = 3.80599 3.97280 3.89029
# Velocity P-wave (km/s) = 6.77100 7.35691 7.07003
#
# Compressibility (1/GPa) = 0.01532302
#
# Stress axis : x y z
#
# Youngs Moduli (GPa) = 124.67209 100.02031 53.55640
#
# Poissons Ratio (x) = 0.33275 0.07290
# Poissons Ratio (y) = 0.41476 0.32112
# Poissons Ratio (z) = 0.16971 0.59971
#
# Static dielectric constant tensor:
#      x y z
#    x 4.140930 0.000000 0.000000 
#    y 0.000000 5.015390 0.000000 
#    z 0.000000 0.000000 4.536940 
# 
# 
# High freq. dielectric constant tensor:
#      x y z
#    x 1.967640 0.000000 0.000000 
#    y 0.000000 1.999610 0.000000 
#    z 0.000000 0.000000 1.984390 
# 
# From -- ./inp_files/32949.got.cif
#   From: 2010.03.12/outbox.cif.g09.slc.cpg/sg70_17_cif.got.tgz:32949.got - 2010.04.16 13:46:32.
