data_PCOD8286426
_publ_section_title
;
Structure prediction by ZEFSAII (Michael W. Deem and Ramdas Pophale) SiO2 
 PCOD8286426
Probable space group: F D D D
;
_chemical_formula_sum "Si O2"
_cell_formula_units_Z 160
_cell_length_a 18.965051
_cell_length_b 16.440046
_cell_length_c 22.852985
_cell_angle_alpha 90.000000
_cell_angle_beta 90.000000
_cell_angle_gamma 90.000000
_cell_volume 7125.247885
_symmetry_space_group_name_H-M "F D D D"
_symmetry_group_IT_number 70
_space_group.IT_coordinate_system_code '2'
_symmetry_cell_setting 'orthorhombic'
loop_
_space_group_symop_operation_xyz
x,y,z
1/4-x,1/4-y,z
x,1/4-y,1/4-z
1/4-x,y,1/4-z
-x,-y,-z
3/4+x,3/4+y,-z
-x,3/4+y,3/4+z
3/4+x,-y,3/4+z
x,1/2+y,1/2+z
1/4-x,3/4-y,1/2+z
x,3/4-y,3/4-z
1/4-x,1/2+y,3/4-z
-x,1/2-y,1/2-z
3/4+x,1/4+y,1/2-z
-x,1/4+y,1/4+z
3/4+x,1/2-y,1/4+z
1/2+x,y,1/2+z
3/4-x,1/4-y,1/2+z
1/2+x,1/4-y,3/4-z
3/4-x,y,3/4-z
1/2-x,-y,1/2-z
1/4+x,3/4+y,1/2-z
1/2-x,3/4+y,1/4+z
1/4+x,-y,1/4+z
1/2+x,1/2+y,z
3/4-x,3/4-y,z
1/2+x,3/4-y,1/4-z
3/4-x,1/2+y,1/4-z
1/2-x,1/2-y,-z
1/4+x,1/4+y,-z
1/2-x,1/4+y,3/4+z
1/4+x,1/2-y,3/4+z
loop_
_atom_site_type_symbol
_atom_site_label
_atom_site_fract_x
_atom_site_fract_y
_atom_site_fract_z
Si Si1 0.239931 0.851437 0.593353
Si Si2 0.671044 0.285844 0.364818
Si Si3 0.838988 0.624690 0.457234
Si Si4 0.209544 0.982071 0.936309
Si Si5 0.401343 0.785384 0.991606
O O1 0.287047 0.770443 0.589035
O O2 0.225437 0.870865 0.661862
O O3 0.163654 0.841562 0.565062
O O4 0.286408 0.919850 0.560557
O O5 0.702979 0.375000 0.375000
O O6 0.586328 0.287891 0.378326
O O7 0.686153 0.254373 0.299496
O O8 0.827324 0.564185 0.510729
O O9 0.841324 0.721153 0.472747
O O10 0.291949 0.954558 0.938302
O O11 0.375000 0.875000 0.007332
#
# Coordination Sequence:
#
# PCOD8286426 Si02
#       5
#    32  32  32  32  32
#     4  10  23  44  68  95 140 176 223 284 340 404
#     4  12  24  43  67 100 133 177 229 280 335 416
#     4  10  22  44  67  97 136 176 227 284 334 411
#     4  11  23  42  68  99 129 176 228 274 344 401
#     4  11  24  44  68  97 136 179 219 283 347 398
#
# _framework density 22.455359000000001
#
# number of rings (size 3 to 8) (size 9 to 14) (size 15 to 20)
#    0.000    1.200    4.000    1.800    0.000    3.200 
#    3.600    9.000    0.000    0.000    0.000    0.000 
#    0.000    0.000    0.000    0.000    0.000    0.000 
#
# Total GULP energy -495528.416079 kJ/mol
# GULP energy per Si atom -12388.210402 kJ/mol
# Density = 2.240425 g / cm^3
# Si number density = 22.455359 Si / 1000 Ang^3
#
#
#
# Elastic Constant Matrix: (Units=GPa)
#
#
# Indices 1 2 3 4 5 6 
#
# 1 69.1190 54.4493 19.2267 0.0000 0.0000 0.0000
# 2 54.4493 188.5340 30.1900 0.0000 0.0000 0.0000
# 3 19.2267 30.1900 52.8696 0.0000 0.0000 0.0000
# 4 0.0000 0.0000 0.0000 38.4946 0.0000 0.0000
# 5 0.0000 0.0000 0.0000 0.0000 27.0231 0.0000
# 6 0.0000 0.0000 0.0000 0.0000 0.0000 26.2878
#
#
#
# Elastic Compliance Matrix: (Units=1/GPa)
#
#
# Indices 1 2 3 4 5 6 
#
# 1 0.019571 -0.004967 -0.004281 0.000000 0.000000 0.000000
# 2 -0.004967 0.007098 -0.002247 0.000000 0.000000 0.000000
# 3 -0.004281 -0.002247 0.021755 0.000000 0.000000 0.000000
# 4 0.000000 0.000000 0.000000 0.025978 0.000000 0.000000
# 5 0.000000 0.000000 0.000000 0.000000 0.037005 0.000000
# 6 0.000000 0.000000 0.000000 0.000000 0.000000 0.038041
#
#
# Mechanical properties :
#
#
# Convention : Reuss Voigt Hill
#
# Bulk Modulus (GPa) = 39.31739 57.58384 48.45061
# Shear Modulus (GPa) = 27.63716 32.13821 29.88768
#
# Velocity S-wave (km/s) = 3.51202 3.78723 3.65222
# Velocity P-wave (km/s) = 5.83034 6.69504 6.27760
#
# Compressibility (1/GPa) = 0.02543404
#
# Stress axis : x y z
#
# Youngs Moduli (GPa) = 51.09521 140.87840 45.96737
#
# Poissons Ratio (x) = 0.69970 0.19680
# Poissons Ratio (y) = 0.25378 0.10329
# Poissons Ratio (z) = 0.21875 0.31657
#
# Static dielectric constant tensor:
#      x y z
#    x 4.091310 0.000000 0.000000 
#    y 0.000000 4.164490 0.000000 
#    z 0.000000 0.000000 4.044420 
# 
# 
# High freq. dielectric constant tensor:
#      x y z
#    x 1.882020 0.000000 0.000000 
#    y 0.000000 1.894950 0.000000 
#    z 0.000000 0.000000 1.874040 
# 
# From -- ./inp_files/59410.got.cif
#   From: 2010.03.12/outbox.cif.g09.slc.cpg/sg70_30_cif.got.tgz:59410.got - 2010.04.16 13:46:32.
