data_PCOD8286411
_publ_section_title
;
Structure prediction by ZEFSAII (Michael W. Deem and Ramdas Pophale) SiO2 
 PCOD8286411
Probable space group: F D D D
;
_chemical_formula_sum "Si O2"
_cell_formula_units_Z 144
_cell_length_a 25.815614
_cell_length_b 23.619227
_cell_length_c 9.341687
_cell_angle_alpha 90.000000
_cell_angle_beta 90.000000
_cell_angle_gamma 90.000000
_cell_volume 5696.045513
_symmetry_space_group_name_H-M "F D D D"
_symmetry_group_IT_number 70
_space_group.IT_coordinate_system_code '2'
_symmetry_cell_setting 'orthorhombic'
loop_
_space_group_symop_operation_xyz
x,y,z
1/4-x,1/4-y,z
x,1/4-y,1/4-z
1/4-x,y,1/4-z
-x,-y,-z
3/4+x,3/4+y,-z
-x,3/4+y,3/4+z
3/4+x,-y,3/4+z
x,1/2+y,1/2+z
1/4-x,3/4-y,1/2+z
x,3/4-y,3/4-z
1/4-x,1/2+y,3/4-z
-x,1/2-y,1/2-z
3/4+x,1/4+y,1/2-z
-x,1/4+y,1/4+z
3/4+x,1/2-y,1/4+z
1/2+x,y,1/2+z
3/4-x,1/4-y,1/2+z
1/2+x,1/4-y,3/4-z
3/4-x,y,3/4-z
1/2-x,-y,1/2-z
1/4+x,3/4+y,1/2-z
1/2-x,3/4+y,1/4+z
1/4+x,-y,1/4+z
1/2+x,1/2+y,z
3/4-x,3/4-y,z
1/2+x,3/4-y,1/4-z
3/4-x,1/2+y,1/4-z
1/2-x,1/2-y,-z
1/4+x,1/4+y,-z
1/2-x,1/4+y,3/4+z
1/4+x,1/2-y,3/4+z
loop_
_atom_site_type_symbol
_atom_site_label
_atom_site_fract_x
_atom_site_fract_y
_atom_site_fract_z
Si Si1 0.533281 0.485204 0.361193
Si Si2 0.105760 0.982810 0.787363
Si Si3 0.022818 0.625000 0.125000
Si Si4 0.428987 0.896617 0.603980
Si Si5 0.502859 0.448354 0.893044
O O1 0.500000 0.500000 0.500000
O O2 0.593877 0.474479 0.369458
O O3 0.511296 0.425242 0.306862
O O4 0.529694 0.536123 0.248158
O O5 0.125000 0.975096 0.625000
O O6 0.062244 0.936692 0.839703
O O7 0.078582 0.043069 0.815727
O O8 0.056453 0.645834 0.263474
O O9 0.375000 0.875000 0.535141
O O10 0.474402 0.896962 0.481134
O O11 0.500000 0.500000 0.000000
#
# Coordination Sequence:
#
# PCOD8286411 Si02
#       5
#    32  32  16  32  32
#     4  12  23  43  76 104 144 199 251 305 386 453
#     4  11  21  42  72  98 144 205 242 300 391 456
#     4  12  23  44  74 112 140 194 267 308 362 486
#     4  11  22  41  73 109 147 194 257 319 373 448
#     4  10  22  43  67 107 150 187 241 313 378 443
#
# _framework density 25.280697
#
# number of rings (size 3 to 8) (size 9 to 14) (size 15 to 20)
#    0.000    0.889    6.667    3.000    0.000    3.556 
#    0.000   10.000    0.000    0.000    0.000    0.000 
#    0.000    0.000    0.000    0.000    0.000    0.000 
#
# Total GULP energy -446124.480621 kJ/mol
# GULP energy per Si atom -12392.346684 kJ/mol
# Density = 2.522316 g / cm^3
# Si number density = 25.280697 Si / 1000 Ang^3
#
#
#
# Elastic Constant Matrix: (Units=GPa)
#
#
# Indices 1 2 3 4 5 6 
#
# 1 257.9542 24.6168 89.5314 0.0019 -0.0023 -0.0015
# 2 24.6168 58.3299 24.4326 0.0075 -0.0060 -0.0044
# 3 89.5314 24.4326 179.4045 0.0187 -0.0166 -0.0104
# 4 0.0019 0.0075 0.0187 36.0375 -0.0103 -0.0068
# 5 -0.0023 -0.0060 -0.0166 -0.0103 48.0901 0.0061
# 6 -0.0015 -0.0044 -0.0104 -0.0068 0.0061 31.4006
#
#
#
# Elastic Compliance Matrix: (Units=1/GPa)
#
#
# Indices 1 2 3 4 5 6 
#
# 1 0.004751 -0.001073 -0.002225 0.000001 -0.000001 -0.000001
# 2 -0.001073 0.018423 -0.001973 -0.000003 0.000002 0.000002
# 3 -0.002225 -0.001973 0.006953 -0.000003 0.000002 0.000002
# 4 0.000001 -0.000003 -0.000003 0.027749 0.000006 0.000006
# 5 -0.000001 0.000002 0.000002 0.000006 0.020794 -0.000004
# 6 -0.000001 0.000002 0.000002 0.000006 -0.000004 0.031847
#
#
# Mechanical properties :
#
#
# Convention : Reuss Voigt Hill
#
# Bulk Modulus (GPa) = 51.06056 85.87226 68.46641
# Shear Modulus (GPa) = 39.18831 46.91282 43.05056
#
# Velocity S-wave (km/s) = 3.94144 4.31243 4.13110
# Velocity P-wave (km/s) = 6.39957 7.67055 7.06371
#
# Compressibility (1/GPa) = 0.01958459
#
# Stress axis : x y z
#
# Youngs Moduli (GPa) = 210.46745 54.27873 143.82020
#
# Poissons Ratio (x) = 0.05825 0.32000
# Poissons Ratio (y) = 0.22588 0.28382
# Poissons Ratio (z) = 0.46829 0.10712
#
# Static dielectric constant tensor:
#      x y z
#    x 5.292190 0.000000 0.000010 
#    y 0.000000 4.854980 -0.000010 
#    z 0.000010 -0.000010 4.654270 
# 
# 
# High freq. dielectric constant tensor:
#      x y z
#    x 2.020320 0.000000 0.000000 
#    y 0.000000 1.998700 0.000000 
#    z 0.000000 0.000000 2.024230 
# 
# From -- ./inp_files/12251.got.cif
#   From: 2010.03.12/outbox.cif.g09.slc.cpg/sg70_7_cif.got.tgz:12251.got - 2010.04.16 13:46:32.
