data_PCOD8286288
_publ_section_title
;
Structure prediction by ZEFSAII (Michael W. Deem and Ramdas Pophale) SiO2 
 PCOD8286288
Probable space group: F D D D
;
_chemical_formula_sum "Si O2"
_cell_formula_units_Z 192
_cell_length_a 13.389292
_cell_length_b 23.451856
_cell_length_c 27.020651
_cell_angle_alpha 90.000000
_cell_angle_beta 90.000000
_cell_angle_gamma 90.000000
_cell_volume 8484.585685
_symmetry_space_group_name_H-M "F D D D"
_symmetry_group_IT_number 70
_space_group.IT_coordinate_system_code '2'
_symmetry_cell_setting 'orthorhombic'
loop_
_space_group_symop_operation_xyz
x,y,z
1/4-x,1/4-y,z
x,1/4-y,1/4-z
1/4-x,y,1/4-z
-x,-y,-z
3/4+x,3/4+y,-z
-x,3/4+y,3/4+z
3/4+x,-y,3/4+z
x,1/2+y,1/2+z
1/4-x,3/4-y,1/2+z
x,3/4-y,3/4-z
1/4-x,1/2+y,3/4-z
-x,1/2-y,1/2-z
3/4+x,1/4+y,1/2-z
-x,1/4+y,1/4+z
3/4+x,1/2-y,1/4+z
1/2+x,y,1/2+z
3/4-x,1/4-y,1/2+z
1/2+x,1/4-y,3/4-z
3/4-x,y,3/4-z
1/2-x,-y,1/2-z
1/4+x,3/4+y,1/2-z
1/2-x,3/4+y,1/4+z
1/4+x,-y,1/4+z
1/2+x,1/2+y,z
3/4-x,3/4-y,z
1/2+x,3/4-y,1/4-z
3/4-x,1/2+y,1/4-z
1/2-x,1/2-y,-z
1/4+x,1/4+y,-z
1/2-x,1/4+y,3/4+z
1/4+x,1/2-y,3/4+z
loop_
_atom_site_type_symbol
_atom_site_label
_atom_site_fract_x
_atom_site_fract_y
_atom_site_fract_z
Si Si1 0.648855 0.247584 0.679453
Si Si2 0.875000 0.875000 0.786858
Si Si3 0.307558 0.066488 0.784141
Si Si4 0.617874 0.741550 0.446014
Si Si5 0.076785 0.829402 0.749612
Si Si6 0.920151 0.687101 0.105385
Si Si7 0.625000 0.509999 0.625000
O O1 0.625000 0.270403 0.625000
O O2 0.648479 0.179026 0.678666
O O3 0.751712 0.271882 0.703549
O O4 0.563950 0.272474 0.716089
O O5 0.778873 0.888293 0.753084
O O6 0.339226 0.041108 0.731140
O O7 0.347313 0.130740 0.782345
O O8 0.352857 0.029869 0.828560
O O9 0.186887 0.064106 0.792881
O O10 0.621042 0.764299 0.389556
O O11 0.122364 0.809050 0.801413
O O12 0.893406 0.625000 0.125000
O O13 0.038252 0.697942 0.106505
#
# Coordination Sequence:
#
# PCOD8286288 Si02
#       7
#    32  16  32  32  32  32  16
#     4  12  26  46  69 102 134 180 236 285 350 417
#     4  12  25  48  70  96 132 190 228 296 329 406
#     4  10  21  42  66  97 136 179 220 276 352 409
#     4  10  21  42  68  96 133 181 223 281 345 407
#     4  12  26  44  70 101 139 177 238 283 350 408
#     4  11  20  39  65 102 132 178 231 279 330 415
#     4  10  23  36  66  96 144 175 218 278 352 402
#
# _framework density 22.629273000000001
#
# number of rings (size 3 to 8) (size 9 to 14) (size 15 to 20)
#    0.000    1.000    3.333    3.000    1.167    0.667 
#    6.000    0.000    0.000    0.000    0.000    0.000 
#    0.000    0.000    0.000    0.000    0.000    0.000 
#
# Total GULP energy -595089.863375 kJ/mol
# GULP energy per Si atom -12397.705487 kJ/mol
# Density = 2.257777 g / cm^3
# Si number density = 22.629273 Si / 1000 Ang^3
#
#
#
# Elastic Constant Matrix: (Units=GPa)
#
#
# Indices 1 2 3 4 5 6 
#
# 1 119.5000 36.9543 45.2545 0.0000 0.0000 0.0000
# 2 36.9543 48.5748 52.2606 0.0000 0.0000 0.0000
# 3 45.2545 52.2606 146.7091 0.0000 0.0000 0.0000
# 4 0.0000 0.0000 0.0000 31.8903 0.0000 0.0000
# 5 0.0000 0.0000 0.0000 0.0000 24.7289 0.0000
# 6 0.0000 0.0000 0.0000 0.0000 0.0000 18.8217
#
#
#
# Elastic Compliance Matrix: (Units=1/GPa)
#
#
# Indices 1 2 3 4 5 6 
#
# 1 0.010983 -0.007638 -0.000667 0.000000 0.000000 0.000000
# 2 -0.007638 0.038691 -0.011426 0.000000 0.000000 0.000000
# 3 -0.000667 -0.011426 0.011092 0.000000 0.000000 0.000000
# 4 0.000000 0.000000 0.000000 0.031357 0.000000 0.000000
# 5 0.000000 0.000000 0.000000 0.000000 0.040438 0.000000
# 6 0.000000 0.000000 0.000000 0.000000 0.000000 0.053130
#
#
# Mechanical properties :
#
#
# Convention : Reuss Voigt Hill
#
# Bulk Modulus (GPa) = 46.94080 64.85807 55.89943
# Shear Modulus (GPa) = 21.52805 27.10916 24.31860
#
# Velocity S-wave (km/s) = 3.08772 3.46492 3.28175
# Velocity P-wave (km/s) = 5.78796 6.68812 6.25425
#
# Compressibility (1/GPa) = 0.02130343
#
# Stress axis : x y z
#
# Youngs Moduli (GPa) = 91.05245 25.84604 90.15257
#
# Poissons Ratio (x) = 0.19740 0.06014
# Poissons Ratio (y) = 0.69542 1.03012
# Poissons Ratio (z) = 0.06074 0.29533
#
# Static dielectric constant tensor:
#      x y z
#    x 4.376300 0.000000 0.000000 
#    y 0.000000 3.939030 0.000000 
#    z 0.000000 0.000000 4.046640 
# 
# 
# High freq. dielectric constant tensor:
#      x y z
#    x 1.905380 0.000000 0.000000 
#    y 0.000000 1.884590 0.000000 
#    z 0.000000 0.000000 1.895110 
# 
# From -- ./inp_files/58655.got.cif
#   From: 2010.03.12/outbox.cif.g09.slc.cpg/sg70_30_cif.got.tgz:58655.got - 2010.04.16 13:46:32.
