data_PCOD8286399
_publ_section_title
;
Structure prediction by ZEFSAII (Michael W. Deem and Ramdas Pophale) SiO2 
 PCOD8286399
Probable space group: F D D D
;
_chemical_formula_sum "Si O2"
_cell_formula_units_Z 208
_cell_length_a 19.023580
_cell_length_b 30.750219
_cell_length_c 16.759770
_cell_angle_alpha 90.000000
_cell_angle_beta 90.000000
_cell_angle_gamma 90.000000
_cell_volume 9804.117704
_symmetry_space_group_name_H-M "F D D D"
_symmetry_group_IT_number 70
_space_group.IT_coordinate_system_code '2'
_symmetry_cell_setting 'orthorhombic'
loop_
_space_group_symop_operation_xyz
x,y,z
1/4-x,1/4-y,z
x,1/4-y,1/4-z
1/4-x,y,1/4-z
-x,-y,-z
3/4+x,3/4+y,-z
-x,3/4+y,3/4+z
3/4+x,-y,3/4+z
x,1/2+y,1/2+z
1/4-x,3/4-y,1/2+z
x,3/4-y,3/4-z
1/4-x,1/2+y,3/4-z
-x,1/2-y,1/2-z
3/4+x,1/4+y,1/2-z
-x,1/4+y,1/4+z
3/4+x,1/2-y,1/4+z
1/2+x,y,1/2+z
3/4-x,1/4-y,1/2+z
1/2+x,1/4-y,3/4-z
3/4-x,y,3/4-z
1/2-x,-y,1/2-z
1/4+x,3/4+y,1/2-z
1/2-x,3/4+y,1/4+z
1/4+x,-y,1/4+z
1/2+x,1/2+y,z
3/4-x,3/4-y,z
1/2+x,3/4-y,1/4-z
3/4-x,1/2+y,1/4-z
1/2-x,1/2-y,-z
1/4+x,1/4+y,-z
1/2-x,1/4+y,3/4+z
1/4+x,1/2-y,3/4+z
loop_
_atom_site_type_symbol
_atom_site_label
_atom_site_fract_x
_atom_site_fract_y
_atom_site_fract_z
Si Si1 0.566072 0.386371 0.962737
Si Si2 0.625000 0.011366 0.625000
Si Si3 0.316325 0.041782 0.520392
Si Si4 0.064735 0.940078 0.679084
Si Si5 0.419860 0.832975 0.258348
Si Si6 0.334966 0.459234 0.126320
Si Si7 0.341101 0.460614 0.458047
O O1 0.542468 0.375000 0.875000
O O2 0.634584 0.416170 0.971605
O O3 0.574033 0.337736 0.992675
O O4 0.501164 0.407853 0.009003
O O5 0.577866 0.043514 0.571778
O O6 0.672306 0.981920 0.565480
O O7 0.236141 0.059752 0.525787
O O8 0.332070 0.008978 0.594112
O O9 0.125000 0.920184 0.625000
O O10 0.990068 0.936201 0.635156
O O11 0.079910 0.988619 0.703501
O O12 0.375000 0.875000 0.288795
O O13 0.390946 0.817620 0.173900
O O14 0.355075 0.453594 0.219009
O O15 0.375000 0.442511 0.375000
#
# Coordination Sequence:
#
# PCOD8286399 Si02
#       7
#    32  16  32  32  32  32  32
#     4  12  25  39  64  97 136 175 217 279 339 401
#     4  10  23  38  62  98 140 166 218 270 332 406
#     4  10  25  39  65 101 133 174 220 283 335 393
#     4  10  23  41  64  96 128 171 220 280 330 396
#     4  11  22  39  65  96 133 179 214 266 336 416
#     4  10  22  42  65  95 128 172 229 271 337 403
#     4  10  23  44  71  91 127 178 231 277 327 403
#
# _framework density 21.215575000000001
#
# number of rings (size 3 to 8) (size 9 to 14) (size 15 to 20)
#    0.000    1.538    1.538    2.077    9.692    8.000 
#    0.000    0.000    0.000    0.000    0.000    0.000 
#    0.000    0.000    0.000    0.000    0.000    0.000 
#
# Total GULP energy -644503.202626 kJ/mol
# GULP energy per Si atom -12394.292358 kJ/mol
# Density = 2.116729 g / cm^3
# Si number density = 21.215575 Si / 1000 Ang^3
#
#
#
# Elastic Constant Matrix: (Units=GPa)
#
#
# Indices 1 2 3 4 5 6 
#
# 1 135.8326 34.3527 51.7568 0.0000 0.0000 0.0000
# 2 34.3527 42.7332 22.1706 0.0000 0.0000 0.0000
# 3 51.7568 22.1706 137.7290 0.0000 0.0000 0.0000
# 4 0.0000 0.0000 0.0000 14.8538 0.0000 0.0000
# 5 0.0000 0.0000 0.0000 0.0000 27.5261 0.0000
# 6 0.0000 0.0000 0.0000 0.0000 0.0000 27.9949
#
#
#
# Elastic Compliance Matrix: (Units=1/GPa)
#
#
# Indices 1 2 3 4 5 6 
#
# 1 0.010091 -0.006705 -0.002713 0.000000 0.000000 0.000000
# 2 -0.006705 0.029988 -0.002308 0.000000 0.000000 0.000000
# 3 -0.002713 -0.002308 0.008652 0.000000 0.000000 0.000000
# 4 0.000000 0.000000 0.000000 0.067323 0.000000 0.000000
# 5 0.000000 0.000000 0.000000 0.000000 0.036329 0.000000
# 6 0.000000 0.000000 0.000000 0.000000 0.000000 0.035721
#
#
# Mechanical properties :
#
#
# Convention : Reuss Voigt Hill
#
# Bulk Modulus (GPa) = 39.55648 59.20612 49.38130
# Shear Modulus (GPa) = 22.72915 27.94260 25.33588
#
# Velocity S-wave (km/s) = 3.27669 3.63310 3.45949
# Velocity P-wave (km/s) = 5.74466 6.75031 6.26769
#
# Compressibility (1/GPa) = 0.02528031
#
# Stress axis : x y z
#
# Youngs Moduli (GPa) = 99.09422 33.34638 115.58571
#
# Poissons Ratio (x) = 0.22358 0.31357
# Poissons Ratio (y) = 0.66441 0.26674
# Poissons Ratio (z) = 0.26883 0.07695
#
# Static dielectric constant tensor:
#      x y z
#    x 4.168170 0.000000 0.000000 
#    y 0.000000 3.748670 0.000000 
#    z 0.000000 0.000000 3.815220 
# 
# 
# High freq. dielectric constant tensor:
#      x y z
#    x 1.838650 0.000000 0.000000 
#    y 0.000000 1.820960 0.000000 
#    z 0.000000 0.000000 1.834420 
# 
# From -- ./inp_files/36878.got.cif
#   From: 2010.03.12/outbox.cif.g09.slc.cpg/sg70_19_cif.got.tgz:36878.got - 2010.04.16 13:46:32.
