data_PCOD8286816
_publ_section_title
;
Structure prediction by ZEFSAII (Michael W. Deem and Ramdas Pophale) SiO2 
 PCOD8286816
Probable space group: F D D D
;
_chemical_formula_sum "Si O2"
_cell_formula_units_Z 176
_cell_length_a 24.334016
_cell_length_b 25.312062
_cell_length_c 13.396347
_cell_angle_alpha 90.000000
_cell_angle_beta 90.000000
_cell_angle_gamma 90.000000
_cell_volume 8251.401187
_symmetry_space_group_name_H-M "F D D D"
_symmetry_group_IT_number 70
_space_group.IT_coordinate_system_code '2'
_symmetry_cell_setting 'orthorhombic'
loop_
_space_group_symop_operation_xyz
x,y,z
1/4-x,1/4-y,z
x,1/4-y,1/4-z
1/4-x,y,1/4-z
-x,-y,-z
3/4+x,3/4+y,-z
-x,3/4+y,3/4+z
3/4+x,-y,3/4+z
x,1/2+y,1/2+z
1/4-x,3/4-y,1/2+z
x,3/4-y,3/4-z
1/4-x,1/2+y,3/4-z
-x,1/2-y,1/2-z
3/4+x,1/4+y,1/2-z
-x,1/4+y,1/4+z
3/4+x,1/2-y,1/4+z
1/2+x,y,1/2+z
3/4-x,1/4-y,1/2+z
1/2+x,1/4-y,3/4-z
3/4-x,y,3/4-z
1/2-x,-y,1/2-z
1/4+x,3/4+y,1/2-z
1/2-x,3/4+y,1/4+z
1/4+x,-y,1/4+z
1/2+x,1/2+y,z
3/4-x,3/4-y,z
1/2+x,3/4-y,1/4-z
3/4-x,1/2+y,1/4-z
1/2-x,1/2-y,-z
1/4+x,1/4+y,-z
1/2-x,1/4+y,3/4+z
1/4+x,1/2-y,3/4+z
loop_
_atom_site_type_symbol
_atom_site_label
_atom_site_fract_x
_atom_site_fract_y
_atom_site_fract_z
Si Si1 0.640281 0.213150 0.732053
Si Si2 0.375000 0.875000 0.109864
Si Si3 0.726925 0.099377 0.017704
Si Si4 0.798663 0.711433 0.032848
Si Si5 0.689532 0.368586 0.140166
Si Si6 0.018878 0.477973 0.248835
O O1 0.625000 0.187243 0.625000
O O2 0.620189 0.175951 0.820690
O O3 0.607050 0.267665 0.743013
O O4 0.704011 0.225566 0.736736
O O5 0.321489 0.871217 0.041454
O O6 0.732546 0.125000 0.125000
O O7 0.783954 0.108386 0.960353
O O8 0.713302 0.037396 0.027481
O O9 0.799353 0.707095 0.152062
O O10 0.750000 0.750000 0.000000
O O11 0.790420 0.654148 0.983609
O O12 0.625000 0.367615 0.125000
O O13 0.711494 0.309335 0.158806
#
# Coordination Sequence:
#
# PCOD8286816 Si02
#       6
#    32  16  32  32  32  32
#     4  12  23  40  75 110 141 181 236 300 366 428
#     4  12  24  46  70 100 140 186 242 298 348 426
#     4  12  27  49  72 101 145 196 246 295 352 430
#     4  12  22  43  73 105 148 179 231 299 369 437
#     4  12  27  47  72 109 145 189 241 299 368 432
#     4  12  26  45  75 106 142 192 236 295 371 436
#
# _framework density 21.329709999999999
#
# number of rings (size 3 to 8) (size 9 to 14) (size 15 to 20)
#    0.000    0.000    7.273    2.727    0.000    6.545 
#    0.000    0.000    0.000    0.000    0.000    0.000 
#    0.000    0.000    0.000    0.000    0.000    0.000 
#
# Total GULP energy -545954.572780 kJ/mol
# GULP energy per Si atom -12408.058472 kJ/mol
# Density = 2.128116 g / cm^3
# Si number density = 21.329710 Si / 1000 Ang^3
#
#
#
# Elastic Constant Matrix: (Units=GPa)
#
#
# Indices 1 2 3 4 5 6 
#
# 1 137.6459 26.6958 33.5959 0.0000 0.0000 0.0000
# 2 26.6958 113.3990 59.4635 0.0000 0.0000 0.0000
# 3 33.5959 59.4635 128.6493 0.0000 0.0000 0.0000
# 4 0.0000 0.0000 0.0000 26.2646 0.0000 0.0000
# 5 0.0000 0.0000 0.0000 0.0000 29.5620 0.0000
# 6 0.0000 0.0000 0.0000 0.0000 0.0000 27.1853
#
#
#
# Elastic Compliance Matrix: (Units=1/GPa)
#
#
# Indices 1 2 3 4 5 6 
#
# 1 0.007848 -0.001020 -0.001578 0.000000 0.000000 0.000000
# 2 -0.001020 0.011772 -0.005175 0.000000 0.000000 0.000000
# 3 -0.001578 -0.005175 0.010577 0.000000 0.000000 0.000000
# 4 0.000000 0.000000 0.000000 0.038074 0.000000 0.000000
# 5 0.000000 0.000000 0.000000 0.000000 0.033827 0.000000
# 6 0.000000 0.000000 0.000000 0.000000 0.000000 0.036785
#
#
# Mechanical properties :
#
#
# Convention : Reuss Voigt Hill
#
# Bulk Modulus (GPa) = 68.25308 68.80054 68.52681
# Shear Modulus (GPa) = 31.38483 33.93163 32.65823
#
# Velocity S-wave (km/s) = 3.84006 3.99283 3.91719
# Velocity P-wave (km/s) = 7.19236 7.32002 7.25647
#
# Compressibility (1/GPa) = 0.01465135
#
# Stress axis : x y z
#
# Youngs Moduli (GPa) = 127.42094 84.94643 94.54452
#
# Poissons Ratio (x) = 0.08665 0.14919
# Poissons Ratio (y) = 0.12998 0.48925
# Poissons Ratio (z) = 0.20106 0.43958
#
# Static dielectric constant tensor:
#      x y z
#    x 3.880650 0.000000 0.000000 
#    y 0.000000 4.016760 0.000000 
#    z 0.000000 0.000000 4.067680 
# 
# 
# High freq. dielectric constant tensor:
#      x y z
#    x 1.847680 0.000000 0.000000 
#    y 0.000000 1.840100 0.000000 
#    z 0.000000 0.000000 1.838610 
# 
# From -- ./inp_files/28737.got.cif
#   From: 2010.03.12/outbox.cif.g09.slc.cpg/sg70_15_cif.got.tgz:28737.got - 2010.04.16 13:46:32.
