data_PCOD8286380
_publ_section_title
;
Structure prediction by ZEFSAII (Michael W. Deem and Ramdas Pophale) SiO2 
 PCOD8286380
Probable space group: F D D D
;
_chemical_formula_sum "Si O2"
_cell_formula_units_Z 224
_cell_length_a 29.354455
_cell_length_b 22.082216
_cell_length_c 17.149477
_cell_angle_alpha 90.000000
_cell_angle_beta 90.000000
_cell_angle_gamma 90.000000
_cell_volume 11116.486768
_symmetry_space_group_name_H-M "F D D D"
_symmetry_group_IT_number 70
_space_group.IT_coordinate_system_code '2'
_symmetry_cell_setting 'orthorhombic'
loop_
_space_group_symop_operation_xyz
x,y,z
1/4-x,1/4-y,z
x,1/4-y,1/4-z
1/4-x,y,1/4-z
-x,-y,-z
3/4+x,3/4+y,-z
-x,3/4+y,3/4+z
3/4+x,-y,3/4+z
x,1/2+y,1/2+z
1/4-x,3/4-y,1/2+z
x,3/4-y,3/4-z
1/4-x,1/2+y,3/4-z
-x,1/2-y,1/2-z
3/4+x,1/4+y,1/2-z
-x,1/4+y,1/4+z
3/4+x,1/2-y,1/4+z
1/2+x,y,1/2+z
3/4-x,1/4-y,1/2+z
1/2+x,1/4-y,3/4-z
3/4-x,y,3/4-z
1/2-x,-y,1/2-z
1/4+x,3/4+y,1/2-z
1/2-x,3/4+y,1/4+z
1/4+x,-y,1/4+z
1/2+x,1/2+y,z
3/4-x,3/4-y,z
1/2+x,3/4-y,1/4-z
3/4-x,1/2+y,1/4-z
1/2-x,1/2-y,-z
1/4+x,1/4+y,-z
1/2-x,1/4+y,3/4+z
1/4+x,1/2-y,3/4+z
loop_
_atom_site_type_symbol
_atom_site_label
_atom_site_fract_x
_atom_site_fract_y
_atom_site_fract_z
Si Si1 0.519780 0.498882 0.179290
Si Si2 0.172485 0.314087 0.422814
Si Si3 0.375000 0.082701 0.375000
Si Si4 0.795047 0.800934 0.662963
Si Si5 0.680049 0.804712 0.866621
Si Si6 0.036805 0.863791 0.173204
Si Si7 0.625000 0.125000 0.460806
Si Si8 0.417158 0.491908 0.972247
O O1 0.545329 0.537571 0.244981
O O2 0.468352 0.523003 0.184840
O O3 0.517738 0.428161 0.203044
O O4 0.544175 0.507908 0.095191
O O5 0.179260 0.375000 0.375000
O O6 0.200087 0.260510 0.384030
O O7 0.118881 0.296956 0.425405
O O8 0.195367 0.321798 0.507041
O O9 0.419213 0.124117 0.380530
O O10 0.374956 0.036885 0.449392
O O11 0.749532 0.831786 0.631579
O O12 0.838277 0.845104 0.652113
O O13 0.692122 0.875000 0.875000
O O14 0.685538 0.769677 0.948190
O O15 0.649376 0.174029 0.516429
#
# Coordination Sequence:
#
# PCOD8286380 Si02
#       8
#    32  32  16  32  32  32  16  32
#     4  11  26  41  63 103 134 172 220 272 329 404
#     4  11  22  46  67  93 126 176 223 279 338 399
#     4  10  22  41  64 100 123 174 212 272 328 388
#     4  12  26  42  67  98 127 177 226 270 345 395
#     4  11  24  39  67  96 133 173 221 274 330 402
#     4  11  24  42  70  92 134 165 226 280 327 402
#     4  12  24  43  62  96 135 182 212 266 327 412
#     4  11  23  41  64  92 140 175 212 266 332 400
#
# _framework density 20.150251000000001
#
# number of rings (size 3 to 8) (size 9 to 14) (size 15 to 20)
#    0.000    0.857    2.857    5.143    8.000    2.000 
#    0.000    0.000    0.000    0.000    0.000    0.000 
#    0.000    0.000    0.000    0.000    0.000    0.000 
#
# Total GULP energy -694253.256877 kJ/mol
# GULP energy per Si atom -12397.379587 kJ/mol
# Density = 2.010439 g / cm^3
# Si number density = 20.150251 Si / 1000 Ang^3
#
#
#
# Elastic Constant Matrix: (Units=GPa)
#
#
# Indices 1 2 3 4 5 6 
#
# 1 124.9208 71.3887 37.9440 0.0000 0.0000 0.0000
# 2 71.3887 127.9940 47.8118 0.0000 0.0000 0.0000
# 3 37.9440 47.8118 87.6768 0.0000 0.0000 0.0000
# 4 0.0000 0.0000 0.0000 35.1985 0.0000 0.0000
# 5 0.0000 0.0000 0.0000 0.0000 24.2824 0.0000
# 6 0.0000 0.0000 0.0000 0.0000 0.0000 19.6214
#
#
#
# Elastic Compliance Matrix: (Units=1/GPa)
#
#
# Indices 1 2 3 4 5 6 
#
# 1 0.012007 -0.005973 -0.001939 0.000000 0.000000 0.000000
# 2 -0.005973 0.012782 -0.004386 0.000000 0.000000 0.000000
# 3 -0.001939 -0.004386 0.014636 0.000000 0.000000 0.000000
# 4 0.000000 0.000000 0.000000 0.028410 0.000000 0.000000
# 5 0.000000 0.000000 0.000000 0.000000 0.041182 0.000000
# 6 0.000000 0.000000 0.000000 0.000000 0.000000 0.050965
#
#
# Mechanical properties :
#
#
# Convention : Reuss Voigt Hill
#
# Bulk Modulus (GPa) = 67.42788 72.76449 70.09619
# Shear Modulus (GPa) = 26.38211 28.05027 27.21619
#
# Velocity S-wave (km/s) = 3.62231 3.73507 3.67912
# Velocity P-wave (km/s) = 7.14353 7.40205 7.27394
#
# Compressibility (1/GPa) = 0.01483066
#
# Stress axis : x y z
#
# Youngs Moduli (GPa) = 83.28224 78.23282 68.32255
#
# Poissons Ratio (x) = 0.46726 0.13251
# Poissons Ratio (y) = 0.49741 0.29964
# Poissons Ratio (z) = 0.16152 0.34310
#
# Static dielectric constant tensor:
#      x y z
#    x 3.946360 0.000000 0.000000 
#    y 0.000000 3.873970 0.000000 
#    z 0.000000 0.000000 3.677390 
# 
# 
# High freq. dielectric constant tensor:
#      x y z
#    x 1.798780 0.000000 0.000000 
#    y 0.000000 1.797540 0.000000 
#    z 0.000000 0.000000 1.770590 
# 
# From -- ./inp_files/39908.got.cif
#   From: 2010.03.12/outbox.cif.g09.slc.cpg/sg70_20_cif.got.tgz:39908.got - 2010.04.16 13:46:32.
