data_PCOD8286040
_publ_section_title
;
Structure prediction by ZEFSAII (Michael W. Deem and Ramdas Pophale) SiO2 
 PCOD8286040
Probable space group: F D D D
;
_chemical_formula_sum "Si O2"
_cell_formula_units_Z 208
_cell_length_a 20.351741
_cell_length_b 29.007458
_cell_length_c 17.535181
_cell_angle_alpha 90.000000
_cell_angle_beta 90.000000
_cell_angle_gamma 90.000000
_cell_volume 10351.933948
_symmetry_space_group_name_H-M "F D D D"
_symmetry_group_IT_number 70
_space_group.IT_coordinate_system_code '2'
_symmetry_cell_setting 'orthorhombic'
loop_
_space_group_symop_operation_xyz
x,y,z
1/4-x,1/4-y,z
x,1/4-y,1/4-z
1/4-x,y,1/4-z
-x,-y,-z
3/4+x,3/4+y,-z
-x,3/4+y,3/4+z
3/4+x,-y,3/4+z
x,1/2+y,1/2+z
1/4-x,3/4-y,1/2+z
x,3/4-y,3/4-z
1/4-x,1/2+y,3/4-z
-x,1/2-y,1/2-z
3/4+x,1/4+y,1/2-z
-x,1/4+y,1/4+z
3/4+x,1/2-y,1/4+z
1/2+x,y,1/2+z
3/4-x,1/4-y,1/2+z
1/2+x,1/4-y,3/4-z
3/4-x,y,3/4-z
1/2-x,-y,1/2-z
1/4+x,3/4+y,1/2-z
1/2-x,3/4+y,1/4+z
1/4+x,-y,1/4+z
1/2+x,1/2+y,z
3/4-x,3/4-y,z
1/2+x,3/4-y,1/4-z
3/4-x,1/2+y,1/4-z
1/2-x,1/2-y,-z
1/4+x,1/4+y,-z
1/2-x,1/4+y,3/4+z
1/4+x,1/2-y,3/4+z
loop_
_atom_site_type_symbol
_atom_site_label
_atom_site_fract_x
_atom_site_fract_y
_atom_site_fract_z
Si Si1 0.785005 0.719816 0.221995
Si Si2 0.893791 0.787676 0.635504
Si Si3 0.402097 0.578558 0.451107
Si Si4 0.261017 0.345142 0.448873
Si Si5 0.999057 0.745765 0.367563
Si Si6 0.605582 0.678573 0.042340
Si Si7 0.625000 0.125000 0.949908
O O1 0.804491 0.749856 0.146876
O O2 0.844549 0.686080 0.242057
O O3 0.770066 0.753750 0.293487
O O4 0.722871 0.686193 0.210590
O O5 0.819744 0.777726 0.608465
O O6 0.894028 0.791325 0.727923
O O7 0.913129 0.837919 0.602387
O O8 0.375000 0.604355 0.375000
O O9 0.449729 0.612371 0.498987
O O10 0.443398 0.534754 0.421740
O O11 0.268023 0.375000 0.375000
O O12 0.247321 0.293114 0.426372
O O13 0.326754 0.346756 0.496568
O O14 0.625000 0.625000 0.032631
O O15 0.625000 0.697686 0.125000
#
# Coordination Sequence:
#
# PCOD8286040 Si02
#       7
#    32  32  32  32  32  32  16
#     4  10  21  36  65  94 116 167 217 249 321 386
#     4  11  20  38  67  93 126 164 214 256 313 387
#     4  10  20  37  62  85 123 171 214 239 302 388
#     4  12  23  36  55  94 138 161 200 257 314 374
#     4  10  20  39  60  90 130 170 192 246 315 395
#     4  10  23  44  65  90 122 164 225 279 323 375
#     4  12  23  34  61  96 130 176 204 246 313 392
#
# _framework density 20.092863999999999
#
# number of rings (size 3 to 8) (size 9 to 14) (size 15 to 20)
#    0.000    1.385    3.846    2.538    0.000    3.077 
#    2.769    0.000    0.000    6.462    0.000    0.000 
#    0.000    0.000    0.000    0.000    0.000    0.000 
#
# Total GULP energy -644552.430007 kJ/mol
# GULP energy per Si atom -12395.239039 kJ/mol
# Density = 2.004713 g / cm^3
# Si number density = 20.092864 Si / 1000 Ang^3
#
#
#
# Elastic Constant Matrix: (Units=GPa)
#
#
# Indices 1 2 3 4 5 6 
#
# 1 97.4721 22.8541 44.2783 0.0000 0.0000 0.0000
# 2 22.8541 46.6230 30.0185 0.0000 0.0000 0.0000
# 3 44.2783 30.0185 142.3025 0.0000 0.0000 0.0000
# 4 0.0000 0.0000 0.0000 86.3519 0.0000 0.0000
# 5 0.0000 0.0000 0.0000 0.0000 33.2132 0.0000
# 6 0.0000 0.0000 0.0000 0.0000 0.0000 34.5676
#
#
#
# Elastic Compliance Matrix: (Units=1/GPa)
#
#
# Indices 1 2 3 4 5 6 
#
# 1 0.012632 -0.004237 -0.003037 0.000000 0.000000 0.000000
# 2 -0.004237 0.026241 -0.004217 0.000000 0.000000 0.000000
# 3 -0.003037 -0.004217 0.008862 0.000000 0.000000 0.000000
# 4 0.000000 0.000000 0.000000 0.011581 0.000000 0.000000
# 5 0.000000 0.000000 0.000000 0.000000 0.030109 0.000000
# 6 0.000000 0.000000 0.000000 0.000000 0.000000 0.028929
#
#
# Mechanical properties :
#
#
# Convention : Reuss Voigt Hill
#
# Bulk Modulus (GPa) = 40.39894 53.41103 46.90499
# Shear Modulus (GPa) = 33.42571 43.44300 38.43435
#
# Velocity S-wave (km/s) = 4.08310 4.65489 4.37834
# Velocity P-wave (km/s) = 6.50989 7.45188 6.99676
#
# Compressibility (1/GPa) = 0.02475312
#
# Stress axis : x y z
#
# Youngs Moduli (GPa) = 79.16208 38.10869 112.84382
#
# Poissons Ratio (x) = 0.16146 0.34269
# Poissons Ratio (y) = 0.33540 0.47587
# Poissons Ratio (z) = 0.24040 0.16071
#
# Static dielectric constant tensor:
#      x y z
#    x 3.785670 0.000000 0.000000 
#    y 0.000000 3.064660 0.000000 
#    z 0.000000 0.000000 4.396430 
# 
# 
# High freq. dielectric constant tensor:
#      x y z
#    x 1.785060 0.000000 0.000000 
#    y 0.000000 1.747310 0.000000 
#    z 0.000000 0.000000 1.805590 
# 
# From -- ./inp_files/36866.got.cif
#   From: 2010.03.12/outbox.cif.g09.slc.cpg/sg70_19_cif.got.tgz:36866.got - 2010.04.16 13:46:32.
