data_PCOD8286661
_publ_section_title
;
Structure prediction by ZEFSAII (Michael W. Deem and Ramdas Pophale) SiO2 
 PCOD8286661
Probable space group: F D D D
;
_chemical_formula_sum "Si O2"
_cell_formula_units_Z 216
_cell_length_a 31.033288
_cell_length_b 11.482168
_cell_length_c 28.797674
_cell_angle_alpha 90.000000
_cell_angle_beta 90.000000
_cell_angle_gamma 90.000000
_cell_volume 10261.458658
_symmetry_space_group_name_H-M "F D D D"
_symmetry_group_IT_number 70
_space_group.IT_coordinate_system_code '2'
_symmetry_cell_setting 'orthorhombic'
loop_
_space_group_symop_operation_xyz
x,y,z
1/4-x,1/4-y,z
x,1/4-y,1/4-z
1/4-x,y,1/4-z
-x,-y,-z
3/4+x,3/4+y,-z
-x,3/4+y,3/4+z
3/4+x,-y,3/4+z
x,1/2+y,1/2+z
1/4-x,3/4-y,1/2+z
x,3/4-y,3/4-z
1/4-x,1/2+y,3/4-z
-x,1/2-y,1/2-z
3/4+x,1/4+y,1/2-z
-x,1/4+y,1/4+z
3/4+x,1/2-y,1/4+z
1/2+x,y,1/2+z
3/4-x,1/4-y,1/2+z
1/2+x,1/4-y,3/4-z
3/4-x,y,3/4-z
1/2-x,-y,1/2-z
1/4+x,3/4+y,1/2-z
1/2-x,3/4+y,1/4+z
1/4+x,-y,1/4+z
1/2+x,1/2+y,z
3/4-x,3/4-y,z
1/2+x,3/4-y,1/4-z
3/4-x,1/2+y,1/4-z
1/2-x,1/2-y,-z
1/4+x,1/4+y,-z
1/2-x,1/4+y,3/4+z
1/4+x,1/2-y,3/4+z
loop_
_atom_site_type_symbol
_atom_site_label
_atom_site_fract_x
_atom_site_fract_y
_atom_site_fract_z
Si Si1 0.086454 0.973152 0.046834
Si Si2 0.227493 0.010524 0.680563
Si Si3 0.422963 0.096978 0.252959
Si Si4 0.202208 0.634967 0.466865
Si Si5 0.281721 0.026885 0.924489
Si Si6 0.875000 0.375000 0.375000
Si Si7 0.125000 0.125000 0.350165
Si Si8 0.320218 0.035838 0.662572
O O1 0.134130 0.970587 0.026508
O O2 0.074693 0.838214 0.055995
O O3 0.091737 0.048592 0.093850
O O4 0.051126 0.027078 0.010583
O O5 0.224918 0.147339 0.695394
O O6 0.277863 0.968664 0.682079
O O7 0.198983 0.937479 0.715964
O O8 0.209547 0.984972 0.629962
O O9 0.405225 0.157712 0.206081
O O10 0.454183 0.994899 0.237079
O O11 0.245545 0.627009 0.435879
O O12 0.163242 0.669950 0.432584
O O13 0.142763 0.221338 0.384805
O O14 0.299071 0.125000 0.625000
#
# Coordination Sequence:
#
# PCOD8286661 Si02
#       8
#    32  32  32  32  32   8  16  32
#     4  12  25  42  66  98 133 176 226 273 324 391
#     4  11  22  42  66  97 130 176 211 268 339 390
#     4  12  23  41  69  96 134 174 219 269 332 399
#     4  12  21  45  69  96 132 174 221 275 338 387
#     4  11  24  42  69  95 134 172 219 274 332 396
#     4  12  22  44  68  94 128 188 224 264 328 396
#     4  12  21  40  74  93 128 173 218 268 329 400
#     4  12  21  41  67  94 129 172 215 268 335 392
#
# _framework density 21.049638999999999
#
# number of rings (size 3 to 8) (size 9 to 14) (size 15 to 20)
#    0.000    0.296    8.889    1.778    0.000    1.778 
#    0.000    1.481    4.889    0.000    0.000    0.000 
#    0.000    0.000    0.000    0.000    0.000    0.000 
#
# Total GULP energy -669067.932664 kJ/mol
# GULP energy per Si atom -12390.146901 kJ/mol
# Density = 2.100173 g / cm^3
# Si number density = 21.049639 Si / 1000 Ang^3
#
#
#
# Elastic Constant Matrix: (Units=GPa)
#
#
# Indices 1 2 3 4 5 6 
#
# 1 36.8105 23.6304 24.1890 0.0000 0.0000 0.0000
# 2 23.6304 96.4450 53.3718 0.0000 0.0000 0.0000
# 3 24.1890 53.3718 125.3813 0.0000 0.0000 0.0000
# 4 0.0000 0.0000 0.0000 40.5050 0.0000 0.0000
# 5 0.0000 0.0000 0.0000 0.0000 20.4057 0.0000
# 6 0.0000 0.0000 0.0000 0.0000 0.0000 23.3490
#
#
#
# Elastic Compliance Matrix: (Units=1/GPa)
#
#
# Indices 1 2 3 4 5 6 
#
# 1 0.033633 -0.006083 -0.003899 0.000000 0.000000 0.000000
# 2 -0.006083 0.014664 -0.005069 0.000000 0.000000 0.000000
# 3 -0.003899 -0.005069 0.010886 0.000000 0.000000 0.000000
# 4 0.000000 0.000000 0.000000 0.024688 0.000000 0.000000
# 5 0.000000 0.000000 0.000000 0.000000 0.049006 0.000000
# 6 0.000000 0.000000 0.000000 0.000000 0.000000 0.042828
#
#
# Mechanical properties :
#
#
# Convention : Reuss Voigt Hill
#
# Bulk Modulus (GPa) = 34.38633 51.22436 42.80534
# Shear Modulus (GPa) = 23.20180 27.34830 25.27505
#
# Velocity S-wave (km/s) = 3.32361 3.60839 3.46892
# Velocity P-wave (km/s) = 5.57672 6.46131 6.03524
#
# Compressibility (1/GPa) = 0.02908133
#
# Stress axis : x y z
#
# Youngs Moduli (GPa) = 29.73242 68.19489 91.86524
#
# Poissons Ratio (x) = 0.41481 0.35822
# Poissons Ratio (y) = 0.18086 0.46562
# Poissons Ratio (z) = 0.11594 0.34565
#
# Static dielectric constant tensor:
#      x y z
#    x 3.858290 0.000000 0.000000 
#    y 0.000000 3.588590 0.000000 
#    z 0.000000 0.000000 4.136330 
# 
# 
# High freq. dielectric constant tensor:
#      x y z
#    x 1.816020 0.000000 0.000000 
#    y 0.000000 1.811330 0.000000 
#    z 0.000000 0.000000 1.845890 
# 
# From -- ./inp_files/69029.got.cif
#   From: 2010.03.12/outbox.cif.g09.slc.cpg/sg70_35_cif.got.tgz:69029.got - 2010.04.16 13:46:32.
