data_PCOD8286129
_publ_section_title
;
Structure prediction by ZEFSAII (Michael W. Deem and Ramdas Pophale) SiO2 
 PCOD8286129
Probable space group: F D D D
;
_chemical_formula_sum "Si O2"
_cell_formula_units_Z 176
_cell_length_a 12.560025
_cell_length_b 23.281036
_cell_length_c 29.828709
_cell_angle_alpha 90.000000
_cell_angle_beta 90.000000
_cell_angle_gamma 90.000000
_cell_volume 8722.224557
_symmetry_space_group_name_H-M "F D D D"
_symmetry_group_IT_number 70
_space_group.IT_coordinate_system_code '2'
_symmetry_cell_setting 'orthorhombic'
loop_
_space_group_symop_operation_xyz
x,y,z
1/4-x,1/4-y,z
x,1/4-y,1/4-z
1/4-x,y,1/4-z
-x,-y,-z
3/4+x,3/4+y,-z
-x,3/4+y,3/4+z
3/4+x,-y,3/4+z
x,1/2+y,1/2+z
1/4-x,3/4-y,1/2+z
x,3/4-y,3/4-z
1/4-x,1/2+y,3/4-z
-x,1/2-y,1/2-z
3/4+x,1/4+y,1/2-z
-x,1/4+y,1/4+z
3/4+x,1/2-y,1/4+z
1/2+x,y,1/2+z
3/4-x,1/4-y,1/2+z
1/2+x,1/4-y,3/4-z
3/4-x,y,3/4-z
1/2-x,-y,1/2-z
1/4+x,3/4+y,1/2-z
1/2-x,3/4+y,1/4+z
1/4+x,-y,1/4+z
1/2+x,1/2+y,z
3/4-x,3/4-y,z
1/2+x,3/4-y,1/4-z
3/4-x,1/2+y,1/4-z
1/2-x,1/2-y,-z
1/4+x,1/4+y,-z
1/2-x,1/4+y,3/4+z
1/4+x,1/2-y,3/4+z
loop_
_atom_site_type_symbol
_atom_site_label
_atom_site_fract_x
_atom_site_fract_y
_atom_site_fract_z
Si Si1 0.211430 0.581444 0.264785
Si Si2 0.125000 0.125000 0.010579
Si Si3 0.125000 0.778599 0.625000
Si Si4 0.030809 0.968342 0.431413
Si Si5 0.575151 0.372917 0.696570
Si Si6 0.996005 0.323452 0.409645
Si Si7 0.375000 0.715174 0.875000
O O1 0.125000 0.625000 0.282866
O O2 0.182490 0.523125 0.290027
O O3 0.201370 0.569840 0.211790
O O4 0.326629 0.609581 0.272398
O O5 0.173882 0.077222 0.044742
O O6 0.222334 0.141564 0.977423
O O7 0.096064 0.815883 0.668256
O O8 0.224040 0.737444 0.636158
O O9 0.968541 0.992193 0.389119
O O10 0.128974 0.927287 0.419512
O O11 0.565156 0.426531 0.662290
O O12 0.970341 0.375000 0.375000
#
# Coordination Sequence:
#
# PCOD8286129 Si02
#       7
#    32  16  16  32  32  32  16
#     4  10  20  40  64  92 122 160 212 266 311 384
#     4  12  23  44  62  94 134 168 212 274 307 386
#     4  11  23  42  63  94 123 178 207 255 334 378
#     4  10  22  39  63  89 125 166 205 265 327 365
#     4  10  23  41  67  97 127 162 220 266 315 386
#     4  12  24  44  61  89 137 169 211 269 324 389
#     4   9  22  44  62 100 128 160 218 271 318 380
#
# _framework density 20.178338
#
# number of rings (size 3 to 8) (size 9 to 14) (size 15 to 20)
#    0.000    1.455    3.636    1.091    2.545    2.182 
#    3.273    0.000    0.000    0.000    0.000    0.000 
#    0.000    0.000    0.000    0.000    0.000    0.000 
#
# Total GULP energy -545123.309799 kJ/mol
# GULP energy per Si atom -12389.166132 kJ/mol
# Density = 2.013241 g / cm^3
# Si number density = 20.178338 Si / 1000 Ang^3
#
#
#
# Elastic Constant Matrix: (Units=GPa)
#
#
# Indices 1 2 3 4 5 6 
#
# 1 100.2070 34.0062 48.3381 0.0000 0.0000 0.0000
# 2 34.0062 90.2257 50.3401 0.0000 0.0000 0.0000
# 3 48.3381 50.3401 111.6740 0.0000 0.0000 0.0000
# 4 0.0000 0.0000 0.0000 21.0331 0.0000 0.0000
# 5 0.0000 0.0000 0.0000 0.0000 27.6024 0.0000
# 6 0.0000 0.0000 0.0000 0.0000 0.0000 40.5177
#
#
#
# Elastic Compliance Matrix: (Units=1/GPa)
#
#
# Indices 1 2 3 4 5 6 
#
# 1 0.012975 -0.002347 -0.004558 0.000000 0.000000 0.000000
# 2 -0.002347 0.015232 -0.005850 0.000000 0.000000 0.000000
# 3 -0.004558 -0.005850 0.013565 0.000000 0.000000 0.000000
# 4 0.000000 0.000000 0.000000 0.047544 0.000000 0.000000
# 5 0.000000 0.000000 0.000000 0.000000 0.036229 0.000000
# 6 0.000000 0.000000 0.000000 0.000000 0.000000 0.024681
#
#
# Mechanical properties :
#
#
# Convention : Reuss Voigt Hill
#
# Bulk Modulus (GPa) = 61.49861 63.05283 62.27572
# Shear Modulus (GPa) = 27.60055 29.12546 28.36301
#
# Velocity S-wave (km/s) = 3.70243 3.80334 3.75322
# Velocity P-wave (km/s) = 6.98721 7.11356 7.05067
#
# Compressibility (1/GPa) = 0.01626053
#
# Stress axis : x y z
#
# Youngs Moduli (GPa) = 77.07399 65.65117 73.72035
#
# Poissons Ratio (x) = 0.15409 0.33602
# Poissons Ratio (y) = 0.18090 0.43129
# Poissons Ratio (z) = 0.35131 0.38408
#
# Static dielectric constant tensor:
#      x y z
#    x 3.566190 0.000000 0.000000 
#    y 0.000000 3.617900 0.000000 
#    z 0.000000 0.000000 4.009690 
# 
# 
# High freq. dielectric constant tensor:
#      x y z
#    x 1.785190 0.000000 0.000000 
#    y 0.000000 1.783800 0.000000 
#    z 0.000000 0.000000 1.798720 
# 
# From -- ./inp_files/61700.got.cif
#   From: 2010.03.12/outbox.cif.g09.slc.cpg/sg70_31_cif.got.tgz:61700.got - 2010.04.16 13:46:32.
