data_PCOD8286431
_publ_section_title
;
Structure prediction by ZEFSAII (Michael W. Deem and Ramdas Pophale) SiO2 
 PCOD8286431
Probable space group: F D D D
;
_chemical_formula_sum "Si O2"
_cell_formula_units_Z 192
_cell_length_a 22.854376
_cell_length_b 15.498166
_cell_length_c 24.531649
_cell_angle_alpha 90.000000
_cell_angle_beta 90.000000
_cell_angle_gamma 90.000000
_cell_volume 8689.132475
_symmetry_space_group_name_H-M "F D D D"
_symmetry_group_IT_number 70
_space_group.IT_coordinate_system_code '2'
_symmetry_cell_setting 'orthorhombic'
loop_
_space_group_symop_operation_xyz
x,y,z
1/4-x,1/4-y,z
x,1/4-y,1/4-z
1/4-x,y,1/4-z
-x,-y,-z
3/4+x,3/4+y,-z
-x,3/4+y,3/4+z
3/4+x,-y,3/4+z
x,1/2+y,1/2+z
1/4-x,3/4-y,1/2+z
x,3/4-y,3/4-z
1/4-x,1/2+y,3/4-z
-x,1/2-y,1/2-z
3/4+x,1/4+y,1/2-z
-x,1/4+y,1/4+z
3/4+x,1/2-y,1/4+z
1/2+x,y,1/2+z
3/4-x,1/4-y,1/2+z
1/2+x,1/4-y,3/4-z
3/4-x,y,3/4-z
1/2-x,-y,1/2-z
1/4+x,3/4+y,1/2-z
1/2-x,3/4+y,1/4+z
1/4+x,-y,1/4+z
1/2+x,1/2+y,z
3/4-x,3/4-y,z
1/2+x,3/4-y,1/4-z
3/4-x,1/2+y,1/4-z
1/2-x,1/2-y,-z
1/4+x,1/4+y,-z
1/2-x,1/4+y,3/4+z
1/4+x,1/2-y,3/4+z
loop_
_atom_site_type_symbol
_atom_site_label
_atom_site_fract_x
_atom_site_fract_y
_atom_site_fract_z
Si Si1 0.875000 0.375000 0.545842
Si Si2 0.804828 0.782837 0.617879
Si Si3 0.628278 0.854596 0.564415
Si Si4 0.943786 0.303848 0.916004
Si Si5 0.891459 0.625000 0.625000
Si Si6 0.246246 0.597629 0.267371
Si Si7 0.188170 0.462340 0.766869
O O1 0.821617 0.405606 0.582906
O O2 0.855634 0.293252 0.510574
O O3 0.739639 0.750773 0.630449
O O4 0.849017 0.703073 0.605362
O O5 0.801033 0.847627 0.566275
O O6 0.625000 0.894644 0.625000
O O7 0.613086 0.752268 0.566976
O O8 0.689737 0.877799 0.536693
O O9 0.576562 0.894054 0.529042
O O10 0.919749 0.375000 0.875000
O O11 0.975724 0.339838 0.969599
O O12 0.932146 0.586558 0.576028
O O13 0.250000 0.500000 0.250000
O O14 0.250000 0.500000 0.750000
#
# Coordination Sequence:
#
# PCOD8286431 Si02
#       7
#    16  32  32  32  16  32  32
#     4  10  24  44  71  96 133 184 236 296 344 426
#     4  11  20  41  65  99 134 174 226 284 347 423
#     4  12  26  46  68 103 142 180 228 300 357 416
#     4  12  24  43  68  97 144 177 224 288 353 421
#     4  10  22  44  72  96 136 180 232 294 344 426
#     4  12  23  39  66  99 136 180 223 274 353 426
#     4  11  25  47  71 101 139 188 242 293 357 426
#
# _framework density 22.096565999999999
#
# number of rings (size 3 to 8) (size 9 to 14) (size 15 to 20)
#    0.000    0.667    4.167    4.000    0.000    6.333 
#    4.500    0.000    0.000    0.000    0.000    0.000 
#    0.000    0.000    0.000    0.000    0.000    0.000 
#
# Total GULP energy -595018.438339 kJ/mol
# GULP energy per Si atom -12396.217465 kJ/mol
# Density = 2.204627 g / cm^3
# Si number density = 22.096566 Si / 1000 Ang^3
#
#
#
# Elastic Constant Matrix: (Units=GPa)
#
#
# Indices 1 2 3 4 5 6 
#
# 1 97.7066 19.7364 47.0840 0.0000 0.0000 0.0000
# 2 19.7364 84.3578 40.0687 0.0000 0.0000 0.0000
# 3 47.0840 40.0687 136.0953 0.0000 0.0000 0.0000
# 4 0.0000 0.0000 0.0000 39.7103 0.0000 0.0000
# 5 0.0000 0.0000 0.0000 0.0000 35.1045 0.0000
# 6 0.0000 0.0000 0.0000 0.0000 0.0000 36.8774
#
#
#
# Elastic Compliance Matrix: (Units=1/GPa)
#
#
# Indices 1 2 3 4 5 6 
#
# 1 0.012355 -0.001000 -0.003980 0.000000 0.000000 0.000000
# 2 -0.001000 0.013862 -0.003735 0.000000 0.000000 0.000000
# 3 -0.003980 -0.003735 0.009824 0.000000 0.000000 0.000000
# 4 0.000000 0.000000 0.000000 0.025182 0.000000 0.000000
# 5 0.000000 0.000000 0.000000 0.000000 0.028486 0.000000
# 6 0.000000 0.000000 0.000000 0.000000 0.000000 0.027117
#
#
# Mechanical properties :
#
#
# Convention : Reuss Voigt Hill
#
# Bulk Modulus (GPa) = 53.73180 59.10421 56.41801
# Shear Modulus (GPa) = 35.59702 36.42316 36.01009
#
# Velocity S-wave (km/s) = 4.01805 4.06441 4.04130
# Velocity P-wave (km/s) = 6.77465 6.98800 6.88215
#
# Compressibility (1/GPa) = 0.01861095
#
# Stress axis : x y z
#
# Youngs Moduli (GPa) = 80.94173 72.13710 101.78750
#
# Poissons Ratio (x) = 0.07215 0.40509
# Poissons Ratio (y) = 0.08095 0.38021
# Poissons Ratio (z) = 0.32213 0.26946
#
# Static dielectric constant tensor:
#      x y z
#    x 3.904610 0.000000 0.000000 
#    y 0.000000 3.995370 0.000000 
#    z 0.000000 0.000000 5.434490 
# 
# 
# High freq. dielectric constant tensor:
#      x y z
#    x 1.877560 0.000000 0.000000 
#    y 0.000000 1.866740 0.000000 
#    z 0.000000 0.000000 1.879050 
# 
# From -- ./inp_files/61173.got.cif
#   From: 2010.03.12/outbox.cif.g09.slc.cpg/sg70_31_cif.got.tgz:61173.got - 2010.04.16 13:46:32.
