data_PCOD8286672
_publ_section_title
;
Structure prediction by ZEFSAII (Michael W. Deem and Ramdas Pophale) SiO2 
 PCOD8286672
Probable space group: F D D D
;
_chemical_formula_sum "Si O2"
_cell_formula_units_Z 160
_cell_length_a 18.891042
_cell_length_b 13.863793
_cell_length_c 30.079733
_cell_angle_alpha 90.000000
_cell_angle_beta 90.000000
_cell_angle_gamma 90.000000
_cell_volume 7877.927067
_symmetry_space_group_name_H-M "F D D D"
_symmetry_group_IT_number 70
_space_group.IT_coordinate_system_code '2'
_symmetry_cell_setting 'orthorhombic'
loop_
_space_group_symop_operation_xyz
x,y,z
1/4-x,1/4-y,z
x,1/4-y,1/4-z
1/4-x,y,1/4-z
-x,-y,-z
3/4+x,3/4+y,-z
-x,3/4+y,3/4+z
3/4+x,-y,3/4+z
x,1/2+y,1/2+z
1/4-x,3/4-y,1/2+z
x,3/4-y,3/4-z
1/4-x,1/2+y,3/4-z
-x,1/2-y,1/2-z
3/4+x,1/4+y,1/2-z
-x,1/4+y,1/4+z
3/4+x,1/2-y,1/4+z
1/2+x,y,1/2+z
3/4-x,1/4-y,1/2+z
1/2+x,1/4-y,3/4-z
3/4-x,y,3/4-z
1/2-x,-y,1/2-z
1/4+x,3/4+y,1/2-z
1/2-x,3/4+y,1/4+z
1/4+x,-y,1/4+z
1/2+x,1/2+y,z
3/4-x,3/4-y,z
1/2+x,3/4-y,1/4-z
3/4-x,1/2+y,1/4-z
1/2-x,1/2-y,-z
1/4+x,1/4+y,-z
1/2-x,1/4+y,3/4+z
1/4+x,1/2-y,3/4+z
loop_
_atom_site_type_symbol
_atom_site_label
_atom_site_fract_x
_atom_site_fract_y
_atom_site_fract_z
Si Si1 0.135979 0.783760 0.045257
Si Si2 0.625000 0.834779 0.125000
Si Si3 0.125000 0.625000 0.730389
Si Si4 0.261142 0.441754 0.835252
Si Si5 0.023379 0.637375 0.073250
Si Si6 0.620336 0.815102 0.966854
O O1 0.158109 0.854007 0.085182
O O2 0.061791 0.732879 0.055686
O O3 0.198821 0.703647 0.043775
O O4 0.123203 0.843797 0.000122
O O5 0.691933 0.777758 0.105124
O O6 0.057070 0.635523 0.700076
O O7 0.101518 0.531849 0.757616
O O8 0.236314 0.375000 0.875000
O O9 0.189993 0.469163 0.809541
O O10 0.042261 0.625000 0.125000
O O11 0.940140 0.654170 0.067712
#
# Coordination Sequence:
#
# PCOD8286672 Si02
#       6
#    32  16  16  32  32  32
#     4  11  22  43  69  92 125 178 216 265 323 401
#     4  12  21  39  70  88 122 172 228 246 326 400
#     4  12  23  40  62  94 124 174 214 260 328 399
#     4  12  23  43  62  92 130 172 214 264 325 398
#     4  11  23  43  67  95 127 170 222 267 329 390
#     4  12  26  38  65  98 133 160 217 282 326 373
#
# _framework density 20.309909999999999
#
# number of rings (size 3 to 8) (size 9 to 14) (size 15 to 20)
#    0.000    0.400    6.000    3.600    2.800    0.000 
#    0.000    0.000    0.000    0.000    0.000    0.000 
#    0.000    0.000    0.000    0.000    0.000    0.000 
#
# Total GULP energy -495806.053716 kJ/mol
# GULP energy per Si atom -12395.151343 kJ/mol
# Density = 2.026368 g / cm^3
# Si number density = 20.309910 Si / 1000 Ang^3
#
#
#
# Elastic Constant Matrix: (Units=GPa)
#
#
# Indices 1 2 3 4 5 6 
#
# 1 144.1549 44.0343 41.8868 0.0000 0.0000 0.0000
# 2 44.0343 121.1321 49.7471 0.0000 0.0000 0.0000
# 3 41.8868 49.7471 81.1913 0.0000 0.0000 0.0000
# 4 0.0000 0.0000 0.0000 24.1828 0.0000 0.0000
# 5 0.0000 0.0000 0.0000 0.0000 35.7417 0.0000
# 6 0.0000 0.0000 0.0000 0.0000 0.0000 15.8363
#
#
#
# Elastic Compliance Matrix: (Units=1/GPa)
#
#
# Indices 1 2 3 4 5 6 
#
# 1 0.008416 -0.001705 -0.003297 0.000000 0.000000 0.000000
# 2 -0.001705 0.011377 -0.006091 0.000000 0.000000 0.000000
# 3 -0.003297 -0.006091 0.017749 0.000000 0.000000 0.000000
# 4 0.000000 0.000000 0.000000 0.041352 0.000000 0.000000
# 5 0.000000 0.000000 0.000000 0.000000 0.027979 0.000000
# 6 0.000000 0.000000 0.000000 0.000000 0.000000 0.063146
#
#
# Mechanical properties :
#
#
# Convention : Reuss Voigt Hill
#
# Bulk Modulus (GPa) = 65.12198 68.64609 66.88404
# Shear Modulus (GPa) = 25.33907 29.20614 27.27260
#
# Velocity S-wave (km/s) = 3.53600 3.79624 3.66843
# Velocity P-wave (km/s) = 6.98604 7.28615 7.13767
#
# Compressibility (1/GPa) = 0.01535580
#
# Stress axis : x y z
#
# Youngs Moduli (GPa) = 118.82295 87.89770 56.33971
#
# Poissons Ratio (x) = 0.14990 0.18574
# Poissons Ratio (y) = 0.20264 0.34316
# Poissons Ratio (z) = 0.39174 0.53538
#
# Static dielectric constant tensor:
#      x y z
#    x 3.448550 0.000000 0.000000 
#    y 0.000000 3.868070 0.000000 
#    z 0.000000 0.000000 3.801570 
# 
# 
# High freq. dielectric constant tensor:
#      x y z
#    x 1.792210 0.000000 0.000000 
#    y 0.000000 1.804780 0.000000 
#    z 0.000000 0.000000 1.802750 
# 
# From -- ./inp_files/66549.got.cif
#   From: 2010.03.12/outbox.cif.g09.slc.cpg/sg70_34_cif.got.tgz:66549.got - 2010.04.16 13:46:32.
