data_PCOD8286347
_publ_section_title
;
Structure prediction by ZEFSAII (Michael W. Deem and Ramdas Pophale) SiO2 
 PCOD8286347
Probable space group: F D D D
;
_chemical_formula_sum "Si O2"
_cell_formula_units_Z 160
_cell_length_a 24.178906
_cell_length_b 13.720183
_cell_length_c 23.724379
_cell_angle_alpha 90.000000
_cell_angle_beta 90.000000
_cell_angle_gamma 90.000000
_cell_volume 7870.302122
_symmetry_space_group_name_H-M "F D D D"
_symmetry_group_IT_number 70
_space_group.IT_coordinate_system_code '2'
_symmetry_cell_setting 'orthorhombic'
loop_
_space_group_symop_operation_xyz
x,y,z
1/4-x,1/4-y,z
x,1/4-y,1/4-z
1/4-x,y,1/4-z
-x,-y,-z
3/4+x,3/4+y,-z
-x,3/4+y,3/4+z
3/4+x,-y,3/4+z
x,1/2+y,1/2+z
1/4-x,3/4-y,1/2+z
x,3/4-y,3/4-z
1/4-x,1/2+y,3/4-z
-x,1/2-y,1/2-z
3/4+x,1/4+y,1/2-z
-x,1/4+y,1/4+z
3/4+x,1/2-y,1/4+z
1/2+x,y,1/2+z
3/4-x,1/4-y,1/2+z
1/2+x,1/4-y,3/4-z
3/4-x,y,3/4-z
1/2-x,-y,1/2-z
1/4+x,3/4+y,1/2-z
1/2-x,3/4+y,1/4+z
1/4+x,-y,1/4+z
1/2+x,1/2+y,z
3/4-x,3/4-y,z
1/2+x,3/4-y,1/4-z
3/4-x,1/2+y,1/4-z
1/2-x,1/2-y,-z
1/4+x,1/4+y,-z
1/2-x,1/4+y,3/4+z
1/4+x,1/2-y,3/4+z
loop_
_atom_site_type_symbol
_atom_site_label
_atom_site_fract_x
_atom_site_fract_y
_atom_site_fract_z
Si Si1 0.537822 0.280584 0.902987
Si Si2 0.265720 0.739091 0.231347
Si Si3 0.353225 0.476881 0.437708
Si Si4 0.370398 0.619882 0.026426
Si Si5 0.798647 0.951898 0.714680
O O1 0.507230 0.375000 0.875000
O O2 0.598238 0.319151 0.924776
O O3 0.543124 0.202694 0.853358
O O4 0.504468 0.230838 0.953726
O O5 0.213411 0.733875 0.189794
O O6 0.305528 0.650394 0.212423
O O7 0.300903 0.838483 0.228416
O O8 0.375000 0.484216 0.375000
O O9 0.375000 0.375000 0.464812
O O10 0.378236 0.568870 0.469423
O O11 0.397787 0.513556 0.017204
O O12 0.750000 0.000000 0.750000
#
# Coordination Sequence:
#
# PCOD8286347 Si02
#       5
#    32  32  32  32  32
#     4   9  19  38  58  91 131 164 207 269 319 382
#     4  11  22  39  69  94 130 177 212 275 335 388
#     4  10  23  44  61  90 131 168 222 273 315 393
#     4  10  22  39  64  95 128 163 222 263 333 397
#     4  11  19  39  65  96 134 164 211 274 327 391
#
# _framework density 20.329588999999999
#
# number of rings (size 3 to 8) (size 9 to 14) (size 15 to 20)
#    0.000    1.800    6.000    0.600    2.800    0.800 
#   10.800   20.000    0.000    0.000    0.000    0.000 
#    0.000    0.000    0.000    0.000    0.000    0.000 
#
# Total GULP energy -495601.310041 kJ/mol
# GULP energy per Si atom -12390.032751 kJ/mol
# Density = 2.028332 g / cm^3
# Si number density = 20.329589 Si / 1000 Ang^3
#
#
#
# Elastic Constant Matrix: (Units=GPa)
#
#
# Indices 1 2 3 4 5 6 
#
# 1 117.8125 49.6122 51.1487 0.0000 0.0000 0.0000
# 2 49.6122 80.7849 37.2095 0.0000 0.0000 0.0000
# 3 51.1487 37.2095 125.8981 0.0000 0.0000 0.0000
# 4 0.0000 0.0000 0.0000 18.7997 0.0000 0.0000
# 5 0.0000 0.0000 0.0000 0.0000 11.7377 0.0000
# 6 0.0000 0.0000 0.0000 0.0000 0.0000 37.2197
#
#
#
# Elastic Compliance Matrix: (Units=1/GPa)
#
#
# Indices 1 2 3 4 5 6 
#
# 1 0.012503 -0.006180 -0.003253 0.000000 0.000000 0.000000
# 2 -0.006180 0.017384 -0.002627 0.000000 0.000000 0.000000
# 3 -0.003253 -0.002627 0.010041 0.000000 0.000000 0.000000
# 4 0.000000 0.000000 0.000000 0.053192 0.000000 0.000000
# 5 0.000000 0.000000 0.000000 0.000000 0.085196 0.000000
# 6 0.000000 0.000000 0.000000 0.000000 0.000000 0.026868
#
#
# Mechanical properties :
#
#
# Convention : Reuss Voigt Hill
#
# Bulk Modulus (GPa) = 63.26119 66.71514 64.98817
# Shear Modulus (GPa) = 21.31536 25.98643 23.65089
#
# Velocity S-wave (km/s) = 3.24155 3.57915 3.41453
# Velocity P-wave (km/s) = 6.72276 7.06884 6.89797
#
# Compressibility (1/GPa) = 0.01580748
#
# Stress axis : x y z
#
# Youngs Moduli (GPa) = 79.98185 57.52451 99.59184
#
# Poissons Ratio (x) = 0.35550 0.32397
# Poissons Ratio (y) = 0.49429 0.26164
# Poissons Ratio (z) = 0.26018 0.15112
#
# Static dielectric constant tensor:
#      x y z
#    x 3.681410 0.000000 0.000000 
#    y 0.000000 3.111690 0.000000 
#    z 0.000000 0.000000 3.772230 
# 
# 
# High freq. dielectric constant tensor:
#      x y z
#    x 1.783460 0.000000 0.000000 
#    y 0.000000 1.791420 0.000000 
#    z 0.000000 0.000000 1.794500 
# 
# From -- ./inp_files/29932.got.cif
#   From: 2010.03.12/outbox.cif.g09.slc.cpg/sg70_15_cif.got.tgz:29932.got - 2010.04.16 13:46:32.
