data_PCOD8286313
_publ_section_title
;
Structure prediction by ZEFSAII (Michael W. Deem and Ramdas Pophale) SiO2 
 PCOD8286313
Probable space group: F D D D
;
_chemical_formula_sum "Si O2"
_cell_formula_units_Z 160
_cell_length_a 7.677604
_cell_length_b 28.882089
_cell_length_c 29.834883
_cell_angle_alpha 90.000000
_cell_angle_beta 90.000000
_cell_angle_gamma 90.000000
_cell_volume 6615.743352
_symmetry_space_group_name_H-M "F D D D"
_symmetry_group_IT_number 70
_space_group.IT_coordinate_system_code '2'
_symmetry_cell_setting 'orthorhombic'
loop_
_space_group_symop_operation_xyz
x,y,z
1/4-x,1/4-y,z
x,1/4-y,1/4-z
1/4-x,y,1/4-z
-x,-y,-z
3/4+x,3/4+y,-z
-x,3/4+y,3/4+z
3/4+x,-y,3/4+z
x,1/2+y,1/2+z
1/4-x,3/4-y,1/2+z
x,3/4-y,3/4-z
1/4-x,1/2+y,3/4-z
-x,1/2-y,1/2-z
3/4+x,1/4+y,1/2-z
-x,1/4+y,1/4+z
3/4+x,1/2-y,1/4+z
1/2+x,y,1/2+z
3/4-x,1/4-y,1/2+z
1/2+x,1/4-y,3/4-z
3/4-x,y,3/4-z
1/2-x,-y,1/2-z
1/4+x,3/4+y,1/2-z
1/2-x,3/4+y,1/4+z
1/4+x,-y,1/4+z
1/2+x,1/2+y,z
3/4-x,3/4-y,z
1/2+x,3/4-y,1/4-z
3/4-x,1/2+y,1/4-z
1/2-x,1/2-y,-z
1/4+x,1/4+y,-z
1/2-x,1/4+y,3/4+z
1/4+x,1/2-y,3/4+z
loop_
_atom_site_type_symbol
_atom_site_label
_atom_site_fract_x
_atom_site_fract_y
_atom_site_fract_z
Si Si1 0.065005 0.853615 0.041045
Si Si2 0.875000 0.588455 0.375000
Si Si3 0.101984 0.855912 0.304059
Si Si4 0.314059 0.943581 0.324961
Si Si5 0.625000 0.695954 0.625000
Si Si6 0.606877 0.227426 0.416271
O O1 0.158888 0.879642 0.081889
O O2 0.875000 0.875000 0.030364
O O3 0.035908 0.799332 0.054025
O O4 0.195589 0.860689 0.998711
O O5 0.700901 0.558438 0.367272
O O6 0.159729 0.904632 0.326181
O O7 0.269046 0.822506 0.297563
O O8 0.941566 0.835326 0.332789
O O9 0.375000 0.951786 0.375000
O O10 0.248979 0.993205 0.304449
O O11 0.469619 0.730055 0.612115
#
# Coordination Sequence:
#
# PCOD8286313 Si02
#       6
#    32  16  32  32  16  32
#     4  10  22  43  71  99 137 187 248 285 347 419
#     4  10  21  46  73  93 138 193 235 286 347 418
#     4  11  23  41  68 101 140 188 229 287 357 427
#     4  11  21  42  68  98 134 183 236 280 346 424
#     4  12  25  41  69 104 148 176 225 296 363 415
#     4  11  23  40  68 101 134 187 235 293 343 414
#
# _framework density 24.184735
#
# number of rings (size 3 to 8) (size 9 to 14) (size 15 to 20)
#    0.000    1.200    5.000    1.800    0.000    3.200 
#    3.600    0.000   13.200    0.000    0.000    0.000 
#    0.000    0.000    0.000    0.000    0.000    0.000 
#
# Total GULP energy -495724.460884 kJ/mol
# GULP energy per Si atom -12393.111522 kJ/mol
# Density = 2.412969 g / cm^3
# Si number density = 24.184735 Si / 1000 Ang^3
#
#
#
# Elastic Constant Matrix: (Units=GPa)
#
#
# Indices 1 2 3 4 5 6 
#
# 1 89.0811 43.7584 32.6567 0.0000 0.0000 0.0000
# 2 43.7584 168.1650 58.5530 0.0000 0.0000 0.0000
# 3 32.6567 58.5530 149.1686 0.0000 0.0000 0.0000
# 4 0.0000 0.0000 0.0000 8.1312 0.0000 0.0000
# 5 0.0000 0.0000 0.0000 0.0000 28.4045 0.0000
# 6 0.0000 0.0000 0.0000 0.0000 0.0000 25.1403
#
#
#
# Elastic Compliance Matrix: (Units=1/GPa)
#
#
# Indices 1 2 3 4 5 6 
#
# 1 0.013273 -0.002829 -0.001796 0.000000 0.000000 0.000000
# 2 -0.002829 0.007491 -0.002321 0.000000 0.000000 0.000000
# 3 -0.001796 -0.002321 0.008008 0.000000 0.000000 0.000000
# 4 0.000000 0.000000 0.000000 0.122983 0.000000 0.000000
# 5 0.000000 0.000000 0.000000 0.000000 0.035206 0.000000
# 6 0.000000 0.000000 0.000000 0.000000 0.000000 0.039777
#
#
# Mechanical properties :
#
#
# Convention : Reuss Voigt Hill
#
# Bulk Modulus (GPa) = 67.19710 75.15011 71.17360
# Shear Modulus (GPa) = 20.35926 30.43165 25.39546
#
# Velocity S-wave (km/s) = 2.90457 3.55110 3.24398
# Velocity P-wave (km/s) = 6.25251 6.92492 6.59729
#
# Compressibility (1/GPa) = 0.01488159
#
# Stress axis : x y z
#
# Youngs Moduli (GPa) = 75.33817 133.49750 124.87509
#
# Poissons Ratio (x) = 0.37763 0.22422
# Poissons Ratio (y) = 0.21311 0.28984
# Poissons Ratio (z) = 0.13527 0.30986
#
# Static dielectric constant tensor:
#      x y z
#    x 4.620790 0.000000 0.000000 
#    y 0.000000 4.904420 0.000000 
#    z 0.000000 0.000000 4.229970 
# 
# 
# High freq. dielectric constant tensor:
#      x y z
#    x 1.960310 0.000000 0.000000 
#    y 0.000000 1.977120 0.000000 
#    z 0.000000 0.000000 1.939720 
# 
# From -- ./inp_files/63942.got.cif
#   From: 2010.03.12/outbox.cif.g09.slc.cpg/sg70_32_cif.got.tgz:63942.got - 2010.04.16 13:46:32.
