data_PCOD8286464
_publ_section_title
;
Structure prediction by ZEFSAII (Michael W. Deem and Ramdas Pophale) SiO2 
 PCOD8286464
Probable space group: F D D D
;
_chemical_formula_sum "Si O2"
_cell_formula_units_Z 136
_cell_length_a 25.283662
_cell_length_b 19.307085
_cell_length_c 13.512646
_cell_angle_alpha 90.000000
_cell_angle_beta 90.000000
_cell_angle_gamma 90.000000
_cell_volume 6596.249646
_symmetry_space_group_name_H-M "F D D D"
_symmetry_group_IT_number 70
_space_group.IT_coordinate_system_code '2'
_symmetry_cell_setting 'orthorhombic'
loop_
_space_group_symop_operation_xyz
x,y,z
1/4-x,1/4-y,z
x,1/4-y,1/4-z
1/4-x,y,1/4-z
-x,-y,-z
3/4+x,3/4+y,-z
-x,3/4+y,3/4+z
3/4+x,-y,3/4+z
x,1/2+y,1/2+z
1/4-x,3/4-y,1/2+z
x,3/4-y,3/4-z
1/4-x,1/2+y,3/4-z
-x,1/2-y,1/2-z
3/4+x,1/4+y,1/2-z
-x,1/4+y,1/4+z
3/4+x,1/2-y,1/4+z
1/2+x,y,1/2+z
3/4-x,1/4-y,1/2+z
1/2+x,1/4-y,3/4-z
3/4-x,y,3/4-z
1/2-x,-y,1/2-z
1/4+x,3/4+y,1/2-z
1/2-x,3/4+y,1/4+z
1/4+x,-y,1/4+z
1/2+x,1/2+y,z
3/4-x,3/4-y,z
1/2+x,3/4-y,1/4-z
3/4-x,1/2+y,1/4-z
1/2-x,1/2-y,-z
1/4+x,1/4+y,-z
1/2-x,1/4+y,3/4+z
1/4+x,1/2-y,3/4+z
loop_
_atom_site_type_symbol
_atom_site_label
_atom_site_fract_x
_atom_site_fract_y
_atom_site_fract_z
Si Si1 0.320397 0.057178 0.570784
Si Si2 0.003794 0.059729 0.858035
Si Si3 0.298755 0.449644 0.222750
Si Si4 0.188885 0.814154 0.443988
Si Si5 0.375000 0.875000 0.875000
O O1 0.295179 0.125000 0.625000
O O2 0.280788 0.032959 0.484732
O O3 0.377708 0.076586 0.528685
O O4 0.332309 0.994496 0.645610
O O5 0.028749 0.132886 0.834017
O O6 0.966926 0.067032 0.951877
O O7 0.050536 0.006488 0.883583
O O8 0.250000 0.500000 0.250000
O O9 0.337020 0.426350 0.312448
O O10 0.211090 0.875000 0.375000
#
# Coordination Sequence:
#
# PCOD8286464 Si02
#       5
#    32  32  32  32   8
#     4  11  22  40  61  94 126 168 219 265 336 407
#     4  11  22  42  64  93 129 173 222 274 341 400
#     4  12  24  42  66  96 138 176 226 291 348 428
#     4  10  23  40  64  91 126 171 217 275 323 406
#     4  12  28  44  68 104 138 192 230 292 376 402
#
# _framework density 20.617777
#
# number of rings (size 3 to 8) (size 9 to 14) (size 15 to 20)
#    0.000    0.941    2.353    4.941    0.000    3.765 
#    0.000    0.000    0.000    4.235    0.000    0.000 
#    0.000    0.000    0.000    0.000    0.000    0.000 
#
# Total GULP energy -421566.111076 kJ/mol
# GULP energy per Si atom -12399.003267 kJ/mol
# Density = 2.057085 g / cm^3
# Si number density = 20.617777 Si / 1000 Ang^3
#
#
#
# Elastic Constant Matrix: (Units=GPa)
#
#
# Indices 1 2 3 4 5 6 
#
# 1 82.8106 34.2339 42.6638 0.0000 0.0000 0.0000
# 2 34.2339 139.3956 59.1193 0.0000 0.0000 0.0000
# 3 42.6638 59.1193 122.6000 0.0000 0.0000 0.0000
# 4 0.0000 0.0000 0.0000 41.2815 0.0000 0.0000
# 5 0.0000 0.0000 0.0000 0.0000 41.9805 0.0000
# 6 0.0000 0.0000 0.0000 0.0000 0.0000 34.6388
#
#
#
# Elastic Compliance Matrix: (Units=1/GPa)
#
#
# Indices 1 2 3 4 5 6 
#
# 1 0.015087 -0.001859 -0.004354 0.000000 0.000000 0.000000
# 2 -0.001859 0.009247 -0.003812 0.000000 0.000000 0.000000
# 3 -0.004354 -0.003812 0.011510 0.000000 0.000000 0.000000
# 4 0.000000 0.000000 0.000000 0.024224 0.000000 0.000000
# 5 0.000000 0.000000 0.000000 0.000000 0.023821 0.000000
# 6 0.000000 0.000000 0.000000 0.000000 0.000000 0.028869
#
#
# Mechanical properties :
#
#
# Convention : Reuss Voigt Hill
#
# Bulk Modulus (GPa) = 63.31269 68.53781 65.92525
# Shear Modulus (GPa) = 36.21271 37.49944 36.85607
#
# Velocity S-wave (km/s) = 4.19547 4.26936 4.23257
# Velocity P-wave (km/s) = 7.36504 7.59062 7.47868
#
# Compressibility (1/GPa) = 0.01579462
#
# Stress axis : x y z
#
# Youngs Moduli (GPa) = 66.28101 108.14171 86.88043
#
# Poissons Ratio (x) = 0.20100 0.37827
# Poissons Ratio (y) = 0.12320 0.33121
# Poissons Ratio (z) = 0.28858 0.41227
#
# Static dielectric constant tensor:
#      x y z
#    x 3.770720 0.000000 0.000000 
#    y 0.000000 3.979960 0.000000 
#    z 0.000000 0.000000 3.872980 
# 
# 
# High freq. dielectric constant tensor:
#      x y z
#    x 1.814440 0.000000 0.000000 
#    y 0.000000 1.816920 0.000000 
#    z 0.000000 0.000000 1.815870 
# 
# From -- ./inp_files/17642.got.cif
#   From: 2010.03.12/outbox.cif.g09.slc.cpg/sg70_9_cif.got.tgz:17642.got - 2010.04.16 13:46:32.
