data_PCOD8286043
_publ_section_title
;
Structure prediction by ZEFSAII (Michael W. Deem and Ramdas Pophale) SiO2 
 PCOD8286043
Probable space group: F D D D
;
_chemical_formula_sum "Si O2"
_cell_formula_units_Z 168
_cell_length_a 15.680043
_cell_length_b 22.906342
_cell_length_c 22.906354
_cell_angle_alpha 90.000000
_cell_angle_beta 90.000000
_cell_angle_gamma 90.000000
_cell_volume 8227.330772
_symmetry_space_group_name_H-M "F D D D"
_symmetry_group_IT_number 70
_space_group.IT_coordinate_system_code '2'
_symmetry_cell_setting 'orthorhombic'
loop_
_space_group_symop_operation_xyz
x,y,z
1/4-x,1/4-y,z
x,1/4-y,1/4-z
1/4-x,y,1/4-z
-x,-y,-z
3/4+x,3/4+y,-z
-x,3/4+y,3/4+z
3/4+x,-y,3/4+z
x,1/2+y,1/2+z
1/4-x,3/4-y,1/2+z
x,3/4-y,3/4-z
1/4-x,1/2+y,3/4-z
-x,1/2-y,1/2-z
3/4+x,1/4+y,1/2-z
-x,1/4+y,1/4+z
3/4+x,1/2-y,1/4+z
1/2+x,y,1/2+z
3/4-x,1/4-y,1/2+z
1/2+x,1/4-y,3/4-z
3/4-x,y,3/4-z
1/2-x,-y,1/2-z
1/4+x,3/4+y,1/2-z
1/2-x,3/4+y,1/4+z
1/4+x,-y,1/4+z
1/2+x,1/2+y,z
3/4-x,3/4-y,z
1/2+x,3/4-y,1/4-z
3/4-x,1/2+y,1/4-z
1/2-x,1/2-y,-z
1/4+x,1/4+y,-z
1/2-x,1/4+y,3/4+z
1/4+x,1/2-y,3/4+z
loop_
_atom_site_type_symbol
_atom_site_label
_atom_site_fract_x
_atom_site_fract_y
_atom_site_fract_z
Si Si1 0.786808 0.670752 0.079248
Si Si2 0.453170 0.506763 0.338221
Si Si3 0.877617 0.155458 0.753731
Si Si4 0.703170 0.088221 0.993237
Si Si5 0.622383 0.246269 0.344542
Si Si6 0.625000 0.625000 0.125000
O O1 0.828151 0.625000 0.125000
O O2 0.820102 0.650242 0.016166
O O3 0.820102 0.733834 0.099758
O O4 0.683369 0.666409 0.083591
O O5 0.375000 0.479901 0.375000
O O6 0.420976 0.566392 0.308292
O O7 0.483944 0.458940 0.291060
O O8 0.530300 0.522592 0.381477
O O9 0.890052 0.203929 0.703929
O O10 0.969700 0.131477 0.772592
O O11 0.625000 0.125000 0.020099
O O12 0.670976 0.058291 0.933608
#
# Coordination Sequence:
#
# PCOD8286043 Si02
#       6
#    32  32  32  32  32   8
#     4   8  16  34  63  87 114 149 200 253 292 354
#     4  11  22  35  59  91 127 164 205 249 309 374
#     4  10  20  37  62  90 123 162 200 254 307 369
#     4  11  22  35  59  91 127 164 205 249 309 374
#     4  10  20  37  62  90 123 162 200 254 307 369
#     4   8  16  32  68  92 102 152 204 240 304 340
#
# _framework density 20.419746
#
# number of rings (size 3 to 8) (size 9 to 14) (size 15 to 20)
#    0.571    1.524    1.905    2.286    0.000    4.952 
#    0.000    0.000   12.571    2.286    0.000    0.000 
#    0.000    0.000    0.000    0.000    0.000    0.000 
#
# Total GULP energy -520567.989001 kJ/mol
# GULP energy per Si atom -12394.475929 kJ/mol
# Density = 2.037327 g / cm^3
# Si number density = 20.419746 Si / 1000 Ang^3
#
#
#
# Elastic Constant Matrix: (Units=GPa)
#
#
# Indices 1 2 3 4 5 6 
#
# 1 152.7468 41.9838 41.9838 0.0000 0.0000 0.0000
# 2 41.9838 76.2686 35.5178 0.0000 0.0000 0.0000
# 3 41.9838 35.5178 76.2685 0.0000 0.0000 0.0000
# 4 0.0000 0.0000 0.0000 16.6546 0.0000 0.0000
# 5 0.0000 0.0000 0.0000 0.0000 30.0610 0.0000
# 6 0.0000 0.0000 0.0000 0.0000 0.0000 30.0611
#
#
#
# Elastic Compliance Matrix: (Units=1/GPa)
#
#
# Indices 1 2 3 4 5 6 
#
# 1 0.008250 -0.003098 -0.003098 0.000000 0.000000 0.000000
# 2 -0.003098 0.017906 -0.006633 0.000000 0.000000 0.000000
# 3 -0.003098 -0.006633 0.017906 0.000000 0.000000 0.000000
# 4 0.000000 0.000000 0.000000 0.060043 0.000000 0.000000
# 5 0.000000 0.000000 0.000000 0.000000 0.033266 0.000000
# 6 0.000000 0.000000 0.000000 0.000000 0.000000 0.033266
#
#
# Mechanical properties :
#
#
# Convention : Reuss Voigt Hill
#
# Bulk Modulus (GPa) = 54.34133 60.47273 57.40703
# Shear Modulus (GPa) = 24.69969 27.74192 26.22080
#
# Velocity S-wave (km/s) = 3.48170 3.68989 3.58731
# Velocity P-wave (km/s) = 6.54469 6.91613 6.73297
#
# Compressibility (1/GPa) = 0.01840220
#
# Stress axis : x y z
#
# Youngs Moduli (GPa) = 121.21101 55.84649 55.84644
#
# Poissons Ratio (x) = 0.17304 0.17304
# Poissons Ratio (y) = 0.37557 0.37044
# Poissons Ratio (z) = 0.37557 0.37044
#
# Static dielectric constant tensor:
#      x y z
#    x 3.548370 0.000000 0.000000 
#    y 0.000000 3.571360 0.000000 
#    z 0.000000 0.000000 3.571360 
# 
# 
# High freq. dielectric constant tensor:
#      x y z
#    x 1.800580 0.000000 0.000000 
#    y 0.000000 1.780090 0.000000 
#    z 0.000000 0.000000 1.780090 
# 
# From -- ./inp_files/52233.got.cif
#   From: 2010.03.12/outbox.cif.g09.slc.cpg/sg70_27_cif.got.tgz:52233.got - 2010.04.16 13:46:32.
