data_PCOD8286851
_publ_section_title
;
Structure prediction by ZEFSAII (Michael W. Deem and Ramdas Pophale) SiO2 
 PCOD8286851
Probable space group: F D D D
;
_chemical_formula_sum "Si O2"
_cell_formula_units_Z 112
_cell_length_a 10.071387
_cell_length_b 14.219021
_cell_length_c 32.210283
_cell_angle_alpha 90.000000
_cell_angle_beta 90.000000
_cell_angle_gamma 90.000000
_cell_volume 4612.682056
_symmetry_space_group_name_H-M "F D D D"
_symmetry_group_IT_number 70
_space_group.IT_coordinate_system_code '2'
_symmetry_cell_setting 'orthorhombic'
loop_
_space_group_symop_operation_xyz
x,y,z
1/4-x,1/4-y,z
x,1/4-y,1/4-z
1/4-x,y,1/4-z
-x,-y,-z
3/4+x,3/4+y,-z
-x,3/4+y,3/4+z
3/4+x,-y,3/4+z
x,1/2+y,1/2+z
1/4-x,3/4-y,1/2+z
x,3/4-y,3/4-z
1/4-x,1/2+y,3/4-z
-x,1/2-y,1/2-z
3/4+x,1/4+y,1/2-z
-x,1/4+y,1/4+z
3/4+x,1/2-y,1/4+z
1/2+x,y,1/2+z
3/4-x,1/4-y,1/2+z
1/2+x,1/4-y,3/4-z
3/4-x,y,3/4-z
1/2-x,-y,1/2-z
1/4+x,3/4+y,1/2-z
1/2-x,3/4+y,1/4+z
1/4+x,-y,1/4+z
1/2+x,1/2+y,z
3/4-x,3/4-y,z
1/2+x,3/4-y,1/4-z
3/4-x,1/2+y,1/4-z
1/2-x,1/2-y,-z
1/4+x,1/4+y,-z
1/2-x,1/4+y,3/4+z
1/4+x,1/2-y,3/4+z
loop_
_atom_site_type_symbol
_atom_site_label
_atom_site_fract_x
_atom_site_fract_y
_atom_site_fract_z
Si Si1 0.375000 0.375000 0.619740
Si Si2 0.162755 0.295523 0.193019
Si Si3 0.343300 0.194609 0.086739
Si Si4 0.368665 0.180817 0.511727
O O1 0.248517 0.406924 0.593284
O O2 0.422515 0.461752 0.648841
O O3 0.256604 0.240910 0.224624
O O4 0.090217 0.374932 0.220302
O O5 0.056247 0.223657 0.175279
O O6 0.330918 0.125000 0.125000
O O7 0.419031 0.142165 0.049016
O O8 0.250000 0.250000 0.500000
#
# Coordination Sequence:
#
# PCOD8286851 Si02
#       4
#    16  32  32  32
#     4  12  26  46  76 114 151 196 259 326 384 464
#     4  12  26  48  74 110 152 199 260 311 390 472
#     4  12  27  48  78 110 151 202 256 325 391 457
#     4  12  25  48  72 108 151 201 248 315 385 465
#
# _framework density 24.280885999999999
#
# number of rings (size 3 to 8) (size 9 to 14) (size 15 to 20)
#    0.000    0.000    5.714    2.571    8.000    0.000 
#    0.000    0.000    0.000    0.000    0.000    0.000 
#    0.000    0.000    0.000    0.000    0.000    0.000 
#
# Total GULP energy -347192.406481 kJ/mol
# GULP energy per Si atom -12399.728803 kJ/mol
# Density = 2.422562 g / cm^3
# Si number density = 24.280886 Si / 1000 Ang^3
#
#
#
# Elastic Constant Matrix: (Units=GPa)
#
#
# Indices 1 2 3 4 5 6 
#
# 1 46.3841 49.3406 43.3175 0.0000 0.0000 0.0000
# 2 49.3406 182.0840 84.1496 0.0000 0.0000 0.0000
# 3 43.3175 84.1496 137.0961 0.0000 0.0000 0.0000
# 4 0.0000 0.0000 0.0000 85.4587 0.0000 0.0000
# 5 0.0000 0.0000 0.0000 0.0000 25.7910 0.0000
# 6 0.0000 0.0000 0.0000 0.0000 0.0000 28.8236
#
#
#
# Elastic Compliance Matrix: (Units=1/GPa)
#
#
# Indices 1 2 3 4 5 6 
#
# 1 0.034809 -0.006072 -0.007271 0.000000 0.000000 0.000000
# 2 -0.006072 0.008726 -0.003437 0.000000 0.000000 0.000000
# 3 -0.007271 -0.003437 0.011702 0.000000 0.000000 0.000000
# 4 0.000000 0.000000 0.000000 0.011702 0.000000 0.000000
# 5 0.000000 0.000000 0.000000 0.000000 0.038773 0.000000
# 6 0.000000 0.000000 0.000000 0.000000 0.000000 0.034694
#
#
# Mechanical properties :
#
#
# Convention : Reuss Voigt Hill
#
# Bulk Modulus (GPa) = 46.13678 79.90885 63.02282
# Shear Modulus (GPa) = 27.59516 40.59842 34.09679
#
# Velocity S-wave (km/s) = 3.37485 4.09348 3.75142
# Velocity P-wave (km/s) = 5.85053 7.43800 6.69151
#
# Compressibility (1/GPa) = 0.02167468
#
# Stress axis : x y z
#
# Youngs Moduli (GPa) = 28.72847 114.60074 85.45864
#
# Poissons Ratio (x) = 0.69585 0.62140
# Poissons Ratio (y) = 0.17444 0.29376
# Poissons Ratio (z) = 0.20889 0.39394
#
# Static dielectric constant tensor:
#      x y z
#    x 0.199340 0.000000 0.000000 
#    y 0.000000 6.627510 0.000000 
#    z 0.000000 0.000000 5.088830 
# 
# 
# High freq. dielectric constant tensor:
#      x y z
#    x 1.933510 0.000000 0.000000 
#    y 0.000000 1.998130 0.000000 
#    z 0.000000 0.000000 1.994330 
# 
# From -- ./inp_files/64381.got.cif
#   From: 2010.03.12/outbox.cif.g09.slc.cpg/sg70_33_cif.got.tgz:64381.got - 2010.04.16 13:46:32.
