data_PCOD8286966
_publ_section_title
;
Structure prediction by ZEFSAII (Michael W. Deem and Ramdas Pophale) SiO2 
 PCOD8286966
Probable space group: I M M M
;
_chemical_formula_sum "Si O2"
_cell_formula_units_Z 112
_cell_length_a 34.194458
_cell_length_b 8.875905
_cell_length_c 26.471922
_cell_angle_alpha 90.000000
_cell_angle_beta 90.000000
_cell_angle_gamma 90.000000
_cell_volume 8034.407297
_symmetry_space_group_name_H-M "I M M M"
_symmetry_group_IT_number 71
_symmetry_cell_setting 'orthorhombic'
loop_
_space_group_symop_operation_xyz
x,y,z
-x,-y,z
x,-y,-z
-x,y,-z
-x,-y,-z
x,y,-z
-x,y,z
x,-y,z
1/2+x,1/2+y,1/2+z
1/2-x,1/2-y,1/2+z
1/2+x,1/2-y,1/2-z
1/2-x,1/2+y,1/2-z
1/2-x,1/2-y,1/2-z
1/2+x,1/2+y,1/2-z
1/2-x,1/2+y,1/2+z
1/2+x,1/2-y,1/2+z
loop_
_atom_site_type_symbol
_atom_site_label
_atom_site_fract_x
_atom_site_fract_y
_atom_site_fract_z
Si Si1 0.500000 0.169411 0.598188
Si Si2 0.203226 0.676511 0.851507
Si Si3 0.078521 0.823067 0.099978
Si Si4 0.656724 0.178950 0.253802
Si Si5 0.420850 0.322287 0.716801
Si Si6 0.275335 0.322217 0.793897
Si Si7 0.846155 0.323492 0.943249
Si Si8 0.500000 0.829481 0.281746
O O1 0.538608 0.252796 0.578113
O O2 0.500000 0.173572 0.658257
O O3 0.500000 0.000000 0.577218
O O4 0.196798 0.500000 0.850005
O O5 0.177197 0.740701 0.805177
O O6 0.249685 0.712606 0.844679
O O7 0.187204 0.739399 0.904906
O O8 0.085107 0.776907 0.158281
O O9 0.113601 0.761637 0.066428
O O10 0.075429 0.000000 0.093783
O O11 0.613481 0.247050 0.250513
O O12 0.682143 0.242649 0.206227
O O13 0.654766 0.000000 0.250437
O O14 0.420629 0.500000 0.724663
O O15 0.461583 0.256878 0.738071
O O16 0.280198 0.500000 0.785361
O O17 0.250000 0.250000 0.750000
O O18 0.853749 0.500000 0.935002
O O19 0.831694 0.289189 0.000000
O O20 0.500000 0.000000 0.261036
#
# Coordination Sequence:
#
# PCOD8286966 Si02
#       8
#     8  16  16  16  16  16  16   8
#     4   9  17  29  46  60  71  91 119 150 188 237
#     4   8  15  27  41  56  75  97 119 150 187 222
#     4  10  19  30  43  59  77  94 116 152 195 234
#     4  10  17  26  41  59  79 100 123 152 186 227
#     4  10  18  27  40  58  78 101 126 155 189 229
#     4   9  16  26  39  57  79  99 121 148 182 226
#     4  10  19  31  46  60  74  96 126 154 185 232
#     4   9  17  27  39  56  76 101 127 155 187 223
#
# _framework density 13.940045
#
# number of rings (size 3 to 8) (size 9 to 14) (size 15 to 20)
#    0.000    2.571    1.429    3.000    0.000    3.143 
#    0.000    1.071    0.000    2.143    0.000    0.000 
#    0.000    0.000    0.000    0.000    0.000    0.000 
#
# Total GULP energy -694074.180406 kJ/mol
# GULP energy per Si atom -12394.181793 kJ/mol
# Density = 1.390832 g / cm^3
# Si number density = 13.940045 Si / 1000 Ang^3
#
#
#
# Elastic Constant Matrix: (Units=GPa)
#
#
# Indices 1 2 3 4 5 6 
#
# 1 118.5592 43.7073 45.9432 0.0000 0.0000 0.0000
# 2 43.7073 67.2993 19.7754 0.0000 0.0000 0.0000
# 3 45.9432 19.7754 38.5713 0.0000 0.0000 0.0000
# 4 0.0000 0.0000 0.0000 10.2081 0.0000 0.0000
# 5 0.0000 0.0000 0.0000 0.0000 15.4669 0.0000
# 6 0.0000 0.0000 0.0000 0.0000 0.0000 26.0655
#
#
#
# Elastic Compliance Matrix: (Units=1/GPa)
#
#
# Indices 1 2 3 4 5 6 
#
# 1 0.017627 -0.006215 -0.017810 0.000000 0.000000 0.000000
# 2 -0.006215 0.019686 -0.002690 0.000000 0.000000 0.000000
# 3 -0.017810 -0.002690 0.048519 0.000000 0.000000 0.000000
# 4 0.000000 0.000000 0.000000 0.097962 0.000000 0.000000
# 5 0.000000 0.000000 0.000000 0.000000 0.064654 0.000000
# 6 0.000000 0.000000 0.000000 0.000000 0.000000 0.038365
#
#
# Mechanical properties :
#
#
# Convention : Reuss Voigt Hill
#
# Bulk Modulus (GPa) = 30.86212 49.25352 40.05782
# Shear Modulus (GPa) = 14.24322 18.01501 16.12912
#
# Velocity S-wave (km/s) = 3.19995 3.59879 3.40521
# Velocity P-wave (km/s) = 5.98666 7.25792 6.65273
#
# Compressibility (1/GPa) = 0.03240218
#
# Stress axis : x y z
#
# Youngs Moduli (GPa) = 56.73017 50.79850 20.61028
#
# Poissons Ratio (x) = 0.31569 0.36707
# Poissons Ratio (y) = 0.35256 0.05545
# Poissons Ratio (z) = 1.01037 0.13667
#
# Static dielectric constant tensor:
#      x y z
#    x 3.032560 0.000000 0.000000 
#    y 0.000000 2.781840 0.000000 
#    z 0.000000 0.000000 2.534640 
# 
# 
# High freq. dielectric constant tensor:
#      x y z
#    x 1.535100 0.000000 0.000000 
#    y 0.000000 1.539780 0.000000 
#    z 0.000000 0.000000 1.464510 
# 
# From -- ./inp_files/17609.got.cif
#   From: 2010.06.25/outbox.cif.g09.slc.cpg/sg71_9_cif.got.tgz:17609.got - 2010.06.28 04:59:45.
