data_PCOD8286981
_publ_section_title
;
Structure prediction by ZEFSAII (Michael W. Deem and Ramdas Pophale) SiO2 
 PCOD8286981
Probable space group: I M M M
;
_chemical_formula_sum "Si O2"
_cell_formula_units_Z 104
_cell_length_a 23.576341
_cell_length_b 28.205811
_cell_length_c 9.447097
_cell_angle_alpha 90.000000
_cell_angle_beta 90.000000
_cell_angle_gamma 90.000000
_cell_volume 6282.223318
_symmetry_space_group_name_H-M "I M M M"
_symmetry_group_IT_number 71
_symmetry_cell_setting 'orthorhombic'
loop_
_space_group_symop_operation_xyz
x,y,z
-x,-y,z
x,-y,-z
-x,y,-z
-x,-y,-z
x,y,-z
-x,y,z
x,-y,z
1/2+x,1/2+y,1/2+z
1/2-x,1/2-y,1/2+z
1/2+x,1/2-y,1/2-z
1/2-x,1/2+y,1/2-z
1/2-x,1/2-y,1/2-z
1/2+x,1/2+y,1/2-z
1/2-x,1/2+y,1/2+z
1/2+x,1/2-y,1/2+z
loop_
_atom_site_type_symbol
_atom_site_label
_atom_site_fract_x
_atom_site_fract_y
_atom_site_fract_z
Si Si1 0.563119 0.178747 0.831813
Si Si2 0.432520 0.282851 0.157657
Si Si3 0.563580 0.000000 0.167885
Si Si4 0.432868 0.629168 0.662356
Si Si5 0.634855 0.090291 0.168146
Si Si6 0.264330 0.945472 0.336721
Si Si7 0.365285 0.555230 0.838274
O O1 0.500000 0.169741 0.768940
O O2 0.586570 0.230751 0.786730
O O3 0.605569 0.138435 0.776235
O O4 0.559025 0.176577 0.000000
O O5 0.500000 0.283230 0.151933
O O6 0.409466 0.323191 0.262717
O O7 0.408273 0.292769 0.000000
O O8 0.596326 0.046590 0.221063
O O9 0.500000 0.000000 0.231689
O O10 0.560172 0.000000 0.000000
O O11 0.414016 0.631323 0.500000
O O12 0.500000 0.624926 0.678893
O O13 0.405883 0.583327 0.733719
O O14 0.696380 0.087398 0.239544
O O15 0.642690 0.089839 0.000000
O O16 0.280878 0.938394 0.500000
O O17 0.199641 0.929966 0.310371
O O18 0.272723 0.000000 0.291861
O O19 0.373902 0.500000 0.806534
O O20 0.382092 0.566691 0.000000
#
# Coordination Sequence:
#
# PCOD8286981 Si02
#       7
#    16  16   8  16  16  16  16
#     4   8  14  25  43  68  95 122 157 200 237 270
#     4   8  14  27  47  67  89 123 162 192 221 267
#     4   9  16  24  37  63  97 127 154 189 234 281
#     4  10  20  32  48  74 104 126 143 176 231 281
#     4  10  17  26  44  69  93 121 159 199 237 279
#     4   9  18  33  49  64  88 122 159 197 234 271
#     4   9  19  35  53  71  91 122 161 192 220 265
#
# _framework density 16.554649000000001
#
# number of rings (size 3 to 8) (size 9 to 14) (size 15 to 20)
#    0.000    3.000    0.769    2.769    0.000    4.000 
#    0.000    3.846    0.000    4.154    0.000    0.000 
#    0.000    0.000    0.000    0.000    0.000    0.000 
#
# Total GULP energy -644651.211225 kJ/mol
# GULP energy per Si atom -12397.138677 kJ/mol
# Density = 1.651697 g / cm^3
# Si number density = 16.554649 Si / 1000 Ang^3
#
#
#
# Elastic Constant Matrix: (Units=GPa)
#
#
# Indices 1 2 3 4 5 6 
#
# 1 46.6227 43.9033 36.8052 0.0000 0.0000 0.0000
# 2 43.9033 118.1946 56.1634 0.0000 0.0000 0.0000
# 3 36.8052 56.1634 72.3480 0.0000 0.0000 0.0000
# 4 0.0000 0.0000 0.0000 17.5217 0.0000 0.0000
# 5 0.0000 0.0000 0.0000 0.0000 24.6801 0.0000
# 6 0.0000 0.0000 0.0000 0.0000 0.0000 14.7250
#
#
#
# Elastic Compliance Matrix: (Units=1/GPa)
#
#
# Indices 1 2 3 4 5 6 
#
# 1 0.040408 -0.008305 -0.014109 0.000000 0.000000 0.000000
# 2 -0.008305 0.015113 -0.007507 0.000000 0.000000 0.000000
# 3 -0.014109 -0.007507 0.026827 0.000000 0.000000 0.000000
# 4 0.000000 0.000000 0.000000 0.057072 0.000000 0.000000
# 5 0.000000 0.000000 0.000000 0.000000 0.040518 0.000000
# 6 0.000000 0.000000 0.000000 0.000000 0.000000 0.067912
#
#
# Mechanical properties :
#
#
# Convention : Reuss Voigt Hill
#
# Bulk Modulus (GPa) = 44.43384 56.76764 50.60074
# Shear Modulus (GPa) = 15.86327 18.07160 16.96744
#
# Velocity S-wave (km/s) = 3.09890 3.30757 3.20493
# Velocity P-wave (km/s) = 6.30105 6.99659 6.65791
#
# Compressibility (1/GPa) = 0.02250537
#
# Stress axis : x y z
#
# Youngs Moduli (GPa) = 24.74787 66.16991 37.27541
#
# Poissons Ratio (x) = 0.54954 0.52593
# Poissons Ratio (y) = 0.20553 0.27982
# Poissons Ratio (z) = 0.34917 0.49673
#
# Static dielectric constant tensor:
#      x y z
#    x 2.939810 0.000000 0.000000 
#    y 0.000000 3.301350 0.000000 
#    z 0.000000 0.000000 2.909450 
# 
# 
# High freq. dielectric constant tensor:
#      x y z
#    x 1.614910 0.000000 0.000000 
#    y 0.000000 1.640220 0.000000 
#    z 0.000000 0.000000 1.613490 
# 
# From -- ./inp_files/13621.got.cif
#   From: 2010.06.25/outbox.cif.g09.slc.cpg/sg71_7_cif.got.tgz:13621.got - 2010.06.28 04:59:45.
