data_PCOD8286204
_publ_section_title
;
Structure prediction by ZEFSAII (Michael W. Deem and Ramdas Pophale) SiO2 
 PCOD8286204
Probable space group: F D D D
;
_chemical_formula_sum "Si O2"
_cell_formula_units_Z 216
_cell_length_a 31.777312
_cell_length_b 13.582877
_cell_length_c 23.507019
_cell_angle_alpha 90.000000
_cell_angle_beta 90.000000
_cell_angle_gamma 90.000000
_cell_volume 10146.271619
_symmetry_space_group_name_H-M "F D D D"
_symmetry_group_IT_number 70
_space_group.IT_coordinate_system_code '2'
_symmetry_cell_setting 'orthorhombic'
loop_
_space_group_symop_operation_xyz
x,y,z
1/4-x,1/4-y,z
x,1/4-y,1/4-z
1/4-x,y,1/4-z
-x,-y,-z
3/4+x,3/4+y,-z
-x,3/4+y,3/4+z
3/4+x,-y,3/4+z
x,1/2+y,1/2+z
1/4-x,3/4-y,1/2+z
x,3/4-y,3/4-z
1/4-x,1/2+y,3/4-z
-x,1/2-y,1/2-z
3/4+x,1/4+y,1/2-z
-x,1/4+y,1/4+z
3/4+x,1/2-y,1/4+z
1/2+x,y,1/2+z
3/4-x,1/4-y,1/2+z
1/2+x,1/4-y,3/4-z
3/4-x,y,3/4-z
1/2-x,-y,1/2-z
1/4+x,3/4+y,1/2-z
1/2-x,3/4+y,1/4+z
1/4+x,-y,1/4+z
1/2+x,1/2+y,z
3/4-x,3/4-y,z
1/2+x,3/4-y,1/4-z
3/4-x,1/2+y,1/4-z
1/2-x,1/2-y,-z
1/4+x,1/4+y,-z
1/2-x,1/4+y,3/4+z
1/4+x,1/2-y,3/4+z
loop_
_atom_site_type_symbol
_atom_site_label
_atom_site_fract_x
_atom_site_fract_y
_atom_site_fract_z
Si Si1 0.125000 0.125000 0.313964
Si Si2 0.160612 0.497907 0.530478
Si Si3 0.954655 0.981283 0.322976
Si Si4 0.466505 0.995130 0.947678
Si Si5 0.875000 0.375000 0.375000
Si Si6 0.827935 0.517034 0.101504
Si Si7 0.874612 0.044667 0.264383
Si Si8 0.995279 0.940426 0.217511
O O1 0.158592 0.182747 0.274741
O O2 0.099319 0.202361 0.350409
O O3 0.154715 0.558658 0.587155
O O4 0.125636 0.412324 0.524206
O O5 0.205683 0.451103 0.541326
O O6 0.972306 0.869417 0.317533
O O7 0.980126 0.017803 0.266938
O O8 0.964569 0.037124 0.381777
O O9 0.904700 0.992820 0.311046
O O10 0.422353 0.003673 0.980315
O O11 0.504921 0.066697 0.975977
O O12 0.818705 0.625000 0.125000
O O13 0.783326 0.466118 0.086527
O O14 0.859669 0.518989 0.048536
#
# Coordination Sequence:
#
# PCOD8286204 Si02
#       8
#    16  32  32  32   8  32  32  32
#     4  11  24  45  70  94 133 178 227 274 336 400
#     4  10  23  44  63  97 127 171 223 272 330 395
#     4  10  21  37  59  93 128 170 215 269 324 397
#     4  10  21  38  60  91 128 172 215 270 326 395
#     4  10  24  40  68  88 122 172 218 272 318 392
#     4  11  24  44  66  98 128 177 222 278 334 404
#     4  10  21  38  63  91 127 167 222 272 324 393
#     4  10  24  39  63  92 136 166 221 269 338 389
#
# _framework density 21.288608
#
# number of rings (size 3 to 8) (size 9 to 14) (size 15 to 20)
#    0.000    1.778    1.481    1.333   11.407    1.185 
#    0.000    0.741    0.000    0.000    0.000    0.000 
#    0.000    0.000    0.000    0.000    0.000    0.000 
#
# Total GULP energy -668978.922010 kJ/mol
# GULP energy per Si atom -12388.498556 kJ/mol
# Density = 2.124015 g / cm^3
# Si number density = 21.288608 Si / 1000 Ang^3
#
#
#
# Elastic Constant Matrix: (Units=GPa)
#
#
# Indices 1 2 3 4 5 6 
#
# 1 106.6455 38.2061 36.9819 0.0000 0.0000 0.0000
# 2 38.2061 114.7982 39.5467 0.0000 0.0000 0.0000
# 3 36.9819 39.5467 100.7604 0.0000 0.0000 0.0000
# 4 0.0000 0.0000 0.0000 46.1070 0.0000 0.0000
# 5 0.0000 0.0000 0.0000 0.0000 3.3626 0.0000
# 6 0.0000 0.0000 0.0000 0.0000 0.0000 31.4261
#
#
#
# Elastic Compliance Matrix: (Units=1/GPa)
#
#
# Indices 1 2 3 4 5 6 
#
# 1 0.011439 -0.002730 -0.003127 0.000000 0.000000 0.000000
# 2 -0.002730 0.010724 -0.003207 0.000000 0.000000 0.000000
# 3 -0.003127 -0.003207 0.012331 0.000000 0.000000 0.000000
# 4 0.000000 0.000000 0.000000 0.021689 0.000000 0.000000
# 5 0.000000 0.000000 0.000000 0.000000 0.297391 0.000000
# 6 0.000000 0.000000 0.000000 0.000000 0.000000 0.031821
#
#
# Mechanical properties :
#
#
# Convention : Reuss Voigt Hill
#
# Bulk Modulus (GPa) = 61.10109 61.29704 61.19906
# Shear Modulus (GPa) = 12.22556 30.01042 21.11799
#
# Velocity S-wave (km/s) = 2.39901 3.75866 3.15300
# Velocity P-wave (km/s) = 6.03633 6.90598 6.48575
#
# Compressibility (1/GPa) = 0.01636632
#
# Stress axis : x y z
#
# Youngs Moduli (GPa) = 87.41845 93.24628 81.09627
#
# Poissons Ratio (x) = 0.25455 0.25360
# Poissons Ratio (y) = 0.23864 0.26009
# Poissons Ratio (z) = 0.27337 0.29906
#
# Static dielectric constant tensor:
#      x y z
#    x 3.739540 0.000000 0.000000 
#    y 0.000000 4.229110 0.000000 
#    z 0.000000 0.000000 5.169540 
# 
# 
# High freq. dielectric constant tensor:
#      x y z
#    x 1.823560 0.000000 0.000000 
#    y 0.000000 1.843720 0.000000 
#    z 0.000000 0.000000 1.858210 
# 
# From -- ./inp_files/55157.got.cif
#   From: 2010.03.12/outbox.cif.g09.slc.cpg/sg70_28_cif.got.tgz:55157.got - 2010.04.16 13:46:32.
