data_PCOD8286291
_publ_section_title
;
Structure prediction by ZEFSAII (Michael W. Deem and Ramdas Pophale) SiO2 
 PCOD8286291
Probable space group: F D D D
;
_chemical_formula_sum "Si O2"
_cell_formula_units_Z 160
_cell_length_a 9.763894
_cell_length_b 26.979675
_cell_length_c 26.468803
_cell_angle_alpha 90.000000
_cell_angle_beta 90.000000
_cell_angle_gamma 90.000000
_cell_volume 6972.589079
_symmetry_space_group_name_H-M "F D D D"
_symmetry_group_IT_number 70
_space_group.IT_coordinate_system_code '2'
_symmetry_cell_setting 'orthorhombic'
loop_
_space_group_symop_operation_xyz
x,y,z
1/4-x,1/4-y,z
x,1/4-y,1/4-z
1/4-x,y,1/4-z
-x,-y,-z
3/4+x,3/4+y,-z
-x,3/4+y,3/4+z
3/4+x,-y,3/4+z
x,1/2+y,1/2+z
1/4-x,3/4-y,1/2+z
x,3/4-y,3/4-z
1/4-x,1/2+y,3/4-z
-x,1/2-y,1/2-z
3/4+x,1/4+y,1/2-z
-x,1/4+y,1/4+z
3/4+x,1/2-y,1/4+z
1/2+x,y,1/2+z
3/4-x,1/4-y,1/2+z
1/2+x,1/4-y,3/4-z
3/4-x,y,3/4-z
1/2-x,-y,1/2-z
1/4+x,3/4+y,1/2-z
1/2-x,3/4+y,1/4+z
1/4+x,-y,1/4+z
1/2+x,1/2+y,z
3/4-x,3/4-y,z
1/2+x,3/4-y,1/4-z
3/4-x,1/2+y,1/4-z
1/2-x,1/2-y,-z
1/4+x,1/4+y,-z
1/2-x,1/4+y,3/4+z
1/4+x,1/2-y,3/4+z
loop_
_atom_site_type_symbol
_atom_site_label
_atom_site_fract_x
_atom_site_fract_y
_atom_site_fract_z
Si Si1 0.673064 0.275010 0.703928
Si Si2 0.672860 0.274396 0.206762
Si Si3 0.171024 0.504349 0.858597
Si Si4 0.257514 0.314612 0.412595
Si Si5 0.720104 0.370533 0.009773
O O1 0.751039 0.237353 0.740750
O O2 0.763879 0.286187 0.654053
O O3 0.529215 0.249605 0.687430
O O4 0.643584 0.327217 0.731648
O O5 0.780575 0.278955 0.160918
O O6 0.560058 0.231978 0.196371
O O7 0.602924 0.327605 0.208925
O O8 0.128404 0.450458 0.880959
O O9 0.375000 0.333125 0.375000
O O10 0.218113 0.359451 0.449717
O O11 0.875000 0.375000 0.029291
#
# Coordination Sequence:
#
# PCOD8286291 Si02
#       5
#    32  32  32  32  32
#     4  11  23  44  68 102 138 186 239 293 357 446
#     4  11  22  44  69  93 142 186 229 293 366 421
#     4  10  23  44  68 100 140 186 236 285 369 438
#     4  10  21  42  68  97 131 184 234 288 351 426
#     4  12  23  40  68  99 137 178 238 301 355 421
#
# _framework density 22.946999000000002
#
# number of rings (size 3 to 8) (size 9 to 14) (size 15 to 20)
#    0.000    1.200    4.000    2.400    0.000    1.200 
#   21.600    0.000    0.000    0.000    0.000    0.000 
#    0.000    0.000    0.000    0.000    0.000    0.000 
#
# Total GULP energy -496046.154407 kJ/mol
# GULP energy per Si atom -12401.153860 kJ/mol
# Density = 2.289477 g / cm^3
# Si number density = 22.946999 Si / 1000 Ang^3
#
#
#
# Elastic Constant Matrix: (Units=GPa)
#
#
# Indices 1 2 3 4 5 6 
#
# 1 114.6924 55.7405 43.2112 0.0000 0.0000 0.0000
# 2 55.7405 99.0026 41.8951 0.0000 0.0000 0.0000
# 3 43.2112 41.8951 99.2936 0.0000 0.0000 0.0000
# 4 0.0000 0.0000 0.0000 49.0357 0.0000 0.0000
# 5 0.0000 0.0000 0.0000 0.0000 46.3674 0.0000
# 6 0.0000 0.0000 0.0000 0.0000 0.0000 21.4515
#
#
#
# Elastic Compliance Matrix: (Units=1/GPa)
#
#
# Indices 1 2 3 4 5 6 
#
# 1 0.012725 -0.005869 -0.003061 0.000000 0.000000 0.000000
# 2 -0.005869 0.015003 -0.003776 0.000000 0.000000 0.000000
# 3 -0.003061 -0.003776 0.012997 0.000000 0.000000 0.000000
# 4 0.000000 0.000000 0.000000 0.020393 0.000000 0.000000
# 5 0.000000 0.000000 0.000000 0.000000 0.021567 0.000000
# 6 0.000000 0.000000 0.000000 0.000000 0.000000 0.046617
#
#
# Mechanical properties :
#
#
# Convention : Reuss Voigt Hill
#
# Bulk Modulus (GPa) = 65.30990 66.07581 65.69285
# Shear Modulus (GPa) = 31.28565 34.84704 33.06635
#
# Velocity S-wave (km/s) = 3.69641 3.90113 3.80015
# Velocity P-wave (km/s) = 6.83674 7.01065 6.92424
#
# Compressibility (1/GPa) = 0.01531161
#
# Stress axis : x y z
#
# Youngs Moduli (GPa) = 78.58819 66.65359 76.94251
#
# Poissons Ratio (x) = 0.39117 0.23555
# Poissons Ratio (y) = 0.46121 0.29055
# Poissons Ratio (z) = 0.24059 0.25170
#
# Static dielectric constant tensor:
#      x y z
#    x 4.297620 0.000000 0.000000 
#    y 0.000000 3.841100 0.000000 
#    z 0.000000 0.000000 4.419250 
# 
# 
# High freq. dielectric constant tensor:
#      x y z
#    x 1.904340 0.000000 0.000000 
#    y 0.000000 1.877720 0.000000 
#    z 0.000000 0.000000 1.929180 
# 
# From -- ./inp_files/57692.got.cif
#   From: 2010.03.12/outbox.cif.g09.slc.cpg/sg70_29_cif.got.tgz:57692.got - 2010.04.16 13:46:32.
