data_PCOD8286256
_publ_section_title
;
Structure prediction by ZEFSAII (Michael W. Deem and Ramdas Pophale) SiO2 
 PCOD8286256
Probable space group: F D D D
;
_chemical_formula_sum "Si O2"
_cell_formula_units_Z 176
_cell_length_a 14.022741
_cell_length_b 28.015635
_cell_length_c 21.839702
_cell_angle_alpha 90.000000
_cell_angle_beta 90.000000
_cell_angle_gamma 90.000000
_cell_volume 8579.857828
_symmetry_space_group_name_H-M "F D D D"
_symmetry_group_IT_number 70
_space_group.IT_coordinate_system_code '2'
_symmetry_cell_setting 'orthorhombic'
loop_
_space_group_symop_operation_xyz
x,y,z
1/4-x,1/4-y,z
x,1/4-y,1/4-z
1/4-x,y,1/4-z
-x,-y,-z
3/4+x,3/4+y,-z
-x,3/4+y,3/4+z
3/4+x,-y,3/4+z
x,1/2+y,1/2+z
1/4-x,3/4-y,1/2+z
x,3/4-y,3/4-z
1/4-x,1/2+y,3/4-z
-x,1/2-y,1/2-z
3/4+x,1/4+y,1/2-z
-x,1/4+y,1/4+z
3/4+x,1/2-y,1/4+z
1/2+x,y,1/2+z
3/4-x,1/4-y,1/2+z
1/2+x,1/4-y,3/4-z
3/4-x,y,3/4-z
1/2-x,-y,1/2-z
1/4+x,3/4+y,1/2-z
1/2-x,3/4+y,1/4+z
1/4+x,-y,1/4+z
1/2+x,1/2+y,z
3/4-x,3/4-y,z
1/2+x,3/4-y,1/4-z
3/4-x,1/2+y,1/4-z
1/2-x,1/2-y,-z
1/4+x,1/4+y,-z
1/2-x,1/4+y,3/4+z
1/4+x,1/2-y,3/4+z
loop_
_atom_site_type_symbol
_atom_site_label
_atom_site_fract_x
_atom_site_fract_y
_atom_site_fract_z
Si Si1 0.875000 0.375000 0.522869
Si Si2 0.501218 0.695014 0.915420
Si Si3 0.428978 0.961134 0.437781
Si Si4 0.863814 0.529182 0.536345
Si Si5 0.303796 0.704484 0.972045
Si Si6 0.986567 0.379985 0.802769
O O1 0.786441 0.392462 0.564410
O O2 0.847368 0.330790 0.482590
O O3 0.579313 0.735628 0.922406
O O4 0.415211 0.713631 0.959003
O O5 0.484845 0.689202 0.843735
O O6 0.375000 0.954422 0.375000
O O7 0.541832 0.955124 0.426735
O O8 0.396447 0.011451 0.468509
O O9 0.782943 0.570048 0.531036
O O10 0.250000 0.750000 0.000000
O O11 0.294108 0.661875 0.020066
O O12 0.999737 0.375000 0.875000
O O13 0.875000 0.375000 0.784664
#
# Coordination Sequence:
#
# PCOD8286256 Si02
#       6
#    16  32  32  32  32  32
#     4  10  21  40  62  88 127 154 214 252 316 382
#     4  10  23  41  62  91 126 165 209 264 316 389
#     4  10  22  40  63  93 122 169 209 265 324 388
#     4  10  22  41  59  90 128 159 213 267 319 384
#     4  11  23  41  64  91 124 168 211 261 326 379
#     4  11  24  40  62  94 126 167 217 266 322 394
#
# _framework density 20.513159999999999
#
# number of rings (size 3 to 8) (size 9 to 14) (size 15 to 20)
#    0.000    1.636    0.000    3.545    1.273   11.636 
#    9.818    0.000    0.000    0.000    0.000    0.000 
#    0.000    0.000    0.000    0.000    0.000    0.000 
#
# Total GULP energy -545437.278309 kJ/mol
# GULP energy per Si atom -12396.301780 kJ/mol
# Density = 2.046647 g / cm^3
# Si number density = 20.513160 Si / 1000 Ang^3
#
#
#
# Elastic Constant Matrix: (Units=GPa)
#
#
# Indices 1 2 3 4 5 6 
#
# 1 132.4858 42.1840 55.9659 0.0000 0.0000 0.0000
# 2 42.1840 111.0367 51.0700 0.0000 0.0000 0.0000
# 3 55.9659 51.0700 105.7884 0.0000 0.0000 0.0000
# 4 0.0000 0.0000 0.0000 26.1322 0.0000 0.0000
# 5 0.0000 0.0000 0.0000 0.0000 28.3429 0.0000
# 6 0.0000 0.0000 0.0000 0.0000 0.0000 -4.0493
#
#
#
# Elastic Compliance Matrix: (Units=1/GPa)
#
#
# Indices 1 2 3 4 5 6 
#
# 1 0.009979 -0.001752 -0.004433 0.000000 0.000000 0.000000
# 2 -0.001752 0.011884 -0.004810 0.000000 0.000000 0.000000
# 3 -0.004433 -0.004810 0.014120 0.000000 0.000000 0.000000
# 4 0.000000 0.000000 0.000000 0.038267 0.000000 0.000000
# 5 0.000000 0.000000 0.000000 0.000000 0.035282 0.000000
# 6 0.000000 0.000000 0.000000 0.000000 0.000000 -0.246954
#
#
# Mechanical properties :
#
#
# Convention : Reuss Voigt Hill
#
# Bulk Modulus (GPa) = 71.46912 71.97229 71.72070
# Shear Modulus (GPa) = -45.13988 23.42455 -10.85766
#
# Velocity S-wave (km/s) = -4.69607 3.38291 -2.30315
# Velocity P-wave (km/s) = 2.34779 7.10076 5.28833
#
# Compressibility (1/GPa) = 0.01399206
#
# Stress axis : x y z
#
# Youngs Moduli (GPa) = 100.21509 84.14651 70.81973
#
# Poissons Ratio (x) = 0.14742 0.31396
# Poissons Ratio (y) = 0.17557 0.34066
# Poissons Ratio (z) = 0.44428 0.40477
#
# Static dielectric constant tensor:
#      x y z
#    x 1.037780 0.000000 0.000000 
#    y 0.000000 3.949220 0.000000 
#    z 0.000000 0.000000 3.754450 
# 
# 
# High freq. dielectric constant tensor:
#      x y z
#    x 1.817530 0.000000 0.000000 
#    y 0.000000 1.807140 0.000000 
#    z 0.000000 0.000000 1.802740 
# 
# From -- ./inp_files/51213.got.cif
#   From: 2010.03.12/outbox.cif.g09.slc.cpg/sg70_26_cif.got.tgz:51213.got - 2010.04.16 13:46:32.
