data_PCOD8286757
_publ_section_title
;
Structure prediction by ZEFSAII (Michael W. Deem and Ramdas Pophale) SiO2 
 PCOD8286757
Probable space group: F D D D
;
_chemical_formula_sum "Si O2"
_cell_formula_units_Z 112
_cell_length_a 18.449403
_cell_length_b 9.257915
_cell_length_c 25.708026
_cell_angle_alpha 90.000000
_cell_angle_beta 90.000000
_cell_angle_gamma 90.000000
_cell_volume 4391.008088
_symmetry_space_group_name_H-M "F D D D"
_symmetry_group_IT_number 70
_space_group.IT_coordinate_system_code '2'
_symmetry_cell_setting 'orthorhombic'
loop_
_space_group_symop_operation_xyz
x,y,z
1/4-x,1/4-y,z
x,1/4-y,1/4-z
1/4-x,y,1/4-z
-x,-y,-z
3/4+x,3/4+y,-z
-x,3/4+y,3/4+z
3/4+x,-y,3/4+z
x,1/2+y,1/2+z
1/4-x,3/4-y,1/2+z
x,3/4-y,3/4-z
1/4-x,1/2+y,3/4-z
-x,1/2-y,1/2-z
3/4+x,1/4+y,1/2-z
-x,1/4+y,1/4+z
3/4+x,1/2-y,1/4+z
1/2+x,y,1/2+z
3/4-x,1/4-y,1/2+z
1/2+x,1/4-y,3/4-z
3/4-x,y,3/4-z
1/2-x,-y,1/2-z
1/4+x,3/4+y,1/2-z
1/2-x,3/4+y,1/4+z
1/4+x,-y,1/4+z
1/2+x,1/2+y,z
3/4-x,3/4-y,z
1/2+x,3/4-y,1/4-z
3/4-x,1/2+y,1/4-z
1/2-x,1/2-y,-z
1/4+x,1/4+y,-z
1/2-x,1/4+y,3/4+z
1/4+x,1/2-y,3/4+z
loop_
_atom_site_type_symbol
_atom_site_label
_atom_site_fract_x
_atom_site_fract_y
_atom_site_fract_z
Si Si1 0.625000 0.125000 0.312521
Si Si2 0.875000 0.633633 0.375000
Si Si3 0.973838 0.278422 0.144627
Si Si4 0.625000 0.625000 0.265281
Si Si5 0.075843 0.427388 0.017782
O O1 0.695731 0.110873 0.349681
O O2 0.633089 0.263634 0.274579
O O3 0.810428 0.535263 0.351598
O O4 0.845172 0.729415 0.423412
O O5 0.945654 0.125000 0.125000
O O6 0.939947 0.311797 0.200211
O O7 0.584470 0.498410 0.231980
O O8 0.000000 0.500000 0.000000
#
# Coordination Sequence:
#
# PCOD8286757 Si02
#       5
#    16  16  32  16  32
#     4  11  24  51  74 102 160 205 262 337 414 502
#     4  12  29  43  76 112 158 200 278 336 412 506
#     4  11  24  47  75 113 153 210 268 334 422 507
#     4  11  28  49  80 108 162 215 268 345 438 500
#     4  12  28  51  76 115 157 214 275 347 427 508
#
# _framework density 25.506671999999998
#
# number of rings (size 3 to 8) (size 9 to 14) (size 15 to 20)
#    0.000    0.571    5.714    0.429    8.000    1.714 
#    0.000    0.000    0.000    0.000    0.000    0.000 
#    0.000    0.000    0.000    0.000    0.000    0.000 
#
# Total GULP energy -346959.098834 kJ/mol
# GULP energy per Si atom -12391.396387 kJ/mol
# Density = 2.544862 g / cm^3
# Si number density = 25.506672 Si / 1000 Ang^3
#
#
#
# Elastic Constant Matrix: (Units=GPa)
#
#
# Indices 1 2 3 4 5 6 
#
# 1 156.1316 32.4413 50.8531 0.0000 0.0000 0.0000
# 2 32.4413 104.3039 27.8259 0.0000 0.0000 0.0000
# 3 50.8531 27.8259 155.5444 0.0000 0.0000 0.0000
# 4 0.0000 0.0000 0.0000 33.6502 0.0000 0.0000
# 5 0.0000 0.0000 0.0000 0.0000 29.2859 0.0000
# 6 0.0000 0.0000 0.0000 0.0000 0.0000 36.3804
#
#
#
# Elastic Compliance Matrix: (Units=1/GPa)
#
#
# Indices 1 2 3 4 5 6 
#
# 1 0.007462 -0.001754 -0.002126 0.000000 0.000000 0.000000
# 2 -0.001754 0.010480 -0.001301 0.000000 0.000000 0.000000
# 3 -0.002126 -0.001301 0.007357 0.000000 0.000000 0.000000
# 4 0.000000 0.000000 0.000000 0.029718 0.000000 0.000000
# 5 0.000000 0.000000 0.000000 0.000000 0.034146 0.000000
# 6 0.000000 0.000000 0.000000 0.000000 0.000000 0.027487
#
#
# Mechanical properties :
#
#
# Convention : Reuss Voigt Hill
#
# Bulk Modulus (GPa) = 66.94923 70.91340 68.93131
# Shear Modulus (GPa) = 37.88163 40.18727 39.03445
#
# Velocity S-wave (km/s) = 3.85797 3.97364 3.91623
# Velocity P-wave (km/s) = 6.79337 6.99395 6.89439
#
# Compressibility (1/GPa) = 0.01493669
#
# Stress axis : x y z
#
# Youngs Moduli (GPa) = 134.01951 95.41972 135.92794
#
# Poissons Ratio (x) = 0.16733 0.28895
# Poissons Ratio (y) = 0.23502 0.17691
# Poissons Ratio (z) = 0.28489 0.12419
#
# Static dielectric constant tensor:
#      x y z
#    x 4.543130 0.000000 0.000000 
#    y 0.000000 4.477680 0.000000 
#    z 0.000000 0.000000 4.865300 
# 
# 
# High freq. dielectric constant tensor:
#      x y z
#    x 2.021750 0.000000 0.000000 
#    y 0.000000 1.991990 0.000000 
#    z 0.000000 0.000000 2.043400 
# 
# From -- ./inp_files/20276.got.cif
#   From: 2010.03.12/outbox.cif.g09.slc.cpg/sg70_11_cif.got.tgz:20276.got - 2010.04.16 13:46:32.
