data_PCOD8286797
_publ_section_title
;
Structure prediction by ZEFSAII (Michael W. Deem and Ramdas Pophale) SiO2 
 PCOD8286797
Probable space group: F D D D
;
_chemical_formula_sum "Si O2"
_cell_formula_units_Z 192
_cell_length_a 13.108838
_cell_length_b 26.898334
_cell_length_c 27.061218
_cell_angle_alpha 90.000000
_cell_angle_beta 90.000000
_cell_angle_gamma 90.000000
_cell_volume 9541.945206
_symmetry_space_group_name_H-M "F D D D"
_symmetry_group_IT_number 70
_space_group.IT_coordinate_system_code '2'
_symmetry_cell_setting 'orthorhombic'
loop_
_space_group_symop_operation_xyz
x,y,z
1/4-x,1/4-y,z
x,1/4-y,1/4-z
1/4-x,y,1/4-z
-x,-y,-z
3/4+x,3/4+y,-z
-x,3/4+y,3/4+z
3/4+x,-y,3/4+z
x,1/2+y,1/2+z
1/4-x,3/4-y,1/2+z
x,3/4-y,3/4-z
1/4-x,1/2+y,3/4-z
-x,1/2-y,1/2-z
3/4+x,1/4+y,1/2-z
-x,1/4+y,1/4+z
3/4+x,1/2-y,1/4+z
1/2+x,y,1/2+z
3/4-x,1/4-y,1/2+z
1/2+x,1/4-y,3/4-z
3/4-x,y,3/4-z
1/2-x,-y,1/2-z
1/4+x,3/4+y,1/2-z
1/2-x,3/4+y,1/4+z
1/4+x,-y,1/4+z
1/2+x,1/2+y,z
3/4-x,3/4-y,z
1/2+x,3/4-y,1/4-z
3/4-x,1/2+y,1/4-z
1/2-x,1/2-y,-z
1/4+x,1/4+y,-z
1/2-x,1/4+y,3/4+z
1/4+x,1/2-y,3/4+z
loop_
_atom_site_type_symbol
_atom_site_label
_atom_site_fract_x
_atom_site_fract_y
_atom_site_fract_z
Si Si1 0.125000 0.291602 0.125000
Si Si2 0.755212 0.378033 0.585079
Si Si3 0.754231 0.291545 0.083400
Si Si4 0.624469 0.917490 0.251808
Si Si5 0.625000 0.544621 0.625000
Si Si6 0.284642 0.908301 0.970059
Si Si7 0.535379 0.239240 0.948794
O O1 0.208856 0.324648 0.097287
O O2 0.183696 0.257879 0.165255
O O3 0.875000 0.375000 0.579674
O O4 0.721691 0.416070 0.628089
O O5 0.712975 0.395992 0.532931
O O6 0.710756 0.238302 0.098791
O O7 0.876294 0.288858 0.081596
O O8 0.710272 0.303744 0.029542
O O9 0.680258 0.873576 0.281996
O O10 0.570199 0.955023 0.289384
O O11 0.682840 0.578570 0.585418
O O12 0.375000 0.875000 0.994653
O O13 0.263372 0.957992 0.001486
#
# Coordination Sequence:
#
# PCOD8286797 Si02
#       7
#    16  32  32  32  16  32  32
#     4  12  23  40  64  95 137 172 224 280 333 406
#     4  12  22  38  65  99 129 172 228 275 327 404
#     4  12  20  37  65  95 135 170 211 282 335 405
#     4  12  23  41  64  95 137 174 220 277 341 405
#     4  12  24  40  60 101 138 174 219 270 349 417
#     4  12  23  38  63  96 135 172 217 279 345 404
#     4  12  24  40  64  98 131 174 226 275 342 403
#
# _framework density 20.121683000000001
#
# number of rings (size 3 to 8) (size 9 to 14) (size 15 to 20)
#    0.000    0.000   10.000    1.750    0.000    0.000 
#    0.000    2.500    0.000    0.000    0.000    0.000 
#    0.000    0.000    0.000    0.000    0.000    0.000 
#
# Total GULP energy -595445.937098 kJ/mol
# GULP energy per Si atom -12405.123690 kJ/mol
# Density = 2.007588 g / cm^3
# Si number density = 20.121683 Si / 1000 Ang^3
#
#
#
# Elastic Constant Matrix: (Units=GPa)
#
#
# Indices 1 2 3 4 5 6 
#
# 1 131.5909 44.7716 56.7165 0.0000 0.0000 0.0000
# 2 44.7716 93.4077 46.4946 0.0000 0.0000 0.0000
# 3 56.7165 46.4946 111.9006 0.0000 0.0000 0.0000
# 4 0.0000 0.0000 0.0000 19.9116 0.0000 0.0000
# 5 0.0000 0.0000 0.0000 0.0000 41.0880 0.0000
# 6 0.0000 0.0000 0.0000 0.0000 0.0000 36.2995
#
#
#
# Elastic Compliance Matrix: (Units=1/GPa)
#
#
# Indices 1 2 3 4 5 6 
#
# 1 0.010333 -0.002958 -0.004009 0.000000 0.000000 0.000000
# 2 -0.002958 0.014344 -0.004461 0.000000 0.000000 0.000000
# 3 -0.004009 -0.004461 0.012822 0.000000 0.000000 0.000000
# 4 0.000000 0.000000 0.000000 0.050222 0.000000 0.000000
# 5 0.000000 0.000000 0.000000 0.000000 0.024338 0.000000
# 6 0.000000 0.000000 0.000000 0.000000 0.000000 0.027549
#
#
# Mechanical properties :
#
#
# Convention : Reuss Voigt Hill
#
# Bulk Modulus (GPa) = 68.28304 70.31829 69.30067
# Shear Modulus (GPa) = 29.87879 32.05424 30.96652
#
# Velocity S-wave (km/s) = 3.85763 3.99560 3.92722
# Velocity P-wave (km/s) = 7.33829 7.50392 7.42156
#
# Compressibility (1/GPa) = 0.01464492
#
# Stress axis : x y z
#
# Youngs Moduli (GPa) = 96.77470 69.71674 77.99311
#
# Poissons Ratio (x) = 0.20619 0.31264
# Poissons Ratio (y) = 0.28622 0.34791
# Poissons Ratio (z) = 0.38792 0.31099
#
# Static dielectric constant tensor:
#      x y z
#    x 3.782090 0.000000 0.000000 
#    y 0.000000 3.659660 0.000000 
#    z 0.000000 0.000000 3.588310 
# 
# 
# High freq. dielectric constant tensor:
#      x y z
#    x 1.786620 0.000000 0.000000 
#    y 0.000000 1.779060 0.000000 
#    z 0.000000 0.000000 1.776390 
# 
# From -- ./inp_files/57830.got.cif
#   From: 2010.03.12/outbox.cif.g09.slc.cpg/sg70_29_cif.got.tgz:57830.got - 2010.04.16 13:46:32.
