data_PCOD8286731
_publ_section_title
;
Structure prediction by ZEFSAII (Michael W. Deem and Ramdas Pophale) SiO2 
 PCOD8286731
Probable space group: F D D D
;
_chemical_formula_sum "Si O2"
_cell_formula_units_Z 128
_cell_length_a 17.085017
_cell_length_b 22.130248
_cell_length_c 15.009680
_cell_angle_alpha 90.000000
_cell_angle_beta 90.000000
_cell_angle_gamma 90.000000
_cell_volume 5675.094915
_symmetry_space_group_name_H-M "F D D D"
_symmetry_group_IT_number 70
_space_group.IT_coordinate_system_code '2'
_symmetry_cell_setting 'orthorhombic'
loop_
_space_group_symop_operation_xyz
x,y,z
1/4-x,1/4-y,z
x,1/4-y,1/4-z
1/4-x,y,1/4-z
-x,-y,-z
3/4+x,3/4+y,-z
-x,3/4+y,3/4+z
3/4+x,-y,3/4+z
x,1/2+y,1/2+z
1/4-x,3/4-y,1/2+z
x,3/4-y,3/4-z
1/4-x,1/2+y,3/4-z
-x,1/2-y,1/2-z
3/4+x,1/4+y,1/2-z
-x,1/4+y,1/4+z
3/4+x,1/2-y,1/4+z
1/2+x,y,1/2+z
3/4-x,1/4-y,1/2+z
1/2+x,1/4-y,3/4-z
3/4-x,y,3/4-z
1/2-x,-y,1/2-z
1/4+x,3/4+y,1/2-z
1/2-x,3/4+y,1/4+z
1/4+x,-y,1/4+z
1/2+x,1/2+y,z
3/4-x,3/4-y,z
1/2+x,3/4-y,1/4-z
3/4-x,1/2+y,1/4-z
1/2-x,1/2-y,-z
1/4+x,1/4+y,-z
1/2-x,1/4+y,3/4+z
1/4+x,1/2-y,3/4+z
loop_
_atom_site_type_symbol
_atom_site_label
_atom_site_fract_x
_atom_site_fract_y
_atom_site_fract_z
Si Si1 0.375000 0.375000 0.018580
Si Si2 0.375000 0.974778 0.375000
Si Si3 0.500643 0.569838 0.850577
Si Si4 0.884106 0.774773 0.274169
Si Si5 0.962769 0.592430 0.034059
O O1 0.449956 0.392925 0.077063
O O2 0.396598 0.316835 0.959373
O O3 0.450862 0.016177 0.396053
O O4 0.553297 0.543736 0.770375
O O5 0.440404 0.615239 0.800289
O O6 0.875000 0.751884 0.375000
O O7 0.916399 0.719976 0.215078
O O8 0.944089 0.830805 0.274750
O O9 0.940343 0.625000 0.125000
#
# Coordination Sequence:
#
# PCOD8286731 Si02
#       5
#    16  16  32  32  32
#     4  11  26  52  65 100 140 190 229 298 354 417
#     4  11  30  46  72 100 138 186 247 282 362 430
#     4  12  25  45  74  98 143 186 233 292 350 425
#     4  11  24  42  69 106 142 183 227 292 351 414
#     4  11  24  41  69 107 140 179 233 286 354 413
#
# _framework density 22.554689
#
# number of rings (size 3 to 8) (size 9 to 14) (size 15 to 20)
#    0.000    0.750    5.000    0.750    8.750    0.000 
#    4.500    0.000    0.000    0.000    0.000    0.000 
#    0.000    0.000    0.000    0.000    0.000    0.000 
#
# Total GULP energy -396881.447734 kJ/mol
# GULP energy per Si atom -12402.545242 kJ/mol
# Density = 2.250335 g / cm^3
# Si number density = 22.554689 Si / 1000 Ang^3
#
#
#
# Elastic Constant Matrix: (Units=GPa)
#
#
# Indices 1 2 3 4 5 6 
#
# 1 60.6758 35.9316 29.8501 0.0000 0.0000 0.0000
# 2 35.9316 117.3094 62.6997 0.0000 0.0000 0.0000
# 3 29.8501 62.6997 139.8777 0.0000 0.0000 0.0000
# 4 0.0000 0.0000 0.0000 43.7013 0.0000 0.0000
# 5 0.0000 0.0000 0.0000 0.0000 17.2877 0.0000
# 6 0.0000 0.0000 0.0000 0.0000 0.0000 35.4460
#
#
#
# Elastic Compliance Matrix: (Units=1/GPa)
#
#
# Indices 1 2 3 4 5 6 
#
# 1 0.020574 -0.005201 -0.002059 0.000000 0.000000 0.000000
# 2 -0.005201 0.012525 -0.004504 0.000000 0.000000 0.000000
# 3 -0.002059 -0.004504 0.009608 0.000000 0.000000 0.000000
# 4 0.000000 0.000000 0.000000 0.022883 0.000000 0.000000
# 5 0.000000 0.000000 0.000000 0.000000 0.057845 0.000000
# 6 0.000000 0.000000 0.000000 0.000000 0.000000 0.028212
#
#
# Mechanical properties :
#
#
# Convention : Reuss Voigt Hill
#
# Bulk Modulus (GPa) = 52.14478 63.86951 58.00714
# Shear Modulus (GPa) = 27.53787 31.91242 29.72514
#
# Velocity S-wave (km/s) = 3.49798 3.76558 3.63425
# Velocity P-wave (km/s) = 6.28363 6.87643 6.58670
#
# Compressibility (1/GPa) = 0.01917738
#
# Stress axis : x y z
#
# Youngs Moduli (GPa) = 48.60457 79.83957 104.08442
#
# Poissons Ratio (x) = 0.41527 0.21432
# Poissons Ratio (y) = 0.25281 0.46884
# Poissons Ratio (z) = 0.10008 0.35963
#
# Static dielectric constant tensor:
#      x y z
#    x 3.839150 0.000000 0.000000 
#    y 0.000000 4.205330 0.000000 
#    z 0.000000 0.000000 4.034340 
# 
# 
# High freq. dielectric constant tensor:
#      x y z
#    x 1.867960 0.000000 0.000000 
#    y 0.000000 1.911940 0.000000 
#    z 0.000000 0.000000 1.894890 
# 
# From -- ./inp_files/27303.got.cif
#   From: 2010.03.12/outbox.cif.g09.slc.cpg/sg70_14_cif.got.tgz:27303.got - 2010.04.16 13:46:32.
