data_PCOD8286617
_publ_section_title
;
Structure prediction by ZEFSAII (Michael W. Deem and Ramdas Pophale) SiO2 
 PCOD8286617
Probable space group: F D D D
;
_chemical_formula_sum "Si O2"
_cell_formula_units_Z 176
_cell_length_a 23.579096
_cell_length_b 20.544890
_cell_length_c 15.706308
_cell_angle_alpha 90.000000
_cell_angle_beta 90.000000
_cell_angle_gamma 90.000000
_cell_volume 7608.605742
_symmetry_space_group_name_H-M "F D D D"
_symmetry_group_IT_number 70
_space_group.IT_coordinate_system_code '2'
_symmetry_cell_setting 'orthorhombic'
loop_
_space_group_symop_operation_xyz
x,y,z
1/4-x,1/4-y,z
x,1/4-y,1/4-z
1/4-x,y,1/4-z
-x,-y,-z
3/4+x,3/4+y,-z
-x,3/4+y,3/4+z
3/4+x,-y,3/4+z
x,1/2+y,1/2+z
1/4-x,3/4-y,1/2+z
x,3/4-y,3/4-z
1/4-x,1/2+y,3/4-z
-x,1/2-y,1/2-z
3/4+x,1/4+y,1/2-z
-x,1/4+y,1/4+z
3/4+x,1/2-y,1/4+z
1/2+x,y,1/2+z
3/4-x,1/4-y,1/2+z
1/2+x,1/4-y,3/4-z
3/4-x,y,3/4-z
1/2-x,-y,1/2-z
1/4+x,3/4+y,1/2-z
1/2-x,3/4+y,1/4+z
1/4+x,-y,1/4+z
1/2+x,1/2+y,z
3/4-x,3/4-y,z
1/2+x,3/4-y,1/4-z
3/4-x,1/2+y,1/4-z
1/2-x,1/2-y,-z
1/4+x,1/4+y,-z
1/2-x,1/4+y,3/4+z
1/4+x,1/2-y,3/4+z
loop_
_atom_site_type_symbol
_atom_site_label
_atom_site_fract_x
_atom_site_fract_y
_atom_site_fract_z
Si Si1 0.361104 0.948748 0.539434
Si Si2 0.708308 0.079038 0.194929
Si Si3 0.059572 0.368453 0.698254
Si Si4 0.234381 0.474319 0.066707
Si Si5 0.875000 0.235114 0.375000
Si Si6 0.121315 0.759919 0.962552
O O1 0.375000 0.875000 0.566132
O O2 0.293258 0.952855 0.525322
O O3 0.394855 0.967685 0.452348
O O4 0.379940 0.000960 0.610964
O O5 0.679090 0.125000 0.125000
O O6 0.750418 0.122916 0.251400
O O7 0.745285 0.023367 0.146541
O O8 0.659452 0.048498 0.251346
O O9 0.050813 0.335142 0.607223
O O10 0.078295 0.441044 0.673368
O O11 0.105098 0.330146 0.757388
O O12 0.192744 0.502312 0.994525
#
# Coordination Sequence:
#
# PCOD8286617 Si02
#       6
#    32  32  32  32  16  32
#     4  12  28  49  71 100 148 197 260 303 357 431
#     4  11  21  36  71 113 151 181 226 301 390 450
#     4  11  20  43  73 105 149 181 238 299 372 451
#     4  11  22  44  71 108 144 187 236 306 379 433
#     4  12  27  48  72  96 145 204 248 302 354 442
#     4  11  23  43  73 108 145 185 237 314 374 444
#
# _framework density 23.131702000000001
#
# number of rings (size 3 to 8) (size 9 to 14) (size 15 to 20)
#    0.000    0.727    5.455    4.091    2.545    2.182 
#    0.000    5.455    0.000    0.000    0.000    0.000 
#    0.000    0.000    0.000    0.000    0.000    0.000 
#
# Total GULP energy -545516.120351 kJ/mol
# GULP energy per Si atom -12398.093644 kJ/mol
# Density = 2.307905 g / cm^3
# Si number density = 23.131702 Si / 1000 Ang^3
#
#
#
# Elastic Constant Matrix: (Units=GPa)
#
#
# Indices 1 2 3 4 5 6 
#
# 1 118.1651 22.7109 44.7667 0.0000 0.0000 0.0000
# 2 22.7109 66.8829 32.2339 0.0000 0.0000 0.0000
# 3 44.7667 32.2339 150.1669 0.0000 0.0000 0.0000
# 4 0.0000 0.0000 0.0000 37.0417 0.0000 0.0000
# 5 0.0000 0.0000 0.0000 0.0000 24.9948 0.0000
# 6 0.0000 0.0000 0.0000 0.0000 0.0000 13.9870
#
#
#
# Elastic Compliance Matrix: (Units=1/GPa)
#
#
# Indices 1 2 3 4 5 6 
#
# 1 0.009808 -0.002143 -0.002464 0.000000 0.000000 0.000000
# 2 -0.002143 0.017145 -0.003041 0.000000 0.000000 0.000000
# 3 -0.002464 -0.003041 0.008047 0.000000 0.000000 0.000000
# 4 0.000000 0.000000 0.000000 0.026997 0.000000 0.000000
# 5 0.000000 0.000000 0.000000 0.000000 0.040008 0.000000
# 6 0.000000 0.000000 0.000000 0.000000 0.000000 0.071495
#
#
# Mechanical properties :
#
#
# Convention : Reuss Voigt Hill
#
# Bulk Modulus (GPa) = 50.75343 59.40422 55.07882
# Shear Modulus (GPa) = 25.59326 30.90491 28.24909
#
# Velocity S-wave (km/s) = 3.32989 3.65916 3.49840
# Velocity P-wave (km/s) = 6.06407 6.60221 6.33885
#
# Compressibility (1/GPa) = 0.01970310
#
# Stress axis : x y z
#
# Youngs Moduli (GPa) = 101.95696 58.32619 124.27572
#
# Poissons Ratio (x) = 0.12499 0.30620
# Poissons Ratio (y) = 0.21849 0.37797
# Poissons Ratio (z) = 0.25121 0.17739
#
# Static dielectric constant tensor:
#      x y z
#    x 3.883960 0.000000 0.000000 
#    y 0.000000 4.158100 0.000000 
#    z 0.000000 0.000000 4.257520 
# 
# 
# High freq. dielectric constant tensor:
#      x y z
#    x 1.897590 0.000000 0.000000 
#    y 0.000000 1.910010 0.000000 
#    z 0.000000 0.000000 1.914770 
# 
# From -- ./inp_files/30007.got.cif
#   From: 2010.03.12/outbox.cif.g09.slc.cpg/sg70_16_cif.got.tgz:30007.got - 2010.04.16 13:46:32.
