data_PCOD8286007
_publ_section_title
;
Structure prediction by ZEFSAII (Michael W. Deem and Ramdas Pophale) SiO2 
 PCOD8286007
Probable space group: F D D D
;
_chemical_formula_sum "Si O2"
_cell_formula_units_Z 112
_cell_length_a 18.731030
_cell_length_b 30.770626
_cell_length_c 10.288808
_cell_angle_alpha 90.000000
_cell_angle_beta 90.000000
_cell_angle_gamma 90.000000
_cell_volume 5930.114160
_symmetry_space_group_name_H-M "F D D D"
_symmetry_group_IT_number 70
_space_group.IT_coordinate_system_code '2'
_symmetry_cell_setting 'orthorhombic'
loop_
_space_group_symop_operation_xyz
x,y,z
1/4-x,1/4-y,z
x,1/4-y,1/4-z
1/4-x,y,1/4-z
-x,-y,-z
3/4+x,3/4+y,-z
-x,3/4+y,3/4+z
3/4+x,-y,3/4+z
x,1/2+y,1/2+z
1/4-x,3/4-y,1/2+z
x,3/4-y,3/4-z
1/4-x,1/2+y,3/4-z
-x,1/2-y,1/2-z
3/4+x,1/4+y,1/2-z
-x,1/4+y,1/4+z
3/4+x,1/2-y,1/4+z
1/2+x,y,1/2+z
3/4-x,1/4-y,1/2+z
1/2+x,1/4-y,3/4-z
3/4-x,y,3/4-z
1/2-x,-y,1/2-z
1/4+x,3/4+y,1/2-z
1/2-x,3/4+y,1/4+z
1/4+x,-y,1/4+z
1/2+x,1/2+y,z
3/4-x,3/4-y,z
1/2+x,3/4-y,1/4-z
3/4-x,1/2+y,1/4-z
1/2-x,1/2-y,-z
1/4+x,1/4+y,-z
1/2-x,1/4+y,3/4+z
1/4+x,1/2-y,3/4+z
loop_
_atom_site_type_symbol
_atom_site_label
_atom_site_fract_x
_atom_site_fract_y
_atom_site_fract_z
Si Si1 0.513291 0.123496 0.974976
Si Si2 0.585005 0.492607 0.999093
Si Si3 0.125000 0.840399 0.625000
Si Si4 0.376300 0.302930 0.223961
O O1 0.440073 0.127258 0.898411
O O2 0.550233 0.077781 0.939882
O O3 0.562513 0.164412 0.939458
O O4 0.495784 0.125000 0.125000
O O5 0.619178 0.510927 0.866675
O O6 0.625000 0.514627 0.125000
O O7 0.500000 0.500000 0.000000
O O8 0.604233 0.441074 0.003042
O O9 0.375000 0.288723 0.375000
#
# Coordination Sequence:
#
# PCOD8286007 Si02
#       4
#    32  32  16  32
#     4   9  18  35  56  81 114 157 201 250 291 361
#     4  10  20  37  60  87 124 154 191 255 319 357
#     4  10  20  36  58  81 130 148 200 252 315 338
#     4   9  17  36  63  84 108 157 209 240 298 369
#
# _framework density 18.886652000000002
#
# number of rings (size 3 to 8) (size 9 to 14) (size 15 to 20)
#    0.857    1.714    2.857    1.714    0.000    0.000 
#    5.143   15.714    0.000    0.000    0.000    0.000 
#    0.000    0.000    0.000    0.000    0.000    0.000 
#
# Total GULP energy -346952.249736 kJ/mol
# GULP energy per Si atom -12391.151776 kJ/mol
# Density = 1.884367 g / cm^3
# Si number density = 18.886652 Si / 1000 Ang^3
#
#
#
# Elastic Constant Matrix: (Units=GPa)
#
#
# Indices 1 2 3 4 5 6 
#
# 1 161.4729 54.7417 67.2819 0.0000 0.0000 0.0000
# 2 54.7417 59.2652 39.5192 0.0000 0.0000 0.0000
# 3 67.2819 39.5192 83.4155 -0.0001 0.0001 0.0000
# 4 0.0000 0.0000 -0.0001 281.3895 0.0001 0.0000
# 5 0.0000 0.0000 0.0001 0.0001 29.1185 0.0000
# 6 0.0000 0.0000 0.0000 0.0000 0.0000 24.4468
#
#
#
# Elastic Compliance Matrix: (Units=1/GPa)
#
#
# Indices 1 2 3 4 5 6 
#
# 1 0.010604 -0.005980 -0.005719 0.000000 0.000000 0.000000
# 2 -0.005980 0.028038 -0.008460 0.000000 0.000000 0.000000
# 3 -0.005719 -0.008460 0.020609 0.000000 0.000000 0.000000
# 4 0.000000 0.000000 0.000000 0.003554 0.000000 0.000000
# 5 0.000000 0.000000 0.000000 0.000000 0.034342 0.000000
# 6 0.000000 0.000000 0.000000 0.000000 0.000000 0.040905
#
#
# Mechanical properties :
#
#
# Convention : Reuss Voigt Hill
#
# Bulk Modulus (GPa) = 52.82057 69.69324 61.25691
# Shear Modulus (GPa) = 27.07343 76.49834 51.78588
#
# Velocity S-wave (km/s) = 3.79023 6.37117 5.24203
# Velocity P-wave (km/s) = 6.86894 9.54481 8.31522
#
# Compressibility (1/GPa) = 0.01893202
#
# Stress axis : x y z
#
# Youngs Moduli (GPa) = 94.30771 35.66527 48.52162
#
# Poissons Ratio (x) = 0.21329 0.27752
# Poissons Ratio (y) = 0.56400 0.41049
# Poissons Ratio (z) = 0.53938 0.30172
#
# Static dielectric constant tensor:
#      x y z
#    x 3.632620 0.000000 0.000000 
#    y 0.000000 3.231270 0.000000 
#    z 0.000000 0.000000 3.244860 
# 
# 
# High freq. dielectric constant tensor:
#      x y z
#    x 1.745980 0.000000 0.000000 
#    y 0.000000 1.708800 0.000000 
#    z 0.000000 0.000000 1.715140 
# 
# From -- ./inp_files/16302.got.cif
#   From: 2010.03.12/outbox.cif.g09.slc.cpg/sg70_9_cif.got.tgz:16302.got - 2010.04.16 13:46:32.
