data_PCOD8286089
_publ_section_title
;
Structure prediction by ZEFSAII (Michael W. Deem and Ramdas Pophale) SiO2 
 PCOD8286089
Probable space group: F D D D
;
_chemical_formula_sum "Si O2"
_cell_formula_units_Z 160
_cell_length_a 20.288396
_cell_length_b 18.471555
_cell_length_c 21.102323
_cell_angle_alpha 90.000000
_cell_angle_beta 90.000000
_cell_angle_gamma 90.000000
_cell_volume 7908.269060
_symmetry_space_group_name_H-M "F D D D"
_symmetry_group_IT_number 70
_space_group.IT_coordinate_system_code '2'
_symmetry_cell_setting 'orthorhombic'
loop_
_space_group_symop_operation_xyz
x,y,z
1/4-x,1/4-y,z
x,1/4-y,1/4-z
1/4-x,y,1/4-z
-x,-y,-z
3/4+x,3/4+y,-z
-x,3/4+y,3/4+z
3/4+x,-y,3/4+z
x,1/2+y,1/2+z
1/4-x,3/4-y,1/2+z
x,3/4-y,3/4-z
1/4-x,1/2+y,3/4-z
-x,1/2-y,1/2-z
3/4+x,1/4+y,1/2-z
-x,1/4+y,1/4+z
3/4+x,1/2-y,1/4+z
1/2+x,y,1/2+z
3/4-x,1/4-y,1/2+z
1/2+x,1/4-y,3/4-z
3/4-x,y,3/4-z
1/2-x,-y,1/2-z
1/4+x,3/4+y,1/2-z
1/2-x,3/4+y,1/4+z
1/4+x,-y,1/4+z
1/2+x,1/2+y,z
3/4-x,3/4-y,z
1/2+x,3/4-y,1/4-z
3/4-x,1/2+y,1/4-z
1/2-x,1/2-y,-z
1/4+x,1/4+y,-z
1/2-x,1/4+y,3/4+z
1/4+x,1/2-y,3/4+z
loop_
_atom_site_type_symbol
_atom_site_label
_atom_site_fract_x
_atom_site_fract_y
_atom_site_fract_z
Si Si1 0.711499 0.907194 0.054675
Si Si2 0.710010 0.298899 0.451592
Si Si3 0.625000 0.739267 0.625000
Si Si4 0.231210 0.125000 0.625000
Si Si5 0.060066 0.275523 0.962133
Si Si6 0.051957 0.983237 0.139798
O O1 0.710773 0.842265 0.104519
O O2 0.649484 0.960374 0.066950
O O3 0.778815 0.951535 0.064491
O O4 0.706812 0.879277 0.981879
O O5 0.750000 0.250000 0.500000
O O6 0.636286 0.269624 0.443863
O O7 0.748752 0.293481 0.384490
O O8 0.684827 0.689811 0.598770
O O9 0.277386 0.096655 0.568515
O O10 0.045314 0.281392 0.036343
O O11 0.125000 0.013034 0.125000
#
# Coordination Sequence:
#
# PCOD8286089 Si02
#       6
#    32  32  16  16  32  32
#     4  10  20  38  66  85 123 166 208 256 309 385
#     4  10  21  39  59  88 124 157 214 259 303 379
#     4   9  16  40  62  88 114 167 202 242 332 371
#     4   9  22  36  62  94 129 156 210 260 311 384
#     4  11  22  40  63  93 129 160 208 267 311 374
#     4  11  21  41  63  86 121 170 208 254 322 367
#
# _framework density 20.231987
#
# number of rings (size 3 to 8) (size 9 to 14) (size 15 to 20)
#    0.000    1.800    5.000    0.000    0.000    5.600 
#    0.000   18.000    0.000    0.000    0.000    0.000 
#    0.000    0.000    0.000    0.000    0.000    0.000 
#
# Total GULP energy -495819.825510 kJ/mol
# GULP energy per Si atom -12395.495638 kJ/mol
# Density = 2.018594 g / cm^3
# Si number density = 20.231987 Si / 1000 Ang^3
#
#
#
# Elastic Constant Matrix: (Units=GPa)
#
#
# Indices 1 2 3 4 5 6 
#
# 1 182.3972 66.0692 66.1280 0.0000 0.0000 0.0000
# 2 66.0692 98.1734 42.3123 0.0000 0.0000 0.0000
# 3 66.1280 42.3123 125.8337 0.0000 0.0000 0.0000
# 4 0.0000 0.0000 0.0000 32.1357 0.0000 0.0000
# 5 0.0000 0.0000 0.0000 0.0000 36.4678 0.0000
# 6 0.0000 0.0000 0.0000 0.0000 0.0000 13.2491
#
#
#
# Elastic Compliance Matrix: (Units=1/GPa)
#
#
# Indices 1 2 3 4 5 6 
#
# 1 0.008016 -0.004185 -0.002805 0.000000 0.000000 0.000000
# 2 -0.004185 0.014098 -0.002541 0.000000 0.000000 0.000000
# 3 -0.002805 -0.002541 0.010275 0.000000 0.000000 0.000000
# 4 0.000000 0.000000 0.000000 0.031118 0.000000 0.000000
# 5 0.000000 0.000000 0.000000 0.000000 0.027421 0.000000
# 6 0.000000 0.000000 0.000000 0.000000 0.000000 0.075477
#
#
# Mechanical properties :
#
#
# Convention : Reuss Voigt Hill
#
# Bulk Modulus (GPa) = 75.03996 83.93590 79.48793
# Shear Modulus (GPa) = 26.32823 31.83017 29.07920
#
# Velocity S-wave (km/s) = 3.61129 3.97074 3.79527
# Velocity P-wave (km/s) = 7.38640 7.91196 7.65369
#
# Compressibility (1/GPa) = 0.01332623
#
# Stress axis : x y z
#
# Youngs Moduli (GPa) = 124.75764 70.93234 97.31915
#
# Poissons Ratio (x) = 0.29688 0.27297
# Poissons Ratio (y) = 0.52216 0.24729
# Poissons Ratio (z) = 0.34994 0.18024
#
# Static dielectric constant tensor:
#      x y z
#    x 4.022510 0.000000 0.000000 
#    y 0.000000 4.054230 0.000000 
#    z 0.000000 0.000000 3.902320 
# 
# 
# High freq. dielectric constant tensor:
#      x y z
#    x 1.801240 0.000000 0.000000 
#    y 0.000000 1.795200 0.000000 
#    z 0.000000 0.000000 1.774010 
# 
# From -- ./inp_files/44757.got.cif
#   From: 2010.03.12/outbox.cif.g09.slc.cpg/sg70_23_cif.got.tgz:44757.got - 2010.04.16 13:46:32.
