data_PCOD8286809
_publ_section_title
;
Structure prediction by ZEFSAII (Michael W. Deem and Ramdas Pophale) SiO2 
 PCOD8286809
Probable space group: F D D D
;
_chemical_formula_sum "Si O2"
_cell_formula_units_Z 160
_cell_length_a 14.534108
_cell_length_b 19.500876
_cell_length_c 26.504980
_cell_angle_alpha 90.000000
_cell_angle_beta 90.000000
_cell_angle_gamma 90.000000
_cell_volume 7512.249174
_symmetry_space_group_name_H-M "F D D D"
_symmetry_group_IT_number 70
_space_group.IT_coordinate_system_code '2'
_symmetry_cell_setting 'orthorhombic'
loop_
_space_group_symop_operation_xyz
x,y,z
1/4-x,1/4-y,z
x,1/4-y,1/4-z
1/4-x,y,1/4-z
-x,-y,-z
3/4+x,3/4+y,-z
-x,3/4+y,3/4+z
3/4+x,-y,3/4+z
x,1/2+y,1/2+z
1/4-x,3/4-y,1/2+z
x,3/4-y,3/4-z
1/4-x,1/2+y,3/4-z
-x,1/2-y,1/2-z
3/4+x,1/4+y,1/2-z
-x,1/4+y,1/4+z
3/4+x,1/2-y,1/4+z
1/2+x,y,1/2+z
3/4-x,1/4-y,1/2+z
1/2+x,1/4-y,3/4-z
3/4-x,y,3/4-z
1/2-x,-y,1/2-z
1/4+x,3/4+y,1/2-z
1/2-x,3/4+y,1/4+z
1/4+x,-y,1/4+z
1/2+x,1/2+y,z
3/4-x,3/4-y,z
1/2+x,3/4-y,1/4-z
3/4-x,1/2+y,1/4-z
1/2-x,1/2-y,-z
1/4+x,1/4+y,-z
1/2-x,1/4+y,3/4+z
1/4+x,1/2-y,3/4+z
loop_
_atom_site_type_symbol
_atom_site_label
_atom_site_fract_x
_atom_site_fract_y
_atom_site_fract_z
Si Si1 0.307192 0.701663 0.141082
Si Si2 0.690104 0.896821 0.676392
Si Si3 0.375000 0.875000 0.229835
Si Si4 0.560261 0.559009 0.843329
Si Si5 0.625000 0.271137 0.125000
Si Si6 0.308292 0.516844 0.992342
O O1 0.331781 0.625000 0.125000
O O2 0.390719 0.749589 0.124608
O O3 0.213129 0.724131 0.112816
O O4 0.293821 0.708097 0.200843
O O5 0.796256 0.898490 0.692124
O O6 0.707550 0.924541 0.618207
O O7 0.648712 0.819698 0.673417
O O8 0.640954 0.941049 0.718177
O O9 0.336675 0.812823 0.263701
O O10 0.625000 0.625000 0.837903
O O11 0.536614 0.530657 0.787616
#
# Coordination Sequence:
#
# PCOD8286809 Si02
#       6
#    32  32  16  32  16  32
#     4  12  28  44  67 104 146 177 236 309 345 423
#     4  12  21  45  73  96 134 190 235 286 349 439
#     4  12  24  44  71 100 142 184 227 298 354 432
#     4  12  23  47  70 100 139 188 238 285 352 439
#     4  12  21  48  70  89 136 194 228 282 363 410
#     4  12  26  41  73 103 137 186 235 292 368 415
#
# _framework density 21.298548
#
# number of rings (size 3 to 8) (size 9 to 14) (size 15 to 20)
#    0.000    0.000    9.000    0.900    2.800    1.600 
#    0.000    4.000    0.000    0.000    0.000    0.000 
#    0.000    0.000    0.000    0.000    0.000    0.000 
#
# Total GULP energy -496029.459959 kJ/mol
# GULP energy per Si atom -12400.736499 kJ/mol
# Density = 2.125007 g / cm^3
# Si number density = 21.298548 Si / 1000 Ang^3
#
#
#
# Elastic Constant Matrix: (Units=GPa)
#
#
# Indices 1 2 3 4 5 6 
#
# 1 72.4808 32.8101 42.6345 0.0000 0.0000 0.0000
# 2 32.8101 158.0325 49.4783 0.0000 0.0000 0.0000
# 3 42.6345 49.4783 124.7863 0.0000 0.0000 0.0000
# 4 0.0000 0.0000 0.0000 33.3849 0.0000 0.0000
# 5 0.0000 0.0000 0.0000 0.0000 23.8549 0.0000
# 6 0.0000 0.0000 0.0000 0.0000 0.0000 35.9628
#
#
#
# Elastic Compliance Matrix: (Units=1/GPa)
#
#
# Indices 1 2 3 4 5 6 
#
# 1 0.017830 -0.002049 -0.005279 0.000000 0.000000 0.000000
# 2 -0.002049 0.007460 -0.002258 0.000000 0.000000 0.000000
# 3 -0.005279 -0.002258 0.010713 0.000000 0.000000 0.000000
# 4 0.000000 0.000000 0.000000 0.029954 0.000000 0.000000
# 5 0.000000 0.000000 0.000000 0.000000 0.041920 0.000000
# 6 0.000000 0.000000 0.000000 0.000000 0.000000 0.027807
#
#
# Mechanical properties :
#
#
# Convention : Reuss Voigt Hill
#
# Bulk Modulus (GPa) = 59.41679 67.23836 63.32757
# Shear Modulus (GPa) = 31.15947 33.99897 32.57922
#
# Velocity S-wave (km/s) = 3.82905 3.99971 3.91531
# Velocity P-wave (km/s) = 6.89250 7.27793 7.08783
#
# Compressibility (1/GPa) = 0.01683026
#
# Stress axis : x y z
#
# Youngs Moduli (GPa) = 56.08662 134.04599 93.34700
#
# Poissons Ratio (x) = 0.27464 0.49281
# Poissons Ratio (y) = 0.11491 0.21077
# Poissons Ratio (z) = 0.29610 0.30267
#
# Static dielectric constant tensor:
#      x y z
#    x 4.124620 0.000000 0.000000 
#    y 0.000000 3.987620 0.000000 
#    z 0.000000 0.000000 3.815500 
# 
# 
# High freq. dielectric constant tensor:
#      x y z
#    x 1.862910 0.000000 0.000000 
#    y 0.000000 1.839520 0.000000 
#    z 0.000000 0.000000 1.828430 
# 
# From -- ./inp_files/36503.got.cif
#   From: 2010.03.12/outbox.cif.g09.slc.cpg/sg70_19_cif.got.tgz:36503.got - 2010.04.16 13:46:32.
