data_PCOD8286525
_publ_section_title
;
Structure prediction by ZEFSAII (Michael W. Deem and Ramdas Pophale) SiO2 
 PCOD8286525
Probable space group: F D D D
;
_chemical_formula_sum "Si O2"
_cell_formula_units_Z 168
_cell_length_a 12.911041
_cell_length_b 30.162510
_cell_length_c 19.812795
_cell_angle_alpha 90.000000
_cell_angle_beta 90.000000
_cell_angle_gamma 90.000000
_cell_volume 7715.684934
_symmetry_space_group_name_H-M "F D D D"
_symmetry_group_IT_number 70
_space_group.IT_coordinate_system_code '2'
_symmetry_cell_setting 'orthorhombic'
loop_
_space_group_symop_operation_xyz
x,y,z
1/4-x,1/4-y,z
x,1/4-y,1/4-z
1/4-x,y,1/4-z
-x,-y,-z
3/4+x,3/4+y,-z
-x,3/4+y,3/4+z
3/4+x,-y,3/4+z
x,1/2+y,1/2+z
1/4-x,3/4-y,1/2+z
x,3/4-y,3/4-z
1/4-x,1/2+y,3/4-z
-x,1/2-y,1/2-z
3/4+x,1/4+y,1/2-z
-x,1/4+y,1/4+z
3/4+x,1/2-y,1/4+z
1/2+x,y,1/2+z
3/4-x,1/4-y,1/2+z
1/2+x,1/4-y,3/4-z
3/4-x,y,3/4-z
1/2-x,-y,1/2-z
1/4+x,3/4+y,1/2-z
1/2-x,3/4+y,1/4+z
1/4+x,-y,1/4+z
1/2+x,1/2+y,z
3/4-x,3/4-y,z
1/2+x,3/4-y,1/4-z
3/4-x,1/2+y,1/4-z
1/2-x,1/2-y,-z
1/4+x,1/4+y,-z
1/2-x,1/4+y,3/4+z
1/4+x,1/2-y,3/4+z
loop_
_atom_site_type_symbol
_atom_site_label
_atom_site_fract_x
_atom_site_fract_y
_atom_site_fract_z
Si Si1 0.875000 0.375000 0.875000
Si Si2 0.826774 0.314000 0.193452
Si Si3 0.727411 0.414955 0.419512
Si Si4 0.043473 0.357747 0.973294
Si Si5 0.487669 0.637175 0.379142
Si Si6 0.579331 0.774184 0.301555
O O1 0.797978 0.345471 0.829166
O O2 0.810306 0.323803 0.272718
O O3 0.734449 0.337167 0.151644
O O4 0.831287 0.261562 0.180566
O O5 0.934877 0.334574 0.166732
O O6 0.773606 0.375000 0.375000
O O7 0.614035 0.399590 0.448486
O O8 0.719110 0.458838 0.372347
O O9 0.118466 0.315968 0.984886
O O10 0.982576 0.367388 0.042611
O O11 0.375000 0.659024 0.375000
O O12 0.500000 0.750000 0.250000
#
# Coordination Sequence:
#
# PCOD8286525 Si02
#       6
#     8  32  32  32  32  32
#     4  12  20  44  76 104 130 204 242 292 372 442
#     4  11  25  43  71 106 136 195 235 298 378 426
#     4  10  23  48  71 103 144 190 247 301 365 452
#     4  11  23  47  74 102 146 194 249 298 365 466
#     4  11  23  44  70 102 145 188 238 289 366 446
#     4  11  25  45  69 107 144 184 241 319 370 427
#
# _framework density 21.773828999999999
#
# number of rings (size 3 to 8) (size 9 to 14) (size 15 to 20)
#    0.000    1.143    4.762    2.286   10.667    0.762 
#    1.714    0.952    0.000    0.000    0.000    0.000 
#    0.000    0.000    0.000    0.000    0.000    0.000 
#
# Total GULP energy -520325.078001 kJ/mol
# GULP energy per Si atom -12388.692333 kJ/mol
# Density = 2.172427 g / cm^3
# Si number density = 21.773829 Si / 1000 Ang^3
#
#
#
# Elastic Constant Matrix: (Units=GPa)
#
#
# Indices 1 2 3 4 5 6 
#
# 1 103.9759 20.9421 63.8782 0.0000 0.0000 0.0000
# 2 20.9421 106.6123 69.0944 0.0000 0.0000 0.0000
# 3 63.8782 69.0944 196.7211 0.0000 0.0000 0.0000
# 4 0.0000 0.0000 0.0000 36.6920 0.0000 0.0000
# 5 0.0000 0.0000 0.0000 0.0000 58.7961 0.0000
# 6 0.0000 0.0000 0.0000 0.0000 0.0000 25.6009
#
#
#
# Elastic Compliance Matrix: (Units=1/GPa)
#
#
# Indices 1 2 3 4 5 6 
#
# 1 0.012018 0.000218 -0.003979 0.000000 0.000000 0.000000
# 2 0.000218 0.012148 -0.004338 0.000000 0.000000 0.000000
# 3 -0.003979 -0.004338 0.007899 0.000000 0.000000 0.000000
# 4 0.000000 0.000000 0.000000 0.027254 0.000000 0.000000
# 5 0.000000 0.000000 0.000000 0.000000 0.017008 0.000000
# 6 0.000000 0.000000 0.000000 0.000000 0.000000 0.039061
#
#
# Mechanical properties :
#
#
# Convention : Reuss Voigt Hill
#
# Bulk Modulus (GPa) = 63.01994 79.45985 71.23990
# Shear Modulus (GPa) = 36.52973 41.11078 38.82026
#
# Velocity S-wave (km/s) = 4.10040 4.34992 4.22700
# Velocity P-wave (km/s) = 7.17102 7.86140 7.52413
#
# Compressibility (1/GPa) = 0.01586799
#
# Stress axis : x y z
#
# Youngs Moduli (GPa) = 83.20670 82.31744 126.60012
#
# Poissons Ratio (x) = -0.01795 0.50375
# Poissons Ratio (y) = -0.01814 0.54914
# Poissons Ratio (z) = 0.33109 0.35706
#
# Static dielectric constant tensor:
#      x y z
#    x 4.066610 0.000000 0.000000 
#    y 0.000000 4.146390 0.000000 
#    z 0.000000 0.000000 4.287180 
# 
# 
# High freq. dielectric constant tensor:
#      x y z
#    x 1.854890 0.000000 0.000000 
#    y 0.000000 1.829230 0.000000 
#    z 0.000000 0.000000 1.880990 
# 
# From -- ./inp_files/42960.got.cif
#   From: 2010.03.12/outbox.cif.g09.slc.cpg/sg70_22_cif.got.tgz:42960.got - 2010.04.16 13:46:32.
