data_PCOD8286511
_publ_section_title
;
Structure prediction by ZEFSAII (Michael W. Deem and Ramdas Pophale) SiO2 
 PCOD8286511
Probable space group: F D D D
;
_chemical_formula_sum "Si O2"
_cell_formula_units_Z 176
_cell_length_a 16.199901
_cell_length_b 29.951578
_cell_length_c 16.178492
_cell_angle_alpha 90.000000
_cell_angle_beta 90.000000
_cell_angle_gamma 90.000000
_cell_volume 7850.008141
_symmetry_space_group_name_H-M "F D D D"
_symmetry_group_IT_number 70
_space_group.IT_coordinate_system_code '2'
_symmetry_cell_setting 'orthorhombic'
loop_
_space_group_symop_operation_xyz
x,y,z
1/4-x,1/4-y,z
x,1/4-y,1/4-z
1/4-x,y,1/4-z
-x,-y,-z
3/4+x,3/4+y,-z
-x,3/4+y,3/4+z
3/4+x,-y,3/4+z
x,1/2+y,1/2+z
1/4-x,3/4-y,1/2+z
x,3/4-y,3/4-z
1/4-x,1/2+y,3/4-z
-x,1/2-y,1/2-z
3/4+x,1/4+y,1/2-z
-x,1/4+y,1/4+z
3/4+x,1/2-y,1/4+z
1/2+x,y,1/2+z
3/4-x,1/4-y,1/2+z
1/2+x,1/4-y,3/4-z
3/4-x,y,3/4-z
1/2-x,-y,1/2-z
1/4+x,3/4+y,1/2-z
1/2-x,3/4+y,1/4+z
1/4+x,-y,1/4+z
1/2+x,1/2+y,z
3/4-x,3/4-y,z
1/2+x,3/4-y,1/4-z
3/4-x,1/2+y,1/4-z
1/2-x,1/2-y,-z
1/4+x,1/4+y,-z
1/2-x,1/4+y,3/4+z
1/4+x,1/2-y,3/4+z
loop_
_atom_site_type_symbol
_atom_site_label
_atom_site_fract_x
_atom_site_fract_y
_atom_site_fract_z
Si Si1 0.137916 0.361776 0.720559
Si Si2 0.751118 0.587355 0.569343
Si Si3 0.302413 0.907403 0.235816
Si Si4 0.625000 0.221233 0.625000
Si Si5 0.777228 0.281687 0.667135
Si Si6 0.928280 0.526303 0.045349
O O1 0.125000 0.375218 0.625000
O O2 0.079881 0.389833 0.779398
O O3 0.228436 0.373091 0.755559
O O4 0.116944 0.309598 0.731399
O O5 0.702600 0.625000 0.625000
O O6 0.702130 0.563939 0.495170
O O7 0.776619 0.548324 0.628849
O O8 0.375000 0.875000 0.205827
O O9 0.327355 0.938594 0.312305
O O10 0.269575 0.938961 0.164095
O O11 0.692934 0.252124 0.672358
O O12 0.858886 0.252816 0.660606
O O13 0.000000 0.500000 0.000000
#
# Coordination Sequence:
#
# PCOD8286511 Si02
#       6
#    32  32  32  16  32  32
#     4  11  23  46  71  98 141 193 240 299 372 438
#     4  10  23  45  67  97 133 185 239 287 358 440
#     4  12  26  42  73 105 144 189 245 301 376 452
#     4  12  25  46  74 112 148 186 250 316 382 436
#     4  12  24  44  70 103 143 185 240 307 371 435
#     4  11  27  42  69  99 143 184 244 296 366 435
#
# _framework density 22.420359000000001
#
# number of rings (size 3 to 8) (size 9 to 14) (size 15 to 20)
#    0.000    0.727    1.818    5.182    5.091    2.909 
#    0.000    2.727    0.000    0.000    0.000    0.000 
#    0.000    0.000    0.000    0.000    0.000    0.000 
#
# Total GULP energy -545423.099021 kJ/mol
# GULP energy per Si atom -12395.979523 kJ/mol
# Density = 2.236933 g / cm^3
# Si number density = 22.420359 Si / 1000 Ang^3
#
#
#
# Elastic Constant Matrix: (Units=GPa)
#
#
# Indices 1 2 3 4 5 6 
#
# 1 78.8714 52.7957 16.7755 0.0000 0.0000 0.0000
# 2 52.7957 130.6719 51.6021 0.0000 0.0000 0.0000
# 3 16.7755 51.6021 131.4378 0.0000 0.0000 0.0000
# 4 0.0000 0.0000 0.0000 43.4594 0.0000 0.0000
# 5 0.0000 0.0000 0.0000 0.0000 27.5127 0.0000
# 6 0.0000 0.0000 0.0000 0.0000 0.0000 68.0950
#
#
#
# Elastic Compliance Matrix: (Units=1/GPa)
#
#
# Indices 1 2 3 4 5 6 
#
# 1 0.017424 -0.007292 0.000639 0.000000 0.000000 0.000000
# 2 -0.007292 0.012109 -0.003823 0.000000 0.000000 0.000000
# 3 0.000639 -0.003823 0.009028 0.000000 0.000000 0.000000
# 4 0.000000 0.000000 0.000000 0.023010 0.000000 0.000000
# 5 0.000000 0.000000 0.000000 0.000000 0.036347 0.000000
# 6 0.000000 0.000000 0.000000 0.000000 0.000000 0.014685
#
#
# Mechanical properties :
#
#
# Convention : Reuss Voigt Hill
#
# Bulk Modulus (GPa) = 56.79282 64.81419 60.80351
# Shear Modulus (GPa) = 35.86149 42.46727 39.16438
#
# Velocity S-wave (km/s) = 4.00372 4.35689 4.18403
# Velocity P-wave (km/s) = 6.83805 7.36759 7.10775
#
# Compressibility (1/GPa) = 0.01760786
#
# Stress axis : x y z
#
# Youngs Moduli (GPa) = 57.39076 82.58393 110.77187
#
# Poissons Ratio (x) = 0.60224 -0.07079
# Poissons Ratio (y) = 0.41852 0.42350
# Poissons Ratio (z) = -0.03668 0.31573
#
# Static dielectric constant tensor:
#      x y z
#    x 4.130770 0.000000 0.000000 
#    y 0.000000 4.566580 0.000000 
#    z 0.000000 0.000000 5.186500 
# 
# 
# High freq. dielectric constant tensor:
#      x y z
#    x 1.882780 0.000000 0.000000 
#    y 0.000000 1.904440 0.000000 
#    z 0.000000 0.000000 1.894050 
# 
# From -- ./inp_files/35248.got.cif
#   From: 2010.03.12/outbox.cif.g09.slc.cpg/sg70_18_cif.got.tgz:35248.got - 2010.04.16 13:46:32.
