data_PCOD8286782
_publ_section_title
;
Structure prediction by ZEFSAII (Michael W. Deem and Ramdas Pophale) SiO2 
 PCOD8286782
Probable space group: F D D D
;
_chemical_formula_sum "Si O2"
_cell_formula_units_Z 72
_cell_length_a 6.702217
_cell_length_b 24.731619
_cell_length_c 15.116705
_cell_angle_alpha 90.000000
_cell_angle_beta 90.000000
_cell_angle_gamma 90.000000
_cell_volume 2505.694793
_symmetry_space_group_name_H-M "F D D D"
_symmetry_group_IT_number 70
_space_group.IT_coordinate_system_code '2'
_symmetry_cell_setting 'orthorhombic'
loop_
_space_group_symop_operation_xyz
x,y,z
1/4-x,1/4-y,z
x,1/4-y,1/4-z
1/4-x,y,1/4-z
-x,-y,-z
3/4+x,3/4+y,-z
-x,3/4+y,3/4+z
3/4+x,-y,3/4+z
x,1/2+y,1/2+z
1/4-x,3/4-y,1/2+z
x,3/4-y,3/4-z
1/4-x,1/2+y,3/4-z
-x,1/2-y,1/2-z
3/4+x,1/4+y,1/2-z
-x,1/4+y,1/4+z
3/4+x,1/2-y,1/4+z
1/2+x,y,1/2+z
3/4-x,1/4-y,1/2+z
1/2+x,1/4-y,3/4-z
3/4-x,y,3/4-z
1/2-x,-y,1/2-z
1/4+x,3/4+y,1/2-z
1/2-x,3/4+y,1/4+z
1/4+x,-y,1/4+z
1/2+x,1/2+y,z
3/4-x,3/4-y,z
1/2+x,3/4-y,1/4-z
3/4-x,1/2+y,1/4-z
1/2-x,1/2-y,-z
1/4+x,1/4+y,-z
1/2-x,1/4+y,3/4+z
1/4+x,1/2-y,3/4+z
loop_
_atom_site_type_symbol
_atom_site_label
_atom_site_fract_x
_atom_site_fract_y
_atom_site_fract_z
Si Si1 0.555482 0.295231 0.946742
Si Si2 0.875000 0.875000 0.375000
Si Si3 0.602458 0.565310 0.866441
O O1 0.375000 0.301791 0.875000
O O2 0.731845 0.337852 0.933870
O O3 0.661126 0.235277 0.946126
O O4 0.472874 0.311081 0.042704
O O5 0.625000 0.625000 0.824396
O O6 0.375000 0.552019 0.875000
#
# Coordination Sequence:
#
# PCOD8286782 Si02
#       3
#    32   8  32
#     4  11  25  50  76 123 164 218 280 338 419 492
#     4  12  26  44  84 118 172 220 274 352 400 514
#     4  11  25  50  81 117 167 217 277 346 411 501
#
# _framework density 28.734545000000001
#
# number of rings (size 3 to 8) (size 9 to 14) (size 15 to 20)
#    0.000    0.889    0.000    8.667    3.111    1.778 
#   28.000    0.000    0.000    0.000    0.000    0.000 
#    0.000    0.000    0.000    0.000    0.000    0.000 
#
# Total GULP energy -223009.230385 kJ/mol
# GULP energy per Si atom -12389.401688 kJ/mol
# Density = 2.866914 g / cm^3
# Si number density = 28.734545 Si / 1000 Ang^3
#
#
#
# Elastic Constant Matrix: (Units=GPa)
#
#
# Indices 1 2 3 4 5 6 
#
# 1 178.3123 117.0173 65.9631 0.0000 0.0000 0.0000
# 2 117.0173 307.9416 96.7258 0.0000 0.0000 0.0000
# 3 65.9631 96.7258 137.3620 0.0000 0.0000 0.0000
# 4 0.0000 0.0000 0.0000 27.3256 0.0000 0.0000
# 5 0.0000 0.0000 0.0000 0.0000 41.8614 0.0000
# 6 0.0000 0.0000 0.0000 0.0000 0.0000 51.9749
#
#
#
# Elastic Compliance Matrix: (Units=1/GPa)
#
#
# Indices 1 2 3 4 5 6 
#
# 1 0.007945 -0.002338 -0.002169 0.000000 0.000000 0.000000
# 2 -0.002338 0.004857 -0.002298 0.000000 0.000000 0.000000
# 3 -0.002169 -0.002298 0.009940 0.000000 0.000000 0.000000
# 4 0.000000 0.000000 0.000000 0.036596 0.000000 0.000000
# 5 0.000000 0.000000 0.000000 0.000000 0.023888 0.000000
# 6 0.000000 0.000000 0.000000 0.000000 0.000000 0.019240
#
#
# Mechanical properties :
#
#
# Convention : Reuss Voigt Hill
#
# Bulk Modulus (GPa) = 109.49686 131.44757 120.47222
# Shear Modulus (GPa) = 41.97475 47.15969 44.56722
#
# Velocity S-wave (km/s) = 3.82616 4.05559 3.94254
# Velocity P-wave (km/s) = 7.59660 8.23257 7.92097
#
# Compressibility (1/GPa) = 0.00913268
#
# Stress axis : x y z
#
# Youngs Moduli (GPa) = 125.87177 205.86967 100.60646
#
# Poissons Ratio (x) = 0.48125 0.21822
# Poissons Ratio (y) = 0.29424 0.23118
# Poissons Ratio (z) = 0.27302 0.47307
#
# Static dielectric constant tensor:
#      x y z
#    x 5.731880 0.000000 0.000000 
#    y 0.000000 8.129510 0.000000 
#    z 0.000000 0.000000 5.171860 
# 
# 
# High freq. dielectric constant tensor:
#      x y z
#    x 2.218940 0.000000 0.000000 
#    y 0.000000 2.206580 0.000000 
#    z 0.000000 0.000000 2.174960 
# 
# From -- ./inp_files/48227.got.cif
#   From: 2010.03.12/outbox.cif.g09.slc.cpg/sg70_25_cif.got.tgz:48227.got - 2010.04.16 13:46:32.
