data_PCOD8286055
_publ_section_title
;
Structure prediction by ZEFSAII (Michael W. Deem and Ramdas Pophale) SiO2 
 PCOD8286055
Probable space group: F D D D
;
_chemical_formula_sum "Si O2"
_cell_formula_units_Z 144
_cell_length_a 7.695484
_cell_length_b 36.560984
_cell_length_c 25.386383
_cell_angle_alpha 90.000000
_cell_angle_beta 90.000000
_cell_angle_gamma 90.000000
_cell_volume 7142.572268
_symmetry_space_group_name_H-M "F D D D"
_symmetry_group_IT_number 70
_space_group.IT_coordinate_system_code '2'
_symmetry_cell_setting 'orthorhombic'
loop_
_space_group_symop_operation_xyz
x,y,z
1/4-x,1/4-y,z
x,1/4-y,1/4-z
1/4-x,y,1/4-z
-x,-y,-z
3/4+x,3/4+y,-z
-x,3/4+y,3/4+z
3/4+x,-y,3/4+z
x,1/2+y,1/2+z
1/4-x,3/4-y,1/2+z
x,3/4-y,3/4-z
1/4-x,1/2+y,3/4-z
-x,1/2-y,1/2-z
3/4+x,1/4+y,1/2-z
-x,1/4+y,1/4+z
3/4+x,1/2-y,1/4+z
1/2+x,y,1/2+z
3/4-x,1/4-y,1/2+z
1/2+x,1/4-y,3/4-z
3/4-x,y,3/4-z
1/2-x,-y,1/2-z
1/4+x,3/4+y,1/2-z
1/2-x,3/4+y,1/4+z
1/4+x,-y,1/4+z
1/2+x,1/2+y,z
3/4-x,3/4-y,z
1/2+x,3/4-y,1/4-z
3/4-x,1/2+y,1/4-z
1/2-x,1/2-y,-z
1/4+x,1/4+y,-z
1/2-x,1/4+y,3/4+z
1/4+x,1/2-y,3/4+z
loop_
_atom_site_type_symbol
_atom_site_label
_atom_site_fract_x
_atom_site_fract_y
_atom_site_fract_z
Si Si1 0.375000 0.278165 0.375000
Si Si2 0.375000 0.083930 0.375000
Si Si3 0.625000 0.125000 0.952085
Si Si4 0.990082 0.990887 0.775882
Si Si5 0.552154 0.055672 0.017574
Si Si6 0.064236 0.733744 0.835957
O O1 0.398374 0.303984 0.425804
O O2 0.201073 0.252263 0.376929
O O3 0.463998 0.110131 0.331973
O O4 0.221700 0.058462 0.351191
O O5 0.550337 0.094836 0.991389
O O6 0.884205 0.984795 0.722883
O O7 0.104787 0.954735 0.781128
O O8 0.874327 0.995810 0.829161
O O9 0.109379 0.027154 0.772454
#
# Coordination Sequence:
#
# PCOD8286055 Si02
#       6
#    16  16  16  32  32  32
#     4  10  22  36  74  92 119 160 220 268 325 358
#     4  12  26  39  60  92 127 171 204 253 323 394
#     4  12  28  41  60  90 138 171 204 252 332 398
#     4   9  19  38  65  88 128 154 215 265 312 360
#     4  10  21  41  59  95 122 172 203 265 311 386
#     4  10  20  37  64  96 120 158 214 271 308 374
#
# _framework density 20.160803999999999
#
# number of rings (size 3 to 8) (size 9 to 14) (size 15 to 20)
#    0.000    1.778    2.222    1.333    9.333    0.444 
#    0.000    0.000    0.000    0.000    5.778    0.000 
#    0.000    0.000    0.000    0.000    0.000    0.000 
#
# Total GULP energy -446249.639803 kJ/mol
# GULP energy per Si atom -12395.823328 kJ/mol
# Density = 2.011492 g / cm^3
# Si number density = 20.160804 Si / 1000 Ang^3
#
#
#
# Elastic Constant Matrix: (Units=GPa)
#
#
# Indices 1 2 3 4 5 6 
#
# 1 115.9931 58.2034 34.1324 0.0000 0.0000 0.0000
# 2 58.2034 144.8174 68.2629 0.0000 0.0000 0.0000
# 3 34.1324 68.2629 105.7881 0.0000 0.0000 0.0000
# 4 0.0000 0.0000 0.0000 40.9812 0.0000 0.0000
# 5 0.0000 0.0000 0.0000 0.0000 25.1181 0.0000
# 6 0.0000 0.0000 0.0000 0.0000 0.0000 29.7743
#
#
#
# Elastic Compliance Matrix: (Units=1/GPa)
#
#
# Indices 1 2 3 4 5 6 
#
# 1 0.010871 -0.003903 -0.000989 0.000000 0.000000 0.000000
# 2 -0.003903 0.011325 -0.006049 0.000000 0.000000 0.000000
# 3 -0.000989 -0.006049 0.013675 0.000000 0.000000 0.000000
# 4 0.000000 0.000000 0.000000 0.024401 0.000000 0.000000
# 5 0.000000 0.000000 0.000000 0.000000 0.039812 0.000000
# 6 0.000000 0.000000 0.000000 0.000000 0.000000 0.033586
#
#
# Mechanical properties :
#
#
# Convention : Reuss Voigt Hill
#
# Bulk Modulus (GPa) = 71.48041 76.42180 73.95110
# Shear Modulus (GPa) = 31.20832 32.90803 32.05818
#
# Velocity S-wave (km/s) = 3.93869 4.04453 3.99196
# Velocity P-wave (km/s) = 7.49777 7.73301 7.61629
#
# Compressibility (1/GPa) = 0.01398985
#
# Stress axis : x y z
#
# Youngs Moduli (GPa) = 91.99138 88.30088 73.12655
#
# Poissons Ratio (x) = 0.34462 0.07232
# Poissons Ratio (y) = 0.35902 0.44231
# Poissons Ratio (z) = 0.09098 0.53409
#
# Static dielectric constant tensor:
#      x y z
#    x 4.093030 0.000000 0.000000 
#    y 0.000000 3.380410 0.000000 
#    z 0.000000 0.000000 3.889940 
# 
# 
# High freq. dielectric constant tensor:
#      x y z
#    x 1.801050 0.000000 0.000000 
#    y 0.000000 1.747200 0.000000 
#    z 0.000000 0.000000 1.818200 
# 
# From -- ./inp_files/63892.got.cif
#   From: 2010.03.12/outbox.cif.g09.slc.cpg/sg70_32_cif.got.tgz:63892.got - 2010.04.16 13:46:32.
