data_PCOD8286795
_publ_section_title
;
Structure prediction by ZEFSAII (Michael W. Deem and Ramdas Pophale) SiO2 
 PCOD8286795
Probable space group: F D D D
;
_chemical_formula_sum "Si O2"
_cell_formula_units_Z 112
_cell_length_a 15.562126
_cell_length_b 34.254976
_cell_length_c 9.346139
_cell_angle_alpha 90.000000
_cell_angle_beta 90.000000
_cell_angle_gamma 90.000000
_cell_volume 4982.242139
_symmetry_space_group_name_H-M "F D D D"
_symmetry_group_IT_number 70
_space_group.IT_coordinate_system_code '2'
_symmetry_cell_setting 'orthorhombic'
loop_
_space_group_symop_operation_xyz
x,y,z
1/4-x,1/4-y,z
x,1/4-y,1/4-z
1/4-x,y,1/4-z
-x,-y,-z
3/4+x,3/4+y,-z
-x,3/4+y,3/4+z
3/4+x,-y,3/4+z
x,1/2+y,1/2+z
1/4-x,3/4-y,1/2+z
x,3/4-y,3/4-z
1/4-x,1/2+y,3/4-z
-x,1/2-y,1/2-z
3/4+x,1/4+y,1/2-z
-x,1/4+y,1/4+z
3/4+x,1/2-y,1/4+z
1/2+x,y,1/2+z
3/4-x,1/4-y,1/2+z
1/2+x,1/4-y,3/4-z
3/4-x,y,3/4-z
1/2-x,-y,1/2-z
1/4+x,3/4+y,1/2-z
1/2-x,3/4+y,1/4+z
1/4+x,-y,1/4+z
1/2+x,1/2+y,z
3/4-x,3/4-y,z
1/2+x,3/4-y,1/4-z
3/4-x,1/2+y,1/4-z
1/2-x,1/2-y,-z
1/4+x,1/4+y,-z
1/2-x,1/4+y,3/4+z
1/4+x,1/2-y,3/4+z
loop_
_atom_site_type_symbol
_atom_site_label
_atom_site_fract_x
_atom_site_fract_y
_atom_site_fract_z
Si Si1 0.625000 0.329711 0.125000
Si Si2 0.167516 0.486053 0.332767
Si Si3 0.528004 0.617190 0.957871
Si Si4 0.757071 0.970222 0.620359
O O1 0.621855 0.303475 0.267381
O O2 0.538263 0.355054 0.124937
O O3 0.250000 0.500000 0.250000
O O4 0.184517 0.478212 0.500685
O O5 0.101488 0.521567 0.306993
O O6 0.625000 0.625000 0.902368
O O7 0.499418 0.573387 0.926170
O O8 0.521600 0.625000 0.125000
O O9 0.750000 0.000000 0.750000
#
# Coordination Sequence:
#
# PCOD8286795 Si02
#       4
#    16  32  32  32
#     4  12  26  48  76 108 157 194 249 316 388 436
#     4  12  25  47  76 109 146 191 249 308 376 454
#     4  11  28  46  72 107 152 196 248 311 376 446
#     4  12  27  45  75 107 143 194 252 301 370 453
#
# _framework density 22.479838000000001
#
# number of rings (size 3 to 8) (size 9 to 14) (size 15 to 20)
#    0.000    0.286    2.857    4.286   16.000    0.000 
#    0.000    1.429    0.000    0.000    0.000    0.000 
#    0.000    0.000    0.000    0.000    0.000    0.000 
#
# Total GULP energy -347330.127978 kJ/mol
# GULP energy per Si atom -12404.647428 kJ/mol
# Density = 2.242867 g / cm^3
# Si number density = 22.479838 Si / 1000 Ang^3
#
#
#
# Elastic Constant Matrix: (Units=GPa)
#
#
# Indices 1 2 3 4 5 6 
#
# 1 111.5571 42.8030 25.0096 0.0000 0.0000 0.0000
# 2 42.8030 160.0516 54.1786 0.0000 0.0000 0.0000
# 3 25.0096 54.1786 124.8004 0.0000 0.0000 0.0000
# 4 0.0000 0.0000 0.0000 41.9788 0.0000 0.0000
# 5 0.0000 0.0000 0.0000 0.0000 43.9667 0.0000
# 6 0.0000 0.0000 0.0000 0.0000 0.0000 45.3466
#
#
#
# Elastic Compliance Matrix: (Units=1/GPa)
#
#
# Indices 1 2 3 4 5 6 
#
# 1 0.010094 -0.002362 -0.000997 0.000000 0.000000 0.000000
# 2 -0.002362 0.007877 -0.002946 0.000000 0.000000 0.000000
# 3 -0.000997 -0.002946 0.009492 0.000000 0.000000 0.000000
# 4 0.000000 0.000000 0.000000 0.023822 0.000000 0.000000
# 5 0.000000 0.000000 0.000000 0.000000 0.022744 0.000000
# 6 0.000000 0.000000 0.000000 0.000000 0.000000 0.022052
#
#
# Mechanical properties :
#
#
# Convention : Reuss Voigt Hill
#
# Bulk Modulus (GPa) = 67.33337 71.15460 69.24399
# Shear Modulus (GPa) = 43.99769 44.55296 44.27533
#
# Velocity S-wave (km/s) = 4.42883 4.45669 4.44278
# Velocity P-wave (km/s) = 7.49470 7.62916 7.56223
#
# Compressibility (1/GPa) = 0.01485148
#
# Stress axis : x y z
#
# Youngs Moduli (GPa) = 99.07050 126.95305 105.35495
#
# Poissons Ratio (x) = 0.29983 0.10509
# Poissons Ratio (y) = 0.23398 0.31040
# Poissons Ratio (z) = 0.09882 0.37404
#
# Static dielectric constant tensor:
#      x y z
#    x 4.657080 0.000000 0.000000 
#    y 0.000000 4.747170 0.000000 
#    z 0.000000 0.000000 4.123410 
# 
# 
# High freq. dielectric constant tensor:
#      x y z
#    x 1.915270 0.000000 0.000000 
#    y 0.000000 1.891330 0.000000 
#    z 0.000000 0.000000 1.889690 
# 
# From -- ./inp_files/15004.got.cif
#   From: 2010.03.12/outbox.cif.g09.slc.cpg/sg70_8_cif.got.tgz:15004.got - 2010.04.16 13:46:32.
