data_PCOD8286311
_publ_section_title
;
Structure prediction by ZEFSAII (Michael W. Deem and Ramdas Pophale) SiO2 
 PCOD8286311
Probable space group: F D D D
;
_chemical_formula_sum "Si O2"
_cell_formula_units_Z 176
_cell_length_a 20.608037
_cell_length_b 18.335221
_cell_length_c 19.831183
_cell_angle_alpha 90.000000
_cell_angle_beta 90.000000
_cell_angle_gamma 90.000000
_cell_volume 7493.270260
_symmetry_space_group_name_H-M "F D D D"
_symmetry_group_IT_number 70
_space_group.IT_coordinate_system_code '2'
_symmetry_cell_setting 'orthorhombic'
loop_
_space_group_symop_operation_xyz
x,y,z
1/4-x,1/4-y,z
x,1/4-y,1/4-z
1/4-x,y,1/4-z
-x,-y,-z
3/4+x,3/4+y,-z
-x,3/4+y,3/4+z
3/4+x,-y,3/4+z
x,1/2+y,1/2+z
1/4-x,3/4-y,1/2+z
x,3/4-y,3/4-z
1/4-x,1/2+y,3/4-z
-x,1/2-y,1/2-z
3/4+x,1/4+y,1/2-z
-x,1/4+y,1/4+z
3/4+x,1/2-y,1/4+z
1/2+x,y,1/2+z
3/4-x,1/4-y,1/2+z
1/2+x,1/4-y,3/4-z
3/4-x,y,3/4-z
1/2-x,-y,1/2-z
1/4+x,3/4+y,1/2-z
1/2-x,3/4+y,1/4+z
1/4+x,-y,1/4+z
1/2+x,1/2+y,z
3/4-x,3/4-y,z
1/2+x,3/4-y,1/4-z
3/4-x,1/2+y,1/4-z
1/2-x,1/2-y,-z
1/4+x,1/4+y,-z
1/2-x,1/4+y,3/4+z
1/4+x,1/2-y,3/4+z
loop_
_atom_site_type_symbol
_atom_site_label
_atom_site_fract_x
_atom_site_fract_y
_atom_site_fract_z
Si Si1 0.087228 0.698481 0.002468
Si Si2 0.474887 0.803881 0.403274
Si Si3 0.227006 0.400407 0.592321
Si Si4 0.875000 0.038124 0.375000
Si Si5 0.935300 0.827854 0.046608
Si Si6 0.120979 0.456458 0.369782
O O1 0.125000 0.625000 0.016958
O O2 0.081327 0.740373 0.074150
O O3 0.016784 0.674110 0.974596
O O4 0.127975 0.750691 0.951553
O O5 0.436730 0.875000 0.375000
O O6 0.440994 0.726337 0.385004
O O7 0.483604 0.812767 0.484236
O O8 0.544377 0.800020 0.365758
O O9 0.173393 0.338394 0.580370
O O10 0.278804 0.374668 0.647051
O O11 0.875000 0.875000 0.019763
O O12 0.908853 0.751218 0.073659
O O13 0.151484 0.375000 0.375000
#
# Coordination Sequence:
#
# PCOD8286311 Si02
#       6
#    32  32  32  16  32  32
#     4  11  22  49  71 103 152 194 246 311 369 438
#     4  10  24  42  67 107 142 181 245 297 360 445
#     4  11  23  48  71 105 151 190 246 309 366 440
#     4  12  29  42  77 114 146 198 248 310 373 448
#     4  12  22  45  76  98 142 197 232 302 375 420
#     4  10  21  44  72 103 136 190 243 295 360 444
#
# _framework density 23.487742000000001
#
# number of rings (size 3 to 8) (size 9 to 14) (size 15 to 20)
#    0.000    1.091    5.455    2.455    2.545    3.273 
#    0.000    0.000    0.000    0.000    0.000    0.000 
#    0.000    0.000    0.000    0.000    0.000    0.000 
#
# Total GULP energy -545182.022218 kJ/mol
# GULP energy per Si atom -12390.500505 kJ/mol
# Density = 2.343428 g / cm^3
# Si number density = 23.487742 Si / 1000 Ang^3
#
#
#
# Elastic Constant Matrix: (Units=GPa)
#
#
# Indices 1 2 3 4 5 6 
#
# 1 75.8025 39.5747 37.5237 0.0000 0.0000 0.0000
# 2 39.5747 211.1761 60.7659 0.0000 0.0000 0.0000
# 3 37.5237 60.7659 106.8806 0.0000 0.0000 0.0000
# 4 0.0000 0.0000 0.0000 34.9677 0.0000 0.0000
# 5 0.0000 0.0000 0.0000 0.0000 23.8236 0.0000
# 6 0.0000 0.0000 0.0000 0.0000 0.0000 18.1863
#
#
#
# Elastic Compliance Matrix: (Units=1/GPa)
#
#
# Indices 1 2 3 4 5 6 
#
# 1 0.016462 -0.001700 -0.004813 0.000000 0.000000 0.000000
# 2 -0.001700 0.005837 -0.002722 0.000000 0.000000 0.000000
# 3 -0.004813 -0.002722 0.012593 0.000000 0.000000 0.000000
# 4 0.000000 0.000000 0.000000 0.028598 0.000000 0.000000
# 5 0.000000 0.000000 0.000000 0.000000 0.041975 0.000000
# 6 0.000000 0.000000 0.000000 0.000000 0.000000 0.054986
#
#
# Mechanical properties :
#
#
# Convention : Reuss Voigt Hill
#
# Bulk Modulus (GPa) = 60.88992 74.39865 67.64428
# Shear Modulus (GPa) = 27.11547 32.46185 29.78866
#
# Velocity S-wave (km/s) = 3.40141 3.72166 3.56513
# Velocity P-wave (km/s) = 6.43479 7.08604 6.76825
#
# Compressibility (1/GPa) = 0.01642308
#
# Stress axis : x y z
#
# Youngs Moduli (GPa) = 60.74487 171.31543 79.40639
#
# Poissons Ratio (x) = 0.29126 0.38218
# Poissons Ratio (y) = 0.10327 0.21613
# Poissons Ratio (z) = 0.29237 0.46629
#
# Static dielectric constant tensor:
#      x y z
#    x 3.965550 0.000000 0.000000 
#    y 0.000000 5.058640 0.000000 
#    z 0.000000 0.000000 3.931000 
# 
# 
# High freq. dielectric constant tensor:
#      x y z
#    x 1.906030 0.000000 0.000000 
#    y 0.000000 1.969610 0.000000 
#    z 0.000000 0.000000 1.904830 
# 
# From -- ./inp_files/38548.got.cif
#   From: 2010.03.12/outbox.cif.g09.slc.cpg/sg70_20_cif.got.tgz:38548.got - 2010.04.16 13:46:32.
