data_PCOD8286508
_publ_section_title
;
Structure prediction by ZEFSAII (Michael W. Deem and Ramdas Pophale) SiO2 
 PCOD8286508
Probable space group: F D D D
;
_chemical_formula_sum "Si O2"
_cell_formula_units_Z 176
_cell_length_a 15.647704
_cell_length_b 22.718755
_cell_length_c 23.710612
_cell_angle_alpha 90.000000
_cell_angle_beta 90.000000
_cell_angle_gamma 90.000000
_cell_volume 8429.036105
_symmetry_space_group_name_H-M "F D D D"
_symmetry_group_IT_number 70
_space_group.IT_coordinate_system_code '2'
_symmetry_cell_setting 'orthorhombic'
loop_
_space_group_symop_operation_xyz
x,y,z
1/4-x,1/4-y,z
x,1/4-y,1/4-z
1/4-x,y,1/4-z
-x,-y,-z
3/4+x,3/4+y,-z
-x,3/4+y,3/4+z
3/4+x,-y,3/4+z
x,1/2+y,1/2+z
1/4-x,3/4-y,1/2+z
x,3/4-y,3/4-z
1/4-x,1/2+y,3/4-z
-x,1/2-y,1/2-z
3/4+x,1/4+y,1/2-z
-x,1/4+y,1/4+z
3/4+x,1/2-y,1/4+z
1/2+x,y,1/2+z
3/4-x,1/4-y,1/2+z
1/2+x,1/4-y,3/4-z
3/4-x,y,3/4-z
1/2-x,-y,1/2-z
1/4+x,3/4+y,1/2-z
1/2-x,3/4+y,1/4+z
1/4+x,-y,1/4+z
1/2+x,1/2+y,z
3/4-x,3/4-y,z
1/2+x,3/4-y,1/4-z
3/4-x,1/2+y,1/4-z
1/2-x,1/2-y,-z
1/4+x,1/4+y,-z
1/2-x,1/4+y,3/4+z
1/4+x,1/2-y,3/4+z
loop_
_atom_site_type_symbol
_atom_site_label
_atom_site_fract_x
_atom_site_fract_y
_atom_site_fract_z
Si Si1 0.279656 0.863498 0.810176
Si Si2 0.484418 0.757907 0.014731
Si Si3 0.372246 0.646782 0.997184
Si Si4 0.909530 0.733132 0.727304
Si Si5 0.625000 0.859324 0.125000
Si Si6 0.686343 0.067360 0.872913
O O1 0.261849 0.875000 0.875000
O O2 0.375000 0.875000 0.791711
O O3 0.263674 0.795171 0.793793
O O4 0.219784 0.908775 0.775469
O O5 0.440564 0.695928 0.009460
O O6 0.586508 0.747267 0.023378
O O7 0.437060 0.795034 0.062844
O O8 0.352940 0.646537 0.930451
O O9 0.407281 0.587663 0.027264
O O10 0.897067 0.766781 0.667458
O O11 0.000000 0.750000 0.750000
O O12 0.537162 0.825785 0.142849
O O13 0.625000 0.125000 0.867414
#
# Coordination Sequence:
#
# PCOD8286508 Si02
#       6
#    32  32  32  32  16  32
#     4  10  23  45  66  95 141 174 225 286 338 407
#     4  11  25  42  67 105 132 183 237 275 360 416
#     4  11  25  42  68 100 137 177 230 289 343 415
#     4  11  23  42  67  97 139 177 229 294 335 412
#     4  12  22  46  66  99 141 172 240 284 344 422
#     4  12  24  44  72  97 140 188 227 292 353 422
#
# _framework density 20.880205
#
# number of rings (size 3 to 8) (size 9 to 14) (size 15 to 20)
#    0.000    0.909    5.455    1.636    5.091    2.182 
#    0.000    0.000    0.000    3.273    0.000    0.000 
#    0.000    0.000    0.000    0.000    0.000    0.000 
#
# Total GULP energy -545123.564694 kJ/mol
# GULP energy per Si atom -12389.171925 kJ/mol
# Density = 2.083268 g / cm^3
# Si number density = 20.880205 Si / 1000 Ang^3
#
#
#
# Elastic Constant Matrix: (Units=GPa)
#
#
# Indices 1 2 3 4 5 6 
#
# 1 140.1870 60.0788 46.1002 0.0000 0.0000 0.0000
# 2 60.0788 130.7759 60.6282 0.0000 0.0000 0.0000
# 3 46.1002 60.6282 118.5859 0.0000 0.0000 0.0000
# 4 0.0000 0.0000 0.0000 23.0070 0.0000 0.0000
# 5 0.0000 0.0000 0.0000 0.0000 38.2097 0.0000
# 6 0.0000 0.0000 0.0000 0.0000 0.0000 31.7591
#
#
#
# Elastic Compliance Matrix: (Units=1/GPa)
#
#
# Indices 1 2 3 4 5 6 
#
# 1 0.009182 -0.003360 -0.001852 0.000000 0.000000 0.000000
# 2 -0.003360 0.011252 -0.004446 0.000000 0.000000 0.000000
# 3 -0.001852 -0.004446 0.011426 0.000000 0.000000 0.000000
# 4 0.000000 0.000000 0.000000 0.043465 0.000000 0.000000
# 5 0.000000 0.000000 0.000000 0.000000 0.026171 0.000000
# 6 0.000000 0.000000 0.000000 0.000000 0.000000 0.031487
#
#
# Mechanical properties :
#
#
# Convention : Reuss Voigt Hill
#
# Bulk Modulus (GPa) = 79.72195 80.35149 80.03672
# Shear Modulus (GPa) = 31.95296 33.44460 32.69878
#
# Velocity S-wave (km/s) = 3.91615 4.00651 3.96159
# Velocity P-wave (km/s) = 7.66236 7.74394 7.70326
#
# Compressibility (1/GPa) = 0.01254360
#
# Stress axis : x y z
#
# Youngs Moduli (GPa) = 108.90647 88.87699 87.52093
#
# Poissons Ratio (x) = 0.29861 0.16207
# Poissons Ratio (y) = 0.36590 0.38915
# Poissons Ratio (z) = 0.20168 0.39518
#
# Static dielectric constant tensor:
#      x y z
#    x 4.747120 0.000000 0.000000 
#    y 0.000000 3.788900 0.000000 
#    z 0.000000 0.000000 4.042790 
# 
# 
# High freq. dielectric constant tensor:
#      x y z
#    x 1.845990 0.000000 0.000000 
#    y 0.000000 1.796530 0.000000 
#    z 0.000000 0.000000 1.820170 
# 
# From -- ./inp_files/51228.got.cif
#   From: 2010.03.12/outbox.cif.g09.slc.cpg/sg70_26_cif.got.tgz:51228.got - 2010.04.16 13:46:32.
