data_PCOD8286229
_publ_section_title
;
Structure prediction by ZEFSAII (Michael W. Deem and Ramdas Pophale) SiO2 
 PCOD8286229
Probable space group: F D D D
;
_chemical_formula_sum "Si O2"
_cell_formula_units_Z 160
_cell_length_a 13.793966
_cell_length_b 24.559891
_cell_length_c 24.068071
_cell_angle_alpha 90.000000
_cell_angle_beta 90.000000
_cell_angle_gamma 90.000000
_cell_volume 8153.740212
_symmetry_space_group_name_H-M "F D D D"
_symmetry_group_IT_number 70
_space_group.IT_coordinate_system_code '2'
_symmetry_cell_setting 'orthorhombic'
loop_
_space_group_symop_operation_xyz
x,y,z
1/4-x,1/4-y,z
x,1/4-y,1/4-z
1/4-x,y,1/4-z
-x,-y,-z
3/4+x,3/4+y,-z
-x,3/4+y,3/4+z
3/4+x,-y,3/4+z
x,1/2+y,1/2+z
1/4-x,3/4-y,1/2+z
x,3/4-y,3/4-z
1/4-x,1/2+y,3/4-z
-x,1/2-y,1/2-z
3/4+x,1/4+y,1/2-z
-x,1/4+y,1/4+z
3/4+x,1/2-y,1/4+z
1/2+x,y,1/2+z
3/4-x,1/4-y,1/2+z
1/2+x,1/4-y,3/4-z
3/4-x,y,3/4-z
1/2-x,-y,1/2-z
1/4+x,3/4+y,1/2-z
1/2-x,3/4+y,1/4+z
1/4+x,-y,1/4+z
1/2+x,1/2+y,z
3/4-x,3/4-y,z
1/2+x,3/4-y,1/4-z
3/4-x,1/2+y,1/4-z
1/2-x,1/2-y,-z
1/4+x,1/4+y,-z
1/2-x,1/4+y,3/4+z
1/4+x,1/2-y,3/4+z
loop_
_atom_site_type_symbol
_atom_site_label
_atom_site_fract_x
_atom_site_fract_y
_atom_site_fract_z
Si Si1 0.753151 0.767439 0.237084
Si Si2 0.283911 0.843837 0.209609
Si Si3 0.273014 0.436090 0.396423
Si Si4 0.680541 0.447724 0.180664
Si Si5 0.383233 0.772414 0.124354
O O1 0.763772 0.704473 0.254582
O O2 0.775930 0.809303 0.286772
O O3 0.639145 0.770784 0.222773
O O4 0.825837 0.783495 0.187311
O O5 0.375000 0.875000 0.238676
O O6 0.200249 0.887914 0.204253
O O7 0.317839 0.821898 0.148371
O O8 0.261370 0.375000 0.375000
O O9 0.375000 0.460852 0.375000
O O10 0.181024 0.468292 0.372252
O O11 0.625000 0.436199 0.125000
O O12 0.777007 0.483576 0.167968
#
# Coordination Sequence:
#
# PCOD8286229 Si02
#       5
#    32  32  32  32  32
#     4  10  21  38  63  87 121 159 192 253 305 352
#     4   9  19  34  55  87 116 150 197 241 288 356
#     4  10  23  41  54  85 124 155 200 244 291 362
#     4   9  19  38  60  90 118 149 203 252 296 357
#     4   9  20  39  60  86 118 151 200 246 293 357
#
# _framework density 19.622896999999998
#
# number of rings (size 3 to 8) (size 9 to 14) (size 15 to 20)
#    0.000    2.600    0.000    0.000    2.800   11.200 
#   18.000    0.000    0.000    0.000    0.000    0.000 
#    0.000    0.000    0.000    0.000    0.000    0.000 
#
# Total GULP energy -495680.996610 kJ/mol
# GULP energy per Si atom -12392.024915 kJ/mol
# Density = 1.957823 g / cm^3
# Si number density = 19.622897 Si / 1000 Ang^3
#
#
#
# Elastic Constant Matrix: (Units=GPa)
#
#
# Indices 1 2 3 4 5 6 
#
# 1 106.0798 39.0927 40.1107 0.0000 0.0000 0.0000
# 2 39.0927 84.4006 19.9905 0.0000 0.0000 0.0000
# 3 40.1107 19.9905 104.2860 0.0000 0.0000 0.0000
# 4 0.0000 0.0000 0.0000 18.4385 0.0000 0.0000
# 5 0.0000 0.0000 0.0000 0.0000 2.1763 0.0000
# 6 0.0000 0.0000 0.0000 0.0000 0.0000 24.9528
#
#
#
# Elastic Compliance Matrix: (Units=1/GPa)
#
#
# Indices 1 2 3 4 5 6 
#
# 1 0.012753 -0.004971 -0.003952 0.000000 0.000000 0.000000
# 2 -0.004971 0.014349 -0.000839 0.000000 0.000000 0.000000
# 3 -0.003952 -0.000839 0.011270 0.000000 0.000000 0.000000
# 4 0.000000 0.000000 0.000000 0.054234 0.000000 0.000000
# 5 0.000000 0.000000 0.000000 0.000000 0.459501 0.000000
# 6 0.000000 0.000000 0.000000 0.000000 0.000000 0.040076
#
#
# Mechanical properties :
#
#
# Convention : Reuss Voigt Hill
#
# Bulk Modulus (GPa) = 53.05419 54.79492 53.92456
# Shear Modulus (GPa) = 8.09074 22.15169 15.12122
#
# Velocity S-wave (km/s) = 2.03275 3.36351 2.77896
# Velocity P-wave (km/s) = 5.71008 6.56269 6.15117
#
# Compressibility (1/GPa) = 0.01884865
#
# Stress axis : x y z
#
# Youngs Moduli (GPa) = 78.41180 69.68965 88.73182
#
# Poissons Ratio (x) = 0.34642 0.35069
# Poissons Ratio (y) = 0.38978 0.07442
# Poissons Ratio (z) = 0.30991 0.05845
#
# Static dielectric constant tensor:
#      x y z
#    x 4.069400 0.000000 0.000000 
#    y 0.000000 3.421730 0.000000 
#    z 0.000000 0.000000 3.528230 
# 
# 
# High freq. dielectric constant tensor:
#      x y z
#    x 1.775190 0.000000 0.000000 
#    y 0.000000 1.757120 0.000000 
#    z 0.000000 0.000000 1.754850 
# 
# From -- ./inp_files/28623.got.cif
#   From: 2010.03.12/outbox.cif.g09.slc.cpg/sg70_15_cif.got.tgz:28623.got - 2010.04.16 13:46:32.
