data_PCOD8286821
_publ_section_title
;
Structure prediction by ZEFSAII (Michael W. Deem and Ramdas Pophale) SiO2 
 PCOD8286821
Probable space group: F D D D
;
_chemical_formula_sum "Si O2"
_cell_formula_units_Z 160
_cell_length_a 9.952125
_cell_length_b 27.440414
_cell_length_c 28.230911
_cell_angle_alpha 90.000000
_cell_angle_beta 90.000000
_cell_angle_gamma 90.000000
_cell_volume 7709.591629
_symmetry_space_group_name_H-M "F D D D"
_symmetry_group_IT_number 70
_space_group.IT_coordinate_system_code '2'
_symmetry_cell_setting 'orthorhombic'
loop_
_space_group_symop_operation_xyz
x,y,z
1/4-x,1/4-y,z
x,1/4-y,1/4-z
1/4-x,y,1/4-z
-x,-y,-z
3/4+x,3/4+y,-z
-x,3/4+y,3/4+z
3/4+x,-y,3/4+z
x,1/2+y,1/2+z
1/4-x,3/4-y,1/2+z
x,3/4-y,3/4-z
1/4-x,1/2+y,3/4-z
-x,1/2-y,1/2-z
3/4+x,1/4+y,1/2-z
-x,1/4+y,1/4+z
3/4+x,1/2-y,1/4+z
1/2+x,y,1/2+z
3/4-x,1/4-y,1/2+z
1/2+x,1/4-y,3/4-z
3/4-x,y,3/4-z
1/2-x,-y,1/2-z
1/4+x,3/4+y,1/2-z
1/2-x,3/4+y,1/4+z
1/4+x,-y,1/4+z
1/2+x,1/2+y,z
3/4-x,3/4-y,z
1/2+x,3/4-y,1/4-z
3/4-x,1/2+y,1/4-z
1/2-x,1/2-y,-z
1/4+x,1/4+y,-z
1/2-x,1/4+y,3/4+z
1/4+x,1/2-y,3/4+z
loop_
_atom_site_type_symbol
_atom_site_label
_atom_site_fract_x
_atom_site_fract_y
_atom_site_fract_z
Si Si1 0.379992 0.025136 0.973072
Si Si2 0.881238 0.226812 0.478893
Si Si3 0.375000 0.471459 0.375000
Si Si4 0.285523 0.619890 0.244060
Si Si5 0.125000 0.004136 0.125000
Si Si6 0.889348 0.577212 0.647615
O O1 0.372275 0.005087 0.920574
O O2 0.416142 0.082693 0.964840
O O3 0.500000 0.000000 0.000000
O O4 0.249179 0.013259 0.004845
O O5 0.750000 0.250000 0.500000
O O6 0.901226 0.172845 0.499757
O O7 0.856764 0.221591 0.422143
O O8 0.245958 0.437069 0.379947
O O9 0.350039 0.589389 0.201033
O O10 0.125000 0.625000 0.239828
O O11 0.254256 0.035061 0.110443
O O12 0.954083 0.625000 0.625000
#
# Coordination Sequence:
#
# PCOD8286821 Si02
#       6
#    32  32  16  32  16  32
#     4  12  23  45  70 104 142 185 241 303 355 431
#     4  12  26  45  70 105 148 187 234 300 366 432
#     4  12  23  41  72 104 136 182 236 308 354 412
#     4  12  24  44  75 102 140 191 247 301 361 433
#     4  12  25  45  66  98 150 188 222 294 370 426
#     4  12  23  40  68 102 134 181 243 291 352 421
#
# _framework density 20.753367999999998
#
# number of rings (size 3 to 8) (size 9 to 14) (size 15 to 20)
#    0.000    0.000    6.000    5.400    0.000    1.600 
#    0.000    0.000    0.000    0.000    0.000    0.000 
#    0.000    0.000    0.000    0.000    0.000    0.000 
#
# Total GULP energy -495765.916627 kJ/mol
# GULP energy per Si atom -12394.147916 kJ/mol
# Density = 2.070613 g / cm^3
# Si number density = 20.753368 Si / 1000 Ang^3
#
#
#
# Elastic Constant Matrix: (Units=GPa)
#
#
# Indices 1 2 3 4 5 6 
#
# 1 143.0341 55.6506 41.0469 0.0000 0.0000 0.0000
# 2 55.6506 136.7322 24.6286 0.0000 0.0000 0.0000
# 3 41.0469 24.6286 132.0105 0.0000 0.0000 0.0000
# 4 0.0000 0.0000 0.0000 38.6919 0.0000 0.0000
# 5 0.0000 0.0000 0.0000 0.0000 26.7262 0.0000
# 6 0.0000 0.0000 0.0000 0.0000 0.0000 32.4317
#
#
#
# Elastic Compliance Matrix: (Units=1/GPa)
#
#
# Indices 1 2 3 4 5 6 
#
# 1 0.008862 -0.003219 -0.002155 0.000000 0.000000 0.000000
# 2 -0.003219 0.008737 -0.000629 0.000000 0.000000 0.000000
# 3 -0.002155 -0.000629 0.008363 0.000000 0.000000 0.000000
# 4 0.000000 0.000000 0.000000 0.025845 0.000000 0.000000
# 5 0.000000 0.000000 0.000000 0.000000 0.037416 0.000000
# 6 0.000000 0.000000 0.000000 0.000000 0.000000 0.030834
#
#
# Mechanical properties :
#
#
# Convention : Reuss Voigt Hill
#
# Bulk Modulus (GPa) = 71.65524 72.71434 72.18479
# Shear Modulus (GPa) = 36.57237 38.93333 37.75285
#
# Velocity S-wave (km/s) = 4.20246 4.33598 4.26974
# Velocity P-wave (km/s) = 7.62558 7.75765 7.69190
#
# Compressibility (1/GPa) = 0.01395571
#
# Stress axis : x y z
#
# Youngs Moduli (GPa) = 112.83999 114.45656 119.57977
#
# Poissons Ratio (x) = 0.36841 0.25770
# Poissons Ratio (y) = 0.36320 0.07524
# Poissons Ratio (z) = 0.24318 0.07201
#
# Static dielectric constant tensor:
#      x y z
#    x 4.429020 0.000000 0.000000 
#    y 0.000000 3.404870 0.000000 
#    z 0.000000 0.000000 4.117290 
# 
# 
# High freq. dielectric constant tensor:
#      x y z
#    x 1.824500 0.000000 0.000000 
#    y 0.000000 1.818130 0.000000 
#    z 0.000000 0.000000 1.820370 
# 
# From -- ./inp_files/63910.got.cif
#   From: 2010.03.12/outbox.cif.g09.slc.cpg/sg70_32_cif.got.tgz:63910.got - 2010.04.16 13:46:32.
