data_PCOD8286279
_publ_section_title
;
Structure prediction by ZEFSAII (Michael W. Deem and Ramdas Pophale) SiO2 
 PCOD8286279
Probable space group: F D D D
;
_chemical_formula_sum "Si O2"
_cell_formula_units_Z 104
_cell_length_a 18.364420
_cell_length_b 7.561371
_cell_length_c 28.191043
_cell_angle_alpha 90.000000
_cell_angle_beta 90.000000
_cell_angle_gamma 90.000000
_cell_volume 3914.613667
_symmetry_space_group_name_H-M "F D D D"
_symmetry_group_IT_number 70
_space_group.IT_coordinate_system_code '2'
_symmetry_cell_setting 'orthorhombic'
loop_
_space_group_symop_operation_xyz
x,y,z
1/4-x,1/4-y,z
x,1/4-y,1/4-z
1/4-x,y,1/4-z
-x,-y,-z
3/4+x,3/4+y,-z
-x,3/4+y,3/4+z
3/4+x,-y,3/4+z
x,1/2+y,1/2+z
1/4-x,3/4-y,1/2+z
x,3/4-y,3/4-z
1/4-x,1/2+y,3/4-z
-x,1/2-y,1/2-z
3/4+x,1/4+y,1/2-z
-x,1/4+y,1/4+z
3/4+x,1/2-y,1/4+z
1/2+x,y,1/2+z
3/4-x,1/4-y,1/2+z
1/2+x,1/4-y,3/4-z
3/4-x,y,3/4-z
1/2-x,-y,1/2-z
1/4+x,3/4+y,1/2-z
1/2-x,3/4+y,1/4+z
1/4+x,-y,1/4+z
1/2+x,1/2+y,z
3/4-x,3/4-y,z
1/2+x,3/4-y,1/4-z
3/4-x,1/2+y,1/4-z
1/2-x,1/2-y,-z
1/4+x,1/4+y,-z
1/2-x,1/4+y,3/4+z
1/4+x,1/2-y,3/4+z
loop_
_atom_site_type_symbol
_atom_site_label
_atom_site_fract_x
_atom_site_fract_y
_atom_site_fract_z
Si Si1 0.625000 0.125000 0.125000
Si Si2 0.499476 0.887998 0.154048
Si Si3 0.840403 0.052875 0.019071
Si Si4 0.726203 0.984970 0.946019
O O1 0.674216 0.257354 0.156270
O O2 0.470097 0.852006 0.101157
O O3 0.509744 0.707541 0.183778
O O4 0.440299 0.013112 0.178439
O O5 0.898546 0.210072 0.027186
O O6 0.875000 0.875000 0.997951
O O7 0.777121 0.099516 0.981331
#
# Coordination Sequence:
#
# PCOD8286279 Si02
#       4
#     8  32  32  32
#     4  12  28  42  68 104 148 182 250 300 368 418
#     4  10  24  43  69 103 146 195 241 302 370 446
#     4  10  21  41  74 111 139 185 249 305 362 449
#     4  10  23  43  80 104 143 193 251 300 373 448
#
# _framework density 26.567119000000002
#
# number of rings (size 3 to 8) (size 9 to 14) (size 15 to 20)
#    0.000    1.846    0.000    3.692    8.615    8.615 
#    0.000    1.538   23.692    0.000    0.000    0.000 
#    0.000    0.000    0.000    0.000    0.000    0.000 
#
# Total GULP energy -322315.649936 kJ/mol
# GULP energy per Si atom -12396.755767 kJ/mol
# Density = 2.650665 g / cm^3
# Si number density = 26.567119 Si / 1000 Ang^3
#
#
#
# Elastic Constant Matrix: (Units=GPa)
#
#
# Indices 1 2 3 4 5 6 
#
# 1 162.2600 28.1645 89.4458 0.0000 0.0000 0.0000
# 2 28.1645 93.2525 24.1212 0.0000 0.0000 0.0001
# 3 89.4458 24.1212 178.9504 0.0000 0.0000 0.0000
# 4 0.0000 0.0000 0.0000 6.4985 0.0000 0.0000
# 5 0.0000 0.0000 0.0000 0.0000 50.9713 0.0000
# 6 0.0000 0.0001 0.0000 0.0000 0.0000 14.9288
#
#
#
# Elastic Compliance Matrix: (Units=1/GPa)
#
#
# Indices 1 2 3 4 5 6 
#
# 1 0.008721 -0.001561 -0.004149 0.000000 0.000000 0.000000
# 2 -0.001561 0.011390 -0.000755 0.000000 0.000000 0.000000
# 3 -0.004149 -0.000755 0.007764 0.000000 0.000000 0.000000
# 4 0.000000 0.000000 0.000000 0.153882 0.000000 0.000000
# 5 0.000000 0.000000 0.000000 0.000000 0.019619 0.000000
# 6 0.000000 0.000000 0.000000 0.000000 0.000000 0.066985
#
#
# Mechanical properties :
#
#
# Convention : Reuss Voigt Hill
#
# Bulk Modulus (GPa) = 66.90969 79.76954 73.33962
# Shear Modulus (GPa) = 17.46596 33.99515 25.73055
#
# Velocity S-wave (km/s) = 2.56682 3.58102 3.11547
# Velocity P-wave (km/s) = 5.83306 6.86944 6.37235
#
# Compressibility (1/GPa) = 0.01494552
#
# Stress axis : x y z
#
# Youngs Moduli (GPa) = 114.66890 87.79390 128.80729
#
# Poissons Ratio (x) = 0.13703 0.53437
# Poissons Ratio (y) = 0.17897 0.09727
# Poissons Ratio (z) = 0.47571 0.06630
#
# Static dielectric constant tensor:
#      x y z
#    x 5.042170 0.000000 0.000000 
#    y 0.000000 4.729820 0.000000 
#    z 0.000000 0.000000 4.585630 
# 
# 
# High freq. dielectric constant tensor:
#      x y z
#    x 2.067230 0.000000 0.000000 
#    y 0.000000 2.066940 0.000000 
#    z 0.000000 0.000000 2.067280 
# 
# From -- ./inp_files/10610.got.cif
#   From: 2010.03.12/outbox.cif.g09.slc.cpg/sg70_6_cif.got.tgz:10610.got - 2010.04.16 13:46:32.
