data_PCOD8286522
_publ_section_title
;
Structure prediction by ZEFSAII (Michael W. Deem and Ramdas Pophale) SiO2 
 PCOD8286522
Probable space group: F D D D
;
_chemical_formula_sum "Si O2"
_cell_formula_units_Z 104
_cell_length_a 30.259016
_cell_length_b 8.612247
_cell_length_c 17.153814
_cell_angle_alpha 90.000000
_cell_angle_beta 90.000000
_cell_angle_gamma 90.000000
_cell_volume 4470.251675
_symmetry_space_group_name_H-M "F D D D"
_symmetry_group_IT_number 70
_space_group.IT_coordinate_system_code '2'
_symmetry_cell_setting 'orthorhombic'
loop_
_space_group_symop_operation_xyz
x,y,z
1/4-x,1/4-y,z
x,1/4-y,1/4-z
1/4-x,y,1/4-z
-x,-y,-z
3/4+x,3/4+y,-z
-x,3/4+y,3/4+z
3/4+x,-y,3/4+z
x,1/2+y,1/2+z
1/4-x,3/4-y,1/2+z
x,3/4-y,3/4-z
1/4-x,1/2+y,3/4-z
-x,1/2-y,1/2-z
3/4+x,1/4+y,1/2-z
-x,1/4+y,1/4+z
3/4+x,1/2-y,1/4+z
1/2+x,y,1/2+z
3/4-x,1/4-y,1/2+z
1/2+x,1/4-y,3/4-z
3/4-x,y,3/4-z
1/2-x,-y,1/2-z
1/4+x,3/4+y,1/2-z
1/2-x,3/4+y,1/4+z
1/4+x,-y,1/4+z
1/2+x,1/2+y,z
3/4-x,3/4-y,z
1/2+x,3/4-y,1/4-z
3/4-x,1/2+y,1/4-z
1/2-x,1/2-y,-z
1/4+x,1/4+y,-z
1/2-x,1/4+y,3/4+z
1/4+x,1/2-y,3/4+z
loop_
_atom_site_type_symbol
_atom_site_label
_atom_site_fract_x
_atom_site_fract_y
_atom_site_fract_z
Si Si1 0.171014 0.709649 0.414788
Si Si2 0.875000 0.875000 0.375000
Si Si3 0.247409 0.787883 0.089829
Si Si4 0.082743 0.417837 0.582892
O O1 0.125000 0.625000 0.403092
O O2 0.207320 0.599208 0.376528
O O3 0.180901 0.738523 0.506118
O O4 0.170035 0.875000 0.375000
O O5 0.903699 0.763756 0.432893
O O6 0.233648 0.625000 0.125000
O O7 0.209295 0.915546 0.108499
O O8 0.250000 0.750000 0.000000
O O9 0.125000 0.499527 0.625000
#
# Coordination Sequence:
#
# PCOD8286522 Si02
#       4
#    32   8  32  32
#     4  12  29  46  74 111 154 195 256 314 374 446
#     4   8  20  40  78  96 144 192 248 276 388 428
#     4  12  26  48  79 110 152 200 248 307 378 451
#     4  10  23  46  76 106 148 198 246 301 376 445
#
# _framework density 23.264908999999999
#
# number of rings (size 3 to 8) (size 9 to 14) (size 15 to 20)
#    0.923    0.000    1.538    3.692   10.769    0.615 
#    0.000    0.000    0.000    0.000    0.000    0.000 
#    0.000    0.000    0.000    0.000    0.000    0.000 
#
# Total GULP energy -322159.864087 kJ/mol
# GULP energy per Si atom -12390.764003 kJ/mol
# Density = 2.321196 g / cm^3
# Si number density = 23.264909 Si / 1000 Ang^3
#
#
#
# Elastic Constant Matrix: (Units=GPa)
#
#
# Indices 1 2 3 4 5 6 
#
# 1 191.0463 22.2008 82.7997 0.0000 0.0000 0.0000
# 2 22.2008 70.7264 32.1188 0.0000 0.0000 0.0000
# 3 82.7997 32.1188 195.0506 0.0000 0.0000 0.0000
# 4 0.0000 0.0000 0.0000 44.2525 0.0000 0.0000
# 5 0.0000 0.0000 0.0000 0.0000 36.0120 0.0000
# 6 0.0000 0.0000 0.0000 0.0000 0.0000 120.0030
#
#
#
# Elastic Compliance Matrix: (Units=1/GPa)
#
#
# Indices 1 2 3 4 5 6 
#
# 1 0.006461 -0.000846 -0.002603 0.000000 0.000000 0.000000
# 2 -0.000846 0.015393 -0.002176 0.000000 0.000000 0.000000
# 3 -0.002603 -0.002176 0.006590 0.000000 0.000000 0.000000
# 4 0.000000 0.000000 0.000000 0.022598 0.000000 0.000000
# 5 0.000000 0.000000 0.000000 0.000000 0.027769 0.000000
# 6 0.000000 0.000000 0.000000 0.000000 0.000000 0.008333
#
#
# Mechanical properties :
#
#
# Convention : Reuss Voigt Hill
#
# Bulk Modulus (GPa) = 58.15959 81.22911 69.69435
# Shear Modulus (GPa) = 48.01966 61.36710 54.69338
#
# Velocity S-wave (km/s) = 4.54810 5.14148 4.85386
# Velocity P-wave (km/s) = 7.25489 8.38076 7.83806
#
# Compressibility (1/GPa) = 0.01719407
#
# Stress axis : x y z
#
# Youngs Moduli (GPa) = 154.77614 64.96669 151.73826
#
# Poissons Ratio (x) = 0.05495 0.39504
# Poissons Ratio (y) = 0.13091 0.33013
# Poissons Ratio (z) = 0.40295 0.14134
#
# Static dielectric constant tensor:
#      x y z
#    x 4.299750 0.000000 0.000000 
#    y 0.000000 4.457320 0.000000 
#    z 0.000000 0.000000 4.255950 
# 
# 
# High freq. dielectric constant tensor:
#      x y z
#    x 1.935950 0.000000 0.000000 
#    y 0.000000 1.936050 0.000000 
#    z 0.000000 0.000000 1.910880 
# 
# From -- ./inp_files/39300.got.cif
#   From: 2010.03.12/outbox.cif.g09.slc.cpg/sg70_20_cif.got.tgz:39300.got - 2010.04.16 13:46:32.
