data_PCOD8286505
_publ_section_title
;
Structure prediction by ZEFSAII (Michael W. Deem and Ramdas Pophale) SiO2 
 PCOD8286505
Probable space group: F D D D
;
_chemical_formula_sum "Si O2"
_cell_formula_units_Z 176
_cell_length_a 23.506526
_cell_length_b 11.521810
_cell_length_c 25.826390
_cell_angle_alpha 90.000000
_cell_angle_beta 90.000000
_cell_angle_gamma 90.000000
_cell_volume 6994.760747
_symmetry_space_group_name_H-M "F D D D"
_symmetry_group_IT_number 70
_space_group.IT_coordinate_system_code '2'
_symmetry_cell_setting 'orthorhombic'
loop_
_space_group_symop_operation_xyz
x,y,z
1/4-x,1/4-y,z
x,1/4-y,1/4-z
1/4-x,y,1/4-z
-x,-y,-z
3/4+x,3/4+y,-z
-x,3/4+y,3/4+z
3/4+x,-y,3/4+z
x,1/2+y,1/2+z
1/4-x,3/4-y,1/2+z
x,3/4-y,3/4-z
1/4-x,1/2+y,3/4-z
-x,1/2-y,1/2-z
3/4+x,1/4+y,1/2-z
-x,1/4+y,1/4+z
3/4+x,1/2-y,1/4+z
1/2+x,y,1/2+z
3/4-x,1/4-y,1/2+z
1/2+x,1/4-y,3/4-z
3/4-x,y,3/4-z
1/2-x,-y,1/2-z
1/4+x,3/4+y,1/2-z
1/2-x,3/4+y,1/4+z
1/4+x,-y,1/4+z
1/2+x,1/2+y,z
3/4-x,3/4-y,z
1/2+x,3/4-y,1/4-z
3/4-x,1/2+y,1/4-z
1/2-x,1/2-y,-z
1/4+x,1/4+y,-z
1/2-x,1/4+y,3/4+z
1/4+x,1/2-y,3/4+z
loop_
_atom_site_type_symbol
_atom_site_label
_atom_site_fract_x
_atom_site_fract_y
_atom_site_fract_z
Si Si1 0.006983 0.168654 0.367946
Si Si2 0.854299 0.624853 0.513262
Si Si3 0.563439 0.640408 0.786576
Si Si4 0.825653 0.466376 0.306126
Si Si5 0.405604 0.125000 0.625000
Si Si6 0.743364 0.197472 0.759165
O O1 0.013512 0.091609 0.420140
O O2 0.057538 0.259556 0.373289
O O3 0.011420 0.086847 0.318594
O O4 0.946165 0.236553 0.362444
O O5 0.822320 0.747354 0.499211
O O6 0.909165 0.581814 0.478866
O O7 0.866361 0.625740 0.574291
O O8 0.808763 0.530708 0.497621
O O9 0.625000 0.625000 0.814017
O O10 0.551088 0.520187 0.754608
O O11 0.875000 0.375000 0.314285
O O12 0.769028 0.410483 0.279498
#
# Coordination Sequence:
#
# PCOD8286505 Si02
#       6
#    32  32  32  32  16  32
#     4  12  24  40  69 106 144 186 244 306 369 443
#     4  11  23  42  69 103 148 187 246 305 373 440
#     4  12  25  43  68 105 145 191 248 309 368 446
#     4  10  23  44  70 102 145 193 240 301 370 454
#     4  12  22  38  71 106 139 182 248 314 362 440
#     4  11  24  43  69 104 147 194 242 300 378 449
#
# _framework density 25.161688999999999
#
# number of rings (size 3 to 8) (size 9 to 14) (size 15 to 20)
#    0.000    0.727    3.636    4.364    0.000    0.000 
#    0.000   10.455    0.000    0.000    0.000    4.455 
#    0.000    0.000    0.000    0.000    0.000    0.000 
#
# Total GULP energy -545147.029806 kJ/mol
# GULP energy per Si atom -12389.705223 kJ/mol
# Density = 2.510442 g / cm^3
# Si number density = 25.161689 Si / 1000 Ang^3
#
#
#
# Elastic Constant Matrix: (Units=GPa)
#
#
# Indices 1 2 3 4 5 6 
#
# 1 94.8176 60.0308 45.7423 0.0000 0.0000 0.0000
# 2 60.0308 124.8217 40.5791 0.0000 0.0000 0.0000
# 3 45.7423 40.5791 103.5379 0.0000 0.0000 0.0000
# 4 0.0000 0.0000 0.0000 34.7844 0.0000 0.0000
# 5 0.0000 0.0000 0.0000 0.0000 38.9625 0.0000
# 6 0.0000 0.0000 0.0000 0.0000 0.0000 29.8780
#
#
#
# Elastic Compliance Matrix: (Units=1/GPa)
#
#
# Indices 1 2 3 4 5 6 
#
# 1 0.017143 -0.006627 -0.004976 0.000000 0.000000 0.000000
# 2 -0.006627 0.011743 -0.001675 0.000000 0.000000 0.000000
# 3 -0.004976 -0.001675 0.012513 0.000000 0.000000 0.000000
# 4 0.000000 0.000000 0.000000 0.028748 0.000000 0.000000
# 5 0.000000 0.000000 0.000000 0.000000 0.025666 0.000000
# 6 0.000000 0.000000 0.000000 0.000000 0.000000 0.033469
#
#
# Mechanical properties :
#
#
# Convention : Reuss Voigt Hill
#
# Bulk Modulus (GPa) = 67.37066 68.43130 67.90098
# Shear Modulus (GPa) = 31.09728 32.51333 31.80530
#
# Velocity S-wave (km/s) = 3.51935 3.59858 3.55919
# Velocity P-wave (km/s) = 6.58389 6.67249 6.62834
#
# Compressibility (1/GPa) = 0.01484326
#
# Stress axis : x y z
#
# Youngs Moduli (GPa) = 58.33354 85.15808 79.91573
#
# Poissons Ratio (x) = 0.56432 0.39769
# Poissons Ratio (y) = 0.38656 0.13383
# Poissons Ratio (z) = 0.29029 0.14261
#
# Static dielectric constant tensor:
#      x y z
#    x 4.961460 0.000000 0.000000 
#    y 0.000000 5.495610 0.000000 
#    z 0.000000 0.000000 4.451100 
# 
# 
# High freq. dielectric constant tensor:
#      x y z
#    x 2.017400 0.000000 0.000000 
#    y 0.000000 2.025910 0.000000 
#    z 0.000000 0.000000 1.981400 
# 
# From -- ./inp_files/61657.got.cif
#   From: 2010.03.12/outbox.cif.g09.slc.cpg/sg70_31_cif.got.tgz:61657.got - 2010.04.16 13:46:32.
