data_PCOD8286250
_publ_section_title
;
Structure prediction by ZEFSAII (Michael W. Deem and Ramdas Pophale) SiO2 
 PCOD8286250
Probable space group: F D D D
;
_chemical_formula_sum "Si O2"
_cell_formula_units_Z 192
_cell_length_a 25.651765
_cell_length_b 25.033117
_cell_length_c 12.452121
_cell_angle_alpha 90.000000
_cell_angle_beta 90.000000
_cell_angle_gamma 90.000000
_cell_volume 7996.050236
_symmetry_space_group_name_H-M "F D D D"
_symmetry_group_IT_number 70
_space_group.IT_coordinate_system_code '2'
_symmetry_cell_setting 'orthorhombic'
loop_
_space_group_symop_operation_xyz
x,y,z
1/4-x,1/4-y,z
x,1/4-y,1/4-z
1/4-x,y,1/4-z
-x,-y,-z
3/4+x,3/4+y,-z
-x,3/4+y,3/4+z
3/4+x,-y,3/4+z
x,1/2+y,1/2+z
1/4-x,3/4-y,1/2+z
x,3/4-y,3/4-z
1/4-x,1/2+y,3/4-z
-x,1/2-y,1/2-z
3/4+x,1/4+y,1/2-z
-x,1/4+y,1/4+z
3/4+x,1/2-y,1/4+z
1/2+x,y,1/2+z
3/4-x,1/4-y,1/2+z
1/2+x,1/4-y,3/4-z
3/4-x,y,3/4-z
1/2-x,-y,1/2-z
1/4+x,3/4+y,1/2-z
1/2-x,3/4+y,1/4+z
1/4+x,-y,1/4+z
1/2+x,1/2+y,z
3/4-x,3/4-y,z
1/2+x,3/4-y,1/4-z
3/4-x,1/2+y,1/4-z
1/2-x,1/2-y,-z
1/4+x,1/4+y,-z
1/2-x,1/4+y,3/4+z
1/4+x,1/2-y,3/4+z
loop_
_atom_site_type_symbol
_atom_site_label
_atom_site_fract_x
_atom_site_fract_y
_atom_site_fract_z
Si Si1 0.125000 0.404363 0.625000
Si Si2 0.731108 0.179246 0.081599
Si Si3 0.092984 0.813161 0.983975
Si Si4 0.125000 0.025395 0.625000
Si Si5 0.558311 0.274012 0.762268
Si Si6 0.762538 0.459193 0.600854
Si Si7 0.115248 0.682085 0.501156
O O1 0.127424 0.365932 0.518383
O O2 0.173903 0.444805 0.652291
O O3 0.756900 0.125000 0.125000
O O4 0.674414 0.186534 0.133418
O O5 0.766994 0.228498 0.117581
O O6 0.725194 0.173660 0.954314
O O7 0.128198 0.761600 0.016326
O O8 0.043504 0.810120 0.062566
O O9 0.069139 0.814128 0.863196
O O10 0.500000 0.250000 0.750000
O O11 0.595048 0.225097 0.795715
O O12 0.805476 0.449387 0.510546
O O13 0.125000 0.625000 0.443563
O O14 0.125000 0.675882 0.625000
#
# Coordination Sequence:
#
# PCOD8286250 Si02
#       7
#    16  32  32  16  32  32  32
#     4  11  26  48  74 112 152 214 256 321 410 486
#     4  10  21  39  67 102 140 192 237 311 372 462
#     4  10  23  44  73 103 154 200 251 330 393 480
#     4   9  19  40  63  98 143 186 255 303 386 460
#     4  12  26  47  77 116 153 202 270 339 399 498
#     4  10  23  42  66 105 144 187 254 307 383 475
#     4  11  25  45  70 101 143 195 245 321 399 471
#
# _framework density 24.011855000000001
#
# number of rings (size 3 to 8) (size 9 to 14) (size 15 to 20)
#    0.000    1.500    0.833    2.750    2.333    6.667 
#    0.000    0.000    0.000    0.000    0.000    0.000 
#    0.000    0.000    0.000    0.000    0.000    0.000 
#
# Total GULP energy -594716.687903 kJ/mol
# GULP energy per Si atom -12389.930998 kJ/mol
# Density = 2.395720 g / cm^3
# Si number density = 24.011855 Si / 1000 Ang^3
#
#
#
# Elastic Constant Matrix: (Units=GPa)
#
#
# Indices 1 2 3 4 5 6 
#
# 1 94.7554 44.2111 38.2347 0.0000 0.0000 0.0000
# 2 44.2111 138.4948 49.2168 0.0000 0.0000 0.0000
# 3 38.2347 49.2168 113.8266 0.0001 0.0000 0.0000
# 4 0.0000 0.0000 0.0001 31.9704 0.0000 0.0000
# 5 0.0000 0.0000 0.0000 0.0000 39.8652 0.0000
# 6 0.0000 0.0000 0.0000 0.0000 0.0000 29.2347
#
#
#
# Elastic Compliance Matrix: (Units=1/GPa)
#
#
# Indices 1 2 3 4 5 6 
#
# 1 0.013267 -0.003133 -0.003102 0.000000 0.000000 0.000000
# 2 -0.003133 0.009271 -0.002956 0.000000 0.000000 0.000000
# 3 -0.003102 -0.002956 0.011105 0.000000 0.000000 0.000000
# 4 0.000000 0.000000 0.000000 0.031279 0.000000 0.000000
# 5 0.000000 0.000000 0.000000 0.000000 0.025085 0.000000
# 6 0.000000 0.000000 0.000000 0.000000 0.000000 0.034206
#
#
# Mechanical properties :
#
#
# Convention : Reuss Voigt Hill
#
# Bulk Modulus (GPa) = 65.52440 67.82244 66.67342
# Shear Modulus (GPa) = 33.85655 34.57502 34.21578
#
# Velocity S-wave (km/s) = 3.75906 3.79874 3.77895
# Velocity P-wave (km/s) = 6.79620 6.89545 6.84601
#
# Compressibility (1/GPa) = 0.01526149
#
# Stress axis : x y z
#
# Youngs Moduli (GPa) = 75.37611 107.86126 90.04565
#
# Poissons Ratio (x) = 0.33791 0.27930
# Poissons Ratio (y) = 0.23614 0.26621
# Poissons Ratio (z) = 0.23380 0.31888
#
# Static dielectric constant tensor:
#      x y z
#    x 4.197630 0.000000 0.000000 
#    y 0.000000 4.897820 0.000000 
#    z 0.000000 0.000000 4.343740 
# 
# 
# High freq. dielectric constant tensor:
#      x y z
#    x 1.942920 0.000000 0.000000 
#    y 0.000000 1.962740 0.000000 
#    z 0.000000 0.000000 1.944250 
# 
# From -- ./inp_files/30169.got.cif
#   From: 2010.03.12/outbox.cif.g09.slc.cpg/sg70_16_cif.got.tgz:30169.got - 2010.04.16 13:46:32.
