data_PCOD8286805
_publ_section_title
;
Structure prediction by ZEFSAII (Michael W. Deem and Ramdas Pophale) SiO2 
 PCOD8286805
Probable space group: F D D D
;
_chemical_formula_sum "Si O2"
_cell_formula_units_Z 96
_cell_length_a 26.758073
_cell_length_b 6.393371
_cell_length_c 27.022855
_cell_angle_alpha 90.000000
_cell_angle_beta 90.000000
_cell_angle_gamma 90.000000
_cell_volume 4622.915677
_symmetry_space_group_name_H-M "F D D D"
_symmetry_group_IT_number 70
_space_group.IT_coordinate_system_code '2'
_symmetry_cell_setting 'orthorhombic'
loop_
_space_group_symop_operation_xyz
x,y,z
1/4-x,1/4-y,z
x,1/4-y,1/4-z
1/4-x,y,1/4-z
-x,-y,-z
3/4+x,3/4+y,-z
-x,3/4+y,3/4+z
3/4+x,-y,3/4+z
x,1/2+y,1/2+z
1/4-x,3/4-y,1/2+z
x,3/4-y,3/4-z
1/4-x,1/2+y,3/4-z
-x,1/2-y,1/2-z
3/4+x,1/4+y,1/2-z
-x,1/4+y,1/4+z
3/4+x,1/2-y,1/4+z
1/2+x,y,1/2+z
3/4-x,1/4-y,1/2+z
1/2+x,1/4-y,3/4-z
3/4-x,y,3/4-z
1/2-x,-y,1/2-z
1/4+x,3/4+y,1/2-z
1/2-x,3/4+y,1/4+z
1/4+x,-y,1/4+z
1/2+x,1/2+y,z
3/4-x,3/4-y,z
1/2+x,3/4-y,1/4-z
3/4-x,1/2+y,1/4-z
1/2-x,1/2-y,-z
1/4+x,1/4+y,-z
1/2-x,1/4+y,3/4+z
1/4+x,1/2-y,3/4+z
loop_
_atom_site_type_symbol
_atom_site_label
_atom_site_fract_x
_atom_site_fract_y
_atom_site_fract_z
Si Si1 0.249836 0.125000 0.125000
Si Si2 0.125000 0.125000 0.752903
Si Si3 0.575252 0.008798 0.451610
Si Si4 0.076417 0.499864 0.701980
O O1 0.283972 0.274481 0.091144
O O2 0.215228 0.269085 0.159702
O O3 0.161060 0.267164 0.786904
O O4 0.090415 0.265853 0.717607
O O5 0.625000 0.125000 0.432511
O O6 0.554572 0.123542 0.500759
O O7 0.125000 0.625000 0.682170
#
# Coordination Sequence:
#
# PCOD8286805 Si02
#       4
#    16  16  32  32
#     4  12  21  34  66  90 118 158 199 246 306 350
#     4   8  18  42  63  74 126 162 190 239 304 348
#     4   9  21  39  57  85 123 156 197 248 291 350
#     4   9  20  41  58  85 120 156 196 251 294 352
#
# _framework density 20.766117000000001
#
# number of rings (size 3 to 8) (size 9 to 14) (size 15 to 20)
#    0.000    3.333    0.000    1.500    2.333    1.333 
#    0.000   30.000    0.000    0.000    0.000    0.000 
#    0.000    0.000    0.000    0.000    0.000    0.000 
#
# Total GULP energy -297541.234008 kJ/mol
# GULP energy per Si atom -12397.551417 kJ/mol
# Density = 2.071885 g / cm^3
# Si number density = 20.766117 Si / 1000 Ang^3
#
#
#
# Elastic Constant Matrix: (Units=GPa)
#
#
# Indices 1 2 3 4 5 6 
#
# 1 127.1269 51.5280 95.5989 -0.0002 0.0045 0.0037
# 2 51.5280 141.8311 52.1266 -0.0016 0.0102 0.0077
# 3 95.5989 52.1266 143.5850 -0.0002 0.0007 0.0010
# 4 -0.0002 -0.0016 -0.0002 3.6255 0.0012 0.0016
# 5 0.0045 0.0102 0.0007 0.0012 75.5691 -0.0052
# 6 0.0037 0.0077 0.0010 0.0016 -0.0052 19.0128
#
#
#
# Elastic Compliance Matrix: (Units=1/GPa)
#
#
# Indices 1 2 3 4 5 6 
#
# 1 0.016347 -0.002237 -0.010071 -0.000001 -0.000001 -0.000002
# 2 -0.002237 0.008442 -0.001575 0.000004 -0.000001 -0.000003
# 3 -0.010071 -0.001575 0.014242 -0.000001 0.000001 0.000002
# 4 -0.000001 0.000004 -0.000001 0.275822 -0.000004 -0.000023
# 5 -0.000001 -0.000001 0.000001 -0.000004 0.013233 0.000004
# 6 -0.000002 -0.000003 0.000002 -0.000023 0.000004 0.052596
#
#
# Mechanical properties :
#
#
# Convention : Reuss Voigt Hill
#
# Bulk Modulus (GPa) = 88.78618 90.11666 89.45142
# Shear Modulus (GPa) = 12.12990 33.86078 22.99534
#
# Velocity S-wave (km/s) = 2.41948 4.04242 3.33130
# Velocity P-wave (km/s) = 7.11711 8.07951 7.61353
#
# Compressibility (1/GPa) = 0.01126301
#
# Stress axis : x y z
#
# Youngs Moduli (GPa) = 61.17474 118.44919 70.21533
#
# Poissons Ratio (x) = 0.26501 0.70716
# Poissons Ratio (y) = 0.13687 0.11061
# Poissons Ratio (z) = 0.61611 0.18659
#
# Static dielectric constant tensor:
#      x y z
#    x 3.711200 0.000000 0.000000 
#    y 0.000000 3.531180 0.000000 
#    z 0.000000 0.000000 3.717990 
# 
# 
# High freq. dielectric constant tensor:
#      x y z
#    x 1.811510 0.000000 0.000000 
#    y 0.000000 1.795790 0.000000 
#    z 0.000000 0.000000 1.811200 
# 
# From -- ./inp_files/3996.got.cif
#   From: 2010.03.12/outbox.cif.g09.slc.cpg/sg70_2_cif.got.tgz:3996.got - 2010.04.16 13:46:32.
