data_PCOD8286247
_publ_section_title
;
Structure prediction by ZEFSAII (Michael W. Deem and Ramdas Pophale) SiO2 
 PCOD8286247
Probable space group: F D D D
;
_chemical_formula_sum "Si O2"
_cell_formula_units_Z 208
_cell_length_a 18.032046
_cell_length_b 19.201847
_cell_length_c 27.258410
_cell_angle_alpha 90.000000
_cell_angle_beta 90.000000
_cell_angle_gamma 90.000000
_cell_volume 9438.185984
_symmetry_space_group_name_H-M "F D D D"
_symmetry_group_IT_number 70
_space_group.IT_coordinate_system_code '2'
_symmetry_cell_setting 'orthorhombic'
loop_
_space_group_symop_operation_xyz
x,y,z
1/4-x,1/4-y,z
x,1/4-y,1/4-z
1/4-x,y,1/4-z
-x,-y,-z
3/4+x,3/4+y,-z
-x,3/4+y,3/4+z
3/4+x,-y,3/4+z
x,1/2+y,1/2+z
1/4-x,3/4-y,1/2+z
x,3/4-y,3/4-z
1/4-x,1/2+y,3/4-z
-x,1/2-y,1/2-z
3/4+x,1/4+y,1/2-z
-x,1/4+y,1/4+z
3/4+x,1/2-y,1/4+z
1/2+x,y,1/2+z
3/4-x,1/4-y,1/2+z
1/2+x,1/4-y,3/4-z
3/4-x,y,3/4-z
1/2-x,-y,1/2-z
1/4+x,3/4+y,1/2-z
1/2-x,3/4+y,1/4+z
1/4+x,-y,1/4+z
1/2+x,1/2+y,z
3/4-x,3/4-y,z
1/2+x,3/4-y,1/4-z
3/4-x,1/2+y,1/4-z
1/2-x,1/2-y,-z
1/4+x,1/4+y,-z
1/2-x,1/4+y,3/4+z
1/4+x,1/2-y,3/4+z
loop_
_atom_site_type_symbol
_atom_site_label
_atom_site_fract_x
_atom_site_fract_y
_atom_site_fract_z
Si Si1 0.508211 0.162494 0.549861
Si Si2 0.093907 0.027923 0.070998
Si Si3 0.375000 0.375000 0.092373
Si Si4 0.616181 0.743568 0.420566
Si Si5 0.375000 0.375000 0.500413
Si Si6 0.781990 0.619187 0.300939
Si Si7 0.625000 0.958569 0.125000
Si Si8 0.017368 0.211453 0.699504
O O1 0.530941 0.087983 0.573143
O O2 0.585093 0.202193 0.537644
O O3 0.457072 0.208993 0.586257
O O4 0.455782 0.154303 0.501981
O O5 0.125000 0.015023 0.125000
O O6 0.059820 0.959362 0.047895
O O7 0.373374 0.444780 0.124123
O O8 0.305498 0.370059 0.057244
O O9 0.607564 0.693705 0.468111
O O10 0.688210 0.794347 0.422544
O O11 0.446653 0.387607 0.465182
O O12 0.820240 0.659804 0.344767
O O13 0.673279 0.001918 0.163632
O O14 0.000000 0.250000 0.750000
#
# Coordination Sequence:
#
# PCOD8286247 Si02
#       8
#    32  32  16  32  16  32  16  32
#     4  11  24  41  67 101 136 177 227 289 346 410
#     4  11  24  46  70  97 136 186 226 283 359 423
#     4  11  22  40  66 101 131 173 225 288 328 411
#     4  10  21  39  63  97 131 177 226 276 348 410
#     4   9  20  37  66  89 132 178 225 288 339 407
#     4  12  24  42  69 102 135 179 233 283 345 424
#     4  12  24  43  70 103 136 188 238 284 356 428
#     4  10  21  41  64  97 135 178 235 287 346 418
#
# _framework density 22.038133999999999
#
# number of rings (size 3 to 8) (size 9 to 14) (size 15 to 20)
#    0.000    1.231    2.308    5.077    0.000    1.538 
#    0.000    1.538    6.769    0.000    0.000    0.000 
#    0.000    0.000    0.000    0.000    0.000    0.000 
#
# Total GULP energy -644590.949483 kJ/mol
# GULP energy per Si atom -12395.979798 kJ/mol
# Density = 2.198797 g / cm^3
# Si number density = 22.038134 Si / 1000 Ang^3
#
#
#
# Elastic Constant Matrix: (Units=GPa)
#
#
# Indices 1 2 3 4 5 6 
#
# 1 120.3150 45.3597 12.9729 0.0000 0.0000 0.0000
# 2 45.3597 94.8962 16.4430 0.0000 0.0000 0.0000
# 3 12.9729 16.4430 57.7704 0.0000 0.0000 0.0000
# 4 0.0000 0.0000 0.0000 22.9059 0.0000 0.0000
# 5 0.0000 0.0000 0.0000 0.0000 42.2615 0.0000
# 6 0.0000 0.0000 0.0000 0.0000 0.0000 43.4623
#
#
#
# Elastic Compliance Matrix: (Units=1/GPa)
#
#
# Indices 1 2 3 4 5 6 
#
# 1 0.010188 -0.004705 -0.000949 0.000000 0.000000 0.000000
# 2 -0.004705 0.013258 -0.002717 0.000000 0.000000 0.000000
# 3 -0.000949 -0.002717 0.018296 0.000000 0.000000 0.000000
# 4 0.000000 0.000000 0.000000 0.043657 0.000000 0.000000
# 5 0.000000 0.000000 0.000000 0.000000 0.023662 0.000000
# 6 0.000000 0.000000 0.000000 0.000000 0.000000 0.023008
#
#
# Mechanical properties :
#
#
# Convention : Reuss Voigt Hill
#
# Bulk Modulus (GPa) = 39.99959 46.94809 43.47384
# Shear Modulus (GPa) = 31.81800 34.93969 33.37884
#
# Velocity S-wave (km/s) = 3.80382 3.98605 3.89600
# Velocity P-wave (km/s) = 6.12222 6.52182 6.32518
#
# Compressibility (1/GPa) = 0.02500025
#
# Stress axis : x y z
#
# Youngs Moduli (GPa) = 98.15739 75.42794 54.65620
#
# Poissons Ratio (x) = 0.35491 0.05184
# Poissons Ratio (y) = 0.46186 0.14849
# Poissons Ratio (z) = 0.09310 0.20493
#
# Static dielectric constant tensor:
#      x y z
#    x 4.343520 0.000000 0.000000 
#    y 0.000000 3.939040 0.000000 
#    z 0.000000 0.000000 3.665530 
# 
# 
# High freq. dielectric constant tensor:
#      x y z
#    x 1.881400 0.000000 0.000000 
#    y 0.000000 1.857100 0.000000 
#    z 0.000000 0.000000 1.868710 
# 
# From -- ./inp_files/59654.got.cif
#   From: 2010.03.12/outbox.cif.g09.slc.cpg/sg70_30_cif.got.tgz:59654.got - 2010.04.16 13:46:32.
