data_PCOD8286889
_publ_section_title
;
Structure prediction by ZEFSAII (Michael W. Deem and Ramdas Pophale) SiO2 
 PCOD8286889
Probable space group: I M M M
;
_chemical_formula_sum "Si O2"
_cell_formula_units_Z 80
_cell_length_a 8.985289
_cell_length_b 33.533852
_cell_length_c 19.347148
_cell_angle_alpha 90.000000
_cell_angle_beta 90.000000
_cell_angle_gamma 90.000000
_cell_volume 5829.515312
_symmetry_space_group_name_H-M "I M M M"
_symmetry_group_IT_number 71
_symmetry_cell_setting 'orthorhombic'
loop_
_space_group_symop_operation_xyz
x,y,z
-x,-y,z
x,-y,-z
-x,y,-z
-x,-y,-z
x,y,-z
-x,y,z
x,-y,z
1/2+x,1/2+y,1/2+z
1/2-x,1/2-y,1/2+z
1/2+x,1/2-y,1/2-z
1/2-x,1/2+y,1/2-z
1/2-x,1/2-y,1/2-z
1/2+x,1/2+y,1/2-z
1/2-x,1/2+y,1/2+z
1/2+x,1/2-y,1/2+z
loop_
_atom_site_type_symbol
_atom_site_label
_atom_site_fract_x
_atom_site_fract_y
_atom_site_fract_z
Si Si1 0.674920 0.310138 0.217283
Si Si2 0.174673 0.764238 0.850509
Si Si3 0.675526 0.256539 0.500000
Si Si4 0.823940 0.375550 0.862325
Si Si5 0.823598 0.667808 0.000000
Si Si6 0.176704 0.543799 0.922332
O O1 0.500000 0.311534 0.205515
O O2 0.742873 0.276859 0.166969
O O3 0.715900 0.299118 0.296716
O O4 0.744163 0.353617 0.201859
O O5 0.000000 0.754304 0.847442
O O6 0.224311 0.778219 0.928219
O O7 0.500000 0.253085 0.500000
O O8 0.743548 0.212145 0.500000
O O9 0.766776 0.354618 0.932082
O O10 0.770943 0.421835 0.868730
O O11 0.000000 0.372022 0.851666
O O12 0.000000 0.667832 0.000000
O O13 0.230324 0.500000 0.896241
O O14 0.000000 0.545228 0.926598
O O15 0.238464 0.551748 0.000000
#
# Coordination Sequence:
#
# PCOD8286889 Si02
#       6
#    16  16   8  16   8  16
#     4  10  19  27  36  54  77  96 118 151 187 221
#     4   9  17  29  42  53  68  93 124 156 187 218
#     4   9  14  24  42  55  64  86 126 162 181 207
#     4  10  16  25  40  54  72  99 126 153 185 219
#     4   9  14  20  35  56  69  88 128 159 175 206
#     4   8  13  21  36  58  76  90 120 165 195 207
#
# _framework density 13.723267999999999
#
# number of rings (size 3 to 8) (size 9 to 14) (size 15 to 20)
#    0.000    2.800    3.000    1.200    0.000    0.800 
#    0.000    2.000    0.000    0.600    0.000    1.400 
#    0.000    0.000    0.000    0.900    0.000   20.200 
#
# Total GULP energy -495547.579821 kJ/mol
# GULP energy per Si atom -12388.689496 kJ/mol
# Density = 1.369203 g / cm^3
# Si number density = 13.723268 Si / 1000 Ang^3
#
#
#
# Elastic Constant Matrix: (Units=GPa)
#
#
# Indices 1 2 3 4 5 6 
#
# 1 25.6847 23.3888 20.9307 0.0000 0.0000 0.0000
# 2 23.3888 104.6535 54.6734 0.0000 0.0000 0.0000
# 3 20.9307 54.6734 102.6887 -0.0001 0.0000 0.0000
# 4 0.0000 0.0000 -0.0001 23.7438 0.0000 0.0000
# 5 0.0000 0.0000 0.0000 0.0000 14.1134 0.0000
# 6 0.0000 0.0000 0.0000 0.0000 0.0000 12.9730
#
#
#
# Elastic Compliance Matrix: (Units=1/GPa)
#
#
# Indices 1 2 3 4 5 6 
#
# 1 0.051457 -0.008341 -0.006048 0.000000 0.000000 0.000000
# 2 -0.008341 0.014589 -0.006068 0.000000 0.000000 0.000000
# 3 -0.006048 -0.006068 0.014201 0.000000 0.000000 0.000000
# 4 0.000000 0.000000 0.000000 0.042116 0.000000 0.000000
# 5 0.000000 0.000000 0.000000 0.000000 0.070855 0.000000
# 6 0.000000 0.000000 0.000000 0.000000 0.000000 0.077083
#
#
# Mechanical properties :
#
#
# Convention : Reuss Voigt Hill
#
# Bulk Modulus (GPa) = 25.42202 47.89032 36.65617
# Shear Modulus (GPa) = 15.41664 19.10163 17.25914
#
# Velocity S-wave (km/s) = 3.35534 3.73489 3.55019
# Velocity P-wave (km/s) = 5.79449 7.31930 6.60107
#
# Compressibility (1/GPa) = 0.03933598
#
# Stress axis : x y z
#
# Youngs Moduli (GPa) = 19.43369 68.54387 70.41607
#
# Poissons Ratio (x) = 0.57170 0.42585
# Poissons Ratio (y) = 0.16209 0.42725
# Poissons Ratio (z) = 0.11753 0.41589
#
# Static dielectric constant tensor:
#      x y z
#    x 2.445760 0.000000 0.000000 
#    y 0.000000 2.826740 0.000000 
#    z 0.000000 0.000000 2.883730 
# 
# 
# High freq. dielectric constant tensor:
#      x y z
#    x 1.495730 0.000000 0.000000 
#    y 0.000000 1.501140 0.000000 
#    z 0.000000 0.000000 1.504290 
# 
# From -- ./inp_files/51021.got.cif
#   From: 2010.06.25/outbox.cif.g09.slc.cpg/sg71_26_cif.got.tgz:51021.got - 2010.06.28 04:59:45.
