data_PCOD8286253
_publ_section_title
;
Structure prediction by ZEFSAII (Michael W. Deem and Ramdas Pophale) SiO2 
 PCOD8286253
Probable space group: F D D D
;
_chemical_formula_sum "Si O2"
_cell_formula_units_Z 144
_cell_length_a 26.669764
_cell_length_b 13.751291
_cell_length_c 20.990187
_cell_angle_alpha 90.000000
_cell_angle_beta 90.000000
_cell_angle_gamma 90.000000
_cell_volume 7698.018543
_symmetry_space_group_name_H-M "F D D D"
_symmetry_group_IT_number 70
_space_group.IT_coordinate_system_code '2'
_symmetry_cell_setting 'orthorhombic'
loop_
_space_group_symop_operation_xyz
x,y,z
1/4-x,1/4-y,z
x,1/4-y,1/4-z
1/4-x,y,1/4-z
-x,-y,-z
3/4+x,3/4+y,-z
-x,3/4+y,3/4+z
3/4+x,-y,3/4+z
x,1/2+y,1/2+z
1/4-x,3/4-y,1/2+z
x,3/4-y,3/4-z
1/4-x,1/2+y,3/4-z
-x,1/2-y,1/2-z
3/4+x,1/4+y,1/2-z
-x,1/4+y,1/4+z
3/4+x,1/2-y,1/4+z
1/2+x,y,1/2+z
3/4-x,1/4-y,1/2+z
1/2+x,1/4-y,3/4-z
3/4-x,y,3/4-z
1/2-x,-y,1/2-z
1/4+x,3/4+y,1/2-z
1/2-x,3/4+y,1/4+z
1/4+x,-y,1/4+z
1/2+x,1/2+y,z
3/4-x,3/4-y,z
1/2+x,3/4-y,1/4-z
3/4-x,1/2+y,1/4-z
1/2-x,1/2-y,-z
1/4+x,1/4+y,-z
1/2-x,1/4+y,3/4+z
1/4+x,1/2-y,3/4+z
loop_
_atom_site_type_symbol
_atom_site_label
_atom_site_fract_x
_atom_site_fract_y
_atom_site_fract_z
Si Si1 0.815104 0.084355 0.502085
Si Si2 0.744806 0.875000 0.875000
Si Si3 0.474199 0.882021 0.800769
Si Si4 0.931050 0.700416 0.872485
Si Si5 0.429553 0.186579 0.258915
O O1 0.789995 0.133219 0.563377
O O2 0.806374 0.161914 0.447063
O O3 0.873624 0.071042 0.517721
O O4 0.791040 0.983230 0.480597
O O5 0.779018 0.782170 0.861787
O O6 0.460619 0.875000 0.875000
O O7 0.533672 0.866428 0.791044
O O8 0.443207 0.799791 0.763653
O O9 0.875000 0.744816 0.875000
O O10 0.935458 0.611683 0.921773
#
# Coordination Sequence:
#
# PCOD8286253 Si02
#       5
#    32  16  32  32  32
#     4  11  23  38  61  88 119 158 196 245 302 352
#     4  12  23  40  58  84 124 156 195 248 294 356
#     4  11  21  38  64  89 121 152 197 249 302 356
#     4  10  21  40  61  84 114 158 206 239 289 358
#     4  10  22  38  60  91 118 152 196 246 303 357
#
# _framework density 18.706112000000001
#
# number of rings (size 3 to 8) (size 9 to 14) (size 15 to 20)
#    0.000    1.333    4.444    1.667    1.556    0.889 
#    0.000    0.000    0.000    0.000    0.000    0.000 
#    0.000    0.000    0.000    0.000    0.000    0.000 
#
# Total GULP energy -446512.811122 kJ/mol
# GULP energy per Si atom -12403.133642 kJ/mol
# Density = 1.866354 g / cm^3
# Si number density = 18.706112 Si / 1000 Ang^3
#
#
#
# Elastic Constant Matrix: (Units=GPa)
#
#
# Indices 1 2 3 4 5 6 
#
# 1 107.7117 38.3689 30.3373 0.0000 0.0000 0.0000
# 2 38.3689 57.9956 25.0648 0.0000 0.0000 0.0000
# 3 30.3373 25.0648 87.1762 0.0000 0.0000 0.0000
# 4 0.0000 0.0000 0.0000 22.2303 0.0000 0.0000
# 5 0.0000 0.0000 0.0000 0.0000 31.1435 0.0000
# 6 0.0000 0.0000 0.0000 0.0000 0.0000 18.9276
#
#
#
# Elastic Compliance Matrix: (Units=1/GPa)
#
#
# Indices 1 2 3 4 5 6 
#
# 1 0.012524 -0.007310 -0.002256 0.000000 0.000000 0.000000
# 2 -0.007310 0.023956 -0.004344 0.000000 0.000000 0.000000
# 3 -0.002256 -0.004344 0.013505 0.000000 0.000000 0.000000
# 4 0.000000 0.000000 0.000000 0.044984 0.000000 0.000000
# 5 0.000000 0.000000 0.000000 0.000000 0.032109 0.000000
# 6 0.000000 0.000000 0.000000 0.000000 0.000000 0.052833
#
#
# Mechanical properties :
#
#
# Convention : Reuss Voigt Hill
#
# Bulk Modulus (GPa) = 45.11806 48.93617 47.02711
# Shear Modulus (GPa) = 23.24280 25.06777 24.15528
#
# Velocity S-wave (km/s) = 3.52877 3.66469 3.59737
# Velocity P-wave (km/s) = 6.38551 6.64258 6.51531
#
# Compressibility (1/GPa) = 0.02216408
#
# Stress axis : x y z
#
# Youngs Moduli (GPa) = 79.84915 41.74246 74.04547
#
# Poissons Ratio (x) = 0.30515 0.16708
# Poissons Ratio (y) = 0.58372 0.32165
# Poissons Ratio (z) = 0.18017 0.18133
#
# Static dielectric constant tensor:
#      x y z
#    x 3.619450 0.000000 0.000000 
#    y 0.000000 3.332940 0.000000 
#    z 0.000000 0.000000 3.379220 
# 
# 
# High freq. dielectric constant tensor:
#      x y z
#    x 1.739360 0.000000 0.000000 
#    y 0.000000 1.727770 0.000000 
#    z 0.000000 0.000000 1.723760 
# 
# From -- ./inp_files/19223.got.cif
#   From: 2010.03.12/outbox.cif.g09.slc.cpg/sg70_10_cif.got.tgz:19223.got - 2010.04.16 13:46:32.
