data_PCOD8286645
_publ_section_title
;
Structure prediction by ZEFSAII (Michael W. Deem and Ramdas Pophale) SiO2 
 PCOD8286645
Probable space group: F D D D
;
_chemical_formula_sum "Si O2"
_cell_formula_units_Z 168
_cell_length_a 27.197958
_cell_length_b 12.980635
_cell_length_c 23.752406
_cell_angle_alpha 90.000000
_cell_angle_beta 90.000000
_cell_angle_gamma 90.000000
_cell_volume 8385.710112
_symmetry_space_group_name_H-M "F D D D"
_symmetry_group_IT_number 70
_space_group.IT_coordinate_system_code '2'
_symmetry_cell_setting 'orthorhombic'
loop_
_space_group_symop_operation_xyz
x,y,z
1/4-x,1/4-y,z
x,1/4-y,1/4-z
1/4-x,y,1/4-z
-x,-y,-z
3/4+x,3/4+y,-z
-x,3/4+y,3/4+z
3/4+x,-y,3/4+z
x,1/2+y,1/2+z
1/4-x,3/4-y,1/2+z
x,3/4-y,3/4-z
1/4-x,1/2+y,3/4-z
-x,1/2-y,1/2-z
3/4+x,1/4+y,1/2-z
-x,1/4+y,1/4+z
3/4+x,1/2-y,1/4+z
1/2+x,y,1/2+z
3/4-x,1/4-y,1/2+z
1/2+x,1/4-y,3/4-z
3/4-x,y,3/4-z
1/2-x,-y,1/2-z
1/4+x,3/4+y,1/2-z
1/2-x,3/4+y,1/4+z
1/4+x,-y,1/4+z
1/2+x,1/2+y,z
3/4-x,3/4-y,z
1/2+x,3/4-y,1/4-z
3/4-x,1/2+y,1/4-z
1/2-x,1/2-y,-z
1/4+x,1/4+y,-z
1/2-x,1/4+y,3/4+z
1/4+x,1/2-y,3/4+z
loop_
_atom_site_type_symbol
_atom_site_label
_atom_site_fract_x
_atom_site_fract_y
_atom_site_fract_z
Si Si1 0.556122 0.472300 0.186191
Si Si2 0.999957 0.679140 0.833463
Si Si3 0.875000 0.875000 0.875000
Si Si4 0.356376 0.131033 0.539200
Si Si5 0.781958 0.616495 0.036557
Si Si6 0.336691 0.290337 0.626439
O O1 0.543245 0.413167 0.128830
O O2 0.593614 0.561678 0.169952
O O3 0.580420 0.391429 0.229494
O O4 0.504895 0.520083 0.208769
O O5 0.022873 0.795724 0.834956
O O6 0.038894 0.591642 0.847360
O O7 0.975069 0.668036 0.773643
O O8 0.412042 0.174357 0.536495
O O9 0.324303 0.216127 0.573216
O O10 0.360270 0.024202 0.572795
O O11 0.375000 0.375000 0.605522
#
# Coordination Sequence:
#
# PCOD8286645 Si02
#       6
#    32  32   8  32  32  32
#     4  12  24  40  62  98 131 169 214 264 329 396
#     4  11  22  38  61  87 127 169 206 260 324 386
#     4  12  24  36  64 104 138 164 204 268 344 382
#     4  11  25  39  64  96 127 168 220 268 325 386
#     4  11  22  39  60  94 128 165 207 268 326 383
#     4  11  22  40  64  90 125 171 220 269 315 384
#
# _framework density 20.034082000000001
#
# number of rings (size 3 to 8) (size 9 to 14) (size 15 to 20)
#    0.000    0.762    5.714    2.286    6.667    0.762 
#    0.000    0.000    0.000    0.000    0.000    1.333 
#    0.000    0.000    0.000    0.000    0.000    0.000 
#
# Total GULP energy -520758.844285 kJ/mol
# GULP energy per Si atom -12399.020102 kJ/mol
# Density = 1.998848 g / cm^3
# Si number density = 20.034082 Si / 1000 Ang^3
#
#
#
# Elastic Constant Matrix: (Units=GPa)
#
#
# Indices 1 2 3 4 5 6 
#
# 1 100.7632 22.2724 27.9162 0.0000 0.0000 0.0000
# 2 22.2724 64.4083 23.5756 0.0000 0.0000 0.0000
# 3 27.9162 23.5756 98.7911 0.0000 0.0000 0.0000
# 4 0.0000 0.0000 0.0000 26.9344 0.0000 0.0000
# 5 0.0000 0.0000 0.0000 0.0000 33.5388 0.0000
# 6 0.0000 0.0000 0.0000 0.0000 0.0000 19.8204
#
#
#
# Elastic Compliance Matrix: (Units=1/GPa)
#
#
# Indices 1 2 3 4 5 6 
#
# 1 0.011270 -0.002993 -0.002470 0.000000 0.000000 0.000000
# 2 -0.002993 0.017807 -0.003404 0.000000 0.000000 0.000000
# 3 -0.002470 -0.003404 0.011633 0.000000 0.000000 0.000000
# 4 0.000000 0.000000 0.000000 0.037127 0.000000 0.000000
# 5 0.000000 0.000000 0.000000 0.000000 0.029816 0.000000
# 6 0.000000 0.000000 0.000000 0.000000 0.000000 0.050453
#
#
# Mechanical properties :
#
#
# Convention : Reuss Voigt Hill
#
# Bulk Modulus (GPa) = 43.52462 45.72121 44.62291
# Shear Modulus (GPa) = 27.24812 28.73863 27.99338
#
# Velocity S-wave (km/s) = 3.69194 3.79157 3.74209
# Velocity P-wave (km/s) = 6.32031 6.48377 6.40256
#
# Compressibility (1/GPa) = 0.02297550
#
# Stress axis : x y z
#
# Youngs Moduli (GPa) = 88.72916 56.15840 85.96442
#
# Poissons Ratio (x) = 0.16808 0.21237
# Poissons Ratio (y) = 0.26556 0.29259
# Poissons Ratio (z) = 0.21920 0.19114
#
# Static dielectric constant tensor:
#      x y z
#    x 3.732370 0.000000 0.000000 
#    y 0.000000 3.468050 0.000000 
#    z 0.000000 0.000000 3.793040 
# 
# 
# High freq. dielectric constant tensor:
#      x y z
#    x 1.781050 0.000000 0.000000 
#    y 0.000000 1.758940 0.000000 
#    z 0.000000 0.000000 1.793380 
# 
# From -- ./inp_files/46790.got.cif
#   From: 2010.03.12/outbox.cif.g09.slc.cpg/sg70_24_cif.got.tgz:46790.got - 2010.04.16 13:46:32.
