data_PCOD8286619
_publ_section_title
;
Structure prediction by ZEFSAII (Michael W. Deem and Ramdas Pophale) SiO2 
 PCOD8286619
Probable space group: F D D D
;
_chemical_formula_sum "Si O2"
_cell_formula_units_Z 192
_cell_length_a 19.617363
_cell_length_b 25.574133
_cell_length_c 19.819185
_cell_angle_alpha 90.000000
_cell_angle_beta 90.000000
_cell_angle_gamma 90.000000
_cell_volume 9943.226657
_symmetry_space_group_name_H-M "F D D D"
_symmetry_group_IT_number 70
_space_group.IT_coordinate_system_code '2'
_symmetry_cell_setting 'orthorhombic'
loop_
_space_group_symop_operation_xyz
x,y,z
1/4-x,1/4-y,z
x,1/4-y,1/4-z
1/4-x,y,1/4-z
-x,-y,-z
3/4+x,3/4+y,-z
-x,3/4+y,3/4+z
3/4+x,-y,3/4+z
x,1/2+y,1/2+z
1/4-x,3/4-y,1/2+z
x,3/4-y,3/4-z
1/4-x,1/2+y,3/4-z
-x,1/2-y,1/2-z
3/4+x,1/4+y,1/2-z
-x,1/4+y,1/4+z
3/4+x,1/2-y,1/4+z
1/2+x,y,1/2+z
3/4-x,1/4-y,1/2+z
1/2+x,1/4-y,3/4-z
3/4-x,y,3/4-z
1/2-x,-y,1/2-z
1/4+x,3/4+y,1/2-z
1/2-x,3/4+y,1/4+z
1/4+x,-y,1/4+z
1/2+x,1/2+y,z
3/4-x,3/4-y,z
1/2+x,3/4-y,1/4-z
3/4-x,1/2+y,1/4-z
1/2-x,1/2-y,-z
1/4+x,1/4+y,-z
1/2-x,1/4+y,3/4+z
1/4+x,1/2-y,3/4+z
loop_
_atom_site_type_symbol
_atom_site_label
_atom_site_fract_x
_atom_site_fract_y
_atom_site_fract_z
Si Si1 0.948063 0.371291 0.106305
Si Si2 0.841505 0.621925 0.805024
Si Si3 0.141801 0.487656 0.717997
Si Si4 0.572792 0.337849 0.935716
Si Si5 0.776156 0.495726 0.149046
Si Si6 0.814702 0.912308 0.001081
O O1 0.875000 0.375000 0.067406
O O2 0.957540 0.314729 0.139489
O O3 0.944843 0.412287 0.168198
O O4 0.009744 0.386147 0.056824
O O5 0.875000 0.602390 0.875000
O O6 0.856341 0.682578 0.794206
O O7 0.869234 0.587021 0.743283
O O8 0.187809 0.482712 0.784272
O O9 0.193456 0.501906 0.656027
O O10 0.081259 0.529186 0.726782
O O11 0.596922 0.375000 0.875000
O O12 0.557099 0.278725 0.912795
O O13 0.503280 0.360806 0.967132
O O14 0.875000 0.875000 0.976672
#
# Coordination Sequence:
#
# PCOD8286619 Si02
#       6
#    32  32  32  32  32  32
#     4  11  22  41  63  85 120 167 207 250 304 364
#     4  12  23  41  61  87 123 173 205 243 308 374
#     4  11  21  36  62  92 130 158 194 240 317 390
#     4  12  24  36  57  91 125 157 203 251 301 363
#     4  11  21  37  60  93 125 159 196 248 312 372
#     4  11  21  34  56  90 126 161 191 236 299 387
#
# _framework density 19.309626999999999
#
# number of rings (size 3 to 8) (size 9 to 14) (size 15 to 20)
#    0.000    0.667    8.333    2.000    0.000    1.667 
#    0.000    0.833    0.000    0.500    0.000    0.000 
#    0.000    0.000    0.000    0.000    0.000    0.000 
#
# Total GULP energy -595301.939945 kJ/mol
# GULP energy per Si atom -12402.123749 kJ/mol
# Density = 1.926568 g / cm^3
# Si number density = 19.309627 Si / 1000 Ang^3
#
#
#
# Elastic Constant Matrix: (Units=GPa)
#
#
# Indices 1 2 3 4 5 6 
#
# 1 152.8103 25.6600 56.5999 0.0000 0.0000 0.0000
# 2 25.6600 59.6308 31.4349 0.0000 0.0000 0.0000
# 3 56.5999 31.4349 86.6955 0.0000 0.0000 0.0000
# 4 0.0000 0.0000 0.0000 29.0041 0.0000 0.0000
# 5 0.0000 0.0000 0.0000 0.0000 38.2729 0.0000
# 6 0.0000 0.0000 0.0000 0.0000 0.0000 28.0307
#
#
#
# Elastic Compliance Matrix: (Units=1/GPa)
#
#
# Indices 1 2 3 4 5 6 
#
# 1 0.008672 -0.000924 -0.005327 0.000000 0.000000 0.000000
# 2 -0.000924 0.020831 -0.006950 0.000000 0.000000 0.000000
# 3 -0.005327 -0.006950 0.017532 0.000000 0.000000 0.000000
# 4 0.000000 0.000000 0.000000 0.034478 0.000000 0.000000
# 5 0.000000 0.000000 0.000000 0.000000 0.026128 0.000000
# 6 0.000000 0.000000 0.000000 0.000000 0.000000 0.035675
#
#
# Mechanical properties :
#
#
# Convention : Reuss Voigt Hill
#
# Bulk Modulus (GPa) = 48.46269 58.50291 53.48280
# Shear Modulus (GPa) = 28.31319 31.42433 29.86876
#
# Velocity S-wave (km/s) = 3.83335 4.03847 3.93725
# Velocity P-wave (km/s) = 6.68916 7.21864 6.95894
#
# Compressibility (1/GPa) = 0.02063443
#
# Stress axis : x y z
#
# Youngs Moduli (GPa) = 115.31130 48.00508 57.03760
#
# Poissons Ratio (x) = 0.04434 0.30383
# Poissons Ratio (y) = 0.10651 0.39642
# Poissons Ratio (z) = 0.61424 0.33364
#
# Static dielectric constant tensor:
#      x y z
#    x 3.812940 0.000000 0.000000 
#    y 0.000000 3.319030 0.000000 
#    z 0.000000 0.000000 3.575970 
# 
# 
# High freq. dielectric constant tensor:
#      x y z
#    x 1.755950 0.000000 0.000000 
#    y 0.000000 1.732900 0.000000 
#    z 0.000000 0.000000 1.737600 
# 
# From -- ./inp_files/44968.got.cif
#   From: 2010.03.12/outbox.cif.g09.slc.cpg/sg70_23_cif.got.tgz:44968.got - 2010.04.16 13:46:32.
