data_PCOD8286852
_publ_section_title
;
Structure prediction by ZEFSAII (Michael W. Deem and Ramdas Pophale) SiO2 
 PCOD8286852
Probable space group: F D D D
;
_chemical_formula_sum "Si O2"
_cell_formula_units_Z 104
_cell_length_a 18.226920
_cell_length_b 7.427011
_cell_length_c 29.153493
_cell_angle_alpha 90.000000
_cell_angle_beta 90.000000
_cell_angle_gamma 90.000000
_cell_volume 3946.553108
_symmetry_space_group_name_H-M "F D D D"
_symmetry_group_IT_number 70
_space_group.IT_coordinate_system_code '2'
_symmetry_cell_setting 'orthorhombic'
loop_
_space_group_symop_operation_xyz
x,y,z
1/4-x,1/4-y,z
x,1/4-y,1/4-z
1/4-x,y,1/4-z
-x,-y,-z
3/4+x,3/4+y,-z
-x,3/4+y,3/4+z
3/4+x,-y,3/4+z
x,1/2+y,1/2+z
1/4-x,3/4-y,1/2+z
x,3/4-y,3/4-z
1/4-x,1/2+y,3/4-z
-x,1/2-y,1/2-z
3/4+x,1/4+y,1/2-z
-x,1/4+y,1/4+z
3/4+x,1/2-y,1/4+z
1/2+x,y,1/2+z
3/4-x,1/4-y,1/2+z
1/2+x,1/4-y,3/4-z
3/4-x,y,3/4-z
1/2-x,-y,1/2-z
1/4+x,3/4+y,1/2-z
1/2-x,3/4+y,1/4+z
1/4+x,-y,1/4+z
1/2+x,1/2+y,z
3/4-x,3/4-y,z
1/2+x,3/4-y,1/4-z
3/4-x,1/2+y,1/4-z
1/2-x,1/2-y,-z
1/4+x,1/4+y,-z
1/2-x,1/4+y,3/4+z
1/4+x,1/2-y,3/4+z
loop_
_atom_site_type_symbol
_atom_site_label
_atom_site_fract_x
_atom_site_fract_y
_atom_site_fract_z
Si Si1 0.080284 0.286226 0.476808
Si Si2 0.375000 0.375000 0.875000
Si Si3 0.560745 0.862255 0.695319
Si Si4 0.375000 0.875000 0.579960
Si Si5 0.236640 0.375000 0.375000
O O1 0.115170 0.316824 0.527160
O O2 0.084775 0.472162 0.449883
O O3 0.997742 0.205169 0.480736
O O4 0.125000 0.125000 0.451404
O O5 0.427523 0.494453 0.844264
O O6 0.534018 0.680663 0.669696
O O7 0.437794 0.795773 0.611886
#
# Coordination Sequence:
#
# PCOD8286852 Si02
#       5
#    32   8  32  16  16
#     4  12  27  53  79 121 159 222 267 337 405 506
#     4  12  30  52  84 126 160 218 274 348 406 482
#     4  12  29  52  83 118 169 211 282 333 421 483
#     4  12  25  48  84 113 168 210 282 333 412 488
#     4  12  26  50  80 121 160 215 272 352 404 486
#
# _framework density 26.352111000000001
#
# number of rings (size 3 to 8) (size 9 to 14) (size 15 to 20)
#    0.000    0.000    3.077    5.538    4.308    4.923 
#    0.000    0.000    0.000    0.000    0.000    0.000 
#    0.000    0.000    0.000    0.000    0.000    0.000 
#
# Total GULP energy -322427.053533 kJ/mol
# GULP energy per Si atom -12401.040521 kJ/mol
# Density = 2.629213 g / cm^3
# Si number density = 26.352111 Si / 1000 Ang^3
#
#
#
# Elastic Constant Matrix: (Units=GPa)
#
#
# Indices 1 2 3 4 5 6 
#
# 1 122.9592 44.0696 76.8467 0.0000 0.0000 0.0000
# 2 44.0696 169.1470 62.2640 0.0000 0.0000 0.0000
# 3 76.8467 62.2640 154.3222 0.0000 0.0000 0.0000
# 4 0.0000 0.0000 0.0000 49.7200 0.0000 0.0000
# 5 0.0000 0.0000 0.0000 0.0000 33.6280 0.0000
# 6 0.0000 0.0000 0.0000 0.0000 0.0000 38.5979
#
#
#
# Elastic Compliance Matrix: (Units=1/GPa)
#
#
# Indices 1 2 3 4 5 6 
#
# 1 0.011975 -0.001086 -0.005525 0.000000 0.000000 0.000000
# 2 -0.001086 0.007042 -0.002300 0.000000 0.000000 0.000000
# 3 -0.005525 -0.002300 0.010159 0.000000 0.000000 0.000000
# 4 0.000000 0.000000 0.000000 0.020113 0.000000 0.000000
# 5 0.000000 0.000000 0.000000 0.000000 0.029737 0.000000
# 6 0.000000 0.000000 0.000000 0.000000 0.000000 0.025908
#
#
# Mechanical properties :
#
#
# Convention : Reuss Voigt Hill
#
# Bulk Modulus (GPa) = 88.07983 90.30989 89.19486
# Shear Modulus (GPa) = 39.51292 41.93905 40.72598
#
# Velocity S-wave (km/s) = 3.87644 3.99367 3.93549
# Velocity P-wave (km/s) = 7.31659 7.45726 7.38726
#
# Compressibility (1/GPa) = 0.01135334
#
# Stress axis : x y z
#
# Youngs Moduli (GPa) = 83.50733 142.01024 98.43315
#
# Poissons Ratio (x) = 0.15426 0.54383
# Poissons Ratio (y) = 0.09071 0.22642
# Poissons Ratio (z) = 0.46136 0.32665
#
# Static dielectric constant tensor:
#      x y z
#    x 4.785390 0.000000 0.000000 
#    y 0.000000 5.204000 0.000000 
#    z 0.000000 0.000000 4.734030 
# 
# 
# High freq. dielectric constant tensor:
#      x y z
#    x 2.055080 0.000000 0.000000 
#    y 0.000000 2.083430 0.000000 
#    z 0.000000 0.000000 2.061510 
# 
# From -- ./inp_files/47413.got.cif
#   From: 2010.03.12/outbox.cif.g09.slc.cpg/sg70_24_cif.got.tgz:47413.got - 2010.04.16 13:46:32.
