data_PCOD8286062
_publ_section_title
;
Structure prediction by ZEFSAII (Michael W. Deem and Ramdas Pophale) SiO2 
 PCOD8286062
Probable space group: F D D D
;
_chemical_formula_sum "Si O2"
_cell_formula_units_Z 208
_cell_length_a 25.459358
_cell_length_b 15.416790
_cell_length_c 25.380248
_cell_angle_alpha 90.000000
_cell_angle_beta 90.000000
_cell_angle_gamma 90.000000
_cell_volume 9961.787335
_symmetry_space_group_name_H-M "F D D D"
_symmetry_group_IT_number 70
_space_group.IT_coordinate_system_code '2'
_symmetry_cell_setting 'orthorhombic'
loop_
_space_group_symop_operation_xyz
x,y,z
1/4-x,1/4-y,z
x,1/4-y,1/4-z
1/4-x,y,1/4-z
-x,-y,-z
3/4+x,3/4+y,-z
-x,3/4+y,3/4+z
3/4+x,-y,3/4+z
x,1/2+y,1/2+z
1/4-x,3/4-y,1/2+z
x,3/4-y,3/4-z
1/4-x,1/2+y,3/4-z
-x,1/2-y,1/2-z
3/4+x,1/4+y,1/2-z
-x,1/4+y,1/4+z
3/4+x,1/2-y,1/4+z
1/2+x,y,1/2+z
3/4-x,1/4-y,1/2+z
1/2+x,1/4-y,3/4-z
3/4-x,y,3/4-z
1/2-x,-y,1/2-z
1/4+x,3/4+y,1/2-z
1/2-x,3/4+y,1/4+z
1/4+x,-y,1/4+z
1/2+x,1/2+y,z
3/4-x,3/4-y,z
1/2+x,3/4-y,1/4-z
3/4-x,1/2+y,1/4-z
1/2-x,1/2-y,-z
1/4+x,1/4+y,-z
1/2-x,1/4+y,3/4+z
1/4+x,1/2-y,3/4+z
loop_
_atom_site_type_symbol
_atom_site_label
_atom_site_fract_x
_atom_site_fract_y
_atom_site_fract_z
Si Si1 0.935395 0.841248 0.229075
Si Si2 0.758289 0.640898 0.946420
Si Si3 0.244913 0.790594 0.661499
Si Si4 0.553063 0.875000 0.375000
Si Si5 0.328512 0.218636 0.027976
Si Si6 0.020068 0.332708 0.815884
Si Si7 0.940149 0.741725 0.009249
O O1 0.875000 0.875000 0.235385
O O2 0.962578 0.824039 0.286674
O O3 0.961921 0.922974 0.201271
O O4 0.947349 0.758743 0.189599
O O5 0.770638 0.640181 0.883963
O O6 0.715853 0.713221 0.959199
O O7 0.735019 0.549037 0.963456
O O8 0.811966 0.661191 0.977427
O O9 0.264979 0.704235 0.635093
O O10 0.194861 0.763142 0.696053
O O11 0.588998 0.900673 0.424501
O O12 0.381070 0.274423 0.019095
O O13 0.013895 0.375000 0.875000
O O14 0.056163 0.395714 0.781963
#
# Coordination Sequence:
#
# PCOD8286062 Si02
#       7
#    32  32  32  16  32  32  32
#     4  10  23  42  62  92 131 164 213 271 327 384
#     4  10  21  40  57  88 129 163 206 262 311 384
#     4  10  22  38  61  87 125 165 202 265 320 376
#     4  10  20  38  60  87 122 168 205 256 322 376
#     4  10  22  36  62  88 123 163 212 254 316 382
#     4  10  23  40  63  93 125 166 214 267 324 394
#     4  11  22  37  63  91 123 163 214 261 314 379
#
# _framework density 20.879788000000001
#
# number of rings (size 3 to 8) (size 9 to 14) (size 15 to 20)
#    0.000    1.846    1.538    1.385    3.231    4.615 
#    0.000    0.000    0.000    7.385    0.000    0.000 
#    0.000    0.000    0.000    0.000    0.000    0.000 
#
# Total GULP energy -644185.232886 kJ/mol
# GULP energy per Si atom -12388.177555 kJ/mol
# Density = 2.083226 g / cm^3
# Si number density = 20.879788 Si / 1000 Ang^3
#
#
#
# Elastic Constant Matrix: (Units=GPa)
#
#
# Indices 1 2 3 4 5 6 
#
# 1 66.0336 20.7160 44.0052 0.0000 0.0000 0.0000
# 2 20.7160 87.8146 26.7274 0.0000 0.0000 0.0000
# 3 44.0052 26.7274 150.1101 0.0000 0.0000 0.0000
# 4 0.0000 0.0000 0.0000 31.4743 0.0000 0.0000
# 5 0.0000 0.0000 0.0000 0.0000 -2.1956 0.0000
# 6 0.0000 0.0000 0.0000 0.0000 0.0000 14.4178
#
#
#
# Elastic Compliance Matrix: (Units=1/GPa)
#
#
# Indices 1 2 3 4 5 6 
#
# 1 0.019556 -0.003033 -0.005193 0.000000 0.000000 0.000000
# 2 -0.003033 0.012510 -0.001338 0.000000 0.000000 0.000000
# 3 -0.005193 -0.001338 0.008422 0.000000 0.000000 0.000000
# 4 0.000000 0.000000 0.000000 0.031772 0.000000 0.000000
# 5 0.000000 0.000000 0.000000 0.000000 -0.455447 0.000000
# 6 0.000000 0.000000 0.000000 0.000000 0.000000 0.069359
#
#
# Mechanical properties :
#
#
# Convention : Reuss Voigt Hill
#
# Bulk Modulus (GPa) = 46.81551 54.09506 50.45529
# Shear Modulus (GPa) = -17.38653 22.90661 2.76004
#
# Velocity S-wave (km/s) = -2.88878 3.31580 1.15097
# Velocity P-wave (km/s) = 3.36800 6.37365 5.09740
#
# Compressibility (1/GPa) = 0.02136044
#
# Stress axis : x y z
#
# Youngs Moduli (GPa) = 51.13576 79.93317 118.73126
#
# Poissons Ratio (x) = 0.24242 0.61655
# Poissons Ratio (y) = 0.15509 0.15891
# Poissons Ratio (z) = 0.26554 0.10699
#
# Static dielectric constant tensor:
#      x y z
#    x 3.625630 0.000000 0.000000 
#    y 0.000000 3.918580 0.000000 
#    z 0.000000 0.000000 4.452090 
# 
# 
# High freq. dielectric constant tensor:
#      x y z
#    x 1.794270 0.000000 0.000000 
#    y 0.000000 1.826230 0.000000 
#    z 0.000000 0.000000 1.826980 
# 
# From -- ./inp_files/61847.got.cif
#   From: 2010.03.12/outbox.cif.g09.slc.cpg/sg70_31_cif.got.tgz:61847.got - 2010.04.16 13:46:32.
