data_PCOD8286329
_publ_section_title
;
Structure prediction by ZEFSAII (Michael W. Deem and Ramdas Pophale) SiO2 
 PCOD8286329
Probable space group: F D D D
;
_chemical_formula_sum "Si O2"
_cell_formula_units_Z 176
_cell_length_a 21.190447
_cell_length_b 33.202596
_cell_length_c 11.236630
_cell_angle_alpha 90.000000
_cell_angle_beta 90.000000
_cell_angle_gamma 90.000000
_cell_volume 7905.843986
_symmetry_space_group_name_H-M "F D D D"
_symmetry_group_IT_number 70
_space_group.IT_coordinate_system_code '2'
_symmetry_cell_setting 'orthorhombic'
loop_
_space_group_symop_operation_xyz
x,y,z
1/4-x,1/4-y,z
x,1/4-y,1/4-z
1/4-x,y,1/4-z
-x,-y,-z
3/4+x,3/4+y,-z
-x,3/4+y,3/4+z
3/4+x,-y,3/4+z
x,1/2+y,1/2+z
1/4-x,3/4-y,1/2+z
x,3/4-y,3/4-z
1/4-x,1/2+y,3/4-z
-x,1/2-y,1/2-z
3/4+x,1/4+y,1/2-z
-x,1/4+y,1/4+z
3/4+x,1/2-y,1/4+z
1/2+x,y,1/2+z
3/4-x,1/4-y,1/2+z
1/2+x,1/4-y,3/4-z
3/4-x,y,3/4-z
1/2-x,-y,1/2-z
1/4+x,3/4+y,1/2-z
1/2-x,3/4+y,1/4+z
1/4+x,-y,1/4+z
1/2+x,1/2+y,z
3/4-x,3/4-y,z
1/2+x,3/4-y,1/4-z
3/4-x,1/2+y,1/4-z
1/2-x,1/2-y,-z
1/4+x,1/4+y,-z
1/2-x,1/4+y,3/4+z
1/4+x,1/2-y,3/4+z
loop_
_atom_site_type_symbol
_atom_site_label
_atom_site_fract_x
_atom_site_fract_y
_atom_site_fract_z
Si Si1 0.875000 0.277186 0.875000
Si Si2 0.203887 0.302370 0.014993
Si Si3 0.695153 0.359921 0.173143
Si Si4 0.730617 0.163652 0.056729
Si Si5 0.559635 0.785139 0.974989
Si Si6 0.531081 0.974471 0.271446
O O1 0.825227 0.303812 0.948996
O O2 0.841568 0.250604 0.772041
O O3 0.238693 0.276198 0.912653
O O4 0.212386 0.350616 0.999718
O O5 0.132801 0.286760 0.994667
O O6 0.226991 0.294385 0.149863
O O7 0.625000 0.367712 0.125000
O O8 0.697877 0.321310 0.255896
O O9 0.746144 0.351150 0.070747
O O10 0.704034 0.125000 0.125000
O O11 0.790736 0.182665 0.125251
O O12 0.530216 0.740440 0.946931
#
# Coordination Sequence:
#
# PCOD8286329 Si02
#       6
#    16  32  32  32  32  32
#     4  10  25  38  60  94 124 174 202 266 324 374
#     4  11  21  41  62  87 125 162 209 254 321 378
#     4  12  22  38  63  95 123 164 208 269 318 372
#     4  11  21  40  63  89 128 159 216 255 319 383
#     4  10  22  38  62  90 120 166 201 263 316 367
#     4  11  24  38  60  94 127 160 210 260 317 385
#
# _framework density 22.262014000000001
#
# number of rings (size 3 to 8) (size 9 to 14) (size 15 to 20)
#    0.000    1.091    4.545    2.455    2.545    1.455 
#    0.000    0.000    0.000    0.000    0.000    5.091 
#    0.000    0.000    0.000    0.000    0.000    0.000 
#
# Total GULP energy -545113.943145 kJ/mol
# GULP energy per Si atom -12388.953253 kJ/mol
# Density = 2.221134 g / cm^3
# Si number density = 22.262014 Si / 1000 Ang^3
#
#
#
# Elastic Constant Matrix: (Units=GPa)
#
#
# Indices 1 2 3 4 5 6 
#
# 1 62.8622 18.8014 12.8254 0.0000 0.0000 0.0000
# 2 18.8014 93.3078 9.8800 0.0000 0.0000 0.0000
# 3 12.8254 9.8800 75.4645 0.0000 0.0000 0.0000
# 4 0.0000 0.0000 0.0000 35.8842 0.0000 0.0000
# 5 0.0000 0.0000 0.0000 0.0000 26.0904 0.0000
# 6 0.0000 0.0000 0.0000 0.0000 0.0000 14.8871
#
#
#
# Elastic Compliance Matrix: (Units=1/GPa)
#
#
# Indices 1 2 3 4 5 6 
#
# 1 0.017392 -0.003236 -0.002532 0.000000 0.000000 0.000000
# 2 -0.003236 0.011470 -0.000952 0.000000 0.000000 0.000000
# 3 -0.002532 -0.000952 0.013806 0.000000 0.000000 0.000000
# 4 0.000000 0.000000 0.000000 0.027867 0.000000 0.000000
# 5 0.000000 0.000000 0.000000 0.000000 0.038328 0.000000
# 6 0.000000 0.000000 0.000000 0.000000 0.000000 0.067172
#
#
# Mechanical properties :
#
#
# Convention : Reuss Voigt Hill
#
# Bulk Modulus (GPa) = 34.21350 34.96090 34.58720
# Shear Modulus (GPa) = 25.09789 28.04752 26.57270
#
# Velocity S-wave (km/s) = 3.36130 3.55333 3.45865
# Velocity P-wave (km/s) = 5.51963 5.70730 5.61425
#
# Compressibility (1/GPa) = 0.02922823
#
# Stress axis : x y z
#
# Youngs Moduli (GPa) = 57.49635 87.18310 72.43119
#
# Poissons Ratio (x) = 0.28216 0.18341
# Poissons Ratio (y) = 0.18608 0.06893
# Poissons Ratio (z) = 0.14559 0.08297
#
# Static dielectric constant tensor:
#      x y z
#    x 3.720360 0.000000 0.000000 
#    y 0.000000 4.356510 0.000000 
#    z 0.000000 0.000000 4.460500 
# 
# 
# High freq. dielectric constant tensor:
#      x y z
#    x 1.847620 0.000000 0.000000 
#    y 0.000000 1.898500 0.000000 
#    z 0.000000 0.000000 1.884000 
# 
# From -- ./inp_files/19649.got.cif
#   From: 2010.03.12/outbox.cif.g09.slc.cpg/sg70_10_cif.got.tgz:19649.got - 2010.04.16 13:46:32.
