data_PCOD8286274
_publ_section_title
;
Structure prediction by ZEFSAII (Michael W. Deem and Ramdas Pophale) SiO2 
 PCOD8286274
Probable space group: F D D D
;
_chemical_formula_sum "Si O2"
_cell_formula_units_Z 136
_cell_length_a 26.129314
_cell_length_b 19.672226
_cell_length_c 13.517887
_cell_angle_alpha 90.000000
_cell_angle_beta 90.000000
_cell_angle_gamma 90.000000
_cell_volume 6948.488206
_symmetry_space_group_name_H-M "F D D D"
_symmetry_group_IT_number 70
_space_group.IT_coordinate_system_code '2'
_symmetry_cell_setting 'orthorhombic'
loop_
_space_group_symop_operation_xyz
x,y,z
1/4-x,1/4-y,z
x,1/4-y,1/4-z
1/4-x,y,1/4-z
-x,-y,-z
3/4+x,3/4+y,-z
-x,3/4+y,3/4+z
3/4+x,-y,3/4+z
x,1/2+y,1/2+z
1/4-x,3/4-y,1/2+z
x,3/4-y,3/4-z
1/4-x,1/2+y,3/4-z
-x,1/2-y,1/2-z
3/4+x,1/4+y,1/2-z
-x,1/4+y,1/4+z
3/4+x,1/2-y,1/4+z
1/2+x,y,1/2+z
3/4-x,1/4-y,1/2+z
1/2+x,1/4-y,3/4-z
3/4-x,y,3/4-z
1/2-x,-y,1/2-z
1/4+x,3/4+y,1/2-z
1/2-x,3/4+y,1/4+z
1/4+x,-y,1/4+z
1/2+x,1/2+y,z
3/4-x,3/4-y,z
1/2+x,3/4-y,1/4-z
3/4-x,1/2+y,1/4-z
1/2-x,1/2-y,-z
1/4+x,1/4+y,-z
1/2-x,1/4+y,3/4+z
1/4+x,1/2-y,3/4+z
loop_
_atom_site_type_symbol
_atom_site_label
_atom_site_fract_x
_atom_site_fract_y
_atom_site_fract_z
Si Si1 0.750124 0.441339 0.108412
Si Si2 0.078174 0.668400 0.312940
Si Si3 0.822381 0.055814 0.072857
Si Si4 0.060270 0.938372 0.939517
Si Si5 0.375000 0.875000 0.875000
O O1 0.774920 0.369020 0.083888
O O2 0.795460 0.495745 0.124672
O O3 0.717665 0.435671 0.206800
O O4 0.713663 0.463912 0.018617
O O5 0.125000 0.625000 0.363527
O O6 0.072226 0.744752 0.349213
O O7 0.088991 0.672176 0.194443
O O8 0.803101 0.125000 0.125000
O O9 0.880023 0.064907 0.034812
O O10 0.042049 0.875000 0.875000
#
# Coordination Sequence:
#
# PCOD8286274 Si02
#       5
#    32  32  32  32   8
#     4  11  22  39  67  91 125 173 215 263 324 392
#     4  10  21  43  63  90 127 168 219 264 323 393
#     4  11  24  41  62  97 130 164 216 270 324 391
#     4  10  21  41  61  92 129 163 210 271 322 380
#     4   8  20  40  68  84 122 172 210 264 324 376
#
# _framework density 19.572603000000001
#
# number of rings (size 3 to 8) (size 9 to 14) (size 15 to 20)
#    0.706    0.941    2.353    2.118    1.647    0.941 
#   12.706    0.000    0.000    0.000    0.000    0.000 
#    0.000    0.000    0.000    0.000    0.000    0.000 
#
# Total GULP energy -421545.958464 kJ/mol
# GULP energy per Si atom -12398.410543 kJ/mol
# Density = 1.952805 g / cm^3
# Si number density = 19.572603 Si / 1000 Ang^3
#
#
#
# Elastic Constant Matrix: (Units=GPa)
#
#
# Indices 1 2 3 4 5 6 
#
# 1 64.8930 22.7762 35.4557 0.0000 0.0000 0.0000
# 2 22.7762 131.3895 57.6864 0.0000 0.0000 0.0000
# 3 35.4557 57.6864 122.1310 0.0000 0.0000 0.0000
# 4 0.0000 0.0000 0.0000 22.9664 0.0000 0.0000
# 5 0.0000 0.0000 0.0000 0.0000 113.3436 0.0000
# 6 0.0000 0.0000 0.0000 0.0000 0.0000 32.0609
#
#
#
# Elastic Compliance Matrix: (Units=1/GPa)
#
#
# Indices 1 2 3 4 5 6 
#
# 1 0.018433 -0.001067 -0.004847 0.000000 0.000000 0.000000
# 2 -0.001067 0.009664 -0.004255 0.000000 0.000000 0.000000
# 3 -0.004847 -0.004255 0.011605 0.000000 0.000000 0.000000
# 4 0.000000 0.000000 0.000000 0.043542 0.000000 0.000000
# 5 0.000000 0.000000 0.000000 0.000000 0.008823 0.000000
# 6 0.000000 0.000000 0.000000 0.000000 0.000000 0.031191
#
#
# Mechanical properties :
#
#
# Convention : Reuss Voigt Hill
#
# Bulk Modulus (GPa) = 51.64385 61.13889 56.39137
# Shear Modulus (GPa) = 33.32227 47.17385 40.24806
#
# Velocity S-wave (km/s) = 4.13061 4.91470 4.53962
# Velocity P-wave (km/s) = 7.01372 7.96935 7.50676
#
# Compressibility (1/GPa) = 0.01936339
#
# Stress axis : x y z
#
# Youngs Moduli (GPa) = 54.25083 103.47660 86.17129
#
# Poissons Ratio (x) = 0.11043 0.41769
# Poissons Ratio (y) = 0.05789 0.36664
# Poissons Ratio (z) = 0.26296 0.44027
#
# Static dielectric constant tensor:
#      x y z
#    x 3.672560 0.000000 0.000000 
#    y 0.000000 3.523540 0.000000 
#    z 0.000000 0.000000 3.432980 
# 
# 
# High freq. dielectric constant tensor:
#      x y z
#    x 1.772210 0.000000 0.000000 
#    y 0.000000 1.761460 0.000000 
#    z 0.000000 0.000000 1.759270 
# 
# From -- ./inp_files/28494.got.cif
#   From: 2010.03.12/outbox.cif.g09.slc.cpg/sg70_15_cif.got.tgz:28494.got - 2010.04.16 13:46:32.
