data_PCOD8286202
_publ_section_title
;
Structure prediction by ZEFSAII (Michael W. Deem and Ramdas Pophale) SiO2 
 PCOD8286202
Probable space group: F D D D
;
_chemical_formula_sum "Si O2"
_cell_formula_units_Z 176
_cell_length_a 12.958675
_cell_length_b 27.647685
_cell_length_c 24.214114
_cell_angle_alpha 90.000000
_cell_angle_beta 90.000000
_cell_angle_gamma 90.000000
_cell_volume 8675.368946
_symmetry_space_group_name_H-M "F D D D"
_symmetry_group_IT_number 70
_space_group.IT_coordinate_system_code '2'
_symmetry_cell_setting 'orthorhombic'
loop_
_space_group_symop_operation_xyz
x,y,z
1/4-x,1/4-y,z
x,1/4-y,1/4-z
1/4-x,y,1/4-z
-x,-y,-z
3/4+x,3/4+y,-z
-x,3/4+y,3/4+z
3/4+x,-y,3/4+z
x,1/2+y,1/2+z
1/4-x,3/4-y,1/2+z
x,3/4-y,3/4-z
1/4-x,1/2+y,3/4-z
-x,1/2-y,1/2-z
3/4+x,1/4+y,1/2-z
-x,1/4+y,1/4+z
3/4+x,1/2-y,1/4+z
1/2+x,y,1/2+z
3/4-x,1/4-y,1/2+z
1/2+x,1/4-y,3/4-z
3/4-x,y,3/4-z
1/2-x,-y,1/2-z
1/4+x,3/4+y,1/2-z
1/2-x,3/4+y,1/4+z
1/4+x,-y,1/4+z
1/2+x,1/2+y,z
3/4-x,3/4-y,z
1/2+x,3/4-y,1/4-z
3/4-x,1/2+y,1/4-z
1/2-x,1/2-y,-z
1/4+x,1/4+y,-z
1/2-x,1/4+y,3/4+z
1/4+x,1/2-y,3/4+z
loop_
_atom_site_type_symbol
_atom_site_label
_atom_site_fract_x
_atom_site_fract_y
_atom_site_fract_z
Si Si1 0.824176 0.575975 0.960638
Si Si2 0.875000 0.375000 0.248824
Si Si3 0.125000 0.401360 0.625000
Si Si4 0.504671 0.737702 0.402768
Si Si5 0.688817 0.720746 0.045518
Si Si6 0.802394 0.723311 0.549394
Si Si7 0.125000 0.744192 0.125000
O O1 0.704895 0.592171 0.964141
O O2 0.882706 0.619207 0.929723
O O3 0.827421 0.527269 0.923866
O O4 0.880414 0.570181 0.021232
O O5 0.811490 0.413463 0.284730
O O6 0.226550 0.435187 0.622335
O O7 0.425399 0.754962 0.450719
O O8 0.497687 0.776306 0.353514
O O9 0.620441 0.737176 0.424556
O O10 0.750000 0.750000 0.000000
O O11 0.750000 0.750000 0.500000
O O12 0.715451 0.710665 0.596492
#
# Coordination Sequence:
#
# PCOD8286202 Si02
#       7
#    32  16  16  32  32  32  16
#     4  10  21  37  58  95 120 156 213 258 315 370
#     4  12  20  35  62  88 130 160 202 267 320 366
#     4   9  20  38  62  91 119 153 203 274 312 373
#     4  10  21  39  60  87 121 159 208 252 322 372
#     4  10  22  36  58  90 123 161 202 253 323 377
#     4  10  21  40  60  88 124 163 210 254 306 382
#     4   9  22  38  62  84 122 173 212 247 308 375
#
# _framework density 20.287320999999999
#
# number of rings (size 3 to 8) (size 9 to 14) (size 15 to 20)
#    0.000    2.182    1.818    2.182    5.091    1.455 
#    0.000    0.000    0.000    2.182    0.000    0.000 
#    0.000    0.000    0.000    0.000    0.000    0.000 
#
# Total GULP energy -545133.296560 kJ/mol
# GULP energy per Si atom -12389.393104 kJ/mol
# Density = 2.024115 g / cm^3
# Si number density = 20.287321 Si / 1000 Ang^3
#
#
#
# Elastic Constant Matrix: (Units=GPa)
#
#
# Indices 1 2 3 4 5 6 
#
# 1 132.2583 26.4976 64.7041 0.0000 0.0000 0.0000
# 2 26.4976 94.3919 41.5884 0.0000 0.0000 0.0000
# 3 64.7041 41.5884 106.6265 0.0000 0.0000 0.0000
# 4 0.0000 0.0000 0.0000 21.1295 0.0000 0.0000
# 5 0.0000 0.0000 0.0000 0.0000 46.0213 0.0000
# 6 0.0000 0.0000 0.0000 0.0000 0.0000 22.1050
#
#
#
# Elastic Compliance Matrix: (Units=1/GPa)
#
#
# Indices 1 2 3 4 5 6 
#
# 1 0.010756 -0.000173 -0.006459 0.000000 0.000000 0.000000
# 2 -0.000173 0.012795 -0.004885 0.000000 0.000000 0.000000
# 3 -0.006459 -0.004885 0.015204 0.000000 0.000000 0.000000
# 4 0.000000 0.000000 0.000000 0.047327 0.000000 0.000000
# 5 0.000000 0.000000 0.000000 0.000000 0.021729 0.000000
# 6 0.000000 0.000000 0.000000 0.000000 0.000000 0.045239
#
#
# Mechanical properties :
#
#
# Convention : Reuss Voigt Hill
#
# Bulk Modulus (GPa) = 63.61918 66.53966 65.07942
# Shear Modulus (GPa) = 27.57476 31.21694 29.39585
#
# Velocity S-wave (km/s) = 3.69075 3.92693 3.81067
# Velocity P-wave (km/s) = 7.04197 7.30965 7.17706
#
# Compressibility (1/GPa) = 0.01571853
#
# Stress axis : x y z
#
# Youngs Moduli (GPa) = 92.97365 78.15373 65.77357
#
# Poissons Ratio (x) = 0.01356 0.42485
# Poissons Ratio (y) = 0.01613 0.32133
# Poissons Ratio (z) = 0.60054 0.38181
#
# Static dielectric constant tensor:
#      x y z
#    x 3.908560 0.000000 0.000000 
#    y 0.000000 3.664310 0.000000 
#    z 0.000000 0.000000 4.241070 
# 
# 
# High freq. dielectric constant tensor:
#      x y z
#    x 1.793700 0.000000 0.000000 
#    y 0.000000 1.763140 0.000000 
#    z 0.000000 0.000000 1.800360 
# 
# From -- ./inp_files/50466.got.cif
#   From: 2010.03.12/outbox.cif.g09.slc.cpg/sg70_26_cif.got.tgz:50466.got - 2010.04.16 13:46:32.
