data_PCOD8286363
_publ_section_title
;
Structure prediction by ZEFSAII (Michael W. Deem and Ramdas Pophale) SiO2 
 PCOD8286363
Probable space group: F D D D
;
_chemical_formula_sum "Si O2"
_cell_formula_units_Z 192
_cell_length_a 23.449958
_cell_length_b 14.148887
_cell_length_c 28.883021
_cell_angle_alpha 90.000000
_cell_angle_beta 90.000000
_cell_angle_gamma 90.000000
_cell_volume 9583.120814
_symmetry_space_group_name_H-M "F D D D"
_symmetry_group_IT_number 70
_space_group.IT_coordinate_system_code '2'
_symmetry_cell_setting 'orthorhombic'
loop_
_space_group_symop_operation_xyz
x,y,z
1/4-x,1/4-y,z
x,1/4-y,1/4-z
1/4-x,y,1/4-z
-x,-y,-z
3/4+x,3/4+y,-z
-x,3/4+y,3/4+z
3/4+x,-y,3/4+z
x,1/2+y,1/2+z
1/4-x,3/4-y,1/2+z
x,3/4-y,3/4-z
1/4-x,1/2+y,3/4-z
-x,1/2-y,1/2-z
3/4+x,1/4+y,1/2-z
-x,1/4+y,1/4+z
3/4+x,1/2-y,1/4+z
1/2+x,y,1/2+z
3/4-x,1/4-y,1/2+z
1/2+x,1/4-y,3/4-z
3/4-x,y,3/4-z
1/2-x,-y,1/2-z
1/4+x,3/4+y,1/2-z
1/2-x,3/4+y,1/4+z
1/4+x,-y,1/4+z
1/2+x,1/2+y,z
3/4-x,3/4-y,z
1/2+x,3/4-y,1/4-z
3/4-x,1/2+y,1/4-z
1/2-x,1/2-y,-z
1/4+x,1/4+y,-z
1/2-x,1/4+y,3/4+z
1/4+x,1/2-y,3/4+z
loop_
_atom_site_type_symbol
_atom_site_label
_atom_site_fract_x
_atom_site_fract_y
_atom_site_fract_z
Si Si1 0.050144 0.897878 0.558997
Si Si2 0.875000 0.718125 0.875000
Si Si3 0.963957 0.875000 0.875000
Si Si4 0.715487 0.270103 0.888615
Si Si5 0.989268 0.535547 0.714537
Si Si6 0.170845 0.206644 0.294112
Si Si7 0.388882 0.170031 0.219433
O O1 0.104388 0.846417 0.582546
O O2 0.071928 0.949190 0.512755
O O3 0.023313 0.977187 0.591223
O O4 0.000411 0.823255 0.547743
O O5 0.926464 0.785474 0.858588
O O6 0.002446 0.899704 0.830859
O O7 0.733567 0.375000 0.875000
O O8 0.697770 0.205807 0.845201
O O9 0.663017 0.275232 0.924689
O O10 0.924561 0.546094 0.730386
O O11 0.030873 0.565946 0.756156
O O12 0.125000 0.125000 0.289707
O O13 0.140357 0.306848 0.285952
#
# Coordination Sequence:
#
# PCOD8286363 Si02
#       7
#    32  16  16  32  32  32  32
#     4  10  22  40  64  88 121 164 209 258 310 376
#     4   9  20  36  61  90 124 158 201 248 316 371
#     4   9  20  36  62  90 132 160 194 247 310 388
#     4  10  23  43  63  85 124 161 211 264 313 361
#     4  10  23  38  63  94 124 164 206 246 318 376
#     4  10  24  39  61  94 128 161 203 258 313 373
#     4  10  23  41  62  89 125 162 212 260 306 373
#
# _framework density 20.035228
#
# number of rings (size 3 to 8) (size 9 to 14) (size 15 to 20)
#    0.000    2.167    0.000    0.500   15.167    2.000 
#    0.000    0.417    0.000    0.000    0.000    0.000 
#    0.000    0.000    0.000    0.000    0.000    0.000 
#
# Total GULP energy -595343.656947 kJ/mol
# GULP energy per Si atom -12402.992853 kJ/mol
# Density = 1.998963 g / cm^3
# Si number density = 20.035228 Si / 1000 Ang^3
#
#
#
# Elastic Constant Matrix: (Units=GPa)
#
#
# Indices 1 2 3 4 5 6 
#
# 1 115.6785 50.8324 63.3957 0.0000 0.0000 0.0000
# 2 50.8324 56.5525 44.9738 0.0000 0.0000 0.0000
# 3 63.3957 44.9738 146.7724 0.0000 0.0000 0.0000
# 4 0.0000 0.0000 0.0000 24.7390 0.0000 0.0000
# 5 0.0000 0.0000 0.0000 0.0000 30.6888 0.0000
# 6 0.0000 0.0000 0.0000 0.0000 0.0000 16.6539
#
#
#
# Elastic Compliance Matrix: (Units=1/GPa)
#
#
# Indices 1 2 3 4 5 6 
#
# 1 0.015329 -0.011256 -0.003172 0.000000 0.000000 0.000000
# 2 -0.011256 0.031645 -0.004835 0.000000 0.000000 0.000000
# 3 -0.003172 -0.004835 0.009665 0.000000 0.000000 0.000000
# 4 0.000000 0.000000 0.000000 0.040422 0.000000 0.000000
# 5 0.000000 0.000000 0.000000 0.000000 0.032585 0.000000
# 6 0.000000 0.000000 0.000000 0.000000 0.000000 0.060046
#
#
# Mechanical properties :
#
#
# Convention : Reuss Voigt Hill
#
# Bulk Modulus (GPa) = 55.20813 70.82301 63.01557
# Shear Modulus (GPa) = 21.34412 25.06978 23.20695
#
# Velocity S-wave (km/s) = 3.26748 3.54119 3.40708
# Velocity P-wave (km/s) = 6.46920 7.22122 6.85553
#
# Compressibility (1/GPa) = 0.01811327
#
# Stress axis : x y z
#
# Youngs Moduli (GPa) = 65.23434 31.60038 103.46738
#
# Poissons Ratio (x) = 0.35570 0.32821
# Poissons Ratio (y) = 0.73429 0.50024
# Poissons Ratio (z) = 0.20693 0.15278
#
# Static dielectric constant tensor:
#      x y z
#    x 3.405620 0.000000 0.000000 
#    y 0.000000 3.580680 0.000000 
#    z 0.000000 0.000000 3.898240 
# 
# 
# High freq. dielectric constant tensor:
#      x y z
#    x 1.774840 0.000000 0.000000 
#    y 0.000000 1.775870 0.000000 
#    z 0.000000 0.000000 1.796090 
# 
# From -- ./inp_files/58666.got.cif
#   From: 2010.03.12/outbox.cif.g09.slc.cpg/sg70_30_cif.got.tgz:58666.got - 2010.04.16 13:46:32.
