data_PCOD8286864
_publ_section_title
;
Structure prediction by ZEFSAII (Michael W. Deem and Ramdas Pophale) SiO2 
 PCOD8286864
Probable space group: F D D D
;
_chemical_formula_sum "Si O2"
_cell_formula_units_Z 104
_cell_length_a 24.400865
_cell_length_b 16.034982
_cell_length_c 10.602794
_cell_angle_alpha 90.000000
_cell_angle_beta 90.000000
_cell_angle_gamma 90.000000
_cell_volume 4148.527970
_symmetry_space_group_name_H-M "F D D D"
_symmetry_group_IT_number 70
_space_group.IT_coordinate_system_code '2'
_symmetry_cell_setting 'orthorhombic'
loop_
_space_group_symop_operation_xyz
x,y,z
1/4-x,1/4-y,z
x,1/4-y,1/4-z
1/4-x,y,1/4-z
-x,-y,-z
3/4+x,3/4+y,-z
-x,3/4+y,3/4+z
3/4+x,-y,3/4+z
x,1/2+y,1/2+z
1/4-x,3/4-y,1/2+z
x,3/4-y,3/4-z
1/4-x,1/2+y,3/4-z
-x,1/2-y,1/2-z
3/4+x,1/4+y,1/2-z
-x,1/4+y,1/4+z
3/4+x,1/2-y,1/4+z
1/2+x,y,1/2+z
3/4-x,1/4-y,1/2+z
1/2+x,1/4-y,3/4-z
3/4-x,y,3/4-z
1/2-x,-y,1/2-z
1/4+x,3/4+y,1/2-z
1/2-x,3/4+y,1/4+z
1/4+x,-y,1/4+z
1/2+x,1/2+y,z
3/4-x,3/4-y,z
1/2+x,3/4-y,1/4-z
3/4-x,1/2+y,1/4-z
1/2-x,1/2-y,-z
1/4+x,1/4+y,-z
1/2-x,1/4+y,3/4+z
1/4+x,1/2-y,3/4+z
loop_
_atom_site_type_symbol
_atom_site_label
_atom_site_fract_x
_atom_site_fract_y
_atom_site_fract_z
Si Si1 0.924662 0.125000 0.125000
Si Si2 0.375000 0.375000 0.375000
Si Si3 0.734554 0.007828 0.540307
Si Si4 0.718655 0.168809 0.964675
Si Si5 0.875000 0.063800 0.875000
O O1 0.885099 0.130240 0.248663
O O2 0.964510 0.205942 0.120313
O O3 0.339998 0.318049 0.470012
O O4 0.754671 0.917894 0.486029
O O5 0.678843 0.993597 0.617027
O O6 0.718068 0.077847 0.436951
O O7 0.750000 0.250000 0.000000
#
# Coordination Sequence:
#
# PCOD8286864 Si02
#       5
#    16   8  32  32  16
#     4  12  30  54  78 126 160 220 280 338 410 506
#     4  12  28  44  84 120 164 224 272 344 416 486
#     4  12  28  51  79 113 166 213 273 341 405 506
#     4  12  27  48  76 116 161 210 279 337 405 490
#     4  12  30  50  88 114 170 220 268 343 429 475
#
# _framework density 25.069133000000001
#
# number of rings (size 3 to 8) (size 9 to 14) (size 15 to 20)
#    0.000    0.000    6.154    0.923    8.615    3.077 
#    0.000    0.000    0.000    0.000    0.000    0.000 
#    0.000    0.000    0.000    0.000    0.000    0.000 
#
# Total GULP energy -322226.140080 kJ/mol
# GULP energy per Si atom -12393.313080 kJ/mol
# Density = 2.501207 g / cm^3
# Si number density = 25.069133 Si / 1000 Ang^3
#
#
#
# Elastic Constant Matrix: (Units=GPa)
#
#
# Indices 1 2 3 4 5 6 
#
# 1 158.7325 58.3845 69.7425 0.0000 0.0000 0.0000
# 2 58.3845 140.5195 37.3130 0.0000 0.0000 0.0000
# 3 69.7425 37.3130 152.2207 0.0000 0.0000 0.0000
# 4 0.0000 0.0000 0.0000 42.1441 0.0000 0.0000
# 5 0.0000 0.0000 0.0000 0.0000 66.4087 0.0000
# 6 0.0000 0.0000 0.0000 0.0000 0.0000 -4.8768
#
#
#
# Elastic Compliance Matrix: (Units=1/GPa)
#
#
# Indices 1 2 3 4 5 6 
#
# 1 0.008787 -0.002762 -0.003349 0.000000 0.000000 0.000000
# 2 -0.002762 0.008480 -0.000813 0.000000 0.000000 0.000000
# 3 -0.003349 -0.000813 0.008303 0.000000 0.000000 0.000000
# 4 0.000000 0.000000 0.000000 0.023728 0.000000 0.000000
# 5 0.000000 0.000000 0.000000 0.000000 0.015058 0.000000
# 6 0.000000 0.000000 0.000000 0.000000 0.000000 -0.205053
#
#
# Mechanical properties :
#
#
# Convention : Reuss Voigt Hill
#
# Bulk Modulus (GPa) = 85.30849 86.92806 86.11827
# Shear Modulus (GPa) = -40.66980 39.80406 -0.43287
#
# Velocity S-wave (km/s) = -4.03216 3.98901 -0.41599
# Velocity P-wave (km/s) = 3.52498 7.48110 5.84775
#
# Compressibility (1/GPa) = 0.01172216
#
# Stress axis : x y z
#
# Youngs Moduli (GPa) = 113.80225 117.92632 120.43571
#
# Poissons Ratio (x) = 0.32568 0.40334
# Poissons Ratio (y) = 0.31429 0.09795
# Poissons Ratio (z) = 0.38113 0.09591
#
# Static dielectric constant tensor:
#      x y z
#    x 4.484460 0.000000 0.000000 
#    y 0.000000 5.218070 0.000000 
#    z 0.000000 0.000000 4.909010 
# 
# 
# High freq. dielectric constant tensor:
#      x y z
#    x 2.005770 0.000000 0.000000 
#    y 0.000000 1.989940 0.000000 
#    z 0.000000 0.000000 2.017930 
# 
# From -- ./inp_files/16225.got.cif
#   From: 2010.03.12/outbox.cif.g09.slc.cpg/sg70_9_cif.got.tgz:16225.got - 2010.04.16 13:46:32.
