data_PCOD8286598
_publ_section_title
;
Structure prediction by ZEFSAII (Michael W. Deem and Ramdas Pophale) SiO2 
 PCOD8286598
Probable space group: F D D D
;
_chemical_formula_sum "Si O2"
_cell_formula_units_Z 160
_cell_length_a 26.075584
_cell_length_b 13.223201
_cell_length_c 23.168592
_cell_angle_alpha 90.000000
_cell_angle_beta 90.000000
_cell_angle_gamma 90.000000
_cell_volume 7988.592809
_symmetry_space_group_name_H-M "F D D D"
_symmetry_group_IT_number 70
_space_group.IT_coordinate_system_code '2'
_symmetry_cell_setting 'orthorhombic'
loop_
_space_group_symop_operation_xyz
x,y,z
1/4-x,1/4-y,z
x,1/4-y,1/4-z
1/4-x,y,1/4-z
-x,-y,-z
3/4+x,3/4+y,-z
-x,3/4+y,3/4+z
3/4+x,-y,3/4+z
x,1/2+y,1/2+z
1/4-x,3/4-y,1/2+z
x,3/4-y,3/4-z
1/4-x,1/2+y,3/4-z
-x,1/2-y,1/2-z
3/4+x,1/4+y,1/2-z
-x,1/4+y,1/4+z
3/4+x,1/2-y,1/4+z
1/2+x,y,1/2+z
3/4-x,1/4-y,1/2+z
1/2+x,1/4-y,3/4-z
3/4-x,y,3/4-z
1/2-x,-y,1/2-z
1/4+x,3/4+y,1/2-z
1/2-x,3/4+y,1/4+z
1/4+x,-y,1/4+z
1/2+x,1/2+y,z
3/4-x,3/4-y,z
1/2+x,3/4-y,1/4-z
3/4-x,1/2+y,1/4-z
1/2-x,1/2-y,-z
1/4+x,1/4+y,-z
1/2-x,1/4+y,3/4+z
1/4+x,1/2-y,3/4+z
loop_
_atom_site_type_symbol
_atom_site_label
_atom_site_fract_x
_atom_site_fract_y
_atom_site_fract_z
Si Si1 0.944617 0.546561 0.006856
Si Si2 0.764824 0.375000 0.375000
Si Si3 0.908393 0.125000 0.625000
Si Si4 0.428725 0.779626 0.140700
Si Si5 0.125000 0.625000 0.960319
Si Si6 0.159373 0.774029 0.680854
Si Si7 0.125000 0.625000 0.767434
O O1 0.943505 0.593903 0.070924
O O2 0.899314 0.462989 0.000239
O O3 0.936612 0.625885 0.954708
O O4 0.000000 0.500000 0.000000
O O5 0.729257 0.463062 0.348339
O O6 0.800034 0.317021 0.329126
O O7 0.872665 0.214126 0.601736
O O8 0.423194 0.832427 0.077903
O O9 0.425548 0.864033 0.191227
O O10 0.125000 0.800120 0.625000
O O11 0.123639 0.727543 0.730159
#
# Coordination Sequence:
#
# PCOD8286598 Si02
#       7
#    32  16  16  32  16  32  16
#     4  11  23  43  65  93 127 171 219 269 315 395
#     4  11  21  38  59  96 126 167 220 259 309 396
#     4   9  18  38  63  87 121 159 212 264 319 358
#     4   9  19  35  66  91 116 160 216 263 313 372
#     4   9  20  42  64  90 126 160 209 278 318 366
#     4  12  24  43  60  89 140 168 201 265 334 382
#     4  11  19  40  61  88 125 170 196 258 332 378
#
# _framework density 20.028558
#
# number of rings (size 3 to 8) (size 9 to 14) (size 15 to 20)
#    0.000    1.600    4.000    1.200    0.000    0.800 
#    3.600    0.000    0.000    0.000    0.000    0.000 
#    0.000    0.000    0.000    0.000    0.000    0.000 
#
# Total GULP energy -495681.121069 kJ/mol
# GULP energy per Si atom -12392.028027 kJ/mol
# Density = 1.998297 g / cm^3
# Si number density = 20.028558 Si / 1000 Ang^3
#
#
#
# Elastic Constant Matrix: (Units=GPa)
#
#
# Indices 1 2 3 4 5 6 
#
# 1 85.9725 37.6251 43.1996 0.0000 0.0000 0.0000
# 2 37.6251 110.9626 42.4028 0.0000 0.0000 0.0000
# 3 43.1996 42.4028 94.7475 0.0000 0.0000 0.0000
# 4 0.0000 0.0000 0.0000 45.7075 0.0000 0.0000
# 5 0.0000 0.0000 0.0000 0.0000 15.2667 0.0000
# 6 0.0000 0.0000 0.0000 0.0000 0.0000 51.6139
#
#
#
# Elastic Compliance Matrix: (Units=1/GPa)
#
#
# Indices 1 2 3 4 5 6 
#
# 1 0.015965 -0.003175 -0.005858 0.000000 0.000000 0.000000
# 2 -0.003175 0.011503 -0.003700 0.000000 0.000000 0.000000
# 3 -0.005858 -0.003700 0.014881 0.000000 0.000000 0.000000
# 4 0.000000 0.000000 0.000000 0.021878 0.000000 0.000000
# 5 0.000000 0.000000 0.000000 0.000000 0.065502 0.000000
# 6 0.000000 0.000000 0.000000 0.000000 0.000000 0.019375
#
#
# Mechanical properties :
#
#
# Convention : Reuss Voigt Hill
#
# Bulk Modulus (GPa) = 59.23396 59.79306 59.51351
# Shear Modulus (GPa) = 27.74737 33.74797 30.74767
#
# Velocity S-wave (km/s) = 3.72612 4.10932 3.92240
# Velocity P-wave (km/s) = 6.93909 7.24114 7.09172
#
# Compressibility (1/GPa) = 0.01688221
#
# Stress axis : x y z
#
# Youngs Moduli (GPa) = 62.63855 86.93751 67.19795
#
# Poissons Ratio (x) = 0.27599 0.39366
# Poissons Ratio (y) = 0.19885 0.24865
# Poissons Ratio (z) = 0.36695 0.32170
#
# Static dielectric constant tensor:
#      x y z
#    x 3.434250 0.000000 0.000000 
#    y 0.000000 4.116030 0.000000 
#    z 0.000000 0.000000 3.559090 
# 
# 
# High freq. dielectric constant tensor:
#      x y z
#    x 1.757810 0.000000 0.000000 
#    y 0.000000 1.799080 0.000000 
#    z 0.000000 0.000000 1.771920 
# 
# From -- ./inp_files/28720.got.cif
#   From: 2010.03.12/outbox.cif.g09.slc.cpg/sg70_15_cif.got.tgz:28720.got - 2010.04.16 13:46:32.
