data_PCOD8286126
_publ_section_title
;
Structure prediction by ZEFSAII (Michael W. Deem and Ramdas Pophale) SiO2 
 PCOD8286126
Probable space group: F D D D
;
_chemical_formula_sum "Si O2"
_cell_formula_units_Z 176
_cell_length_a 25.530518
_cell_length_b 10.461280
_cell_length_c 32.359777
_cell_angle_alpha 90.000000
_cell_angle_beta 90.000000
_cell_angle_gamma 90.000000
_cell_volume 8642.710639
_symmetry_space_group_name_H-M "F D D D"
_symmetry_group_IT_number 70
_space_group.IT_coordinate_system_code '2'
_symmetry_cell_setting 'orthorhombic'
loop_
_space_group_symop_operation_xyz
x,y,z
1/4-x,1/4-y,z
x,1/4-y,1/4-z
1/4-x,y,1/4-z
-x,-y,-z
3/4+x,3/4+y,-z
-x,3/4+y,3/4+z
3/4+x,-y,3/4+z
x,1/2+y,1/2+z
1/4-x,3/4-y,1/2+z
x,3/4-y,3/4-z
1/4-x,1/2+y,3/4-z
-x,1/2-y,1/2-z
3/4+x,1/4+y,1/2-z
-x,1/4+y,1/4+z
3/4+x,1/2-y,1/4+z
1/2+x,y,1/2+z
3/4-x,1/4-y,1/2+z
1/2+x,1/4-y,3/4-z
3/4-x,y,3/4-z
1/2-x,-y,1/2-z
1/4+x,3/4+y,1/2-z
1/2-x,3/4+y,1/4+z
1/4+x,-y,1/4+z
1/2+x,1/2+y,z
3/4-x,3/4-y,z
1/2+x,3/4-y,1/4-z
3/4-x,1/2+y,1/4-z
1/2-x,1/2-y,-z
1/4+x,1/4+y,-z
1/2-x,1/4+y,3/4+z
1/4+x,1/2-y,3/4+z
loop_
_atom_site_type_symbol
_atom_site_label
_atom_site_fract_x
_atom_site_fract_y
_atom_site_fract_z
Si Si1 0.166814 0.515951 0.054736
Si Si2 0.270630 0.239777 0.652107
Si Si3 0.237303 0.256572 0.144755
Si Si4 0.029341 0.340280 0.474484
Si Si5 0.625000 0.832022 0.125000
Si Si6 0.182494 0.144034 0.971497
O O1 0.125000 0.625000 0.046765
O O2 0.219005 0.570969 0.076436
O O3 0.142161 0.412377 0.085068
O O4 0.182073 0.460023 0.010107
O O5 0.256459 0.365233 0.626695
O O6 0.311633 0.284904 0.686574
O O7 0.295625 0.125000 0.625000
O O8 0.264200 0.264471 0.190040
O O9 0.173845 0.249787 0.142230
O O10 0.258396 0.125000 0.125000
O O11 0.057366 0.463446 0.453545
O O12 0.972728 0.379421 0.491414
O O13 0.125000 0.125000 0.990209
#
# Coordination Sequence:
#
# PCOD8286126 Si02
#       6
#    32  32  32  32  16  32
#     4  10  20  40  63  95 133 167 209 271 335 396
#     4  10  21  42  63  89 124 168 212 265 319 383
#     4  11  21  39  62  93 131 162 218 275 313 389
#     4  10  23  40  64  95 130 165 213 277 328 385
#     4  10  22  34  66 100 121 174 223 266 329 390
#     4  10  22  42  63  86 128 171 209 261 331 387
#
# _framework density 20.363983000000001
#
# number of rings (size 3 to 8) (size 9 to 14) (size 15 to 20)
#    0.000    1.818    1.818    2.727    5.091    0.000 
#    6.545    2.727    0.000    0.000    0.000    0.000 
#    0.000    0.000    0.000    0.000    0.000    0.000 
#
# Total GULP energy -545267.889212 kJ/mol
# GULP energy per Si atom -12392.452028 kJ/mol
# Density = 2.031763 g / cm^3
# Si number density = 20.363983 Si / 1000 Ang^3
#
#
#
# Elastic Constant Matrix: (Units=GPa)
#
#
# Indices 1 2 3 4 5 6 
#
# 1 100.0158 43.3362 45.6477 0.0000 0.0000 -0.0001
# 2 43.3362 104.0778 40.4571 0.0000 0.0000 -0.0001
# 3 45.6477 40.4571 101.6615 0.0000 0.0000 0.0000
# 4 0.0000 0.0000 0.0000 9.4430 0.0000 0.0000
# 5 0.0000 0.0000 0.0000 0.0000 29.0210 0.0000
# 6 -0.0001 -0.0001 0.0000 0.0000 0.0000 24.4407
#
#
#
# Elastic Compliance Matrix: (Units=1/GPa)
#
#
# Indices 1 2 3 4 5 6 
#
# 1 0.013828 -0.003956 -0.004635 0.000000 0.000000 0.000000
# 2 -0.003956 0.012498 -0.003197 0.000000 0.000000 0.000000
# 3 -0.004635 -0.003197 0.013190 0.000000 0.000000 0.000000
# 4 0.000000 0.000000 0.000000 0.105899 0.000000 0.000000
# 5 0.000000 0.000000 0.000000 0.000000 0.034458 0.000000
# 6 0.000000 0.000000 0.000000 0.000000 0.000000 0.040915
#
#
# Mechanical properties :
#
#
# Convention : Reuss Voigt Hill
#
# Bulk Modulus (GPa) = 62.73555 62.73744 62.73650
# Shear Modulus (GPa) = 20.02580 24.33520 22.18050
#
# Velocity S-wave (km/s) = 3.13931 3.46064 3.30389
# Velocity P-wave (km/s) = 6.63433 6.84419 6.74008
#
# Compressibility (1/GPa) = 0.01593993
#
# Stress axis : x y z
#
# Youngs Moduli (GPa) = 72.31800 80.01043 75.81496
#
# Poissons Ratio (x) = 0.31653 0.35137
# Poissons Ratio (y) = 0.28610 0.24242
# Poissons Ratio (z) = 0.33516 0.25583
#
# Static dielectric constant tensor:
#      x y z
#    x 3.680790 0.000000 0.000000 
#    y 0.000000 3.640520 0.000000 
#    z 0.000000 0.000000 3.669390 
# 
# 
# High freq. dielectric constant tensor:
#      x y z
#    x 1.787290 0.000000 0.000000 
#    y 0.000000 1.790140 0.000000 
#    z 0.000000 0.000000 1.795490 
# 
# From -- ./inp_files/67796.got.cif
#   From: 2010.03.12/outbox.cif.g09.slc.cpg/sg70_34_cif.got.tgz:67796.got - 2010.04.16 13:46:32.
