data_PCOD8286197
_publ_section_title
;
Structure prediction by ZEFSAII (Michael W. Deem and Ramdas Pophale) SiO2 
 PCOD8286197
Probable space group: F D D D
;
_chemical_formula_sum "Si O2"
_cell_formula_units_Z 120
_cell_length_a 26.827617
_cell_length_b 9.661348
_cell_length_c 22.570177
_cell_angle_alpha 90.000000
_cell_angle_beta 90.000000
_cell_angle_gamma 90.000000
_cell_volume 5849.985479
_symmetry_space_group_name_H-M "F D D D"
_symmetry_group_IT_number 70
_space_group.IT_coordinate_system_code '2'
_symmetry_cell_setting 'orthorhombic'
loop_
_space_group_symop_operation_xyz
x,y,z
1/4-x,1/4-y,z
x,1/4-y,1/4-z
1/4-x,y,1/4-z
-x,-y,-z
3/4+x,3/4+y,-z
-x,3/4+y,3/4+z
3/4+x,-y,3/4+z
x,1/2+y,1/2+z
1/4-x,3/4-y,1/2+z
x,3/4-y,3/4-z
1/4-x,1/2+y,3/4-z
-x,1/2-y,1/2-z
3/4+x,1/4+y,1/2-z
-x,1/4+y,1/4+z
3/4+x,1/2-y,1/4+z
1/2+x,y,1/2+z
3/4-x,1/4-y,1/2+z
1/2+x,1/4-y,3/4-z
3/4-x,y,3/4-z
1/2-x,-y,1/2-z
1/4+x,3/4+y,1/2-z
1/2-x,3/4+y,1/4+z
1/4+x,-y,1/4+z
1/2+x,1/2+y,z
3/4-x,3/4-y,z
1/2+x,3/4-y,1/4-z
3/4-x,1/2+y,1/4-z
1/2-x,1/2-y,-z
1/4+x,1/4+y,-z
1/2-x,1/4+y,3/4+z
1/4+x,1/2-y,3/4+z
loop_
_atom_site_type_symbol
_atom_site_label
_atom_site_fract_x
_atom_site_fract_y
_atom_site_fract_z
Si Si1 0.924205 0.101794 0.543488
Si Si2 0.921748 0.636921 0.341421
Si Si3 0.375000 0.375000 0.875000
Si Si4 0.416796 0.125000 0.625000
Si Si5 0.720946 0.660801 0.364202
O O1 0.927597 0.059619 0.475120
O O2 0.867360 0.103845 0.566812
O O3 0.951464 0.248155 0.558535
O O4 0.952032 0.976554 0.575085
O O5 0.875000 0.710122 0.375000
O O6 0.910404 0.472147 0.334674
O O7 0.969258 0.663386 0.383098
O O8 0.451517 0.254935 0.639651
#
# Coordination Sequence:
#
# PCOD8286197 Si02
#       5
#    32  32   8  16  32
#     4  10  21  39  61  86 123 151 202 251 299 359
#     4  10  22  38  59  87 124 157 202 252 297 356
#     4   8  22  36  56  86 120 152 204 236 306 340
#     4  10  21  36  63  86 115 158 200 243 302 358
#     4  10  21  39  60  90 115 161 197 246 306 358
#
# _framework density 20.512872000000002
#
# number of rings (size 3 to 8) (size 9 to 14) (size 15 to 20)
#    0.800    1.600    0.000    4.800    3.733    2.133 
#    0.000   12.000    0.000    0.000    0.000    0.000 
#    0.000    0.000    0.000    0.000    0.000    0.000 
#
# Total GULP energy -371783.739640 kJ/mol
# GULP energy per Si atom -12392.791321 kJ/mol
# Density = 2.046618 g / cm^3
# Si number density = 20.512872 Si / 1000 Ang^3
#
#
#
# Elastic Constant Matrix: (Units=GPa)
#
#
# Indices 1 2 3 4 5 6 
#
# 1 155.5162 17.9901 29.6367 0.0000 0.0000 0.0000
# 2 17.9901 74.7695 -2.3355 0.0000 0.0000 0.0000
# 3 29.6367 -2.3355 82.2280 0.0000 0.0000 0.0000
# 4 0.0000 0.0000 0.0000 11.3860 0.0000 0.0000
# 5 0.0000 0.0000 0.0000 0.0000 9.4042 0.0000
# 6 0.0000 0.0000 0.0000 0.0000 0.0000 15.0905
#
#
#
# Elastic Compliance Matrix: (Units=1/GPa)
#
#
# Indices 1 2 3 4 5 6 
#
# 1 0.007138 -0.001800 -0.002624 0.000000 0.000000 0.000000
# 2 -0.001800 0.013840 0.001042 0.000000 0.000000 0.000000
# 3 -0.002624 0.001042 0.013137 0.000000 0.000000 0.000000
# 4 0.000000 0.000000 0.000000 0.087827 0.000000 0.000000
# 5 0.000000 0.000000 0.000000 0.000000 0.106336 0.000000
# 6 0.000000 0.000000 0.000000 0.000000 0.000000 0.066267
#
#
# Mechanical properties :
#
#
# Convention : Reuss Voigt Hill
#
# Bulk Modulus (GPa) = 36.56116 44.78846 40.67481
# Shear Modulus (GPa) = 16.10692 24.99096 20.54894
#
# Velocity S-wave (km/s) = 2.80520 3.49421 3.16849
# Velocity P-wave (km/s) = 5.32489 6.17746 5.76695
#
# Compressibility (1/GPa) = 0.02735143
#
# Stress axis : x y z
#
# Youngs Moduli (GPa) = 140.08727 72.25456 76.12311
#
# Poissons Ratio (x) = 0.13002 0.19974
# Poissons Ratio (y) = 0.25209 -0.07930
# Poissons Ratio (z) = 0.36758 -0.07527
#
# Static dielectric constant tensor:
#      x y z
#    x 3.842510 0.000000 0.000000 
#    y 0.000000 3.647250 0.000000 
#    z 0.000000 0.000000 3.329690 
# 
# 
# High freq. dielectric constant tensor:
#      x y z
#    x 1.810840 0.000000 0.000000 
#    y 0.000000 1.800320 0.000000 
#    z 0.000000 0.000000 1.776810 
# 
# From -- ./inp_files/47445.got.cif
#   From: 2010.03.12/outbox.cif.g09.slc.cpg/sg70_24_cif.got.tgz:47445.got - 2010.04.16 13:46:32.
