data_PCOD8286428
_publ_section_title
;
Structure prediction by ZEFSAII (Michael W. Deem and Ramdas Pophale) SiO2 
 PCOD8286428
Probable space group: F D D D
;
_chemical_formula_sum "Si O2"
_cell_formula_units_Z 208
_cell_length_a 17.877354
_cell_length_b 17.006804
_cell_length_c 28.727042
_cell_angle_alpha 90.000000
_cell_angle_beta 90.000000
_cell_angle_gamma 90.000000
_cell_volume 8734.073773
_symmetry_space_group_name_H-M "F D D D"
_symmetry_group_IT_number 70
_space_group.IT_coordinate_system_code '2'
_symmetry_cell_setting 'orthorhombic'
loop_
_space_group_symop_operation_xyz
x,y,z
1/4-x,1/4-y,z
x,1/4-y,1/4-z
1/4-x,y,1/4-z
-x,-y,-z
3/4+x,3/4+y,-z
-x,3/4+y,3/4+z
3/4+x,-y,3/4+z
x,1/2+y,1/2+z
1/4-x,3/4-y,1/2+z
x,3/4-y,3/4-z
1/4-x,1/2+y,3/4-z
-x,1/2-y,1/2-z
3/4+x,1/4+y,1/2-z
-x,1/4+y,1/4+z
3/4+x,1/2-y,1/4+z
1/2+x,y,1/2+z
3/4-x,1/4-y,1/2+z
1/2+x,1/4-y,3/4-z
3/4-x,y,3/4-z
1/2-x,-y,1/2-z
1/4+x,3/4+y,1/2-z
1/2-x,3/4+y,1/4+z
1/4+x,-y,1/4+z
1/2+x,1/2+y,z
3/4-x,3/4-y,z
1/2+x,3/4-y,1/4-z
3/4-x,1/2+y,1/4-z
1/2-x,1/2-y,-z
1/4+x,1/4+y,-z
1/2-x,1/4+y,3/4+z
1/4+x,1/2-y,3/4+z
loop_
_atom_site_type_symbol
_atom_site_label
_atom_site_fract_x
_atom_site_fract_y
_atom_site_fract_z
Si Si1 0.211070 0.852111 0.133423
Si Si2 0.466296 0.625000 0.125000
Si Si3 0.560589 0.955086 0.532331
Si Si4 0.652105 0.040227 0.991779
Si Si5 0.963901 0.936841 0.336463
Si Si6 0.786951 0.239666 0.319136
Si Si7 0.643829 0.364413 0.956725
O O1 0.125000 0.833928 0.125000
O O2 0.232010 0.903127 0.179370
O O3 0.247792 0.765217 0.138544
O O4 0.234712 0.903354 0.089113
O O5 0.517167 0.698089 0.109709
O O6 0.412829 0.603739 0.082263
O O7 0.625180 0.008248 0.557522
O O8 0.613370 0.896745 0.504615
O O9 0.500000 0.000000 0.500000
O O10 0.625000 0.125000 0.973470
O O11 0.734782 0.007925 0.976441
O O12 0.597101 0.979012 0.965747
O O13 0.649529 0.039012 0.048747
O O14 0.934579 0.875000 0.375000
O O15 0.024901 0.895006 0.304742
#
# Coordination Sequence:
#
# PCOD8286428 Si02
#       7
#    32  16  32  32  32  32  32
#     4  10  24  44  66 103 142 187 242 301 359 436
#     4  10  22  44  69 100 145 188 230 298 361 434
#     4  11  22  44  73 101 140 191 236 301 360 432
#     4  11  26  43  71 101 137 187 236 301 367 431
#     4  12  26  43  71 102 141 192 238 299 371 432
#     4  10  23  45  71 102 146 185 244 295 361 438
#     4  11  23  45  65 104 144 176 241 302 350 437
#
# _framework density 23.814775000000001
#
# number of rings (size 3 to 8) (size 9 to 14) (size 15 to 20)
#    0.000    1.231    3.846    0.923    4.308    0.615 
#    0.000   23.462    0.000    0.000    0.000    0.000 
#    0.000    0.000    0.000    0.000    0.000    0.000 
#
# Total GULP energy -644179.249141 kJ/mol
# GULP energy per Si atom -12388.062483 kJ/mol
# Density = 2.376057 g / cm^3
# Si number density = 23.814775 Si / 1000 Ang^3
#
#
#
# Elastic Constant Matrix: (Units=GPa)
#
#
# Indices 1 2 3 4 5 6 
#
# 1 57.5499 21.6353 18.0882 0.0000 0.0000 0.0000
# 2 21.6353 131.8976 39.0945 0.0000 0.0000 0.0000
# 3 18.0882 39.0945 118.8220 0.0000 0.0000 0.0000
# 4 0.0000 0.0000 0.0000 48.3862 0.0000 0.0000
# 5 0.0000 0.0000 0.0000 0.0000 23.2484 0.0000
# 6 0.0000 0.0000 0.0000 0.0000 0.0000 29.2209
#
#
#
# Elastic Compliance Matrix: (Units=1/GPa)
#
#
# Indices 1 2 3 4 5 6 
#
# 1 0.018965 -0.002499 -0.002065 0.000000 0.000000 0.000000
# 2 -0.002499 0.008730 -0.002492 0.000000 0.000000 0.000000
# 3 -0.002065 -0.002492 0.009550 0.000000 0.000000 0.000000
# 4 0.000000 0.000000 0.000000 0.020667 0.000000 0.000000
# 5 0.000000 0.000000 0.000000 0.000000 0.043014 0.000000
# 6 0.000000 0.000000 0.000000 0.000000 0.000000 0.034222
#
#
# Mechanical properties :
#
#
# Convention : Reuss Voigt Hill
#
# Bulk Modulus (GPa) = 43.22685 51.76726 47.49705
# Shear Modulus (GPa) = 31.85319 35.46788 33.66053
#
# Velocity S-wave (km/s) = 3.66121 3.86336 3.76364
# Velocity P-wave (km/s) = 6.00527 6.45642 6.23493
#
# Compressibility (1/GPa) = 0.02313377
#
# Stress axis : x y z
#
# Youngs Moduli (GPa) = 52.72987 114.54578 104.71001
#
# Poissons Ratio (x) = 0.28622 0.21621
# Poissons Ratio (y) = 0.13176 0.26094
# Poissons Ratio (z) = 0.10888 0.28545
#
# Static dielectric constant tensor:
#      x y z
#    x 4.065360 0.000000 0.000000 
#    y 0.000000 4.431350 0.000000 
#    z 0.000000 0.000000 4.618960 
# 
# 
# High freq. dielectric constant tensor:
#      x y z
#    x 1.919030 0.000000 0.000000 
#    y 0.000000 1.946780 0.000000 
#    z 0.000000 0.000000 1.965940 
# 
# From -- ./inp_files/60452.got.cif
#   From: 2010.03.12/outbox.cif.g09.slc.cpg/sg70_31_cif.got.tgz:60452.got - 2010.04.16 13:46:32.
