data_PCOD8286013
_publ_section_title
;
Structure prediction by ZEFSAII (Michael W. Deem and Ramdas Pophale) SiO2 
 PCOD8286013
Probable space group: F D D D
;
_chemical_formula_sum "Si O2"
_cell_formula_units_Z 176
_cell_length_a 29.911202
_cell_length_b 11.048384
_cell_length_c 25.615004
_cell_angle_alpha 90.000000
_cell_angle_beta 90.000000
_cell_angle_gamma 90.000000
_cell_volume 8465.001786
_symmetry_space_group_name_H-M "F D D D"
_symmetry_group_IT_number 70
_space_group.IT_coordinate_system_code '2'
_symmetry_cell_setting 'orthorhombic'
loop_
_space_group_symop_operation_xyz
x,y,z
1/4-x,1/4-y,z
x,1/4-y,1/4-z
1/4-x,y,1/4-z
-x,-y,-z
3/4+x,3/4+y,-z
-x,3/4+y,3/4+z
3/4+x,-y,3/4+z
x,1/2+y,1/2+z
1/4-x,3/4-y,1/2+z
x,3/4-y,3/4-z
1/4-x,1/2+y,3/4-z
-x,1/2-y,1/2-z
3/4+x,1/4+y,1/2-z
-x,1/4+y,1/4+z
3/4+x,1/2-y,1/4+z
1/2+x,y,1/2+z
3/4-x,1/4-y,1/2+z
1/2+x,1/4-y,3/4-z
3/4-x,y,3/4-z
1/2-x,-y,1/2-z
1/4+x,3/4+y,1/2-z
1/2-x,3/4+y,1/4+z
1/4+x,-y,1/4+z
1/2+x,1/2+y,z
3/4-x,3/4-y,z
1/2+x,3/4-y,1/4-z
3/4-x,1/2+y,1/4-z
1/2-x,1/2-y,-z
1/4+x,1/4+y,-z
1/2-x,1/4+y,3/4+z
1/4+x,1/2-y,3/4+z
loop_
_atom_site_type_symbol
_atom_site_label
_atom_site_fract_x
_atom_site_fract_y
_atom_site_fract_z
Si Si1 0.229934 0.187400 0.865265
Si Si2 0.875000 0.875000 0.789523
Si Si3 0.095504 0.394240 0.778397
Si Si4 0.955758 0.324949 0.742524
Si Si5 0.749671 0.457681 0.924196
Si Si6 0.841921 0.625000 0.125000
Si Si7 0.696400 0.625000 0.125000
O O1 0.206959 0.123906 0.816029
O O2 0.189368 0.262100 0.890156
O O3 0.272520 0.269545 0.851069
O O4 0.249553 0.096860 0.908154
O O5 0.864138 0.755164 0.755817
O O6 0.833663 0.915406 0.825949
O O7 0.086424 0.266437 0.747397
O O8 0.048829 0.431534 0.803052
O O9 0.128997 0.354590 0.823784
O O10 0.000000 0.250000 0.750000
O O11 0.959666 0.434717 0.784415
O O12 0.760078 0.375000 0.875000
#
# Coordination Sequence:
#
# PCOD8286013 Si02
#       7
#    32  16  32  32  32  16  16
#     4  11  22  40  62  90 129 160 217 257 312 379
#     4  11  24  40  66  86 128 170 204 261 314 384
#     4  11  21  40  60  94 127 161 212 259 322 372
#     4  10  20  36  60  90 120 159 205 261 310 368
#     4  11  20  36  63  93 118 167 207 259 311 374
#     4  11  24  37  62  93 128 170 200 271 322 367
#     4  10  24  43  60  90 122 176 208 254 308 385
#
# _framework density 20.79149
#
# number of rings (size 3 to 8) (size 9 to 14) (size 15 to 20)
#    0.000    1.273    4.545    3.273    0.000    3.636 
#    0.000    4.545    0.000    0.000    0.000    0.000 
#    0.000    0.000    0.000    0.000    0.000    0.000 
#
# Total GULP energy -545228.510429 kJ/mol
# GULP energy per Si atom -12391.557055 kJ/mol
# Density = 2.074417 g / cm^3
# Si number density = 20.791490 Si / 1000 Ang^3
#
#
#
# Elastic Constant Matrix: (Units=GPa)
#
#
# Indices 1 2 3 4 5 6 
#
# 1 98.3866 54.5372 41.5312 0.0000 0.0000 0.0000
# 2 54.5372 145.1074 57.5466 0.0000 0.0000 0.0000
# 3 41.5312 57.5466 100.2032 0.0000 0.0000 0.0000
# 4 0.0000 0.0000 0.0000 44.7933 0.0000 0.0000
# 5 0.0000 0.0000 0.0000 0.0000 253.3382 0.0000
# 6 0.0000 0.0000 0.0000 0.0000 0.0000 36.3461
#
#
#
# Elastic Compliance Matrix: (Units=1/GPa)
#
#
# Indices 1 2 3 4 5 6 
#
# 1 0.013742 -0.003763 -0.003534 0.000000 0.000000 0.000000
# 2 -0.003763 0.009954 -0.004157 0.000000 0.000000 0.000000
# 3 -0.003534 -0.004157 0.013832 0.000000 0.000000 0.000000
# 4 0.000000 0.000000 0.000000 0.022325 0.000000 0.000000
# 5 0.000000 0.000000 0.000000 0.000000 0.003947 0.000000
# 6 0.000000 0.000000 0.000000 0.000000 0.000000 0.027513
#
#
# Mechanical properties :
#
#
# Convention : Reuss Voigt Hill
#
# Bulk Modulus (GPa) = 68.40391 72.32526 70.36458
# Shear Modulus (GPa) = 41.98294 79.56767 60.77531
#
# Velocity S-wave (km/s) = 4.49847 6.19293 5.41242
# Velocity P-wave (km/s) = 7.74293 9.27351 8.54257
#
# Compressibility (1/GPa) = 0.01461905
#
# Stress axis : x y z
#
# Youngs Moduli (GPa) = 72.77023 100.45824 72.29569
#
# Poissons Ratio (x) = 0.37803 0.25553
# Poissons Ratio (y) = 0.27384 0.30054
# Poissons Ratio (z) = 0.25720 0.41762
#
# Static dielectric constant tensor:
#      x y z
#    x 3.841210 0.000000 0.000000 
#    y 0.000000 3.651280 0.000000 
#    z 0.000000 0.000000 3.678480 
# 
# 
# High freq. dielectric constant tensor:
#      x y z
#    x 1.809110 0.000000 0.000000 
#    y 0.000000 1.824380 0.000000 
#    z 0.000000 0.000000 1.809040 
# 
# From -- ./inp_files/55031.got.cif
#   From: 2010.03.12/outbox.cif.g09.slc.cpg/sg70_28_cif.got.tgz:55031.got - 2010.04.16 13:46:32.
