data_PCOD8286319
_publ_section_title
;
Structure prediction by ZEFSAII (Michael W. Deem and Ramdas Pophale) SiO2 
 PCOD8286319
Probable space group: F D D D
;
_chemical_formula_sum "Si O2"
_cell_formula_units_Z 168
_cell_length_a 22.026726
_cell_length_b 12.396648
_cell_length_c 30.292442
_cell_angle_alpha 90.000000
_cell_angle_beta 90.000000
_cell_angle_gamma 90.000000
_cell_volume 8271.580566
_symmetry_space_group_name_H-M "F D D D"
_symmetry_group_IT_number 70
_space_group.IT_coordinate_system_code '2'
_symmetry_cell_setting 'orthorhombic'
loop_
_space_group_symop_operation_xyz
x,y,z
1/4-x,1/4-y,z
x,1/4-y,1/4-z
1/4-x,y,1/4-z
-x,-y,-z
3/4+x,3/4+y,-z
-x,3/4+y,3/4+z
3/4+x,-y,3/4+z
x,1/2+y,1/2+z
1/4-x,3/4-y,1/2+z
x,3/4-y,3/4-z
1/4-x,1/2+y,3/4-z
-x,1/2-y,1/2-z
3/4+x,1/4+y,1/2-z
-x,1/4+y,1/4+z
3/4+x,1/2-y,1/4+z
1/2+x,y,1/2+z
3/4-x,1/4-y,1/2+z
1/2+x,1/4-y,3/4-z
3/4-x,y,3/4-z
1/2-x,-y,1/2-z
1/4+x,3/4+y,1/2-z
1/2-x,3/4+y,1/4+z
1/4+x,-y,1/4+z
1/2+x,1/2+y,z
3/4-x,3/4-y,z
1/2+x,3/4-y,1/4-z
3/4-x,1/2+y,1/4-z
1/2-x,1/2-y,-z
1/4+x,1/4+y,-z
1/2-x,1/4+y,3/4+z
1/4+x,1/2-y,3/4+z
loop_
_atom_site_type_symbol
_atom_site_label
_atom_site_fract_x
_atom_site_fract_y
_atom_site_fract_z
Si Si1 0.490945 0.624436 0.256412
Si Si2 0.310525 0.323699 0.576056
Si Si3 0.570459 0.209437 0.421771
Si Si4 0.145019 0.350723 0.485359
Si Si5 0.549264 0.272203 0.559988
Si Si6 0.875000 0.375000 0.375000
O O1 0.500000 0.750000 0.250000
O O2 0.509133 0.589845 0.306023
O O3 0.426325 0.576768 0.240818
O O4 0.540419 0.571540 0.225128
O O5 0.375000 0.375000 0.581392
O O6 0.300666 0.257711 0.621859
O O7 0.314116 0.250825 0.531488
O O8 0.261953 0.420065 0.575546
O O9 0.625000 0.125000 0.422805
O O10 0.594931 0.312327 0.447483
O O11 0.163106 0.384569 0.534933
O O12 0.583846 0.210464 0.598784
#
# Coordination Sequence:
#
# PCOD8286319 Si02
#       6
#    32  32  32  32  32   8
#     4  11  21  38  63  92 130 173 215 278 339 406
#     4  11  23  42  63  97 129 181 226 277 337 409
#     4  10  22  36  62  95 130 173 227 276 342 399
#     4  11  22  42  64  91 133 178 225 274 342 410
#     4  11  26  41  66  96 134 170 223 281 341 417
#     4  12  28  44  68 108 134 172 224 294 372 388
#
# _framework density 20.310507999999999
#
# number of rings (size 3 to 8) (size 9 to 14) (size 15 to 20)
#    0.000    1.143    3.810    2.286    8.000    0.000 
#    0.000    0.000    0.000    0.000    0.000    0.000 
#    0.000    0.000    0.000    0.000    0.000    0.000 
#
# Total GULP energy -520357.263232 kJ/mol
# GULP energy per Si atom -12389.458648 kJ/mol
# Density = 2.026428 g / cm^3
# Si number density = 20.310508 Si / 1000 Ang^3
#
#
#
# Elastic Constant Matrix: (Units=GPa)
#
#
# Indices 1 2 3 4 5 6 
#
# 1 101.0237 43.2355 48.4747 0.0000 0.0000 0.0000
# 2 43.2355 84.4145 43.6700 0.0000 0.0000 0.0000
# 3 48.4747 43.6700 127.2830 0.0000 0.0000 0.0000
# 4 0.0000 0.0000 0.0000 21.7950 0.0000 0.0000
# 5 0.0000 0.0000 0.0000 0.0000 191.1487 0.0000
# 6 0.0000 0.0000 0.0000 0.0000 0.0000 40.3577
#
#
#
# Elastic Compliance Matrix: (Units=1/GPa)
#
#
# Indices 1 2 3 4 5 6 
#
# 1 0.013818 -0.005295 -0.003446 0.000000 0.000000 0.000000
# 2 -0.005295 0.016431 -0.003621 0.000000 0.000000 0.000000
# 3 -0.003446 -0.003621 0.010411 0.000000 0.000000 0.000000
# 4 0.000000 0.000000 0.000000 0.045882 0.000000 0.000000
# 5 0.000000 0.000000 0.000000 0.000000 0.005232 0.000000
# 6 0.000000 0.000000 0.000000 0.000000 0.000000 0.024778
#
#
# Mechanical properties :
#
#
# Convention : Reuss Voigt Hill
#
# Bulk Modulus (GPa) = 62.74565 64.83129 63.78847
# Shear Modulus (GPa) = 34.10902 62.48302 48.29602
#
# Velocity S-wave (km/s) = 4.10247 5.55254 4.88164
# Velocity P-wave (km/s) = 7.30757 8.54967 7.95291
#
# Compressibility (1/GPa) = 0.01593736
#
# Stress axis : x y z
#
# Youngs Moduli (GPa) = 72.36860 60.85897 96.05006
#
# Poissons Ratio (x) = 0.32223 0.33098
# Poissons Ratio (y) = 0.38317 0.34780
# Poissons Ratio (z) = 0.24938 0.22037
#
# Static dielectric constant tensor:
#      x y z
#    x 3.362530 0.000000 0.000000 
#    y 0.000000 3.388790 0.000000 
#    z 0.000000 0.000000 4.272590 
# 
# 
# High freq. dielectric constant tensor:
#      x y z
#    x 1.792680 0.000000 0.000000 
#    y 0.000000 1.791400 0.000000 
#    z 0.000000 0.000000 1.803170 
# 
# From -- ./inp_files/29854.got.cif
#   From: 2010.03.12/outbox.cif.g09.slc.cpg/sg70_15_cif.got.tgz:29854.got - 2010.04.16 13:46:32.
