data_PCOD8286595
_publ_section_title
;
Structure prediction by ZEFSAII (Michael W. Deem and Ramdas Pophale) SiO2 
 PCOD8286595
Probable space group: F D D D
;
_chemical_formula_sum "Si O2"
_cell_formula_units_Z 144
_cell_length_a 27.315087
_cell_length_b 14.021580
_cell_length_c 16.254206
_cell_angle_alpha 90.000000
_cell_angle_beta 90.000000
_cell_angle_gamma 90.000000
_cell_volume 6225.371911
_symmetry_space_group_name_H-M "F D D D"
_symmetry_group_IT_number 70
_space_group.IT_coordinate_system_code '2'
_symmetry_cell_setting 'orthorhombic'
loop_
_space_group_symop_operation_xyz
x,y,z
1/4-x,1/4-y,z
x,1/4-y,1/4-z
1/4-x,y,1/4-z
-x,-y,-z
3/4+x,3/4+y,-z
-x,3/4+y,3/4+z
3/4+x,-y,3/4+z
x,1/2+y,1/2+z
1/4-x,3/4-y,1/2+z
x,3/4-y,3/4-z
1/4-x,1/2+y,3/4-z
-x,1/2-y,1/2-z
3/4+x,1/4+y,1/2-z
-x,1/4+y,1/4+z
3/4+x,1/2-y,1/4+z
1/2+x,y,1/2+z
3/4-x,1/4-y,1/2+z
1/2+x,1/4-y,3/4-z
3/4-x,y,3/4-z
1/2-x,-y,1/2-z
1/4+x,3/4+y,1/2-z
1/2-x,3/4+y,1/4+z
1/4+x,-y,1/4+z
1/2+x,1/2+y,z
3/4-x,3/4-y,z
1/2+x,3/4-y,1/4-z
3/4-x,1/2+y,1/4-z
1/2-x,1/2-y,-z
1/4+x,1/4+y,-z
1/2-x,1/4+y,3/4+z
1/4+x,1/2-y,3/4+z
loop_
_atom_site_type_symbol
_atom_site_label
_atom_site_fract_x
_atom_site_fract_y
_atom_site_fract_z
Si Si1 0.117282 0.341648 0.720999
Si Si2 0.043585 0.752629 0.930386
Si Si3 0.681066 0.092954 0.214035
Si Si4 0.348258 0.782674 0.518892
Si Si5 0.209766 0.625000 0.625000
O O1 0.125000 0.340724 0.625000
O O2 0.166565 0.305244 0.764227
O O3 0.070322 0.271225 0.735439
O O4 0.110599 0.449990 0.753587
O O5 0.058650 0.752247 0.834690
O O6 0.992263 0.807882 0.934313
O O7 0.036767 0.645507 0.965983
O O8 0.625000 0.125000 0.219336
O O9 0.702255 0.125000 0.125000
O O10 0.375000 0.875000 0.556419
O O11 0.323448 0.807695 0.431960
#
# Coordination Sequence:
#
# PCOD8286595 Si02
#       5
#    32  32  32  32  16
#     4  11  19  36  66 100 125 173 226 280 330 393
#     4  11  22  38  67  97 132 173 227 279 340 414
#     4   9  16  34  62 100 118 162 226 273 327 395
#     4  12  25  43  65  97 136 180 233 279 333 419
#     4  12  25  44  62  98 142 184 218 278 360 402
#
# _framework density 23.131148
#
# number of rings (size 3 to 8) (size 9 to 14) (size 15 to 20)
#    0.000    1.111    6.667    4.333    0.000    0.000 
#    0.000    0.000    0.000   17.333    0.000    0.000 
#    0.000    0.000    0.000    0.000    0.000    0.000 
#
# Total GULP energy -446158.315890 kJ/mol
# GULP energy per Si atom -12393.286552 kJ/mol
# Density = 2.307850 g / cm^3
# Si number density = 23.131148 Si / 1000 Ang^3
#
#
#
# Elastic Constant Matrix: (Units=GPa)
#
#
# Indices 1 2 3 4 5 6 
#
# 1 32.2655 26.6967 10.7454 0.0000 0.0000 0.0000
# 2 26.6967 185.9520 38.9767 0.0000 0.0000 0.0000
# 3 10.7454 38.9767 112.4377 0.0000 0.0000 0.0000
# 4 0.0000 0.0000 0.0000 30.0481 0.0000 0.0000
# 5 0.0000 0.0000 0.0000 0.0000 22.7297 0.0000
# 6 0.0000 0.0000 0.0000 0.0000 0.0000 11.8572
#
#
#
# Elastic Compliance Matrix: (Units=1/GPa)
#
#
# Indices 1 2 3 4 5 6 
#
# 1 0.035488 -0.004728 -0.001753 0.000000 0.000000 0.000000
# 2 -0.004728 0.006429 -0.001777 0.000000 0.000000 0.000000
# 3 -0.001753 -0.001777 0.009677 0.000000 0.000000 0.000000
# 4 0.000000 0.000000 0.000000 0.033280 0.000000 0.000000
# 5 0.000000 0.000000 0.000000 0.000000 0.043995 0.000000
# 6 0.000000 0.000000 0.000000 0.000000 0.000000 0.084337
#
#
# Mechanical properties :
#
#
# Convention : Reuss Voigt Hill
#
# Bulk Modulus (GPa) = 28.50610 53.72143 41.11376
# Shear Modulus (GPa) = 20.71130 29.87609 25.29370
#
# Velocity S-wave (km/s) = 2.99555 3.59778 3.31038
# Velocity P-wave (km/s) = 4.93101 6.36662 5.69424
#
# Compressibility (1/GPa) = 0.03508021
#
# Stress axis : x y z
#
# Youngs Moduli (GPa) = 28.17834 155.54797 103.33520
#
# Poissons Ratio (x) = 0.73537 0.18112
# Poissons Ratio (y) = 0.13322 0.18360
# Poissons Ratio (z) = 0.04939 0.27637
#
# Static dielectric constant tensor:
#      x y z
#    x 3.692110 0.000000 0.000000 
#    y 0.000000 5.404720 0.000000 
#    z 0.000000 0.000000 4.690140 
# 
# 
# High freq. dielectric constant tensor:
#      x y z
#    x 1.856380 0.000000 0.000000 
#    y 0.000000 1.941350 0.000000 
#    z 0.000000 0.000000 1.919120 
# 
# From -- ./inp_files/39477.got.cif
#   From: 2010.03.12/outbox.cif.g09.slc.cpg/sg70_20_cif.got.tgz:39477.got - 2010.04.16 13:46:32.
