data_PCOD8286356
_publ_section_title
;
Structure prediction by ZEFSAII (Michael W. Deem and Ramdas Pophale) SiO2 
 PCOD8286356
Probable space group: F D D D
;
_chemical_formula_sum "Si O2"
_cell_formula_units_Z 208
_cell_length_a 20.973131
_cell_length_b 17.203465
_cell_length_c 28.002119
_cell_angle_alpha 90.000000
_cell_angle_beta 90.000000
_cell_angle_gamma 90.000000
_cell_volume 10103.459260
_symmetry_space_group_name_H-M "F D D D"
_symmetry_group_IT_number 70
_space_group.IT_coordinate_system_code '2'
_symmetry_cell_setting 'orthorhombic'
loop_
_space_group_symop_operation_xyz
x,y,z
1/4-x,1/4-y,z
x,1/4-y,1/4-z
1/4-x,y,1/4-z
-x,-y,-z
3/4+x,3/4+y,-z
-x,3/4+y,3/4+z
3/4+x,-y,3/4+z
x,1/2+y,1/2+z
1/4-x,3/4-y,1/2+z
x,3/4-y,3/4-z
1/4-x,1/2+y,3/4-z
-x,1/2-y,1/2-z
3/4+x,1/4+y,1/2-z
-x,1/4+y,1/4+z
3/4+x,1/2-y,1/4+z
1/2+x,y,1/2+z
3/4-x,1/4-y,1/2+z
1/2+x,1/4-y,3/4-z
3/4-x,y,3/4-z
1/2-x,-y,1/2-z
1/4+x,3/4+y,1/2-z
1/2-x,3/4+y,1/4+z
1/4+x,-y,1/4+z
1/2+x,1/2+y,z
3/4-x,3/4-y,z
1/2+x,3/4-y,1/4-z
3/4-x,1/2+y,1/4-z
1/2-x,1/2-y,-z
1/4+x,1/4+y,-z
1/2-x,1/4+y,3/4+z
1/4+x,1/2-y,3/4+z
loop_
_atom_site_type_symbol
_atom_site_label
_atom_site_fract_x
_atom_site_fract_y
_atom_site_fract_z
Si Si1 0.935743 0.929970 0.618607
Si Si2 0.729573 0.180134 0.440849
Si Si3 0.136563 0.813455 0.413668
Si Si4 0.621098 0.280761 0.682030
Si Si5 0.932893 0.318155 0.740613
Si Si6 0.375000 0.375000 0.985328
Si Si7 0.569493 0.854842 0.749248
O O1 0.875000 0.875000 0.622582
O O2 0.988957 0.883128 0.648304
O O3 0.955012 0.943098 0.564200
O O4 0.921843 0.013000 0.642752
O O5 0.697115 0.260200 0.424647
O O6 0.801550 0.201363 0.455064
O O7 0.687676 0.141125 0.482683
O O8 0.160685 0.875000 0.375000
O O9 0.113234 0.858044 0.460272
O O10 0.625000 0.279308 0.625000
O O11 0.642991 0.197508 0.702084
O O12 0.670185 0.345962 0.700938
O O13 0.875000 0.375000 0.748607
O O14 0.911253 0.234783 0.761014
O O15 0.995259 0.354377 0.765982
#
# Coordination Sequence:
#
# PCOD8286356 Si02
#       7
#    32  32  32  32  32  16  32
#     4   9  17  35  61  87 120 161 209 265 309 381
#     4  11  22  43  66  94 137 173 220 264 332 401
#     4  11  20  36  63  98 122 167 216 271 322 385
#     4  12  27  45  65  99 137 182 216 276 343 398
#     4  10  22  40  62  91 121 164 217 268 327 379
#     4  12  23  42  66  96 138 174 224 270 323 410
#     4  11  23  40  62  91 128 161 217 272 318 395
#
# _framework density 20.587008000000001
#
# number of rings (size 3 to 8) (size 9 to 14) (size 15 to 20)
#    0.000    1.231    5.385    1.615    0.000    3.692 
#    0.000    0.000    0.000    0.000    0.000    0.000 
#    0.000    0.000    0.000    0.000    0.000    0.000 
#
# Total GULP energy -644742.293366 kJ/mol
# GULP energy per Si atom -12398.890257 kJ/mol
# Density = 2.054015 g / cm^3
# Si number density = 20.587008 Si / 1000 Ang^3
#
#
#
# Elastic Constant Matrix: (Units=GPa)
#
#
# Indices 1 2 3 4 5 6 
#
# 1 80.7037 53.9255 9.8965 0.0000 0.0000 0.0000
# 2 53.9255 163.0955 52.4976 0.0000 0.0000 0.0000
# 3 9.8965 52.4976 92.4945 0.0000 0.0000 0.0000
# 4 0.0000 0.0000 0.0000 34.3220 0.0000 0.0000
# 5 0.0000 0.0000 0.0000 0.0000 12.5447 0.0000
# 6 0.0000 0.0000 0.0000 0.0000 0.0000 27.7562
#
#
#
# Elastic Compliance Matrix: (Units=1/GPa)
#
#
# Indices 1 2 3 4 5 6 
#
# 1 0.016093 -0.005832 0.001588 0.000000 0.000000 0.000000
# 2 -0.005832 0.009616 -0.004834 0.000000 0.000000 0.000000
# 3 0.001588 -0.004834 0.013385 0.000000 0.000000 0.000000
# 4 0.000000 0.000000 0.000000 0.029136 0.000000 0.000000
# 5 0.000000 0.000000 0.000000 0.000000 0.079715 0.000000
# 6 0.000000 0.000000 0.000000 0.000000 0.000000 0.036028
#
#
# Mechanical properties :
#
#
# Convention : Reuss Voigt Hill
#
# Bulk Modulus (GPa) = 47.75815 63.21477 55.48646
# Shear Modulus (GPa) = 23.91117 29.58953 26.75035
#
# Velocity S-wave (km/s) = 3.41173 3.79528 3.60860
# Velocity P-wave (km/s) = 6.22643 7.06953 6.66133
#
# Compressibility (1/GPa) = 0.02093884
#
# Stress axis : x y z
#
# Youngs Moduli (GPa) = 62.13753 103.99775 74.71105
#
# Poissons Ratio (x) = 0.60655 -0.11867
# Poissons Ratio (y) = 0.36241 0.36112
# Poissons Ratio (z) = -0.09870 0.50268
#
# Static dielectric constant tensor:
#      x y z
#    x 3.504160 0.000000 0.000000 
#    y 0.000000 4.040450 0.000000 
#    z 0.000000 0.000000 3.899790 
# 
# 
# High freq. dielectric constant tensor:
#      x y z
#    x 1.786180 0.000000 0.000000 
#    y 0.000000 1.823330 0.000000 
#    z 0.000000 0.000000 1.804070 
# 
# From -- ./inp_files/60435.got.cif
#   From: 2010.03.12/outbox.cif.g09.slc.cpg/sg70_31_cif.got.tgz:60435.got - 2010.04.16 13:46:32.
