data_PCOD8286487
_publ_section_title
;
Structure prediction by ZEFSAII (Michael W. Deem and Ramdas Pophale) SiO2 
 PCOD8286487
Probable space group: F D D D
;
_chemical_formula_sum "Si O2"
_cell_formula_units_Z 216
_cell_length_a 14.047020
_cell_length_b 29.736167
_cell_length_c 24.468667
_cell_angle_alpha 90.000000
_cell_angle_beta 90.000000
_cell_angle_gamma 90.000000
_cell_volume 10220.673112
_symmetry_space_group_name_H-M "F D D D"
_symmetry_group_IT_number 70
_space_group.IT_coordinate_system_code '2'
_symmetry_cell_setting 'orthorhombic'
loop_
_space_group_symop_operation_xyz
x,y,z
1/4-x,1/4-y,z
x,1/4-y,1/4-z
1/4-x,y,1/4-z
-x,-y,-z
3/4+x,3/4+y,-z
-x,3/4+y,3/4+z
3/4+x,-y,3/4+z
x,1/2+y,1/2+z
1/4-x,3/4-y,1/2+z
x,3/4-y,3/4-z
1/4-x,1/2+y,3/4-z
-x,1/2-y,1/2-z
3/4+x,1/4+y,1/2-z
-x,1/4+y,1/4+z
3/4+x,1/2-y,1/4+z
1/2+x,y,1/2+z
3/4-x,1/4-y,1/2+z
1/2+x,1/4-y,3/4-z
3/4-x,y,3/4-z
1/2-x,-y,1/2-z
1/4+x,3/4+y,1/2-z
1/2-x,3/4+y,1/4+z
1/4+x,-y,1/4+z
1/2+x,1/2+y,z
3/4-x,3/4-y,z
1/2+x,3/4-y,1/4-z
3/4-x,1/2+y,1/4-z
1/2-x,1/2-y,-z
1/4+x,1/4+y,-z
1/2-x,1/4+y,3/4+z
1/4+x,1/2-y,3/4+z
loop_
_atom_site_type_symbol
_atom_site_label
_atom_site_fract_x
_atom_site_fract_y
_atom_site_fract_z
Si Si1 0.375000 0.875000 0.875000
Si Si2 0.693294 0.227136 0.257784
Si Si3 0.982931 0.803457 0.306099
Si Si4 0.578190 0.966408 0.841209
Si Si5 0.927160 0.125000 0.125000
Si Si6 0.655108 0.694500 0.874902
Si Si7 0.186611 0.827624 0.270926
Si Si8 0.226654 0.387239 0.096479
O O1 0.314340 0.846160 0.916482
O O2 0.586983 0.225113 0.232571
O O3 0.769547 0.209481 0.214177
O O4 0.692211 0.198336 0.312736
O O5 0.726224 0.277227 0.272600
O O6 0.014185 0.770155 0.355623
O O7 0.072043 0.824053 0.273283
O O8 0.617983 0.917135 0.852357
O O9 0.653027 0.008062 0.841159
O O10 0.983167 0.105237 0.177608
O O11 0.734664 0.663592 0.902954
O O12 0.551319 0.671127 0.875238
O O13 0.219013 0.852098 0.216963
O O14 0.125000 0.392246 0.125000
#
# Coordination Sequence:
#
# PCOD8286487 Si02
#       8
#     8  32  32  32  16  32  32  32
#     4  12  22  36  56 104 154 162 216 286 340 442
#     4  12  22  36  66  92 136 183 222 283 348 417
#     4  11  22  34  59 100 138 184 220 265 350 430
#     4  11  22  40  64  96 142 174 228 286 338 425
#     4  10  23  42  67  99 129 176 234 283 350 406
#     4  11  25  45  65 104 136 181 236 287 352 416
#     4  11  23  40  64  90 133 185 228 281 342 406
#     4  11  26  44  67 101 145 186 232 288 351 416
#
# _framework density 21.133637
#
# number of rings (size 3 to 8) (size 9 to 14) (size 15 to 20)
#    0.000    0.889    5.926    3.111    4.148    1.185 
#    0.000    0.741    0.000    1.778    0.000    0.000 
#    0.000    0.000    0.000    0.000    0.000    0.000 
#
# Total GULP energy -669191.413209 kJ/mol
# GULP energy per Si atom -12392.433578 kJ/mol
# Density = 2.108554 g / cm^3
# Si number density = 21.133637 Si / 1000 Ang^3
#
#
#
# Elastic Constant Matrix: (Units=GPa)
#
#
# Indices 1 2 3 4 5 6 
#
# 1 54.8798 32.0535 39.7504 0.0000 0.0000 0.0000
# 2 32.0535 142.0368 58.6274 0.0000 0.0000 0.0000
# 3 39.7504 58.6274 163.4788 0.0000 0.0000 0.0000
# 4 0.0000 0.0000 0.0000 41.6643 0.0000 0.0000
# 5 0.0000 0.0000 0.0000 0.0000 25.4158 0.0000
# 6 0.0000 0.0000 0.0000 0.0000 0.0000 27.0392
#
#
#
# Elastic Compliance Matrix: (Units=1/GPa)
#
#
# Indices 1 2 3 4 5 6 
#
# 1 0.023476 -0.003453 -0.004470 0.000000 0.000000 0.000000
# 2 -0.003453 0.008771 -0.002306 0.000000 0.000000 0.000000
# 3 -0.004470 -0.002306 0.008031 0.000000 0.000000 0.000000
# 4 0.000000 0.000000 0.000000 0.024001 0.000000 0.000000
# 5 0.000000 0.000000 0.000000 0.000000 0.039346 0.000000
# 6 0.000000 0.000000 0.000000 0.000000 0.000000 0.036983
#
#
# Mechanical properties :
#
#
# Convention : Reuss Voigt Hill
#
# Bulk Modulus (GPa) = 50.45258 69.02867 59.74063
# Shear Modulus (GPa) = 29.81988 34.15481 31.98735
#
# Velocity S-wave (km/s) = 3.76042 4.02448 3.89469
# Velocity P-wave (km/s) = 6.54059 7.37083 6.96808
#
# Compressibility (1/GPa) = 0.01982059
#
# Stress axis : x y z
#
# Youngs Moduli (GPa) = 42.59671 114.00569 124.51864
#
# Poissons Ratio (x) = 0.39364 0.55660
# Poissons Ratio (y) = 0.14708 0.28715
# Poissons Ratio (z) = 0.19041 0.26291
#
# Static dielectric constant tensor:
#      x y z
#    x 3.987290 0.000000 0.000000 
#    y 0.000000 4.012500 0.000000 
#    z 0.000000 0.000000 4.344260 
# 
# 
# High freq. dielectric constant tensor:
#      x y z
#    x 1.787300 0.000000 0.000000 
#    y 0.000000 1.847470 0.000000 
#    z 0.000000 0.000000 1.839620 
# 
# From -- ./inp_files/51599.got.cif
#   From: 2010.03.12/outbox.cif.g09.slc.cpg/sg70_26_cif.got.tgz:51599.got - 2010.04.16 13:46:32.
