data_PCOD8286914
_publ_section_title
;
Structure prediction by ZEFSAII (Michael W. Deem and Ramdas Pophale) SiO2 
 PCOD8286914
Probable space group: I M M M
;
_chemical_formula_sum "Si O2"
_cell_formula_units_Z 104
_cell_length_a 11.748272
_cell_length_b 26.996784
_cell_length_c 18.992445
_cell_angle_alpha 90.000000
_cell_angle_beta 90.000000
_cell_angle_gamma 90.000000
_cell_volume 6023.749484
_symmetry_space_group_name_H-M "I M M M"
_symmetry_group_IT_number 71
_symmetry_cell_setting 'orthorhombic'
loop_
_space_group_symop_operation_xyz
x,y,z
-x,-y,z
x,-y,-z
-x,y,-z
-x,-y,-z
x,y,-z
-x,y,z
x,-y,z
1/2+x,1/2+y,1/2+z
1/2-x,1/2-y,1/2+z
1/2+x,1/2-y,1/2-z
1/2-x,1/2+y,1/2-z
1/2-x,1/2-y,1/2-z
1/2+x,1/2+y,1/2-z
1/2-x,1/2+y,1/2+z
1/2+x,1/2-y,1/2+z
loop_
_atom_site_type_symbol
_atom_site_label
_atom_site_fract_x
_atom_site_fract_y
_atom_site_fract_z
Si Si1 0.630574 0.120240 0.082825
Si Si2 0.000000 0.945369 0.155336
Si Si3 0.000000 0.847950 0.081597
Si Si4 0.132876 0.310193 0.081272
Si Si5 0.364792 0.000000 0.578304
Si Si6 0.865800 0.407092 0.832648
Si Si7 0.249593 0.057237 0.803486
Si Si8 0.784442 0.206956 0.082917
O O1 0.500000 0.115292 0.105638
O O2 0.705263 0.079141 0.122659
O O3 0.669915 0.176665 0.102274
O O4 0.648349 0.110392 0.000000
O O5 0.887074 0.938424 0.202720
O O6 0.000000 0.906694 0.092012
O O7 0.000000 0.000000 0.120829
O O8 0.111305 0.823784 0.117164
O O9 0.000000 0.836452 0.000000
O O10 0.167553 0.356155 0.129568
O O11 0.210320 0.264014 0.108787
O O12 0.000000 0.296177 0.089848
O O13 0.158298 0.323915 0.000000
O O14 0.320824 0.951549 0.618568
O O15 0.500000 0.000000 0.573853
O O16 0.312369 0.000000 0.500000
O O17 0.803547 0.409866 0.758115
O O18 0.000000 0.411130 0.819892
O O19 0.289120 0.000000 0.797736
O O20 0.801799 0.209100 0.000000
#
# Coordination Sequence:
#
# PCOD8286914 Si02
#       8
#    16   8   8  16   8  16  16  16
#     4  10  21  35  53  76 104 139 174 210 251 302
#     4  10  22  35  52  74  96 132 177 219 264 295
#     4  10  16  29  54  78  98 125 166 216 263 305
#     4   9  16  28  50  81 109 132 166 211 258 307
#     4   9  16  28  48  77 108 134 165 205 253 306
#     4  10  19  31  50  77 107 138 168 205 259 313
#     4  11  22  37  54  73 101 137 175 214 258 310
#     4   9  16  29  51  76 102 133 168 208 259 306
#
# _framework density 17.264993
#
# number of rings (size 3 to 8) (size 9 to 14) (size 15 to 20)
#    0.000    2.231    3.077    0.923    0.000    3.231 
#    0.000    3.077    1.692    0.000    0.000    2.154 
#    0.000    0.000    0.000    0.000    0.000    0.000 
#
# Total GULP energy -644574.305545 kJ/mol
# GULP energy per Si atom -12395.659722 kJ/mol
# Density = 1.722570 g / cm^3
# Si number density = 17.264993 Si / 1000 Ang^3
#
#
#
# Elastic Constant Matrix: (Units=GPa)
#
#
# Indices 1 2 3 4 5 6 
#
# 1 81.3255 45.2136 33.1827 0.0000 0.0000 0.0000
# 2 45.2136 133.2174 40.9500 -0.0001 0.0000 0.0000
# 3 33.1827 40.9500 63.4364 -0.0001 0.0001 0.0000
# 4 0.0000 -0.0001 -0.0001 16.5758 0.0001 0.0000
# 5 0.0000 0.0000 0.0001 0.0001 14.2806 0.0000
# 6 0.0000 0.0000 0.0000 0.0000 0.0000 22.3311
#
#
#
# Elastic Compliance Matrix: (Units=1/GPa)
#
#
# Indices 1 2 3 4 5 6 
#
# 1 0.017045 -0.003798 -0.006465 0.000000 0.000000 0.000000
# 2 -0.003798 0.010211 -0.004605 0.000000 0.000000 0.000000
# 3 -0.006465 -0.004605 0.022118 0.000000 0.000000 0.000000
# 4 0.000000 0.000000 0.000000 0.060329 0.000000 0.000000
# 5 0.000000 0.000000 0.000000 0.000000 0.070025 0.000000
# 6 0.000000 0.000000 0.000000 0.000000 0.000000 0.044781
#
#
# Mechanical properties :
#
#
# Convention : Reuss Voigt Hill
#
# Bulk Modulus (GPa) = 50.91739 57.40798 54.16269
# Shear Modulus (GPa) = 19.17249 21.21304 20.19277
#
# Velocity S-wave (km/s) = 3.33601 3.50905 3.42362
# Velocity P-wave (km/s) = 6.66291 7.05274 6.86059
#
# Compressibility (1/GPa) = 0.01963966
#
# Stress axis : x y z
#
# Youngs Moduli (GPa) = 58.66657 97.93301 45.21229
#
# Poissons Ratio (x) = 0.37195 0.29227
# Poissons Ratio (y) = 0.22282 0.20820
# Poissons Ratio (z) = 0.37925 0.45097
#
# Static dielectric constant tensor:
#      x y z
#    x 3.143270 0.000000 0.000000 
#    y 0.000000 3.408420 0.000000 
#    z 0.000000 0.000000 2.974190 
# 
# 
# High freq. dielectric constant tensor:
#      x y z
#    x 1.645040 0.000000 0.000000 
#    y 0.000000 1.679730 0.000000 
#    z 0.000000 0.000000 1.638970 
# 
# From -- ./inp_files/43814.got.cif
#   From: 2010.06.25/outbox.cif.g09.slc.cpg/sg71_22_cif.got.tgz:43814.got - 2010.06.28 04:59:45.
