data_PCOD8286485
_publ_section_title
;
Structure prediction by ZEFSAII (Michael W. Deem and Ramdas Pophale) SiO2 
 PCOD8286485
Probable space group: F D D D
;
_chemical_formula_sum "Si O2"
_cell_formula_units_Z 168
_cell_length_a 16.002292
_cell_length_b 21.691741
_cell_length_c 18.227738
_cell_angle_alpha 90.000000
_cell_angle_beta 90.000000
_cell_angle_gamma 90.000000
_cell_volume 6327.168184
_symmetry_space_group_name_H-M "F D D D"
_symmetry_group_IT_number 70
_space_group.IT_coordinate_system_code '2'
_symmetry_cell_setting 'orthorhombic'
loop_
_space_group_symop_operation_xyz
x,y,z
1/4-x,1/4-y,z
x,1/4-y,1/4-z
1/4-x,y,1/4-z
-x,-y,-z
3/4+x,3/4+y,-z
-x,3/4+y,3/4+z
3/4+x,-y,3/4+z
x,1/2+y,1/2+z
1/4-x,3/4-y,1/2+z
x,3/4-y,3/4-z
1/4-x,1/2+y,3/4-z
-x,1/2-y,1/2-z
3/4+x,1/4+y,1/2-z
-x,1/4+y,1/4+z
3/4+x,1/2-y,1/4+z
1/2+x,y,1/2+z
3/4-x,1/4-y,1/2+z
1/2+x,1/4-y,3/4-z
3/4-x,y,3/4-z
1/2-x,-y,1/2-z
1/4+x,3/4+y,1/2-z
1/2-x,3/4+y,1/4+z
1/4+x,-y,1/4+z
1/2+x,1/2+y,z
3/4-x,3/4-y,z
1/2+x,3/4-y,1/4-z
3/4-x,1/2+y,1/4-z
1/2-x,1/2-y,-z
1/4+x,1/4+y,-z
1/2-x,1/4+y,3/4+z
1/4+x,1/2-y,3/4+z
loop_
_atom_site_type_symbol
_atom_site_label
_atom_site_fract_x
_atom_site_fract_y
_atom_site_fract_z
Si Si1 0.375000 0.375000 0.875000
Si Si2 0.153452 0.756528 0.839161
Si Si3 0.369161 0.132663 0.532620
Si Si4 0.296000 0.909497 0.694409
Si Si5 0.993329 0.566284 0.419495
Si Si6 0.765148 0.280476 0.299495
O O1 0.428239 0.338374 0.933491
O O2 0.150774 0.831895 0.846693
O O3 0.176452 0.728352 0.919430
O O4 0.069630 0.726806 0.800620
O O5 0.228485 0.743308 0.782987
O O6 0.285217 0.158351 0.495384
O O7 0.424604 0.088928 0.477813
O O8 0.420655 0.193623 0.560027
O O9 0.375000 0.875000 0.733581
O O10 0.279982 0.877845 0.615903
O O11 0.956822 0.524924 0.352876
#
# Coordination Sequence:
#
# PCOD8286485 Si02
#       6
#     8  32  32  32  32  32
#     4  12  24  36  52 108 146 156 216 288 324 440
#     4  11  23  39  64  97 138 182 224 280 353 410
#     4  12  23  43  71  99 144 191 220 290 357 409
#     4  10  23  42  66  95 137 178 242 283 334 419
#     4  11  22  41  63 103 139 175 227 287 343 436
#     4  12  24  38  67 102 139 184 225 273 364 417
#
# _framework density 26.552163
#
# number of rings (size 3 to 8) (size 9 to 14) (size 15 to 20)
#    0.000    0.762    3.810    4.571    1.333    0.000 
#    0.000    3.810    4.190    0.000    0.000    0.000 
#    0.000    0.000    0.000    0.000    0.000    0.000 
#
# Total GULP energy -520466.607095 kJ/mol
# GULP energy per Si atom -12392.062074 kJ/mol
# Density = 2.649173 g / cm^3
# Si number density = 26.552163 Si / 1000 Ang^3
#
#
#
# Elastic Constant Matrix: (Units=GPa)
#
#
# Indices 1 2 3 4 5 6 
#
# 1 153.3460 50.7402 39.8474 0.0000 0.0000 0.0000
# 2 50.7402 165.0462 41.5434 0.0000 0.0000 0.0000
# 3 39.8474 41.5434 61.7603 0.0000 0.0000 0.0000
# 4 0.0000 0.0000 0.0000 32.5270 0.0000 0.0000
# 5 0.0000 0.0000 0.0000 0.0000 55.2500 0.0000
# 6 0.0000 0.0000 0.0000 0.0000 0.0000 101.9213
#
#
#
# Elastic Compliance Matrix: (Units=1/GPa)
#
#
# Indices 1 2 3 4 5 6 
#
# 1 0.008100 -0.001414 -0.004275 0.000000 0.000000 0.000000
# 2 -0.001414 0.007541 -0.004160 0.000000 0.000000 0.000000
# 3 -0.004275 -0.004160 0.021748 0.000000 0.000000 0.000000
# 4 0.000000 0.000000 0.000000 0.030744 0.000000 0.000000
# 5 0.000000 0.000000 0.000000 0.000000 0.018100 0.000000
# 6 0.000000 0.000000 0.000000 0.000000 0.000000 0.009811
#
#
# Mechanical properties :
#
#
# Convention : Reuss Voigt Hill
#
# Bulk Modulus (GPa) = 56.52643 71.60163 64.06403
# Shear Modulus (GPa) = 41.10556 54.47442 47.78999
#
# Velocity S-wave (km/s) = 3.93887 4.53437 4.24707
# Velocity P-wave (km/s) = 6.48238 7.37828 6.94479
#
# Compressibility (1/GPa) = 0.01769084
#
# Stress axis : x y z
#
# Youngs Moduli (GPa) = 123.45755 132.61276 45.98145
#
# Poissons Ratio (x) = 0.18754 0.19656
# Poissons Ratio (y) = 0.17459 0.19128
# Poissons Ratio (z) = 0.52776 0.55166
#
# Static dielectric constant tensor:
#      x y z
#    x 5.025800 0.000000 0.000000 
#    y 0.000000 5.367790 0.000000 
#    z 0.000000 0.000000 3.702400 
# 
# 
# High freq. dielectric constant tensor:
#      x y z
#    x 2.066090 0.000000 0.000000 
#    y 0.000000 2.103750 0.000000 
#    z 0.000000 0.000000 2.059410 
# 
# From -- ./inp_files/43807.got.cif
#   From: 2010.03.12/outbox.cif.g09.slc.cpg/sg70_22_cif.got.tgz:43807.got - 2010.04.16 13:46:32.
