data_PCOD8286642
_publ_section_title
;
Structure prediction by ZEFSAII (Michael W. Deem and Ramdas Pophale) SiO2 
 PCOD8286642
Probable space group: F D D D
;
_chemical_formula_sum "Si O2"
_cell_formula_units_Z 160
_cell_length_a 12.108109
_cell_length_b 23.960594
_cell_length_c 24.360928
_cell_angle_alpha 90.000000
_cell_angle_beta 90.000000
_cell_angle_gamma 90.000000
_cell_volume 7067.531136
_symmetry_space_group_name_H-M "F D D D"
_symmetry_group_IT_number 70
_space_group.IT_coordinate_system_code '2'
_symmetry_cell_setting 'orthorhombic'
loop_
_space_group_symop_operation_xyz
x,y,z
1/4-x,1/4-y,z
x,1/4-y,1/4-z
1/4-x,y,1/4-z
-x,-y,-z
3/4+x,3/4+y,-z
-x,3/4+y,3/4+z
3/4+x,-y,3/4+z
x,1/2+y,1/2+z
1/4-x,3/4-y,1/2+z
x,3/4-y,3/4-z
1/4-x,1/2+y,3/4-z
-x,1/2-y,1/2-z
3/4+x,1/4+y,1/2-z
-x,1/4+y,1/4+z
3/4+x,1/2-y,1/4+z
1/2+x,y,1/2+z
3/4-x,1/4-y,1/2+z
1/2+x,1/4-y,3/4-z
3/4-x,y,3/4-z
1/2-x,-y,1/2-z
1/4+x,3/4+y,1/2-z
1/2-x,3/4+y,1/4+z
1/4+x,-y,1/4+z
1/2+x,1/2+y,z
3/4-x,3/4-y,z
1/2+x,3/4-y,1/4-z
3/4-x,1/2+y,1/4-z
1/2-x,1/2-y,-z
1/4+x,1/4+y,-z
1/2-x,1/4+y,3/4+z
1/4+x,1/2-y,3/4+z
loop_
_atom_site_type_symbol
_atom_site_label
_atom_site_fract_x
_atom_site_fract_y
_atom_site_fract_z
Si Si1 0.347497 0.632402 0.564577
Si Si2 0.870685 0.312176 0.627547
Si Si3 0.317421 0.445569 0.744207
Si Si4 0.057927 0.268881 0.471283
Si Si5 0.964563 0.776172 0.416128
O O1 0.298249 0.625000 0.625000
O O2 0.244180 0.646991 0.526419
O O3 0.388974 0.571020 0.544286
O O4 0.444497 0.678193 0.565855
O O5 0.875000 0.375000 0.652688
O O6 0.809934 0.320545 0.569661
O O7 0.803381 0.275703 0.671805
O O8 0.984387 0.278740 0.613874
O O9 0.250000 0.500000 0.750000
O O10 0.436809 0.456364 0.769073
O O11 0.099096 0.241283 0.528047
O O12 0.875000 0.803237 0.375000
#
# Coordination Sequence:
#
# PCOD8286642 Si02
#       5
#    32  32  32  32  32
#     4  12  23  46  72 107 143 186 239 293 365 435
#     4  11  24  47  67 105 142 180 236 294 362 421
#     4  11  21  43  73 105 144 176 226 299 364 429
#     4  11  24  45  73 105 140 187 240 294 365 429
#     4  11  26  50  69 101 147 193 243 299 350 434
#
# _framework density 22.638739999999999
#
# number of rings (size 3 to 8) (size 9 to 14) (size 15 to 20)
#    0.000    0.800    6.000    3.000    0.000    6.800 
#    7.200    0.000    0.000    0.000    0.000    0.000 
#    0.000    0.000    0.000    0.000    0.000    0.000 
#
# Total GULP energy -495632.391327 kJ/mol
# GULP energy per Si atom -12390.809783 kJ/mol
# Density = 2.258721 g / cm^3
# Si number density = 22.638740 Si / 1000 Ang^3
#
#
#
# Elastic Constant Matrix: (Units=GPa)
#
#
# Indices 1 2 3 4 5 6 
#
# 1 58.3567 31.2515 47.8448 0.0000 0.0000 0.0000
# 2 31.2515 174.6838 57.9137 0.0000 0.0000 0.0000
# 3 47.8448 57.9137 188.8272 0.0000 0.0000 0.0000
# 4 0.0000 0.0000 0.0000 38.8072 0.0000 0.0000
# 5 0.0000 0.0000 0.0000 0.0000 30.0999 0.0000
# 6 0.0000 0.0000 0.0000 0.0000 0.0000 14.4922
#
#
#
# Elastic Compliance Matrix: (Units=1/GPa)
#
#
# Indices 1 2 3 4 5 6 
#
# 1 0.022481 -0.002375 -0.004968 0.000000 0.000000 0.000000
# 2 -0.002375 0.006624 -0.001430 0.000000 0.000000 0.000000
# 3 -0.004968 -0.001430 0.006993 0.000000 0.000000 0.000000
# 4 0.000000 0.000000 0.000000 0.025768 0.000000 0.000000
# 5 0.000000 0.000000 0.000000 0.000000 0.033223 0.000000
# 6 0.000000 0.000000 0.000000 0.000000 0.000000 0.069003
#
#
# Mechanical properties :
#
#
# Convention : Reuss Voigt Hill
#
# Bulk Modulus (GPa) = 53.90084 77.32086 65.61085
# Shear Modulus (GPa) = 26.62127 35.67038 31.14582
#
# Velocity S-wave (km/s) = 3.43288 3.97373 3.71317
# Velocity P-wave (km/s) = 6.29077 7.43522 6.88680
#
# Compressibility (1/GPa) = 0.01855259
#
# Stress axis : x y z
#
# Youngs Moduli (GPa) = 44.48262 150.97757 142.99905
#
# Poissons Ratio (x) = 0.35856 0.71038
# Poissons Ratio (y) = 0.10564 0.20444
# Poissons Ratio (z) = 0.22098 0.21585
#
# Static dielectric constant tensor:
#      x y z
#    x 2.771680 0.000000 0.000000 
#    y 0.000000 4.486400 0.000000 
#    z 0.000000 0.000000 4.280060 
# 
# 
# High freq. dielectric constant tensor:
#      x y z
#    x 1.858720 0.000000 0.000000 
#    y 0.000000 1.920570 0.000000 
#    z 0.000000 0.000000 1.909930 
# 
# From -- ./inp_files/51128.got.cif
#   From: 2010.03.12/outbox.cif.g09.slc.cpg/sg70_26_cif.got.tgz:51128.got - 2010.04.16 13:46:32.
