data_PCOD8286417
_publ_section_title
;
Structure prediction by ZEFSAII (Michael W. Deem and Ramdas Pophale) SiO2 
 PCOD8286417
Probable space group: F D D D
;
_chemical_formula_sum "Si O2"
_cell_formula_units_Z 168
_cell_length_a 20.366943
_cell_length_b 13.955884
_cell_length_c 25.816307
_cell_angle_alpha 90.000000
_cell_angle_beta 90.000000
_cell_angle_gamma 90.000000
_cell_volume 7337.993384
_symmetry_space_group_name_H-M "F D D D"
_symmetry_group_IT_number 70
_space_group.IT_coordinate_system_code '2'
_symmetry_cell_setting 'orthorhombic'
loop_
_space_group_symop_operation_xyz
x,y,z
1/4-x,1/4-y,z
x,1/4-y,1/4-z
1/4-x,y,1/4-z
-x,-y,-z
3/4+x,3/4+y,-z
-x,3/4+y,3/4+z
3/4+x,-y,3/4+z
x,1/2+y,1/2+z
1/4-x,3/4-y,1/2+z
x,3/4-y,3/4-z
1/4-x,1/2+y,3/4-z
-x,1/2-y,1/2-z
3/4+x,1/4+y,1/2-z
-x,1/4+y,1/4+z
3/4+x,1/2-y,1/4+z
1/2+x,y,1/2+z
3/4-x,1/4-y,1/2+z
1/2+x,1/4-y,3/4-z
3/4-x,y,3/4-z
1/2-x,-y,1/2-z
1/4+x,3/4+y,1/2-z
1/2-x,3/4+y,1/4+z
1/4+x,-y,1/4+z
1/2+x,1/2+y,z
3/4-x,3/4-y,z
1/2+x,3/4-y,1/4-z
3/4-x,1/2+y,1/4-z
1/2-x,1/2-y,-z
1/4+x,1/4+y,-z
1/2-x,1/4+y,3/4+z
1/4+x,1/2-y,3/4+z
loop_
_atom_site_type_symbol
_atom_site_label
_atom_site_fract_x
_atom_site_fract_y
_atom_site_fract_z
Si Si1 0.875000 0.375000 0.875000
Si Si2 0.700213 0.618534 0.403229
Si Si3 0.499339 0.295341 0.833340
Si Si4 0.819725 0.649506 0.982972
Si Si5 0.216390 0.896671 0.746436
Si Si6 0.990058 0.988758 0.328974
O O1 0.919265 0.305865 0.909623
O O2 0.625000 0.625000 0.419905
O O3 0.709249 0.535810 0.361831
O O4 0.741394 0.589257 0.453932
O O5 0.724595 0.721746 0.380787
O O6 0.474580 0.375000 0.875000
O O7 0.551775 0.337590 0.792893
O O8 0.437965 0.248183 0.801204
O O9 0.891599 0.603456 0.976921
O O10 0.767131 0.575754 0.960543
O O11 0.216580 0.843192 0.801704
O O12 0.250000 0.000000 0.750000
#
# Coordination Sequence:
#
# PCOD8286417 Si02
#       6
#     8  32  32  32  32  32
#     4  12  24  44  68  96 134 180 232 282 348 404
#     4  11  25  43  65  98 135 177 229 277 349 421
#     4  10  22  43  72  98 133 186 225 293 345 429
#     4  10  23  44  66  99 139 172 235 286 353 421
#     4  12  26  40  68 100 134 183 225 292 348 414
#     4  11  23  43  65  94 133 175 222 287 343 411
#
# _framework density 22.894542000000001
#
# number of rings (size 3 to 8) (size 9 to 14) (size 15 to 20)
#    0.000    1.143    0.000    5.714    6.667    2.286 
#    3.429    9.524    0.000    0.000    0.000    0.000 
#    0.000    0.000    0.000    0.000    0.000    0.000 
#
# Total GULP energy -520762.709767 kJ/mol
# GULP energy per Si atom -12399.112137 kJ/mol
# Density = 2.284243 g / cm^3
# Si number density = 22.894542 Si / 1000 Ang^3
#
#
#
# Elastic Constant Matrix: (Units=GPa)
#
#
# Indices 1 2 3 4 5 6 
#
# 1 122.2214 28.2389 18.7182 0.0000 0.0000 0.0000
# 2 28.2389 107.3503 37.4998 0.0000 0.0000 0.0000
# 3 18.7182 37.4998 96.5174 0.0000 0.0000 0.0000
# 4 0.0000 0.0000 0.0000 57.9180 0.0000 0.0000
# 5 0.0000 0.0000 0.0000 0.0000 34.9410 0.0000
# 6 0.0000 0.0000 0.0000 0.0000 0.0000 33.7992
#
#
#
# Elastic Compliance Matrix: (Units=1/GPa)
#
#
# Indices 1 2 3 4 5 6 
#
# 1 0.008783 -0.001985 -0.000932 0.000000 0.000000 0.000000
# 2 -0.001985 0.011227 -0.003977 0.000000 0.000000 0.000000
# 3 -0.000932 -0.003977 0.012087 0.000000 0.000000 0.000000
# 4 0.000000 0.000000 0.000000 0.017266 0.000000 0.000000
# 5 0.000000 0.000000 0.000000 0.000000 0.028620 0.000000
# 6 0.000000 0.000000 0.000000 0.000000 0.000000 0.029586
#
#
# Mechanical properties :
#
#
# Convention : Reuss Voigt Hill
#
# Bulk Modulus (GPa) = 54.61892 55.00032 54.80962
# Shear Modulus (GPa) = 39.22817 41.44047 40.33432
#
# Velocity S-wave (km/s) = 4.14385 4.25909 4.20187
# Velocity P-wave (km/s) = 6.84133 6.94709 6.89441
#
# Compressibility (1/GPa) = 0.01830867
#
# Stress axis : x y z
#
# Youngs Moduli (GPa) = 113.85336 89.07381 82.73506
#
# Poissons Ratio (x) = 0.17680 0.07713
# Poissons Ratio (y) = 0.22598 0.32903
# Poissons Ratio (z) = 0.10614 0.35424
#
# Static dielectric constant tensor:
#      x y z
#    x 3.915270 0.000000 0.000000 
#    y 0.000000 4.338250 0.000000 
#    z 0.000000 0.000000 4.446380 
# 
# 
# High freq. dielectric constant tensor:
#      x y z
#    x 1.884640 0.000000 0.000000 
#    y 0.000000 1.915780 0.000000 
#    z 0.000000 0.000000 1.920800 
# 
# From -- ./inp_files/42825.got.cif
#   From: 2010.03.12/outbox.cif.g09.slc.cpg/sg70_22_cif.got.tgz:42825.got - 2010.04.16 13:46:32.
