data_PCOD8286172
_publ_section_title
;
Structure prediction by ZEFSAII (Michael W. Deem and Ramdas Pophale) SiO2 
 PCOD8286172
Probable space group: F D D D
;
_chemical_formula_sum "Si O2"
_cell_formula_units_Z 72
_cell_length_a 6.872184
_cell_length_b 30.991183
_cell_length_c 15.355895
_cell_angle_alpha 90.000000
_cell_angle_beta 90.000000
_cell_angle_gamma 90.000000
_cell_volume 3270.454169
_symmetry_space_group_name_H-M "F D D D"
_symmetry_group_IT_number 70
_space_group.IT_coordinate_system_code '2'
_symmetry_cell_setting 'orthorhombic'
loop_
_space_group_symop_operation_xyz
x,y,z
1/4-x,1/4-y,z
x,1/4-y,1/4-z
1/4-x,y,1/4-z
-x,-y,-z
3/4+x,3/4+y,-z
-x,3/4+y,3/4+z
3/4+x,-y,3/4+z
x,1/2+y,1/2+z
1/4-x,3/4-y,1/2+z
x,3/4-y,3/4-z
1/4-x,1/2+y,3/4-z
-x,1/2-y,1/2-z
3/4+x,1/4+y,1/2-z
-x,1/4+y,1/4+z
3/4+x,1/2-y,1/4+z
1/2+x,y,1/2+z
3/4-x,1/4-y,1/2+z
1/2+x,1/4-y,3/4-z
3/4-x,y,3/4-z
1/2-x,-y,1/2-z
1/4+x,3/4+y,1/2-z
1/2-x,3/4+y,1/4+z
1/4+x,-y,1/4+z
1/2+x,1/2+y,z
3/4-x,3/4-y,z
1/2+x,3/4-y,1/4-z
3/4-x,1/2+y,1/4-z
1/2-x,1/2-y,-z
1/4+x,1/4+y,-z
1/2-x,1/4+y,3/4+z
1/4+x,1/2-y,3/4+z
loop_
_atom_site_type_symbol
_atom_site_label
_atom_site_fract_x
_atom_site_fract_y
_atom_site_fract_z
Si Si1 0.625000 0.125000 0.625000
Si Si2 0.159791 0.715379 0.356070
Si Si3 0.403660 0.195375 0.520237
O O1 0.477790 0.152080 0.565206
O O2 0.375000 0.697433 0.375000
O O3 0.154979 0.766759 0.341208
O O4 0.061978 0.690294 0.273476
O O5 0.046285 0.708498 0.444013
#
# Coordination Sequence:
#
# PCOD8286172 Si02
#       3
#     8  32  32
#     4  12  24  44  58 108 144 172 212 310 344 392
#     4  10  20  43  69  93 124 189 227 264 316 440
#     4  10  23  40  68  96 135 170 230 271 346 392
#
# _framework density 22.015291999999999
#
# number of rings (size 3 to 8) (size 9 to 14) (size 15 to 20)
#    0.000    1.778    2.222    1.333    0.000    0.000 
#    8.000    2.222    0.000    0.000    0.000    0.000 
#    0.000    0.000    0.000    0.000    0.000    0.000 
#
# Total GULP energy -223157.344931 kJ/mol
# GULP energy per Si atom -12397.630274 kJ/mol
# Density = 2.196518 g / cm^3
# Si number density = 22.015292 Si / 1000 Ang^3
#
#
#
# Elastic Constant Matrix: (Units=GPa)
#
#
# Indices 1 2 3 4 5 6 
#
# 1 180.2403 57.3060 63.6837 0.0000 0.0000 0.0000
# 2 57.3060 131.7293 77.1134 0.0000 0.0000 0.0000
# 3 63.6837 77.1134 125.3771 0.0000 0.0000 0.0000
# 4 0.0000 0.0000 0.0000 1272.2083 0.0000 0.0000
# 5 0.0000 0.0000 0.0000 0.0000 28.5039 0.0000
# 6 0.0000 0.0000 0.0000 0.0000 0.0000 39.6057
#
#
#
# Elastic Compliance Matrix: (Units=1/GPa)
#
#
# Indices 1 2 3 4 5 6 
#
# 1 0.006945 -0.001494 -0.002609 0.000000 0.000000 0.000000
# 2 -0.001494 0.012184 -0.006735 0.000000 0.000000 0.000000
# 3 -0.002609 -0.006735 0.013443 0.000000 0.000000 0.000000
# 4 0.000000 0.000000 0.000000 0.000786 0.000000 0.000000
# 5 0.000000 0.000000 0.000000 0.000000 0.035083 0.000000
# 6 0.000000 0.000000 0.000000 0.000000 0.000000 0.025249
#
#
# Mechanical properties :
#
#
# Convention : Reuss Voigt Hill
#
# Bulk Modulus (GPa) = 91.76941 92.61698 92.19319
# Shear Modulus (GPa) = 42.01792 284.01316 163.01554
#
# Velocity S-wave (km/s) = 4.37347 11.37046 8.61436
# Velocity P-wave (km/s) = 8.20231 14.64731 11.87059
#
# Compressibility (1/GPa) = 0.01089688
#
# Stress axis : x y z
#
# Youngs Moduli (GPa) = 143.99071 82.07619 74.38744
#
# Poissons Ratio (x) = 0.12264 0.19404
# Poissons Ratio (y) = 0.21515 0.50098
# Poissons Ratio (z) = 0.37561 0.55276
#
# Static dielectric constant tensor:
#      x y z
#    x 5.111210 0.000000 0.000000 
#    y 0.000000 4.014560 0.000000 
#    z 0.000000 0.000000 4.280020 
# 
# 
# High freq. dielectric constant tensor:
#      x y z
#    x 1.883050 0.000000 0.000000 
#    y 0.000000 1.831020 0.000000 
#    z 0.000000 0.000000 1.885680 
# 
# From -- ./inp_files/2322.got.cif
#   From: 2010.03.12/outbox.cif.g09.slc.cpg/sg70_2_cif.got.tgz:2322.got - 2010.04.16 13:46:32.
