data_PCOD8286067
_publ_section_title
;
Structure prediction by ZEFSAII (Michael W. Deem and Ramdas Pophale) SiO2 
 PCOD8286067
Probable space group: F D D D
;
_chemical_formula_sum "Si O2"
_cell_formula_units_Z 192
_cell_length_a 14.429977
_cell_length_b 27.276939
_cell_length_c 25.690085
_cell_angle_alpha 90.000000
_cell_angle_beta 90.000000
_cell_angle_gamma 90.000000
_cell_volume 10111.761382
_symmetry_space_group_name_H-M "F D D D"
_symmetry_group_IT_number 70
_space_group.IT_coordinate_system_code '2'
_symmetry_cell_setting 'orthorhombic'
loop_
_space_group_symop_operation_xyz
x,y,z
1/4-x,1/4-y,z
x,1/4-y,1/4-z
1/4-x,y,1/4-z
-x,-y,-z
3/4+x,3/4+y,-z
-x,3/4+y,3/4+z
3/4+x,-y,3/4+z
x,1/2+y,1/2+z
1/4-x,3/4-y,1/2+z
x,3/4-y,3/4-z
1/4-x,1/2+y,3/4-z
-x,1/2-y,1/2-z
3/4+x,1/4+y,1/2-z
-x,1/4+y,1/4+z
3/4+x,1/2-y,1/4+z
1/2+x,y,1/2+z
3/4-x,1/4-y,1/2+z
1/2+x,1/4-y,3/4-z
3/4-x,y,3/4-z
1/2-x,-y,1/2-z
1/4+x,3/4+y,1/2-z
1/2-x,3/4+y,1/4+z
1/4+x,-y,1/4+z
1/2+x,1/2+y,z
3/4-x,3/4-y,z
1/2+x,3/4-y,1/4-z
3/4-x,1/2+y,1/4-z
1/2-x,1/2-y,-z
1/4+x,1/4+y,-z
1/2-x,1/4+y,3/4+z
1/4+x,1/2-y,3/4+z
loop_
_atom_site_type_symbol
_atom_site_label
_atom_site_fract_x
_atom_site_fract_y
_atom_site_fract_z
Si Si1 0.356899 0.798419 0.623711
Si Si2 0.875000 0.375000 0.212411
Si Si3 0.875000 0.875000 0.206943
Si Si4 0.733077 0.703287 0.117830
Si Si5 0.530270 0.371180 0.957258
Si Si6 0.461129 0.177162 0.239293
Si Si7 0.790383 0.244916 0.914357
O O1 0.345460 0.828088 0.570795
O O2 0.327220 0.833131 0.671663
O O3 0.287214 0.753656 0.621237
O O4 0.464146 0.783638 0.630534
O O5 0.787746 0.358789 0.246034
O O6 0.800155 0.897508 0.244504
O O7 0.625000 0.714254 0.125000
O O8 0.764965 0.668609 0.163435
O O9 0.758420 0.676030 0.063581
O O10 0.634975 0.364096 0.976579
O O11 0.425362 0.212559 0.286124
O O12 0.489817 0.206967 0.187368
O O13 0.875000 0.257491 0.875000
#
# Coordination Sequence:
#
# PCOD8286067 Si02
#       7
#    32  16  16  32  32  32  32
#     4  10  22  40  62  88 123 156 202 252 297 360
#     4  11  22  39  64  91 117 160 205 248 295 366
#     4   9  22  42  57  91 125 153 200 254 299 356
#     4  11  22  41  62  84 125 162 193 254 310 349
#     4  11  21  40  60  87 123 161 198 248 307 361
#     4  10  21  38  62  85 122 162 196 249 308 358
#     4  10  20  38  61  89 119 159 200 250 306 357
#
# _framework density 18.98779
#
# number of rings (size 3 to 8) (size 9 to 14) (size 15 to 20)
#    0.000    1.667    3.333    1.500    0.000    3.333 
#    3.000    1.667    0.000    0.000    0.000    0.000 
#    0.000    0.000    0.000    0.000    0.000    0.000 
#
# Total GULP energy -595198.134273 kJ/mol
# GULP energy per Si atom -12399.961131 kJ/mol
# Density = 1.894457 g / cm^3
# Si number density = 18.987790 Si / 1000 Ang^3
#
#
#
# Elastic Constant Matrix: (Units=GPa)
#
#
# Indices 1 2 3 4 5 6 
#
# 1 63.7899 27.9881 29.9385 0.0000 0.0000 0.0000
# 2 27.9881 90.3426 19.4408 0.0000 0.0000 0.0000
# 3 29.9385 19.4408 73.9730 0.0000 0.0000 0.0000
# 4 0.0000 0.0000 0.0000 20.6408 0.0000 0.0000
# 5 0.0000 0.0000 0.0000 0.0000 -314.0828 0.0000
# 6 0.0000 0.0000 0.0000 0.0000 0.0000 10.9327
#
#
#
# Elastic Compliance Matrix: (Units=1/GPa)
#
#
# Indices 1 2 3 4 5 6 
#
# 1 0.021311 -0.005031 -0.007303 0.000000 0.000000 0.000000
# 2 -0.005031 0.012920 -0.001359 0.000000 0.000000 0.000000
# 3 -0.007303 -0.001359 0.016831 0.000000 0.000000 0.000000
# 4 0.000000 0.000000 0.000000 0.048448 0.000000 0.000000
# 5 0.000000 0.000000 0.000000 0.000000 -0.003184 0.000000
# 6 0.000000 0.000000 0.000000 0.000000 0.000000 0.091469
#
#
# Mechanical properties :
#
#
# Convention : Reuss Voigt Hill
#
# Bulk Modulus (GPa) = 42.23628 42.53782 42.38705
# Shear Modulus (GPa) = 22.41413 -46.45267 -12.01927
#
# Velocity S-wave (km/s) = 3.43949 -4.95153 -2.51868
# Velocity P-wave (km/s) = 6.16974 3.19981 3.73008
#
# Compressibility (1/GPa) = 0.02367633
#
# Stress axis : x y z
#
# Youngs Moduli (GPa) = 46.92370 77.39928 59.41268
#
# Poissons Ratio (x) = 0.38937 0.43389
# Poissons Ratio (y) = 0.23606 0.08077
# Poissons Ratio (z) = 0.34268 0.10522
#
# Static dielectric constant tensor:
#      x y z
#    x 3.533350 0.000000 0.000000 
#    y 0.000000 3.549970 0.000000 
#    z 0.000000 0.000000 3.638860 
# 
# 
# High freq. dielectric constant tensor:
#      x y z
#    x 1.739010 0.000000 0.000000 
#    y 0.000000 1.737810 0.000000 
#    z 0.000000 0.000000 1.746560 
# 
# From -- ./inp_files/58871.got.cif
#   From: 2010.03.12/outbox.cif.g09.slc.cpg/sg70_30_cif.got.tgz:58871.got - 2010.04.16 13:46:32.
