data_PCOD8286862
_publ_section_title
;
Structure prediction by ZEFSAII (Michael W. Deem and Ramdas Pophale) SiO2 
 PCOD8286862
Probable space group: F D D D
;
_chemical_formula_sum "Si O2"
_cell_formula_units_Z 104
_cell_length_a 27.808529
_cell_length_b 10.133538
_cell_length_c 16.299801
_cell_angle_alpha 90.000000
_cell_angle_beta 90.000000
_cell_angle_gamma 90.000000
_cell_volume 4593.264123
_symmetry_space_group_name_H-M "F D D D"
_symmetry_group_IT_number 70
_space_group.IT_coordinate_system_code '2'
_symmetry_cell_setting 'orthorhombic'
loop_
_space_group_symop_operation_xyz
x,y,z
1/4-x,1/4-y,z
x,1/4-y,1/4-z
1/4-x,y,1/4-z
-x,-y,-z
3/4+x,3/4+y,-z
-x,3/4+y,3/4+z
3/4+x,-y,3/4+z
x,1/2+y,1/2+z
1/4-x,3/4-y,1/2+z
x,3/4-y,3/4-z
1/4-x,1/2+y,3/4-z
-x,1/2-y,1/2-z
3/4+x,1/4+y,1/2-z
-x,1/4+y,1/4+z
3/4+x,1/2-y,1/4+z
1/2+x,y,1/2+z
3/4-x,1/4-y,1/2+z
1/2+x,1/4-y,3/4-z
3/4-x,y,3/4-z
1/2-x,-y,1/2-z
1/4+x,3/4+y,1/2-z
1/2-x,3/4+y,1/4+z
1/4+x,-y,1/4+z
1/2+x,1/2+y,z
3/4-x,3/4-y,z
1/2+x,3/4-y,1/4-z
3/4-x,1/2+y,1/4-z
1/2-x,1/2-y,-z
1/4+x,1/4+y,-z
1/2-x,1/4+y,3/4+z
1/4+x,1/2-y,3/4+z
loop_
_atom_site_type_symbol
_atom_site_label
_atom_site_fract_x
_atom_site_fract_y
_atom_site_fract_z
Si Si1 0.467168 0.505088 0.322733
Si Si2 0.131288 0.274203 0.803236
Si Si3 0.625000 0.625000 0.125000
Si Si4 0.195421 0.316025 0.214013
O O1 0.458034 0.375000 0.375000
O O2 0.421453 0.530993 0.266211
O O3 0.472845 0.626409 0.385237
O O4 0.515945 0.503545 0.271665
O O5 0.145937 0.375000 0.875000
O O6 0.080354 0.316670 0.764176
O O7 0.125000 0.125000 0.837439
O O8 0.656628 0.710084 0.186646
#
# Coordination Sequence:
#
# PCOD8286862 Si02
#       4
#    32  32   8  32
#     4  12  26  50  79 111 151 212 262 323 396 480
#     4  12  28  48  78 115 159 209 264 328 398 472
#     4  12  28  48  74 112 164 200 268 332 396 468
#     4  12  28  49  77 114 157 208 267 330 396 477
#
# _framework density 22.641852
#
# number of rings (size 3 to 8) (size 9 to 14) (size 15 to 20)
#    0.000    0.000    6.154    1.846    8.615    1.231 
#    0.000    0.000    0.000    0.000    0.000    0.000 
#    0.000    0.000    0.000    0.000    0.000    0.000 
#
# Total GULP energy -322614.389466 kJ/mol
# GULP energy per Si atom -12408.245749 kJ/mol
# Density = 2.259032 g / cm^3
# Si number density = 22.641852 Si / 1000 Ang^3
#
#
#
# Elastic Constant Matrix: (Units=GPa)
#
#
# Indices 1 2 3 4 5 6 
#
# 1 133.0699 36.3703 65.7649 0.0000 0.0000 0.0000
# 2 36.3703 133.9169 66.8274 0.0000 0.0000 0.0000
# 3 65.7649 66.8274 152.5656 0.0000 0.0000 0.0000
# 4 0.0000 0.0000 0.0000 35.4647 0.0000 0.0000
# 5 0.0000 0.0000 0.0000 0.0000 131.8438 0.0000
# 6 0.0000 0.0000 0.0000 0.0000 0.0000 90.4805
#
#
#
# Elastic Compliance Matrix: (Units=1/GPa)
#
#
# Indices 1 2 3 4 5 6 
#
# 1 0.009599 -0.000694 -0.003834 0.000000 0.000000 0.000000
# 2 -0.000694 0.009606 -0.003909 0.000000 0.000000 0.000000
# 3 -0.003834 -0.003909 0.009919 0.000000 0.000000 0.000000
# 4 0.000000 0.000000 0.000000 0.028197 0.000000 0.000000
# 5 0.000000 0.000000 0.000000 0.000000 0.007585 0.000000
# 6 0.000000 0.000000 0.000000 0.000000 0.000000 0.011052
#
#
# Mechanical properties :
#
#
# Convention : Reuss Voigt Hill
#
# Bulk Modulus (GPa) = 81.61985 84.16418 82.89201
# Shear Modulus (GPa) = 51.59123 68.26378 59.92750
#
# Velocity S-wave (km/s) = 4.77862 5.49680 5.15025
# Velocity P-wave (km/s) = 8.15926 8.80563 8.48860
#
# Compressibility (1/GPa) = 0.01225192
#
# Stress axis : x y z
#
# Youngs Moduli (GPa) = 104.17459 104.09852 100.81335
#
# Poissons Ratio (x) = 0.07223 0.38651
# Poissons Ratio (y) = 0.07228 0.39405
# Poissons Ratio (z) = 0.39940 0.40689
#
# Static dielectric constant tensor:
#      x y z
#    x 4.185100 0.000000 0.000000 
#    y 0.000000 4.252030 0.000000 
#    z 0.000000 0.000000 5.153410 
# 
# 
# High freq. dielectric constant tensor:
#      x y z
#    x 1.902190 0.000000 0.000000 
#    y 0.000000 1.899690 0.000000 
#    z 0.000000 0.000000 1.911000 
# 
# From -- ./inp_files/15046.got.cif
#   From: 2010.03.12/outbox.cif.g09.slc.cpg/sg70_8_cif.got.tgz:15046.got - 2010.04.16 13:46:32.
