data_PCOD8286468
_publ_section_title
;
Structure prediction by ZEFSAII (Michael W. Deem and Ramdas Pophale) SiO2 
 PCOD8286468
Probable space group: F D D D
;
_chemical_formula_sum "Si O2"
_cell_formula_units_Z 96
_cell_length_a 24.587187
_cell_length_b 10.011812
_cell_length_c 14.954608
_cell_angle_alpha 90.000000
_cell_angle_beta 90.000000
_cell_angle_gamma 90.000000
_cell_volume 3681.260609
_symmetry_space_group_name_H-M "F D D D"
_symmetry_group_IT_number 70
_space_group.IT_coordinate_system_code '2'
_symmetry_cell_setting 'orthorhombic'
loop_
_space_group_symop_operation_xyz
x,y,z
1/4-x,1/4-y,z
x,1/4-y,1/4-z
1/4-x,y,1/4-z
-x,-y,-z
3/4+x,3/4+y,-z
-x,3/4+y,3/4+z
3/4+x,-y,3/4+z
x,1/2+y,1/2+z
1/4-x,3/4-y,1/2+z
x,3/4-y,3/4-z
1/4-x,1/2+y,3/4-z
-x,1/2-y,1/2-z
3/4+x,1/4+y,1/2-z
-x,1/4+y,1/4+z
3/4+x,1/2-y,1/4+z
1/2+x,y,1/2+z
3/4-x,1/4-y,1/2+z
1/2+x,1/4-y,3/4-z
3/4-x,y,3/4-z
1/2-x,-y,1/2-z
1/4+x,3/4+y,1/2-z
1/2-x,3/4+y,1/4+z
1/4+x,-y,1/4+z
1/2+x,1/2+y,z
3/4-x,3/4-y,z
1/2+x,3/4-y,1/4-z
3/4-x,1/2+y,1/4-z
1/2-x,1/2-y,-z
1/4+x,1/4+y,-z
1/2-x,1/4+y,3/4+z
1/4+x,1/2-y,3/4+z
loop_
_atom_site_type_symbol
_atom_site_label
_atom_site_fract_x
_atom_site_fract_y
_atom_site_fract_z
Si Si1 0.575797 0.434800 0.682866
Si Si2 0.994147 0.246597 0.434546
Si Si3 0.645371 0.260097 0.805374
O O1 0.625000 0.502635 0.625000
O O2 0.548636 0.536298 0.755449
O O3 0.525987 0.382310 0.620503
O O4 0.600692 0.307523 0.733696
O O5 0.009382 0.375000 0.375000
O O6 0.948002 0.288781 0.503287
O O7 0.659953 0.375000 0.875000
O O8 0.625000 0.125000 0.854891
#
# Coordination Sequence:
#
# PCOD8286468 Si02
#       3
#    32  32  32
#     4  10  23  40  70 105 139 183 252 292 347 430
#     4  11  21  40  72 104 133 194 250 288 344 432
#     4  11  24  42  69 109 149 186 237 296 355 425
#
# _framework density 26.078023000000002
#
# number of rings (size 3 to 8) (size 9 to 14) (size 15 to 20)
#    0.000    1.333    3.333    2.000    4.667    0.000 
#    0.000    6.667    0.000    2.000    0.000    0.000 
#    0.000    0.000    0.000    0.000    0.000    0.000 
#
# Total GULP energy -297384.952680 kJ/mol
# GULP energy per Si atom -12391.039695 kJ/mol
# Density = 2.601867 g / cm^3
# Si number density = 26.078023 Si / 1000 Ang^3
#
#
#
# Elastic Constant Matrix: (Units=GPa)
#
#
# Indices 1 2 3 4 5 6 
#
# 1 138.5064 10.5332 72.1628 0.0000 0.0000 0.0000
# 2 10.5332 62.8858 32.7913 0.0000 0.0000 0.0000
# 3 72.1628 32.7913 135.7594 0.0000 0.0000 0.0000
# 4 0.0000 0.0000 0.0000 -44.6065 0.0000 0.0000
# 5 0.0000 0.0000 0.0000 0.0000 79.8736 0.0000
# 6 0.0000 0.0000 0.0000 0.0000 0.0000 -13.9407
#
#
#
# Elastic Compliance Matrix: (Units=1/GPa)
#
#
# Indices 1 2 3 4 5 6 
#
# 1 0.010072 0.001264 -0.005659 0.000000 0.000000 0.000000
# 2 0.001264 0.018352 -0.005104 0.000000 0.000000 0.000000
# 3 -0.005659 -0.005104 0.011607 0.000000 0.000000 0.000000
# 4 0.000000 0.000000 0.000000 -0.022418 0.000000 0.000000
# 5 0.000000 0.000000 0.000000 0.000000 0.012520 0.000000
# 6 0.000000 0.000000 0.000000 0.000000 0.000000 -0.071733
#
#
# Mechanical properties :
#
#
# Convention : Reuss Voigt Hill
#
# Bulk Modulus (GPa) = 47.54772 63.12513 55.33643
# Shear Modulus (GPa) = -320.72037 19.04291 -150.83873
#
# Velocity S-wave (km/s) = -11.10189 2.70521 -7.61360
# Velocity P-wave (km/s) = 12.08567 5.83235 7.48489
#
# Compressibility (1/GPa) = 0.02103150
#
# Stress axis : x y z
#
# Youngs Moduli (GPa) = 99.28289 54.49044 86.15473
#
# Poissons Ratio (x) = -0.06887 0.48756
# Poissons Ratio (y) = -0.12548 0.43978
# Poissons Ratio (z) = 0.56186 0.27815
#
# Static dielectric constant tensor:
#      x y z
#    x 5.159600 0.000000 0.000000 
#    y 0.000000 3.905730 0.000000 
#    z 0.000000 0.000000 5.152150 
# 
# 
# High freq. dielectric constant tensor:
#      x y z
#    x 2.062780 0.000000 0.000000 
#    y 0.000000 1.995390 0.000000 
#    z 0.000000 0.000000 2.056870 
# 
# From -- ./inp_files/18381.got.cif
#   From: 2010.03.12/outbox.cif.g09.slc.cpg/sg70_10_cif.got.tgz:18381.got - 2010.04.16 13:46:32.
