data_PCOD8286084
_publ_section_title
;
Structure prediction by ZEFSAII (Michael W. Deem and Ramdas Pophale) SiO2 
 PCOD8286084
Probable space group: F D D D
;
_chemical_formula_sum "Si O2"
_cell_formula_units_Z 80
_cell_length_a 32.627881
_cell_length_b 21.135145
_cell_length_c 5.003963
_cell_angle_alpha 90.000000
_cell_angle_beta 90.000000
_cell_angle_gamma 90.000000
_cell_volume 3450.707845
_symmetry_space_group_name_H-M "F D D D"
_symmetry_group_IT_number 70
_space_group.IT_coordinate_system_code '2'
_symmetry_cell_setting 'orthorhombic'
loop_
_space_group_symop_operation_xyz
x,y,z
1/4-x,1/4-y,z
x,1/4-y,1/4-z
1/4-x,y,1/4-z
-x,-y,-z
3/4+x,3/4+y,-z
-x,3/4+y,3/4+z
3/4+x,-y,3/4+z
x,1/2+y,1/2+z
1/4-x,3/4-y,1/2+z
x,3/4-y,3/4-z
1/4-x,1/2+y,3/4-z
-x,1/2-y,1/2-z
3/4+x,1/4+y,1/2-z
-x,1/4+y,1/4+z
3/4+x,1/2-y,1/4+z
1/2+x,y,1/2+z
3/4-x,1/4-y,1/2+z
1/2+x,1/4-y,3/4-z
3/4-x,y,3/4-z
1/2-x,-y,1/2-z
1/4+x,3/4+y,1/2-z
1/2-x,3/4+y,1/4+z
1/4+x,-y,1/4+z
1/2+x,1/2+y,z
3/4-x,3/4-y,z
1/2+x,3/4-y,1/4-z
3/4-x,1/2+y,1/4-z
1/2-x,1/2-y,-z
1/4+x,1/4+y,-z
1/2-x,1/4+y,3/4+z
1/4+x,1/2-y,3/4+z
loop_
_atom_site_type_symbol
_atom_site_label
_atom_site_fract_x
_atom_site_fract_y
_atom_site_fract_z
Si Si1 0.875000 0.667540 0.875000
Si Si2 0.168724 0.712344 0.539921
Si Si3 0.970192 0.440576 0.970360
O O1 0.864437 0.625000 0.625000
O O2 0.834835 0.711416 0.923378
O O3 0.125000 0.681605 0.625000
O O4 0.201596 0.680580 0.736478
O O5 0.182554 0.702209 0.234719
O O6 0.992462 0.375000 0.875000
O O7 0.000000 0.500000 0.000000
#
# Coordination Sequence:
#
# PCOD8286084 Si02
#       3
#    16  32  32
#     4  10  20  38  65 100 137 172 224 288 354 412
#     4  10  24  43  69 103 132 176 243 290 349 410
#     4  12  26  45  68 101 142 189 229 288 355 424
#
# _framework density 23.183648999999999
#
# number of rings (size 3 to 8) (size 9 to 14) (size 15 to 20)
#    1.200    0.000    0.000    6.000    0.000    9.600 
#    0.000    0.000    0.000    0.000    0.000    0.000 
#    0.000    0.000    0.000    0.000    0.000    0.000 
#
# Total GULP energy -247774.784766 kJ/mol
# GULP energy per Si atom -12388.739238 kJ/mol
# Density = 2.313088 g / cm^3
# Si number density = 23.183649 Si / 1000 Ang^3
#
#
#
# Elastic Constant Matrix: (Units=GPa)
#
#
# Indices 1 2 3 4 5 6 
#
# 1 82.6389 23.0611 11.6261 0.0036 -0.0025 -0.0033
# 2 23.0611 169.2868 22.4036 -0.0316 -0.0169 -0.0210
# 3 11.6261 22.4036 103.6049 -0.0728 -0.0568 -0.0513
# 4 0.0036 -0.0316 -0.0728 41.2704 -0.0327 -0.0381
# 5 -0.0025 -0.0169 -0.0568 -0.0327 36.3368 -0.0343
# 6 -0.0033 -0.0210 -0.0513 -0.0381 -0.0343 29.4530
#
#
#
# Elastic Compliance Matrix: (Units=1/GPa)
#
#
# Indices 1 2 3 4 5 6 
#
# 1 0.012696 -0.001586 -0.001082 -0.000004 -0.000002 -0.000002
# 2 -0.001586 0.006279 -0.001180 0.000003 0.000001 0.000002
# 3 -0.001082 -0.001180 0.010029 0.000017 0.000015 0.000017
# 4 -0.000004 0.000003 0.000017 0.024231 0.000022 0.000031
# 5 -0.000002 0.000001 0.000015 0.000022 0.027520 0.000032
# 6 -0.000002 0.000002 0.000017 0.000031 0.000032 0.033953
#
#
# Mechanical properties :
#
#
# Convention : Reuss Voigt Hill
#
# Bulk Modulus (GPa) = 46.93062 52.19024 49.56043
# Shear Modulus (GPa) = 38.60843 41.30801 39.95822
#
# Velocity S-wave (km/s) = 4.08527 4.22569 4.15607
# Velocity P-wave (km/s) = 6.52223 6.80948 6.66741
#
# Compressibility (1/GPa) = 0.02130805
#
# Stress axis : x y z
#
# Youngs Moduli (GPa) = 78.76690 159.25149 99.71489
#
# Poissons Ratio (x) = 0.25263 0.10785
# Poissons Ratio (y) = 0.12495 0.11765
# Poissons Ratio (z) = 0.08520 0.18789
#
# Static dielectric constant tensor:
#      x y z
#    x 4.164310 0.000030 -0.000110 
#    y 0.000030 4.534540 -0.000020 
#    z -0.000110 -0.000020 4.063390 
# 
# 
# High freq. dielectric constant tensor:
#      x y z
#    x 1.874670 0.000000 0.000000 
#    y 0.000000 1.945400 0.000000 
#    z 0.000000 0.000000 1.931420 
# 
# From -- ./inp_files/3177.got.cif
#   From: 2010.03.12/outbox.cif.g09.slc.cpg/sg70_2_cif.got.tgz:3177.got - 2010.04.16 13:46:32.
