data_PCOD8286646
_publ_section_title
;
Structure prediction by ZEFSAII (Michael W. Deem and Ramdas Pophale) SiO2 
 PCOD8286646
Probable space group: F D D D
;
_chemical_formula_sum "Si O2"
_cell_formula_units_Z 136
_cell_length_a 28.997280
_cell_length_b 10.706803
_cell_length_c 21.387495
_cell_angle_alpha 90.000000
_cell_angle_beta 90.000000
_cell_angle_gamma 90.000000
_cell_volume 6640.136316
_symmetry_space_group_name_H-M "F D D D"
_symmetry_group_IT_number 70
_space_group.IT_coordinate_system_code '2'
_symmetry_cell_setting 'orthorhombic'
loop_
_space_group_symop_operation_xyz
x,y,z
1/4-x,1/4-y,z
x,1/4-y,1/4-z
1/4-x,y,1/4-z
-x,-y,-z
3/4+x,3/4+y,-z
-x,3/4+y,3/4+z
3/4+x,-y,3/4+z
x,1/2+y,1/2+z
1/4-x,3/4-y,1/2+z
x,3/4-y,3/4-z
1/4-x,1/2+y,3/4-z
-x,1/2-y,1/2-z
3/4+x,1/4+y,1/2-z
-x,1/4+y,1/4+z
3/4+x,1/2-y,1/4+z
1/2+x,y,1/2+z
3/4-x,1/4-y,1/2+z
1/2+x,1/4-y,3/4-z
3/4-x,y,3/4-z
1/2-x,-y,1/2-z
1/4+x,3/4+y,1/2-z
1/2-x,3/4+y,1/4+z
1/4+x,-y,1/4+z
1/2+x,1/2+y,z
3/4-x,3/4-y,z
1/2+x,3/4-y,1/4-z
3/4-x,1/2+y,1/4-z
1/2-x,1/2-y,-z
1/4+x,1/4+y,-z
1/2-x,1/4+y,3/4+z
1/4+x,1/2-y,3/4+z
loop_
_atom_site_type_symbol
_atom_site_label
_atom_site_fract_x
_atom_site_fract_y
_atom_site_fract_z
Si Si1 0.375000 0.875000 0.375000
Si Si2 0.629319 0.758897 0.772652
Si Si3 0.274990 0.509606 0.578410
Si Si4 0.063420 0.511802 0.865685
Si Si5 0.071714 0.773425 0.522982
O O1 0.408125 0.797827 0.418753
O O2 0.625000 0.625000 0.739184
O O3 0.682604 0.799111 0.782805
O O4 0.609163 0.748597 0.842669
O O5 0.598899 0.845765 0.727959
O O6 0.264119 0.625000 0.625000
O O7 0.282868 0.380128 0.615232
O O8 0.232959 0.473264 0.533172
O O9 0.037756 0.375000 0.875000
O O10 0.079767 0.537963 0.794818
#
# Coordination Sequence:
#
# PCOD8286646 Si02
#       5
#     8  32  32  32  32
#     4  12  28  40  54  92 136 176 192 268 340 372
#     4   9  21  41  68  95 120 168 222 272 320 377
#     4  11  22  38  63 101 121 170 229 248 331 392
#     4   9  21  40  65  92 125 170 212 278 318 369
#     4  11  24  42  61  90 138 166 212 270 325 391
#
# _framework density 20.481507000000001
#
# number of rings (size 3 to 8) (size 9 to 14) (size 15 to 20)
#    0.000    1.882    1.176    2.118    8.235   11.294 
#    0.000    0.588    0.000    0.000    0.000    0.000 
#    0.000    0.000    0.000    0.000    0.000    0.000 
#
# Total GULP energy -421244.563523 kJ/mol
# GULP energy per Si atom -12389.545986 kJ/mol
# Density = 2.043489 g / cm^3
# Si number density = 20.481507 Si / 1000 Ang^3
#
#
#
# Elastic Constant Matrix: (Units=GPa)
#
#
# Indices 1 2 3 4 5 6 
#
# 1 141.9526 61.1432 50.0085 0.0000 0.0000 0.0000
# 2 61.1432 143.8119 47.5357 0.0000 0.0000 0.0000
# 3 50.0085 47.5357 109.8322 0.0000 0.0000 0.0000
# 4 0.0000 0.0000 0.0000 42.9084 0.0000 0.0000
# 5 0.0000 0.0000 0.0000 0.0000 -109.1949 0.0000
# 6 0.0000 0.0000 0.0000 0.0000 0.0000 -4.2124
#
#
#
# Elastic Compliance Matrix: (Units=1/GPa)
#
#
# Indices 1 2 3 4 5 6 
#
# 1 0.009388 -0.003009 -0.002972 0.000000 0.000000 0.000000
# 2 -0.003009 0.009079 -0.002559 0.000000 0.000000 0.000000
# 3 -0.002972 -0.002559 0.011566 0.000000 0.000000 0.000000
# 4 0.000000 0.000000 0.000000 0.023305 0.000000 0.000000
# 5 0.000000 0.000000 0.000000 0.000000 -0.009158 0.000000
# 6 0.000000 0.000000 0.000000 0.000000 0.000000 -0.237396
#
#
# Mechanical properties :
#
#
# Convention : Reuss Voigt Hill
#
# Bulk Modulus (GPa) = 77.21091 79.21905 78.21498
# Shear Modulus (GPa) = -29.10045 1.69416 -13.70315
#
# Velocity S-wave (km/s) = -3.77346 0.91047 -2.58941
# Velocity P-wave (km/s) = 4.33525 6.31408 5.41581
#
# Compressibility (1/GPa) = 0.01295154
#
# Stress axis : x y z
#
# Youngs Moduli (GPa) = 106.52279 110.14751 86.46224
#
# Poissons Ratio (x) = 0.33142 0.25698
# Poissons Ratio (y) = 0.32051 0.22128
# Poissons Ratio (z) = 0.31660 0.28190
#
# Static dielectric constant tensor:
#      x y z
#    x 3.742570 0.000000 0.000000 
#    y 0.000000 4.780480 0.000000 
#    z 0.000000 0.000000 3.547460 
# 
# 
# High freq. dielectric constant tensor:
#      x y z
#    x 1.795310 0.000000 0.000000 
#    y 0.000000 1.815520 0.000000 
#    z 0.000000 0.000000 1.784970 
# 
# From -- ./inp_files/17673.got.cif
#   From: 2010.03.12/outbox.cif.g09.slc.cpg/sg70_9_cif.got.tgz:17673.got - 2010.04.16 13:46:32.
