data_PCOD8286946
_publ_section_title
;
Structure prediction by ZEFSAII (Michael W. Deem and Ramdas Pophale) SiO2 
 PCOD8286946
Probable space group: I M M M
;
_chemical_formula_sum "Si O2"
_cell_formula_units_Z 128
_cell_length_a 13.708524
_cell_length_b 27.967778
_cell_length_c 20.695766
_cell_angle_alpha 90.000000
_cell_angle_beta 90.000000
_cell_angle_gamma 90.000000
_cell_volume 7934.693685
_symmetry_space_group_name_H-M "I M M M"
_symmetry_group_IT_number 71
_symmetry_cell_setting 'orthorhombic'
loop_
_space_group_symop_operation_xyz
x,y,z
-x,-y,z
x,-y,-z
-x,y,-z
-x,-y,-z
x,y,-z
-x,y,z
x,-y,z
1/2+x,1/2+y,1/2+z
1/2-x,1/2-y,1/2+z
1/2+x,1/2-y,1/2-z
1/2-x,1/2+y,1/2-z
1/2-x,1/2-y,1/2-z
1/2+x,1/2+y,1/2-z
1/2-x,1/2+y,1/2+z
1/2+x,1/2-y,1/2+z
loop_
_atom_site_type_symbol
_atom_site_label
_atom_site_fract_x
_atom_site_fract_y
_atom_site_fract_z
Si Si1 0.114226 0.892966 0.803752
Si Si2 0.303712 0.707954 0.677757
Si Si3 0.610201 0.763707 0.574325
Si Si4 0.109383 0.054810 0.321201
Si Si5 0.884091 0.945713 0.071098
Si Si6 0.733628 0.055037 0.424622
Si Si7 0.611420 0.860536 0.631826
Si Si8 0.612747 0.201253 0.752843
O O1 0.134074 0.837186 0.800649
O O2 0.158824 0.916544 0.738583
O O3 0.160676 0.914508 0.870007
O O4 0.000000 0.904020 0.803698
O O5 0.321607 0.721805 0.603244
O O6 0.350712 0.752017 0.715964
O O7 0.188278 0.697085 0.687447
O O8 0.607509 0.752811 0.500000
O O9 0.500000 0.761097 0.604051
O O10 0.653245 0.816569 0.588762
O O11 0.163323 0.062496 0.389293
O O12 0.000000 0.073140 0.333851
O O13 0.111416 0.000000 0.299619
O O14 0.000000 0.942389 0.072150
O O15 0.849786 0.000000 0.081898
O O16 0.847214 0.927764 0.000000
O O17 0.743704 0.068915 0.500000
O O18 0.660972 0.089766 0.386675
O O19 0.697611 0.000000 0.417497
O O20 0.500000 0.868926 0.613877
O O21 0.624177 0.845565 0.707111
O O22 0.500000 0.206304 0.776332
#
# Coordination Sequence:
#
# PCOD8286946 Si02
#       8
#    16  16  16  16  16  16  16  16
#     4  10  17  25  41  64  88 113 143 180 215 247
#     4  10  18  28  45  67  89 111 140 180 218 251
#     4   9  17  29  45  65  90 119 147 173 207 258
#     4   9  18  31  44  58  80 114 151 180 211 255
#     4   8  14  24  37  56  86 121 147 166 201 256
#     4  10  20  31  44  64  86 107 138 182 224 259
#     4   9  17  31  49  65  84 112 141 169 210 263
#     4   9  18  32  48  65  85 112 144 175 212 261
#
# _framework density 16.131688
#
# number of rings (size 3 to 8) (size 9 to 14) (size 15 to 20)
#    0.000    2.750    0.000    3.750    0.000    3.250 
#    0.000    3.125    0.000    0.375    0.000    0.000 
#    0.000    0.000    0.000    1.375    0.000    0.125 
#
# Total GULP energy -793012.698838 kJ/mol
# GULP energy per Si atom -12390.823419 kJ/mol
# Density = 1.609497 g / cm^3
# Si number density = 16.131688 Si / 1000 Ang^3
#
#
#
# Elastic Constant Matrix: (Units=GPa)
#
#
# Indices 1 2 3 4 5 6 
#
# 1 61.4933 30.1713 40.1351 0.0000 0.0000 0.0000
# 2 30.1713 79.5929 35.3990 0.0000 0.0000 0.0000
# 3 40.1351 35.3990 66.9155 0.0001 0.0000 0.0000
# 4 0.0000 0.0000 0.0001 15.6356 0.0000 0.0000
# 5 0.0000 0.0000 0.0000 0.0000 20.5780 0.0000
# 6 0.0000 0.0000 0.0000 0.0000 0.0000 20.1457
#
#
#
# Elastic Compliance Matrix: (Units=1/GPa)
#
#
# Indices 1 2 3 4 5 6 
#
# 1 0.027695 -0.004068 -0.014459 0.000000 0.000000 0.000000
# 2 -0.004068 0.017027 -0.006568 0.000000 0.000000 0.000000
# 3 -0.014459 -0.006568 0.027091 0.000000 0.000000 0.000000
# 4 0.000000 0.000000 0.000000 0.063957 0.000000 0.000000
# 5 0.000000 0.000000 0.000000 0.000000 0.048596 0.000000
# 6 0.000000 0.000000 0.000000 0.000000 0.000000 0.049638
#
#
# Mechanical properties :
#
#
# Convention : Reuss Voigt Hill
#
# Bulk Modulus (GPa) = 46.24545 46.60139 46.42342
# Shear Modulus (GPa) = 17.15855 18.09162 17.62509
#
# Velocity S-wave (km/s) = 3.26491 3.35251 3.30900
# Velocity P-wave (km/s) = 6.55306 6.62847 6.59087
#
# Compressibility (1/GPa) = 0.02162375
#
# Stress axis : x y z
#
# Youngs Moduli (GPa) = 36.10789 58.73095 36.91258
#
# Poissons Ratio (x) = 0.23889 0.53373
# Poissons Ratio (y) = 0.14687 0.24243
# Poissons Ratio (z) = 0.52209 0.38573
#
# Static dielectric constant tensor:
#      x y z
#    x 2.973430 0.000000 0.000000 
#    y 0.000000 3.058710 0.000000 
#    z 0.000000 0.000000 3.282330 
# 
# 
# High freq. dielectric constant tensor:
#      x y z
#    x 1.582140 0.000000 0.000000 
#    y 0.000000 1.621620 0.000000 
#    z 0.000000 0.000000 1.617900 
# 
# From -- ./inp_files/59284.got.cif
#   From: 2010.06.25/outbox.cif.g09.slc.cpg/sg71_30_cif.got.tgz:59284.got - 2010.06.28 04:59:45.
