data_PCOD8286745
_publ_section_title
;
Structure prediction by ZEFSAII (Michael W. Deem and Ramdas Pophale) SiO2 
 PCOD8286745
Probable space group: F D D D
;
_chemical_formula_sum "Si O2"
_cell_formula_units_Z 128
_cell_length_a 28.782162
_cell_length_b 24.853463
_cell_length_c 8.168745
_cell_angle_alpha 90.000000
_cell_angle_beta 90.000000
_cell_angle_gamma 90.000000
_cell_volume 5843.400627
_symmetry_space_group_name_H-M "F D D D"
_symmetry_group_IT_number 70
_space_group.IT_coordinate_system_code '2'
_symmetry_cell_setting 'orthorhombic'
loop_
_space_group_symop_operation_xyz
x,y,z
1/4-x,1/4-y,z
x,1/4-y,1/4-z
1/4-x,y,1/4-z
-x,-y,-z
3/4+x,3/4+y,-z
-x,3/4+y,3/4+z
3/4+x,-y,3/4+z
x,1/2+y,1/2+z
1/4-x,3/4-y,1/2+z
x,3/4-y,3/4-z
1/4-x,1/2+y,3/4-z
-x,1/2-y,1/2-z
3/4+x,1/4+y,1/2-z
-x,1/4+y,1/4+z
3/4+x,1/2-y,1/4+z
1/2+x,y,1/2+z
3/4-x,1/4-y,1/2+z
1/2+x,1/4-y,3/4-z
3/4-x,y,3/4-z
1/2-x,-y,1/2-z
1/4+x,3/4+y,1/2-z
1/2-x,3/4+y,1/4+z
1/4+x,-y,1/4+z
1/2+x,1/2+y,z
3/4-x,3/4-y,z
1/2+x,3/4-y,1/4-z
3/4-x,1/2+y,1/4-z
1/2-x,1/2-y,-z
1/4+x,1/4+y,-z
1/2-x,1/4+y,3/4+z
1/4+x,1/2-y,3/4+z
loop_
_atom_site_type_symbol
_atom_site_label
_atom_site_fract_x
_atom_site_fract_y
_atom_site_fract_z
Si Si1 0.260602 0.197202 0.400945
Si Si2 0.047479 0.503047 0.409295
Si Si3 0.823263 0.125000 0.125000
Si Si4 0.625000 0.449873 0.125000
Si Si5 0.927250 0.871061 0.681394
O O1 0.250000 0.250000 0.500000
O O2 0.292128 0.212522 0.243391
O O3 0.291734 0.156952 0.500902
O O4 0.210822 0.169704 0.370166
O O5 0.087403 0.487542 0.537727
O O6 0.054078 0.564977 0.356992
O O7 0.000000 0.500000 0.500000
O O8 0.854635 0.164619 0.229689
O O9 0.875000 0.875000 0.609952
O O10 0.926264 0.875000 0.875000
#
# Coordination Sequence:
#
# PCOD8286745 Si02
#       5
#    32  32  16  16  32
#     4  12  26  47  73 108 152 195 245 315 375 445
#     4  12  25  45  78 105 149 193 250 311 377 452
#     4  12  28  46  73 106 146 193 252 310 376 456
#     4  12  26  48  73 110 140 201 250 310 384 448
#     4  11  24  44  75 108 145 197 249 296 370 458
#
# _framework density 21.905054
#
# number of rings (size 3 to 8) (size 9 to 14) (size 15 to 20)
#    0.000    0.250    2.500    7.500    3.500    0.000 
#    0.000    4.375    0.000    0.000    0.000    0.000 
#    0.000    0.000    0.000    0.000    0.000    0.000 
#
# Total GULP energy -396791.010208 kJ/mol
# GULP energy per Si atom -12399.719069 kJ/mol
# Density = 2.185520 g / cm^3
# Si number density = 21.905054 Si / 1000 Ang^3
#
#
#
# Elastic Constant Matrix: (Units=GPa)
#
#
# Indices 1 2 3 4 5 6 
#
# 1 171.0216 74.9552 57.3069 -0.0131 0.0039 -0.0005
# 2 74.9552 149.0574 44.6640 -0.0333 0.0131 0.0232
# 3 57.3069 44.6640 113.9253 -0.0390 0.0216 0.0451
# 4 -0.0131 -0.0333 -0.0390 58.0174 0.0204 0.0329
# 5 0.0039 0.0131 0.0216 0.0204 30.9639 -0.0217
# 6 -0.0005 0.0232 0.0451 0.0329 -0.0217 52.6924
#
#
#
# Elastic Compliance Matrix: (Units=1/GPa)
#
#
# Indices 1 2 3 4 5 6 
#
# 1 0.008247 -0.003291 -0.002858 -0.000002 0.000002 0.000004
# 2 -0.003291 0.008915 -0.001840 0.000003 -0.000002 -0.000002
# 3 -0.002858 -0.001840 0.010937 0.000006 -0.000006 -0.000009
# 4 -0.000002 0.000003 0.000006 0.017236 -0.000011 -0.000011
# 5 0.000002 -0.000002 -0.000006 -0.000011 0.032296 0.000013
# 6 0.000004 -0.000002 -0.000009 -0.000011 0.000013 0.018978
#
#
# Mechanical properties :
#
#
# Convention : Reuss Voigt Hill
#
# Bulk Modulus (GPa) = 82.50045 87.53963 85.02004
# Shear Modulus (GPa) = 42.87166 45.47331 44.17248
#
# Velocity S-wave (km/s) = 4.42878 4.56118 4.49547
# Velocity P-wave (km/s) = 7.99354 8.23341 8.11436
#
# Compressibility (1/GPa) = 0.01212115
#
# Stress axis : x y z
#
# Youngs Moduli (GPa) = 121.25181 112.17219 91.43433
#
# Poissons Ratio (x) = 0.36913 0.26136
# Poissons Ratio (y) = 0.39901 0.16821
# Poissons Ratio (z) = 0.34659 0.20637
#
# Static dielectric constant tensor:
#      x y z
#    x 10.239360 0.001930 0.003720 
#    y 0.001930 4.187480 0.000220 
#    z 0.003720 0.000220 3.514750 
# 
# 
# High freq. dielectric constant tensor:
#      x y z
#    x 1.882480 0.000000 0.000000 
#    y 0.000000 1.883000 0.000000 
#    z 0.000000 0.000000 1.866320 
# 
# From -- ./inp_files/12028.got.cif
#   From: 2010.03.12/outbox.cif.g09.slc.cpg/sg70_7_cif.got.tgz:12028.got - 2010.04.16 13:46:32.
