data_PCOD8286939
_publ_section_title
;
Structure prediction by ZEFSAII (Michael W. Deem and Ramdas Pophale) SiO2 
 PCOD8286939
Probable space group: I M M M
;
_chemical_formula_sum "Si O2"
_cell_formula_units_Z 40
_cell_length_a 9.859116
_cell_length_b 26.165626
_cell_length_c 8.790881
_cell_angle_alpha 90.000000
_cell_angle_beta 90.000000
_cell_angle_gamma 90.000000
_cell_volume 2267.783061
_symmetry_space_group_name_H-M "I M M M"
_symmetry_group_IT_number 71
_symmetry_cell_setting 'orthorhombic'
loop_
_space_group_symop_operation_xyz
x,y,z
-x,-y,z
x,-y,-z
-x,y,-z
-x,-y,-z
x,y,-z
-x,y,z
x,-y,z
1/2+x,1/2+y,1/2+z
1/2-x,1/2-y,1/2+z
1/2+x,1/2-y,1/2-z
1/2-x,1/2+y,1/2-z
1/2-x,1/2-y,1/2-z
1/2+x,1/2+y,1/2-z
1/2-x,1/2+y,1/2+z
1/2+x,1/2-y,1/2+z
loop_
_atom_site_type_symbol
_atom_site_label
_atom_site_fract_x
_atom_site_fract_y
_atom_site_fract_z
Si Si1 0.712662 0.137407 0.180024
Si Si2 0.000000 0.278926 0.321659
Si Si3 0.000000 0.442819 0.681917
Si Si4 0.500000 0.668977 0.680630
O O1 0.632504 0.188696 0.226134
O O2 0.634042 0.087167 0.241904
O O3 0.865758 0.140575 0.246127
O O4 0.716325 0.133646 0.000000
O O5 0.000000 0.227668 0.226556
O O6 0.000000 0.266168 0.500000
O O7 0.000000 0.500000 0.749831
O O8 0.000000 0.444020 0.500000
O O9 0.500000 0.666731 0.500000
#
# Coordination Sequence:
#
# PCOD8286939 Si02
#       4
#    16   8   8   8
#     4   8  15  25  37  55  78 103 129 159 192 224
#     4   9  16  27  40  54  78 110 136 152 178 228
#     4   8  13  24  40  54  73 104 133 153 187 241
#     4  10  17  25  38  58  84 105 124 158 197 222
#
# _framework density 17.638370999999999
#
# number of rings (size 3 to 8) (size 9 to 14) (size 15 to 20)
#    0.000    3.400    0.000    3.600    0.000    0.000 
#    0.000    1.000    0.000    6.000    0.000    0.000 
#    0.000   30.400    0.000    0.000    0.000    0.000 
#
# Total GULP energy -247808.416007 kJ/mol
# GULP energy per Si atom -12390.420800 kJ/mol
# Density = 1.759823 g / cm^3
# Si number density = 17.638371 Si / 1000 Ang^3
#
#
#
# Elastic Constant Matrix: (Units=GPa)
#
#
# Indices 1 2 3 4 5 6 
#
# 1 197.5374 88.0587 7.9086 -0.0022 -0.0001 0.0000
# 2 88.0587 139.7826 2.2626 -0.0105 -0.0002 0.0000
# 3 7.9086 2.2626 2.0546 -0.0114 0.0016 0.0003
# 4 -0.0022 -0.0105 -0.0114 16.2251 0.0002 0.0001
# 5 -0.0001 -0.0002 0.0016 0.0002 7.5740 -0.0225
# 6 0.0000 0.0000 0.0003 0.0001 -0.0225 11.4859
#
#
#
# Elastic Compliance Matrix: (Units=1/GPa)
#
#
# Indices 1 2 3 4 5 6 
#
# 1 0.008249 -0.004767 -0.026501 -0.000021 0.000005 0.000001
# 2 -0.004767 0.010039 0.007295 0.000011 -0.000001 0.000000
# 3 -0.026501 0.007295 0.580692 0.000409 -0.000120 -0.000015
# 4 -0.000021 0.000011 0.000409 0.061633 -0.000001 -0.000001
# 5 0.000005 -0.000001 -0.000120 -0.000001 0.132032 0.000258
# 6 0.000001 0.000000 -0.000015 -0.000001 0.000258 0.087064
#
#
# Mechanical properties :
#
#
# Convention : Reuss Voigt Hill
#
# Bulk Modulus (GPa) = 1.81477 59.53717 30.67597
# Shear Modulus (GPa) = 4.49910 23.13330 13.81620
#
# Velocity S-wave (km/s) = 1.59884 3.62544 2.80179
# Velocity P-wave (km/s) = 2.10701 7.16608 5.28167
#
# Compressibility (1/GPa) = 0.55103414
#
# Stress axis : x y z
#
# Youngs Moduli (GPa) = 121.23406 99.60992 1.72208
#
# Poissons Ratio (x) = 0.47487 0.04564
# Poissons Ratio (y) = 0.57796 -0.01256
# Poissons Ratio (z) = 3.21277 -0.72665
#
# Static dielectric constant tensor:
#      x y z
#    x 4.124250 0.000000 0.000000 
#    y 0.000000 3.356330 0.000000 
#    z 0.000000 0.000000 2.632080 
# 
# 
# High freq. dielectric constant tensor:
#      x y z
#    x 1.697570 0.000000 0.000000 
#    y 0.000000 1.668710 0.000000 
#    z 0.000000 0.000000 1.615730 
# 
# From -- ./inp_files/1977.got.cif
#   From: 2010.06.25/outbox.cif.g09.slc.cpg/sg71_1_cif.got.tgz:1977.got - 2010.06.28 04:59:45.
