data_PCOD8286021
_publ_section_title
;
Structure prediction by ZEFSAII (Michael W. Deem and Ramdas Pophale) SiO2 
 PCOD8286021
Probable space group: F D D D
;
_chemical_formula_sum "Si O2"
_cell_formula_units_Z 208
_cell_length_a 29.195235
_cell_length_b 22.200052
_cell_length_c 16.640563
_cell_angle_alpha 90.000000
_cell_angle_beta 90.000000
_cell_angle_gamma 90.000000
_cell_volume 10785.343533
_symmetry_space_group_name_H-M "F D D D"
_symmetry_group_IT_number 70
_space_group.IT_coordinate_system_code '2'
_symmetry_cell_setting 'orthorhombic'
loop_
_space_group_symop_operation_xyz
x,y,z
1/4-x,1/4-y,z
x,1/4-y,1/4-z
1/4-x,y,1/4-z
-x,-y,-z
3/4+x,3/4+y,-z
-x,3/4+y,3/4+z
3/4+x,-y,3/4+z
x,1/2+y,1/2+z
1/4-x,3/4-y,1/2+z
x,3/4-y,3/4-z
1/4-x,1/2+y,3/4-z
-x,1/2-y,1/2-z
3/4+x,1/4+y,1/2-z
-x,1/4+y,1/4+z
3/4+x,1/2-y,1/4+z
1/2+x,y,1/2+z
3/4-x,1/4-y,1/2+z
1/2+x,1/4-y,3/4-z
3/4-x,y,3/4-z
1/2-x,-y,1/2-z
1/4+x,3/4+y,1/2-z
1/2-x,3/4+y,1/4+z
1/4+x,-y,1/4+z
1/2+x,1/2+y,z
3/4-x,3/4-y,z
1/2+x,3/4-y,1/4-z
3/4-x,1/2+y,1/4-z
1/2-x,1/2-y,-z
1/4+x,1/4+y,-z
1/2-x,1/4+y,3/4+z
1/4+x,1/2-y,3/4+z
loop_
_atom_site_type_symbol
_atom_site_label
_atom_site_fract_x
_atom_site_fract_y
_atom_site_fract_z
Si Si1 0.811072 0.706644 0.504719
Si Si2 0.215683 0.169460 0.551033
Si Si3 0.159836 0.961981 0.459294
Si Si4 0.244823 0.682536 0.471857
Si Si5 0.924383 0.405590 0.663142
Si Si6 0.075306 0.871117 0.108497
Si Si7 0.776233 0.625000 0.125000
O O1 0.814853 0.770155 0.456053
O O2 0.767077 0.696261 0.561554
O O3 0.856179 0.700397 0.560053
O O4 0.806318 0.653599 0.441270
O O5 0.202619 0.125000 0.625000
O O6 0.207437 0.135508 0.466975
O O7 0.171356 0.933957 0.545706
O O8 0.190834 0.932280 0.390120
O O9 0.169039 0.032749 0.461984
O O10 0.250000 0.750000 0.500000
O O11 0.198887 0.668014 0.422228
O O12 0.290721 0.672058 0.420458
O O13 0.243930 0.638543 0.549121
O O14 0.875000 0.375000 0.647349
O O15 0.125000 0.900747 0.125000
#
# Coordination Sequence:
#
# PCOD8286021 Si02
#       7
#    32  32  32  32  32  32  16
#     4  10  20  38  55  89 125 155 200 252 302 368
#     4  11  23  36  58  89 127 163 196 242 310 375
#     4  10  20  36  63  89 119 159 206 255 309 374
#     4  11  22  42  65  89 125 167 214 259 317 373
#     4  12  23  41  62  94 127 167 204 259 319 373
#     4   9  19  37  63  88 119 160 209 261 306 368
#     4  10  22  40  67  90 112 164 215 260 310 366
#
# _framework density 19.285430999999999
#
# number of rings (size 3 to 8) (size 9 to 14) (size 15 to 20)
#    0.000    1.538    4.615    0.923    1.077    0.308 
#    0.000    1.923    0.000    0.000    0.000    0.000 
#    0.000    0.000    0.000    0.000    0.000    0.000 
#
# Total GULP energy -644576.802334 kJ/mol
# GULP energy per Si atom -12395.707737 kJ/mol
# Density = 1.924154 g / cm^3
# Si number density = 19.285431 Si / 1000 Ang^3
#
#
#
# Elastic Constant Matrix: (Units=GPa)
#
#
# Indices 1 2 3 4 5 6 
#
# 1 102.1082 40.1729 33.7697 0.0000 0.0000 0.0000
# 2 40.1729 101.3003 19.4167 0.0000 0.0000 0.0000
# 3 33.7697 19.4167 69.7406 0.0000 0.0000 0.0000
# 4 0.0000 0.0000 0.0000 24.9296 0.0000 0.0000
# 5 0.0000 0.0000 0.0000 0.0000 22.6360 0.0000
# 6 0.0000 0.0000 0.0000 0.0000 0.0000 26.8366
#
#
#
# Elastic Compliance Matrix: (Units=1/GPa)
#
#
# Indices 1 2 3 4 5 6 
#
# 1 0.013178 -0.004229 -0.005204 0.000000 0.000000 0.000000
# 2 -0.004229 0.011785 -0.001234 0.000000 0.000000 0.000000
# 3 -0.005204 -0.001234 0.017202 0.000000 0.000000 0.000000
# 4 0.000000 0.000000 0.000000 0.040113 0.000000 0.000000
# 5 0.000000 0.000000 0.000000 0.000000 0.044177 0.000000
# 6 0.000000 0.000000 0.000000 0.000000 0.000000 0.037263
#
#
# Mechanical properties :
#
#
# Convention : Reuss Voigt Hill
#
# Bulk Modulus (GPa) = 48.00000 51.09639 49.54820
# Shear Modulus (GPa) = 26.04236 26.86643 26.45439
#
# Velocity S-wave (km/s) = 3.67872 3.73647 3.70770
# Velocity P-wave (km/s) = 6.55647 6.72066 6.63907
#
# Compressibility (1/GPa) = 0.02083333
#
# Stress axis : x y z
#
# Youngs Moduli (GPa) = 75.88245 84.85322 58.13252
#
# Poissons Ratio (x) = 0.35882 0.30251
# Poissons Ratio (y) = 0.32088 0.07171
# Poissons Ratio (z) = 0.39488 0.10467
#
# Static dielectric constant tensor:
#      x y z
#    x 3.624790 0.000000 0.000000 
#    y 0.000000 3.513390 0.000000 
#    z 0.000000 0.000000 3.397260 
# 
# 
# High freq. dielectric constant tensor:
#      x y z
#    x 1.754830 0.000000 0.000000 
#    y 0.000000 1.751960 0.000000 
#    z 0.000000 0.000000 1.737170 
# 
# From -- ./inp_files/39954.got.cif
#   From: 2010.03.12/outbox.cif.g09.slc.cpg/sg70_20_cif.got.tgz:39954.got - 2010.04.16 13:46:32.
