data_PCOD8286316
_publ_section_title
;
Structure prediction by ZEFSAII (Michael W. Deem and Ramdas Pophale) SiO2 
 PCOD8286316
Probable space group: F D D D
;
_chemical_formula_sum "Si O2"
_cell_formula_units_Z 160
_cell_length_a 28.253722
_cell_length_b 14.351117
_cell_length_c 21.336453
_cell_angle_alpha 90.000000
_cell_angle_beta 90.000000
_cell_angle_gamma 90.000000
_cell_volume 8651.344301
_symmetry_space_group_name_H-M "F D D D"
_symmetry_group_IT_number 70
_space_group.IT_coordinate_system_code '2'
_symmetry_cell_setting 'orthorhombic'
loop_
_space_group_symop_operation_xyz
x,y,z
1/4-x,1/4-y,z
x,1/4-y,1/4-z
1/4-x,y,1/4-z
-x,-y,-z
3/4+x,3/4+y,-z
-x,3/4+y,3/4+z
3/4+x,-y,3/4+z
x,1/2+y,1/2+z
1/4-x,3/4-y,1/2+z
x,3/4-y,3/4-z
1/4-x,1/2+y,3/4-z
-x,1/2-y,1/2-z
3/4+x,1/4+y,1/2-z
-x,1/4+y,1/4+z
3/4+x,1/2-y,1/4+z
1/2+x,y,1/2+z
3/4-x,1/4-y,1/2+z
1/2+x,1/4-y,3/4-z
3/4-x,y,3/4-z
1/2-x,-y,1/2-z
1/4+x,3/4+y,1/2-z
1/2-x,3/4+y,1/4+z
1/4+x,-y,1/4+z
1/2+x,1/2+y,z
3/4-x,3/4-y,z
1/2+x,3/4-y,1/4-z
3/4-x,1/2+y,1/4-z
1/2-x,1/2-y,-z
1/4+x,1/4+y,-z
1/2-x,1/4+y,3/4+z
1/4+x,1/2-y,3/4+z
loop_
_atom_site_type_symbol
_atom_site_label
_atom_site_fract_x
_atom_site_fract_y
_atom_site_fract_z
Si Si1 0.079518 0.362997 0.167772
Si Si2 0.338255 0.231577 0.621165
Si Si3 0.477708 0.851355 0.121518
Si Si4 0.673737 0.283503 0.287493
Si Si5 0.918803 0.511933 0.538152
O O1 0.125000 0.370381 0.125000
O O2 0.075980 0.456157 0.211637
O O3 0.083111 0.270091 0.212291
O O4 0.034154 0.356020 0.123239
O O5 0.320851 0.125000 0.625000
O O6 0.292146 0.294772 0.612678
O O7 0.372332 0.250339 0.561487
O O8 0.367042 0.263165 0.683769
O O9 0.463597 0.787427 0.062118
O O10 0.458013 0.810751 0.187579
O O11 0.683040 0.386571 0.316434
#
# Coordination Sequence:
#
# PCOD8286316 Si02
#       5
#    32  32  32  32  32
#     4  10  22  35  53  80 125 147 167 230 291 313
#     4   9  17  34  61  82 102 140 196 229 268 319
#     4  11  18  33  64  81 101 148 197 219 261 341
#     4   8  18  34  55  80 114 141 178 226 276 323
#     4   8  17  34  56  83 113 141 176 226 277 323
#
# _framework density 18.494235
#
# number of rings (size 3 to 8) (size 9 to 14) (size 15 to 20)
#    1.200    1.600    0.000    4.800    0.000    1.600 
#    0.000    1.000    4.400    0.000    0.000    0.000 
#    0.000    0.000    0.000    0.000    0.000    0.000 
#
# Total GULP energy -495542.978364 kJ/mol
# GULP energy per Si atom -12388.574459 kJ/mol
# Density = 1.845214 g / cm^3
# Si number density = 18.494235 Si / 1000 Ang^3
#
#
#
# Elastic Constant Matrix: (Units=GPa)
#
#
# Indices 1 2 3 4 5 6 
#
# 1 126.9809 45.8007 50.1225 0.0000 0.0000 0.0000
# 2 45.8007 70.8365 25.2612 0.0000 0.0000 0.0000
# 3 50.1225 25.2612 93.8933 0.0000 0.0000 0.0000
# 4 0.0000 0.0000 0.0000 10.6026 0.0000 0.0000
# 5 0.0000 0.0000 0.0000 0.0000 15.5726 0.0000
# 6 0.0000 0.0000 0.0000 0.0000 0.0000 21.2843
#
#
#
# Elastic Compliance Matrix: (Units=1/GPa)
#
#
# Indices 1 2 3 4 5 6 
#
# 1 0.011916 -0.006013 -0.004743 0.000000 0.000000 0.000000
# 2 -0.006013 0.018650 -0.001807 0.000000 0.000000 0.000000
# 3 -0.004743 -0.001807 0.013669 0.000000 0.000000 0.000000
# 4 0.000000 0.000000 0.000000 0.094316 0.000000 0.000000
# 5 0.000000 0.000000 0.000000 0.000000 0.064215 0.000000
# 6 0.000000 0.000000 0.000000 0.000000 0.000000 0.046983
#
#
# Mechanical properties :
#
#
# Convention : Reuss Voigt Hill
#
# Bulk Modulus (GPa) = 52.33831 59.34215 55.84023
# Shear Modulus (GPa) = 17.77798 20.86033 19.31916
#
# Velocity S-wave (km/s) = 3.10380 3.36212 3.23554
# Velocity P-wave (km/s) = 6.41919 6.87229 6.64960
#
# Compressibility (1/GPa) = 0.01910646
#
# Stress axis : x y z
#
# Youngs Moduli (GPa) = 83.91734 53.62055 73.15894
#
# Poissons Ratio (x) = 0.32243 0.34703
# Poissons Ratio (y) = 0.50462 0.13223
# Poissons Ratio (z) = 0.39806 0.09692
#
# Static dielectric constant tensor:
#      x y z
#    x 3.045580 0.000000 0.000000 
#    y 0.000000 3.219630 0.000000 
#    z 0.000000 0.000000 3.236360 
# 
# 
# High freq. dielectric constant tensor:
#      x y z
#    x 1.695380 0.000000 0.000000 
#    y 0.000000 1.702310 0.000000 
#    z 0.000000 0.000000 1.695120 
# 
# From -- ./inp_files/61051.got.cif
#   From: 2010.03.12/outbox.cif.g09.slc.cpg/sg70_31_cif.got.tgz:61051.got - 2010.04.16 13:46:32.
