data_PCOD8286122
_publ_section_title
;
Structure prediction by ZEFSAII (Michael W. Deem and Ramdas Pophale) SiO2 
 PCOD8286122
Probable space group: F D D D
;
_chemical_formula_sum "Si O2"
_cell_formula_units_Z 176
_cell_length_a 26.013854
_cell_length_b 23.715124
_cell_length_c 12.456835
_cell_angle_alpha 90.000000
_cell_angle_beta 90.000000
_cell_angle_gamma 90.000000
_cell_volume 7684.892738
_symmetry_space_group_name_H-M "F D D D"
_symmetry_group_IT_number 70
_space_group.IT_coordinate_system_code '2'
_symmetry_cell_setting 'orthorhombic'
loop_
_space_group_symop_operation_xyz
x,y,z
1/4-x,1/4-y,z
x,1/4-y,1/4-z
1/4-x,y,1/4-z
-x,-y,-z
3/4+x,3/4+y,-z
-x,3/4+y,3/4+z
3/4+x,-y,3/4+z
x,1/2+y,1/2+z
1/4-x,3/4-y,1/2+z
x,3/4-y,3/4-z
1/4-x,1/2+y,3/4-z
-x,1/2-y,1/2-z
3/4+x,1/4+y,1/2-z
-x,1/4+y,1/4+z
3/4+x,1/2-y,1/4+z
1/2+x,y,1/2+z
3/4-x,1/4-y,1/2+z
1/2+x,1/4-y,3/4-z
3/4-x,y,3/4-z
1/2-x,-y,1/2-z
1/4+x,3/4+y,1/2-z
1/2-x,3/4+y,1/4+z
1/4+x,-y,1/4+z
1/2+x,1/2+y,z
3/4-x,3/4-y,z
1/2+x,3/4-y,1/4-z
3/4-x,1/2+y,1/4-z
1/2-x,1/2-y,-z
1/4+x,1/4+y,-z
1/2-x,1/4+y,3/4+z
1/4+x,1/2-y,3/4+z
loop_
_atom_site_type_symbol
_atom_site_label
_atom_site_fract_x
_atom_site_fract_y
_atom_site_fract_z
Si Si1 0.134657 0.273345 0.927700
Si Si2 0.078177 0.164148 0.377495
Si Si3 0.625000 0.355209 0.625000
Si Si4 0.521242 0.468136 0.362389
Si Si5 0.668603 0.992861 0.038742
Si Si6 0.269842 0.136328 0.452245
O O1 0.168147 0.217031 0.956920
O O2 0.158106 0.298383 0.814688
O O3 0.076857 0.252632 0.895785
O O4 0.137796 0.317121 0.022802
O O5 0.125000 0.125000 0.349681
O O6 0.083854 0.191671 0.497144
O O7 0.025644 0.128155 0.368425
O O8 0.675330 0.394671 0.640423
O O9 0.476931 0.514539 0.335096
O O10 0.508003 0.442964 0.480378
O O11 0.525949 0.417080 0.279015
O O12 0.625000 0.982467 0.125000
#
# Coordination Sequence:
#
# PCOD8286122 Si02
#       6
#    32  32  16  32  32  32
#     4   9  21  35  55  85 119 156 201 247 297 374
#     4   9  18  34  52  86 112 155 196 240 306 355
#     4  10  20  40  57  84 116 168 207 242 304 368
#     4   9  17  35  54  85 116 150 196 252 311 354
#     4   9  18  32  54  85 114 153 185 254 304 359
#     4   9  18  33  60  81 112 155 197 254 302 361
#
# _framework density 22.902076000000001
#
# number of rings (size 3 to 8) (size 9 to 14) (size 15 to 20)
#    1.091    1.818    0.000    1.091    0.000    3.273 
#    1.636    0.455    0.000    0.000    0.000    0.000 
#    0.000    0.000    0.000    0.000    0.000    0.000 
#
# Total GULP energy -545117.557793 kJ/mol
# GULP energy per Si atom -12389.035404 kJ/mol
# Density = 2.284995 g / cm^3
# Si number density = 22.902076 Si / 1000 Ang^3
#
#
#
# Elastic Constant Matrix: (Units=GPa)
#
#
# Indices 1 2 3 4 5 6 
#
# 1 177.2605 48.4337 50.4513 0.0000 0.0000 0.0000
# 2 48.4337 51.8429 15.9244 0.0000 0.0000 0.0000
# 3 50.4513 15.9244 92.9874 0.0000 0.0000 0.0000
# 4 0.0000 0.0000 0.0000 13.0579 0.0000 0.0000
# 5 0.0000 0.0000 0.0000 0.0000 33.1873 0.0000
# 6 0.0000 0.0000 0.0000 0.0000 0.0000 39.8977
#
#
#
# Elastic Compliance Matrix: (Units=1/GPa)
#
#
# Indices 1 2 3 4 5 6 
#
# 1 0.008500 -0.006887 -0.003432 0.000000 0.000000 0.000000
# 2 -0.006887 0.025940 -0.000706 0.000000 0.000000 0.000000
# 3 -0.003432 -0.000706 0.012737 0.000000 0.000000 0.000000
# 4 0.000000 0.000000 0.000000 0.076582 0.000000 0.000000
# 5 0.000000 0.000000 0.000000 0.000000 0.030132 0.000000
# 6 0.000000 0.000000 0.000000 0.000000 0.000000 0.025064
#
#
# Mechanical properties :
#
#
# Convention : Reuss Voigt Hill
#
# Bulk Modulus (GPa) = 39.79757 61.30106 50.54931
# Shear Modulus (GPa) = 23.87995 31.04732 27.46364
#
# Velocity S-wave (km/s) = 3.23259 3.68592 3.46667
# Velocity P-wave (km/s) = 5.59891 6.70368 6.17605
#
# Compressibility (1/GPa) = 0.02512716
#
# Stress axis : x y z
#
# Youngs Moduli (GPa) = 117.64665 38.55092 78.50954
#
# Poissons Ratio (x) = 0.26549 0.26948
# Poissons Ratio (y) = 0.81020 0.05541
# Poissons Ratio (z) = 0.40381 0.02721
#
# Static dielectric constant tensor:
#      x y z
#    x 4.499110 0.000000 0.000000 
#    y 0.000000 3.975140 0.000000 
#    z 0.000000 0.000000 3.912970 
# 
# 
# High freq. dielectric constant tensor:
#      x y z
#    x 1.915380 0.000000 0.000000 
#    y 0.000000 1.907560 0.000000 
#    z 0.000000 0.000000 1.874600 
# 
# From -- ./inp_files/30125.got.cif
#   From: 2010.03.12/outbox.cif.g09.slc.cpg/sg70_16_cif.got.tgz:30125.got - 2010.04.16 13:46:32.
