data_PCOD8286498
_publ_section_title
;
Structure prediction by ZEFSAII (Michael W. Deem and Ramdas Pophale) SiO2 
 PCOD8286498
Probable space group: F D D D
;
_chemical_formula_sum "Si O2"
_cell_formula_units_Z 176
_cell_length_a 11.785950
_cell_length_b 28.336834
_cell_length_c 26.065112
_cell_angle_alpha 90.000000
_cell_angle_beta 90.000000
_cell_angle_gamma 90.000000
_cell_volume 8705.135104
_symmetry_space_group_name_H-M "F D D D"
_symmetry_group_IT_number 70
_space_group.IT_coordinate_system_code '2'
_symmetry_cell_setting 'orthorhombic'
loop_
_space_group_symop_operation_xyz
x,y,z
1/4-x,1/4-y,z
x,1/4-y,1/4-z
1/4-x,y,1/4-z
-x,-y,-z
3/4+x,3/4+y,-z
-x,3/4+y,3/4+z
3/4+x,-y,3/4+z
x,1/2+y,1/2+z
1/4-x,3/4-y,1/2+z
x,3/4-y,3/4-z
1/4-x,1/2+y,3/4-z
-x,1/2-y,1/2-z
3/4+x,1/4+y,1/2-z
-x,1/4+y,1/4+z
3/4+x,1/2-y,1/4+z
1/2+x,y,1/2+z
3/4-x,1/4-y,1/2+z
1/2+x,1/4-y,3/4-z
3/4-x,y,3/4-z
1/2-x,-y,1/2-z
1/4+x,3/4+y,1/2-z
1/2-x,3/4+y,1/4+z
1/4+x,-y,1/4+z
1/2+x,1/2+y,z
3/4-x,3/4-y,z
1/2+x,3/4-y,1/4-z
3/4-x,1/2+y,1/4-z
1/2-x,1/2-y,-z
1/4+x,1/4+y,-z
1/2-x,1/4+y,3/4+z
1/4+x,1/2-y,3/4+z
loop_
_atom_site_type_symbol
_atom_site_label
_atom_site_fract_x
_atom_site_fract_y
_atom_site_fract_z
Si Si1 0.625000 0.784727 0.625000
Si Si2 0.066127 0.688172 0.769708
Si Si3 0.227889 0.024507 0.163651
Si Si4 0.055991 0.905878 0.716797
Si Si5 0.251651 0.878158 0.793493
Si Si6 0.960250 0.049990 0.631381
O O1 0.620172 0.820706 0.672211
O O2 0.735020 0.751604 0.627399
O O3 0.043245 0.686979 0.708257
O O4 0.203226 0.691753 0.770863
O O5 0.012047 0.729183 0.803303
O O6 0.009149 0.642576 0.796030
O O7 0.125000 0.014402 0.125000
O O8 0.325916 0.042409 0.125313
O O9 0.148496 0.896793 0.760172
O O10 0.375000 0.875000 0.765125
O O11 0.227345 0.825234 0.813556
O O12 0.264343 0.916166 0.838959
#
# Coordination Sequence:
#
# PCOD8286498 Si02
#       6
#    16  32  32  32  32  32
#     4  12  24  43  66  88 132 182 216 261 344 406
#     4  10  23  43  64  92 140 167 217 283 328 400
#     4  11  22  41  69  97 125 175 223 275 335 402
#     4  11  24  43  63  94 133 176 213 273 340 401
#     4  11  22  42  68  96 132 165 219 281 326 394
#     4  11  21  43  67  96 129 168 218 275 333 394
#
# _framework density 20.217952
#
# number of rings (size 3 to 8) (size 9 to 14) (size 15 to 20)
#    0.000    1.091    5.455    1.636    1.273    0.727 
#    6.545    0.000    0.000    0.000    0.000    0.000 
#    0.000    0.000    0.000    0.000    0.000    0.000 
#
# Total GULP energy -545118.341795 kJ/mol
# GULP energy per Si atom -12389.053223 kJ/mol
# Density = 2.017193 g / cm^3
# Si number density = 20.217952 Si / 1000 Ang^3
#
#
#
# Elastic Constant Matrix: (Units=GPa)
#
#
# Indices 1 2 3 4 5 6 
#
# 1 157.6950 36.8335 52.9904 0.0000 0.0000 0.0000
# 2 36.8335 86.5760 48.7463 0.0000 0.0000 0.0000
# 3 52.9904 48.7463 89.6779 0.0000 0.0000 0.0000
# 4 0.0000 0.0000 0.0000 27.6256 0.0000 0.0000
# 5 0.0000 0.0000 0.0000 0.0000 35.3897 0.0000
# 6 0.0000 0.0000 0.0000 0.0000 0.0000 31.8618
#
#
#
# Elastic Compliance Matrix: (Units=1/GPa)
#
#
# Indices 1 2 3 4 5 6 
#
# 1 0.007980 -0.001067 -0.004136 0.000000 0.000000 0.000000
# 2 -0.001067 0.016787 -0.008495 0.000000 0.000000 0.000000
# 3 -0.004136 -0.008495 0.018212 0.000000 0.000000 0.000000
# 4 0.000000 0.000000 0.000000 0.036198 0.000000 0.000000
# 5 0.000000 0.000000 0.000000 0.000000 0.028257 0.000000
# 6 0.000000 0.000000 0.000000 0.000000 0.000000 0.031386
#
#
# Mechanical properties :
#
#
# Convention : Reuss Voigt Hill
#
# Bulk Modulus (GPa) = 64.16183 67.89879 66.03031
# Shear Modulus (GPa) = 29.16982 32.00067 30.58525
#
# Velocity S-wave (km/s) = 3.80250 3.98274 3.89366
# Velocity P-wave (km/s) = 7.14721 7.40310 7.27628
#
# Compressibility (1/GPa) = 0.01558559
#
# Stress axis : x y z
#
# Youngs Moduli (GPa) = 125.31005 59.56881 54.90772
#
# Poissons Ratio (x) = 0.06353 0.22708
# Poissons Ratio (y) = 0.13365 0.46643
# Poissons Ratio (z) = 0.51825 0.50603
#
# Static dielectric constant tensor:
#      x y z
#    x 3.923610 0.000000 0.000000 
#    y 0.000000 3.721980 0.000000 
#    z 0.000000 0.000000 3.466710 
# 
# 
# High freq. dielectric constant tensor:
#      x y z
#    x 1.812480 0.000000 0.000000 
#    y 0.000000 1.795030 0.000000 
#    z 0.000000 0.000000 1.763390 
# 
# From -- ./inp_files/54952.got.cif
#   From: 2010.03.12/outbox.cif.g09.slc.cpg/sg70_28_cif.got.tgz:54952.got - 2010.04.16 13:46:32.
