data_PCOD8286564
_publ_section_title
;
Structure prediction by ZEFSAII (Michael W. Deem and Ramdas Pophale) SiO2 
 PCOD8286564
Probable space group: F D D D
;
_chemical_formula_sum "Si O2"
_cell_formula_units_Z 128
_cell_length_a 20.288280
_cell_length_b 11.661600
_cell_length_c 21.789515
_cell_angle_alpha 90.000000
_cell_angle_beta 90.000000
_cell_angle_gamma 90.000000
_cell_volume 5155.264286
_symmetry_space_group_name_H-M "F D D D"
_symmetry_group_IT_number 70
_space_group.IT_coordinate_system_code '2'
_symmetry_cell_setting 'orthorhombic'
loop_
_space_group_symop_operation_xyz
x,y,z
1/4-x,1/4-y,z
x,1/4-y,1/4-z
1/4-x,y,1/4-z
-x,-y,-z
3/4+x,3/4+y,-z
-x,3/4+y,3/4+z
3/4+x,-y,3/4+z
x,1/2+y,1/2+z
1/4-x,3/4-y,1/2+z
x,3/4-y,3/4-z
1/4-x,1/2+y,3/4-z
-x,1/2-y,1/2-z
3/4+x,1/4+y,1/2-z
-x,1/4+y,1/4+z
3/4+x,1/2-y,1/4+z
1/2+x,y,1/2+z
3/4-x,1/4-y,1/2+z
1/2+x,1/4-y,3/4-z
3/4-x,y,3/4-z
1/2-x,-y,1/2-z
1/4+x,3/4+y,1/2-z
1/2-x,3/4+y,1/4+z
1/4+x,-y,1/4+z
1/2+x,1/2+y,z
3/4-x,3/4-y,z
1/2+x,3/4-y,1/4-z
3/4-x,1/2+y,1/4-z
1/2-x,1/2-y,-z
1/4+x,1/4+y,-z
1/2-x,1/4+y,3/4+z
1/4+x,1/2-y,3/4+z
loop_
_atom_site_type_symbol
_atom_site_label
_atom_site_fract_x
_atom_site_fract_y
_atom_site_fract_z
Si Si1 0.625000 0.125000 0.734038
Si Si2 0.927941 0.151758 0.420148
Si Si3 0.910808 0.125000 0.625000
Si Si4 0.762492 0.830423 0.683103
Si Si5 0.135273 0.490913 0.989496
O O1 0.651411 0.224347 0.690031
O O2 0.564140 0.159819 0.778769
O O3 0.875000 0.094130 0.375000
O O4 0.929326 0.067444 0.478482
O O5 0.995123 0.150932 0.379876
O O6 0.955912 0.209419 0.584773
O O7 0.863899 0.199556 0.669259
O O8 0.702141 0.802183 0.728488
O O9 0.125000 0.625000 0.993696
#
# Coordination Sequence:
#
# PCOD8286564 Si02
#       5
#    16  32  16  32  32
#     4  12  25  48  74 118 154 207 260 306 408 452
#     4  10  24  48  72 110 150 201 253 319 384 459
#     4  12  26  48  77 117 148 202 270 312 400 458
#     4  11  27  47  78 112 157 202 261 321 387 473
#     4  11  26  48  78 114 151 200 261 326 395 454
#
# _framework density 24.828987999999999
#
# number of rings (size 3 to 8) (size 9 to 14) (size 15 to 20)
#    0.000    1.000    2.500    1.875    5.250    9.500 
#    4.500    0.000    0.000    0.000    0.000    0.000 
#    0.000    0.000    0.000    0.000    0.000    0.000 
#
# Total GULP energy -396521.809675 kJ/mol
# GULP energy per Si atom -12391.306552 kJ/mol
# Density = 2.477248 g / cm^3
# Si number density = 24.828988 Si / 1000 Ang^3
#
#
#
# Elastic Constant Matrix: (Units=GPa)
#
#
# Indices 1 2 3 4 5 6 
#
# 1 125.4258 42.1728 70.9200 0.0000 0.0000 0.0000
# 2 42.1728 150.7841 67.7558 0.0000 0.0000 0.0000
# 3 70.9200 67.7558 151.5359 0.0000 0.0000 0.0000
# 4 0.0000 0.0000 0.0000 36.1572 0.0000 0.0000
# 5 0.0000 0.0000 0.0000 0.0000 44.2520 0.0000
# 6 0.0000 0.0000 0.0000 0.0000 0.0000 19.0410
#
#
#
# Elastic Compliance Matrix: (Units=1/GPa)
#
#
# Indices 1 2 3 4 5 6 
#
# 1 0.010950 -0.000951 -0.004699 0.000000 0.000000 0.000000
# 2 -0.000951 0.008382 -0.003303 0.000000 0.000000 0.000000
# 3 -0.004699 -0.003303 0.010275 0.000000 0.000000 0.000000
# 4 0.000000 0.000000 0.000000 0.027657 0.000000 0.000000
# 5 0.000000 0.000000 0.000000 0.000000 0.022598 0.000000
# 6 0.000000 0.000000 0.000000 0.000000 0.000000 0.052518
#
#
# Mechanical properties :
#
#
# Convention : Reuss Voigt Hill
#
# Bulk Modulus (GPa) = 85.46365 87.71587 86.58976
# Shear Modulus (GPa) = 32.42821 36.34987 34.38904
#
# Velocity S-wave (km/s) = 3.61787 3.83039 3.72564
# Velocity P-wave (km/s) = 7.20747 7.41399 7.31146
#
# Compressibility (1/GPa) = 0.01170088
#
# Stress axis : x y z
#
# Youngs Moduli (GPa) = 91.32619 119.30180 97.32096
#
# Poissons Ratio (x) = 0.11343 0.45735
# Poissons Ratio (y) = 0.08683 0.32144
# Poissons Ratio (z) = 0.42918 0.39404
#
# Static dielectric constant tensor:
#      x y z
#    x 4.692880 0.000000 0.000000 
#    y 0.000000 4.242250 0.000000 
#    z 0.000000 0.000000 5.404900 
# 
# 
# High freq. dielectric constant tensor:
#      x y z
#    x 1.982340 0.000000 0.000000 
#    y 0.000000 1.977590 0.000000 
#    z 0.000000 0.000000 2.023960 
# 
# From -- ./inp_files/53446.got.cif
#   From: 2010.03.12/outbox.cif.g09.slc.cpg/sg70_27_cif.got.tgz:53446.got - 2010.04.16 13:46:32.
