data_PCOD8286728
_publ_section_title
;
Structure prediction by ZEFSAII (Michael W. Deem and Ramdas Pophale) SiO2 
 PCOD8286728
Probable space group: F D D D
;
_chemical_formula_sum "Si O2"
_cell_formula_units_Z 176
_cell_length_a 25.190222
_cell_length_b 11.560011
_cell_length_c 26.154916
_cell_angle_alpha 90.000000
_cell_angle_beta 90.000000
_cell_angle_gamma 90.000000
_cell_volume 7616.291751
_symmetry_space_group_name_H-M "F D D D"
_symmetry_group_IT_number 70
_space_group.IT_coordinate_system_code '2'
_symmetry_cell_setting 'orthorhombic'
loop_
_space_group_symop_operation_xyz
x,y,z
1/4-x,1/4-y,z
x,1/4-y,1/4-z
1/4-x,y,1/4-z
-x,-y,-z
3/4+x,3/4+y,-z
-x,3/4+y,3/4+z
3/4+x,-y,3/4+z
x,1/2+y,1/2+z
1/4-x,3/4-y,1/2+z
x,3/4-y,3/4-z
1/4-x,1/2+y,3/4-z
-x,1/2-y,1/2-z
3/4+x,1/4+y,1/2-z
-x,1/4+y,1/4+z
3/4+x,1/2-y,1/4+z
1/2+x,y,1/2+z
3/4-x,1/4-y,1/2+z
1/2+x,1/4-y,3/4-z
3/4-x,y,3/4-z
1/2-x,-y,1/2-z
1/4+x,3/4+y,1/2-z
1/2-x,3/4+y,1/4+z
1/4+x,-y,1/4+z
1/2+x,1/2+y,z
3/4-x,3/4-y,z
1/2+x,3/4-y,1/4-z
3/4-x,1/2+y,1/4-z
1/2-x,1/2-y,-z
1/4+x,1/4+y,-z
1/2-x,1/4+y,3/4+z
1/4+x,1/2-y,3/4+z
loop_
_atom_site_type_symbol
_atom_site_label
_atom_site_fract_x
_atom_site_fract_y
_atom_site_fract_z
Si Si1 0.840342 0.265740 0.800783
Si Si2 0.253104 0.721680 0.276812
Si Si3 0.030046 0.782458 0.800310
Si Si4 0.738295 0.841464 0.626589
Si Si5 0.607837 0.836920 0.976862
Si Si6 0.440374 0.125000 0.125000
O O1 0.875000 0.375000 0.818814
O O2 0.791217 0.309494 0.765537
O O3 0.819131 0.196370 0.850904
O O4 0.877478 0.179800 0.769566
O O5 0.233822 0.832509 0.309611
O O6 0.262721 0.615287 0.315938
O O7 0.309240 0.742166 0.247637
O O8 0.092057 0.758232 0.789057
O O9 0.000000 0.750000 0.750000
O O10 0.009937 0.707125 0.847100
O O11 0.775932 0.735921 0.639732
O O12 0.593714 0.906205 0.924967
#
# Coordination Sequence:
#
# PCOD8286728 Si02
#       6
#    32  32  32  32  32  16
#     4  11  25  48  70 104 149 195 240 308 360 439
#     4  11  25  47  74 107 146 187 244 307 365 441
#     4  11  23  50  74 105 145 189 240 304 366 429
#     4  12  26  47  73 105 147 193 244 301 365 438
#     4  11  25  46  73 105 142 188 242 297 368 430
#     4  12  26  44  71 108 142 199 242 296 368 436
#
# _framework density 23.108357000000002
#
# number of rings (size 3 to 8) (size 9 to 14) (size 15 to 20)
#    0.000    0.727    5.455    1.636    7.636    5.091 
#    0.000    0.000    4.000    0.000    0.000    0.000 
#    0.000    0.000    0.000    0.000    0.000    0.000 
#
# Total GULP energy -545544.335220 kJ/mol
# GULP energy per Si atom -12398.734891 kJ/mol
# Density = 2.305576 g / cm^3
# Si number density = 23.108357 Si / 1000 Ang^3
#
#
#
# Elastic Constant Matrix: (Units=GPa)
#
#
# Indices 1 2 3 4 5 6 
#
# 1 153.4307 43.2124 27.6493 0.0000 0.0000 0.0000
# 2 43.2124 82.4981 18.9682 0.0000 0.0000 0.0000
# 3 27.6493 18.9682 82.5334 0.0000 0.0000 0.0000
# 4 0.0000 0.0000 0.0000 40.4750 0.0000 0.0000
# 5 0.0000 0.0000 0.0000 0.0000 17.7631 0.0000
# 6 0.0000 0.0000 0.0000 0.0000 0.0000 39.0953
#
#
#
# Elastic Compliance Matrix: (Units=1/GPa)
#
#
# Indices 1 2 3 4 5 6 
#
# 1 0.007888 -0.003721 -0.001787 0.000000 0.000000 0.000000
# 2 -0.003721 0.014553 -0.002098 0.000000 0.000000 0.000000
# 3 -0.001787 -0.002098 0.013197 0.000000 0.000000 0.000000
# 4 0.000000 0.000000 0.000000 0.024707 0.000000 0.000000
# 5 0.000000 0.000000 0.000000 0.000000 0.056296 0.000000
# 6 0.000000 0.000000 0.000000 0.000000 0.000000 0.025579
#
#
# Mechanical properties :
#
#
# Convention : Reuss Voigt Hill
#
# Bulk Modulus (GPa) = 48.95840 55.34690 52.15265
# Shear Modulus (GPa) = 30.44332 34.70883 32.57608
#
# Velocity S-wave (km/s) = 3.63356 3.87977 3.75868
# Velocity P-wave (km/s) = 6.23186 6.63877 6.43853
#
# Compressibility (1/GPa) = 0.02042550
#
# Stress axis : x y z
#
# Youngs Moduli (GPa) = 126.78215 68.71569 75.77323
#
# Poissons Ratio (x) = 0.25566 0.13543
# Poissons Ratio (y) = 0.47170 0.15898
# Poissons Ratio (z) = 0.22660 0.14418
#
# Static dielectric constant tensor:
#      x y z
#    x 5.361580 0.000000 0.000000 
#    y 0.000000 15.469500 0.000000 
#    z 0.000000 0.000000 4.342260 
# 
# 
# High freq. dielectric constant tensor:
#      x y z
#    x 1.924150 0.000000 0.000000 
#    y 0.000000 1.899910 0.000000 
#    z 0.000000 0.000000 1.929200 
# 
# From -- ./inp_files/61654.got.cif
#   From: 2010.03.12/outbox.cif.g09.slc.cpg/sg70_31_cif.got.tgz:61654.got - 2010.04.16 13:46:32.
