data_PCOD8286491
_publ_section_title
;
Structure prediction by ZEFSAII (Michael W. Deem and Ramdas Pophale) SiO2 
 PCOD8286491
Probable space group: F D D D
;
_chemical_formula_sum "Si O2"
_cell_formula_units_Z 112
_cell_length_a 12.239122
_cell_length_b 14.779806
_cell_length_c 25.443637
_cell_angle_alpha 90.000000
_cell_angle_beta 90.000000
_cell_angle_gamma 90.000000
_cell_volume 4602.546536
_symmetry_space_group_name_H-M "F D D D"
_symmetry_group_IT_number 70
_space_group.IT_coordinate_system_code '2'
_symmetry_cell_setting 'orthorhombic'
loop_
_space_group_symop_operation_xyz
x,y,z
1/4-x,1/4-y,z
x,1/4-y,1/4-z
1/4-x,y,1/4-z
-x,-y,-z
3/4+x,3/4+y,-z
-x,3/4+y,3/4+z
3/4+x,-y,3/4+z
x,1/2+y,1/2+z
1/4-x,3/4-y,1/2+z
x,3/4-y,3/4-z
1/4-x,1/2+y,3/4-z
-x,1/2-y,1/2-z
3/4+x,1/4+y,1/2-z
-x,1/4+y,1/4+z
3/4+x,1/2-y,1/4+z
1/2+x,y,1/2+z
3/4-x,1/4-y,1/2+z
1/2+x,1/4-y,3/4-z
3/4-x,y,3/4-z
1/2-x,-y,1/2-z
1/4+x,3/4+y,1/2-z
1/2-x,3/4+y,1/4+z
1/4+x,-y,1/4+z
1/2+x,1/2+y,z
3/4-x,3/4-y,z
1/2+x,3/4-y,1/4-z
3/4-x,1/2+y,1/4-z
1/2-x,1/2-y,-z
1/4+x,1/4+y,-z
1/2-x,1/4+y,3/4+z
1/4+x,1/2-y,3/4+z
loop_
_atom_site_type_symbol
_atom_site_label
_atom_site_fract_x
_atom_site_fract_y
_atom_site_fract_z
Si Si1 0.516872 0.233848 0.661370
Si Si2 0.670473 0.875000 0.375000
Si Si3 0.759171 0.905973 0.483227
Si Si4 0.780342 0.136467 0.761695
O O1 0.625000 0.226578 0.625000
O O2 0.410983 0.212267 0.625522
O O3 0.517623 0.160695 0.709302
O O4 0.496375 0.332793 0.685738
O O5 0.751688 0.870918 0.423825
O O6 0.875000 0.875000 0.507236
O O7 0.662025 0.858221 0.514830
O O8 0.734033 0.012672 0.486399
#
# Coordination Sequence:
#
# PCOD8286491 Si02
#       4
#    32  16  32  32
#     4  10  23  42  71 102 142 178 238 296 358 427
#     4  10  24  38  68  96 136 180 220 296 356 428
#     4  11  24  46  67  98 142 188 230 296 362 433
#     4  10  25  43  72 105 137 187 237 296 358 435
#
# _framework density 24.334354999999999
#
# number of rings (size 3 to 8) (size 9 to 14) (size 15 to 20)
#    0.000    1.714    0.000    1.714   12.000   11.429 
#    0.000    0.000    0.000    0.000    0.000    0.000 
#    0.000    0.000    0.000    0.000    0.000    0.000 
#
# Total GULP energy -347052.273988 kJ/mol
# GULP energy per Si atom -12394.724071 kJ/mol
# Density = 2.427897 g / cm^3
# Si number density = 24.334355 Si / 1000 Ang^3
#
#
#
# Elastic Constant Matrix: (Units=GPa)
#
#
# Indices 1 2 3 4 5 6 
#
# 1 113.1370 -10.8070 5.3966 0.0000 0.0000 0.0000
# 2 -10.8070 65.1043 32.5841 0.0000 0.0000 0.0000
# 3 5.3966 32.5841 74.5884 0.0000 0.0000 0.0000
# 4 0.0000 0.0000 0.0000 32.6662 0.0000 0.0000
# 5 0.0000 0.0000 0.0000 0.0000 26.8178 0.0000
# 6 0.0000 0.0000 0.0000 0.0000 0.0000 26.2834
#
#
#
# Elastic Compliance Matrix: (Units=1/GPa)
#
#
# Indices 1 2 3 4 5 6 
#
# 1 0.009146 0.002367 -0.001696 0.000000 0.000000 0.000000
# 2 0.002367 0.020271 -0.009026 0.000000 0.000000 0.000000
# 3 -0.001696 -0.009026 0.017473 0.000000 0.000000 0.000000
# 4 0.000000 0.000000 0.000000 0.030613 0.000000 0.000000
# 5 0.000000 0.000000 0.000000 0.000000 0.037289 0.000000
# 6 0.000000 0.000000 0.000000 0.000000 0.000000 0.038047
#
#
# Mechanical properties :
#
#
# Convention : Reuss Voigt Hill
#
# Bulk Modulus (GPa) = 33.13613 34.13079 33.63346
# Shear Modulus (GPa) = 27.83851 32.19723 30.01787
#
# Velocity S-wave (km/s) = 3.38598 3.64142 3.51602
# Velocity P-wave (km/s) = 5.37894 5.63348 5.50768
#
# Compressibility (1/GPa) = 0.03017854
#
# Stress axis : x y z
#
# Youngs Moduli (GPa) = 109.33977 49.33276 57.23175
#
# Poissons Ratio (x) = -0.11676 0.09705
# Poissons Ratio (y) = -0.25879 0.51660
# Poissons Ratio (z) = 0.18540 0.44530
#
# Static dielectric constant tensor:
#      x y z
#    x 4.300370 0.000000 0.000000 
#    y 0.000000 4.269970 0.000000 
#    z 0.000000 0.000000 4.441020 
# 
# 
# High freq. dielectric constant tensor:
#      x y z
#    x 1.987960 0.000000 0.000000 
#    y 0.000000 1.950770 0.000000 
#    z 0.000000 0.000000 1.954200 
# 
# From -- ./inp_files/64384.got.cif
#   From: 2010.03.12/outbox.cif.g09.slc.cpg/sg70_33_cif.got.tgz:64384.got - 2010.04.16 13:46:32.
