data_PCOD8286360
_publ_section_title
;
Structure prediction by ZEFSAII (Michael W. Deem and Ramdas Pophale) SiO2 
 PCOD8286360
Probable space group: F D D D
;
_chemical_formula_sum "Si O2"
_cell_formula_units_Z 160
_cell_length_a 31.096916
_cell_length_b 24.234298
_cell_length_c 10.331507
_cell_angle_alpha 90.000000
_cell_angle_beta 90.000000
_cell_angle_gamma 90.000000
_cell_volume 7785.946922
_symmetry_space_group_name_H-M "F D D D"
_symmetry_group_IT_number 70
_space_group.IT_coordinate_system_code '2'
_symmetry_cell_setting 'orthorhombic'
loop_
_space_group_symop_operation_xyz
x,y,z
1/4-x,1/4-y,z
x,1/4-y,1/4-z
1/4-x,y,1/4-z
-x,-y,-z
3/4+x,3/4+y,-z
-x,3/4+y,3/4+z
3/4+x,-y,3/4+z
x,1/2+y,1/2+z
1/4-x,3/4-y,1/2+z
x,3/4-y,3/4-z
1/4-x,1/2+y,3/4-z
-x,1/2-y,1/2-z
3/4+x,1/4+y,1/2-z
-x,1/4+y,1/4+z
3/4+x,1/2-y,1/4+z
1/2+x,y,1/2+z
3/4-x,1/4-y,1/2+z
1/2+x,1/4-y,3/4-z
3/4-x,y,3/4-z
1/2-x,-y,1/2-z
1/4+x,3/4+y,1/2-z
1/2-x,3/4+y,1/4+z
1/4+x,-y,1/4+z
1/2+x,1/2+y,z
3/4-x,3/4-y,z
1/2+x,3/4-y,1/4-z
3/4-x,1/2+y,1/4-z
1/2-x,1/2-y,-z
1/4+x,1/4+y,-z
1/2-x,1/4+y,3/4+z
1/4+x,1/2-y,3/4+z
loop_
_atom_site_type_symbol
_atom_site_label
_atom_site_fract_x
_atom_site_fract_y
_atom_site_fract_z
Si Si1 0.307485 0.969902 0.167092
Si Si2 0.857445 0.771710 0.515852
Si Si3 0.792685 0.065707 0.154001
Si Si4 0.227580 0.022102 0.062583
Si Si5 0.534965 0.650658 0.838296
O O1 0.307496 0.968139 0.323540
O O2 0.289526 0.914725 0.098024
O O3 0.274818 0.017654 0.123884
O O4 0.354959 0.986052 0.120882
O O5 0.875000 0.781743 0.375000
O O6 0.826346 0.718481 0.510119
O O7 0.831726 0.826313 0.554025
O O8 0.814087 0.125000 0.125000
O O9 0.748337 0.077890 0.229929
O O10 0.784404 0.031555 0.022711
O O11 0.229518 0.076888 0.977086
#
# Coordination Sequence:
#
# PCOD8286360 Si02
#       5
#    32  32  32  32  32
#     4  11  22  40  63  96 126 164 214 267 325 381
#     4  11  24  40  62  97 128 159 217 281 317 383
#     4  11  22  42  63  89 126 179 215 255 330 402
#     4  10  22  40  63  90 129 167 211 261 319 398
#     4  11  22  39  68  89 124 169 214 264 326 390
#
# _framework density 20.549842999999999
#
# number of rings (size 3 to 8) (size 9 to 14) (size 15 to 20)
#    0.000    1.200    2.000    6.000    0.000    4.000 
#    3.600    6.000    0.000    0.000    0.000    0.000 
#    0.000    0.000    0.000    0.000    0.000    0.000 
#
# Total GULP energy -496029.837296 kJ/mol
# GULP energy per Si atom -12400.745932 kJ/mol
# Density = 2.050307 g / cm^3
# Si number density = 20.549843 Si / 1000 Ang^3
#
#
#
# Elastic Constant Matrix: (Units=GPa)
#
#
# Indices 1 2 3 4 5 6 
#
# 1 109.2070 23.5260 44.4543 -0.0006 0.0003 -0.0001
# 2 23.5260 48.7713 9.1563 -0.0032 0.0010 0.0003
# 3 44.4543 9.1563 116.9687 -0.0055 0.0013 0.0009
# 4 -0.0006 -0.0032 -0.0055 13.0702 0.0002 0.0002
# 5 0.0003 0.0010 0.0013 0.0002 41.6205 -0.0003
# 6 -0.0001 0.0003 0.0009 0.0002 -0.0003 38.5951
#
#
#
# Elastic Compliance Matrix: (Units=1/GPa)
#
#
# Indices 1 2 3 4 5 6 
#
# 1 0.011912 -0.004969 -0.004138 -0.000002 0.000000 0.000000
# 2 -0.004969 0.022883 0.000097 0.000005 -0.000001 0.000000
# 3 -0.004138 0.000097 0.010114 0.000004 0.000000 0.000000
# 4 -0.000002 0.000005 0.000004 0.076510 0.000000 0.000000
# 5 0.000000 -0.000001 0.000000 0.000000 0.024027 0.000000
# 6 0.000000 0.000000 0.000000 0.000000 0.000000 0.025910
#
#
# Mechanical properties :
#
#
# Convention : Reuss Voigt Hill
#
# Bulk Modulus (GPa) = 37.19013 47.69116 42.44065
# Shear Modulus (GPa) = 25.20945 31.84452 28.52699
#
# Velocity S-wave (km/s) = 3.50629 3.94080 3.72988
# Velocity P-wave (km/s) = 5.87613 6.63057 6.26472
#
# Compressibility (1/GPa) = 0.02688886
#
# Stress axis : x y z
#
# Youngs Moduli (GPa) = 83.94974 43.70145 98.86891
#
# Poissons Ratio (x) = 0.21716 0.40914
# Poissons Ratio (y) = 0.41715 -0.00962
# Poissons Ratio (z) = 0.34740 -0.00425
#
# Static dielectric constant tensor:
#      x y z
#    x 3.772430 0.000000 0.000000 
#    y 0.000000 3.818220 0.000000 
#    z 0.000000 0.000000 3.891380 
# 
# 
# High freq. dielectric constant tensor:
#      x y z
#    x 1.799430 0.000000 0.000000 
#    y 0.000000 1.802700 0.000000 
#    z 0.000000 0.000000 1.818940 
# 
# From -- ./inp_files/20858.got.cif
#   From: 2010.03.12/outbox.cif.g09.slc.cpg/sg70_11_cif.got.tgz:20858.got - 2010.04.16 13:46:32.
