data_PCOD8286959
_publ_section_title
;
Structure prediction by ZEFSAII (Michael W. Deem and Ramdas Pophale) SiO2 
 PCOD8286959
Probable space group: I M M M
;
_chemical_formula_sum "Si O2"
_cell_formula_units_Z 72
_cell_length_a 7.870286
_cell_length_b 18.541597
_cell_length_c 34.729355
_cell_angle_alpha 90.000000
_cell_angle_beta 90.000000
_cell_angle_gamma 90.000000
_cell_volume 5067.973900
_symmetry_space_group_name_H-M "I M M M"
_symmetry_group_IT_number 71
_symmetry_cell_setting 'orthorhombic'
loop_
_space_group_symop_operation_xyz
x,y,z
-x,-y,z
x,-y,-z
-x,y,-z
-x,-y,-z
x,y,-z
-x,y,z
x,-y,z
1/2+x,1/2+y,1/2+z
1/2-x,1/2-y,1/2+z
1/2+x,1/2-y,1/2-z
1/2-x,1/2+y,1/2-z
1/2-x,1/2-y,1/2-z
1/2+x,1/2+y,1/2-z
1/2-x,1/2+y,1/2+z
1/2+x,1/2-y,1/2+z
loop_
_atom_site_type_symbol
_atom_site_label
_atom_site_fract_x
_atom_site_fract_y
_atom_site_fract_z
Si Si1 0.693910 0.847174 0.829722
Si Si2 0.297918 0.080030 0.248582
Si Si3 0.198662 0.284712 0.210121
Si Si4 0.000000 0.585556 0.457056
Si Si5 0.690029 0.416766 0.594847
O O1 0.500000 0.868845 0.837596
O O2 0.768838 0.887911 0.792050
O O3 0.708074 0.760025 0.823726
O O4 0.803005 0.870766 0.866203
O O5 0.500000 0.078478 0.245949
O O6 0.244588 0.131050 0.284983
O O7 0.222414 0.000000 0.255164
O O8 0.250000 0.250000 0.250000
O O9 0.000000 0.278657 0.202425
O O10 0.170489 0.612508 0.435414
O O11 0.000000 0.500000 0.459638
O O12 0.000000 0.618900 0.500000
O O13 0.500000 0.408041 0.577316
O O14 0.728457 0.500000 0.604961
#
# Coordination Sequence:
#
# PCOD8286959 Si02
#       5
#    16  16  16   8  16
#     4  10  17  26  40  55  76 103 131 169 209 240
#     4   8  14  23  36  52  70  98 134 169 206 244
#     4   9  16  25  36  51  71  96 129 167 206 247
#     4   9  18  32  46  60  82 108 131 161 203 247
#     4  10  19  29  43  63  82 102 134 170 202 238
#
# _framework density 14.206861
#
# number of rings (size 3 to 8) (size 9 to 14) (size 15 to 20)
#    0.000    2.778    1.111    3.333    0.000    1.333 
#    0.000    2.222    0.000   13.333    0.000    0.000 
#    0.000    0.000    0.000    0.000    0.000    2.222 
#
# Total GULP energy -446028.695564 kJ/mol
# GULP energy per Si atom -12389.685988 kJ/mol
# Density = 1.417453 g / cm^3
# Si number density = 14.206861 Si / 1000 Ang^3
#
#
#
# Elastic Constant Matrix: (Units=GPa)
#
#
# Indices 1 2 3 4 5 6 
#
# 1 63.3624 15.1783 27.4601 0.0000 0.0000 0.0000
# 2 15.1783 82.1017 35.9245 0.0000 0.0000 0.0000
# 3 27.4601 35.9245 71.0166 0.0000 0.0000 0.0000
# 4 0.0000 0.0000 0.0000 12.3979 0.0000 0.0000
# 5 0.0000 0.0000 0.0000 0.0000 14.7387 0.0000
# 6 0.0000 0.0000 0.0000 0.0000 0.0000 13.8269
#
#
#
# Elastic Compliance Matrix: (Units=1/GPa)
#
#
# Indices 1 2 3 4 5 6 
#
# 1 0.018969 -0.000382 -0.007141 0.000000 0.000000 0.000000
# 2 -0.000382 0.015650 -0.007769 0.000000 0.000000 0.000000
# 3 -0.007141 -0.007769 0.020773 0.000000 0.000000 0.000000
# 4 0.000000 0.000000 0.000000 0.080659 0.000000 0.000000
# 5 0.000000 0.000000 0.000000 0.000000 0.067848 0.000000
# 6 0.000000 0.000000 0.000000 0.000000 0.000000 0.072323
#
#
# Mechanical properties :
#
#
# Convention : Reuss Voigt Hill
#
# Bulk Modulus (GPa) = 40.31200 41.51185 40.91192
# Shear Modulus (GPa) = 15.86922 17.38722 16.62822
#
# Velocity S-wave (km/s) = 3.34580 3.50217 3.42487
# Velocity P-wave (km/s) = 6.58502 6.75549 6.67079
#
# Compressibility (1/GPa) = 0.02480651
#
# Stress axis : x y z
#
# Youngs Moduli (GPa) = 52.71841 63.89749 48.14019
#
# Poissons Ratio (x) = 0.02441 0.34379
# Poissons Ratio (y) = 0.02014 0.37400
# Poissons Ratio (z) = 0.37648 0.49642
#
# Static dielectric constant tensor:
#      x y z
#    x 2.834850 0.000000 0.000000 
#    y 0.000000 3.118940 0.000000 
#    z 0.000000 0.000000 2.592730 
# 
# 
# High freq. dielectric constant tensor:
#      x y z
#    x 1.549670 0.000000 0.000000 
#    y 0.000000 1.518830 0.000000 
#    z 0.000000 0.000000 1.496200 
# 
# From -- ./inp_files/63395.got.cif
#   From: 2010.06.25/outbox.cif.g09.slc.cpg/sg71_32_cif.got.tgz:63395.got - 2010.06.28 04:59:45.
