data_PCOD8286541
_publ_section_title
;
Structure prediction by ZEFSAII (Michael W. Deem and Ramdas Pophale) SiO2 
 PCOD8286541
Probable space group: F D D D
;
_chemical_formula_sum "Si O2"
_cell_formula_units_Z 128
_cell_length_a 18.657259
_cell_length_b 27.666870
_cell_length_c 12.396766
_cell_angle_alpha 90.000000
_cell_angle_beta 90.000000
_cell_angle_gamma 90.000000
_cell_volume 6399.061344
_symmetry_space_group_name_H-M "F D D D"
_symmetry_group_IT_number 70
_space_group.IT_coordinate_system_code '2'
_symmetry_cell_setting 'orthorhombic'
loop_
_space_group_symop_operation_xyz
x,y,z
1/4-x,1/4-y,z
x,1/4-y,1/4-z
1/4-x,y,1/4-z
-x,-y,-z
3/4+x,3/4+y,-z
-x,3/4+y,3/4+z
3/4+x,-y,3/4+z
x,1/2+y,1/2+z
1/4-x,3/4-y,1/2+z
x,3/4-y,3/4-z
1/4-x,1/2+y,3/4-z
-x,1/2-y,1/2-z
3/4+x,1/4+y,1/2-z
-x,1/4+y,1/4+z
3/4+x,1/2-y,1/4+z
1/2+x,y,1/2+z
3/4-x,1/4-y,1/2+z
1/2+x,1/4-y,3/4-z
3/4-x,y,3/4-z
1/2-x,-y,1/2-z
1/4+x,3/4+y,1/2-z
1/2-x,3/4+y,1/4+z
1/4+x,-y,1/4+z
1/2+x,1/2+y,z
3/4-x,3/4-y,z
1/2+x,3/4-y,1/4-z
3/4-x,1/2+y,1/4-z
1/2-x,1/2-y,-z
1/4+x,1/4+y,-z
1/2-x,1/4+y,3/4+z
1/4+x,1/2-y,3/4+z
loop_
_atom_site_type_symbol
_atom_site_label
_atom_site_fract_x
_atom_site_fract_y
_atom_site_fract_z
Si Si1 0.249687 0.125000 0.625000
Si Si2 0.375000 0.769707 0.375000
Si Si3 0.071137 0.532894 0.027975
Si Si4 0.057077 0.822262 0.566853
Si Si5 0.657650 0.073174 0.834716
O O1 0.200909 0.162383 0.558375
O O2 0.302174 0.157091 0.697262
O O3 0.434149 0.736002 0.434702
O O4 0.412579 0.801010 0.283949
O O5 0.125000 0.513080 0.125000
O O6 0.117966 0.537509 0.919181
O O7 0.000000 0.500000 0.000000
O O8 0.125000 0.847360 0.625000
O O9 0.987386 0.835204 0.632005
O O10 0.625000 0.125000 0.824321
#
# Coordination Sequence:
#
# PCOD8286541 Si02
#       5
#    16  16  32  32  32
#     4  12  21  50  68 100 139 176 236 302 347 418
#     4  10  25  44  64 102 140 178 222 281 346 424
#     4  12  25  43  75 106 140 185 242 298 356 425
#     4  10  24  43  67  98 133 178 228 288 352 407
#     4  12  22  45  70  97 140 185 227 279 359 424
#
# _framework density 20.002934
#
# number of rings (size 3 to 8) (size 9 to 14) (size 15 to 20)
#    0.750    0.000    5.000    3.000    0.000    1.000 
#    4.500    0.000    0.000    0.000    0.000    0.000 
#    0.000    0.000    0.000    0.000    0.000    0.000 
#
# Total GULP energy -396471.168689 kJ/mol
# GULP energy per Si atom -12389.724022 kJ/mol
# Density = 1.995741 g / cm^3
# Si number density = 20.002934 Si / 1000 Ang^3
#
#
#
# Elastic Constant Matrix: (Units=GPa)
#
#
# Indices 1 2 3 4 5 6 
#
# 1 135.8190 53.2204 54.5612 0.0000 0.0000 0.0000
# 2 53.2204 95.0076 48.7581 0.0000 0.0000 0.0000
# 3 54.5612 48.7581 150.8038 0.0000 0.0000 0.0000
# 4 0.0000 0.0000 0.0000 47.8079 0.0000 0.0000
# 5 0.0000 0.0000 0.0000 0.0000 35.5914 0.0000
# 6 0.0000 0.0000 0.0000 0.0000 0.0000 31.0036
#
#
#
# Elastic Compliance Matrix: (Units=1/GPa)
#
#
# Indices 1 2 3 4 5 6 
#
# 1 0.009990 -0.004485 -0.002164 0.000000 0.000000 0.000000
# 2 -0.004485 0.014633 -0.003108 0.000000 0.000000 0.000000
# 3 -0.002164 -0.003108 0.008419 0.000000 0.000000 0.000000
# 4 0.000000 0.000000 0.000000 0.020917 0.000000 0.000000
# 5 0.000000 0.000000 0.000000 0.000000 0.028097 0.000000
# 6 0.000000 0.000000 0.000000 0.000000 0.000000 0.032254
#
#
# Mechanical properties :
#
#
# Convention : Reuss Voigt Hill
#
# Bulk Modulus (GPa) = 73.92963 77.18998 75.55980
# Shear Modulus (GPa) = 36.14426 37.88663 37.01544
#
# Velocity S-wave (km/s) = 4.25543 4.35679 4.30641
# Velocity P-wave (km/s) = 7.82206 7.99887 7.91096
#
# Compressibility (1/GPa) = 0.01352638
#
# Stress axis : x y z
#
# Youngs Moduli (GPa) = 100.10363 68.33743 118.77700
#
# Poissons Ratio (x) = 0.30651 0.25704
# Poissons Ratio (y) = 0.44899 0.36921
# Poissons Ratio (z) = 0.21663 0.21242
#
# Static dielectric constant tensor:
#      x y z
#    x 3.592890 0.000000 0.000000 
#    y 0.000000 3.672530 0.000000 
#    z 0.000000 0.000000 3.858960 
# 
# 
# High freq. dielectric constant tensor:
#      x y z
#    x 1.784000 0.000000 0.000000 
#    y 0.000000 1.772630 0.000000 
#    z 0.000000 0.000000 1.792470 
# 
# From -- ./inp_files/26516.got.cif
#   From: 2010.03.12/outbox.cif.g09.slc.cpg/sg70_14_cif.got.tgz:26516.got - 2010.04.16 13:46:32.
