data_PCOD8286810
_publ_section_title
;
Structure prediction by ZEFSAII (Michael W. Deem and Ramdas Pophale) SiO2 
 PCOD8286810
Probable space group: F D D D
;
_chemical_formula_sum "Si O2"
_cell_formula_units_Z 176
_cell_length_a 16.520920
_cell_length_b 29.656032
_cell_length_c 16.127283
_cell_angle_alpha 90.000000
_cell_angle_beta 90.000000
_cell_angle_gamma 90.000000
_cell_volume 7901.480576
_symmetry_space_group_name_H-M "F D D D"
_symmetry_group_IT_number 70
_space_group.IT_coordinate_system_code '2'
_symmetry_cell_setting 'orthorhombic'
loop_
_space_group_symop_operation_xyz
x,y,z
1/4-x,1/4-y,z
x,1/4-y,1/4-z
1/4-x,y,1/4-z
-x,-y,-z
3/4+x,3/4+y,-z
-x,3/4+y,3/4+z
3/4+x,-y,3/4+z
x,1/2+y,1/2+z
1/4-x,3/4-y,1/2+z
x,3/4-y,3/4-z
1/4-x,1/2+y,3/4-z
-x,1/2-y,1/2-z
3/4+x,1/4+y,1/2-z
-x,1/4+y,1/4+z
3/4+x,1/2-y,1/4+z
1/2+x,y,1/2+z
3/4-x,1/4-y,1/2+z
1/2+x,1/4-y,3/4-z
3/4-x,y,3/4-z
1/2-x,-y,1/2-z
1/4+x,3/4+y,1/2-z
1/2-x,3/4+y,1/4+z
1/4+x,-y,1/4+z
1/2+x,1/2+y,z
3/4-x,3/4-y,z
1/2+x,3/4-y,1/4-z
3/4-x,1/2+y,1/4-z
1/2-x,1/2-y,-z
1/4+x,1/4+y,-z
1/2-x,1/4+y,3/4+z
1/4+x,1/2-y,3/4+z
loop_
_atom_site_type_symbol
_atom_site_label
_atom_site_fract_x
_atom_site_fract_y
_atom_site_fract_z
Si Si1 0.857188 0.323149 0.149829
Si Si2 0.052289 0.073178 0.065888
Si Si3 0.375000 0.573817 0.875000
Si Si4 0.307516 0.037027 0.939006
Si Si5 0.518774 0.010014 0.341477
Si Si6 0.846840 0.630435 0.215790
O O1 0.875000 0.375000 0.125415
O O2 0.900524 0.307399 0.234529
O O3 0.760174 0.317595 0.144069
O O4 0.894827 0.285434 0.089528
O O5 0.125000 0.087138 0.125000
O O6 0.998253 0.117174 0.044573
O O7 0.991119 0.035574 0.103625
O O8 0.453302 0.543114 0.881026
O O9 0.385931 0.602094 0.790624
O O10 0.375000 0.018097 0.875000
O O11 0.353590 0.067589 0.007534
O O12 0.259513 0.999359 0.992486
O O13 0.890198 0.625000 0.125000
#
# Coordination Sequence:
#
# PCOD8286810 Si02
#       6
#    32  32  16  32  32  32
#     4  12  24  42  65  97 135 175 219 278 357 406
#     4  12  22  37  67 107 136 161 211 290 369 422
#     4  12  24  44  68 105 144 176 227 286 346 416
#     4  12  26  44  64  96 139 184 231 280 335 411
#     4  12  25  39  69  99 135 179 230 284 342 408
#     4  12  24  41  69 103 141 180 216 280 357 418
#
# _framework density 22.274304999999998
#
# number of rings (size 3 to 8) (size 9 to 14) (size 15 to 20)
#    0.000    0.000    9.091    0.545    2.545    0.727 
#    1.636    0.000    0.000    0.000    0.000    0.000 
#    0.000    0.000    0.000    0.000    0.000    0.000 
#
# Total GULP energy -545192.063256 kJ/mol
# GULP energy per Si atom -12390.728710 kJ/mol
# Density = 2.222361 g / cm^3
# Si number density = 22.274305 Si / 1000 Ang^3
#
#
#
# Elastic Constant Matrix: (Units=GPa)
#
#
# Indices 1 2 3 4 5 6 
#
# 1 61.7543 14.6966 16.2490 0.0000 0.0000 0.0000
# 2 14.6966 73.5786 25.9069 0.0000 0.0000 0.0000
# 3 16.2490 25.9069 100.5049 0.0000 0.0000 0.0000
# 4 0.0000 0.0000 0.0000 32.2843 0.0000 0.0000
# 5 0.0000 0.0000 0.0000 0.0000 41.9072 0.0000
# 6 0.0000 0.0000 0.0000 0.0000 0.0000 -4.8456
#
#
#
# Elastic Compliance Matrix: (Units=1/GPa)
#
#
# Indices 1 2 3 4 5 6 
#
# 1 0.017398 -0.002733 -0.002108 0.000000 0.000000 0.000000
# 2 -0.002733 0.015377 -0.003522 0.000000 0.000000 0.000000
# 3 -0.002108 -0.003522 0.011198 0.000000 0.000000 0.000000
# 4 0.000000 0.000000 0.000000 0.030975 0.000000 0.000000
# 5 0.000000 0.000000 0.000000 0.000000 0.023862 0.000000
# 6 0.000000 0.000000 0.000000 0.000000 0.000000 -0.206372
#
#
# Mechanical properties :
#
#
# Convention : Reuss Voigt Hill
#
# Bulk Modulus (GPa) = 36.70057 38.83808 37.76933
# Shear Modulus (GPa) = -61.15989 25.80152 -17.67918
#
# Velocity S-wave (km/s) = -5.24568 3.40715 -2.82033
# Velocity P-wave (km/s) = 4.49190 5.74042 2.52737
#
# Compressibility (1/GPa) = 0.02724753
#
# Stress axis : x y z
#
# Youngs Moduli (GPa) = 57.47677 65.03311 89.29800
#
# Poissons Ratio (x) = 0.17772 0.18828
# Poissons Ratio (y) = 0.15707 0.31449
# Poissons Ratio (z) = 0.12119 0.22904
#
# Static dielectric constant tensor:
#      x y z
#    x 4.458200 0.000000 0.000000 
#    y 0.000000 4.064120 0.000000 
#    z 0.000000 0.000000 4.312040 
# 
# 
# High freq. dielectric constant tensor:
#      x y z
#    x 1.852910 0.000000 0.000000 
#    y 0.000000 1.876740 0.000000 
#    z 0.000000 0.000000 1.869330 
# 
# From -- ./inp_files/35436.got.cif
#   From: 2010.03.12/outbox.cif.g09.slc.cpg/sg70_18_cif.got.tgz:35436.got - 2010.04.16 13:46:32.
