data_PCOD8286224
_publ_section_title
;
Structure prediction by ZEFSAII (Michael W. Deem and Ramdas Pophale) SiO2 
 PCOD8286224
Probable space group: F D D D
;
_chemical_formula_sum "Si O2"
_cell_formula_units_Z 240
_cell_length_a 14.282803
_cell_length_b 23.453602
_cell_length_c 31.125006
_cell_angle_alpha 90.000000
_cell_angle_beta 90.000000
_cell_angle_gamma 90.000000
_cell_volume 10426.353394
_symmetry_space_group_name_H-M "F D D D"
_symmetry_group_IT_number 70
_space_group.IT_coordinate_system_code '2'
_symmetry_cell_setting 'orthorhombic'
loop_
_space_group_symop_operation_xyz
x,y,z
1/4-x,1/4-y,z
x,1/4-y,1/4-z
1/4-x,y,1/4-z
-x,-y,-z
3/4+x,3/4+y,-z
-x,3/4+y,3/4+z
3/4+x,-y,3/4+z
x,1/2+y,1/2+z
1/4-x,3/4-y,1/2+z
x,3/4-y,3/4-z
1/4-x,1/2+y,3/4-z
-x,1/2-y,1/2-z
3/4+x,1/4+y,1/2-z
-x,1/4+y,1/4+z
3/4+x,1/2-y,1/4+z
1/2+x,y,1/2+z
3/4-x,1/4-y,1/2+z
1/2+x,1/4-y,3/4-z
3/4-x,y,3/4-z
1/2-x,-y,1/2-z
1/4+x,3/4+y,1/2-z
1/2-x,3/4+y,1/4+z
1/4+x,-y,1/4+z
1/2+x,1/2+y,z
3/4-x,3/4-y,z
1/2+x,3/4-y,1/4-z
3/4-x,1/2+y,1/4-z
1/2-x,1/2-y,-z
1/4+x,1/4+y,-z
1/2-x,1/4+y,3/4+z
1/4+x,1/2-y,3/4+z
loop_
_atom_site_type_symbol
_atom_site_label
_atom_site_fract_x
_atom_site_fract_y
_atom_site_fract_z
Si Si1 0.464540 0.932676 0.532967
Si Si2 0.003618 0.773682 0.897463
Si Si3 0.625000 0.936740 0.125000
Si Si4 0.244774 0.694055 0.800832
Si Si5 0.061590 0.041048 0.059110
Si Si6 0.775947 0.355684 0.659630
Si Si7 0.627065 0.470100 0.776327
Si Si8 0.546166 0.157670 0.252860
O O1 0.365629 0.960078 0.549972
O O2 0.495172 0.874827 0.556635
O O3 0.456697 0.917678 0.481616
O O4 0.547130 0.976998 0.541313
O O5 0.916162 0.798211 0.923877
O O6 0.007232 0.802321 0.850008
O O7 0.995284 0.705410 0.891355
O O8 0.095196 0.788008 0.924554
O O9 0.692752 0.970585 0.090565
O O10 0.694470 0.900575 0.153384
O O11 0.291630 0.715267 0.756901
O O12 0.875000 0.375000 0.637806
O O13 0.785842 0.357560 0.711188
O O14 0.675277 0.531525 0.773128
O O15 0.699414 0.417781 0.771435
O O16 0.625000 0.125000 0.223087
#
# Coordination Sequence:
#
# PCOD8286224 Si02
#       8
#    32  32  16  32  32  32  32  32
#     4  10  22  39  59  88 129 167 209 256 338 396
#     4  11  20  36  62  90 124 163 215 268 321 394
#     4  12  24  36  58  92 129 164 207 268 342 384
#     4  11  23  38  58  90 125 167 207 269 321 398
#     4  10  22  38  60  90 124 168 207 265 328 402
#     4  11  21  35  57  90 124 157 206 271 330 387
#     4  11  21  38  61  91 127 165 215 269 330 397
#     4  10  21  38  60  91 122 166 213 268 331 393
#
# _framework density 23.018595000000001
#
# number of rings (size 3 to 8) (size 9 to 14) (size 15 to 20)
#    0.000    1.333    5.333    2.400    3.733    0.000 
#    0.000    0.667    0.000    0.000    3.467    0.467 
#    0.000    0.000    0.000    0.000    0.000    0.000 
#
# Total GULP energy -743331.733716 kJ/mol
# GULP energy per Si atom -12388.862229 kJ/mol
# Density = 2.296620 g / cm^3
# Si number density = 23.018595 Si / 1000 Ang^3
#
#
#
# Elastic Constant Matrix: (Units=GPa)
#
#
# Indices 1 2 3 4 5 6 
#
# 1 79.8144 -0.3014 29.6173 0.0000 0.0000 0.0000
# 2 -0.3014 14.9210 -6.8840 0.0000 0.0000 0.0000
# 3 29.6173 -6.8840 107.3474 0.0000 0.0000 0.0000
# 4 0.0000 0.0000 0.0000 22.8137 0.0000 0.0000
# 5 0.0000 0.0000 0.0000 0.0000 39.2842 0.0000
# 6 0.0000 0.0000 0.0000 0.0000 0.0000 30.3296
#
#
#
# Elastic Compliance Matrix: (Units=1/GPa)
#
#
# Indices 1 2 3 4 5 6 
#
# 1 0.013993 -0.001544 -0.003960 0.000000 0.000000 0.000000
# 2 -0.001544 0.069233 0.004866 0.000000 0.000000 0.000000
# 3 -0.003960 0.004866 0.010720 0.000000 0.000000 0.000000
# 4 0.000000 0.000000 0.000000 0.043833 0.000000 0.000000
# 5 0.000000 0.000000 0.000000 0.000000 0.025455 0.000000
# 6 0.000000 0.000000 0.000000 0.000000 0.000000 0.032971
#
#
# Mechanical properties :
#
#
# Convention : Reuss Voigt Hill
#
# Bulk Modulus (GPa) = 10.79098 27.43851 19.11475
# Shear Modulus (GPa) = 21.89416 30.46224 26.17820
#
# Velocity S-wave (km/s) = 3.08742 3.64177 3.37599
# Velocity P-wave (km/s) = 4.17225 5.44328 4.84959
#
# Compressibility (1/GPa) = 0.09266995
#
# Stress axis : x y z
#
# Youngs Moduli (GPa) = 71.46663 14.44395 93.28331
#
# Poissons Ratio (x) = 0.02230 0.36936
# Poissons Ratio (y) = 0.11035 -0.45390
# Poissons Ratio (z) = 0.28298 -0.07028
#
# Static dielectric constant tensor:
#      x y z
#    x 6.269150 0.000000 0.000000 
#    y 0.000000 3.742790 0.000000 
#    z 0.000000 0.000000 4.330980 
# 
# 
# High freq. dielectric constant tensor:
#      x y z
#    x 1.923920 0.000000 0.000000 
#    y 0.000000 1.863620 0.000000 
#    z 0.000000 0.000000 1.906530 
# 
# From -- ./inp_files/66134.got.cif
#   From: 2010.03.12/outbox.cif.g09.slc.cpg/sg70_34_cif.got.tgz:66134.got - 2010.04.16 13:46:32.
