data_PCOD8286003
_publ_section_title
;
Structure prediction by ZEFSAII (Michael W. Deem and Ramdas Pophale) SiO2 
 PCOD8286003
Probable space group: F D D D
;
_chemical_formula_sum "Si O2"
_cell_formula_units_Z 216
_cell_length_a 28.281556
_cell_length_b 20.196955
_cell_length_c 18.934441
_cell_angle_alpha 90.000000
_cell_angle_beta 90.000000
_cell_angle_gamma 90.000000
_cell_volume 10815.377576
_symmetry_space_group_name_H-M "F D D D"
_symmetry_group_IT_number 70
_space_group.IT_coordinate_system_code '2'
_symmetry_cell_setting 'orthorhombic'
loop_
_space_group_symop_operation_xyz
x,y,z
1/4-x,1/4-y,z
x,1/4-y,1/4-z
1/4-x,y,1/4-z
-x,-y,-z
3/4+x,3/4+y,-z
-x,3/4+y,3/4+z
3/4+x,-y,3/4+z
x,1/2+y,1/2+z
1/4-x,3/4-y,1/2+z
x,3/4-y,3/4-z
1/4-x,1/2+y,3/4-z
-x,1/2-y,1/2-z
3/4+x,1/4+y,1/2-z
-x,1/4+y,1/4+z
3/4+x,1/2-y,1/4+z
1/2+x,y,1/2+z
3/4-x,1/4-y,1/2+z
1/2+x,1/4-y,3/4-z
3/4-x,y,3/4-z
1/2-x,-y,1/2-z
1/4+x,3/4+y,1/2-z
1/2-x,3/4+y,1/4+z
1/4+x,-y,1/4+z
1/2+x,1/2+y,z
3/4-x,3/4-y,z
1/2+x,3/4-y,1/4-z
3/4-x,1/2+y,1/4-z
1/2-x,1/2-y,-z
1/4+x,1/4+y,-z
1/2-x,1/4+y,3/4+z
1/4+x,1/2-y,3/4+z
loop_
_atom_site_type_symbol
_atom_site_label
_atom_site_fract_x
_atom_site_fract_y
_atom_site_fract_z
Si Si1 0.313402 0.265723 0.186606
Si Si2 0.125000 0.625000 0.125000
Si Si3 0.416893 0.255182 0.149116
Si Si4 0.981443 0.417631 0.304135
Si Si5 0.641574 0.552875 0.997569
Si Si6 0.958280 0.957376 0.029210
Si Si7 0.472064 0.625000 0.625000
Si Si8 0.448051 0.850079 0.766992
O O1 0.365985 0.235584 0.181841
O O2 0.278355 0.208519 0.215172
O O3 0.291638 0.289163 0.113032
O O4 0.317052 0.328717 0.237123
O O5 0.159065 0.579551 0.173991
O O6 0.409495 0.303904 0.083345
O O7 0.440030 0.189655 0.116162
O O8 0.449396 0.292965 0.207225
O O9 0.987672 0.375000 0.375000
O O10 0.934396 0.466315 0.302438
O O11 0.969531 0.368452 0.239878
O O12 0.625000 0.625000 0.019510
O O13 0.591691 0.512578 0.001996
O O14 0.000000 0.000000 0.000000
O O15 0.501473 0.610363 0.553912
#
# Coordination Sequence:
#
# PCOD8286003 Si02
#       8
#    32   8  32  32  32  32  16  32
#     4  11  22  37  65  82 121 165 204 249 314 376
#     4  10  20  36  64  96 108 148 218 264 296 364
#     4  11  21  41  62  88 118 162 203 248 316 378
#     4  11  21  35  56  89 119 154 199 256 303 353
#     4   9  20  35  59  84 112 159 209 240 292 374
#     4  10  20  36  54  85 118 160 206 252 298 373
#     4  11  26  35  64  94 126 146 203 268 313 368
#     4  11  21  41  62  91 119 161 206 259 309 384
#
# _framework density 19.971564000000001
#
# number of rings (size 3 to 8) (size 9 to 14) (size 15 to 20)
#    0.000    1.481    2.963    4.000    1.037    2.667 
#    0.000    0.000    0.000    0.000    0.000    0.000 
#    0.000    0.000    0.000    0.000    0.000    0.000 
#
# Total GULP energy -668973.539247 kJ/mol
# GULP energy per Si atom -12388.398875 kJ/mol
# Density = 1.992611 g / cm^3
# Si number density = 19.971564 Si / 1000 Ang^3
#
#
#
# Elastic Constant Matrix: (Units=GPa)
#
#
# Indices 1 2 3 4 5 6 
#
# 1 145.0052 47.3544 34.2841 0.0000 0.0000 0.0000
# 2 47.3544 65.9769 21.5272 0.0000 0.0000 0.0000
# 3 34.2841 21.5272 63.5833 0.0000 0.0000 0.0000
# 4 0.0000 0.0000 0.0000 23.1885 0.0000 0.0000
# 5 0.0000 0.0000 0.0000 0.0000 33.5509 0.0000
# 6 0.0000 0.0000 0.0000 0.0000 0.0000 30.6464
#
#
#
# Elastic Compliance Matrix: (Units=1/GPa)
#
#
# Indices 1 2 3 4 5 6 
#
# 1 0.009547 -0.005815 -0.003179 0.000000 0.000000 0.000000
# 2 -0.005815 0.020581 -0.003833 0.000000 0.000000 0.000000
# 3 -0.003179 -0.003833 0.018739 0.000000 0.000000 0.000000
# 4 0.000000 0.000000 0.000000 0.043125 0.000000 0.000000
# 5 0.000000 0.000000 0.000000 0.000000 0.029805 0.000000
# 6 0.000000 0.000000 0.000000 0.000000 0.000000 0.032630
#
#
# Mechanical properties :
#
#
# Convention : Reuss Voigt Hill
#
# Bulk Modulus (GPa) = 43.07758 53.43298 48.25528
# Shear Modulus (GPa) = 26.62145 28.90382 27.76264
#
# Velocity S-wave (km/s) = 3.65494 3.80840 3.73246
# Velocity P-wave (km/s) = 6.27915 6.79346 6.54137
#
# Compressibility (1/GPa) = 0.02321393
#
# Stress axis : x y z
#
# Youngs Moduli (GPa) = 104.74588 48.58856 53.36447
#
# Poissons Ratio (x) = 0.28254 0.16964
# Poissons Ratio (y) = 0.60910 0.20452
# Poissons Ratio (z) = 0.33298 0.18622
#
# Static dielectric constant tensor:
#      x y z
#    x 4.265660 0.000000 0.000000 
#    y 0.000000 3.453040 0.000000 
#    z 0.000000 0.000000 3.672480 
# 
# 
# High freq. dielectric constant tensor:
#      x y z
#    x 1.802930 0.000000 0.000000 
#    y 0.000000 1.742270 0.000000 
#    z 0.000000 0.000000 1.777330 
# 
# From -- ./inp_files/47091.got.cif
#   From: 2010.03.12/outbox.cif.g09.slc.cpg/sg70_24_cif.got.tgz:47091.got - 2010.04.16 13:46:32.
