data_PCOD8286819
_publ_section_title
;
Structure prediction by ZEFSAII (Michael W. Deem and Ramdas Pophale) SiO2 
 PCOD8286819
Probable space group: F D D D
;
_chemical_formula_sum "Si O2"
_cell_formula_units_Z 104
_cell_length_a 7.361274
_cell_length_b 17.680133
_cell_length_c 29.554569
_cell_angle_alpha 90.000000
_cell_angle_beta 90.000000
_cell_angle_gamma 90.000000
_cell_volume 3846.477012
_symmetry_space_group_name_H-M "F D D D"
_symmetry_group_IT_number 70
_space_group.IT_coordinate_system_code '2'
_symmetry_cell_setting 'orthorhombic'
loop_
_space_group_symop_operation_xyz
x,y,z
1/4-x,1/4-y,z
x,1/4-y,1/4-z
1/4-x,y,1/4-z
-x,-y,-z
3/4+x,3/4+y,-z
-x,3/4+y,3/4+z
3/4+x,-y,3/4+z
x,1/2+y,1/2+z
1/4-x,3/4-y,1/2+z
x,3/4-y,3/4-z
1/4-x,1/2+y,3/4-z
-x,1/2-y,1/2-z
3/4+x,1/4+y,1/2-z
-x,1/4+y,1/4+z
3/4+x,1/2-y,1/4+z
1/2+x,y,1/2+z
3/4-x,1/4-y,1/2+z
1/2+x,1/4-y,3/4-z
3/4-x,y,3/4-z
1/2-x,-y,1/2-z
1/4+x,3/4+y,1/2-z
1/2-x,3/4+y,1/4+z
1/4+x,-y,1/4+z
1/2+x,1/2+y,z
3/4-x,3/4-y,z
1/2+x,3/4-y,1/4-z
3/4-x,1/2+y,1/4-z
1/2-x,1/2-y,-z
1/4+x,1/4+y,-z
1/2-x,1/4+y,3/4+z
1/4+x,1/2-y,3/4+z
loop_
_atom_site_type_symbol
_atom_site_label
_atom_site_fract_x
_atom_site_fract_y
_atom_site_fract_z
Si Si1 0.875000 0.875000 0.162719
Si Si2 0.875000 0.375000 0.875000
Si Si3 0.891146 0.561654 0.766299
Si Si4 0.625000 0.258774 0.625000
Si Si5 0.354398 0.193558 0.054692
O O1 0.696082 0.896478 0.190927
O O2 0.810258 0.806077 0.131575
O O3 0.754120 0.427594 0.907028
O O4 0.750000 0.500000 0.750000
O O5 0.323968 0.627197 0.727723
O O6 0.080987 0.519175 0.777388
O O7 0.662591 0.208920 0.580078
#
# Coordination Sequence:
#
# PCOD8286819 Si02
#       5
#    16   8  32  16  32
#     4  12  25  52  78 111 172 208 276 341 416 480
#     4  12  22  48  80 118 164 210 264 362 396 488
#     4  12  23  52  80 116 158 216 264 341 411 504
#     4  12  30  52  78 125 161 218 278 346 409 485
#     4  12  27  49  84 117 166 212 279 337 419 490
#
# _framework density 27.037727
#
# number of rings (size 3 to 8) (size 9 to 14) (size 15 to 20)
#    0.000    0.000    6.154    3.692    0.000    1.846 
#    5.538    0.000    0.000    0.000    0.000    0.000 
#    0.000    0.000    0.000    0.000    0.000    0.000 
#
# Total GULP energy -322613.453574 kJ/mol
# GULP energy per Si atom -12408.209753 kJ/mol
# Density = 2.697619 g / cm^3
# Si number density = 27.037727 Si / 1000 Ang^3
#
#
#
# Elastic Constant Matrix: (Units=GPa)
#
#
# Indices 1 2 3 4 5 6 
#
# 1 110.7471 62.1756 49.0708 0.0000 0.0000 0.0000
# 2 62.1756 175.1936 98.4281 0.0000 0.0000 0.0000
# 3 49.0708 98.4281 151.4638 0.0000 0.0000 0.0000
# 4 0.0000 0.0000 0.0000 52.8659 0.0000 0.0000
# 5 0.0000 0.0000 0.0000 0.0000 61.7348 0.0000
# 6 0.0000 0.0000 0.0000 0.0000 0.0000 35.3927
#
#
#
# Elastic Compliance Matrix: (Units=1/GPa)
#
#
# Indices 1 2 3 4 5 6 
#
# 1 0.011547 -0.003144 -0.001698 0.000000 0.000000 0.000000
# 2 -0.003144 0.009846 -0.005380 0.000000 0.000000 0.000000
# 3 -0.001698 -0.005380 0.010648 0.000000 0.000000 0.000000
# 4 0.000000 0.000000 0.000000 0.018916 0.000000 0.000000
# 5 0.000000 0.000000 0.000000 0.000000 0.016198 0.000000
# 6 0.000000 0.000000 0.000000 0.000000 0.000000 0.028254
#
#
# Mechanical properties :
#
#
# Convention : Reuss Voigt Hill
#
# Bulk Modulus (GPa) = 86.22146 95.19485 90.70815
# Shear Modulus (GPa) = 41.76395 45.18067 43.47231
#
# Velocity S-wave (km/s) = 3.93447 4.09225 4.01414
# Velocity P-wave (km/s) = 7.25249 7.59034 7.42334
#
# Compressibility (1/GPa) = 0.01159804
#
# Stress axis : x y z
#
# Youngs Moduli (GPa) = 86.60240 101.55925 93.91017
#
# Poissons Ratio (x) = 0.31932 0.15944
# Poissons Ratio (y) = 0.27229 0.50524
# Poissons Ratio (z) = 0.14703 0.54639
#
# Static dielectric constant tensor:
#      x y z
#    x 4.771380 0.000000 0.000000 
#    y 0.000000 5.610460 0.000000 
#    z 0.000000 0.000000 5.246890 
# 
# 
# High freq. dielectric constant tensor:
#      x y z
#    x 2.089190 0.000000 0.000000 
#    y 0.000000 2.105950 0.000000 
#    z 0.000000 0.000000 2.106040 
# 
# From -- ./inp_files/63486.got.cif
#   From: 2010.03.12/outbox.cif.g09.slc.cpg/sg70_32_cif.got.tgz:63486.got - 2010.04.16 13:46:32.
