data_PCOD8286945
_publ_section_title
;
Structure prediction by ZEFSAII (Michael W. Deem and Ramdas Pophale) SiO2 
 PCOD8286945
Probable space group: I M M M
;
_chemical_formula_sum "Si O2"
_cell_formula_units_Z 120
_cell_length_a 19.952693
_cell_length_b 13.148752
_cell_length_c 27.940979
_cell_angle_alpha 90.000000
_cell_angle_beta 90.000000
_cell_angle_gamma 90.000000
_cell_volume 7330.399999
_symmetry_space_group_name_H-M "I M M M"
_symmetry_group_IT_number 71
_symmetry_cell_setting 'orthorhombic'
loop_
_space_group_symop_operation_xyz
x,y,z
-x,-y,z
x,-y,-z
-x,y,-z
-x,-y,-z
x,y,-z
-x,y,z
x,-y,z
1/2+x,1/2+y,1/2+z
1/2-x,1/2-y,1/2+z
1/2+x,1/2-y,1/2-z
1/2-x,1/2+y,1/2-z
1/2-x,1/2-y,1/2-z
1/2+x,1/2+y,1/2-z
1/2-x,1/2+y,1/2+z
1/2+x,1/2-y,1/2+z
loop_
_atom_site_type_symbol
_atom_site_label
_atom_site_fract_x
_atom_site_fract_y
_atom_site_fract_z
Si Si1 0.073987 0.687433 0.846967
Si Si2 0.876767 0.878814 0.381493
Si Si3 0.000000 0.879610 0.446040
Si Si4 0.686639 0.116806 0.277170
Si Si5 0.888740 0.620397 0.053189
Si Si6 0.261500 0.379411 0.051770
Si Si7 0.334304 0.305998 0.215494
Si Si8 0.575333 0.387904 0.296579
O O1 0.132278 0.624211 0.820190
O O2 0.070085 0.670430 0.903945
O O3 0.087249 0.806998 0.838709
O O4 0.000000 0.656689 0.826666
O O5 0.808883 0.839995 0.406423
O O6 0.879760 0.817958 0.331728
O O7 0.936010 0.842695 0.416164
O O8 0.878754 0.000000 0.372131
O O9 0.000000 0.833150 0.500000
O O10 0.000000 0.000000 0.450527
O O11 0.666284 0.188011 0.232215
O O12 0.759792 0.151805 0.295553
O O13 0.689067 0.000000 0.259979
O O14 0.893521 0.500000 0.058328
O O15 0.813233 0.660376 0.060134
O O16 0.915299 0.652097 0.000000
O O17 0.261733 0.500000 0.051684
O O18 0.288028 0.341167 0.000000
O O19 0.369377 0.373442 0.255821
O O20 0.500000 0.376226 0.274998
O O21 0.585231 0.500000 0.318738
#
# Coordination Sequence:
#
# PCOD8286945 Si02
#       8
#    16  16   8  16  16  16  16  16
#     4  10  20  32  47  67  89 118 152 183 223 274
#     4  10  17  25  41  63  90 122 152 186 224 269
#     4   9  18  28  38  60  95 131 159 187 231 282
#     4  10  20  34  49  66  93 122 151 189 229 275
#     4   9  17  28  43  64  88 113 144 184 226 268
#     4   8  14  25  40  58  83 115 146 176 215 264
#     4  10  20  31  47  71  92 118 155 190 228 270
#     4   9  18  32  49  66  89 118 149 185 223 267
#
# _framework density 16.370183999999998
#
# number of rings (size 3 to 8) (size 9 to 14) (size 15 to 20)
#    0.000    2.600    0.000    3.600    0.933    4.000 
#    0.000    0.667    0.000    0.400    0.000    1.867 
#    0.000    3.733    0.000    0.000    0.000    0.400 
#
# Total GULP energy -743541.827741 kJ/mol
# GULP energy per Si atom -12392.363796 kJ/mol
# Density = 1.633292 g / cm^3
# Si number density = 16.370184 Si / 1000 Ang^3
#
#
#
# Elastic Constant Matrix: (Units=GPa)
#
#
# Indices 1 2 3 4 5 6 
#
# 1 79.7016 24.5587 40.8209 0.0000 0.0000 0.0000
# 2 24.5587 73.6414 38.2538 0.0000 0.0000 0.0000
# 3 40.8209 38.2538 114.8384 0.0000 0.0000 0.0000
# 4 0.0000 0.0000 0.0000 20.1366 0.0000 0.0000
# 5 0.0000 0.0000 0.0000 0.0000 19.5676 0.0000
# 6 0.0000 0.0000 0.0000 0.0000 0.0000 15.6955
#
#
#
# Elastic Compliance Matrix: (Units=1/GPa)
#
#
# Indices 1 2 3 4 5 6 
#
# 1 0.015818 -0.002847 -0.004674 0.000000 0.000000 0.000000
# 2 -0.002847 0.016933 -0.004629 0.000000 0.000000 0.000000
# 3 -0.004674 -0.004629 0.011911 0.000000 0.000000 0.000000
# 4 0.000000 0.000000 0.000000 0.049661 0.000000 0.000000
# 5 0.000000 0.000000 0.000000 0.000000 0.051105 0.000000
# 6 0.000000 0.000000 0.000000 0.000000 0.000000 0.063712
#
#
# Mechanical properties :
#
#
# Convention : Reuss Voigt Hill
#
# Bulk Modulus (GPa) = 49.10972 52.82756 50.96864
# Shear Modulus (GPa) = 20.81353 22.04981 21.43167
#
# Velocity S-wave (km/s) = 3.56958 3.67406 3.62220
# Velocity P-wave (km/s) = 6.85958 7.09500 6.97828
#
# Compressibility (1/GPa) = 0.02036257
#
# Stress axis : x y z
#
# Youngs Moduli (GPa) = 63.21845 59.05577 83.95391
#
# Poissons Ratio (x) = 0.16813 0.39244
# Poissons Ratio (y) = 0.17998 0.38859
# Poissons Ratio (z) = 0.29551 0.27334
#
# Static dielectric constant tensor:
#      x y z
#    x 3.356630 0.000000 0.000000 
#    y 0.000000 2.781740 0.000000 
#    z 0.000000 0.000000 3.168850 
# 
# 
# High freq. dielectric constant tensor:
#      x y z
#    x 1.646310 0.000000 0.000000 
#    y 0.000000 1.579670 0.000000 
#    z 0.000000 0.000000 1.626610 
# 
# From -- ./inp_files/66614.got.cif
#   From: 2010.06.25/outbox.cif.g09.slc.cpg/sg71_34_cif.got.tgz:66614.got - 2010.06.28 04:59:45.
