data_PCOD8286258
_publ_section_title
;
Structure prediction by ZEFSAII (Michael W. Deem and Ramdas Pophale) SiO2 
 PCOD8286258
Probable space group: F D D D
;
_chemical_formula_sum "Si O2"
_cell_formula_units_Z 192
_cell_length_a 22.128031
_cell_length_b 13.668335
_cell_length_c 32.234741
_cell_angle_alpha 90.000000
_cell_angle_beta 90.000000
_cell_angle_gamma 90.000000
_cell_volume 9749.505099
_symmetry_space_group_name_H-M "F D D D"
_symmetry_group_IT_number 70
_space_group.IT_coordinate_system_code '2'
_symmetry_cell_setting 'orthorhombic'
loop_
_space_group_symop_operation_xyz
x,y,z
1/4-x,1/4-y,z
x,1/4-y,1/4-z
1/4-x,y,1/4-z
-x,-y,-z
3/4+x,3/4+y,-z
-x,3/4+y,3/4+z
3/4+x,-y,3/4+z
x,1/2+y,1/2+z
1/4-x,3/4-y,1/2+z
x,3/4-y,3/4-z
1/4-x,1/2+y,3/4-z
-x,1/2-y,1/2-z
3/4+x,1/4+y,1/2-z
-x,1/4+y,1/4+z
3/4+x,1/2-y,1/4+z
1/2+x,y,1/2+z
3/4-x,1/4-y,1/2+z
1/2+x,1/4-y,3/4-z
3/4-x,y,3/4-z
1/2-x,-y,1/2-z
1/4+x,3/4+y,1/2-z
1/2-x,3/4+y,1/4+z
1/4+x,-y,1/4+z
1/2+x,1/2+y,z
3/4-x,3/4-y,z
1/2+x,3/4-y,1/4-z
3/4-x,1/2+y,1/4-z
1/2-x,1/2-y,-z
1/4+x,1/4+y,-z
1/2-x,1/4+y,3/4+z
1/4+x,1/2-y,3/4+z
loop_
_atom_site_type_symbol
_atom_site_label
_atom_site_fract_x
_atom_site_fract_y
_atom_site_fract_z
Si Si1 0.875000 0.875000 0.668236
Si Si2 0.251539 0.161476 0.885026
Si Si3 0.564042 0.335999 0.036173
Si Si4 0.701369 0.300630 0.056585
Si Si5 0.243130 0.886685 0.974356
Si Si6 0.359268 0.669456 0.545776
Si Si7 0.963925 0.625000 0.625000
O O1 0.816654 0.869551 0.638360
O O2 0.883624 0.785024 0.699160
O O3 0.285462 0.154181 0.928780
O O4 0.285534 0.096085 0.851347
O O5 0.254276 0.276808 0.873928
O O6 0.630448 0.303854 0.049054
O O7 0.520317 0.243948 0.029796
O O8 0.567547 0.398623 0.994072
O O9 0.717662 0.186262 0.053929
O O10 0.742283 0.358491 0.023005
O O11 0.175404 0.874396 0.957912
O O12 0.328681 0.619903 0.585160
#
# Coordination Sequence:
#
# PCOD8286258 Si02
#       7
#    16  32  32  32  32  32  16
#     4  10  22  40  62  90 119 164 212 259 316 364
#     4  11  23  42  61  91 124 164 211 262 314 375
#     4  11  22  41  63  91 131 160 209 254 313 379
#     4  10  23  39  63  93 127 165 207 253 314 374
#     4  10  21  40  62  93 126 167 204 254 312 371
#     4  10  22  40  63  95 124 162 212 257 308 380
#     4  10  24  40  63  90 121 164 210 260 318 362
#
# _framework density 19.693307999999998
#
# number of rings (size 3 to 8) (size 9 to 14) (size 15 to 20)
#    0.000    1.667    1.667    2.000    4.667    3.333 
#    9.000    2.500    0.000    0.000    0.000    0.000 
#    0.000    0.000    0.000    0.000    0.000    0.000 
#
# Total GULP energy -595293.628542 kJ/mol
# GULP energy per Si atom -12401.950595 kJ/mol
# Density = 1.964849 g / cm^3
# Si number density = 19.693308 Si / 1000 Ang^3
#
#
#
# Elastic Constant Matrix: (Units=GPa)
#
#
# Indices 1 2 3 4 5 6 
#
# 1 68.7918 16.3433 31.2010 0.0000 0.0000 0.0000
# 2 16.3433 121.4731 43.0375 0.0000 0.0000 0.0000
# 3 31.2010 43.0375 124.9784 0.0000 0.0000 0.0000
# 4 0.0000 0.0000 0.0000 27.7027 0.0000 0.0000
# 5 0.0000 0.0000 0.0000 0.0000 32.5210 0.0000
# 6 0.0000 0.0000 0.0000 0.0000 0.0000 28.2731
#
#
#
# Elastic Compliance Matrix: (Units=1/GPa)
#
#
# Indices 1 2 3 4 5 6 
#
# 1 0.016472 -0.000865 -0.003815 0.000000 0.000000 0.000000
# 2 -0.000865 0.009422 -0.003029 0.000000 0.000000 0.000000
# 3 -0.003815 -0.003029 0.009997 0.000000 0.000000 0.000000
# 4 0.000000 0.000000 0.000000 0.036098 0.000000 0.000000
# 5 0.000000 0.000000 0.000000 0.000000 0.030749 0.000000
# 6 0.000000 0.000000 0.000000 0.000000 0.000000 0.035369
#
#
# Mechanical properties :
#
#
# Convention : Reuss Voigt Hill
#
# Bulk Modulus (GPa) = 48.84057 55.15632 51.99844
# Shear Modulus (GPa) = 31.18236 32.67680 31.92958
#
# Velocity S-wave (km/s) = 3.98351 4.07785 4.03096
# Velocity P-wave (km/s) = 6.78323 7.08804 6.93731
#
# Compressibility (1/GPa) = 0.02047478
#
# Stress axis : x y z
#
# Youngs Moduli (GPa) = 60.70850 106.13885 100.03410
#
# Poissons Ratio (x) = 0.09178 0.38158
# Poissons Ratio (y) = 0.05250 0.30296
# Poissons Ratio (z) = 0.23157 0.32145
#
# Static dielectric constant tensor:
#      x y z
#    x 3.731320 0.000000 0.000000 
#    y 0.000000 3.576950 0.000000 
#    z 0.000000 0.000000 3.695670 
# 
# 
# High freq. dielectric constant tensor:
#      x y z
#    x 1.775320 0.000000 0.000000 
#    y 0.000000 1.771410 0.000000 
#    z 0.000000 0.000000 1.772220 
# 
# From -- ./inp_files/61152.got.cif
#   From: 2010.03.12/outbox.cif.g09.slc.cpg/sg70_31_cif.got.tgz:61152.got - 2010.04.16 13:46:32.
