data_PCOD8286328
_publ_section_title
;
Structure prediction by ZEFSAII (Michael W. Deem and Ramdas Pophale) SiO2 
 PCOD8286328
Probable space group: F D D D
;
_chemical_formula_sum "Si O2"
_cell_formula_units_Z 152
_cell_length_a 20.679264
_cell_length_b 15.674449
_cell_length_c 22.735098
_cell_angle_alpha 90.000000
_cell_angle_beta 90.000000
_cell_angle_gamma 90.000000
_cell_volume 7369.265292
_symmetry_space_group_name_H-M "F D D D"
_symmetry_group_IT_number 70
_space_group.IT_coordinate_system_code '2'
_symmetry_cell_setting 'orthorhombic'
loop_
_space_group_symop_operation_xyz
x,y,z
1/4-x,1/4-y,z
x,1/4-y,1/4-z
1/4-x,y,1/4-z
-x,-y,-z
3/4+x,3/4+y,-z
-x,3/4+y,3/4+z
3/4+x,-y,3/4+z
x,1/2+y,1/2+z
1/4-x,3/4-y,1/2+z
x,3/4-y,3/4-z
1/4-x,1/2+y,3/4-z
-x,1/2-y,1/2-z
3/4+x,1/4+y,1/2-z
-x,1/4+y,1/4+z
3/4+x,1/2-y,1/4+z
1/2+x,y,1/2+z
3/4-x,1/4-y,1/2+z
1/2+x,1/4-y,3/4-z
3/4-x,y,3/4-z
1/2-x,-y,1/2-z
1/4+x,3/4+y,1/2-z
1/2-x,3/4+y,1/4+z
1/4+x,-y,1/4+z
1/2+x,1/2+y,z
3/4-x,3/4-y,z
1/2+x,3/4-y,1/4-z
3/4-x,1/2+y,1/4-z
1/2-x,1/2-y,-z
1/4+x,1/4+y,-z
1/2-x,1/4+y,3/4+z
1/4+x,1/2-y,3/4+z
loop_
_atom_site_type_symbol
_atom_site_label
_atom_site_fract_x
_atom_site_fract_y
_atom_site_fract_z
Si Si1 0.336804 0.125000 0.625000
Si Si2 0.453534 0.039109 0.683904
Si Si3 0.125000 0.125000 0.625000
Si Si4 0.478198 0.762789 0.933798
Si Si5 0.940886 0.418268 0.460133
Si Si6 0.498765 0.922692 0.583064
O O1 0.380784 0.073020 0.672136
O O2 0.293747 0.188626 0.664730
O O3 0.500239 0.120990 0.676726
O O4 0.470196 0.999915 0.746940
O O5 0.465327 0.961684 0.639762
O O6 0.166745 0.183377 0.666795
O O7 0.475077 0.671130 0.901251
O O8 0.875000 0.375000 0.439251
O O9 0.946242 0.414184 0.530697
O O10 0.942349 0.516961 0.439410
#
# Coordination Sequence:
#
# PCOD8286328 Si02
#       6
#    16  32   8  32  32  32
#     4  11  24  47  63  96 141 168 214 284 327 384
#     4  11  23  41  65 100 130 172 217 268 331 401
#     4  10  24  52  56  92 128 172 234 284 300 392
#     4  10  26  42  70  90 130 177 221 273 330 377
#     4  10  22  38  61  94 139 167 207 274 331 387
#     4  10  22  38  62  97 125 174 215 261 324 407
#
# _framework density 20.626208999999999
#
# number of rings (size 3 to 8) (size 9 to 14) (size 15 to 20)
#    0.000    1.684    2.105    0.000    5.895    6.737 
#    0.000    4.211    0.000    0.000    0.000    0.000 
#    0.000    0.000    0.000    0.000    0.000    0.000 
#
# Total GULP energy -471102.095647 kJ/mol
# GULP energy per Si atom -12397.423570 kJ/mol
# Density = 2.057926 g / cm^3
# Si number density = 20.626209 Si / 1000 Ang^3
#
#
#
# Elastic Constant Matrix: (Units=GPa)
#
#
# Indices 1 2 3 4 5 6 
#
# 1 146.8466 77.6442 49.1002 0.0000 0.0000 0.0000
# 2 77.6442 178.5951 65.2349 0.0000 0.0000 0.0000
# 3 49.1002 65.2349 119.4238 0.0000 0.0000 0.0000
# 4 0.0000 0.0000 0.0000 42.6612 0.0000 0.0000
# 5 0.0000 0.0000 0.0000 0.0000 15.9147 0.0000
# 6 0.0000 0.0000 0.0000 0.0000 0.0000 -117.5407
#
#
#
# Elastic Compliance Matrix: (Units=1/GPa)
#
#
# Indices 1 2 3 4 5 6 
#
# 1 0.009209 -0.003274 -0.001998 0.000000 0.000000 0.000000
# 2 -0.003274 0.008159 -0.003111 0.000000 0.000000 0.000000
# 3 -0.001998 -0.003111 0.010894 0.000000 0.000000 0.000000
# 4 0.000000 0.000000 0.000000 0.023441 0.000000 0.000000
# 5 0.000000 0.000000 0.000000 0.000000 0.062835 0.000000
# 6 0.000000 0.000000 0.000000 0.000000 0.000000 -0.008508
#
#
# Mechanical properties :
#
#
# Convention : Reuss Voigt Hill
#
# Bulk Modulus (GPa) = 86.97869 92.09156 89.53513
# Shear Modulus (GPa) = 39.48615 5.06611 22.27613
#
# Velocity S-wave (km/s) = 4.38010 1.56891 3.28989
# Velocity P-wave (km/s) = 8.23656 6.93013 7.61143
#
# Compressibility (1/GPa) = 0.01149707
#
# Stress axis : x y z
#
# Youngs Moduli (GPa) = 108.59148 122.56730 91.79232
#
# Poissons Ratio (x) = 0.40126 0.18339
# Poissons Ratio (y) = 0.35551 0.28554
# Poissons Ratio (z) = 0.21695 0.38127
#
# Static dielectric constant tensor:
#      x y z
#    x 3.633110 0.000000 0.000000 
#    y 0.000000 4.143850 0.000000 
#    z 0.000000 0.000000 3.786400 
# 
# 
# High freq. dielectric constant tensor:
#      x y z
#    x 1.791980 0.000000 0.000000 
#    y 0.000000 1.821770 0.000000 
#    z 0.000000 0.000000 1.814730 
# 
# From -- ./inp_files/27652.got.cif
#   From: 2010.03.12/outbox.cif.g09.slc.cpg/sg70_14_cif.got.tgz:27652.got - 2010.04.16 13:46:32.
