data_PCOD8286601
_publ_section_title
;
Structure prediction by ZEFSAII (Michael W. Deem and Ramdas Pophale) SiO2 
 PCOD8286601
Probable space group: F D D D
;
_chemical_formula_sum "Si O2"
_cell_formula_units_Z 160
_cell_length_a 9.827780
_cell_length_b 35.279166
_cell_length_c 25.436866
_cell_angle_alpha 90.000000
_cell_angle_beta 90.000000
_cell_angle_gamma 90.000000
_cell_volume 8819.365431
_symmetry_space_group_name_H-M "F D D D"
_symmetry_group_IT_number 70
_space_group.IT_coordinate_system_code '2'
_symmetry_cell_setting 'orthorhombic'
loop_
_space_group_symop_operation_xyz
x,y,z
1/4-x,1/4-y,z
x,1/4-y,1/4-z
1/4-x,y,1/4-z
-x,-y,-z
3/4+x,3/4+y,-z
-x,3/4+y,3/4+z
3/4+x,-y,3/4+z
x,1/2+y,1/2+z
1/4-x,3/4-y,1/2+z
x,3/4-y,3/4-z
1/4-x,1/2+y,3/4-z
-x,1/2-y,1/2-z
3/4+x,1/4+y,1/2-z
-x,1/4+y,1/4+z
3/4+x,1/2-y,1/4+z
1/2+x,y,1/2+z
3/4-x,1/4-y,1/2+z
1/2+x,1/4-y,3/4-z
3/4-x,y,3/4-z
1/2-x,-y,1/2-z
1/4+x,3/4+y,1/2-z
1/2-x,3/4+y,1/4+z
1/4+x,-y,1/4+z
1/2+x,1/2+y,z
3/4-x,3/4-y,z
1/2+x,3/4-y,1/4-z
3/4-x,1/2+y,1/4-z
1/2-x,1/2-y,-z
1/4+x,1/4+y,-z
1/2-x,1/4+y,3/4+z
1/4+x,1/2-y,3/4+z
loop_
_atom_site_type_symbol
_atom_site_label
_atom_site_fract_x
_atom_site_fract_y
_atom_site_fract_z
Si Si1 0.595704 0.875000 0.375000
Si Si2 0.019134 0.951649 0.355255
Si Si3 0.875000 0.875000 0.785440
Si Si4 0.849904 0.449437 0.220470
Si Si5 0.952446 0.224052 0.494323
Si Si6 0.465227 0.269234 0.616700
O O1 0.693064 0.911174 0.370354
O O2 0.506075 0.879370 0.427604
O O3 0.995376 0.949034 0.292615
O O4 0.875000 0.966621 0.375000
O O5 0.139247 0.980043 0.371450
O O6 0.894541 0.910226 0.746265
O O7 0.954351 0.481216 0.241497
O O8 0.699262 0.460306 0.236014
O O9 0.847196 0.448831 0.156106
O O10 0.050670 0.217341 0.443834
O O11 0.625000 0.260764 0.625000
#
# Coordination Sequence:
#
# PCOD8286601 Si02
#       6
#    16  32  16  32  32  32
#     4  11  23  32  52  80 110 144 176 226 286 328
#     4  11  22  35  53  80 115 146 180 224 277 333
#     4  11  20  32  58  84 108 134 187 234 278 320
#     4   9  17  31  55  85 108 134 182 239 267 314
#     4   9  17  34  55  79 109 144 183 221 274 320
#     4   9  19  34  60  80 107 141 189 228 270 322
#
# _framework density 18.141894000000001
#
# number of rings (size 3 to 8) (size 9 to 14) (size 15 to 20)
#    0.000    2.200    2.000    2.700    2.800    0.800 
#    0.000    0.000    4.400   14.400    0.000    0.000 
#    0.000    0.000    0.000    0.000    0.000    0.000 
#
# Total GULP energy -495738.357418 kJ/mol
# GULP energy per Si atom -12393.458935 kJ/mol
# Density = 1.810060 g / cm^3
# Si number density = 18.141894 Si / 1000 Ang^3
#
#
#
# Elastic Constant Matrix: (Units=GPa)
#
#
# Indices 1 2 3 4 5 6 
#
# 1 40.4875 7.1772 25.3594 0.0000 0.0000 0.0000
# 2 7.1772 70.1160 14.4246 0.0000 0.0000 0.0000
# 3 25.3594 14.4246 130.1618 0.0000 0.0000 0.0000
# 4 0.0000 0.0000 0.0000 29.9786 0.0000 0.0000
# 5 0.0000 0.0000 0.0000 0.0000 5.8211 0.0000
# 6 0.0000 0.0000 0.0000 0.0000 0.0000 9.1623
#
#
#
# Elastic Compliance Matrix: (Units=1/GPa)
#
#
# Indices 1 2 3 4 5 6 
#
# 1 0.028354 -0.001807 -0.005324 0.000000 0.000000 0.000000
# 2 -0.001807 0.014710 -0.001278 0.000000 0.000000 0.000000
# 3 -0.005324 -0.001278 0.008862 0.000000 0.000000 0.000000
# 4 0.000000 0.000000 0.000000 0.033357 0.000000 0.000000
# 5 0.000000 0.000000 0.000000 0.000000 0.171790 0.000000
# 6 0.000000 0.000000 0.000000 0.000000 0.000000 0.109143
#
#
# Mechanical properties :
#
#
# Convention : Reuss Voigt Hill
#
# Bulk Modulus (GPa) = 28.48407 37.18754 32.83580
# Shear Modulus (GPa) = 12.66668 21.91266 17.28967
#
# Velocity S-wave (km/s) = 2.64522 3.47918 3.09046
# Velocity P-wave (km/s) = 5.00643 6.05659 5.55638
#
# Compressibility (1/GPa) = 0.03510735
#
# Stress axis : x y z
#
# Youngs Moduli (GPa) = 35.26841 67.98100 112.84591
#
# Poissons Ratio (x) = 0.12285 0.60078
# Poissons Ratio (y) = 0.06373 0.14423
# Poissons Ratio (z) = 0.18777 0.08689
#
# Static dielectric constant tensor:
#      x y z
#    x 3.072520 0.000000 0.000000 
#    y 0.000000 3.186670 0.000000 
#    z 0.000000 0.000000 4.053920 
# 
# 
# High freq. dielectric constant tensor:
#      x y z
#    x 1.677810 0.000000 0.000000 
#    y 0.000000 1.680210 0.000000 
#    z 0.000000 0.000000 1.720430 
# 
# From -- ./inp_files/57707.got.cif
#   From: 2010.03.12/outbox.cif.g09.slc.cpg/sg70_29_cif.got.tgz:57707.got - 2010.04.16 13:46:32.
