data_PCOD8286323
_publ_section_title
;
Structure prediction by ZEFSAII (Michael W. Deem and Ramdas Pophale) SiO2 
 PCOD8286323
Probable space group: F D D D
;
_chemical_formula_sum "Si O2"
_cell_formula_units_Z 208
_cell_length_a 16.845354
_cell_length_b 21.462836
_cell_length_c 28.800998
_cell_angle_alpha 90.000000
_cell_angle_beta 90.000000
_cell_angle_gamma 90.000000
_cell_volume 10412.974050
_symmetry_space_group_name_H-M "F D D D"
_symmetry_group_IT_number 70
_space_group.IT_coordinate_system_code '2'
_symmetry_cell_setting 'orthorhombic'
loop_
_space_group_symop_operation_xyz
x,y,z
1/4-x,1/4-y,z
x,1/4-y,1/4-z
1/4-x,y,1/4-z
-x,-y,-z
3/4+x,3/4+y,-z
-x,3/4+y,3/4+z
3/4+x,-y,3/4+z
x,1/2+y,1/2+z
1/4-x,3/4-y,1/2+z
x,3/4-y,3/4-z
1/4-x,1/2+y,3/4-z
-x,1/2-y,1/2-z
3/4+x,1/4+y,1/2-z
-x,1/4+y,1/4+z
3/4+x,1/2-y,1/4+z
1/2+x,y,1/2+z
3/4-x,1/4-y,1/2+z
1/2+x,1/4-y,3/4-z
3/4-x,y,3/4-z
1/2-x,-y,1/2-z
1/4+x,3/4+y,1/2-z
1/2-x,3/4+y,1/4+z
1/4+x,-y,1/4+z
1/2+x,1/2+y,z
3/4-x,3/4-y,z
1/2+x,3/4-y,1/4-z
3/4-x,1/2+y,1/4-z
1/2-x,1/2-y,-z
1/4+x,1/4+y,-z
1/2-x,1/4+y,3/4+z
1/4+x,1/2-y,3/4+z
loop_
_atom_site_type_symbol
_atom_site_label
_atom_site_fract_x
_atom_site_fract_y
_atom_site_fract_z
Si Si1 0.493503 0.875000 0.375000
Si Si2 0.868157 0.120015 0.549760
Si Si3 0.501181 0.375000 0.375000
Si Si4 0.440418 0.698042 0.962821
Si Si5 0.354978 0.498488 0.010174
Si Si6 0.430317 0.999207 0.411297
Si Si7 0.125000 0.231676 0.625000
Si Si8 0.054491 0.591874 0.430001
O O1 0.547307 0.847997 0.416710
O O2 0.438479 0.927804 0.396590
O O3 0.950045 0.116714 0.577669
O O4 0.867086 0.073999 0.505000
O O5 0.856871 0.192259 0.536099
O O6 0.451782 0.311614 0.374445
O O7 0.509225 0.745051 0.981806
O O8 0.385223 0.726968 0.921969
O O9 0.482855 0.636878 0.942889
O O10 0.395144 0.433928 0.026194
O O11 0.380818 0.506135 0.957784
O O12 0.375000 0.035131 0.375000
O O13 0.516487 0.031156 0.407048
O O14 0.125000 0.625000 0.399017
#
# Coordination Sequence:
#
# PCOD8286323 Si02
#       8
#    16  32  16  32  32  32  16  32
#     4  11  23  37  61  97 131 176 216 266 314 404
#     4  11  21  40  67  94 129 168 222 264 330 383
#     4  10  24  45  71  92 122 174 220 282 316 394
#     4  11  23  38  65  97 125 171 214 270 328 398
#     4  11  21  42  62  90 132 171 208 257 330 394
#     4  12  23  36  59  94 132 165 212 265 319 386
#     4  11  24  44  68  94 128 165 228 268 336 383
#     4  10  22  37  60  84 124 170 207 248 321 387
#
# _framework density 19.975080999999999
#
# number of rings (size 3 to 8) (size 9 to 14) (size 15 to 20)
#    0.000    1.077    4.615    2.538    1.077    3.077 
#    0.000    0.000    0.000    1.846    0.000    0.000 
#    0.000    0.000    0.000    0.000    0.000    0.000 
#
# Total GULP energy -644241.269467 kJ/mol
# GULP energy per Si atom -12389.255182 kJ/mol
# Density = 1.992962 g / cm^3
# Si number density = 19.975081 Si / 1000 Ang^3
#
#
#
# Elastic Constant Matrix: (Units=GPa)
#
#
# Indices 1 2 3 4 5 6 
#
# 1 107.0263 33.0406 61.8066 0.0000 0.0000 0.0000
# 2 33.0406 75.5455 49.9649 0.0000 0.0000 0.0000
# 3 61.8066 49.9649 120.7490 0.0000 0.0000 0.0000
# 4 0.0000 0.0000 0.0000 24.3370 0.0000 0.0000
# 5 0.0000 0.0000 0.0000 0.0000 25.8998 0.0000
# 6 0.0000 0.0000 0.0000 0.0000 0.0000 -2.0573
#
#
#
# Elastic Compliance Matrix: (Units=1/GPa)
#
#
# Indices 1 2 3 4 5 6 
#
# 1 0.013446 -0.001829 -0.006125 0.000000 0.000000 0.000000
# 2 -0.001829 0.018474 -0.006708 0.000000 0.000000 0.000000
# 3 -0.006125 -0.006708 0.014193 0.000000 0.000000 0.000000
# 4 0.000000 0.000000 0.000000 0.041090 0.000000 0.000000
# 5 0.000000 0.000000 0.000000 0.000000 0.038610 0.000000
# 6 0.000000 0.000000 0.000000 0.000000 0.000000 -0.486080
#
#
# Mechanical properties :
#
#
# Convention : Reuss Voigt Hill
#
# Bulk Modulus (GPa) = 59.57068 65.88279 62.72674
# Shear Modulus (GPa) = -15.36817 20.20315 2.41749
#
# Velocity S-wave (km/s) = -2.77676 3.18373 1.10131
# Velocity P-wave (km/s) = 4.42795 6.82414 5.75220
#
# Compressibility (1/GPa) = 0.01678678
#
# Stress axis : x y z
#
# Youngs Moduli (GPa) = 74.37428 54.13122 70.45948
#
# Poissons Ratio (x) = 0.09903 0.43158
# Poissons Ratio (y) = 0.13606 0.47263
# Poissons Ratio (z) = 0.45556 0.36310
#
# Static dielectric constant tensor:
#      x y z
#    x 3.875230 0.000000 0.000000 
#    y 0.000000 3.836110 0.000000 
#    z 0.000000 0.000000 3.655380 
# 
# 
# High freq. dielectric constant tensor:
#      x y z
#    x 1.784110 0.000000 0.000000 
#    y 0.000000 1.783060 0.000000 
#    z 0.000000 0.000000 1.766670 
# 
# From -- ./inp_files/59642.got.cif
#   From: 2010.03.12/outbox.cif.g09.slc.cpg/sg70_30_cif.got.tgz:59642.got - 2010.04.16 13:46:32.
