data_PCOD8286443
_publ_section_title
;
Structure prediction by ZEFSAII (Michael W. Deem and Ramdas Pophale) SiO2 
 PCOD8286443
Probable space group: F D D D
;
_chemical_formula_sum "Si O2"
_cell_formula_units_Z 160
_cell_length_a 11.604085
_cell_length_b 29.645330
_cell_length_c 21.584075
_cell_angle_alpha 90.000000
_cell_angle_beta 90.000000
_cell_angle_gamma 90.000000
_cell_volume 7425.071360
_symmetry_space_group_name_H-M "F D D D"
_symmetry_group_IT_number 70
_space_group.IT_coordinate_system_code '2'
_symmetry_cell_setting 'orthorhombic'
loop_
_space_group_symop_operation_xyz
x,y,z
1/4-x,1/4-y,z
x,1/4-y,1/4-z
1/4-x,y,1/4-z
-x,-y,-z
3/4+x,3/4+y,-z
-x,3/4+y,3/4+z
3/4+x,-y,3/4+z
x,1/2+y,1/2+z
1/4-x,3/4-y,1/2+z
x,3/4-y,3/4-z
1/4-x,1/2+y,3/4-z
-x,1/2-y,1/2-z
3/4+x,1/4+y,1/2-z
-x,1/4+y,1/4+z
3/4+x,1/2-y,1/4+z
1/2+x,y,1/2+z
3/4-x,1/4-y,1/2+z
1/2+x,1/4-y,3/4-z
3/4-x,y,3/4-z
1/2-x,-y,1/2-z
1/4+x,3/4+y,1/2-z
1/2-x,3/4+y,1/4+z
1/4+x,-y,1/4+z
1/2+x,1/2+y,z
3/4-x,3/4-y,z
1/2+x,3/4-y,1/4-z
3/4-x,1/2+y,1/4-z
1/2-x,1/2-y,-z
1/4+x,1/4+y,-z
1/2-x,1/4+y,3/4+z
1/4+x,1/2-y,3/4+z
loop_
_atom_site_type_symbol
_atom_site_label
_atom_site_fract_x
_atom_site_fract_y
_atom_site_fract_z
Si Si1 0.904800 0.688425 0.722360
Si Si2 0.503830 0.705871 0.869014
Si Si3 0.657210 0.210933 0.747829
Si Si4 0.873486 0.544565 0.666920
Si Si5 0.500011 0.391609 0.508476
O O1 0.862256 0.735587 0.749883
O O2 0.872407 0.682914 0.650483
O O3 0.842359 0.648688 0.759455
O O4 0.041721 0.684030 0.730782
O O5 0.375000 0.726142 0.875000
O O6 0.548278 0.692152 0.936761
O O7 0.586897 0.742411 0.837211
O O8 0.503531 0.660954 0.827895
O O9 0.748907 0.201257 0.694355
O O10 0.782777 0.569596 0.710232
O O11 0.375000 0.375000 0.487793
#
# Coordination Sequence:
#
# PCOD8286443 Si02
#       5
#    32  32  32  32  32
#     4  10  24  42  70  99 134 177 229 283 341 416
#     4  11  24  42  69  98 136 185 226 283 351 422
#     4  10  22  46  68  96 134 184 225 274 351 424
#     4  11  23  42  70  96 132 180 229 282 344 420
#     4  12  26  41  64 103 136 175 233 295 344 403
#
# _framework density 21.548613
#
# number of rings (size 3 to 8) (size 9 to 14) (size 15 to 20)
#    0.000    1.200    2.000    3.000    5.600    3.200 
#    0.000    6.000    0.000    0.000    0.000    0.000 
#    0.000    0.000    0.000    0.000    0.000    0.000 
#
# Total GULP energy -496307.192756 kJ/mol
# GULP energy per Si atom -12407.679819 kJ/mol
# Density = 2.149957 g / cm^3
# Si number density = 21.548613 Si / 1000 Ang^3
#
#
#
# Elastic Constant Matrix: (Units=GPa)
#
#
# Indices 1 2 3 4 5 6 
#
# 1 140.9992 37.1634 34.5306 0.0000 0.0000 0.0000
# 2 37.1634 82.4076 42.8109 0.0000 0.0000 0.0000
# 3 34.5306 42.8109 81.4785 0.0000 0.0000 0.0000
# 4 0.0000 0.0000 0.0000 35.7875 0.0000 0.0000
# 5 0.0000 0.0000 0.0000 0.0000 31.8103 0.0000
# 6 0.0000 0.0000 0.0000 0.0000 0.0000 33.6310
#
#
#
# Elastic Compliance Matrix: (Units=1/GPa)
#
#
# Indices 1 2 3 4 5 6 
#
# 1 0.008311 -0.002638 -0.002136 0.000000 0.000000 0.000000
# 2 -0.002638 0.017528 -0.008092 0.000000 0.000000 0.000000
# 3 -0.002136 -0.008092 0.017430 0.000000 0.000000 0.000000
# 4 0.000000 0.000000 0.000000 0.027943 0.000000 0.000000
# 5 0.000000 0.000000 0.000000 0.000000 0.031436 0.000000
# 6 0.000000 0.000000 0.000000 0.000000 0.000000 0.029734
#
#
# Mechanical properties :
#
#
# Convention : Reuss Voigt Hill
#
# Bulk Modulus (GPa) = 57.02159 59.32166 58.17163
# Shear Modulus (GPa) = 30.49530 32.93779 31.71654
#
# Velocity S-wave (km/s) = 3.76598 3.91389 3.84064
# Velocity P-wave (km/s) = 6.74013 6.92919 6.83532
#
# Compressibility (1/GPa) = 0.01753722
#
# Stress axis : x y z
#
# Youngs Moduli (GPa) = 120.32699 57.05083 57.37264
#
# Poissons Ratio (x) = 0.15052 0.12254
# Poissons Ratio (y) = 0.31746 0.46424
# Poissons Ratio (z) = 0.25700 0.46164
#
# Static dielectric constant tensor:
#      x y z
#    x 4.072290 0.000000 0.000000 
#    y 0.000000 3.767750 0.000000 
#    z 0.000000 0.000000 3.921700 
# 
# 
# High freq. dielectric constant tensor:
#      x y z
#    x 1.862530 0.000000 0.000000 
#    y 0.000000 1.839460 0.000000 
#    z 0.000000 0.000000 1.854020 
# 
# From -- ./inp_files/19497.got.cif
#   From: 2010.03.12/outbox.cif.g09.slc.cpg/sg70_10_cif.got.tgz:19497.got - 2010.04.16 13:46:32.
