data_PCOD8286433
_publ_section_title
;
Structure prediction by ZEFSAII (Michael W. Deem and Ramdas Pophale) SiO2 
 PCOD8286433
Probable space group: F D D D
;
_chemical_formula_sum "Si O2"
_cell_formula_units_Z 192
_cell_length_a 29.494549
_cell_length_b 17.247055
_cell_length_c 17.319538
_cell_angle_alpha 90.000000
_cell_angle_beta 90.000000
_cell_angle_gamma 90.000000
_cell_volume 8810.346948
_symmetry_space_group_name_H-M "F D D D"
_symmetry_group_IT_number 70
_space_group.IT_coordinate_system_code '2'
_symmetry_cell_setting 'orthorhombic'
loop_
_space_group_symop_operation_xyz
x,y,z
1/4-x,1/4-y,z
x,1/4-y,1/4-z
1/4-x,y,1/4-z
-x,-y,-z
3/4+x,3/4+y,-z
-x,3/4+y,3/4+z
3/4+x,-y,3/4+z
x,1/2+y,1/2+z
1/4-x,3/4-y,1/2+z
x,3/4-y,3/4-z
1/4-x,1/2+y,3/4-z
-x,1/2-y,1/2-z
3/4+x,1/4+y,1/2-z
-x,1/4+y,1/4+z
3/4+x,1/2-y,1/4+z
1/2+x,y,1/2+z
3/4-x,1/4-y,1/2+z
1/2+x,1/4-y,3/4-z
3/4-x,y,3/4-z
1/2-x,-y,1/2-z
1/4+x,3/4+y,1/2-z
1/2-x,3/4+y,1/4+z
1/4+x,-y,1/4+z
1/2+x,1/2+y,z
3/4-x,3/4-y,z
1/2+x,3/4-y,1/4-z
3/4-x,1/2+y,1/4-z
1/2-x,1/2-y,-z
1/4+x,1/4+y,-z
1/2-x,1/4+y,3/4+z
1/4+x,1/2-y,3/4+z
loop_
_atom_site_type_symbol
_atom_site_label
_atom_site_fract_x
_atom_site_fract_y
_atom_site_fract_z
Si Si1 0.375000 0.375000 0.565841
Si Si2 0.550438 0.360167 0.486091
Si Si3 0.573785 0.777548 0.141155
Si Si4 0.551544 0.575698 0.697164
Si Si5 0.103978 0.785434 0.348065
Si Si6 0.733281 0.125000 0.625000
Si Si7 0.940216 0.662205 0.507919
O O1 0.418598 0.350097 0.518652
O O2 0.391593 0.445302 0.618456
O O3 0.554206 0.329616 0.571974
O O4 0.499973 0.350635 0.457430
O O5 0.567332 0.449706 0.472894
O O6 0.586945 0.320035 0.428707
O O7 0.625000 0.753379 0.125000
O O8 0.546525 0.698050 0.152870
O O9 0.571064 0.830952 0.216888
O O10 0.570861 0.625000 0.625000
O O11 0.555470 0.481487 0.693383
O O12 0.152582 0.819135 0.322037
O O13 0.762185 0.096173 0.552006
#
# Coordination Sequence:
#
# PCOD8286433 Si02
#       7
#    16  32  32  32  32  16  32
#     4  10  25  40  66 106 133 182 234 288 344 405
#     4  11  22  44  67  95 135 182 230 276 350 416
#     4  12  26  45  70 103 137 181 231 292 350 409
#     4  11  23  42  67 103 139 176 233 288 346 420
#     4  10  22  45  68  94 136 186 226 282 343 417
#     4  12  25  50  66 106 138 180 238 285 346 424
#     4  11  25  44  72  99 138 186 230 286 355 415
#
# _framework density 21.792559000000001
#
# number of rings (size 3 to 8) (size 9 to 14) (size 15 to 20)
#    0.000    1.000    5.000    2.000    2.333    2.000 
#    3.000    0.000    0.000    0.000    0.000    0.000 
#    0.000    0.000    0.000    0.000    0.000    0.000 
#
# Total GULP energy -594810.342031 kJ/mol
# GULP energy per Si atom -12391.882126 kJ/mol
# Density = 2.174296 g / cm^3
# Si number density = 21.792559 Si / 1000 Ang^3
#
#
#
# Elastic Constant Matrix: (Units=GPa)
#
#
# Indices 1 2 3 4 5 6 
#
# 1 115.3491 41.9465 4.2494 0.0000 0.0000 0.0000
# 2 41.9465 155.3839 24.2054 0.0000 0.0000 0.0000
# 3 4.2494 24.2054 57.1826 0.0000 0.0000 0.0000
# 4 0.0000 0.0000 0.0000 8.3218 0.0000 0.0000
# 5 0.0000 0.0000 0.0000 0.0000 52.7166 0.0000
# 6 0.0000 0.0000 0.0000 0.0000 0.0000 19.3473
#
#
#
# Elastic Compliance Matrix: (Units=1/GPa)
#
#
# Indices 1 2 3 4 5 6 
#
# 1 0.009622 -0.002662 0.000412 0.000000 0.000000 0.000000
# 2 -0.002662 0.007626 -0.003030 0.000000 0.000000 0.000000
# 3 0.000412 -0.003030 0.018740 0.000000 0.000000 0.000000
# 4 0.000000 0.000000 0.000000 0.120166 0.000000 0.000000
# 5 0.000000 0.000000 0.000000 0.000000 0.018969 0.000000
# 6 0.000000 0.000000 0.000000 0.000000 0.000000 0.051687
#
#
# Mechanical properties :
#
#
# Convention : Reuss Voigt Hill
#
# Bulk Modulus (GPa) = 39.32747 52.07979 45.70363
# Shear Modulus (GPa) = 20.33784 33.24477 26.79130
#
# Velocity S-wave (km/s) = 3.05822 3.91002 3.51005
# Velocity P-wave (km/s) = 5.52773 6.65839 6.11923
#
# Compressibility (1/GPa) = 0.02542752
#
# Stress axis : x y z
#
# Youngs Moduli (GPa) = 103.92770 131.12583 53.36175
#
# Poissons Ratio (x) = 0.34901 -0.02196
# Poissons Ratio (y) = 0.27662 0.16171
# Poissons Ratio (z) = -0.04278 0.39736
#
# Static dielectric constant tensor:
#      x y z
#    x 4.107800 0.000000 0.000000 
#    y 0.000000 4.596870 0.000000 
#    z 0.000000 0.000000 3.860220 
# 
# 
# High freq. dielectric constant tensor:
#      x y z
#    x 1.874710 0.000000 0.000000 
#    y 0.000000 1.869130 0.000000 
#    z 0.000000 0.000000 1.838010 
# 
# From -- ./inp_files/39737.got.cif
#   From: 2010.03.12/outbox.cif.g09.slc.cpg/sg70_20_cif.got.tgz:39737.got - 2010.04.16 13:46:32.
