data_PCOD8286178
_publ_section_title
;
Structure prediction by ZEFSAII (Michael W. Deem and Ramdas Pophale) SiO2 
 PCOD8286178
Probable space group: F D D D
;
_chemical_formula_sum "Si O2"
_cell_formula_units_Z 176
_cell_length_a 26.004311
_cell_length_b 11.863461
_cell_length_c 25.295029
_cell_angle_alpha 90.000000
_cell_angle_beta 90.000000
_cell_angle_gamma 90.000000
_cell_volume 7803.545014
_symmetry_space_group_name_H-M "F D D D"
_symmetry_group_IT_number 70
_space_group.IT_coordinate_system_code '2'
_symmetry_cell_setting 'orthorhombic'
loop_
_space_group_symop_operation_xyz
x,y,z
1/4-x,1/4-y,z
x,1/4-y,1/4-z
1/4-x,y,1/4-z
-x,-y,-z
3/4+x,3/4+y,-z
-x,3/4+y,3/4+z
3/4+x,-y,3/4+z
x,1/2+y,1/2+z
1/4-x,3/4-y,1/2+z
x,3/4-y,3/4-z
1/4-x,1/2+y,3/4-z
-x,1/2-y,1/2-z
3/4+x,1/4+y,1/2-z
-x,1/4+y,1/4+z
3/4+x,1/2-y,1/4+z
1/2+x,y,1/2+z
3/4-x,1/4-y,1/2+z
1/2+x,1/4-y,3/4-z
3/4-x,y,3/4-z
1/2-x,-y,1/2-z
1/4+x,3/4+y,1/2-z
1/2-x,3/4+y,1/4+z
1/4+x,-y,1/4+z
1/2+x,1/2+y,z
3/4-x,3/4-y,z
1/2+x,3/4-y,1/4-z
3/4-x,1/2+y,1/4-z
1/2-x,1/2-y,-z
1/4+x,1/4+y,-z
1/2-x,1/4+y,3/4+z
1/4+x,1/2-y,3/4+z
loop_
_atom_site_type_symbol
_atom_site_label
_atom_site_fract_x
_atom_site_fract_y
_atom_site_fract_z
Si Si1 0.118943 0.492706 0.566716
Si Si2 0.971309 0.095155 0.314161
Si Si3 0.082462 0.720452 0.466260
Si Si4 0.185762 0.375000 0.375000
Si Si5 0.433589 0.373728 0.264748
Si Si6 0.744170 0.301985 0.071278
O O1 0.125000 0.625000 0.574418
O O2 0.125000 0.435187 0.625000
O O3 0.063379 0.450245 0.543955
O O4 0.161848 0.458576 0.521853
O O5 0.977984 0.118355 0.376586
O O6 0.026733 0.088002 0.286308
O O7 0.941649 0.977612 0.304818
O O8 0.125000 0.625000 0.469136
O O9 0.096607 0.795289 0.414557
O O10 0.220118 0.304208 0.414913
O O11 0.375000 0.375000 0.244302
O O12 0.473121 0.386862 0.215665
O O13 0.444748 0.253323 0.292561
#
# Coordination Sequence:
#
# PCOD8286178 Si02
#       6
#    32  32  32  16  32  32
#     4  10  25  45  70  98 133 184 239 292 347 412
#     4  11  24  42  68  99 138 185 220 295 350 418
#     4  10  23  45  67  96 139 182 235 284 346 417
#     4  10  20  44  65  94 144 184 213 292 346 404
#     4  11  24  37  65 104 134 178 229 283 355 426
#     4  10  22  41  61  97 146 173 226 284 351 416
#
# _framework density 22.553853
#
# number of rings (size 3 to 8) (size 9 to 14) (size 15 to 20)
#    0.000    1.636    3.636    0.000    7.636    6.545 
#    0.000    1.818    0.000    0.000    0.000    0.000 
#    0.000    0.000    0.000    0.000    0.000    0.000 
#
# Total GULP energy -545173.937378 kJ/mol
# GULP energy per Si atom -12390.316759 kJ/mol
# Density = 2.250252 g / cm^3
# Si number density = 22.553853 Si / 1000 Ang^3
#
#
#
# Elastic Constant Matrix: (Units=GPa)
#
#
# Indices 1 2 3 4 5 6 
#
# 1 157.7415 41.8262 52.7336 0.0000 0.0000 0.0000
# 2 41.8262 58.8612 22.5459 0.0000 0.0000 0.0000
# 3 52.7336 22.5459 148.9370 0.0000 0.0000 0.0000
# 4 0.0000 0.0000 0.0000 14.3583 0.0000 0.0000
# 5 0.0000 0.0000 0.0000 0.0000 52.3456 0.0000
# 6 0.0000 0.0000 0.0000 0.0000 0.0000 30.2207
#
#
#
# Elastic Compliance Matrix: (Units=1/GPa)
#
#
# Indices 1 2 3 4 5 6 
#
# 1 0.008445 -0.005154 -0.002210 0.000000 0.000000 0.000000
# 2 -0.005154 0.021181 -0.001381 0.000000 0.000000 0.000000
# 3 -0.002210 -0.001381 0.007706 0.000000 0.000000 0.000000
# 4 0.000000 0.000000 0.000000 0.069646 0.000000 0.000000
# 5 0.000000 0.000000 0.000000 0.000000 0.019104 0.000000
# 6 0.000000 0.000000 0.000000 0.000000 0.000000 0.033090
#
#
# Mechanical properties :
#
#
# Convention : Reuss Voigt Hill
#
# Bulk Modulus (GPa) = 50.40202 66.63899 58.52051
# Shear Modulus (GPa) = 27.28121 35.94719 31.61420
#
# Velocity S-wave (km/s) = 3.48171 3.99662 3.74802
# Velocity P-wave (km/s) = 6.20959 7.13499 6.68831
#
# Compressibility (1/GPa) = 0.01984047
#
# Stress axis : x y z
#
# Youngs Moduli (GPa) = 118.41361 47.21232 129.77295
#
# Poissons Ratio (x) = 0.24335 0.28677
# Poissons Ratio (y) = 0.61036 0.17926
# Poissons Ratio (z) = 0.26167 0.06521
#
# Static dielectric constant tensor:
#      x y z
#    x 4.033400 0.000000 0.000000 
#    y 0.000000 3.843270 0.000000 
#    z 0.000000 0.000000 4.864630 
# 
# 
# High freq. dielectric constant tensor:
#      x y z
#    x 1.881310 0.000000 0.000000 
#    y 0.000000 1.874350 0.000000 
#    z 0.000000 0.000000 1.904400 
# 
# From -- ./inp_files/61672.got.cif
#   From: 2010.03.12/outbox.cif.g09.slc.cpg/sg70_31_cif.got.tgz:61672.got - 2010.04.16 13:46:32.
