data_PCOD8286039
_publ_section_title
;
Structure prediction by ZEFSAII (Michael W. Deem and Ramdas Pophale) SiO2 
 PCOD8286039
Probable space group: F D D D
;
_chemical_formula_sum "Si O2"
_cell_formula_units_Z 112
_cell_length_a 31.967670
_cell_length_b 9.947280
_cell_length_c 16.717223
_cell_angle_alpha 90.000000
_cell_angle_beta 90.000000
_cell_angle_gamma 90.000000
_cell_volume 5315.932551
_symmetry_space_group_name_H-M "F D D D"
_symmetry_group_IT_number 70
_space_group.IT_coordinate_system_code '2'
_symmetry_cell_setting 'orthorhombic'
loop_
_space_group_symop_operation_xyz
x,y,z
1/4-x,1/4-y,z
x,1/4-y,1/4-z
1/4-x,y,1/4-z
-x,-y,-z
3/4+x,3/4+y,-z
-x,3/4+y,3/4+z
3/4+x,-y,3/4+z
x,1/2+y,1/2+z
1/4-x,3/4-y,1/2+z
x,3/4-y,3/4-z
1/4-x,1/2+y,3/4-z
-x,1/2-y,1/2-z
3/4+x,1/4+y,1/2-z
-x,1/4+y,1/4+z
3/4+x,1/2-y,1/4+z
1/2+x,y,1/2+z
3/4-x,1/4-y,1/2+z
1/2+x,1/4-y,3/4-z
3/4-x,y,3/4-z
1/2-x,-y,1/2-z
1/4+x,3/4+y,1/2-z
1/2-x,3/4+y,1/4+z
1/4+x,-y,1/4+z
1/2+x,1/2+y,z
3/4-x,3/4-y,z
1/2+x,3/4-y,1/4-z
3/4-x,1/2+y,1/4-z
1/2-x,1/2-y,-z
1/4+x,1/4+y,-z
1/2-x,1/4+y,3/4+z
1/4+x,1/2-y,3/4+z
loop_
_atom_site_type_symbol
_atom_site_label
_atom_site_fract_x
_atom_site_fract_y
_atom_site_fract_z
Si Si1 0.983097 0.875000 0.875000
Si Si2 0.300157 0.061464 0.701013
Si Si3 0.719837 0.213310 0.248255
Si Si4 0.172800 0.382728 0.625305
O O1 0.953473 0.752437 0.849870
O O2 0.012120 0.837082 0.950318
O O3 0.325440 0.125000 0.625000
O O4 0.255507 0.137668 0.697547
O O5 0.321730 0.086397 0.784856
O O6 0.297485 0.899885 0.689841
O O7 0.683512 0.263234 0.187742
O O8 0.125000 0.429416 0.625000
#
# Coordination Sequence:
#
# PCOD8286039 Si02
#       4
#    16  32  32  32
#     4  10  21  38  62  92 122 166 212 256 304 374
#     4  10  20  37  61  89 117 157 205 256 306 372
#     4  10  20  37  63  89 117 159 208 251 304 378
#     4  11  23  39  62  90 127 164 206 261 321 368
#
# _framework density 21.068739999999998
#
# number of rings (size 3 to 8) (size 9 to 14) (size 15 to 20)
#    0.000    1.714    0.000    7.286    0.000    4.571 
#    2.571    0.000    6.286    0.000    0.000    0.000 
#    0.000    0.000    0.000    0.000    0.000    0.000 
#
# Total GULP energy -347025.814108 kJ/mol
# GULP energy per Si atom -12393.779075 kJ/mol
# Density = 2.102079 g / cm^3
# Si number density = 21.068740 Si / 1000 Ang^3
#
#
#
# Elastic Constant Matrix: (Units=GPa)
#
#
# Indices 1 2 3 4 5 6 
#
# 1 78.3276 23.4571 51.3869 0.0000 0.0000 0.0000
# 2 23.4571 114.5071 71.5717 0.0000 0.0000 0.0000
# 3 51.3869 71.5717 149.1732 0.0000 0.0000 0.0000
# 4 0.0000 0.0000 0.0000 34.8959 0.0000 0.0000
# 5 0.0000 0.0000 0.0000 0.0000 17.2848 0.0000
# 6 0.0000 0.0000 0.0000 0.0000 0.0000 7.3968
#
#
#
# Elastic Compliance Matrix: (Units=1/GPa)
#
#
# Indices 1 2 3 4 5 6 
#
# 1 0.016499 0.000247 -0.005802 0.000000 0.000000 0.000000
# 2 0.000247 0.012478 -0.006071 0.000000 0.000000 0.000000
# 3 -0.005802 -0.006071 0.011615 0.000000 0.000000 0.000000
# 4 0.000000 0.000000 0.000000 0.028657 0.000000 0.000000
# 5 0.000000 0.000000 0.000000 0.000000 0.057854 0.000000
# 6 0.000000 0.000000 0.000000 0.000000 0.000000 0.135194
#
#
# Mechanical properties :
#
#
# Convention : Reuss Voigt Hill
#
# Bulk Modulus (GPa) = 57.67552 70.53770 64.10661
# Shear Modulus (GPa) = 17.16263 24.95498 21.05880
#
# Velocity S-wave (km/s) = 2.85722 3.44533 3.16496
# Velocity P-wave (km/s) = 6.19026 7.02705 6.62189
#
# Compressibility (1/GPa) = 0.01733838
#
# Stress axis : x y z
#
# Youngs Moduli (GPa) = 60.60799 80.14416 86.09327
#
# Poissons Ratio (x) = -0.01976 0.49951
# Poissons Ratio (y) = -0.01494 0.52271
# Poissons Ratio (z) = 0.35165 0.48659
#
# Static dielectric constant tensor:
#      x y z
#    x 3.506640 0.000000 0.000000 
#    y 0.000000 4.170750 0.000000 
#    z 0.000000 0.000000 3.867900 
# 
# 
# High freq. dielectric constant tensor:
#      x y z
#    x 1.784510 0.000000 0.000000 
#    y 0.000000 1.838490 0.000000 
#    z 0.000000 0.000000 1.834420 
# 
# From -- ./inp_files/30539.got.cif
#   From: 2010.03.12/outbox.cif.g09.slc.cpg/sg70_16_cif.got.tgz:30539.got - 2010.04.16 13:46:32.
