data_PCOD8286499
_publ_section_title
;
Structure prediction by ZEFSAII (Michael W. Deem and Ramdas Pophale) SiO2 
 PCOD8286499
Probable space group: F D D D
;
_chemical_formula_sum "Si O2"
_cell_formula_units_Z 136
_cell_length_a 25.158904
_cell_length_b 23.226778
_cell_length_c 10.557507
_cell_angle_alpha 90.000000
_cell_angle_beta 90.000000
_cell_angle_gamma 90.000000
_cell_volume 6169.387725
_symmetry_space_group_name_H-M "F D D D"
_symmetry_group_IT_number 70
_space_group.IT_coordinate_system_code '2'
_symmetry_cell_setting 'orthorhombic'
loop_
_space_group_symop_operation_xyz
x,y,z
1/4-x,1/4-y,z
x,1/4-y,1/4-z
1/4-x,y,1/4-z
-x,-y,-z
3/4+x,3/4+y,-z
-x,3/4+y,3/4+z
3/4+x,-y,3/4+z
x,1/2+y,1/2+z
1/4-x,3/4-y,1/2+z
x,3/4-y,3/4-z
1/4-x,1/2+y,3/4-z
-x,1/2-y,1/2-z
3/4+x,1/4+y,1/2-z
-x,1/4+y,1/4+z
3/4+x,1/2-y,1/4+z
1/2+x,y,1/2+z
3/4-x,1/4-y,1/2+z
1/2+x,1/4-y,3/4-z
3/4-x,y,3/4-z
1/2-x,-y,1/2-z
1/4+x,3/4+y,1/2-z
1/2-x,3/4+y,1/4+z
1/4+x,-y,1/4+z
1/2+x,1/2+y,z
3/4-x,3/4-y,z
1/2+x,3/4-y,1/4-z
3/4-x,1/2+y,1/4-z
1/2-x,1/2-y,-z
1/4+x,1/4+y,-z
1/2-x,1/4+y,3/4+z
1/4+x,1/2-y,3/4+z
loop_
_atom_site_type_symbol
_atom_site_label
_atom_site_fract_x
_atom_site_fract_y
_atom_site_fract_z
Si Si1 0.625000 0.125000 0.625000
Si Si2 0.123750 0.057436 0.485700
Si Si3 0.118039 0.836337 0.487628
Si Si4 0.538765 0.983780 0.386275
Si Si5 0.941399 0.280164 0.520361
O O1 0.661299 0.084239 0.540132
O O2 0.125000 0.125000 0.496839
O O3 0.125000 0.029196 0.625000
O O4 0.068723 0.036012 0.421063
O O5 0.173795 0.037371 0.400806
O O6 0.125000 0.868588 0.625000
O O7 0.091231 0.875000 0.375000
O O8 0.174925 0.819160 0.428752
O O9 0.081760 0.781412 0.523940
O O10 0.503432 0.966050 0.264561
O O11 0.500000 0.000000 0.500000
#
# Coordination Sequence:
#
# PCOD8286499 Si02
#       5
#     8  32  32  32  32
#     4  12  20  40  78 104 136 172 244 316 344 380
#     4  10  23  43  65  98 146 181 220 295 360 421
#     4  11  24  44  65 101 150 178 222 298 360 420
#     4  11  23  42  73 101 127 177 255 284 339 419
#     4  11  22  42  72 102 131 181 241 296 345 411
#
# _framework density 22.044328
#
# number of rings (size 3 to 8) (size 9 to 14) (size 15 to 20)
#    0.000    1.176    4.706    1.412    1.647    4.706 
#    4.235    0.000    0.000    0.000    0.000    0.000 
#    0.000    0.000    0.000    0.000    0.000    0.000 
#
# Total GULP energy -421408.207219 kJ/mol
# GULP energy per Si atom -12394.359036 kJ/mol
# Density = 2.199415 g / cm^3
# Si number density = 22.044328 Si / 1000 Ang^3
#
#
#
# Elastic Constant Matrix: (Units=GPa)
#
#
# Indices 1 2 3 4 5 6 
#
# 1 112.9364 22.5583 41.4237 -0.0001 0.0000 0.0000
# 2 22.5583 91.3780 35.3527 -0.0003 0.0001 0.0001
# 3 41.4237 35.3527 170.4673 -0.0002 0.0001 0.0000
# 4 -0.0001 -0.0003 -0.0002 28.0802 0.0001 0.0001
# 5 0.0000 0.0001 0.0001 0.0001 45.0281 0.0000
# 6 0.0000 0.0001 0.0000 0.0001 0.0000 10.3963
#
#
#
# Elastic Compliance Matrix: (Units=1/GPa)
#
#
# Indices 1 2 3 4 5 6 
#
# 1 0.009945 -0.001653 -0.002074 0.000000 0.000000 0.000000
# 2 -0.001653 0.012173 -0.002123 0.000000 0.000000 0.000000
# 3 -0.002074 -0.002123 0.006810 0.000000 0.000000 0.000000
# 4 0.000000 0.000000 0.000000 0.035612 0.000000 0.000000
# 5 0.000000 0.000000 0.000000 0.000000 0.022208 0.000000
# 6 0.000000 0.000000 0.000000 0.000000 0.000000 0.096188
#
#
# Mechanical properties :
#
#
# Convention : Reuss Voigt Hill
#
# Bulk Modulus (GPa) = 58.04018 63.71680 60.87849
# Shear Modulus (GPa) = 24.95259 35.06404 30.00832
#
# Velocity S-wave (km/s) = 3.36806 3.99258 3.69354
# Velocity P-wave (km/s) = 6.44291 7.08667 6.77245
#
# Compressibility (1/GPa) = 0.01722944
#
# Stress axis : x y z
#
# Youngs Moduli (GPa) = 100.54917 82.14983 146.83302
#
# Poissons Ratio (x) = 0.13578 0.30453
# Poissons Ratio (y) = 0.16619 0.31171
# Poissons Ratio (z) = 0.20854 0.17439
#
# Static dielectric constant tensor:
#      x y z
#    x 4.010820 0.000000 0.000000 
#    y 0.000000 3.857740 0.000000 
#    z 0.000000 0.000000 4.690860 
# 
# 
# High freq. dielectric constant tensor:
#      x y z
#    x 1.844280 0.000000 0.000000 
#    y 0.000000 1.859880 0.000000 
#    z 0.000000 0.000000 1.886110 
# 
# From -- ./inp_files/18945.got.cif
#   From: 2010.03.12/outbox.cif.g09.slc.cpg/sg70_10_cif.got.tgz:18945.got - 2010.04.16 13:46:32.
