data_PCOD8286251
_publ_section_title
;
Structure prediction by ZEFSAII (Michael W. Deem and Ramdas Pophale) SiO2 
 PCOD8286251
Probable space group: F D D D
;
_chemical_formula_sum "Si O2"
_cell_formula_units_Z 168
_cell_length_a 19.685613
_cell_length_b 19.619397
_cell_length_c 21.406981
_cell_angle_alpha 90.000000
_cell_angle_beta 90.000000
_cell_angle_gamma 90.000000
_cell_volume 8267.801133
_symmetry_space_group_name_H-M "F D D D"
_symmetry_group_IT_number 70
_space_group.IT_coordinate_system_code '2'
_symmetry_cell_setting 'orthorhombic'
loop_
_space_group_symop_operation_xyz
x,y,z
1/4-x,1/4-y,z
x,1/4-y,1/4-z
1/4-x,y,1/4-z
-x,-y,-z
3/4+x,3/4+y,-z
-x,3/4+y,3/4+z
3/4+x,-y,3/4+z
x,1/2+y,1/2+z
1/4-x,3/4-y,1/2+z
x,3/4-y,3/4-z
1/4-x,1/2+y,3/4-z
-x,1/2-y,1/2-z
3/4+x,1/4+y,1/2-z
-x,1/4+y,1/4+z
3/4+x,1/2-y,1/4+z
1/2+x,y,1/2+z
3/4-x,1/4-y,1/2+z
1/2+x,1/4-y,3/4-z
3/4-x,y,3/4-z
1/2-x,-y,1/2-z
1/4+x,3/4+y,1/2-z
1/2-x,3/4+y,1/4+z
1/4+x,-y,1/4+z
1/2+x,1/2+y,z
3/4-x,3/4-y,z
1/2+x,3/4-y,1/4-z
3/4-x,1/2+y,1/4-z
1/2-x,1/2-y,-z
1/4+x,1/4+y,-z
1/2-x,1/4+y,3/4+z
1/4+x,1/2-y,3/4+z
loop_
_atom_site_type_symbol
_atom_site_label
_atom_site_fract_x
_atom_site_fract_y
_atom_site_fract_z
Si Si1 0.068305 0.446110 0.346153
Si Si2 0.045266 0.799681 0.293867
Si Si3 0.956446 0.812586 0.996948
Si Si4 0.875000 0.375000 0.875000
Si Si5 0.504894 0.058900 0.182540
Si Si6 0.309310 0.288820 0.034771
O O1 0.094682 0.375000 0.375000
O O2 0.123196 0.465119 0.291212
O O3 0.067991 0.507378 0.396533
O O4 0.991599 0.430679 0.321076
O O5 0.000000 0.750000 0.250000
O O6 0.030413 0.879205 0.278550
O O7 0.028963 0.790164 0.366810
O O8 0.960246 0.881595 0.037696
O O9 0.879331 0.783997 0.994509
O O10 0.005881 0.758332 0.027542
O O11 0.917595 0.422160 0.829082
O O12 0.250000 0.250000 0.000000
#
# Coordination Sequence:
#
# PCOD8286251 Si02
#       6
#    32  32  32   8  32  32
#     4  12  22  44  71  94 134 185 222 285 348 396
#     4  10  21  39  69  93 137 177 219 266 340 404
#     4  11  25  41  70  97 132 174 225 282 337 407
#     4   8  20  36  60  88 132 168 208 252 308 414
#     4  10  21  41  59  97 138 171 219 272 333 397
#     4  11  24  46  66  96 133 171 232 283 339 408
#
# _framework density 20.319793000000001
#
# number of rings (size 3 to 8) (size 9 to 14) (size 15 to 20)
#    0.000    1.524    5.714    0.000    5.333    2.286 
#    0.000    1.905    0.000    0.000    0.000    0.000 
#    0.000    0.000    0.000    0.000    0.000    0.000 
#
# Total GULP energy -520328.477622 kJ/mol
# GULP energy per Si atom -12388.773277 kJ/mol
# Density = 2.027354 g / cm^3
# Si number density = 20.319793 Si / 1000 Ang^3
#
#
#
# Elastic Constant Matrix: (Units=GPa)
#
#
# Indices 1 2 3 4 5 6 
#
# 1 161.5905 69.1643 46.1929 0.0000 0.0000 0.0000
# 2 69.1643 138.2280 54.3442 0.0000 0.0000 0.0000
# 3 46.1929 54.3442 65.6343 0.0000 0.0000 0.0000
# 4 0.0000 0.0000 0.0000 30.4996 0.0000 0.0000
# 5 0.0000 0.0000 0.0000 0.0000 29.4138 0.0000
# 6 0.0000 0.0000 0.0000 0.0000 0.0000 30.6559
#
#
#
# Elastic Compliance Matrix: (Units=1/GPa)
#
#
# Indices 1 2 3 4 5 6 
#
# 1 0.008416 -0.002791 -0.003612 0.000000 0.000000 0.000000
# 2 -0.002791 0.011651 -0.007683 0.000000 0.000000 0.000000
# 3 -0.003612 -0.007683 0.024140 0.000000 0.000000 0.000000
# 4 0.000000 0.000000 0.000000 0.032787 0.000000 0.000000
# 5 0.000000 0.000000 0.000000 0.000000 0.033998 0.000000
# 6 0.000000 0.000000 0.000000 0.000000 0.000000 0.032620
#
#
# Mechanical properties :
#
#
# Convention : Reuss Voigt Hill
#
# Bulk Modulus (GPa) = 62.36481 78.31728 70.34105
# Shear Modulus (GPa) = 28.22810 31.16395 29.69602
#
# Velocity S-wave (km/s) = 3.73123 3.92046 3.82702
# Velocity P-wave (km/s) = 7.02290 7.68892 7.36344
#
# Compressibility (1/GPa) = 0.01603468
#
# Stress axis : x y z
#
# Youngs Moduli (GPa) = 118.82761 85.82648 41.42567
#
# Poissons Ratio (x) = 0.23952 0.14963
# Poissons Ratio (y) = 0.33162 0.31828
# Poissons Ratio (z) = 0.42922 0.65941
#
# Static dielectric constant tensor:
#      x y z
#    x 3.589890 0.000000 0.000000 
#    y 0.000000 4.006880 0.000000 
#    z 0.000000 0.000000 3.553910 
# 
# 
# High freq. dielectric constant tensor:
#      x y z
#    x 1.817450 0.000000 0.000000 
#    y 0.000000 1.802110 0.000000 
#    z 0.000000 0.000000 1.759530 
# 
# From -- ./inp_files/44832.got.cif
#   From: 2010.03.12/outbox.cif.g09.slc.cpg/sg70_23_cif.got.tgz:44832.got - 2010.04.16 13:46:32.
