data_PCOD8286868
_publ_section_title
;
Structure prediction by ZEFSAII (Michael W. Deem and Ramdas Pophale) SiO2 
 PCOD8286868
Probable space group: I M M M
;
_chemical_formula_sum "Si O2"
_cell_formula_units_Z 104
_cell_length_a 27.208803
_cell_length_b 12.971548
_cell_length_c 19.136403
_cell_angle_alpha 90.000000
_cell_angle_beta 90.000000
_cell_angle_gamma 90.000000
_cell_volume 6754.007704
_symmetry_space_group_name_H-M "I M M M"
_symmetry_group_IT_number 71
_symmetry_cell_setting 'orthorhombic'
loop_
_space_group_symop_operation_xyz
x,y,z
-x,-y,z
x,-y,-z
-x,y,-z
-x,-y,-z
x,y,-z
-x,y,z
x,-y,z
1/2+x,1/2+y,1/2+z
1/2-x,1/2-y,1/2+z
1/2+x,1/2-y,1/2-z
1/2-x,1/2+y,1/2-z
1/2-x,1/2-y,1/2-z
1/2+x,1/2+y,1/2-z
1/2-x,1/2+y,1/2+z
1/2+x,1/2-y,1/2+z
loop_
_atom_site_type_symbol
_atom_site_label
_atom_site_fract_x
_atom_site_fract_y
_atom_site_fract_z
Si Si1 0.755125 0.313751 0.000000
Si Si2 0.851076 0.689840 0.358634
Si Si3 0.707027 0.617291 0.860185
Si Si4 0.554935 0.122191 0.779983
Si Si5 0.111436 0.621664 0.850762
Si Si6 0.689810 0.117613 0.000000
Si Si7 0.795468 0.620610 0.771541
Si Si8 0.864173 0.622263 0.000000
O O1 0.736607 0.374837 0.067643
O O2 0.736237 0.195220 0.000000
O O3 0.813885 0.313782 0.000000
O O4 0.841723 0.812696 0.362933
O O5 0.906579 0.673412 0.332918
O O6 0.844954 0.636572 0.433378
O O7 0.808929 0.641743 0.308755
O O8 0.690060 0.500000 0.847800
O O9 0.741868 0.660493 0.796720
O O10 0.500000 0.159914 0.798321
O O11 0.566772 0.156499 0.699818
O O12 0.559871 0.000000 0.788050
O O13 0.115701 0.500000 0.846629
O O14 0.161965 0.670199 0.820443
O O15 0.104161 0.655158 0.931558
O O16 0.709310 0.000000 0.000000
O O17 0.793975 0.500000 0.785548
O O18 0.852430 0.500000 0.000000
#
# Coordination Sequence:
#
# PCOD8286868 Si02
#       8
#     8  16  16  16  16   8  16   8
#     4  10  18  26  42  64  89 124 149 165 200 244
#     4  10  19  30  45  62  83 114 144 175 223 260
#     4  10  18  27  41  64  91 115 145 175 199 245
#     4   9  17  31  48  63  80 106 143 185 228 267
#     4   8  14  22  38  62  87 114 141 172 206 245
#     4  10  20  32  43  60  88 115 145 181 216 254
#     4   9  15  25  41  61  86 115 146 174 203 247
#     4  10  14  22  39  62  91 119 148 170 194 243
#
# _framework density 15.398266
#
# number of rings (size 3 to 8) (size 9 to 14) (size 15 to 20)
#    0.000    2.615    1.538    3.462    0.000    0.000 
#    0.000    0.769    0.000    4.154    0.000    0.000 
#    0.000    3.692    0.000    0.000    0.000    6.000 
#
# Total GULP energy -644386.070365 kJ/mol
# GULP energy per Si atom -12392.039815 kJ/mol
# Density = 1.536322 g / cm^3
# Si number density = 15.398266 Si / 1000 Ang^3
#
#
#
# Elastic Constant Matrix: (Units=GPa)
#
#
# Indices 1 2 3 4 5 6 
#
# 1 82.4026 32.6480 37.6357 0.0000 0.0000 0.0000
# 2 32.6480 51.1666 16.4961 0.0000 0.0000 0.0000
# 3 37.6357 16.4961 113.9742 0.0000 0.0000 0.0000
# 4 0.0000 0.0000 0.0000 15.3849 0.0000 0.0000
# 5 0.0000 0.0000 0.0000 0.0000 17.2719 0.0000
# 6 0.0000 0.0000 0.0000 0.0000 0.0000 16.0289
#
#
#
# Elastic Compliance Matrix: (Units=1/GPa)
#
#
# Indices 1 2 3 4 5 6 
#
# 1 0.018246 -0.010175 -0.004552 0.000000 0.000000 0.000000
# 2 -0.010175 0.026174 -0.000429 0.000000 0.000000 0.000000
# 3 -0.004552 -0.000429 0.010339 0.000000 0.000000 0.000000
# 4 0.000000 0.000000 0.000000 0.064999 0.000000 0.000000
# 5 0.000000 0.000000 0.000000 0.000000 0.057897 0.000000
# 6 0.000000 0.000000 0.000000 0.000000 0.000000 0.062387
#
#
# Mechanical properties :
#
#
# Convention : Reuss Voigt Hill
#
# Bulk Modulus (GPa) = 40.90260 46.78924 43.84592
# Shear Modulus (GPa) = 17.95309 20.45471 19.20390
#
# Velocity S-wave (km/s) = 3.41826 3.64865 3.53533
# Velocity P-wave (km/s) = 6.49616 6.94278 6.72318
#
# Compressibility (1/GPa) = 0.02444833
#
# Stress axis : x y z
#
# Youngs Moduli (GPa) = 54.80679 38.20546 96.71916
#
# Poissons Ratio (x) = 0.38872 0.44031
# Poissons Ratio (y) = 0.55763 0.04145
# Poissons Ratio (z) = 0.24950 0.01637
#
# Static dielectric constant tensor:
#      x y z
#    x 2.791130 0.000000 0.000000 
#    y 0.000000 2.687310 0.000000 
#    z 0.000000 0.000000 3.193390 
# 
# 
# High freq. dielectric constant tensor:
#      x y z
#    x 1.559250 0.000000 0.000000 
#    y 0.000000 1.555270 0.000000 
#    z 0.000000 0.000000 1.606260 
# 
# From -- ./inp_files/48868.got.cif
#   From: 2010.06.25/outbox.cif.g09.slc.cpg/sg71_25_cif.got.tgz:48868.got - 2010.06.28 04:59:45.
