data_PCOD8286494
_publ_section_title
;
Structure prediction by ZEFSAII (Michael W. Deem and Ramdas Pophale) SiO2 
 PCOD8286494
Probable space group: F D D D
;
_chemical_formula_sum "Si O2"
_cell_formula_units_Z 128
_cell_length_a 26.667636
_cell_length_b 13.357321
_cell_length_c 14.621943
_cell_angle_alpha 90.000000
_cell_angle_beta 90.000000
_cell_angle_gamma 90.000000
_cell_volume 5208.455622
_symmetry_space_group_name_H-M "F D D D"
_symmetry_group_IT_number 70
_space_group.IT_coordinate_system_code '2'
_symmetry_cell_setting 'orthorhombic'
loop_
_space_group_symop_operation_xyz
x,y,z
1/4-x,1/4-y,z
x,1/4-y,1/4-z
1/4-x,y,1/4-z
-x,-y,-z
3/4+x,3/4+y,-z
-x,3/4+y,3/4+z
3/4+x,-y,3/4+z
x,1/2+y,1/2+z
1/4-x,3/4-y,1/2+z
x,3/4-y,3/4-z
1/4-x,1/2+y,3/4-z
-x,1/2-y,1/2-z
3/4+x,1/4+y,1/2-z
-x,1/4+y,1/4+z
3/4+x,1/2-y,1/4+z
1/2+x,y,1/2+z
3/4-x,1/4-y,1/2+z
1/2+x,1/4-y,3/4-z
3/4-x,y,3/4-z
1/2-x,-y,1/2-z
1/4+x,3/4+y,1/2-z
1/2-x,3/4+y,1/4+z
1/4+x,-y,1/4+z
1/2+x,1/2+y,z
3/4-x,3/4-y,z
1/2+x,3/4-y,1/4-z
3/4-x,1/2+y,1/4-z
1/2-x,1/2-y,-z
1/4+x,1/4+y,-z
1/2-x,1/4+y,3/4+z
1/4+x,1/2-y,3/4+z
loop_
_atom_site_type_symbol
_atom_site_label
_atom_site_fract_x
_atom_site_fract_y
_atom_site_fract_z
Si Si1 0.375000 0.875000 0.732045
Si Si2 0.677199 0.763196 0.149549
Si Si3 0.446214 0.711701 0.941043
Si Si4 0.554926 0.488031 0.356798
Si Si5 0.011164 0.375000 0.375000
O O1 0.343194 0.801247 0.796591
O O2 0.415211 0.814057 0.671673
O O3 0.625000 0.710995 0.125000
O O4 0.682983 0.735032 0.254078
O O5 0.724302 0.716104 0.094224
O O6 0.673539 0.880736 0.128218
O O7 0.454848 0.659948 0.040218
O O8 0.494867 0.750703 0.885678
O O9 0.572155 0.375000 0.375000
#
# Coordination Sequence:
#
# PCOD8286494 Si02
#       5
#    16  32  32  32  16
#     4  12  28  48  78 114 154 210 252 320 395 457
#     4  11  24  40  70 107 140 190 245 311 378 461
#     4  11  26  46  73 105 151 197 252 314 383 462
#     4  11  26  47  72 105 152 199 254 317 382 454
#     4  10  23  42  72 106 142 186 248 321 380 440
#
# _framework density 24.575424000000002
#
# number of rings (size 3 to 8) (size 9 to 14) (size 15 to 20)
#    0.000    1.000    0.000    5.625   12.250    6.000 
#    0.000    1.250    0.000    0.000    0.000    0.000 
#    0.000    0.000    0.000    0.000    0.000    0.000 
#
# Total GULP energy -396710.519862 kJ/mol
# GULP energy per Si atom -12397.203746 kJ/mol
# Density = 2.451949 g / cm^3
# Si number density = 24.575424 Si / 1000 Ang^3
#
#
#
# Elastic Constant Matrix: (Units=GPa)
#
#
# Indices 1 2 3 4 5 6 
#
# 1 130.0435 38.4915 25.9685 0.0000 0.0000 0.0000
# 2 38.4915 145.2029 24.2258 0.0000 0.0000 0.0000
# 3 25.9685 24.2258 21.6090 0.0000 0.0000 0.0000
# 4 0.0000 0.0000 0.0000 110.5414 0.0000 0.0000
# 5 0.0000 0.0000 0.0000 0.0000 30.2059 0.0000
# 6 0.0000 0.0000 0.0000 0.0000 0.0000 37.7030
#
#
#
# Elastic Compliance Matrix: (Units=1/GPa)
#
#
# Indices 1 2 3 4 5 6 
#
# 1 0.010195 -0.000810 -0.011343 0.000000 0.000000 0.000000
# 2 -0.000810 0.008536 -0.008596 0.000000 0.000000 0.000000
# 3 -0.011343 -0.008596 0.069546 0.000000 0.000000 0.000000
# 4 0.000000 0.000000 0.000000 0.009046 0.000000 0.000000
# 5 0.000000 0.000000 0.000000 0.000000 0.033106 0.000000
# 6 0.000000 0.000000 0.000000 0.000000 0.000000 0.026523
#
#
# Mechanical properties :
#
#
# Convention : Reuss Voigt Hill
#
# Bulk Modulus (GPa) = 21.37774 52.69188 37.03481
# Shear Modulus (GPa) = 23.35975 49.56804 36.46390
#
# Velocity S-wave (km/s) = 3.08642 4.49595 3.85613
# Velocity P-wave (km/s) = 4.62807 6.95980 5.91007
#
# Compressibility (1/GPa) = 0.04677763
#
# Stress axis : x y z
#
# Youngs Moduli (GPa) = 98.09084 117.15358 14.37897
#
# Poissons Ratio (x) = 0.09489 0.16311
# Poissons Ratio (y) = 0.07945 0.12360
# Poissons Ratio (z) = 1.11268 1.00707
#
# Static dielectric constant tensor:
#      x y z
#    x 5.078420 0.000000 0.000000 
#    y 0.000000 4.660650 0.000000 
#    z 0.000000 0.000000 3.014290 
# 
# 
# High freq. dielectric constant tensor:
#      x y z
#    x 1.996300 0.000000 0.000000 
#    y 0.000000 1.993390 0.000000 
#    z 0.000000 0.000000 1.969970 
# 
# From -- ./inp_files/33827.got.cif
#   From: 2010.03.12/outbox.cif.g09.slc.cpg/sg70_17_cif.got.tgz:33827.got - 2010.04.16 13:46:32.
