data_PCOD8286556
_publ_section_title
;
Structure prediction by ZEFSAII (Michael W. Deem and Ramdas Pophale) SiO2 
 PCOD8286556
Probable space group: F D D D
;
_chemical_formula_sum "Si O2"
_cell_formula_units_Z 192
_cell_length_a 26.782927
_cell_length_b 11.980246
_cell_length_c 25.059454
_cell_angle_alpha 90.000000
_cell_angle_beta 90.000000
_cell_angle_gamma 90.000000
_cell_volume 8040.728122
_symmetry_space_group_name_H-M "F D D D"
_symmetry_group_IT_number 70
_space_group.IT_coordinate_system_code '2'
_symmetry_cell_setting 'orthorhombic'
loop_
_space_group_symop_operation_xyz
x,y,z
1/4-x,1/4-y,z
x,1/4-y,1/4-z
1/4-x,y,1/4-z
-x,-y,-z
3/4+x,3/4+y,-z
-x,3/4+y,3/4+z
3/4+x,-y,3/4+z
x,1/2+y,1/2+z
1/4-x,3/4-y,1/2+z
x,3/4-y,3/4-z
1/4-x,1/2+y,3/4-z
-x,1/2-y,1/2-z
3/4+x,1/4+y,1/2-z
-x,1/4+y,1/4+z
3/4+x,1/2-y,1/4+z
1/2+x,y,1/2+z
3/4-x,1/4-y,1/2+z
1/2+x,1/4-y,3/4-z
3/4-x,y,3/4-z
1/2-x,-y,1/2-z
1/4+x,3/4+y,1/2-z
1/2-x,3/4+y,1/4+z
1/4+x,-y,1/4+z
1/2+x,1/2+y,z
3/4-x,3/4-y,z
1/2+x,3/4-y,1/4-z
3/4-x,1/2+y,1/4-z
1/2-x,1/2-y,-z
1/4+x,1/4+y,-z
1/2-x,1/4+y,3/4+z
1/4+x,1/2-y,3/4+z
loop_
_atom_site_type_symbol
_atom_site_label
_atom_site_fract_x
_atom_site_fract_y
_atom_site_fract_z
Si Si1 0.443288 0.331054 0.601874
Si Si2 0.625000 0.625000 0.488878
Si Si3 0.427690 0.898765 0.291355
Si Si4 0.878483 0.625000 0.125000
Si Si5 0.181892 0.534277 0.081959
Si Si6 0.949335 0.211882 0.367104
Si Si7 0.456874 0.014530 0.189843
O O1 0.423329 0.399129 0.549400
O O2 0.405023 0.230565 0.611148
O O3 0.499192 0.284128 0.598214
O O4 0.443910 0.411960 0.651824
O O5 0.645398 0.530056 0.529962
O O6 0.375000 0.875000 0.262466
O O7 0.454895 0.785170 0.312581
O O8 0.460664 0.965907 0.249260
O O9 0.412289 0.977907 0.341493
O O10 0.914001 0.605868 0.177273
O O11 0.162743 0.625000 0.125000
O O12 0.179810 0.411307 0.106512
O O13 0.238802 0.568234 0.068653
#
# Coordination Sequence:
#
# PCOD8286556 Si02
#       7
#    32  16  32  16  32  32  32
#     4  11  24  43  67 104 140 184 244 297 355 443
#     4  12  25  44  68 104 142 181 242 290 360 432
#     4  11  23  43  72 105 140 188 240 300 366 441
#     4  12  20  40  70  97 147 184 234 302 354 432
#     4  11  26  45  68 100 147 194 243 298 365 453
#     4  10  24  46  69 102 146 188 247 302 367 431
#     4  11  24  45  67 106 146 187 243 301 373 430
#
# _framework density 23.878435
#
# number of rings (size 3 to 8) (size 9 to 14) (size 15 to 20)
#    0.000    1.000    2.500    4.250    0.000    9.333 
#    0.000    3.333    0.000    0.000    0.000    0.000 
#    0.000    0.000    0.000    0.000    0.000    0.000 
#
# Total GULP energy -594683.442384 kJ/mol
# GULP energy per Si atom -12389.238383 kJ/mol
# Density = 2.382409 g / cm^3
# Si number density = 23.878435 Si / 1000 Ang^3
#
#
#
# Elastic Constant Matrix: (Units=GPa)
#
#
# Indices 1 2 3 4 5 6 
#
# 1 113.1975 29.3362 39.4936 0.0000 0.0000 0.0000
# 2 29.3362 114.0873 49.3875 0.0000 0.0000 0.0000
# 3 39.4936 49.3875 143.2328 0.0000 0.0000 0.0000
# 4 0.0000 0.0000 0.0000 33.3548 0.0000 0.0000
# 5 0.0000 0.0000 0.0000 0.0000 20.2830 0.0000
# 6 0.0000 0.0000 0.0000 0.0000 0.0000 -10.0072
#
#
#
# Elastic Compliance Matrix: (Units=1/GPa)
#
#
# Indices 1 2 3 4 5 6 
#
# 1 0.010024 -0.001623 -0.002204 0.000000 0.000000 0.000000
# 2 -0.001623 0.010566 -0.003196 0.000000 0.000000 0.000000
# 3 -0.002204 -0.003196 0.008691 0.000000 0.000000 0.000000
# 4 0.000000 0.000000 0.000000 0.029981 0.000000 0.000000
# 5 0.000000 0.000000 0.000000 0.000000 0.049302 0.000000
# 6 0.000000 0.000000 0.000000 0.000000 0.000000 -0.099928
#
#
# Mechanical properties :
#
#
# Convention : Reuss Voigt Hill
#
# Bulk Modulus (GPa) = 65.63885 67.43915 66.53900
# Shear Modulus (GPa) = 180.11197 25.54613 102.82905
#
# Velocity S-wave (km/s) = 8.69439 3.27439 6.56940
# Velocity P-wave (km/s) = 11.32865 6.52683 9.24494
#
# Compressibility (1/GPa) = 0.01523488
#
# Stress axis : x y z
#
# Youngs Moduli (GPa) = 99.76232 94.64320 115.05820
#
# Poissons Ratio (x) = 0.15364 0.25360
# Poissons Ratio (y) = 0.16195 0.36768
# Poissons Ratio (z) = 0.21989 0.30244
#
# Static dielectric constant tensor:
#      x y z
#    x 4.857120 0.000000 0.000000 
#    y 0.000000 4.325820 0.000000 
#    z 0.000000 0.000000 4.094910 
# 
# 
# High freq. dielectric constant tensor:
#      x y z
#    x 1.968690 0.000000 0.000000 
#    y 0.000000 1.938850 0.000000 
#    z 0.000000 0.000000 1.943180 
# 
# From -- ./inp_files/62238.got.cif
#   From: 2010.03.12/outbox.cif.g09.slc.cpg/sg70_32_cif.got.tgz:62238.got - 2010.04.16 13:46:32.
