data_PCOD8286994
_publ_section_title
;
Structure prediction by ZEFSAII (Michael W. Deem and Ramdas Pophale) SiO2 
 PCOD8286994
Probable space group: I M M M
;
_chemical_formula_sum "Si O2"
_cell_formula_units_Z 104
_cell_length_a 18.288905
_cell_length_b 15.401218
_cell_length_c 27.012762
_cell_angle_alpha 90.000000
_cell_angle_beta 90.000000
_cell_angle_gamma 90.000000
_cell_volume 7608.722839
_symmetry_space_group_name_H-M "I M M M"
_symmetry_group_IT_number 71
_symmetry_cell_setting 'orthorhombic'
loop_
_space_group_symop_operation_xyz
x,y,z
-x,-y,z
x,-y,-z
-x,y,-z
-x,-y,-z
x,y,-z
-x,y,z
x,-y,z
1/2+x,1/2+y,1/2+z
1/2-x,1/2-y,1/2+z
1/2+x,1/2-y,1/2-z
1/2-x,1/2+y,1/2-z
1/2-x,1/2-y,1/2-z
1/2+x,1/2+y,1/2-z
1/2-x,1/2+y,1/2+z
1/2+x,1/2-y,1/2+z
loop_
_atom_site_type_symbol
_atom_site_label
_atom_site_fract_x
_atom_site_fract_y
_atom_site_fract_z
Si Si1 0.830057 0.166930 0.440667
Si Si2 0.919090 0.000000 0.441432
Si Si3 0.413546 0.096410 0.791901
Si Si4 0.081590 0.396862 0.816798
Si Si5 0.919366 0.397433 0.000000
Si Si6 0.322830 0.103299 0.591715
Si Si7 0.086479 0.325533 0.392240
Si Si8 0.413556 0.000000 0.054615
O O1 0.823756 0.173281 0.500000
O O2 0.877402 0.085071 0.423177
O O3 0.751195 0.156496 0.415859
O O4 0.868601 0.250712 0.418596
O O5 0.923971 0.000000 0.500000
O O6 0.000000 0.000000 0.417914
O O7 0.500000 0.085245 0.793182
O O8 0.390465 0.132794 0.737742
O O9 0.390778 0.165241 0.834354
O O10 0.379548 0.000000 0.801424
O O11 0.076372 0.500000 0.818149
O O12 0.140343 0.365336 0.857102
O O13 0.000000 0.359424 0.828173
O O14 0.877220 0.366767 0.048615
O O15 0.926437 0.500000 0.000000
O O16 0.000000 0.355083 0.000000
O O17 0.307437 0.000000 0.589794
O O18 0.112544 0.414637 0.417137
O O19 0.000000 0.308029 0.399224
O O20 0.500000 0.000000 0.051506
O O21 0.378608 0.000000 0.000000
#
# Coordination Sequence:
#
# PCOD8286994 Si02
#       8
#    16   8  16  16   8  16  16   8
#     4  11  20  29  40  56  82 115 145 177 211 239
#     4   9  18  30  42  51  68 106 156 189 200 219
#     4   8  13  25  43  62  82 104 130 168 213 253
#     4   8  14  24  42  64  83 104 135 167 203 255
#     4   9  16  24  40  60  80 107 138 167 203 250
#     4  10  17  27  40  57  84 113 139 170 206 246
#     4  10  18  28  43  61  81 106 142 177 211 250
#     4   9  16  26  40  59  80 100 126 170 215 253
#
# _framework density 13.668523
#
# number of rings (size 3 to 8) (size 9 to 14) (size 15 to 20)
#    0.000    2.692    2.308    2.308    0.000    3.385 
#    0.000    0.769    0.000    0.000    0.000    0.000 
#    0.000    0.000    0.000    3.462    0.000    0.000 
#
# Total GULP energy -644439.429092 kJ/mol
# GULP energy per Si atom -12393.065944 kJ/mol
# Density = 1.363741 g / cm^3
# Si number density = 13.668523 Si / 1000 Ang^3
#
#
#
# Elastic Constant Matrix: (Units=GPa)
#
#
# Indices 1 2 3 4 5 6 
#
# 1 85.1067 37.6075 46.4315 0.0000 0.0000 0.0000
# 2 37.6075 67.0791 36.9945 0.0000 0.0000 0.0000
# 3 46.4315 36.9945 111.4194 0.0000 0.0000 0.0000
# 4 0.0000 0.0000 0.0000 14.1206 0.0000 0.0000
# 5 0.0000 0.0000 0.0000 0.0000 37.2331 0.0000
# 6 0.0000 0.0000 0.0000 0.0000 0.0000 8.5895
#
#
#
# Elastic Compliance Matrix: (Units=1/GPa)
#
#
# Indices 1 2 3 4 5 6 
#
# 1 0.017615 -0.007134 -0.004972 0.000000 0.000000 0.000000
# 2 -0.007134 0.021138 -0.004046 0.000000 0.000000 0.000000
# 3 -0.004972 -0.004046 0.012390 0.000000 0.000000 0.000000
# 4 0.000000 0.000000 0.000000 0.070818 0.000000 0.000000
# 5 0.000000 0.000000 0.000000 0.000000 0.026858 0.000000
# 6 0.000000 0.000000 0.000000 0.000000 0.000000 0.116421
#
#
# Mechanical properties :
#
#
# Convention : Reuss Voigt Hill
#
# Bulk Modulus (GPa) = 53.07616 56.18579 54.63098
# Shear Modulus (GPa) = 16.45693 21.49343 18.97518
#
# Velocity S-wave (km/s) = 3.47364 3.96975 3.72995
# Velocity P-wave (km/s) = 7.41643 7.88715 7.65541
#
# Compressibility (1/GPa) = 0.01884085
#
# Stress axis : x y z
#
# Youngs Moduli (GPa) = 56.77062 47.30717 80.70759
#
# Poissons Ratio (x) = 0.33747 0.40128
# Poissons Ratio (y) = 0.40497 0.32653
# Poissons Ratio (z) = 0.28226 0.19140
#
# Static dielectric constant tensor:
#      x y z
#    x 2.621040 0.000000 0.000000 
#    y 0.000000 2.456890 0.000000 
#    z 0.000000 0.000000 3.091470 
# 
# 
# High freq. dielectric constant tensor:
#      x y z
#    x 1.498810 0.000000 0.000000 
#    y 0.000000 1.480560 0.000000 
#    z 0.000000 0.000000 1.529280 
# 
# From -- ./inp_files/66173.got.cif
#   From: 2010.06.25/outbox.cif.g09.slc.cpg/sg71_34_cif.got.tgz:66173.got - 2010.06.28 04:59:45.
