data_PCOD8286045
_publ_section_title
;
Structure prediction by ZEFSAII (Michael W. Deem and Ramdas Pophale) SiO2 
 PCOD8286045
Probable space group: F D D D
;
_chemical_formula_sum "Si O2"
_cell_formula_units_Z 176
_cell_length_a 11.143184
_cell_length_b 29.147517
_cell_length_c 23.793860
_cell_angle_alpha 90.000000
_cell_angle_beta 90.000000
_cell_angle_gamma 90.000000
_cell_volume 7728.154004
_symmetry_space_group_name_H-M "F D D D"
_symmetry_group_IT_number 70
_space_group.IT_coordinate_system_code '2'
_symmetry_cell_setting 'orthorhombic'
loop_
_space_group_symop_operation_xyz
x,y,z
1/4-x,1/4-y,z
x,1/4-y,1/4-z
1/4-x,y,1/4-z
-x,-y,-z
3/4+x,3/4+y,-z
-x,3/4+y,3/4+z
3/4+x,-y,3/4+z
x,1/2+y,1/2+z
1/4-x,3/4-y,1/2+z
x,3/4-y,3/4-z
1/4-x,1/2+y,3/4-z
-x,1/2-y,1/2-z
3/4+x,1/4+y,1/2-z
-x,1/4+y,1/4+z
3/4+x,1/2-y,1/4+z
1/2+x,y,1/2+z
3/4-x,1/4-y,1/2+z
1/2+x,1/4-y,3/4-z
3/4-x,y,3/4-z
1/2-x,-y,1/2-z
1/4+x,3/4+y,1/2-z
1/2-x,3/4+y,1/4+z
1/4+x,-y,1/4+z
1/2+x,1/2+y,z
3/4-x,3/4-y,z
1/2+x,3/4-y,1/4-z
3/4-x,1/2+y,1/4-z
1/2-x,1/2-y,-z
1/4+x,1/4+y,-z
1/2-x,1/4+y,3/4+z
1/4+x,1/2-y,3/4+z
loop_
_atom_site_type_symbol
_atom_site_label
_atom_site_fract_x
_atom_site_fract_y
_atom_site_fract_z
Si Si1 0.364706 0.161849 0.537068
Si Si2 0.338067 0.514095 0.632338
Si Si3 0.770243 0.966399 0.034204
Si Si4 0.256085 0.072442 0.234364
Si Si5 0.972745 0.546481 0.298203
Si Si6 0.625000 0.125000 0.257905
O O1 0.369253 0.195783 0.590602
O O2 0.398296 0.187870 0.478049
O O3 0.461014 0.120563 0.545943
O O4 0.230059 0.143210 0.533086
O O5 0.448415 0.479855 0.651146
O O6 0.278371 0.532110 0.689427
O O7 0.234895 0.483148 0.604444
O O8 0.870625 0.933415 0.005055
O O9 0.751058 0.015210 0.005403
O O10 0.339859 0.067468 0.290074
O O11 0.073071 0.586079 0.298587
#
# Coordination Sequence:
#
# PCOD8286045 Si02
#       6
#    32  32  32  32  32  16
#     4  10  22  40  62  90 124 170 211 270 328 385
#     4  10  20  37  62  92 122 161 222 253 323 395
#     4  10  21  37  61  91 125 163 205 266 322 387
#     4  10  20  38  61  91 128 163 204 264 326 385
#     4   9  20  37  59  83 120 163 201 258 321 381
#     4  10  22  44  59  80 128 164 208 271 330 372
#
# _framework density 22.773873999999999
#
# number of rings (size 3 to 8) (size 9 to 14) (size 15 to 20)
#    0.000    2.182    0.000    3.273    0.000    9.455 
#    3.273   26.364    0.000    0.000    0.000    0.000 
#    0.000    0.000    0.000    0.000    0.000    0.000 
#
# Total GULP energy -545176.884091 kJ/mol
# GULP energy per Si atom -12390.383729 kJ/mol
# Density = 2.272204 g / cm^3
# Si number density = 22.773874 Si / 1000 Ang^3
#
#
#
# Elastic Constant Matrix: (Units=GPa)
#
#
# Indices 1 2 3 4 5 6 
#
# 1 98.1318 60.7458 31.2227 0.0000 0.0000 0.0000
# 2 60.7458 89.8625 47.0071 0.0000 0.0000 0.0000
# 3 31.2227 47.0071 98.5071 0.0000 0.0000 0.0000
# 4 0.0000 0.0000 0.0000 26.9805 0.0000 0.0000
# 5 0.0000 0.0000 0.0000 0.0000 23.0199 0.0000
# 6 0.0000 0.0000 0.0000 0.0000 0.0000 25.9871
#
#
#
# Elastic Compliance Matrix: (Units=1/GPa)
#
#
# Indices 1 2 3 4 5 6 
#
# 1 0.017524 -0.011915 0.000131 0.000000 0.000000 0.000000
# 2 -0.011915 0.022931 -0.007166 0.000000 0.000000 0.000000
# 3 0.000131 -0.007166 0.013530 0.000000 0.000000 0.000000
# 4 0.000000 0.000000 0.000000 0.037064 0.000000 0.000000
# 5 0.000000 0.000000 0.000000 0.000000 0.043441 0.000000
# 6 0.000000 0.000000 0.000000 0.000000 0.000000 0.038481
#
#
# Mechanical properties :
#
#
# Convention : Reuss Voigt Hill
#
# Bulk Modulus (GPa) = 62.16780 62.71696 62.44238
# Shear Modulus (GPa) = 23.12350 25.03254 24.07802
#
# Velocity S-wave (km/s) = 3.18992 3.31898 3.25509
# Velocity P-wave (km/s) = 6.39723 6.50279 6.45023
#
# Compressibility (1/GPa) = 0.01608550
#
# Stress axis : x y z
#
# Youngs Moduli (GPa) = 57.06437 43.60955 73.91231
#
# Poissons Ratio (x) = 0.51959 -0.00970
# Poissons Ratio (y) = 0.67990 0.52965
# Poissons Ratio (z) = -0.00749 0.31251
#
# Static dielectric constant tensor:
#      x y z
#    x 4.111940 0.000000 0.000000 
#    y 0.000000 4.419240 0.000000 
#    z 0.000000 0.000000 3.947560 
# 
# 
# High freq. dielectric constant tensor:
#      x y z
#    x 1.887460 0.000000 0.000000 
#    y 0.000000 1.918320 0.000000 
#    z 0.000000 0.000000 1.868920 
# 
# From -- ./inp_files/57756.got.cif
#   From: 2010.03.12/outbox.cif.g09.slc.cpg/sg70_29_cif.got.tgz:57756.got - 2010.04.16 13:46:32.
