data_PCOD8286701
_publ_section_title
;
Structure prediction by ZEFSAII (Michael W. Deem and Ramdas Pophale) SiO2 
 PCOD8286701
Probable space group: F D D D
;
_chemical_formula_sum "Si O2"
_cell_formula_units_Z 160
_cell_length_a 9.973583
_cell_length_b 30.873344
_cell_length_c 24.972185
_cell_angle_alpha 90.000000
_cell_angle_beta 90.000000
_cell_angle_gamma 90.000000
_cell_volume 7689.381737
_symmetry_space_group_name_H-M "F D D D"
_symmetry_group_IT_number 70
_space_group.IT_coordinate_system_code '2'
_symmetry_cell_setting 'orthorhombic'
loop_
_space_group_symop_operation_xyz
x,y,z
1/4-x,1/4-y,z
x,1/4-y,1/4-z
1/4-x,y,1/4-z
-x,-y,-z
3/4+x,3/4+y,-z
-x,3/4+y,3/4+z
3/4+x,-y,3/4+z
x,1/2+y,1/2+z
1/4-x,3/4-y,1/2+z
x,3/4-y,3/4-z
1/4-x,1/2+y,3/4-z
-x,1/2-y,1/2-z
3/4+x,1/4+y,1/2-z
-x,1/4+y,1/4+z
3/4+x,1/2-y,1/4+z
1/2+x,y,1/2+z
3/4-x,1/4-y,1/2+z
1/2+x,1/4-y,3/4-z
3/4-x,y,3/4-z
1/2-x,-y,1/2-z
1/4+x,3/4+y,1/2-z
1/2-x,3/4+y,1/4+z
1/4+x,-y,1/4+z
1/2+x,1/2+y,z
3/4-x,3/4-y,z
1/2+x,3/4-y,1/4-z
3/4-x,1/2+y,1/4-z
1/2-x,1/2-y,-z
1/4+x,1/4+y,-z
1/2-x,1/4+y,3/4+z
1/4+x,1/2-y,3/4+z
loop_
_atom_site_type_symbol
_atom_site_label
_atom_site_fract_x
_atom_site_fract_y
_atom_site_fract_z
Si Si1 0.532479 0.382652 0.433575
Si Si2 0.626353 0.441260 0.006877
Si Si3 0.400507 0.969899 0.198177
Si Si4 0.358715 0.424345 0.589150
Si Si5 0.315426 0.703776 0.992803
O O1 0.591373 0.375000 0.375000
O O2 0.375000 0.375000 0.436115
O O3 0.611026 0.352951 0.475109
O O4 0.564492 0.432221 0.448545
O O5 0.473290 0.446046 0.024173
O O6 0.719167 0.438482 0.060290
O O7 0.660514 0.479665 0.964883
O O8 0.387032 0.960579 0.134688
O O9 0.537614 0.950057 0.218940
O O10 0.375000 0.375000 0.612090
O O11 0.473750 0.424905 0.545120
O O12 0.250000 0.750000 0.000000
#
# Coordination Sequence:
#
# PCOD8286701 Si02
#       5
#    32  32  32  32  32
#     4  11  23  42  69  93 130 177 217 270 332 391
#     4  11  23  48  61  97 137 173 217 273 341 397
#     4  11  27  39  70  96 133 175 217 277 335 396
#     4  12  24  45  70  99 135 180 223 276 340 403
#     4  12  23  44  67 101 130 168 232 275 319 404
#
# _framework density 20.807914
#
# number of rings (size 3 to 8) (size 9 to 14) (size 15 to 20)
#    0.000    0.600    6.000    1.200    5.600    1.600 
#    0.000    2.000    0.000    0.000    0.000    0.000 
#    0.000    0.000    0.000    0.000    0.000    0.000 
#
# Total GULP energy -495864.886930 kJ/mol
# GULP energy per Si atom -12396.622173 kJ/mol
# Density = 2.076055 g / cm^3
# Si number density = 20.807914 Si / 1000 Ang^3
#
#
#
# Elastic Constant Matrix: (Units=GPa)
#
#
# Indices 1 2 3 4 5 6 
#
# 1 112.3841 15.4800 20.1460 0.0000 0.0000 0.0000
# 2 15.4800 114.7875 51.8842 0.0000 0.0000 0.0000
# 3 20.1460 51.8842 127.5007 0.0000 0.0000 0.0000
# 4 0.0000 0.0000 0.0000 32.6958 0.0000 0.0000
# 5 0.0000 0.0000 0.0000 0.0000 31.8939 0.0000
# 6 0.0000 0.0000 0.0000 0.0000 0.0000 26.4989
#
#
#
# Elastic Compliance Matrix: (Units=1/GPa)
#
#
# Indices 1 2 3 4 5 6 
#
# 1 0.009205 -0.000716 -0.001163 0.000000 0.000000 0.000000
# 2 -0.000716 0.010731 -0.004254 0.000000 0.000000 0.000000
# 3 -0.001163 -0.004254 0.009758 0.000000 0.000000 0.000000
# 4 0.000000 0.000000 0.000000 0.030585 0.000000 0.000000
# 5 0.000000 0.000000 0.000000 0.000000 0.031354 0.000000
# 6 0.000000 0.000000 0.000000 0.000000 0.000000 0.037737
#
#
# Mechanical properties :
#
#
# Convention : Reuss Voigt Hill
#
# Bulk Modulus (GPa) = 57.37622 58.85474 58.11548
# Shear Modulus (GPa) = 33.91095 36.02854 34.96974
#
# Velocity S-wave (km/s) = 4.04135 4.16562 4.10396
# Velocity P-wave (km/s) = 7.02928 7.17515 7.10259
#
# Compressibility (1/GPa) = 0.01742882
#
# Stress axis : x y z
#
# Youngs Moduli (GPa) = 108.63484 93.18858 102.48136
#
# Poissons Ratio (x) = 0.06668 0.11922
# Poissons Ratio (y) = 0.07774 0.43592
# Poissons Ratio (z) = 0.12637 0.39640
#
# Static dielectric constant tensor:
#      x y z
#    x 3.864740 0.000000 0.000000 
#    y 0.000000 3.920810 0.000000 
#    z 0.000000 0.000000 4.030240 
# 
# 
# High freq. dielectric constant tensor:
#      x y z
#    x 1.820750 0.000000 0.000000 
#    y 0.000000 1.823670 0.000000 
#    z 0.000000 0.000000 1.818260 
# 
# From -- ./inp_files/50287.got.cif
#   From: 2010.03.12/outbox.cif.g09.slc.cpg/sg70_26_cif.got.tgz:50287.got - 2010.04.16 13:46:32.
