data_PCOD8286912
_publ_section_title
;
Structure prediction by ZEFSAII (Michael W. Deem and Ramdas Pophale) SiO2 
 PCOD8286912
Probable space group: I M M M
;
_chemical_formula_sum "Si O2"
_cell_formula_units_Z 88
_cell_length_a 8.987631
_cell_length_b 19.648726
_cell_length_c 27.162663
_cell_angle_alpha 90.000000
_cell_angle_beta 90.000000
_cell_angle_gamma 90.000000
_cell_volume 4796.804024
_symmetry_space_group_name_H-M "I M M M"
_symmetry_group_IT_number 71
_symmetry_cell_setting 'orthorhombic'
loop_
_space_group_symop_operation_xyz
x,y,z
-x,-y,z
x,-y,-z
-x,y,-z
-x,-y,-z
x,y,-z
-x,y,z
x,-y,z
1/2+x,1/2+y,1/2+z
1/2-x,1/2-y,1/2+z
1/2+x,1/2-y,1/2-z
1/2-x,1/2+y,1/2-z
1/2-x,1/2-y,1/2-z
1/2+x,1/2+y,1/2-z
1/2-x,1/2+y,1/2+z
1/2+x,1/2-y,1/2+z
loop_
_atom_site_type_symbol
_atom_site_label
_atom_site_fract_x
_atom_site_fract_y
_atom_site_fract_z
Si Si1 0.835846 0.500000 0.601717
Si Si2 0.164370 0.148293 0.219316
Si Si3 0.667168 0.000000 0.680938
Si Si4 0.247992 0.500000 0.290324
Si Si5 0.321281 0.361181 0.827689
Si Si6 0.822071 0.765328 0.870258
Si Si7 0.826138 0.362041 0.557678
O O1 0.851884 0.500000 0.660760
O O2 0.757858 0.431452 0.581455
O O3 0.000000 0.500000 0.578239
O O4 0.152595 0.067763 0.208236
O O5 0.237475 0.160753 0.272951
O O6 0.244368 0.189263 0.175261
O O7 0.000000 0.178388 0.221578
O O8 0.651968 0.000000 0.740403
O O9 0.757373 0.064508 0.660370
O O10 0.500000 0.000000 0.659508
O O11 0.500000 0.363086 0.830686
O O12 0.250832 0.309158 0.866595
O O13 0.764909 0.798672 0.920564
O O14 0.000000 0.760521 0.871140
O O15 0.797365 0.363658 0.500000
O O16 0.000000 0.353388 0.570761
#
# Coordination Sequence:
#
# PCOD8286912 Si02
#       7
#     8  16   8   8  16  16  16
#     4  10  18  31  51  73  99 137 186 230 267 306
#     4   9  18  30  47  71 103 140 178 218 260 310
#     4  10  20  33  51  79 110 138 173 218 260 308
#     4  10  16  29  47  72 103 145 182 221 260 310
#     4  10  20  35  53  75 104 141 176 210 258 319
#     4  11  21  34  52  76 104 135 174 223 273 318
#     4  10  21  37  55  75 102 139 183 229 274 321
#
# _framework density 18.345548000000001
#
# number of rings (size 3 to 8) (size 9 to 14) (size 15 to 20)
#    0.000    2.000    1.818    2.727    0.000    3.636 
#    0.000    2.273    0.000    1.091    0.000    0.636 
#    0.000    5.091    0.000    0.000    0.000    0.000 
#
# Total GULP energy -545376.448905 kJ/mol
# GULP energy per Si atom -12394.919293 kJ/mol
# Density = 1.830379 g / cm^3
# Si number density = 18.345548 Si / 1000 Ang^3
#
#
#
# Elastic Constant Matrix: (Units=GPa)
#
#
# Indices 1 2 3 4 5 6 
#
# 1 83.2538 44.1186 27.1556 0.0000 0.0000 0.0000
# 2 44.1186 134.7452 54.1223 0.0000 0.0000 0.0000
# 3 27.1556 54.1223 66.0507 0.0000 0.0000 0.0000
# 4 0.0000 0.0000 0.0000 26.7939 0.0000 0.0000
# 5 0.0000 0.0000 0.0000 0.0000 21.6838 0.0000
# 6 0.0000 0.0000 0.0000 0.0000 0.0000 25.7396
#
#
#
# Elastic Compliance Matrix: (Units=1/GPa)
#
#
# Indices 1 2 3 4 5 6 
#
# 1 0.014970 -0.003621 -0.003187 0.000000 0.000000 0.000000
# 2 -0.003621 0.011938 -0.008293 0.000000 0.000000 0.000000
# 3 -0.003187 -0.008293 0.023246 0.000000 0.000000 0.000000
# 4 0.000000 0.000000 0.000000 0.037322 0.000000 0.000000
# 5 0.000000 0.000000 0.000000 0.000000 0.046117 0.000000
# 6 0.000000 0.000000 0.000000 0.000000 0.000000 0.038851
#
#
# Mechanical properties :
#
#
# Convention : Reuss Voigt Hill
#
# Bulk Modulus (GPa) = 50.12496 59.42695 54.77595
# Shear Modulus (GPa) = 23.88929 25.42034 24.65482
#
# Velocity S-wave (km/s) = 3.61249 3.72646 3.66992
# Velocity P-wave (km/s) = 6.69195 7.13994 6.91957
#
# Compressibility (1/GPa) = 0.01995014
#
# Stress axis : x y z
#
# Youngs Moduli (GPa) = 66.79955 83.76409 43.01810
#
# Poissons Ratio (x) = 0.30333 0.13712
# Poissons Ratio (y) = 0.24190 0.35677
# Poissons Ratio (z) = 0.21292 0.69469
#
# Static dielectric constant tensor:
#      x y z
#    x 3.085750 0.000000 0.000000 
#    y 0.000000 3.433310 0.000000 
#    z 0.000000 0.000000 3.111760 
# 
# 
# High freq. dielectric constant tensor:
#      x y z
#    x 1.694490 0.000000 0.000000 
#    y 0.000000 1.716670 0.000000 
#    z 0.000000 0.000000 1.676250 
# 
# From -- ./inp_files/12647.got.cif
#   From: 2010.06.25/outbox.cif.g09.slc.cpg/sg71_7_cif.got.tgz:12647.got - 2010.06.28 04:59:45.
