data_PCOD8286136
_publ_section_title
;
Structure prediction by ZEFSAII (Michael W. Deem and Ramdas Pophale) SiO2 
 PCOD8286136
Probable space group: F D D D
;
_chemical_formula_sum "Si O2"
_cell_formula_units_Z 216
_cell_length_a 14.992795
_cell_length_b 24.481492
_cell_length_c 26.712860
_cell_angle_alpha 90.000000
_cell_angle_beta 90.000000
_cell_angle_gamma 90.000000
_cell_volume 9804.848167
_symmetry_space_group_name_H-M "F D D D"
_symmetry_group_IT_number 70
_space_group.IT_coordinate_system_code '2'
_symmetry_cell_setting 'orthorhombic'
loop_
_space_group_symop_operation_xyz
x,y,z
1/4-x,1/4-y,z
x,1/4-y,1/4-z
1/4-x,y,1/4-z
-x,-y,-z
3/4+x,3/4+y,-z
-x,3/4+y,3/4+z
3/4+x,-y,3/4+z
x,1/2+y,1/2+z
1/4-x,3/4-y,1/2+z
x,3/4-y,3/4-z
1/4-x,1/2+y,3/4-z
-x,1/2-y,1/2-z
3/4+x,1/4+y,1/2-z
-x,1/4+y,1/4+z
3/4+x,1/2-y,1/4+z
1/2+x,y,1/2+z
3/4-x,1/4-y,1/2+z
1/2+x,1/4-y,3/4-z
3/4-x,y,3/4-z
1/2-x,-y,1/2-z
1/4+x,3/4+y,1/2-z
1/2-x,3/4+y,1/4+z
1/4+x,-y,1/4+z
1/2+x,1/2+y,z
3/4-x,3/4-y,z
1/2+x,3/4-y,1/4-z
3/4-x,1/2+y,1/4-z
1/2-x,1/2-y,-z
1/4+x,1/4+y,-z
1/2-x,1/4+y,3/4+z
1/4+x,1/2-y,3/4+z
loop_
_atom_site_type_symbol
_atom_site_label
_atom_site_fract_x
_atom_site_fract_y
_atom_site_fract_z
Si Si1 0.177530 0.884448 0.270912
Si Si2 0.374427 0.490088 0.564605
Si Si3 0.247598 0.826658 0.954059
Si Si4 0.125000 0.625000 0.125000
Si Si5 0.087366 0.755940 0.823967
Si Si6 0.538775 0.032448 0.739348
Si Si7 0.655783 0.296894 0.570018
Si Si8 0.375000 0.875000 0.714167
O O1 0.099309 0.854822 0.302040
O O2 0.267457 0.847424 0.265604
O O3 0.137050 0.902160 0.216828
O O4 0.203236 0.938888 0.300722
O O5 0.472260 0.511510 0.545734
O O6 0.357854 0.517985 0.618217
O O7 0.306605 0.504292 0.519601
O O8 0.357232 0.425554 0.572555
O O9 0.311975 0.836082 0.907329
O O10 0.293828 0.851506 0.002893
O O11 0.174987 0.734119 0.794370
O O12 0.011669 0.710669 0.818455
O O13 0.606232 0.009150 0.697163
O O14 0.625000 0.313829 0.625000
#
# Coordination Sequence:
#
# PCOD8286136 Si02
#       8
#    32  32  32   8  32  32  32  16
#     4  10  22  41  67  91 133 175 216 277 343 391
#     4  11  23  41  63  95 130 167 228 270 336 410
#     4  10  22  39  65  94 126 171 220 277 336 405
#     4  10  20  40  68 100 136 170 224 276 358 406
#     4  11  23  39  65  95 134 173 219 280 332 401
#     4  10  22  42  63  94 128 171 219 272 327 409
#     4  11  22  40  62  94 136 173 222 278 337 400
#     4  11  22  39  64  88 126 174 207 278 335 394
#
# _framework density 22.029917999999999
#
# number of rings (size 3 to 8) (size 9 to 14) (size 15 to 20)
#    0.000    1.481    1.481    4.889    0.000    6.519 
#    0.000    0.741    0.000    1.778    0.000    0.000 
#    0.000    0.000    0.000    0.000    0.000    0.000 
#
# Total GULP energy -669106.821489 kJ/mol
# GULP energy per Si atom -12390.867065 kJ/mol
# Density = 2.197978 g / cm^3
# Si number density = 22.029918 Si / 1000 Ang^3
#
#
#
# Elastic Constant Matrix: (Units=GPa)
#
#
# Indices 1 2 3 4 5 6 
#
# 1 111.0996 40.3672 37.9339 0.0000 0.0000 0.0000
# 2 40.3672 138.7320 45.2935 0.0000 0.0000 0.0000
# 3 37.9339 45.2935 123.6179 0.0000 0.0000 0.0000
# 4 0.0000 0.0000 0.0000 18.8106 0.0000 0.0000
# 5 0.0000 0.0000 0.0000 0.0000 35.0763 0.0000
# 6 0.0000 0.0000 0.0000 0.0000 0.0000 40.3662
#
#
#
# Elastic Compliance Matrix: (Units=1/GPa)
#
#
# Indices 1 2 3 4 5 6 
#
# 1 0.010670 -0.002312 -0.002427 0.000000 0.000000 0.000000
# 2 -0.002312 0.008689 -0.002474 0.000000 0.000000 0.000000
# 3 -0.002427 -0.002474 0.009741 0.000000 0.000000 0.000000
# 4 0.000000 0.000000 0.000000 0.053162 0.000000 0.000000
# 5 0.000000 0.000000 0.000000 0.000000 0.028509 0.000000
# 6 0.000000 0.000000 0.000000 0.000000 0.000000 0.024773
#
#
# Mechanical properties :
#
#
# Convention : Reuss Voigt Hill
#
# Bulk Modulus (GPa) = 68.15380 68.95985 68.55683
# Shear Modulus (GPa) = 32.28717 35.50762 33.89739
#
# Velocity S-wave (km/s) = 3.83248 4.01907 3.92688
# Velocity P-wave (km/s) = 7.11252 7.27379 7.19360
#
# Compressibility (1/GPa) = 0.01467270
#
# Stress axis : x y z
#
# Youngs Moduli (GPa) = 93.72313 115.09270 102.66256
#
# Poissons Ratio (x) = 0.26612 0.24916
# Poissons Ratio (y) = 0.21671 0.25398
# Poissons Ratio (z) = 0.22746 0.28474
#
# Static dielectric constant tensor:
#      x y z
#    x 3.998590 0.000000 0.000000 
#    y 0.000000 4.239190 0.000000 
#    z 0.000000 0.000000 3.908310 
# 
# 
# High freq. dielectric constant tensor:
#      x y z
#    x 1.868470 0.000000 0.000000 
#    y 0.000000 1.862800 0.000000 
#    z 0.000000 0.000000 1.863580 
# 
# From -- ./inp_files/65967.got.cif
#   From: 2010.03.12/outbox.cif.g09.slc.cpg/sg70_33_cif.got.tgz:65967.got - 2010.04.16 13:46:32.
