data_PCOD8286690
_publ_section_title
;
Structure prediction by ZEFSAII (Michael W. Deem and Ramdas Pophale) SiO2 
 PCOD8286690
Probable space group: F D D D
;
_chemical_formula_sum "Si O2"
_cell_formula_units_Z 104
_cell_length_a 5.303326
_cell_length_b 29.272938
_cell_length_c 32.291205
_cell_angle_alpha 90.000000
_cell_angle_beta 90.000000
_cell_angle_gamma 90.000000
_cell_volume 5013.013672
_symmetry_space_group_name_H-M "F D D D"
_symmetry_group_IT_number 70
_space_group.IT_coordinate_system_code '2'
_symmetry_cell_setting 'orthorhombic'
loop_
_space_group_symop_operation_xyz
x,y,z
1/4-x,1/4-y,z
x,1/4-y,1/4-z
1/4-x,y,1/4-z
-x,-y,-z
3/4+x,3/4+y,-z
-x,3/4+y,3/4+z
3/4+x,-y,3/4+z
x,1/2+y,1/2+z
1/4-x,3/4-y,1/2+z
x,3/4-y,3/4-z
1/4-x,1/2+y,3/4-z
-x,1/2-y,1/2-z
3/4+x,1/4+y,1/2-z
-x,1/4+y,1/4+z
3/4+x,1/2-y,1/4+z
1/2+x,y,1/2+z
3/4-x,1/4-y,1/2+z
1/2+x,1/4-y,3/4-z
3/4-x,y,3/4-z
1/2-x,-y,1/2-z
1/4+x,3/4+y,1/2-z
1/2-x,3/4+y,1/4+z
1/4+x,-y,1/4+z
1/2+x,1/2+y,z
3/4-x,3/4-y,z
1/2+x,3/4-y,1/4-z
3/4-x,1/2+y,1/4-z
1/2-x,1/2-y,-z
1/4+x,1/4+y,-z
1/2-x,1/4+y,3/4+z
1/4+x,1/2-y,3/4+z
loop_
_atom_site_type_symbol
_atom_site_label
_atom_site_fract_x
_atom_site_fract_y
_atom_site_fract_z
Si Si1 0.773804 0.693300 0.166931
Si Si2 0.624999 0.041771 0.902475
Si Si3 0.875000 0.375000 0.481308
Si Si4 0.875000 0.375000 0.875000
Si Si5 0.875000 0.875000 0.535589
O O1 0.625000 0.700463 0.125000
O O2 0.882208 0.743433 0.177476
O O3 0.608558 0.671679 0.203897
O O4 0.982974 0.655908 0.157901
O O5 0.375000 0.046059 0.875000
O O6 0.624463 0.080297 0.936691
O O7 0.875000 0.047628 0.875000
O O8 0.625287 0.375660 0.508442
#
# Coordination Sequence:
#
# PCOD8286690 Si02
#       5
#    32  32  16   8  16
#     4  11  23  38  69  96 123 168 220 268 319 372
#     4  11  24  44  70  94 122 171 226 270 304 378
#     4  12  25  41  64  96 140 170 201 267 326 395
#     4  12  16  40  64  98 122 154 216 268 320 368
#     4  12  27  43  63  94 137 178 205 256 333 381
#
# _framework density 20.746006000000001
#
# number of rings (size 3 to 8) (size 9 to 14) (size 15 to 20)
#    0.000    0.615    4.615    3.692    0.000    2.462 
#    0.000    0.000    0.000    0.000    0.000    0.000 
#    0.000    0.000    0.000    0.000    0.000    0.000 
#
# Total GULP energy -322322.880189 kJ/mol
# GULP energy per Si atom -12397.033853 kJ/mol
# Density = 2.069879 g / cm^3
# Si number density = 20.746006 Si / 1000 Ang^3
#
#
#
# Elastic Constant Matrix: (Units=GPa)
#
#
# Indices 1 2 3 4 5 6 
#
# 1 147.2159 50.5498 60.1028 0.0000 0.0000 0.0000
# 2 50.5498 201.4497 86.9303 0.0000 0.0000 0.0000
# 3 60.1028 86.9303 118.6405 0.0000 0.0000 0.0000
# 4 0.0000 0.0000 0.0000 109.2356 0.0000 0.0000
# 5 0.0000 0.0000 0.0000 0.0000 28.9397 0.0000
# 6 0.0000 0.0000 0.0000 0.0000 0.0000 14.2220
#
#
#
# Elastic Compliance Matrix: (Units=1/GPa)
#
#
# Indices 1 2 3 4 5 6 
#
# 1 0.008587 -0.000406 -0.004053 0.000000 0.000000 0.000000
# 2 -0.000406 0.007279 -0.005127 0.000000 0.000000 0.000000
# 3 -0.004053 -0.005127 0.014239 0.000000 0.000000 0.000000
# 4 0.000000 0.000000 0.000000 0.009155 0.000000 0.000000
# 5 0.000000 0.000000 0.000000 0.000000 0.034555 0.000000
# 6 0.000000 0.000000 0.000000 0.000000 0.000000 0.070314
#
#
# Mechanical properties :
#
#
# Convention : Reuss Voigt Hill
#
# Bulk Modulus (GPa) = 91.47346 95.83022 93.65184
# Shear Modulus (GPa) = 29.95039 48.46100 39.20569
#
# Velocity S-wave (km/s) = 3.80369 4.83838 4.35189
# Velocity P-wave (km/s) = 7.96734 8.80373 8.39596
#
# Compressibility (1/GPa) = 0.01093213
#
# Stress axis : x y z
#
# Youngs Moduli (GPa) = 116.46034 137.39092 70.23036
#
# Poissons Ratio (x) = 0.05576 0.28461
# Poissons Ratio (y) = 0.04727 0.36011
# Poissons Ratio (z) = 0.47196 0.70447
#
# Static dielectric constant tensor:
#      x y z
#    x 4.136920 0.000000 0.000000 
#    y 0.000000 5.102890 0.000000 
#    z 0.000000 0.000000 3.744690 
# 
# 
# High freq. dielectric constant tensor:
#      x y z
#    x 1.825870 0.000000 0.000000 
#    y 0.000000 1.835010 0.000000 
#    z 0.000000 0.000000 1.805880 
# 
# From -- ./inp_files/4104.got.cif
#   From: 2010.03.12/outbox.cif.g09.slc.cpg/sg70_3_cif.got.tgz:4104.got - 2010.04.16 13:46:32.
