data_PCOD8286031
_publ_section_title
;
Structure prediction by ZEFSAII (Michael W. Deem and Ramdas Pophale) SiO2 
 PCOD8286031
Probable space group: F D D D
;
_chemical_formula_sum "Si O2"
_cell_formula_units_Z 160
_cell_length_a 18.593490
_cell_length_b 23.613239
_cell_length_c 18.593483
_cell_angle_alpha 90.000000
_cell_angle_beta 90.000000
_cell_angle_gamma 90.000000
_cell_volume 8163.515626
_symmetry_space_group_name_H-M "F D D D"
_symmetry_group_IT_number 70
_space_group.IT_coordinate_system_code '2'
_symmetry_cell_setting 'orthorhombic'
loop_
_space_group_symop_operation_xyz
x,y,z
1/4-x,1/4-y,z
x,1/4-y,1/4-z
1/4-x,y,1/4-z
-x,-y,-z
3/4+x,3/4+y,-z
-x,3/4+y,3/4+z
3/4+x,-y,3/4+z
x,1/2+y,1/2+z
1/4-x,3/4-y,1/2+z
x,3/4-y,3/4-z
1/4-x,1/2+y,3/4-z
-x,1/2-y,1/2-z
3/4+x,1/4+y,1/2-z
-x,1/4+y,1/4+z
3/4+x,1/2-y,1/4+z
1/2+x,y,1/2+z
3/4-x,1/4-y,1/2+z
1/2+x,1/4-y,3/4-z
3/4-x,y,3/4-z
1/2-x,-y,1/2-z
1/4+x,3/4+y,1/2-z
1/2-x,3/4+y,1/4+z
1/4+x,-y,1/4+z
1/2+x,1/2+y,z
3/4-x,3/4-y,z
1/2+x,3/4-y,1/4-z
3/4-x,1/2+y,1/4-z
1/2-x,1/2-y,-z
1/4+x,1/4+y,-z
1/2-x,1/4+y,3/4+z
1/4+x,1/2-y,3/4+z
loop_
_atom_site_type_symbol
_atom_site_label
_atom_site_fract_x
_atom_site_fract_y
_atom_site_fract_z
Si Si1 0.478602 0.683852 0.658244
Si Si2 0.989252 0.875000 0.875000
Si Si3 0.082563 0.796687 0.967096
Si Si4 0.875000 0.375000 0.489252
Si Si5 0.532904 0.203313 0.417437
Si Si6 0.908244 0.816148 0.228602
O O1 0.502499 0.625000 0.625000
O O2 0.410641 0.673853 0.711491
O O3 0.459659 0.728855 0.595249
O O4 0.545113 0.707775 0.704887
O O5 0.940334 0.852043 0.809666
O O6 0.035958 0.821061 0.900699
O O7 0.095249 0.728855 0.959659
O O8 0.042749 0.810159 0.042749
O O9 0.900699 0.321061 0.535958
O O10 0.538509 0.173853 0.339359
O O11 0.875000 0.875000 0.252499
#
# Coordination Sequence:
#
# PCOD8286031 Si02
#       6
#    32  16  32  16  32  32
#     4  11  23  38  57  85 118 152 194 238 289 344
#     4   9  18  36  62  88 117 152 188 234 289 342
#     4  10  20  37  59  83 114 152 192 233 282 342
#     4   9  18  36  62  88 117 152 188 234 289 342
#     4  10  20  37  59  83 114 152 192 233 282 342
#     4  11  23  38  57  85 118 152 194 238 289 344
#
# _framework density 19.599398999999998
#
# number of rings (size 3 to 8) (size 9 to 14) (size 15 to 20)
#    0.000    1.800    2.000    3.600    0.000    5.200 
#    0.000    6.000    0.000    4.800    0.000    0.000 
#    0.000    0.000    0.000    0.000    0.000    0.000 
#
# Total GULP energy -495651.938364 kJ/mol
# GULP energy per Si atom -12391.298459 kJ/mol
# Density = 1.955479 g / cm^3
# Si number density = 19.599399 Si / 1000 Ang^3
#
#
#
# Elastic Constant Matrix: (Units=GPa)
#
#
# Indices 1 2 3 4 5 6 
#
# 1 107.4615 54.5639 60.4769 0.0000 0.0000 0.0000
# 2 54.5639 117.7178 54.5638 0.0000 0.0000 0.0000
# 3 60.4769 54.5638 107.4614 0.0000 0.0000 0.0000
# 4 0.0000 0.0000 0.0000 27.6958 0.0000 0.0000
# 5 0.0000 0.0000 0.0000 0.0000 33.0308 0.0000
# 6 0.0000 0.0000 0.0000 0.0000 0.0000 27.6958
#
#
#
# Elastic Compliance Matrix: (Units=1/GPa)
#
#
# Indices 1 2 3 4 5 6 
#
# 1 0.014902 -0.003950 -0.006381 0.000000 0.000000 0.000000
# 2 -0.003950 0.012156 -0.003950 0.000000 0.000000 0.000000
# 3 -0.006381 -0.003950 0.014902 0.000000 0.000000 0.000000
# 4 0.000000 0.000000 0.000000 0.036107 0.000000 0.000000
# 5 0.000000 0.000000 0.000000 0.000000 0.030275 0.000000
# 6 0.000000 0.000000 0.000000 0.000000 0.000000 0.036107
#
#
# Mechanical properties :
#
#
# Convention : Reuss Voigt Hill
#
# Bulk Modulus (GPa) = 74.62736 74.65000 74.63868
# Shear Modulus (GPa) = 28.17273 28.55355 28.36314
#
# Velocity S-wave (km/s) = 3.79546 3.82102 3.80826
# Velocity P-wave (km/s) = 7.57406 7.59194 7.58300
#
# Compressibility (1/GPa) = 0.01339991
#
# Stress axis : x y z
#
# Youngs Moduli (GPa) = 67.10366 82.26174 67.10365
#
# Poissons Ratio (x) = 0.32490 0.42820
# Poissons Ratio (y) = 0.26504 0.26503
# Poissons Ratio (z) = 0.42820 0.32490
#
# Static dielectric constant tensor:
#      x y z
#    x 3.751120 0.000000 0.000000 
#    y 0.000000 3.387130 0.000000 
#    z 0.000000 0.000000 3.751120 
# 
# 
# High freq. dielectric constant tensor:
#      x y z
#    x 1.767530 0.000000 0.000000 
#    y 0.000000 1.746100 0.000000 
#    z 0.000000 0.000000 1.767530 
# 
# From -- ./inp_files/36507.got.cif
#   From: 2010.03.12/outbox.cif.g09.slc.cpg/sg70_19_cif.got.tgz:36507.got - 2010.04.16 13:46:32.
