data_PCOD8286956
_publ_section_title
;
Structure prediction by ZEFSAII (Michael W. Deem and Ramdas Pophale) SiO2 
 PCOD8286956
Probable space group: I M M M
;
_chemical_formula_sum "Si O2"
_cell_formula_units_Z 104
_cell_length_a 16.885768
_cell_length_b 25.651129
_cell_length_c 18.262310
_cell_angle_alpha 90.000000
_cell_angle_beta 90.000000
_cell_angle_gamma 90.000000
_cell_volume 7910.118933
_symmetry_space_group_name_H-M "I M M M"
_symmetry_group_IT_number 71
_symmetry_cell_setting 'orthorhombic'
loop_
_space_group_symop_operation_xyz
x,y,z
-x,-y,z
x,-y,-z
-x,y,-z
-x,-y,-z
x,y,-z
-x,y,z
x,-y,z
1/2+x,1/2+y,1/2+z
1/2-x,1/2-y,1/2+z
1/2+x,1/2-y,1/2-z
1/2-x,1/2+y,1/2-z
1/2-x,1/2-y,1/2-z
1/2+x,1/2+y,1/2-z
1/2-x,1/2+y,1/2+z
1/2+x,1/2-y,1/2+z
loop_
_atom_site_type_symbol
_atom_site_label
_atom_site_fract_x
_atom_site_fract_y
_atom_site_fract_z
Si Si1 0.406189 0.308081 0.081473
Si Si2 0.308158 0.096695 0.087092
Si Si3 0.088065 0.692585 0.413310
Si Si4 0.093448 0.000000 0.580563
Si Si5 0.412489 0.000000 0.086516
Si Si6 0.500000 0.438375 0.580906
Si Si7 0.405781 0.596198 0.821975
Si Si8 0.346685 0.437466 0.331182
O O1 0.500000 0.311161 0.074986
O O2 0.381374 0.250307 0.108869
O O3 0.377195 0.349762 0.141368
O O4 0.370902 0.319771 0.000000
O O5 0.348320 0.150402 0.114182
O O6 0.226781 0.089400 0.129470
O O7 0.366567 0.051041 0.112716
O O8 0.292222 0.095201 0.000000
O O9 0.080927 0.688899 0.500000
O O10 0.000000 0.681607 0.380301
O O11 0.121059 0.948789 0.622799
O O12 0.132560 0.000000 0.500000
O O13 0.000000 0.000000 0.572968
O O14 0.500000 0.000000 0.121972
O O15 0.419970 0.000000 0.000000
O O16 0.500000 0.500000 0.575387
O O17 0.500000 0.413406 0.500000
O O18 0.577401 0.419499 0.623045
O O19 0.500000 0.594234 0.805839
O O20 0.356122 0.587253 0.748693
O O21 0.337859 0.500000 0.327475
#
# Coordination Sequence:
#
# PCOD8286956 Si02
#       8
#    16  16  16   8   8   8  16  16
#     4   8  14  25  42  61  79 100 130 161 192 236
#     4  10  18  27  40  57  78 102 134 168 196 231
#     4   8  14  26  43  61  79 101 128 160 196 236
#     4   9  16  23  36  56  76  97 125 160 194 231
#     4   9  16  25  38  57  77  96 120 156 196 235
#     4   9  18  28  40  50  66 102 146 180 196 219
#     4  10  17  26  39  55  78 105 133 164 197 233
#     4  11  19  28  38  53  78 107 138 167 203 229
#
# _framework density 13.147716000000001
#
# number of rings (size 3 to 8) (size 9 to 14) (size 15 to 20)
#    0.000    2.692    2.308    2.308    0.000    4.308 
#    0.000    0.769    0.000    0.000    0.000    0.000 
#    0.000    0.000    0.000    0.000    0.000   28.462 
#
# Total GULP energy -644508.103820 kJ/mol
# GULP energy per Si atom -12394.386612 kJ/mol
# Density = 1.311779 g / cm^3
# Si number density = 13.147716 Si / 1000 Ang^3
#
#
#
# Elastic Constant Matrix: (Units=GPa)
#
#
# Indices 1 2 3 4 5 6 
#
# 1 76.8662 45.2551 38.5516 0.0000 0.0000 0.0000
# 2 45.2551 109.3299 45.3020 0.0002 0.0001 -0.0003
# 3 38.5516 45.3020 79.0974 -0.0001 0.0002 0.0002
# 4 0.0000 0.0002 -0.0001 18.2229 0.0002 0.0006
# 5 0.0000 0.0001 0.0002 0.0002 7.1364 0.0010
# 6 0.0000 -0.0003 0.0002 0.0006 0.0010 49.3140
#
#
#
# Elastic Compliance Matrix: (Units=1/GPa)
#
#
# Indices 1 2 3 4 5 6 
#
# 1 0.019367 -0.005383 -0.006356 0.000000 0.000000 0.000000
# 2 -0.005383 0.013489 -0.005102 0.000000 0.000000 0.000000
# 3 -0.006356 -0.005102 0.018663 0.000000 0.000000 0.000000
# 4 0.000000 0.000000 0.000000 0.054876 -0.000001 -0.000001
# 5 0.000000 0.000000 0.000000 -0.000001 0.140126 -0.000003
# 6 0.000000 0.000000 0.000000 -0.000001 -0.000003 0.020278
#
#
# Mechanical properties :
#
#
# Convention : Reuss Voigt Hill
#
# Bulk Modulus (GPa) = 56.06593 58.16789 57.11691
# Shear Modulus (GPa) = 16.31714 24.01365 20.16540
#
# Velocity S-wave (km/s) = 3.52669 4.27834 3.92057
# Velocity P-wave (km/s) = 7.70189 8.29116 8.00195
#
# Compressibility (1/GPa) = 0.01783615
#
# Stress axis : x y z
#
# Youngs Moduli (GPa) = 51.63523 74.13576 53.58252
#
# Poissons Ratio (x) = 0.39905 0.34059
# Poissons Ratio (y) = 0.27793 0.27338
# Poissons Ratio (z) = 0.32821 0.37824
#
# Static dielectric constant tensor:
#      x y z
#    x 2.475460 0.000000 0.000000 
#    y 0.000000 2.867900 0.000000 
#    z 0.000000 0.000000 2.561550 
# 
# 
# High freq. dielectric constant tensor:
#      x y z
#    x 1.468990 0.000000 0.000000 
#    y 0.000000 1.501210 0.000000 
#    z 0.000000 0.000000 1.477800 
# 
# From -- ./inp_files/45322.got.cif
#   From: 2010.06.25/outbox.cif.g09.slc.cpg/sg71_23_cif.got.tgz:45322.got - 2010.06.28 04:59:45.
