data_PCOD8286546
_publ_section_title
;
Structure prediction by ZEFSAII (Michael W. Deem and Ramdas Pophale) SiO2 
 PCOD8286546
Probable space group: F D D D
;
_chemical_formula_sum "Si O2"
_cell_formula_units_Z 144
_cell_length_a 25.858486
_cell_length_b 21.655039
_cell_length_c 11.742870
_cell_angle_alpha 90.000000
_cell_angle_beta 90.000000
_cell_angle_gamma 90.000000
_cell_volume 6575.614082
_symmetry_space_group_name_H-M "F D D D"
_symmetry_group_IT_number 70
_space_group.IT_coordinate_system_code '2'
_symmetry_cell_setting 'orthorhombic'
loop_
_space_group_symop_operation_xyz
x,y,z
1/4-x,1/4-y,z
x,1/4-y,1/4-z
1/4-x,y,1/4-z
-x,-y,-z
3/4+x,3/4+y,-z
-x,3/4+y,3/4+z
3/4+x,-y,3/4+z
x,1/2+y,1/2+z
1/4-x,3/4-y,1/2+z
x,3/4-y,3/4-z
1/4-x,1/2+y,3/4-z
-x,1/2-y,1/2-z
3/4+x,1/4+y,1/2-z
-x,1/4+y,1/4+z
3/4+x,1/2-y,1/4+z
1/2+x,y,1/2+z
3/4-x,1/4-y,1/2+z
1/2+x,1/4-y,3/4-z
3/4-x,y,3/4-z
1/2-x,-y,1/2-z
1/4+x,3/4+y,1/2-z
1/2-x,3/4+y,1/4+z
1/4+x,-y,1/4+z
1/2+x,1/2+y,z
3/4-x,3/4-y,z
1/2+x,3/4-y,1/4-z
3/4-x,1/2+y,1/4-z
1/2-x,1/2-y,-z
1/4+x,1/4+y,-z
1/2-x,1/4+y,3/4+z
1/4+x,1/2-y,3/4+z
loop_
_atom_site_type_symbol
_atom_site_label
_atom_site_fract_x
_atom_site_fract_y
_atom_site_fract_z
Si Si1 0.574163 0.058397 0.682247
Si Si2 0.522568 0.512925 0.758977
Si Si3 0.879680 0.807238 0.179545
Si Si4 0.824905 0.200102 0.933254
Si Si5 0.478931 0.125000 0.125000
O O1 0.561987 0.125000 0.625000
O O2 0.625000 0.028317 0.625000
O O3 0.587715 0.064955 0.814442
O O4 0.525586 0.011876 0.665656
O O5 0.573232 0.524407 0.837818
O O6 0.531686 0.459686 0.663889
O O7 0.512707 0.577026 0.695135
O O8 0.875000 0.875000 0.233557
O O9 0.912322 0.768129 0.269383
O O10 0.875000 0.169194 0.875000
O O11 0.808042 0.157528 0.035269
#
# Coordination Sequence:
#
# PCOD8286546 Si02
#       5
#    32  32  32  32  16
#     4  11  24  44  65  96 142 184 229 282 338 421
#     4  11  25  41  72 100 132 180 231 285 343 407
#     4  11  22  45  71  97 134 179 232 280 338 414
#     4  10  24  44  63  99 133 173 227 285 343 407
#     4  12  22  38  69  98 134 170 221 290 342 404
#
# _framework density 21.899094999999999
#
# number of rings (size 3 to 8) (size 9 to 14) (size 15 to 20)
#    0.000    1.111    4.444    2.000    3.111    4.889 
#    8.000    0.000    0.000    0.000    0.000    0.000 
#    0.000    0.000    0.000    0.000    0.000    0.000 
#
# Total GULP energy -446301.304707 kJ/mol
# GULP energy per Si atom -12397.258464 kJ/mol
# Density = 2.184925 g / cm^3
# Si number density = 21.899095 Si / 1000 Ang^3
#
#
#
# Elastic Constant Matrix: (Units=GPa)
#
#
# Indices 1 2 3 4 5 6 
#
# 1 114.3345 44.4150 21.8652 0.0000 0.0000 -0.0002
# 2 44.4150 69.8788 17.0773 -0.0001 0.0000 0.0001
# 3 21.8652 17.0773 57.6286 -0.0001 0.0001 -0.0008
# 4 0.0000 -0.0001 -0.0001 50.9308 0.0001 -0.0001
# 5 0.0000 0.0000 0.0001 0.0001 28.8746 -0.0003
# 6 -0.0002 0.0001 -0.0008 -0.0001 -0.0003 152.7085
#
#
#
# Elastic Compliance Matrix: (Units=1/GPa)
#
#
# Indices 1 2 3 4 5 6 
#
# 1 0.011928 -0.006981 -0.002457 0.000000 0.000000 0.000000
# 2 -0.006981 0.019513 -0.003134 0.000000 0.000000 0.000000
# 3 -0.002457 -0.003134 0.019213 0.000000 0.000000 0.000000
# 4 0.000000 0.000000 0.000000 0.019634 0.000000 0.000000
# 5 0.000000 0.000000 0.000000 0.000000 0.034633 0.000000
# 6 0.000000 0.000000 0.000000 0.000000 0.000000 0.006548
#
#
# Mechanical properties :
#
#
# Convention : Reuss Voigt Hill
#
# Bulk Modulus (GPa) = 39.19833 45.39523 42.29678
# Shear Modulus (GPa) = 34.45482 57.06840 45.76161
#
# Velocity S-wave (km/s) = 3.97084 5.11041 4.57624
# Velocity P-wave (km/s) = 6.24194 7.45627 6.87597
#
# Compressibility (1/GPa) = 0.02551129
#
# Stress axis : x y z
#
# Youngs Moduli (GPa) = 83.83623 51.24665 52.04715
#
# Poissons Ratio (x) = 0.35775 0.12788
# Poissons Ratio (y) = 0.58526 0.16310
# Poissons Ratio (z) = 0.20598 0.16060
#
# Static dielectric constant tensor:
#      x y z
#    x 4.450800 0.000000 0.000000 
#    y 0.000000 3.939470 0.000000 
#    z 0.000000 0.000000 4.157950 
# 
# 
# High freq. dielectric constant tensor:
#      x y z
#    x 1.876670 0.000000 0.000000 
#    y 0.000000 1.847030 0.000000 
#    z 0.000000 0.000000 1.857860 
# 
# From -- ./inp_files/20638.got.cif
#   From: 2010.03.12/outbox.cif.g09.slc.cpg/sg70_11_cif.got.tgz:20638.got - 2010.04.16 13:46:32.
