data_PCOD8286091
_publ_section_title
;
Structure prediction by ZEFSAII (Michael W. Deem and Ramdas Pophale) SiO2 
 PCOD8286091
Probable space group: F D D D
;
_chemical_formula_sum "Si O2"
_cell_formula_units_Z 144
_cell_length_a 29.022052
_cell_length_b 22.568065
_cell_length_c 11.274110
_cell_angle_alpha 90.000000
_cell_angle_beta 90.000000
_cell_angle_gamma 90.000000
_cell_volume 7384.221369
_symmetry_space_group_name_H-M "F D D D"
_symmetry_group_IT_number 70
_space_group.IT_coordinate_system_code '2'
_symmetry_cell_setting 'orthorhombic'
loop_
_space_group_symop_operation_xyz
x,y,z
1/4-x,1/4-y,z
x,1/4-y,1/4-z
1/4-x,y,1/4-z
-x,-y,-z
3/4+x,3/4+y,-z
-x,3/4+y,3/4+z
3/4+x,-y,3/4+z
x,1/2+y,1/2+z
1/4-x,3/4-y,1/2+z
x,3/4-y,3/4-z
1/4-x,1/2+y,3/4-z
-x,1/2-y,1/2-z
3/4+x,1/4+y,1/2-z
-x,1/4+y,1/4+z
3/4+x,1/2-y,1/4+z
1/2+x,y,1/2+z
3/4-x,1/4-y,1/2+z
1/2+x,1/4-y,3/4-z
3/4-x,y,3/4-z
1/2-x,-y,1/2-z
1/4+x,3/4+y,1/2-z
1/2-x,3/4+y,1/4+z
1/4+x,-y,1/4+z
1/2+x,1/2+y,z
3/4-x,3/4-y,z
1/2+x,3/4-y,1/4-z
3/4-x,1/2+y,1/4-z
1/2-x,1/2-y,-z
1/4+x,1/4+y,-z
1/2-x,1/4+y,3/4+z
1/4+x,1/2-y,3/4+z
loop_
_atom_site_type_symbol
_atom_site_label
_atom_site_fract_x
_atom_site_fract_y
_atom_site_fract_z
Si Si1 0.875000 0.516551 0.375000
Si Si2 0.437243 0.112017 0.254582
Si Si3 0.081441 0.492612 0.048070
Si Si4 0.115001 0.693948 0.854734
Si Si5 0.790013 0.324654 0.794569
O O1 0.834927 0.558080 0.425168
O O2 0.854962 0.475070 0.271046
O O3 0.427391 0.173535 0.318903
O O4 0.490915 0.097573 0.247520
O O5 0.415777 0.125000 0.125000
O O6 0.125000 0.513230 0.125000
O O7 0.035964 0.521211 0.109503
O O8 0.092390 0.519285 0.916533
O O9 0.125000 0.625000 0.832949
O O10 0.068413 0.696787 0.930790
O O11 0.815497 0.375000 0.875000
#
# Coordination Sequence:
#
# PCOD8286091 Si02
#       5
#    16  32  32  32  32
#     4  12  25  40  62  92 135 170 204 248 338 394
#     4  11  23  40  62  93 123 166 213 263 315 378
#     4  10  20  38  66  92 122 162 217 266 311 368
#     4  11  22  40  63  91 130 167 207 260 321 385
#     4  10  22  38  66  94 119 161 220 272 305 357
#
# _framework density 19.50104
#
# number of rings (size 3 to 8) (size 9 to 14) (size 15 to 20)
#    0.000    1.333    5.556    0.333    0.000    6.222 
#    0.000    0.000    0.000    0.000    0.000    0.000 
#    0.000    0.000    0.000    0.000    0.000    0.000 
#
# Total GULP energy -446005.975798 kJ/mol
# GULP energy per Si atom -12389.054883 kJ/mol
# Density = 1.945666 g / cm^3
# Si number density = 19.501040 Si / 1000 Ang^3
#
#
#
# Elastic Constant Matrix: (Units=GPa)
#
#
# Indices 1 2 3 4 5 6 
#
# 1 68.8194 40.2909 42.4929 0.0000 0.0000 0.0000
# 2 40.2909 141.5689 64.9571 0.0000 0.0000 0.0000
# 3 42.4929 64.9571 136.6864 0.0000 0.0000 0.0000
# 4 0.0000 0.0000 0.0000 48.1587 0.0000 0.0000
# 5 0.0000 0.0000 0.0000 0.0000 19.9203 0.0000
# 6 0.0000 0.0000 0.0000 0.0000 0.0000 23.3003
#
#
#
# Elastic Compliance Matrix: (Units=1/GPa)
#
#
# Indices 1 2 3 4 5 6 
#
# 1 0.019245 -0.003494 -0.004323 0.000000 0.000000 0.000000
# 2 -0.003494 0.009668 -0.003508 0.000000 0.000000 0.000000
# 3 -0.004323 -0.003508 0.010327 0.000000 0.000000 0.000000
# 4 0.000000 0.000000 0.000000 0.020765 0.000000 0.000000
# 5 0.000000 0.000000 0.000000 0.000000 0.050200 0.000000
# 6 0.000000 0.000000 0.000000 0.000000 0.000000 0.042918
#
#
# Mechanical properties :
#
#
# Convention : Reuss Voigt Hill
#
# Bulk Modulus (GPa) = 60.27459 71.39514 65.83487
# Shear Modulus (GPa) = 27.57825 31.56478 29.57151
#
# Velocity S-wave (km/s) = 3.76466 4.02757 3.89833
# Velocity P-wave (km/s) = 7.06204 7.63668 7.35497
#
# Compressibility (1/GPa) = 0.01659074
#
# Stress axis : x y z
#
# Youngs Moduli (GPa) = 51.96068 103.43645 96.83352
#
# Poissons Ratio (x) = 0.36140 0.41857
# Poissons Ratio (y) = 0.18155 0.33971
# Poissons Ratio (z) = 0.22460 0.36288
#
# Static dielectric constant tensor:
#      x y z
#    x 3.248080 0.000000 0.000000 
#    y 0.000000 3.810870 0.000000 
#    z 0.000000 0.000000 3.763390 
# 
# 
# High freq. dielectric constant tensor:
#      x y z
#    x 1.735100 0.000000 0.000000 
#    y 0.000000 1.783820 0.000000 
#    z 0.000000 0.000000 1.758790 
# 
# From -- ./inp_files/20631.got.cif
#   From: 2010.03.12/outbox.cif.g09.slc.cpg/sg70_11_cif.got.tgz:20631.got - 2010.04.16 13:46:32.
