data_PCOD8286825
_publ_section_title
;
Structure prediction by ZEFSAII (Michael W. Deem and Ramdas Pophale) SiO2 
 PCOD8286825
Probable space group: F D D D
;
_chemical_formula_sum "Si O2"
_cell_formula_units_Z 200
_cell_length_a 15.942942
_cell_length_b 19.347751
_cell_length_c 30.192401
_cell_angle_alpha 90.000000
_cell_angle_beta 90.000000
_cell_angle_gamma 90.000000
_cell_volume 9313.150187
_symmetry_space_group_name_H-M "F D D D"
_symmetry_group_IT_number 70
_space_group.IT_coordinate_system_code '2'
_symmetry_cell_setting 'orthorhombic'
loop_
_space_group_symop_operation_xyz
x,y,z
1/4-x,1/4-y,z
x,1/4-y,1/4-z
1/4-x,y,1/4-z
-x,-y,-z
3/4+x,3/4+y,-z
-x,3/4+y,3/4+z
3/4+x,-y,3/4+z
x,1/2+y,1/2+z
1/4-x,3/4-y,1/2+z
x,3/4-y,3/4-z
1/4-x,1/2+y,3/4-z
-x,1/2-y,1/2-z
3/4+x,1/4+y,1/2-z
-x,1/4+y,1/4+z
3/4+x,1/2-y,1/4+z
1/2+x,y,1/2+z
3/4-x,1/4-y,1/2+z
1/2+x,1/4-y,3/4-z
3/4-x,y,3/4-z
1/2-x,-y,1/2-z
1/4+x,3/4+y,1/2-z
1/2-x,3/4+y,1/4+z
1/4+x,-y,1/4+z
1/2+x,1/2+y,z
3/4-x,3/4-y,z
1/2+x,3/4-y,1/4-z
3/4-x,1/2+y,1/4-z
1/2-x,1/2-y,-z
1/4+x,1/4+y,-z
1/2-x,1/4+y,3/4+z
1/4+x,1/2-y,3/4+z
loop_
_atom_site_type_symbol
_atom_site_label
_atom_site_fract_x
_atom_site_fract_y
_atom_site_fract_z
Si Si1 0.679253 0.922570 0.026111
Si Si2 0.311851 0.191215 0.600113
Si Si3 0.039355 0.083177 0.361274
Si Si4 0.992031 0.199803 0.063877
Si Si5 0.325562 0.313620 0.470699
Si Si6 0.875000 0.875000 0.875000
Si Si7 0.735504 0.889317 0.548508
O O1 0.735424 0.906016 0.067988
O O2 0.605977 0.865319 0.026083
O O3 0.636571 0.998290 0.024923
O O4 0.740167 0.912317 0.983950
O O5 0.274375 0.125000 0.625000
O O6 0.309742 0.252731 0.635146
O O7 0.407358 0.177157 0.587774
O O8 0.257286 0.208105 0.556273
O O9 0.125000 0.125000 0.358563
O O10 0.983815 0.105779 0.403032
O O11 0.069979 0.174692 0.093498
O O12 0.990856 0.281230 0.054480
O O13 0.375000 0.375000 0.445115
O O14 0.300852 0.345929 0.518523
#
# Coordination Sequence:
#
# PCOD8286825 Si02
#       7
#    32  32  32  32  32   8  32
#     4  12  26  43  72 111 148 185 246 306 371 435
#     4  12  25  44  70 106 151 188 239 303 373 443
#     4  12  26  42  68 106 151 194 246 302 362 445
#     4  12  27  51  76 105 140 198 251 304 364 441
#     4  12  23  42  72 111 147 189 233 302 378 446
#     4  12  32  56  80 100 146 200 262 304 368 432
#     4  12  24  44  76 105 143 194 241 298 369 446
#
# _framework density 21.475010000000001
#
# number of rings (size 3 to 8) (size 9 to 14) (size 15 to 20)
#    0.000    0.000    7.200    3.360    3.360    1.600 
#    0.000    0.800    0.000    0.000    0.000    0.000 
#    0.000    0.000    0.000    0.000    0.000    0.000 
#
# Total GULP energy -620027.463911 kJ/mol
# GULP energy per Si atom -12400.549278 kJ/mol
# Density = 2.142613 g / cm^3
# Si number density = 21.475010 Si / 1000 Ang^3
#
#
#
# Elastic Constant Matrix: (Units=GPa)
#
#
# Indices 1 2 3 4 5 6 
#
# 1 97.8945 16.1220 40.5370 0.0000 0.0000 0.0000
# 2 16.1220 78.3891 21.2571 0.0000 0.0000 0.0000
# 3 40.5370 21.2571 105.1102 0.0000 0.0000 0.0000
# 4 0.0000 0.0000 0.0000 31.2430 0.0000 0.0000
# 5 0.0000 0.0000 0.0000 0.0000 49.4825 0.0000
# 6 0.0000 0.0000 0.0000 0.0000 0.0000 30.2336
#
#
#
# Elastic Compliance Matrix: (Units=1/GPa)
#
#
# Indices 1 2 3 4 5 6 
#
# 1 0.012283 -0.001314 -0.004471 0.000000 0.000000 0.000000
# 2 -0.001314 0.013638 -0.002251 0.000000 0.000000 0.000000
# 3 -0.004471 -0.002251 0.011694 0.000000 0.000000 0.000000
# 4 0.000000 0.000000 0.000000 0.032007 0.000000 0.000000
# 5 0.000000 0.000000 0.000000 0.000000 0.020209 0.000000
# 6 0.000000 0.000000 0.000000 0.000000 0.000000 0.033076
#
#
# Mechanical properties :
#
#
# Convention : Reuss Voigt Hill
#
# Bulk Modulus (GPa) = 46.42260 48.58065 47.50163
# Shear Modulus (GPa) = 34.20918 35.75699 34.98309
#
# Velocity S-wave (km/s) = 3.99554 4.08493 4.04048
# Velocity P-wave (km/s) = 6.55361 6.70223 6.62834
#
# Compressibility (1/GPa) = 0.02154123
#
# Stress axis : x y z
#
# Youngs Moduli (GPa) = 81.41346 73.32685 85.51695
#
# Poissons Ratio (x) = 0.09633 0.38238
# Poissons Ratio (y) = 0.10695 0.19253
# Poissons Ratio (z) = 0.36403 0.16509
#
# Static dielectric constant tensor:
#      x y z
#    x 3.968340 0.000000 0.000000 
#    y 0.000000 3.962260 0.000000 
#    z 0.000000 0.000000 4.010460 
# 
# 
# High freq. dielectric constant tensor:
#      x y z
#    x 1.848510 0.000000 0.000000 
#    y 0.000000 1.843490 0.000000 
#    z 0.000000 0.000000 1.850070 
# 
# From -- ./inp_files/59610.got.cif
#   From: 2010.03.12/outbox.cif.g09.slc.cpg/sg70_30_cif.got.tgz:59610.got - 2010.04.16 13:46:32.
