data_PCOD8286730
_publ_section_title
;
Structure prediction by ZEFSAII (Michael W. Deem and Ramdas Pophale) SiO2 
 PCOD8286730
Probable space group: F D D D
;
_chemical_formula_sum "Si O2"
_cell_formula_units_Z 160
_cell_length_a 20.112978
_cell_length_b 12.212880
_cell_length_c 33.007676
_cell_angle_alpha 90.000000
_cell_angle_beta 90.000000
_cell_angle_gamma 90.000000
_cell_volume 8107.919276
_symmetry_space_group_name_H-M "F D D D"
_symmetry_group_IT_number 70
_space_group.IT_coordinate_system_code '2'
_symmetry_cell_setting 'orthorhombic'
loop_
_space_group_symop_operation_xyz
x,y,z
1/4-x,1/4-y,z
x,1/4-y,1/4-z
1/4-x,y,1/4-z
-x,-y,-z
3/4+x,3/4+y,-z
-x,3/4+y,3/4+z
3/4+x,-y,3/4+z
x,1/2+y,1/2+z
1/4-x,3/4-y,1/2+z
x,3/4-y,3/4-z
1/4-x,1/2+y,3/4-z
-x,1/2-y,1/2-z
3/4+x,1/4+y,1/2-z
-x,1/4+y,1/4+z
3/4+x,1/2-y,1/4+z
1/2+x,y,1/2+z
3/4-x,1/4-y,1/2+z
1/2+x,1/4-y,3/4-z
3/4-x,y,3/4-z
1/2-x,-y,1/2-z
1/4+x,3/4+y,1/2-z
1/2-x,3/4+y,1/4+z
1/4+x,-y,1/4+z
1/2+x,1/2+y,z
3/4-x,3/4-y,z
1/2+x,3/4-y,1/4-z
3/4-x,1/2+y,1/4-z
1/2-x,1/2-y,-z
1/4+x,1/4+y,-z
1/2-x,1/4+y,3/4+z
1/4+x,1/2-y,3/4+z
loop_
_atom_site_type_symbol
_atom_site_label
_atom_site_fract_x
_atom_site_fract_y
_atom_site_fract_z
Si Si1 0.596568 0.245871 0.468371
Si Si2 0.737139 0.493863 0.893954
Si Si3 0.317550 0.661057 0.670908
Si Si4 0.625000 0.851758 0.625000
Si Si5 0.375000 0.375000 0.599471
Si Si6 0.828346 0.772299 0.809361
O O1 0.625000 0.125000 0.465852
O O2 0.530123 0.262286 0.441637
O O3 0.655777 0.323540 0.452843
O O4 0.576323 0.276015 0.514050
O O5 0.722929 0.375000 0.875000
O O6 0.813764 0.525541 0.888308
O O7 0.688112 0.587295 0.876337
O O8 0.333746 0.625000 0.625000
O O9 0.353618 0.776159 0.679497
O O10 0.240445 0.677240 0.676734
O O11 0.602586 0.924442 0.662576
O O12 0.875000 0.875000 0.813515
#
# Coordination Sequence:
#
# PCOD8286730 Si02
#       6
#    32  32  32  16  16  32
#     4  11  24  41  67 100 131 170 222 281 325 391
#     4  12  23  43  68  98 131 177 225 266 332 397
#     4  12  22  42  70  93 129 175 224 268 325 403
#     4  12  26  44  64  94 144 178 210 276 340 400
#     4  12  20  42  68  98 118 174 228 260 312 400
#     4  11  27  40  65 101 133 169 217 279 342 387
#
# _framework density 19.733792000000001
#
# number of rings (size 3 to 8) (size 9 to 14) (size 15 to 20)
#    0.000    0.400    7.000    1.800    5.600    1.600 
#    0.000    4.000    0.000    0.000    0.000    0.000 
#    0.000    0.000    0.000    0.000    0.000    0.000 
#
# Total GULP energy -496082.309022 kJ/mol
# GULP energy per Si atom -12402.057726 kJ/mol
# Density = 1.968888 g / cm^3
# Si number density = 19.733792 Si / 1000 Ang^3
#
#
#
# Elastic Constant Matrix: (Units=GPa)
#
#
# Indices 1 2 3 4 5 6 
#
# 1 131.4919 41.6364 33.8521 0.0000 0.0000 0.0000
# 2 41.6364 117.1348 54.4159 0.0000 0.0000 0.0000
# 3 33.8521 54.4159 120.5154 0.0000 0.0000 0.0000
# 4 0.0000 0.0000 0.0000 9.8300 0.0000 0.0000
# 5 0.0000 0.0000 0.0000 0.0000 25.5200 0.0000
# 6 0.0000 0.0000 0.0000 0.0000 0.0000 46.3167
#
#
#
# Elastic Compliance Matrix: (Units=1/GPa)
#
#
# Indices 1 2 3 4 5 6 
#
# 1 0.008735 -0.002487 -0.001331 0.000000 0.000000 0.000000
# 2 -0.002487 0.011511 -0.004499 0.000000 0.000000 0.000000
# 3 -0.001331 -0.004499 0.010703 0.000000 0.000000 0.000000
# 4 0.000000 0.000000 0.000000 0.101730 0.000000 0.000000
# 5 0.000000 0.000000 0.000000 0.000000 0.039185 0.000000
# 6 0.000000 0.000000 0.000000 0.000000 0.000000 0.021590
#
#
# Mechanical properties :
#
#
# Convention : Reuss Voigt Hill
#
# Bulk Modulus (GPa) = 69.85204 69.88344 69.86774
# Shear Modulus (GPa) = 23.27101 32.28251 27.77676
#
# Velocity S-wave (km/s) = 3.43774 4.04901 3.75583
# Velocity P-wave (km/s) = 7.15761 7.57293 7.36820
#
# Compressibility (1/GPa) = 0.01431597
#
# Stress axis : x y z
#
# Youngs Moduli (GPa) = 114.48134 86.87206 93.43187
#
# Poissons Ratio (x) = 0.21602 0.12434
# Poissons Ratio (y) = 0.28468 0.42036
# Poissons Ratio (z) = 0.15235 0.39085
#
# Static dielectric constant tensor:
#      x y z
#    x 3.711440 0.000000 0.000000 
#    y 0.000000 3.730260 0.000000 
#    z 0.000000 0.000000 3.681780 
# 
# 
# High freq. dielectric constant tensor:
#      x y z
#    x 1.782160 0.000000 0.000000 
#    y 0.000000 1.782400 0.000000 
#    z 0.000000 0.000000 1.760670 
# 
# From -- ./inp_files/67743.got.cif
#   From: 2010.03.12/outbox.cif.g09.slc.cpg/sg70_34_cif.got.tgz:67743.got - 2010.04.16 13:46:32.
