data_PCOD8286495
_publ_section_title
;
Structure prediction by ZEFSAII (Michael W. Deem and Ramdas Pophale) SiO2 
 PCOD8286495
Probable space group: F D D D
;
_chemical_formula_sum "Si O2"
_cell_formula_units_Z 112
_cell_length_a 14.786657
_cell_length_b 10.005252
_cell_length_c 33.849729
_cell_angle_alpha 90.000000
_cell_angle_beta 90.000000
_cell_angle_gamma 90.000000
_cell_volume 5007.872076
_symmetry_space_group_name_H-M "F D D D"
_symmetry_group_IT_number 70
_space_group.IT_coordinate_system_code '2'
_symmetry_cell_setting 'orthorhombic'
loop_
_space_group_symop_operation_xyz
x,y,z
1/4-x,1/4-y,z
x,1/4-y,1/4-z
1/4-x,y,1/4-z
-x,-y,-z
3/4+x,3/4+y,-z
-x,3/4+y,3/4+z
3/4+x,-y,3/4+z
x,1/2+y,1/2+z
1/4-x,3/4-y,1/2+z
x,3/4-y,3/4-z
1/4-x,1/2+y,3/4-z
-x,1/2-y,1/2-z
3/4+x,1/4+y,1/2-z
-x,1/4+y,1/4+z
3/4+x,1/2-y,1/4+z
1/2+x,y,1/2+z
3/4-x,1/4-y,1/2+z
1/2+x,1/4-y,3/4-z
3/4-x,y,3/4-z
1/2-x,-y,1/2-z
1/4+x,3/4+y,1/2-z
1/2-x,3/4+y,1/4+z
1/4+x,-y,1/4+z
1/2+x,1/2+y,z
3/4-x,3/4-y,z
1/2+x,3/4-y,1/4-z
3/4-x,1/2+y,1/4-z
1/2-x,1/2-y,-z
1/4+x,1/4+y,-z
1/2-x,1/4+y,3/4+z
1/4+x,1/2-y,3/4+z
loop_
_atom_site_type_symbol
_atom_site_label
_atom_site_fract_x
_atom_site_fract_y
_atom_site_fract_z
Si Si1 0.955799 0.772076 0.707904
Si Si2 0.198020 0.225870 0.802900
Si Si3 0.875000 0.375000 0.977294
Si Si4 0.872238 0.640978 0.419675
O O1 0.875000 0.875000 0.711211
O O2 0.916599 0.629773 0.692713
O O3 0.000000 0.750000 0.750000
O O4 0.030030 0.829794 0.678143
O O5 0.204619 0.182889 0.756042
O O6 0.295009 0.220347 0.824148
O O7 0.125000 0.125000 0.823567
O O8 0.839847 0.258291 0.948974
O O9 0.875000 0.694150 0.375000
#
# Coordination Sequence:
#
# PCOD8286495 Si02
#       4
#    32  32  16  32
#     4  12  25  43  72 106 141 194 241 288 358 442
#     4  10  24  43  76  99 141 186 246 289 352 436
#     4  10  23  42  74 102 140 186 242 284 362 430
#     4  12  26  44  71 108 148 185 239 311 369 419
#
# _framework density 22.364788000000001
#
# number of rings (size 3 to 8) (size 9 to 14) (size 15 to 20)
#    0.857    0.000    2.857    3.857    4.000    3.429 
#    0.000    0.000    0.000    0.000    0.000    0.000 
#    0.000    0.000    0.000    0.000    0.000    0.000 
#
# Total GULP energy -347116.754228 kJ/mol
# GULP energy per Si atom -12397.026937 kJ/mol
# Density = 2.231388 g / cm^3
# Si number density = 22.364788 Si / 1000 Ang^3
#
#
#
# Elastic Constant Matrix: (Units=GPa)
#
#
# Indices 1 2 3 4 5 6 
#
# 1 148.2385 66.8736 35.8134 0.0000 0.0000 0.0000
# 2 66.8736 162.4787 12.0115 0.0000 0.0000 0.0000
# 3 35.8134 12.0115 104.6805 0.0000 0.0000 0.0000
# 4 0.0000 0.0000 0.0000 17.0742 0.0000 0.0000
# 5 0.0000 0.0000 0.0000 0.0000 25.6270 0.0000
# 6 0.0000 0.0000 0.0000 0.0000 0.0000 26.2175
#
#
#
# Elastic Compliance Matrix: (Units=1/GPa)
#
#
# Indices 1 2 3 4 5 6 
#
# 1 0.008966 -0.003493 -0.002667 0.000000 0.000000 0.000000
# 2 -0.003493 0.007568 0.000327 0.000000 0.000000 0.000000
# 3 -0.002667 0.000327 0.010428 0.000000 0.000000 0.000000
# 4 0.000000 0.000000 0.000000 0.058568 0.000000 0.000000
# 5 0.000000 0.000000 0.000000 0.000000 0.039021 0.000000
# 6 0.000000 0.000000 0.000000 0.000000 0.000000 0.038142
#
#
# Mechanical properties :
#
#
# Convention : Reuss Voigt Hill
#
# Bulk Modulus (GPa) = 65.37777 71.64384 68.51081
# Shear Modulus (GPa) = 27.86164 33.83035 30.84600
#
# Velocity S-wave (km/s) = 3.53339 3.89351 3.71782
# Velocity P-wave (km/s) = 6.77808 7.23301 7.00924
#
# Compressibility (1/GPa) = 0.01529572
#
# Stress axis : x y z
#
# Youngs Moduli (GPa) = 111.53326 132.13162 95.89837
#
# Poissons Ratio (x) = 0.46155 0.25572
# Poissons Ratio (y) = 0.38960 -0.03133
# Poissons Ratio (z) = 0.29742 -0.04316
#
# Static dielectric constant tensor:
#      x y z
#    x 4.154590 0.000000 0.000000 
#    y 0.000000 4.286600 0.000000 
#    z 0.000000 0.000000 3.841800 
# 
# 
# High freq. dielectric constant tensor:
#      x y z
#    x 1.869560 0.000000 0.000000 
#    y 0.000000 1.897160 0.000000 
#    z 0.000000 0.000000 1.860190 
# 
# From -- ./inp_files/65449.got.cif
#   From: 2010.03.12/outbox.cif.g09.slc.cpg/sg70_33_cif.got.tgz:65449.got - 2010.04.16 13:46:32.
