data_PCOD8286208
_publ_section_title
;
Structure prediction by ZEFSAII (Michael W. Deem and Ramdas Pophale) SiO2 
 PCOD8286208
Probable space group: F D D D
;
_chemical_formula_sum "Si O2"
_cell_formula_units_Z 128
_cell_length_a 9.257732
_cell_length_b 24.962588
_cell_length_c 28.759606
_cell_angle_alpha 90.000000
_cell_angle_beta 90.000000
_cell_angle_gamma 90.000000
_cell_volume 6646.257222
_symmetry_space_group_name_H-M "F D D D"
_symmetry_group_IT_number 70
_space_group.IT_coordinate_system_code '2'
_symmetry_cell_setting 'orthorhombic'
loop_
_space_group_symop_operation_xyz
x,y,z
1/4-x,1/4-y,z
x,1/4-y,1/4-z
1/4-x,y,1/4-z
-x,-y,-z
3/4+x,3/4+y,-z
-x,3/4+y,3/4+z
3/4+x,-y,3/4+z
x,1/2+y,1/2+z
1/4-x,3/4-y,1/2+z
x,3/4-y,3/4-z
1/4-x,1/2+y,3/4-z
-x,1/2-y,1/2-z
3/4+x,1/4+y,1/2-z
-x,1/4+y,1/4+z
3/4+x,1/2-y,1/4+z
1/2+x,y,1/2+z
3/4-x,1/4-y,1/2+z
1/2+x,1/4-y,3/4-z
3/4-x,y,3/4-z
1/2-x,-y,1/2-z
1/4+x,3/4+y,1/2-z
1/2-x,3/4+y,1/4+z
1/4+x,-y,1/4+z
1/2+x,1/2+y,z
3/4-x,3/4-y,z
1/2+x,3/4-y,1/4-z
3/4-x,1/2+y,1/4-z
1/2-x,1/2-y,-z
1/4+x,1/4+y,-z
1/2-x,1/4+y,3/4+z
1/4+x,1/2-y,3/4+z
loop_
_atom_site_type_symbol
_atom_site_label
_atom_site_fract_x
_atom_site_fract_y
_atom_site_fract_z
Si Si1 0.891937 0.618715 0.468429
Si Si2 0.399967 0.801092 0.567265
Si Si3 0.870421 0.074359 0.067998
Si Si4 0.375000 0.375000 0.875000
Si Si5 0.625000 0.625000 0.625000
Si Si6 0.125000 0.125000 0.847890
O O1 0.851486 0.609690 0.521804
O O2 0.757248 0.610272 0.434892
O O3 0.006583 0.573968 0.455399
O O4 0.960002 0.677945 0.461327
O O5 0.386113 0.738529 0.560414
O O6 0.411146 0.822882 0.620377
O O7 0.727384 0.085983 0.096557
O O8 0.021589 0.088214 0.093240
#
# Coordination Sequence:
#
# PCOD8286208 Si02
#       6
#    32  32  32   8   8  16
#     4  10  21  39  60  95 121 154 209 259 290 370
#     4  10  21  38  64  87 125 160 204 247 315 358
#     4  11  23  42  62  88 124 165 203 254 308 363
#     4  10  24  40  64  84 130 162 212 244 312 368
#     4  10  26  42  56  84 130 158 204 246 302 372
#     4  10  21  37  62  95 124 157 206 253 303 366
#
# _framework density 19.258959999999998
#
# number of rings (size 3 to 8) (size 9 to 14) (size 15 to 20)
#    0.000    2.000    0.000    6.000    7.000    0.000 
#    4.500    2.500    0.000    0.000    0.000    0.000 
#    0.000    0.000    0.000    0.000    0.000    0.000 
#
# Total GULP energy -396704.003104 kJ/mol
# GULP energy per Si atom -12397.000097 kJ/mol
# Density = 1.921513 g / cm^3
# Si number density = 19.258960 Si / 1000 Ang^3
#
#
#
# Elastic Constant Matrix: (Units=GPa)
#
#
# Indices 1 2 3 4 5 6 
#
# 1 104.5405 29.9510 43.4280 0.0000 0.0000 0.0000
# 2 29.9510 120.4388 28.4662 0.0000 0.0000 0.0000
# 3 43.4280 28.4662 124.5316 0.0000 0.0000 0.0000
# 4 0.0000 0.0000 0.0000 13.9249 0.0000 0.0000
# 5 0.0000 0.0000 0.0000 0.0000 -65.1745 0.0000
# 6 0.0000 0.0000 0.0000 0.0000 0.0000 14.4910
#
#
#
# Elastic Compliance Matrix: (Units=1/GPa)
#
#
# Indices 1 2 3 4 5 6 
#
# 1 0.011645 -0.002047 -0.003593 0.000000 0.000000 0.000000
# 2 -0.002047 0.009137 -0.001375 0.000000 0.000000 0.000000
# 3 -0.003593 -0.001375 0.009597 0.000000 0.000000 0.000000
# 4 0.000000 0.000000 0.000000 0.071814 0.000000 0.000000
# 5 0.000000 0.000000 0.000000 0.000000 -0.015343 0.000000
# 6 0.000000 0.000000 0.000000 0.000000 0.000000 0.069008
#
#
# Mechanical properties :
#
#
# Convention : Reuss Voigt Hill
#
# Bulk Modulus (GPa) = 61.16230 61.46680 61.31455
# Shear Modulus (GPa) = 28.51661 9.15934 18.83797
#
# Velocity S-wave (km/s) = 3.85215 2.18316 3.13092
# Velocity P-wave (km/s) = 7.18416 6.19194 6.70643
#
# Compressibility (1/GPa) = 0.01634994
#
# Stress axis : x y z
#
# Youngs Moduli (GPa) = 85.87654 109.44657 104.19539
#
# Poissons Ratio (x) = 0.22399 0.37438
# Poissons Ratio (y) = 0.17575 0.14325
# Poissons Ratio (z) = 0.30856 0.15047
#
# Static dielectric constant tensor:
#      x y z
#    x 3.548000 0.000000 0.000000 
#    y 0.000000 3.269690 0.000000 
#    z 0.000000 0.000000 3.732730 
# 
# 
# High freq. dielectric constant tensor:
#      x y z
#    x 1.767290 0.000000 0.000000 
#    y 0.000000 1.736850 0.000000 
#    z 0.000000 0.000000 1.757940 
# 
# From -- ./inp_files/63706.got.cif
#   From: 2010.03.12/outbox.cif.g09.slc.cpg/sg70_32_cif.got.tgz:63706.got - 2010.04.16 13:46:32.
