data_PCOD8286611
_publ_section_title
;
Structure prediction by ZEFSAII (Michael W. Deem and Ramdas Pophale) SiO2 
 PCOD8286611
Probable space group: F D D D
;
_chemical_formula_sum "Si O2"
_cell_formula_units_Z 80
_cell_length_a 9.580814
_cell_length_b 27.471071
_cell_length_c 11.470169
_cell_angle_alpha 90.000000
_cell_angle_beta 90.000000
_cell_angle_gamma 90.000000
_cell_volume 3018.893672
_symmetry_space_group_name_H-M "F D D D"
_symmetry_group_IT_number 70
_space_group.IT_coordinate_system_code '2'
_symmetry_cell_setting 'orthorhombic'
loop_
_space_group_symop_operation_xyz
x,y,z
1/4-x,1/4-y,z
x,1/4-y,1/4-z
1/4-x,y,1/4-z
-x,-y,-z
3/4+x,3/4+y,-z
-x,3/4+y,3/4+z
3/4+x,-y,3/4+z
x,1/2+y,1/2+z
1/4-x,3/4-y,1/2+z
x,3/4-y,3/4-z
1/4-x,1/2+y,3/4-z
-x,1/2-y,1/2-z
3/4+x,1/4+y,1/2-z
-x,1/4+y,1/4+z
3/4+x,1/2-y,1/4+z
1/2+x,y,1/2+z
3/4-x,1/4-y,1/2+z
1/2+x,1/4-y,3/4-z
3/4-x,y,3/4-z
1/2-x,-y,1/2-z
1/4+x,3/4+y,1/2-z
1/2-x,3/4+y,1/4+z
1/4+x,-y,1/4+z
1/2+x,1/2+y,z
3/4-x,3/4-y,z
1/2+x,3/4-y,1/4-z
3/4-x,1/2+y,1/4-z
1/2-x,1/2-y,-z
1/4+x,1/4+y,-z
1/2-x,1/4+y,3/4+z
1/4+x,1/2-y,3/4+z
loop_
_atom_site_type_symbol
_atom_site_label
_atom_site_fract_x
_atom_site_fract_y
_atom_site_fract_z
Si Si1 0.975704 0.946461 0.186996
Si Si2 0.556615 0.375000 0.375000
Si Si3 0.729684 0.555080 0.018844
O O1 0.125000 0.941576 0.125000
O O2 0.961658 0.910823 0.297222
O O3 0.955671 0.001258 0.233150
O O4 0.850969 0.933031 0.100009
O O5 0.648194 0.406023 0.466199
O O6 0.625000 0.560759 0.125000
#
# Coordination Sequence:
#
# PCOD8286611 Si02
#       3
#    32  16  32
#     4  11  21  37  67 110 147 191 257 300 370 443
#     4  12  23  38  74 109 148 201 242 308 369 432
#     4  11  20  39  67 112 144 195 249 306 365 446
#
# _framework density 26.499775
#
# number of rings (size 3 to 8) (size 9 to 14) (size 15 to 20)
#    0.000    0.800    8.000    3.000    0.000    0.000 
#    0.000    0.000    0.000   14.400    0.000    0.000 
#    0.000    0.000    0.000    0.000    0.000    0.000 
#
# Total GULP energy -248165.501982 kJ/mol
# GULP energy per Si atom -12408.275099 kJ/mol
# Density = 2.643946 g / cm^3
# Si number density = 26.499775 Si / 1000 Ang^3
#
#
#
# Elastic Constant Matrix: (Units=GPa)
#
#
# Indices 1 2 3 4 5 6 
#
# 1 91.4115 54.1474 91.1170 0.0000 0.0000 0.0000
# 2 54.1474 178.8896 89.0987 0.0000 0.0000 0.0000
# 3 91.1170 89.0987 169.0768 0.0000 0.0000 0.0000
# 4 0.0000 0.0000 0.0000 58.5420 0.0000 0.0000
# 5 0.0000 0.0000 0.0000 0.0000 71.7156 0.0000
# 6 0.0000 0.0000 0.0000 0.0000 0.0000 19.1522
#
#
#
# Elastic Compliance Matrix: (Units=1/GPa)
#
#
# Indices 1 2 3 4 5 6 
#
# 1 0.023797 -0.001106 -0.012241 0.000000 0.000000 0.000000
# 2 -0.001106 0.007631 -0.003425 0.000000 0.000000 0.000000
# 3 -0.012241 -0.003425 0.014316 0.000000 0.000000 0.000000
# 4 0.000000 0.000000 0.000000 0.017082 0.000000 0.000000
# 5 0.000000 0.000000 0.000000 0.000000 0.013944 0.000000
# 6 0.000000 0.000000 0.000000 0.000000 0.000000 0.052213
#
#
# Mechanical properties :
#
#
# Convention : Reuss Voigt Hill
#
# Bulk Modulus (GPa) = 81.97543 100.90045 91.43794
# Shear Modulus (GPa) = 30.01305 43.54960 36.78133
#
# Velocity S-wave (km/s) = 3.36903 4.05828 3.72961
# Velocity P-wave (km/s) = 6.79230 7.75359 7.28881
#
# Compressibility (1/GPa) = 0.01219878
#
# Stress axis : x y z
#
# Youngs Moduli (GPa) = 42.02279 131.04858 69.84951
#
# Poissons Ratio (x) = 0.14492 0.85506
# Poissons Ratio (y) = 0.04647 0.23925
# Poissons Ratio (z) = 0.51442 0.44887
#
# Static dielectric constant tensor:
#      x y z
#    x 4.641860 0.000000 0.000000 
#    y 0.000000 5.327860 0.000000 
#    z 0.000000 0.000000 5.108380 
# 
# 
# High freq. dielectric constant tensor:
#      x y z
#    x 2.060940 0.000000 0.000000 
#    y 0.000000 2.088550 0.000000 
#    z 0.000000 0.000000 2.069870 
# 
# From -- ./inp_files/13790.got.cif
#   From: 2010.03.12/outbox.cif.g09.slc.cpg/sg70_7_cif.got.tgz:13790.got - 2010.04.16 13:46:32.
