data_PCOD8286545
_publ_section_title
;
Structure prediction by ZEFSAII (Michael W. Deem and Ramdas Pophale) SiO2 
 PCOD8286545
Probable space group: F D D D
;
_chemical_formula_sum "Si O2"
_cell_formula_units_Z 144
_cell_length_a 15.732059
_cell_length_b 33.519857
_cell_length_c 12.762292
_cell_angle_alpha 90.000000
_cell_angle_beta 90.000000
_cell_angle_gamma 90.000000
_cell_volume 6730.020711
_symmetry_space_group_name_H-M "F D D D"
_symmetry_group_IT_number 70
_space_group.IT_coordinate_system_code '2'
_symmetry_cell_setting 'orthorhombic'
loop_
_space_group_symop_operation_xyz
x,y,z
1/4-x,1/4-y,z
x,1/4-y,1/4-z
1/4-x,y,1/4-z
-x,-y,-z
3/4+x,3/4+y,-z
-x,3/4+y,3/4+z
3/4+x,-y,3/4+z
x,1/2+y,1/2+z
1/4-x,3/4-y,1/2+z
x,3/4-y,3/4-z
1/4-x,1/2+y,3/4-z
-x,1/2-y,1/2-z
3/4+x,1/4+y,1/2-z
-x,1/4+y,1/4+z
3/4+x,1/2-y,1/4+z
1/2+x,y,1/2+z
3/4-x,1/4-y,1/2+z
1/2+x,1/4-y,3/4-z
3/4-x,y,3/4-z
1/2-x,-y,1/2-z
1/4+x,3/4+y,1/2-z
1/2-x,3/4+y,1/4+z
1/4+x,-y,1/4+z
1/2+x,1/2+y,z
3/4-x,3/4-y,z
1/2+x,3/4-y,1/4-z
3/4-x,1/2+y,1/4-z
1/2-x,1/2-y,-z
1/4+x,1/4+y,-z
1/2-x,1/4+y,3/4+z
1/4+x,1/2-y,3/4+z
loop_
_atom_site_type_symbol
_atom_site_label
_atom_site_fract_x
_atom_site_fract_y
_atom_site_fract_z
Si Si1 0.375000 0.234059 0.375000
Si Si2 0.722461 0.844515 0.103210
Si Si3 0.771849 0.819665 0.662182
Si Si4 0.274044 0.448828 0.859921
Si Si5 0.318248 0.473975 0.581264
O O1 0.295380 0.206218 0.404583
O O2 0.355683 0.262735 0.278372
O O3 0.625000 0.854604 0.125000
O O4 0.775566 0.884846 0.127151
O O5 0.748855 0.810882 0.187931
O O6 0.745130 0.828729 0.986414
O O7 0.740744 0.821422 0.782882
O O8 0.861306 0.796928 0.654573
O O9 0.375000 0.454229 0.875000
O O10 0.225851 0.491340 0.850866
#
# Coordination Sequence:
#
# PCOD8286545 Si02
#       5
#    16  32  32  32  32
#     4  10  24  44  63  94 128 186 226 270 333 408
#     4  12  25  42  67 104 141 171 224 286 346 405
#     4  11  23  45  66  95 137 180 220 284 342 404
#     4  11  24  42  72 103 134 173 228 282 349 406
#     4  11  24  41  71  93 134 177 230 276 333 412
#
# _framework density 21.396664999999999
#
# number of rings (size 3 to 8) (size 9 to 14) (size 15 to 20)
#    0.000    0.889    3.333    3.333    6.222    0.889 
#    0.000    2.222    0.000    0.000    0.000    0.000 
#    0.000    0.000    0.000    0.000    0.000    0.000 
#
# Total GULP energy -446247.090711 kJ/mol
# GULP energy per Si atom -12395.752520 kJ/mol
# Density = 2.134797 g / cm^3
# Si number density = 21.396665 Si / 1000 Ang^3
#
#
#
# Elastic Constant Matrix: (Units=GPa)
#
#
# Indices 1 2 3 4 5 6 
#
# 1 96.3937 33.3309 15.9144 0.0000 0.0000 0.0000
# 2 33.3309 152.8274 39.3876 0.0000 0.0000 0.0000
# 3 15.9144 39.3876 101.0240 0.0000 0.0000 0.0000
# 4 0.0000 0.0000 0.0000 20.8120 0.0000 0.0000
# 5 0.0000 0.0000 0.0000 0.0000 32.7543 0.0000
# 6 0.0000 0.0000 0.0000 0.0000 0.0000 20.6024
#
#
#
# Elastic Compliance Matrix: (Units=1/GPa)
#
#
# Indices 1 2 3 4 5 6 
#
# 1 0.011295 -0.002229 -0.000910 0.000000 0.000000 0.000000
# 2 -0.002229 0.007714 -0.002656 0.000000 0.000000 0.000000
# 3 -0.000910 -0.002656 0.011078 0.000000 0.000000 0.000000
# 4 0.000000 0.000000 0.000000 0.048049 0.000000 0.000000
# 5 0.000000 0.000000 0.000000 0.000000 0.030530 0.000000
# 6 0.000000 0.000000 0.000000 0.000000 0.000000 0.048538
#
#
# Mechanical properties :
#
#
# Convention : Reuss Voigt Hill
#
# Bulk Modulus (GPa) = 54.06670 58.61231 56.33950
# Shear Modulus (GPa) = 28.57782 32.27456 30.42619
#
# Velocity S-wave (km/s) = 3.65858 3.88802 3.77504
# Velocity P-wave (km/s) = 6.57043 6.89987 6.73716
#
# Compressibility (1/GPa) = 0.01849567
#
# Stress axis : x y z
#
# Youngs Moduli (GPa) = 88.53410 129.63339 90.27089
#
# Poissons Ratio (x) = 0.28892 0.08218
# Poissons Ratio (y) = 0.19732 0.23980
# Poissons Ratio (z) = 0.08060 0.34437
#
# Static dielectric constant tensor:
#      x y z
#    x 4.086250 0.000000 0.000000 
#    y 0.000000 4.045250 0.000000 
#    z 0.000000 0.000000 3.702470 
# 
# 
# High freq. dielectric constant tensor:
#      x y z
#    x 1.852430 0.000000 0.000000 
#    y 0.000000 1.855220 0.000000 
#    z 0.000000 0.000000 1.823580 
# 
# From -- ./inp_files/26588.got.cif
#   From: 2010.03.12/outbox.cif.g09.slc.cpg/sg70_14_cif.got.tgz:26588.got - 2010.04.16 13:46:32.
