data_PCOD8286614
_publ_section_title
;
Structure prediction by ZEFSAII (Michael W. Deem and Ramdas Pophale) SiO2 
 PCOD8286614
Probable space group: F D D D
;
_chemical_formula_sum "Si O2"
_cell_formula_units_Z 136
_cell_length_a 23.279555
_cell_length_b 10.716224
_cell_length_c 23.567566
_cell_angle_alpha 90.000000
_cell_angle_beta 90.000000
_cell_angle_gamma 90.000000
_cell_volume 5879.375378
_symmetry_space_group_name_H-M "F D D D"
_symmetry_group_IT_number 70
_space_group.IT_coordinate_system_code '2'
_symmetry_cell_setting 'orthorhombic'
loop_
_space_group_symop_operation_xyz
x,y,z
1/4-x,1/4-y,z
x,1/4-y,1/4-z
1/4-x,y,1/4-z
-x,-y,-z
3/4+x,3/4+y,-z
-x,3/4+y,3/4+z
3/4+x,-y,3/4+z
x,1/2+y,1/2+z
1/4-x,3/4-y,1/2+z
x,3/4-y,3/4-z
1/4-x,1/2+y,3/4-z
-x,1/2-y,1/2-z
3/4+x,1/4+y,1/2-z
-x,1/4+y,1/4+z
3/4+x,1/2-y,1/4+z
1/2+x,y,1/2+z
3/4-x,1/4-y,1/2+z
1/2+x,1/4-y,3/4-z
3/4-x,y,3/4-z
1/2-x,-y,1/2-z
1/4+x,3/4+y,1/2-z
1/2-x,3/4+y,1/4+z
1/4+x,-y,1/4+z
1/2+x,1/2+y,z
3/4-x,3/4-y,z
1/2+x,3/4-y,1/4-z
3/4-x,1/2+y,1/4-z
1/2-x,1/2-y,-z
1/4+x,1/4+y,-z
1/2-x,1/4+y,3/4+z
1/4+x,1/2-y,3/4+z
loop_
_atom_site_type_symbol
_atom_site_label
_atom_site_fract_x
_atom_site_fract_y
_atom_site_fract_z
Si Si1 0.125000 0.125000 0.125000
Si Si2 0.345459 0.185661 0.968458
Si Si3 0.385085 0.740485 0.586426
Si Si4 0.515362 0.756952 0.577471
Si Si5 0.046115 0.495297 0.050395
O O1 0.090122 0.214202 0.167713
O O2 0.285095 0.113006 0.966098
O O3 0.397961 0.086671 0.963419
O O4 0.346967 0.250132 0.029611
O O5 0.364029 0.625000 0.625000
O O6 0.450156 0.715870 0.566842
O O7 0.375000 0.875000 0.617616
O O8 0.558257 0.640202 0.565819
O O9 0.519476 0.811113 0.641596
O O10 0.000000 0.500000 0.000000
#
# Coordination Sequence:
#
# PCOD8286614 Si02
#       5
#     8  32  32  32  32
#     4  12  24  44  66 100 148 176 232 308 360 420
#     4  12  24  44  72 104 142 184 241 301 364 430
#     4  12  27  50  70 103 150 191 241 300 364 439
#     4  11  23  42  72 101 134 185 242 290 355 430
#     4  11  20  40  72 102 137 175 230 299 351 417
#
# _framework density 23.131709000000001
#
# number of rings (size 3 to 8) (size 9 to 14) (size 15 to 20)
#    0.000    0.471    8.235    0.706    0.000    6.588 
#    2.118    0.000    0.000    0.000    0.000    0.000 
#    0.000    0.000    0.000    0.000    0.000    0.000 
#
# Total GULP energy -421205.296974 kJ/mol
# GULP energy per Si atom -12388.391087 kJ/mol
# Density = 2.307906 g / cm^3
# Si number density = 23.131709 Si / 1000 Ang^3
#
#
#
# Elastic Constant Matrix: (Units=GPa)
#
#
# Indices 1 2 3 4 5 6 
#
# 1 37.5673 19.2926 12.6278 0.0000 0.0000 0.0000
# 2 19.2926 143.9824 39.9799 0.0000 0.0000 0.0000
# 3 12.6278 39.9799 124.3522 0.0000 0.0000 0.0000
# 4 0.0000 0.0000 0.0000 37.0228 0.0000 0.0000
# 5 0.0000 0.0000 0.0000 0.0000 13.4866 0.0000
# 6 0.0000 0.0000 0.0000 0.0000 0.0000 27.5896
#
#
#
# Elastic Compliance Matrix: (Units=1/GPa)
#
#
# Indices 1 2 3 4 5 6 
#
# 1 0.028973 -0.003366 -0.001860 0.000000 0.000000 0.000000
# 2 -0.003366 0.008017 -0.002236 0.000000 0.000000 0.000000
# 3 -0.001860 -0.002236 0.008949 0.000000 0.000000 0.000000
# 4 0.000000 0.000000 0.000000 0.027010 0.000000 0.000000
# 5 0.000000 0.000000 0.000000 0.000000 0.074148 0.000000
# 6 0.000000 0.000000 0.000000 0.000000 0.000000 0.036246
#
#
# Mechanical properties :
#
#
# Convention : Reuss Voigt Hill
#
# Bulk Modulus (GPa) = 32.24132 49.96694 41.10413
# Shear Modulus (GPa) = 23.96884 31.21991 27.59438
#
# Velocity S-wave (km/s) = 3.22248 3.67776 3.45762
# Velocity P-wave (km/s) = 5.27392 6.29940 5.80933
#
# Compressibility (1/GPa) = 0.03101610
#
# Stress axis : x y z
#
# Youngs Moduli (GPa) = 34.51546 124.73384 111.73973
#
# Poissons Ratio (x) = 0.41981 0.20784
# Poissons Ratio (y) = 0.11617 0.24982
# Poissons Ratio (z) = 0.06420 0.27887
#
# Static dielectric constant tensor:
#      x y z
#    x 3.800110 0.000000 0.000000 
#    y 0.000000 4.444570 0.000000 
#    z 0.000000 0.000000 4.330180 
# 
# 
# High freq. dielectric constant tensor:
#      x y z
#    x 1.883410 0.000000 0.000000 
#    y 0.000000 1.930670 0.000000 
#    z 0.000000 0.000000 1.918580 
# 
# From -- ./inp_files/18965.got.cif
#   From: 2010.03.12/outbox.cif.g09.slc.cpg/sg70_10_cif.got.tgz:18965.got - 2010.04.16 13:46:32.
