data_PCOD8286883
_publ_section_title
;
Structure prediction by ZEFSAII (Michael W. Deem and Ramdas Pophale) SiO2 
 PCOD8286883
Probable space group: I M M M
;
_chemical_formula_sum "Si O2"
_cell_formula_units_Z 96
_cell_length_a 24.427681
_cell_length_b 16.817028
_cell_length_c 17.765629
_cell_angle_alpha 90.000000
_cell_angle_beta 90.000000
_cell_angle_gamma 90.000000
_cell_volume 7298.138076
_symmetry_space_group_name_H-M "I M M M"
_symmetry_group_IT_number 71
_symmetry_cell_setting 'orthorhombic'
loop_
_space_group_symop_operation_xyz
x,y,z
-x,-y,z
x,-y,-z
-x,y,-z
-x,-y,-z
x,y,-z
-x,y,z
x,-y,z
1/2+x,1/2+y,1/2+z
1/2-x,1/2-y,1/2+z
1/2+x,1/2-y,1/2-z
1/2-x,1/2+y,1/2-z
1/2-x,1/2-y,1/2-z
1/2+x,1/2+y,1/2-z
1/2-x,1/2+y,1/2+z
1/2+x,1/2-y,1/2+z
loop_
_atom_site_type_symbol
_atom_site_label
_atom_site_fract_x
_atom_site_fract_y
_atom_site_fract_z
Si Si1 0.064922 0.411934 0.000000
Si Si2 0.265354 0.412048 0.588949
Si Si3 0.877289 0.842062 0.910796
Si Si4 0.854590 0.405387 0.416367
Si Si5 0.439069 0.500000 0.589091
Si Si6 0.562917 0.907863 0.210075
Si Si7 0.935830 0.689389 0.140833
O O1 0.085461 0.366521 0.926174
O O2 0.090815 0.500000 0.000000
O O3 0.000000 0.418137 0.000000
O O4 0.266642 0.422538 0.500000
O O5 0.275187 0.500000 0.624614
O O6 0.313479 0.351403 0.612483
O O7 0.205711 0.377501 0.612381
O O8 0.902169 0.770737 0.862352
O O9 0.907683 0.921679 0.883735
O O10 0.885404 0.826563 0.000000
O O11 0.867325 0.371083 0.500000
O O12 0.854719 0.500000 0.420385
O O13 0.900565 0.375063 0.358669
O O14 0.500000 0.500000 0.623763
O O15 0.441582 0.500000 0.500000
O O16 0.500000 0.897363 0.186205
O O17 0.577392 0.855367 0.282112
O O18 0.575601 0.000000 0.228934
O O19 0.000000 0.708665 0.132044
#
# Coordination Sequence:
#
# PCOD8286883 Si02
#       7
#     8  16  16  16   8  16  16
#     4   9  16  26  38  49  65  97 139 170 187 208
#     4   8  13  23  38  55  74  98 125 151 183 223
#     4  10  16  24  36  53  75 101 132 160 186 218
#     4   8  14  25  42  60  75  94 121 151 186 234
#     4   9  16  22  32  50  74 100 126 158 190 222
#     4   9  17  28  40  55  76 100 124 154 194 230
#     4  10  18  26  36  52  75 102 132 163 190 215
#
# _framework density 13.15404
#
# number of rings (size 3 to 8) (size 9 to 14) (size 15 to 20)
#    0.000    3.000    1.667    2.000    0.000    3.000 
#    0.000    2.500    0.000    0.000    0.000    0.000 
#    0.000    0.000    0.000    0.750    0.000    8.333 
#
# Total GULP energy -594915.400787 kJ/mol
# GULP energy per Si atom -12394.070850 kJ/mol
# Density = 1.312410 g / cm^3
# Si number density = 13.154040 Si / 1000 Ang^3
#
#
#
# Elastic Constant Matrix: (Units=GPa)
#
#
# Indices 1 2 3 4 5 6 
#
# 1 92.7847 43.1559 50.3785 0.0000 0.0000 0.0000
# 2 43.1559 74.9806 35.2969 0.0000 0.0000 0.0000
# 3 50.3785 35.2969 64.9078 0.0000 0.0000 0.0000
# 4 0.0000 0.0000 0.0000 8.7965 0.0000 0.0000
# 5 0.0000 0.0000 0.0000 0.0000 13.7001 0.0000
# 6 0.0000 0.0000 0.0000 0.0000 0.0000 12.9220
#
#
#
# Elastic Compliance Matrix: (Units=1/GPa)
#
#
# Indices 1 2 3 4 5 6 
#
# 1 0.020313 -0.005738 -0.012645 0.000000 0.000000 0.000000
# 2 -0.005738 0.019547 -0.006176 0.000000 0.000000 0.000000
# 3 -0.012645 -0.006176 0.028579 0.000000 0.000000 0.000000
# 4 0.000000 0.000000 0.000000 0.113681 0.000000 0.000000
# 5 0.000000 0.000000 0.000000 0.000000 0.072992 0.000000
# 6 0.000000 0.000000 0.000000 0.000000 0.000000 0.077388
#
#
# Mechanical properties :
#
#
# Convention : Reuss Voigt Hill
#
# Bulk Modulus (GPa) = 51.75903 54.48175 53.12039
# Shear Modulus (GPa) = 12.88467 14.00650 13.44559
#
# Velocity S-wave (km/s) = 3.13313 3.26668 3.20060
# Velocity P-wave (km/s) = 7.24724 7.46568 7.35727
#
# Compressibility (1/GPa) = 0.01932030
#
# Stress axis : x y z
#
# Youngs Moduli (GPa) = 49.23074 51.15934 34.99031
#
# Poissons Ratio (x) = 0.29358 0.44246
# Poissons Ratio (y) = 0.28251 0.21609
# Poissons Ratio (z) = 0.62253 0.31594
#
# Static dielectric constant tensor:
#      x y z
#    x 2.886030 0.000000 0.000000 
#    y 0.000000 2.508380 0.000000 
#    z 0.000000 0.000000 2.453100 
# 
# 
# High freq. dielectric constant tensor:
#      x y z
#    x 1.499920 0.000000 0.000000 
#    y 0.000000 1.478160 0.000000 
#    z 0.000000 0.000000 1.465300 
# 
# From -- ./inp_files/47439.got.cif
#   From: 2010.06.25/outbox.cif.g09.slc.cpg/sg71_24_cif.got.tgz:47439.got - 2010.06.28 04:59:45.
