data_PCOD8286358
_publ_section_title
;
Structure prediction by ZEFSAII (Michael W. Deem and Ramdas Pophale) SiO2 
 PCOD8286358
Probable space group: F D D D
;
_chemical_formula_sum "Si O2"
_cell_formula_units_Z 144
_cell_length_a 37.237891
_cell_length_b 11.586286
_cell_length_c 15.911127
_cell_angle_alpha 90.000000
_cell_angle_beta 90.000000
_cell_angle_gamma 90.000000
_cell_volume 6864.837529
_symmetry_space_group_name_H-M "F D D D"
_symmetry_group_IT_number 70
_space_group.IT_coordinate_system_code '2'
_symmetry_cell_setting 'orthorhombic'
loop_
_space_group_symop_operation_xyz
x,y,z
1/4-x,1/4-y,z
x,1/4-y,1/4-z
1/4-x,y,1/4-z
-x,-y,-z
3/4+x,3/4+y,-z
-x,3/4+y,3/4+z
3/4+x,-y,3/4+z
x,1/2+y,1/2+z
1/4-x,3/4-y,1/2+z
x,3/4-y,3/4-z
1/4-x,1/2+y,3/4-z
-x,1/2-y,1/2-z
3/4+x,1/4+y,1/2-z
-x,1/4+y,1/4+z
3/4+x,1/2-y,1/4+z
1/2+x,y,1/2+z
3/4-x,1/4-y,1/2+z
1/2+x,1/4-y,3/4-z
3/4-x,y,3/4-z
1/2-x,-y,1/2-z
1/4+x,3/4+y,1/2-z
1/2-x,3/4+y,1/4+z
1/4+x,-y,1/4+z
1/2+x,1/2+y,z
3/4-x,3/4-y,z
1/2+x,3/4-y,1/4-z
3/4-x,1/2+y,1/4-z
1/2-x,1/2-y,-z
1/4+x,1/4+y,-z
1/2-x,1/4+y,3/4+z
1/4+x,1/2-y,3/4+z
loop_
_atom_site_type_symbol
_atom_site_label
_atom_site_fract_x
_atom_site_fract_y
_atom_site_fract_z
Si Si1 0.108935 0.364305 0.032535
Si Si2 0.916842 0.732987 0.578037
Si Si3 0.475276 0.275922 0.444751
Si Si4 0.375000 0.375000 0.045854
Si Si5 0.973228 0.096220 0.460026
O O1 0.125000 0.387230 0.125000
O O2 0.068828 0.414257 0.020973
O O3 0.130453 0.436477 0.963881
O O4 0.110377 0.227796 0.013090
O O5 0.936005 0.625000 0.625000
O O6 0.942059 0.785004 0.507182
O O7 0.907654 0.831768 0.645408
O O8 0.469355 0.375000 0.375000
O O9 0.477370 0.156509 0.391880
O O10 0.511880 0.285630 0.499341
O O11 0.000000 0.000000 0.500000
#
# Coordination Sequence:
#
# PCOD8286358 Si02
#       5
#    32  32  32  16  32
#     4  11  22  44  67  93 131 173 227 273 325 407
#     4  10  23  40  61  93 129 165 217 269 322 390
#     4  10  22  40  62  93 123 166 214 265 335 391
#     4  10  25  36  65  96 126 172 214 276 335 378
#     4  10  23  39  65  97 130 168 217 274 341 392
#
# _framework density 20.976462999999999
#
# number of rings (size 3 to 8) (size 9 to 14) (size 15 to 20)
#    0.000    1.778    2.222    0.333    9.333    6.222 
#    0.000    3.333    0.000    0.000    0.000    0.000 
#    0.000    0.000    0.000    0.000    0.000    0.000 
#
# Total GULP energy -446083.075962 kJ/mol
# GULP energy per Si atom -12391.196554 kJ/mol
# Density = 2.092872 g / cm^3
# Si number density = 20.976463 Si / 1000 Ang^3
#
#
#
# Elastic Constant Matrix: (Units=GPa)
#
#
# Indices 1 2 3 4 5 6 
#
# 1 142.3109 24.7655 44.5081 0.0000 0.0000 0.0000
# 2 24.7655 39.9228 19.7581 0.0000 0.0000 0.0000
# 3 44.5081 19.7581 101.5817 0.0000 0.0000 0.0000
# 4 0.0000 0.0000 0.0000 40.6372 0.0000 0.0000
# 5 0.0000 0.0000 0.0000 0.0000 24.7823 0.0000
# 6 0.0000 0.0000 0.0000 0.0000 0.0000 18.9482
#
#
#
# Elastic Compliance Matrix: (Units=1/GPa)
#
#
# Indices 1 2 3 4 5 6 
#
# 1 0.008649 -0.003862 -0.003039 0.000000 0.000000 0.000000
# 2 -0.003862 0.029440 -0.004034 0.000000 0.000000 0.000000
# 3 -0.003039 -0.004034 0.011960 0.000000 0.000000 0.000000
# 4 0.000000 0.000000 0.000000 0.024608 0.000000 0.000000
# 5 0.000000 0.000000 0.000000 0.000000 0.040351 0.000000
# 6 0.000000 0.000000 0.000000 0.000000 0.000000 0.052776
#
#
# Mechanical properties :
#
#
# Convention : Reuss Voigt Hill
#
# Bulk Modulus (GPa) = 35.48493 51.31988 43.40240
# Shear Modulus (GPa) = 25.11962 29.85910 27.48936
#
# Velocity S-wave (km/s) = 3.46427 3.77697 3.62399
# Velocity P-wave (km/s) = 5.74063 6.59842 6.18442
#
# Compressibility (1/GPa) = 0.02818098
#
# Stress axis : x y z
#
# Youngs Moduli (GPa) = 115.61779 33.96690 83.60962
#
# Poissons Ratio (x) = 0.13117 0.25405
# Poissons Ratio (y) = 0.44647 0.33731
# Poissons Ratio (z) = 0.35131 0.13703
#
# Static dielectric constant tensor:
#      x y z
#    x 3.715390 0.000000 0.000000 
#    y 0.000000 4.374970 0.000000 
#    z 0.000000 0.000000 4.917240 
# 
# 
# High freq. dielectric constant tensor:
#      x y z
#    x 1.814020 0.000000 0.000000 
#    y 0.000000 1.802210 0.000000 
#    z 0.000000 0.000000 1.843070 
# 
# From -- ./inp_files/39476.got.cif
#   From: 2010.03.12/outbox.cif.g09.slc.cpg/sg70_20_cif.got.tgz:39476.got - 2010.04.16 13:46:32.
