data_PCOD8286902
_publ_section_title
;
Structure prediction by ZEFSAII (Michael W. Deem and Ramdas Pophale) SiO2 
 PCOD8286902
Probable space group: I M M M
;
_chemical_formula_sum "Si O2"
_cell_formula_units_Z 128
_cell_length_a 23.677645
_cell_length_b 17.124027
_cell_length_c 19.747559
_cell_angle_alpha 90.000000
_cell_angle_beta 90.000000
_cell_angle_gamma 90.000000
_cell_volume 8006.778768
_symmetry_space_group_name_H-M "I M M M"
_symmetry_group_IT_number 71
_symmetry_cell_setting 'orthorhombic'
loop_
_space_group_symop_operation_xyz
x,y,z
-x,-y,z
x,-y,-z
-x,y,-z
-x,-y,-z
x,y,-z
-x,y,z
x,-y,z
1/2+x,1/2+y,1/2+z
1/2-x,1/2-y,1/2+z
1/2+x,1/2-y,1/2-z
1/2-x,1/2+y,1/2-z
1/2-x,1/2-y,1/2-z
1/2+x,1/2+y,1/2-z
1/2-x,1/2+y,1/2+z
1/2+x,1/2-y,1/2+z
loop_
_atom_site_type_symbol
_atom_site_label
_atom_site_fract_x
_atom_site_fract_y
_atom_site_fract_z
Si Si1 0.125699 0.310500 0.806741
Si Si2 0.731302 0.088937 0.291087
Si Si3 0.874324 0.411743 0.427434
Si Si4 0.434605 0.911205 0.797331
Si Si5 0.803303 0.776339 0.706703
Si Si6 0.269929 0.866679 0.861109
Si Si7 0.844835 0.088882 0.921761
Si Si8 0.065743 0.216002 0.078336
O O1 0.179633 0.364258 0.826508
O O2 0.079379 0.363592 0.769866
O O3 0.142093 0.239876 0.754207
O O4 0.097104 0.279366 0.875084
O O5 0.791555 0.131963 0.309711
O O6 0.720809 0.090107 0.210521
O O7 0.734125 0.000000 0.317464
O O8 0.888664 0.370936 0.500000
O O9 0.896326 0.500000 0.431455
O O10 0.904537 0.371513 0.362999
O O11 0.806387 0.412035 0.417123
O O12 0.500000 0.907772 0.812038
O O13 0.413321 0.000000 0.786511
O O14 0.750000 0.750000 0.750000
O O15 0.797957 0.720752 0.640743
O O16 0.204010 0.866109 0.880318
O O17 0.904320 0.132320 0.909853
O O18 0.850904 0.000000 0.895523
O O19 0.827756 0.090646 0.000000
O O20 0.000000 0.207692 0.098525
O O21 0.071991 0.242416 0.000000
#
# Coordination Sequence:
#
# PCOD8286902 Si02
#       8
#    16  16  16  16  16  16  16  16
#     4  10  17  31  48  66  87 114 155 193 227 266
#     4  10  17  26  45  68  91 115 142 179 227 276
#     4  10  18  27  41  64  95 126 150 174 210 256
#     4  10  19  30  45  65  89 122 160 189 217 257
#     4   8  16  26  42  65  90 116 141 178 220 268
#     4  10  16  27  43  66  96 121 146 180 215 264
#     4  10  19  29  44  67  95 125 154 183 220 272
#     4  10  21  35  49  65  87 118 157 199 240 274
#
# _framework density 15.986454
#
# number of rings (size 3 to 8) (size 9 to 14) (size 15 to 20)
#    0.000    2.500    2.500    4.500    0.000    1.500 
#    0.000    2.500    0.000    1.500    0.000    4.375 
#    0.000    0.000    0.000    0.000    0.000    1.875 
#
# Total GULP energy -792899.623636 kJ/mol
# GULP energy per Si atom -12389.056619 kJ/mol
# Density = 1.595007 g / cm^3
# Si number density = 15.986454 Si / 1000 Ang^3
#
#
#
# Elastic Constant Matrix: (Units=GPa)
#
#
# Indices 1 2 3 4 5 6 
#
# 1 84.1601 37.0259 33.1060 0.0000 0.0000 0.0000
# 2 37.0259 89.7803 34.0337 0.0000 0.0000 0.0000
# 3 33.1060 34.0337 69.7747 0.0000 0.0000 0.0000
# 4 0.0000 0.0000 0.0000 16.4536 0.0000 0.0000
# 5 0.0000 0.0000 0.0000 0.0000 20.7019 0.0000
# 6 0.0000 0.0000 0.0000 0.0000 0.0000 22.3608
#
#
#
# Elastic Compliance Matrix: (Units=1/GPa)
#
#
# Indices 1 2 3 4 5 6 
#
# 1 0.016001 -0.004565 -0.005365 0.000000 0.000000 0.000000
# 2 -0.004565 0.014967 -0.005135 0.000000 0.000000 0.000000
# 3 -0.005365 -0.005135 0.019382 0.000000 0.000000 0.000000
# 4 0.000000 0.000000 0.000000 0.060777 0.000000 0.000000
# 5 0.000000 0.000000 0.000000 0.000000 0.048305 0.000000
# 6 0.000000 0.000000 0.000000 0.000000 0.000000 0.044721
#
#
# Mechanical properties :
#
#
# Convention : Reuss Voigt Hill
#
# Bulk Modulus (GPa) = 49.45483 50.22736 49.84109
# Shear Modulus (GPa) = 20.74488 21.20656 20.97572
#
# Velocity S-wave (km/s) = 3.60620 3.64611 3.62621
# Velocity P-wave (km/s) = 6.95286 7.01516 6.98408
#
# Compressibility (1/GPa) = 0.02022047
#
# Stress axis : x y z
#
# Youngs Moduli (GPa) = 62.49591 66.81211 51.59425
#
# Poissons Ratio (x) = 0.30500 0.27682
# Poissons Ratio (y) = 0.28530 0.26491
# Poissons Ratio (z) = 0.33531 0.34305
#
# Static dielectric constant tensor:
#      x y z
#    x 3.035570 0.000000 0.000000 
#    y 0.000000 4.064410 0.000000 
#    z 0.000000 0.000000 3.094030 
# 
# 
# High freq. dielectric constant tensor:
#      x y z
#    x 1.608250 0.000000 0.000000 
#    y 0.000000 1.594870 0.000000 
#    z 0.000000 0.000000 1.591910 
# 
# From -- ./inp_files/48420.got.cif
#   From: 2010.06.25/outbox.cif.g09.slc.cpg/sg71_25_cif.got.tgz:48420.got - 2010.06.28 04:59:45.
