data_PCOD8286149
_publ_section_title
;
Structure prediction by ZEFSAII (Michael W. Deem and Ramdas Pophale) SiO2 
 PCOD8286149
Probable space group: F D D D
;
_chemical_formula_sum "Si O2"
_cell_formula_units_Z 176
_cell_length_a 26.406045
_cell_length_b 24.621716
_cell_length_c 12.037729
_cell_angle_alpha 90.000000
_cell_angle_beta 90.000000
_cell_angle_gamma 90.000000
_cell_volume 7826.475655
_symmetry_space_group_name_H-M "F D D D"
_symmetry_group_IT_number 70
_space_group.IT_coordinate_system_code '2'
_symmetry_cell_setting 'orthorhombic'
loop_
_space_group_symop_operation_xyz
x,y,z
1/4-x,1/4-y,z
x,1/4-y,1/4-z
1/4-x,y,1/4-z
-x,-y,-z
3/4+x,3/4+y,-z
-x,3/4+y,3/4+z
3/4+x,-y,3/4+z
x,1/2+y,1/2+z
1/4-x,3/4-y,1/2+z
x,3/4-y,3/4-z
1/4-x,1/2+y,3/4-z
-x,1/2-y,1/2-z
3/4+x,1/4+y,1/2-z
-x,1/4+y,1/4+z
3/4+x,1/2-y,1/4+z
1/2+x,y,1/2+z
3/4-x,1/4-y,1/2+z
1/2+x,1/4-y,3/4-z
3/4-x,y,3/4-z
1/2-x,-y,1/2-z
1/4+x,3/4+y,1/2-z
1/2-x,3/4+y,1/4+z
1/4+x,-y,1/4+z
1/2+x,1/2+y,z
3/4-x,3/4-y,z
1/2+x,3/4-y,1/4-z
3/4-x,1/2+y,1/4-z
1/2-x,1/2-y,-z
1/4+x,1/4+y,-z
1/2-x,1/4+y,3/4+z
1/4+x,1/2-y,3/4+z
loop_
_atom_site_type_symbol
_atom_site_label
_atom_site_fract_x
_atom_site_fract_y
_atom_site_fract_z
Si Si1 0.012012 0.904876 0.159493
Si Si2 0.814233 0.125000 0.125000
Si Si3 0.899446 0.434093 0.608745
Si Si4 0.871047 0.530922 0.007777
Si Si5 0.200969 0.007074 0.174345
Si Si6 0.233756 0.827722 0.287524
O O1 0.024909 0.896734 0.286235
O O2 0.955904 0.929137 0.156447
O O3 0.057380 0.945400 0.116835
O O4 0.012359 0.850076 0.087312
O O5 0.847118 0.171959 0.067076
O O6 0.875000 0.375000 0.591620
O O7 0.865315 0.470886 0.693164
O O8 0.903454 0.466514 0.490058
O O9 0.813132 0.537249 0.044785
O O10 0.875000 0.533345 0.875000
O O11 0.214825 0.045899 0.069518
O O12 0.250000 0.000000 0.250000
O O13 0.224897 0.875000 0.375000
#
# Coordination Sequence:
#
# PCOD8286149 Si02
#       6
#    32  16  32  32  32  32
#     4  11  24  45  68 102 141 184 230 288 359 422
#     4  12  28  42  69 108 138 186 241 292 342 434
#     4  11  25  47  70 103 145 186 235 296 357 419
#     4  12  25  43  69 104 138 185 242 292 351 419
#     4  10  20  41  71  98 130 181 229 283 356 411
#     4  12  19  40  74  98 137 178 228 291 358 414
#
# _framework density 22.487773000000001
#
# number of rings (size 3 to 8) (size 9 to 14) (size 15 to 20)
#    0.000    0.727   10.000    0.000    0.000    3.273 
#    0.000    8.182    0.000    0.000    0.000    0.000 
#    0.000    0.000    0.000    0.000    0.000    0.000 
#
# Total GULP energy -545267.832731 kJ/mol
# GULP energy per Si atom -12392.450744 kJ/mol
# Density = 2.243659 g / cm^3
# Si number density = 22.487773 Si / 1000 Ang^3
#
#
#
# Elastic Constant Matrix: (Units=GPa)
#
#
# Indices 1 2 3 4 5 6 
#
# 1 54.9858 23.3835 21.1979 0.0000 0.0000 0.0000
# 2 23.3835 123.3350 38.6759 -0.0002 0.0000 0.0000
# 3 21.1979 38.6759 129.9730 -0.0004 0.0000 -0.0001
# 4 0.0000 -0.0002 -0.0004 -33.5601 0.0000 0.0000
# 5 0.0000 0.0000 0.0000 0.0000 21.9782 0.0000
# 6 0.0000 0.0000 -0.0001 0.0000 0.0000 26.2074
#
#
#
# Elastic Compliance Matrix: (Units=1/GPa)
#
#
# Indices 1 2 3 4 5 6 
#
# 1 0.020441 -0.003121 -0.002405 0.000000 0.000000 0.000000
# 2 -0.003121 0.009419 -0.002294 0.000000 0.000000 0.000000
# 3 -0.002405 -0.002294 0.008769 0.000000 0.000000 0.000000
# 4 0.000000 0.000000 0.000000 -0.029797 0.000000 0.000000
# 5 0.000000 0.000000 0.000000 0.000000 0.045500 0.000000
# 6 0.000000 0.000000 0.000000 0.000000 0.000000 0.038157
#
#
# Mechanical properties :
#
#
# Convention : Reuss Voigt Hill
#
# Bulk Modulus (GPa) = 43.49970 52.75648 48.12809
# Shear Modulus (GPa) = 43.18105 17.92752 30.55429
#
# Velocity S-wave (km/s) = 4.38676 2.82656 3.69006
# Velocity P-wave (km/s) = 6.71148 5.84496 6.29315
#
# Compressibility (1/GPa) = 0.02298867
#
# Stress axis : x y z
#
# Youngs Moduli (GPa) = 48.92109 106.16776 114.04201
#
# Poissons Ratio (x) = 0.33138 0.27427
# Poissons Ratio (y) = 0.15270 0.26158
# Poissons Ratio (z) = 0.11766 0.24352
#
# Static dielectric constant tensor:
#      x y z
#    x 3.832250 0.000000 0.000000 
#    y 0.000000 1.388320 0.000000 
#    z 0.000000 0.000000 4.124820 
# 
# 
# High freq. dielectric constant tensor:
#      x y z
#    x 1.861410 0.000000 0.000000 
#    y 0.000000 1.903060 0.000000 
#    z 0.000000 0.000000 1.890370 
# 
# From -- ./inp_files/22461.got.cif
#   From: 2010.03.12/outbox.cif.g09.slc.cpg/sg70_12_cif.got.tgz:22461.got - 2010.04.16 13:46:32.
