data_PCOD8286493
_publ_section_title
;
Structure prediction by ZEFSAII (Michael W. Deem and Ramdas Pophale) SiO2 
 PCOD8286493
Probable space group: F D D D
;
_chemical_formula_sum "Si O2"
_cell_formula_units_Z 216
_cell_length_a 13.744336
_cell_length_b 26.559548
_cell_length_c 26.087318
_cell_angle_alpha 90.000000
_cell_angle_beta 90.000000
_cell_angle_gamma 90.000000
_cell_volume 9523.002000
_symmetry_space_group_name_H-M "F D D D"
_symmetry_group_IT_number 70
_space_group.IT_coordinate_system_code '2'
_symmetry_cell_setting 'orthorhombic'
loop_
_space_group_symop_operation_xyz
x,y,z
1/4-x,1/4-y,z
x,1/4-y,1/4-z
1/4-x,y,1/4-z
-x,-y,-z
3/4+x,3/4+y,-z
-x,3/4+y,3/4+z
3/4+x,-y,3/4+z
x,1/2+y,1/2+z
1/4-x,3/4-y,1/2+z
x,3/4-y,3/4-z
1/4-x,1/2+y,3/4-z
-x,1/2-y,1/2-z
3/4+x,1/4+y,1/2-z
-x,1/4+y,1/4+z
3/4+x,1/2-y,1/4+z
1/2+x,y,1/2+z
3/4-x,1/4-y,1/2+z
1/2+x,1/4-y,3/4-z
3/4-x,y,3/4-z
1/2-x,-y,1/2-z
1/4+x,3/4+y,1/2-z
1/2-x,3/4+y,1/4+z
1/4+x,-y,1/4+z
1/2+x,1/2+y,z
3/4-x,3/4-y,z
1/2+x,3/4-y,1/4-z
3/4-x,1/2+y,1/4-z
1/2-x,1/2-y,-z
1/4+x,1/4+y,-z
1/2-x,1/4+y,3/4+z
1/4+x,1/2-y,3/4+z
loop_
_atom_site_type_symbol
_atom_site_label
_atom_site_fract_x
_atom_site_fract_y
_atom_site_fract_z
Si Si1 0.322305 0.293997 0.484699
Si Si2 0.214738 0.495508 0.088075
Si Si3 0.375000 0.375000 0.875000
Si Si4 0.983137 0.558448 0.376648
Si Si5 0.981470 0.957222 0.811901
Si Si6 0.431640 0.074112 0.095031
Si Si7 0.125000 0.125000 0.433946
Si Si8 0.883914 0.933255 0.709476
O O1 0.250000 0.250000 0.500000
O O2 0.424020 0.270354 0.464662
O O3 0.277451 0.329759 0.440248
O O4 0.337746 0.328120 0.533657
O O5 0.125000 0.483009 0.125000
O O6 0.295259 0.532226 0.112350
O O7 0.274326 0.443976 0.078194
O O8 0.306400 0.340697 0.841555
O O9 0.875000 0.580473 0.375000
O O10 0.976128 0.507550 0.344491
O O11 0.042007 0.603997 0.352206
O O12 0.032500 0.547803 0.432967
O O13 0.914684 0.963580 0.761032
O O14 0.096237 0.944171 0.806019
O O15 0.406423 0.125000 0.125000
O O16 0.875000 0.875000 0.723119
#
# Coordination Sequence:
#
# PCOD8286493 Si02
#       8
#    32  32   8  32  32  32  16  32
#     4  11  24  43  71 109 147 200 252 308 386 461
#     4  10  23  42  72 105 151 194 247 314 377 454
#     4  12  24  50  76 100 150 192 254 328 368 442
#     4  12  28  49  75 106 154 198 253 313 386 450
#     4  12  25  49  73 110 150 200 258 316 376 460
#     4  11  22  40  75 107 147 195 249 315 384 442
#     4  12  26  49  69 106 158 187 247 314 374 462
#     4  12  26  46  73 108 148 195 254 307 382 467
#
# _framework density 22.681922
#
# number of rings (size 3 to 8) (size 9 to 14) (size 15 to 20)
#    0.000    0.593    4.444    3.556    2.074    5.630 
#    0.000    0.000    0.000    0.000    0.000    0.000 
#    0.000    0.000    0.000    0.000    0.000    0.000 
#
# Total GULP energy -669336.116241 kJ/mol
# GULP energy per Si atom -12395.113264 kJ/mol
# Density = 2.263030 g / cm^3
# Si number density = 22.681922 Si / 1000 Ang^3
#
#
#
# Elastic Constant Matrix: (Units=GPa)
#
#
# Indices 1 2 3 4 5 6 
#
# 1 156.8754 53.9651 58.3787 0.0000 0.0000 0.0000
# 2 53.9651 97.8255 36.3470 0.0000 0.0000 0.0000
# 3 58.3787 36.3470 113.5577 0.0000 0.0000 0.0000
# 4 0.0000 0.0000 0.0000 32.4894 0.0000 0.0000
# 5 0.0000 0.0000 0.0000 0.0000 38.7815 0.0000
# 6 0.0000 0.0000 0.0000 0.0000 0.0000 41.6049
#
#
#
# Elastic Compliance Matrix: (Units=1/GPa)
#
#
# Indices 1 2 3 4 5 6 
#
# 1 0.008895 -0.003641 -0.003407 0.000000 0.000000 0.000000
# 2 -0.003641 0.013092 -0.002319 0.000000 0.000000 0.000000
# 3 -0.003407 -0.002319 0.011300 0.000000 0.000000 0.000000
# 4 0.000000 0.000000 0.000000 0.030779 0.000000 0.000000
# 5 0.000000 0.000000 0.000000 0.000000 0.025785 0.000000
# 6 0.000000 0.000000 0.000000 0.000000 0.000000 0.024036
#
#
# Mechanical properties :
#
#
# Convention : Reuss Voigt Hill
#
# Bulk Modulus (GPa) = 68.71398 73.96002 71.33700
# Shear Modulus (GPa) = 36.37081 37.21301 36.79191
#
# Velocity S-wave (km/s) = 4.00874 4.05488 4.03188
# Velocity P-wave (km/s) = 7.19632 7.38925 7.29342
#
# Compressibility (1/GPa) = 0.01455308
#
# Stress axis : x y z
#
# Youngs Moduli (GPa) = 112.42309 76.38082 88.49546
#
# Poissons Ratio (x) = 0.27809 0.30154
# Poissons Ratio (y) = 0.40932 0.20520
# Poissons Ratio (z) = 0.38308 0.17711
#
# Static dielectric constant tensor:
#      x y z
#    x 4.703700 0.000000 0.000000 
#    y 0.000000 3.937100 0.000000 
#    z 0.000000 0.000000 4.348120 
# 
# 
# High freq. dielectric constant tensor:
#      x y z
#    x 1.904690 0.000000 0.000000 
#    y 0.000000 1.897180 0.000000 
#    z 0.000000 0.000000 1.899280 
# 
# From -- ./inp_files/58813.got.cif
#   From: 2010.03.12/outbox.cif.g09.slc.cpg/sg70_30_cif.got.tgz:58813.got - 2010.04.16 13:46:32.
