data_PCOD8286873
_publ_section_title
;
Structure prediction by ZEFSAII (Michael W. Deem and Ramdas Pophale) SiO2 
 PCOD8286873
Probable space group: I M M M
;
_chemical_formula_sum "Si O2"
_cell_formula_units_Z 104
_cell_length_a 25.531546
_cell_length_b 12.256509
_cell_length_c 19.727450
_cell_angle_alpha 90.000000
_cell_angle_beta 90.000000
_cell_angle_gamma 90.000000
_cell_volume 6173.264043
_symmetry_space_group_name_H-M "I M M M"
_symmetry_group_IT_number 71
_symmetry_cell_setting 'orthorhombic'
loop_
_space_group_symop_operation_xyz
x,y,z
-x,-y,z
x,-y,-z
-x,y,-z
-x,-y,-z
x,y,-z
-x,y,z
x,-y,z
1/2+x,1/2+y,1/2+z
1/2-x,1/2-y,1/2+z
1/2+x,1/2-y,1/2-z
1/2-x,1/2+y,1/2-z
1/2-x,1/2-y,1/2-z
1/2+x,1/2+y,1/2-z
1/2-x,1/2+y,1/2+z
1/2+x,1/2-y,1/2+z
loop_
_atom_site_type_symbol
_atom_site_label
_atom_site_fract_x
_atom_site_fract_y
_atom_site_fract_z
Si Si1 0.783160 0.806912 0.000000
Si Si2 0.560162 0.874709 0.920937
Si Si3 0.699524 0.628335 0.000000
Si Si4 0.347978 0.372510 0.272980
Si Si5 0.557021 0.371310 0.357797
Si Si6 0.749912 0.876494 0.855581
Si Si7 0.396495 0.372807 0.500000
Si Si8 0.151663 0.230403 0.631930
O O1 0.766023 0.874097 0.065869
O O2 0.845597 0.795248 0.000000
O O3 0.755960 0.687674 0.000000
O O4 0.500000 0.842417 0.905928
O O5 0.597731 0.795779 0.878490
O O6 0.570404 0.000000 0.899731
O O7 0.572991 0.860199 0.000000
O O8 0.666118 0.662288 0.934590
O O9 0.710005 0.500000 0.000000
O O10 0.346927 0.500000 0.288723
O O11 0.398455 0.318891 0.309859
O O12 0.295149 0.323922 0.307499
O O13 0.354040 0.353830 0.193305
O O14 0.500000 0.321435 0.339328
O O15 0.555498 0.500000 0.346805
O O16 0.568800 0.343390 0.435515
O O17 0.696470 0.812706 0.844735
O O18 0.738865 0.000000 0.833751
O O19 0.378755 0.500000 0.500000
#
# Coordination Sequence:
#
# PCOD8286873 Si02
#       8
#     8  16   8  16  16  16   8  16
#     4  10  18  29  52  75  96 128 161 197 247 303
#     4   9  18  34  55  79 102 120 150 204 260 299
#     4  10  22  36  48  68  99 130 168 209 241 283
#     4  10  20  32  46  66 101 138 167 201 242 288
#     4   9  17  28  44  69 100 133 163 195 239 289
#     4  10  19  31  48  75 103 125 156 205 255 299
#     4  10  15  26  48  74 103 127 156 199 248 294
#     4  11  20  33  52  73  93 133 170 201 242 297
#
# _framework density 16.846841000000001
#
# number of rings (size 3 to 8) (size 9 to 14) (size 15 to 20)
#    0.000    2.154    2.308    2.769    0.000    1.538 
#    0.000    0.000    0.000    2.769    0.000    0.000 
#    0.000    1.231    0.000    0.000    0.000    0.154 
#
# Total GULP energy -644685.429486 kJ/mol
# GULP energy per Si atom -12397.796721 kJ/mol
# Density = 1.680850 g / cm^3
# Si number density = 16.846841 Si / 1000 Ang^3
#
#
#
# Elastic Constant Matrix: (Units=GPa)
#
#
# Indices 1 2 3 4 5 6 
#
# 1 125.6428 31.8580 38.6192 0.0000 0.0000 0.0000
# 2 31.8580 50.5184 16.7673 0.0000 0.0000 0.0000
# 3 38.6192 16.7673 99.6878 0.0000 0.0000 0.0000
# 4 0.0000 0.0000 0.0000 21.5358 0.0000 0.0000
# 5 0.0000 0.0000 0.0000 0.0000 19.3453 0.0000
# 6 0.0000 0.0000 0.0000 0.0000 0.0000 16.2795
#
#
#
# Elastic Compliance Matrix: (Units=1/GPa)
#
#
# Indices 1 2 3 4 5 6 
#
# 1 0.010288 -0.005471 -0.003066 0.000000 0.000000 0.000000
# 2 -0.005471 0.023874 -0.001896 0.000000 0.000000 0.000000
# 3 -0.003066 -0.001896 0.011538 0.000000 0.000000 0.000000
# 4 0.000000 0.000000 0.000000 0.046434 0.000000 0.000000
# 5 0.000000 0.000000 0.000000 0.000000 0.051692 0.000000
# 6 0.000000 0.000000 0.000000 0.000000 0.000000 0.061427
#
#
# Mechanical properties :
#
#
# Convention : Reuss Voigt Hill
#
# Bulk Modulus (GPa) = 40.26508 50.03756 45.15132
# Shear Modulus (GPa) = 21.33131 24.00576 22.66854
#
# Velocity S-wave (km/s) = 3.56222 3.77893 3.67218
# Velocity P-wave (km/s) = 6.39310 6.98616 6.69620
#
# Compressibility (1/GPa) = 0.02483542
#
# Stress axis : x y z
#
# Youngs Moduli (GPa) = 97.19592 41.88644 86.67103
#
# Poissons Ratio (x) = 0.22915 0.26570
# Poissons Ratio (y) = 0.53173 0.16435
# Poissons Ratio (z) = 0.29797 0.07943
#
# Static dielectric constant tensor:
#      x y z
#    x 3.422760 0.000000 0.000000 
#    y 0.000000 2.770300 0.000000 
#    z 0.000000 0.000000 3.146970 
# 
# 
# High freq. dielectric constant tensor:
#      x y z
#    x 1.663210 0.000000 0.000000 
#    y 0.000000 1.604170 0.000000 
#    z 0.000000 0.000000 1.651440 
# 
# From -- ./inp_files/48865.got.cif
#   From: 2010.06.25/outbox.cif.g09.slc.cpg/sg71_25_cif.got.tgz:48865.got - 2010.06.28 04:59:45.
