data_PCOD8286643
_publ_section_title
;
Structure prediction by ZEFSAII (Michael W. Deem and Ramdas Pophale) SiO2 
 PCOD8286643
Probable space group: F D D D
;
_chemical_formula_sum "Si O2"
_cell_formula_units_Z 136
_cell_length_a 9.498657
_cell_length_b 27.826854
_cell_length_c 22.759982
_cell_angle_alpha 90.000000
_cell_angle_beta 90.000000
_cell_angle_gamma 90.000000
_cell_volume 6015.867040
_symmetry_space_group_name_H-M "F D D D"
_symmetry_group_IT_number 70
_space_group.IT_coordinate_system_code '2'
_symmetry_cell_setting 'orthorhombic'
loop_
_space_group_symop_operation_xyz
x,y,z
1/4-x,1/4-y,z
x,1/4-y,1/4-z
1/4-x,y,1/4-z
-x,-y,-z
3/4+x,3/4+y,-z
-x,3/4+y,3/4+z
3/4+x,-y,3/4+z
x,1/2+y,1/2+z
1/4-x,3/4-y,1/2+z
x,3/4-y,3/4-z
1/4-x,1/2+y,3/4-z
-x,1/2-y,1/2-z
3/4+x,1/4+y,1/2-z
-x,1/4+y,1/4+z
3/4+x,1/2-y,1/4+z
1/2+x,y,1/2+z
3/4-x,1/4-y,1/2+z
1/2+x,1/4-y,3/4-z
3/4-x,y,3/4-z
1/2-x,-y,1/2-z
1/4+x,3/4+y,1/2-z
1/2-x,3/4+y,1/4+z
1/4+x,-y,1/4+z
1/2+x,1/2+y,z
3/4-x,3/4-y,z
1/2+x,3/4-y,1/4-z
3/4-x,1/2+y,1/4-z
1/2-x,1/2-y,-z
1/4+x,1/4+y,-z
1/2-x,1/4+y,3/4+z
1/4+x,1/2-y,3/4+z
loop_
_atom_site_type_symbol
_atom_site_label
_atom_site_fract_x
_atom_site_fract_y
_atom_site_fract_z
Si Si1 0.038700 0.305816 0.959111
Si Si2 0.741943 0.478130 0.079711
Si Si3 0.492465 0.792083 0.590847
Si Si4 0.625000 0.625000 0.625000
Si Si5 0.864139 0.428988 0.276835
O O1 0.960243 0.256868 0.940848
O O2 0.980461 0.347288 0.917909
O O3 0.002320 0.311573 0.027737
O O4 0.208500 0.300977 0.959349
O O5 0.625000 0.460224 0.125000
O O6 0.892424 0.476460 0.108264
O O7 0.716158 0.533480 0.059497
O O8 0.625000 0.817053 0.625000
O O9 0.412775 0.824751 0.542061
O O10 0.875000 0.375000 0.302728
#
# Coordination Sequence:
#
# PCOD8286643 Si02
#       5
#    32  32  32   8  32
#     4  11  24  44  68 101 142 182 233 295 344 424
#     4  11  21  44  74  93 133 192 224 282 360 414
#     4  11  23  45  68  99 142 184 235 283 352 430
#     4  12  28  44  66 108 148 184 242 294 356 412
#     4  11  25  41  69 105 135 179 240 287 354 421
#
# _framework density 22.606883
#
# number of rings (size 3 to 8) (size 9 to 14) (size 15 to 20)
#    0.000    0.941    5.882    1.412    3.294    6.118 
#    6.353    0.000    0.000    0.000    0.000    0.000 
#    0.000    0.000    0.000    0.000    0.000    0.000 
#
# Total GULP energy -421250.394191 kJ/mol
# GULP energy per Si atom -12389.717476 kJ/mol
# Density = 2.255543 g / cm^3
# Si number density = 22.606883 Si / 1000 Ang^3
#
#
#
# Elastic Constant Matrix: (Units=GPa)
#
#
# Indices 1 2 3 4 5 6 
#
# 1 114.0465 11.3438 51.6979 0.0000 0.0000 0.0000
# 2 11.3438 70.3789 36.9118 0.0000 0.0000 0.0000
# 3 51.6979 36.9118 151.5210 0.0000 0.0000 0.0000
# 4 0.0000 0.0000 0.0000 8.7766 0.0000 0.0000
# 5 0.0000 0.0000 0.0000 0.0000 41.4763 0.0000
# 6 0.0000 0.0000 0.0000 0.0000 0.0000 10.7150
#
#
#
# Elastic Compliance Matrix: (Units=1/GPa)
#
#
# Indices 1 2 3 4 5 6 
#
# 1 0.010375 0.000211 -0.003591 0.000000 0.000000 0.000000
# 2 0.000211 0.016294 -0.004042 0.000000 0.000000 0.000000
# 3 -0.003591 -0.004042 0.008810 0.000000 0.000000 0.000000
# 4 0.000000 0.000000 0.000000 0.113940 0.000000 0.000000
# 5 0.000000 0.000000 0.000000 0.000000 0.024110 0.000000
# 6 0.000000 0.000000 0.000000 0.000000 0.000000 0.093327
#
#
# Mechanical properties :
#
#
# Convention : Reuss Voigt Hill
#
# Bulk Modulus (GPa) = 48.45890 59.53926 53.99908
# Shear Modulus (GPa) = 17.32631 27.92645 22.62638
#
# Velocity S-wave (km/s) = 2.77143 3.51851 3.16707
# Velocity P-wave (km/s) = 5.63232 6.54985 6.10834
#
# Compressibility (1/GPa) = 0.02063604
#
# Stress axis : x y z
#
# Youngs Moduli (GPa) = 96.38208 61.37067 113.51141
#
# Poissons Ratio (x) = -0.01297 0.40767
# Poissons Ratio (y) = -0.02037 0.45876
# Poissons Ratio (z) = 0.34615 0.24803
#
# Static dielectric constant tensor:
#      x y z
#    x 4.046120 0.000000 0.000000 
#    y 0.000000 3.763710 0.000000 
#    z 0.000000 0.000000 4.650450 
# 
# 
# High freq. dielectric constant tensor:
#      x y z
#    x 1.884880 0.000000 0.000000 
#    y 0.000000 1.863640 0.000000 
#    z 0.000000 0.000000 1.916990 
# 
# From -- ./inp_files/42062.got.cif
#   From: 2010.03.12/outbox.cif.g09.slc.cpg/sg70_22_cif.got.tgz:42062.got - 2010.04.16 13:46:32.
