data_PCOD8286387
_publ_section_title
;
Structure prediction by ZEFSAII (Michael W. Deem and Ramdas Pophale) SiO2 
 PCOD8286387
Probable space group: F D D D
;
_chemical_formula_sum "Si O2"
_cell_formula_units_Z 208
_cell_length_a 18.622052
_cell_length_b 25.737065
_cell_length_c 19.897759
_cell_angle_alpha 90.000000
_cell_angle_beta 90.000000
_cell_angle_gamma 90.000000
_cell_volume 9536.537499
_symmetry_space_group_name_H-M "F D D D"
_symmetry_group_IT_number 70
_space_group.IT_coordinate_system_code '2'
_symmetry_cell_setting 'orthorhombic'
loop_
_space_group_symop_operation_xyz
x,y,z
1/4-x,1/4-y,z
x,1/4-y,1/4-z
1/4-x,y,1/4-z
-x,-y,-z
3/4+x,3/4+y,-z
-x,3/4+y,3/4+z
3/4+x,-y,3/4+z
x,1/2+y,1/2+z
1/4-x,3/4-y,1/2+z
x,3/4-y,3/4-z
1/4-x,1/2+y,3/4-z
-x,1/2-y,1/2-z
3/4+x,1/4+y,1/2-z
-x,1/4+y,1/4+z
3/4+x,1/2-y,1/4+z
1/2+x,y,1/2+z
3/4-x,1/4-y,1/2+z
1/2+x,1/4-y,3/4-z
3/4-x,y,3/4-z
1/2-x,-y,1/2-z
1/4+x,3/4+y,1/2-z
1/2-x,3/4+y,1/4+z
1/4+x,-y,1/4+z
1/2+x,1/2+y,z
3/4-x,3/4-y,z
1/2+x,3/4-y,1/4-z
3/4-x,1/2+y,1/4-z
1/2-x,1/2-y,-z
1/4+x,1/4+y,-z
1/2-x,1/4+y,3/4+z
1/4+x,1/2-y,3/4+z
loop_
_atom_site_type_symbol
_atom_site_label
_atom_site_fract_x
_atom_site_fract_y
_atom_site_fract_z
Si Si1 0.228428 0.125000 0.125000
Si Si2 0.793213 0.588915 0.356990
Si Si3 0.776709 0.938986 0.178484
Si Si4 0.915006 0.172942 0.211270
Si Si5 0.552013 0.875000 0.875000
Si Si6 0.092259 0.214919 0.332250
Si Si7 0.125000 0.625000 0.735074
Si Si8 0.305139 0.957048 0.828100
O O1 0.277202 0.078006 0.151325
O O2 0.183825 0.150518 0.185776
O O3 0.875000 0.572807 0.375000
O O4 0.761625 0.637598 0.399057
O O5 0.799985 0.601006 0.277879
O O6 0.736622 0.541051 0.368055
O O7 0.843410 0.957420 0.134046
O O8 0.810446 0.931478 0.253339
O O9 0.714634 0.982469 0.178832
O O10 0.848475 0.135637 0.192115
O O11 0.894911 0.233700 0.212318
O O12 0.507284 0.927067 0.883748
O O13 0.089597 0.168522 0.279805
O O14 0.375000 0.950246 0.875000
#
# Coordination Sequence:
#
# PCOD8286387 Si02
#       8
#    16  32  32  32  16  32  16  32
#     4  10  22  41  65  94 130 180 214 286 340 412
#     4  12  25  42  69 102 139 184 233 291 350 424
#     4  11  24  48  71 100 142 187 232 293 368 425
#     4  11  24  43  65  97 142 181 233 283 350 419
#     4  11  23  43  67  99 137 182 226 304 346 420
#     4  12  23  45  68 101 137 184 235 290 349 426
#     4  11  22  42  72  96 131 174 232 284 353 410
#     4  11  25  45  73 105 137 183 239 294 359 441
#
# _framework density 21.810851
#
# number of rings (size 3 to 8) (size 9 to 14) (size 15 to 20)
#    0.000    0.769    4.615    2.077    0.000    6.154 
#    2.769    0.000    0.000    0.000    0.000    0.000 
#    0.000    0.000    0.000    0.000    0.000    0.000 
#
# Total GULP energy -644274.196663 kJ/mol
# GULP energy per Si atom -12389.888397 kJ/mol
# Density = 2.176121 g / cm^3
# Si number density = 21.810851 Si / 1000 Ang^3
#
#
#
# Elastic Constant Matrix: (Units=GPa)
#
#
# Indices 1 2 3 4 5 6 
#
# 1 133.5897 24.2471 53.6113 0.0000 0.0000 0.0000
# 2 24.2471 73.1411 28.9403 0.0000 0.0000 0.0000
# 3 53.6113 28.9403 141.4327 0.0000 0.0000 0.0000
# 4 0.0000 0.0000 0.0000 24.7401 0.0000 0.0000
# 5 0.0000 0.0000 0.0000 0.0000 59.9777 0.0000
# 6 0.0000 0.0000 0.0000 0.0000 0.0000 26.1263
#
#
#
# Elastic Compliance Matrix: (Units=1/GPa)
#
#
# Indices 1 2 3 4 5 6 
#
# 1 0.009038 -0.001785 -0.003061 0.000000 0.000000 0.000000
# 2 -0.001785 0.015229 -0.002440 0.000000 0.000000 0.000000
# 3 -0.003061 -0.002440 0.008730 0.000000 0.000000 0.000000
# 4 0.000000 0.000000 0.000000 0.040420 0.000000 0.000000
# 5 0.000000 0.000000 0.000000 0.000000 0.016673 0.000000
# 6 0.000000 0.000000 0.000000 0.000000 0.000000 0.038276
#
#
# Mechanical properties :
#
#
# Convention : Reuss Voigt Hill
#
# Bulk Modulus (GPa) = 54.27010 62.41786 58.34398
# Shear Modulus (GPa) = 33.53938 38.25981 35.89959
#
# Velocity S-wave (km/s) = 3.92565 4.19282 4.06143
# Velocity P-wave (km/s) = 6.74417 7.21939 6.98582
#
# Compressibility (1/GPa) = 0.01842635
#
# Stress axis : x y z
#
# Youngs Moduli (GPa) = 110.64545 65.66299 114.54966
#
# Poissons Ratio (x) = 0.11722 0.35059
# Poissons Ratio (y) = 0.19752 0.27945
# Poissons Ratio (z) = 0.33864 0.16019
#
# Static dielectric constant tensor:
#      x y z
#    x 4.264030 0.000000 0.000000 
#    y 0.000000 3.730760 0.000000 
#    z 0.000000 0.000000 4.248860 
# 
# 
# High freq. dielectric constant tensor:
#      x y z
#    x 1.879920 0.000000 0.000000 
#    y 0.000000 1.839470 0.000000 
#    z 0.000000 0.000000 1.865350 
# 
# From -- ./inp_files/43969.got.cif
#   From: 2010.03.12/outbox.cif.g09.slc.cpg/sg70_22_cif.got.tgz:43969.got - 2010.04.16 13:46:32.
