data_PCOD8286624
_publ_section_title
;
Structure prediction by ZEFSAII (Michael W. Deem and Ramdas Pophale) SiO2 
 PCOD8286624
Probable space group: F D D D
;
_chemical_formula_sum "Si O2"
_cell_formula_units_Z 176
_cell_length_a 23.168640
_cell_length_b 14.085078
_cell_length_c 24.808217
_cell_angle_alpha 90.000000
_cell_angle_beta 90.000000
_cell_angle_gamma 90.000000
_cell_volume 8095.717589
_symmetry_space_group_name_H-M "F D D D"
_symmetry_group_IT_number 70
_space_group.IT_coordinate_system_code '2'
_symmetry_cell_setting 'orthorhombic'
loop_
_space_group_symop_operation_xyz
x,y,z
1/4-x,1/4-y,z
x,1/4-y,1/4-z
1/4-x,y,1/4-z
-x,-y,-z
3/4+x,3/4+y,-z
-x,3/4+y,3/4+z
3/4+x,-y,3/4+z
x,1/2+y,1/2+z
1/4-x,3/4-y,1/2+z
x,3/4-y,3/4-z
1/4-x,1/2+y,3/4-z
-x,1/2-y,1/2-z
3/4+x,1/4+y,1/2-z
-x,1/4+y,1/4+z
3/4+x,1/2-y,1/4+z
1/2+x,y,1/2+z
3/4-x,1/4-y,1/2+z
1/2+x,1/4-y,3/4-z
3/4-x,y,3/4-z
1/2-x,-y,1/2-z
1/4+x,3/4+y,1/2-z
1/2-x,3/4+y,1/4+z
1/4+x,-y,1/4+z
1/2+x,1/2+y,z
3/4-x,3/4-y,z
1/2+x,3/4-y,1/4-z
3/4-x,1/2+y,1/4-z
1/2-x,1/2-y,-z
1/4+x,1/4+y,-z
1/2-x,1/4+y,3/4+z
1/4+x,1/2-y,3/4+z
loop_
_atom_site_type_symbol
_atom_site_label
_atom_site_fract_x
_atom_site_fract_y
_atom_site_fract_z
Si Si1 0.029429 0.812656 0.958283
Si Si2 0.536844 0.859808 0.091476
Si Si3 0.677510 0.068082 0.390576
Si Si4 0.656230 0.369840 0.546890
Si Si5 0.820135 0.423860 0.254737
Si Si6 0.622208 0.375000 0.875000
O O1 0.081982 0.824662 0.918155
O O2 0.987944 0.728200 0.941213
O O3 0.058390 0.794396 0.017909
O O4 0.987837 0.905779 0.960760
O O5 0.484356 0.932548 0.102446
O O6 0.589619 0.902293 0.055751
O O7 0.564669 0.831424 0.148665
O O8 0.625000 0.125000 0.361110
O O9 0.688886 0.126732 0.445687
O O10 0.661859 0.957827 0.400948
O O11 0.663945 0.285146 0.502694
O O12 0.875000 0.375000 0.283668
#
# Coordination Sequence:
#
# PCOD8286624 Si02
#       6
#    32  32  32  32  32  16
#     4  12  22  39  63  98 134 174 220 275 340 414
#     4  11  24  43  65  99 137 175 227 277 338 419
#     4  11  23  44  65  97 131 176 226 278 334 406
#     4  11  24  40  64  99 139 181 217 279 350 407
#     4  11  21  37  62  94 138 173 209 272 350 401
#     4  12  26  40  73  93 128 184 234 276 344 406
#
# _framework density 21.739889000000002
#
# number of rings (size 3 to 8) (size 9 to 14) (size 15 to 20)
#    0.000    0.727    5.455    3.818    0.000    0.000 
#    0.000    0.909    4.000    2.182    0.000    0.000 
#    0.000    0.000    0.000    0.000    0.000    0.000 
#
# Total GULP energy -545083.463103 kJ/mol
# GULP energy per Si atom -12388.260525 kJ/mol
# Density = 2.169041 g / cm^3
# Si number density = 21.739889 Si / 1000 Ang^3
#
#
#
# Elastic Constant Matrix: (Units=GPa)
#
#
# Indices 1 2 3 4 5 6 
#
# 1 167.9300 31.8925 47.1707 0.0000 0.0000 0.0000
# 2 31.8925 45.9116 21.1051 0.0000 0.0000 0.0000
# 3 47.1707 21.1051 88.5999 0.0000 0.0000 0.0000
# 4 0.0000 0.0000 0.0000 22.0106 0.0000 0.0000
# 5 0.0000 0.0000 0.0000 0.0000 34.4328 0.0000
# 6 0.0000 0.0000 0.0000 0.0000 0.0000 25.5347
#
#
#
# Elastic Compliance Matrix: (Units=1/GPa)
#
#
# Indices 1 2 3 4 5 6 
#
# 1 0.007554 -0.003817 -0.003113 0.000000 0.000000 0.000000
# 2 -0.003817 0.026388 -0.004254 0.000000 0.000000 0.000000
# 3 -0.003113 -0.004254 0.013957 0.000000 0.000000 0.000000
# 4 0.000000 0.000000 0.000000 0.045433 0.000000 0.000000
# 5 0.000000 0.000000 0.000000 0.000000 0.029042 0.000000
# 6 0.000000 0.000000 0.000000 0.000000 0.000000 0.039162
#
#
# Mechanical properties :
#
#
# Convention : Reuss Voigt Hill
#
# Bulk Modulus (GPa) = 39.16525 55.86423 47.51474
# Shear Modulus (GPa) = 25.98581 29.88050 27.93316
#
# Velocity S-wave (km/s) = 3.46107 3.71139 3.58841
# Velocity P-wave (km/s) = 5.83322 6.64216 6.25079
#
# Compressibility (1/GPa) = 0.02553284
#
# Stress axis : x y z
#
# Youngs Moduli (GPa) = 132.38001 37.89660 71.64784
#
# Poissons Ratio (x) = 0.14463 0.22301
# Poissons Ratio (y) = 0.50523 0.30477
# Poissons Ratio (z) = 0.41205 0.16120
#
# Static dielectric constant tensor:
#      x y z
#    x 4.646390 0.000000 0.000000 
#    y 0.000000 3.623340 0.000000 
#    z 0.000000 0.000000 3.931110 
# 
# 
# High freq. dielectric constant tensor:
#      x y z
#    x 1.890890 0.000000 0.000000 
#    y 0.000000 1.801470 0.000000 
#    z 0.000000 0.000000 1.838870 
# 
# From -- ./inp_files/51367.got.cif
#   From: 2010.03.12/outbox.cif.g09.slc.cpg/sg70_26_cif.got.tgz:51367.got - 2010.04.16 13:46:32.
