data_PCOD8286338
_publ_section_title
;
Structure prediction by ZEFSAII (Michael W. Deem and Ramdas Pophale) SiO2 
 PCOD8286338
Probable space group: F D D D
;
_chemical_formula_sum "Si O2"
_cell_formula_units_Z 160
_cell_length_a 7.772261
_cell_length_b 31.548694
_cell_length_c 31.480400
_cell_angle_alpha 90.000000
_cell_angle_beta 90.000000
_cell_angle_gamma 90.000000
_cell_volume 7719.141533
_symmetry_space_group_name_H-M "F D D D"
_symmetry_group_IT_number 70
_space_group.IT_coordinate_system_code '2'
_symmetry_cell_setting 'orthorhombic'
loop_
_space_group_symop_operation_xyz
x,y,z
1/4-x,1/4-y,z
x,1/4-y,1/4-z
1/4-x,y,1/4-z
-x,-y,-z
3/4+x,3/4+y,-z
-x,3/4+y,3/4+z
3/4+x,-y,3/4+z
x,1/2+y,1/2+z
1/4-x,3/4-y,1/2+z
x,3/4-y,3/4-z
1/4-x,1/2+y,3/4-z
-x,1/2-y,1/2-z
3/4+x,1/4+y,1/2-z
-x,1/4+y,1/4+z
3/4+x,1/2-y,1/4+z
1/2+x,y,1/2+z
3/4-x,1/4-y,1/2+z
1/2+x,1/4-y,3/4-z
3/4-x,y,3/4-z
1/2-x,-y,1/2-z
1/4+x,3/4+y,1/2-z
1/2-x,3/4+y,1/4+z
1/4+x,-y,1/4+z
1/2+x,1/2+y,z
3/4-x,3/4-y,z
1/2+x,3/4-y,1/4-z
3/4-x,1/2+y,1/4-z
1/2-x,1/2-y,-z
1/4+x,1/4+y,-z
1/2-x,1/4+y,3/4+z
1/4+x,1/2-y,3/4+z
loop_
_atom_site_type_symbol
_atom_site_label
_atom_site_fract_x
_atom_site_fract_y
_atom_site_fract_z
Si Si1 0.678973 0.716790 0.707245
Si Si2 0.527923 0.041871 0.842273
Si Si3 0.294781 0.739739 0.707651
Si Si4 0.875000 0.375000 0.773892
Si Si5 0.625000 0.976029 0.625000
Si Si6 0.976214 0.657331 0.490686
O O1 0.802667 0.743499 0.676033
O O2 0.496839 0.739350 0.697121
O O3 0.734838 0.723584 0.756651
O O4 0.675222 0.666288 0.697367
O O5 0.375000 0.044970 0.875000
O O6 0.711751 0.053328 0.863291
O O7 0.489653 0.076270 0.806806
O O8 0.181523 0.746268 0.665752
O O9 0.241243 0.694611 0.726109
O O10 0.712551 0.386933 0.744930
O O11 0.125000 0.625000 0.501724
#
# Coordination Sequence:
#
# PCOD8286338 Si02
#       6
#    32  32  32  16  16  32
#     4   9  19  41  65  86 124 164 211 256 313 383
#     4  11  24  42  63  93 130 166 212 262 316 388
#     4   9  20  39  65  91 119 165 212 256 311 386
#     4  10  22  38  71  88 118 164 210 264 310 371
#     4  12  24  36  71  92 120 168 214 264 318 373
#     4  10  24  42  63  93 127 166 210 258 319 389
#
# _framework density 20.727694
#
# number of rings (size 3 to 8) (size 9 to 14) (size 15 to 20)
#    0.000    2.000    2.000    1.200    5.600    1.600 
#    3.600    1.000    0.000    0.000    0.000    0.000 
#    0.000    0.000    0.000    0.000    0.000    0.000 
#
# Total GULP energy -495825.135652 kJ/mol
# GULP energy per Si atom -12395.628391 kJ/mol
# Density = 2.068052 g / cm^3
# Si number density = 20.727694 Si / 1000 Ang^3
#
#
#
# Elastic Constant Matrix: (Units=GPa)
#
#
# Indices 1 2 3 4 5 6 
#
# 1 124.5460 13.7337 40.3246 0.0000 0.0000 0.0000
# 2 13.7337 42.8618 -27.8065 0.0000 0.0000 0.0000
# 3 40.3246 -27.8065 70.2749 0.0000 0.0000 0.0000
# 4 0.0000 0.0000 0.0000 13.3885 0.0000 0.0000
# 5 0.0000 0.0000 0.0000 0.0000 40.8293 0.0000
# 6 0.0000 0.0000 0.0000 0.0000 0.0000 12.4637
#
#
#
# Elastic Compliance Matrix: (Units=1/GPa)
#
#
# Indices 1 2 3 4 5 6 
#
# 1 0.013561 -0.012638 -0.012782 0.000000 0.000000 0.000000
# 2 -0.012638 0.043165 0.024331 0.000000 0.000000 0.000000
# 3 -0.012782 0.024331 0.031192 0.000000 0.000000 0.000000
# 4 0.000000 0.000000 0.000000 0.074691 0.000000 0.000000
# 5 0.000000 0.000000 0.000000 0.000000 0.024492 0.000000
# 6 0.000000 0.000000 0.000000 0.000000 0.000000 0.080233
#
#
# Mechanical properties :
#
#
# Convention : Reuss Voigt Hill
#
# Bulk Modulus (GPa) = 11.66306 32.24291 21.95299
# Shear Modulus (GPa) = 16.77340 27.43169 22.10255
#
# Velocity S-wave (km/s) = 2.84778 3.64185 3.26901
# Velocity P-wave (km/s) = 4.05612 5.76830 4.98625
#
# Compressibility (1/GPa) = 0.08574076
#
# Stress axis : x y z
#
# Youngs Moduli (GPa) = 73.73996 23.16703 32.05985
#
# Poissons Ratio (x) = 0.29277 0.40979
# Poissons Ratio (y) = 0.93189 -0.78005
# Poissons Ratio (z) = 0.94254 -0.56368
#
# Static dielectric constant tensor:
#      x y z
#    x 3.933730 0.000000 0.000000 
#    y 0.000000 3.777470 0.000000 
#    z 0.000000 0.000000 3.681620 
# 
# 
# High freq. dielectric constant tensor:
#      x y z
#    x 1.825360 0.000000 0.000000 
#    y 0.000000 1.799000 0.000000 
#    z 0.000000 0.000000 1.798560 
# 
# From -- ./inp_files/63918.got.cif
#   From: 2010.03.12/outbox.cif.g09.slc.cpg/sg70_32_cif.got.tgz:63918.got - 2010.04.16 13:46:32.
