data_PCOD8286993
_publ_section_title
;
Structure prediction by ZEFSAII (Michael W. Deem and Ramdas Pophale) SiO2 
 PCOD8286993
Probable space group: I M M M
;
_chemical_formula_sum "Si O2"
_cell_formula_units_Z 64
_cell_length_a 23.226553
_cell_length_b 16.933398
_cell_length_c 10.483226
_cell_angle_alpha 90.000000
_cell_angle_beta 90.000000
_cell_angle_gamma 90.000000
_cell_volume 4123.099605
_symmetry_space_group_name_H-M "I M M M"
_symmetry_group_IT_number 71
_symmetry_cell_setting 'orthorhombic'
loop_
_space_group_symop_operation_xyz
x,y,z
-x,-y,z
x,-y,-z
-x,y,-z
-x,-y,-z
x,y,-z
-x,y,z
x,-y,z
1/2+x,1/2+y,1/2+z
1/2-x,1/2-y,1/2+z
1/2+x,1/2-y,1/2-z
1/2-x,1/2+y,1/2-z
1/2-x,1/2-y,1/2-z
1/2+x,1/2+y,1/2-z
1/2-x,1/2+y,1/2+z
1/2+x,1/2-y,1/2+z
loop_
_atom_site_type_symbol
_atom_site_label
_atom_site_fract_x
_atom_site_fract_y
_atom_site_fract_z
Si Si1 0.364771 0.169121 0.500000
Si Si2 0.700443 0.319425 0.500000
Si Si3 0.233998 0.092209 0.755385
Si Si4 0.435003 0.093903 0.000000
Si Si5 0.762318 0.165997 0.500000
Si Si6 0.631440 0.092372 0.751980
O O1 0.357182 0.264553 0.500000
O O2 0.301701 0.126984 0.500000
O O3 0.395121 0.138658 0.370518
O O4 0.699830 0.374049 0.624030
O O5 0.756684 0.261476 0.500000
O O6 0.207595 0.134854 0.629379
O O7 0.301383 0.111111 0.773576
O O8 0.221672 0.000000 0.745009
O O9 0.402332 0.125236 0.125252
O O10 0.500000 0.126526 0.000000
O O11 0.433736 0.000000 0.000000
O O12 0.620563 0.000000 0.730956
#
# Coordination Sequence:
#
# PCOD8286993 Si02
#       6
#     8   8  16   8   8  16
#     4   8  17  26  39  52  76  99 129 168 199 222
#     4  10  18  26  36  57  77 101 134 178 198 221
#     4  10  17  27  40  56  77 107 140 171 195 222
#     4   9  17  28  41  57  76  95 124 167 206 237
#     4   8  17  26  38  51  76 100 132 172 200 220
#     4   9  16  27  41  56  74 101 134 167 198 230
#
# _framework density 15.522302
#
# number of rings (size 3 to 8) (size 9 to 14) (size 15 to 20)
#    0.750    2.125    0.000    2.625    0.000    5.000 
#    0.000    0.625    0.000    3.000    0.000    0.000 
#    0.000    0.000    0.000    0.000    0.000   15.000 
#
# Total GULP energy -396551.045076 kJ/mol
# GULP energy per Si atom -12392.220159 kJ/mol
# Density = 1.548697 g / cm^3
# Si number density = 15.522302 Si / 1000 Ang^3
#
#
#
# Elastic Constant Matrix: (Units=GPa)
#
#
# Indices 1 2 3 4 5 6 
#
# 1 17.8507 -8.8511 7.4415 0.0000 0.0000 0.0000
# 2 -8.8511 32.0116 6.7932 0.0000 0.0000 0.0000
# 3 7.4415 6.7932 122.4885 0.0000 0.0000 0.0000
# 4 0.0000 0.0000 0.0000 28.3132 0.0000 0.0000
# 5 0.0000 0.0000 0.0000 0.0000 4.9866 0.0000
# 6 0.0000 0.0000 0.0000 0.0000 0.0000 7.7092
#
#
#
# Elastic Compliance Matrix: (Units=1/GPa)
#
#
# Indices 1 2 3 4 5 6 
#
# 1 0.068092 0.019940 -0.005243 0.000000 0.000000 0.000000
# 2 0.019940 0.037450 -0.003288 0.000000 0.000000 0.000000
# 3 -0.005243 -0.003288 0.008665 0.000000 0.000000 0.000000
# 4 0.000000 0.000000 0.000000 0.035319 0.000000 0.000000
# 5 0.000000 0.000000 0.000000 0.000000 0.200537 0.000000
# 6 0.000000 0.000000 0.000000 0.000000 0.000000 0.129715
#
#
# Mechanical properties :
#
#
# Convention : Reuss Voigt Hill
#
# Bulk Modulus (GPa) = 7.29795 20.34644 13.82220
# Shear Modulus (GPa) = 9.94756 19.33295 14.64025
#
# Velocity S-wave (km/s) = 2.53426 3.53299 3.07445
# Velocity P-wave (km/s) = 3.64350 5.45701 4.63972
#
# Compressibility (1/GPa) = 0.13702472
#
# Stress axis : x y z
#
# Youngs Moduli (GPa) = 14.68591 26.70246 115.40804
#
# Poissons Ratio (x) = -0.53244 0.60504
# Poissons Ratio (y) = -0.29283 0.37950
# Poissons Ratio (z) = 0.07699 0.08781
#
# Static dielectric constant tensor:
#      x y z
#    x 2.392710 0.000000 0.000000 
#    y 0.000000 2.745450 0.000000 
#    z 0.000000 0.000000 3.266890 
# 
# 
# High freq. dielectric constant tensor:
#      x y z
#    x 1.509060 0.000000 0.000000 
#    y 0.000000 1.578270 0.000000 
#    z 0.000000 0.000000 1.624240 
# 
# From -- ./inp_files/12299.got.cif
#   From: 2010.06.25/outbox.cif.g09.slc.cpg/sg71_7_cif.got.tgz:12299.got - 2010.06.28 04:59:45.
