data_PCOD8286568
_publ_section_title
;
Structure prediction by ZEFSAII (Michael W. Deem and Ramdas Pophale) SiO2 
 PCOD8286568
Probable space group: F D D D
;
_chemical_formula_sum "Si O2"
_cell_formula_units_Z 96
_cell_length_a 27.022793
_cell_length_b 7.286834
_cell_length_c 20.390326
_cell_angle_alpha 90.000000
_cell_angle_beta 90.000000
_cell_angle_gamma 90.000000
_cell_volume 4015.071466
_symmetry_space_group_name_H-M "F D D D"
_symmetry_group_IT_number 70
_space_group.IT_coordinate_system_code '2'
_symmetry_cell_setting 'orthorhombic'
loop_
_space_group_symop_operation_xyz
x,y,z
1/4-x,1/4-y,z
x,1/4-y,1/4-z
1/4-x,y,1/4-z
-x,-y,-z
3/4+x,3/4+y,-z
-x,3/4+y,3/4+z
3/4+x,-y,3/4+z
x,1/2+y,1/2+z
1/4-x,3/4-y,1/2+z
x,3/4-y,3/4-z
1/4-x,1/2+y,3/4-z
-x,1/2-y,1/2-z
3/4+x,1/4+y,1/2-z
-x,1/4+y,1/4+z
3/4+x,1/2-y,1/4+z
1/2+x,y,1/2+z
3/4-x,1/4-y,1/2+z
1/2+x,1/4-y,3/4-z
3/4-x,y,3/4-z
1/2-x,-y,1/2-z
1/4+x,3/4+y,1/2-z
1/2-x,3/4+y,1/4+z
1/4+x,-y,1/4+z
1/2+x,1/2+y,z
3/4-x,3/4-y,z
1/2+x,3/4-y,1/4-z
3/4-x,1/2+y,1/4-z
1/2-x,1/2-y,-z
1/4+x,1/4+y,-z
1/2-x,1/4+y,3/4+z
1/4+x,1/2-y,3/4+z
loop_
_atom_site_type_symbol
_atom_site_label
_atom_site_fract_x
_atom_site_fract_y
_atom_site_fract_z
Si Si1 0.085737 0.365592 0.800963
Si Si2 0.047983 0.143237 0.194565
Si Si3 0.194187 0.475340 0.973578
O O1 0.063230 0.375000 0.875000
O O2 0.074377 0.541314 0.755753
O O3 0.144526 0.346493 0.811341
O O4 0.061696 0.192268 0.762964
O O5 0.076664 0.125000 0.125000
O O6 0.047314 0.361185 0.209277
O O7 0.993122 0.062831 0.181058
#
# Coordination Sequence:
#
# PCOD8286568 Si02
#       3
#    32  32  32
#     4  11  25  42  71 100 134 176 233 274 334 406
#     4  11  25  44  69  98 138 174 225 280 345 398
#     4  10  25  43  68 100 133 181 222 277 337 412
#
# _framework density 23.909911000000001
#
# number of rings (size 3 to 8) (size 9 to 14) (size 15 to 20)
#    0.000    1.333    0.000    3.000   18.667    4.000 
#    0.000    3.333    0.000    0.000    0.000    0.000 
#    0.000    0.000    0.000    0.000    0.000    0.000 
#
# Total GULP energy -297344.123075 kJ/mol
# GULP energy per Si atom -12389.338461 kJ/mol
# Density = 2.385549 g / cm^3
# Si number density = 23.909911 Si / 1000 Ang^3
#
#
#
# Elastic Constant Matrix: (Units=GPa)
#
#
# Indices 1 2 3 4 5 6 
#
# 1 107.0926 25.3551 2.5720 0.0000 0.0000 -0.0001
# 2 25.3551 131.5894 42.4146 -0.0001 0.0000 0.0000
# 3 2.5720 42.4146 148.3175 0.0000 0.0000 0.0000
# 4 0.0000 -0.0001 0.0000 21.8936 0.0000 0.0000
# 5 0.0000 0.0000 0.0000 0.0000 6.2163 0.0000
# 6 -0.0001 0.0000 0.0000 0.0000 0.0000 30.4960
#
#
#
# Elastic Compliance Matrix: (Units=1/GPa)
#
#
# Indices 1 2 3 4 5 6 
#
# 1 0.009806 -0.002021 0.000408 0.000000 0.000000 0.000000
# 2 -0.002021 0.008788 -0.002478 0.000000 0.000000 0.000000
# 3 0.000408 -0.002478 0.007444 0.000000 0.000000 0.000000
# 4 0.000000 0.000000 0.000000 0.045675 0.000000 0.000000
# 5 0.000000 0.000000 0.000000 0.000000 0.160868 0.000000
# 6 0.000000 0.000000 0.000000 0.000000 0.000000 0.032791
#
#
# Mechanical properties :
#
#
# Convention : Reuss Voigt Hill
#
# Bulk Modulus (GPa) = 56.00462 58.63143 57.31803
# Shear Modulus (GPa) = 17.88871 32.83171 25.36021
#
# Velocity S-wave (km/s) = 2.73824 3.70961 3.26031
# Velocity P-wave (km/s) = 5.78544 6.55159 6.18040
#
# Compressibility (1/GPa) = 0.01785567
#
# Stress axis : x y z
#
# Youngs Moduli (GPa) = 101.97410 113.79786 134.33935
#
# Poissons Ratio (x) = 0.22999 -0.05480
# Poissons Ratio (y) = 0.20609 0.33288
# Poissons Ratio (z) = -0.04159 0.28198
#
# Static dielectric constant tensor:
#      x y z
#    x 4.424530 0.000000 0.000000 
#    y 0.000000 4.489610 0.000000 
#    z 0.000000 0.000000 3.834150 
# 
# 
# High freq. dielectric constant tensor:
#      x y z
#    x 1.956660 0.000000 0.000000 
#    y 0.000000 1.953830 0.000000 
#    z 0.000000 0.000000 1.926060 
# 
# From -- ./inp_files/46412.got.cif
#   From: 2010.03.12/outbox.cif.g09.slc.cpg/sg70_24_cif.got.tgz:46412.got - 2010.04.16 13:46:32.
