data_PCOD8286169
_publ_section_title
;
Structure prediction by ZEFSAII (Michael W. Deem and Ramdas Pophale) SiO2 
 PCOD8286169
Probable space group: F D D D
;
_chemical_formula_sum "Si O2"
_cell_formula_units_Z 168
_cell_length_a 26.099023
_cell_length_b 15.046071
_cell_length_c 19.912893
_cell_angle_alpha 90.000000
_cell_angle_beta 90.000000
_cell_angle_gamma 90.000000
_cell_volume 7819.549210
_symmetry_space_group_name_H-M "F D D D"
_symmetry_group_IT_number 70
_space_group.IT_coordinate_system_code '2'
_symmetry_cell_setting 'orthorhombic'
loop_
_space_group_symop_operation_xyz
x,y,z
1/4-x,1/4-y,z
x,1/4-y,1/4-z
1/4-x,y,1/4-z
-x,-y,-z
3/4+x,3/4+y,-z
-x,3/4+y,3/4+z
3/4+x,-y,3/4+z
x,1/2+y,1/2+z
1/4-x,3/4-y,1/2+z
x,3/4-y,3/4-z
1/4-x,1/2+y,3/4-z
-x,1/2-y,1/2-z
3/4+x,1/4+y,1/2-z
-x,1/4+y,1/4+z
3/4+x,1/2-y,1/4+z
1/2+x,y,1/2+z
3/4-x,1/4-y,1/2+z
1/2+x,1/4-y,3/4-z
3/4-x,y,3/4-z
1/2-x,-y,1/2-z
1/4+x,3/4+y,1/2-z
1/2-x,3/4+y,1/4+z
1/4+x,-y,1/4+z
1/2+x,1/2+y,z
3/4-x,3/4-y,z
1/2+x,3/4-y,1/4-z
3/4-x,1/2+y,1/4-z
1/2-x,1/2-y,-z
1/4+x,1/4+y,-z
1/2-x,1/4+y,3/4+z
1/4+x,1/2-y,3/4+z
loop_
_atom_site_type_symbol
_atom_site_label
_atom_site_fract_x
_atom_site_fract_y
_atom_site_fract_z
Si Si1 0.083014 0.988249 0.229628
Si Si2 0.557950 0.974805 0.876446
Si Si3 0.338477 0.606259 0.438422
Si Si4 0.098405 0.032878 0.797140
Si Si5 0.749459 0.360792 0.652610
Si Si6 0.875000 0.375000 0.375000
O O1 0.069878 0.021825 0.304271
O O2 0.136204 0.934091 0.232585
O O3 0.037299 0.920044 0.212527
O O4 0.088300 0.066128 0.173582
O O5 0.535722 0.875000 0.875000
O O6 0.611228 0.969416 0.916295
O O7 0.516429 0.036525 0.914095
O O8 0.375000 0.585033 0.375000
O O9 0.329398 0.516391 0.480080
O O10 0.282950 0.644022 0.416362
O O11 0.125000 0.125000 0.776152
O O12 0.050372 0.049690 0.847183
#
# Coordination Sequence:
#
# PCOD8286169 Si02
#       6
#    32  32  32  32  32   8
#     4  11  23  44  66  96 130 175 220 272 337 395
#     4  11  23  42  68  94 134 178 215 275 334 391
#     4  10  20  43  63  91 135 165 217 272 320 400
#     4  10  22  41  62  95 133 172 218 270 328 392
#     4  10  22  42  65  97 129 168 222 274 320 401
#     4  12  24  44  72  88 142 176 214 276 340 392
#
# _framework density 21.484614000000001
#
# number of rings (size 3 to 8) (size 9 to 14) (size 15 to 20)
#    0.000    1.524    4.762    1.143    4.000    1.143 
#   12.000    1.905    0.000    0.000    0.000    0.000 
#    0.000    0.000    0.000    0.000    0.000    0.000 
#
# Total GULP energy -520610.848458 kJ/mol
# GULP energy per Si atom -12395.496392 kJ/mol
# Density = 2.143571 g / cm^3
# Si number density = 21.484614 Si / 1000 Ang^3
#
#
#
# Elastic Constant Matrix: (Units=GPa)
#
#
# Indices 1 2 3 4 5 6 
#
# 1 117.3742 38.3397 15.7647 0.0000 0.0000 0.0000
# 2 38.3397 104.7707 28.6310 0.0000 0.0000 0.0000
# 3 15.7647 28.6310 91.0287 0.0000 0.0000 0.0000
# 4 0.0000 0.0000 0.0000 37.4296 0.0000 0.0000
# 5 0.0000 0.0000 0.0000 0.0000 15.2997 0.0000
# 6 0.0000 0.0000 0.0000 0.0000 0.0000 24.1502
#
#
#
# Elastic Compliance Matrix: (Units=1/GPa)
#
#
# Indices 1 2 3 4 5 6 
#
# 1 0.009708 -0.003384 -0.000617 0.000000 0.000000 0.000000
# 2 -0.003384 0.011622 -0.003069 0.000000 0.000000 0.000000
# 3 -0.000617 -0.003069 0.012058 0.000000 0.000000 0.000000
# 4 0.000000 0.000000 0.000000 0.026717 0.000000 0.000000
# 5 0.000000 0.000000 0.000000 0.000000 0.065361 0.000000
# 6 0.000000 0.000000 0.000000 0.000000 0.000000 0.041407
#
#
# Mechanical properties :
#
#
# Convention : Reuss Voigt Hill
#
# Bulk Modulus (GPa) = 51.95581 53.18271 52.56926
# Shear Modulus (GPa) = 26.67687 30.73847 28.70767
#
# Velocity S-wave (km/s) = 3.52756 3.78659 3.65937
# Velocity P-wave (km/s) = 6.38959 6.62761 6.50969
#
# Compressibility (1/GPa) = 0.01924713
#
# Stress axis : x y z
#
# Youngs Moduli (GPa) = 103.00824 86.04570 82.93412
#
# Poissons Ratio (x) = 0.29117 0.05116
# Poissons Ratio (y) = 0.34857 0.25455
# Poissons Ratio (z) = 0.06355 0.26410
#
# Static dielectric constant tensor:
#      x y z
#    x 4.074670 0.000000 0.000000 
#    y 0.000000 3.802400 0.000000 
#    z 0.000000 0.000000 3.752990 
# 
# 
# High freq. dielectric constant tensor:
#      x y z
#    x 1.845650 0.000000 0.000000 
#    y 0.000000 1.838250 0.000000 
#    z 0.000000 0.000000 1.832470 
# 
# From -- ./inp_files/46784.got.cif
#   From: 2010.03.12/outbox.cif.g09.slc.cpg/sg70_24_cif.got.tgz:46784.got - 2010.04.16 13:46:32.
