data_PCOD8286843
_publ_section_title
;
Structure prediction by ZEFSAII (Michael W. Deem and Ramdas Pophale) SiO2 
 PCOD8286843
Probable space group: F D D D
;
_chemical_formula_sum "Si O2"
_cell_formula_units_Z 120
_cell_length_a 15.532170
_cell_length_b 35.448524
_cell_length_c 10.156892
_cell_angle_alpha 90.000000
_cell_angle_beta 90.000000
_cell_angle_gamma 90.000000
_cell_volume 5592.308569
_symmetry_space_group_name_H-M "F D D D"
_symmetry_group_IT_number 70
_space_group.IT_coordinate_system_code '2'
_symmetry_cell_setting 'orthorhombic'
loop_
_space_group_symop_operation_xyz
x,y,z
1/4-x,1/4-y,z
x,1/4-y,1/4-z
1/4-x,y,1/4-z
-x,-y,-z
3/4+x,3/4+y,-z
-x,3/4+y,3/4+z
3/4+x,-y,3/4+z
x,1/2+y,1/2+z
1/4-x,3/4-y,1/2+z
x,3/4-y,3/4-z
1/4-x,1/2+y,3/4-z
-x,1/2-y,1/2-z
3/4+x,1/4+y,1/2-z
-x,1/4+y,1/4+z
3/4+x,1/2-y,1/4+z
1/2+x,y,1/2+z
3/4-x,1/4-y,1/2+z
1/2+x,1/4-y,3/4-z
3/4-x,y,3/4-z
1/2-x,-y,1/2-z
1/4+x,3/4+y,1/2-z
1/2-x,3/4+y,1/4+z
1/4+x,-y,1/4+z
1/2+x,1/2+y,z
3/4-x,3/4-y,z
1/2+x,3/4-y,1/4-z
3/4-x,1/2+y,1/4-z
1/2-x,1/2-y,-z
1/4+x,1/4+y,-z
1/2-x,1/4+y,3/4+z
1/4+x,1/2-y,3/4+z
loop_
_atom_site_type_symbol
_atom_site_label
_atom_site_fract_x
_atom_site_fract_y
_atom_site_fract_z
Si Si1 0.884389 0.206141 0.608990
Si Si2 0.748324 0.915309 0.186254
Si Si3 0.375000 0.875000 0.875000
Si Si4 0.795315 0.473222 0.471470
Si Si5 0.875000 0.648265 0.875000
O O1 0.923391 0.189769 0.743907
O O2 0.792496 0.225044 0.638343
O O3 0.947568 0.237392 0.548846
O O4 0.872222 0.172603 0.506346
O O5 0.819008 0.903752 0.291165
O O6 0.709665 0.877602 0.122324
O O7 0.794841 0.938846 0.073096
O O8 0.875000 0.467206 0.375000
#
# Coordination Sequence:
#
# PCOD8286843 Si02
#       5
#    32  32   8  32  16
#     4  12  26  49  73 104 149 191 242 304 371 437
#     4  12  27  47  74 105 145 196 246 300 370 440
#     4  12  28  44  72 108 142 188 244 310 356 442
#     4  12  28  46  74 109 144 191 244 305 366 439
#     4  12  24  50  73 102 146 197 239 304 374 429
#
# _framework density 21.458043
#
# number of rings (size 3 to 8) (size 9 to 14) (size 15 to 20)
#    0.000    0.000    6.667    1.600    7.467    0.000 
#    0.000    0.000    0.000    0.000    0.000    0.000 
#    0.000    0.000    0.000    0.000    0.000    0.000 
#
# Total GULP energy -372290.169169 kJ/mol
# GULP energy per Si atom -12409.672306 kJ/mol
# Density = 2.140920 g / cm^3
# Si number density = 21.458043 Si / 1000 Ang^3
#
#
#
# Elastic Constant Matrix: (Units=GPa)
#
#
# Indices 1 2 3 4 5 6 
#
# 1 91.7126 39.8311 13.4641 0.0000 0.0000 0.0000
# 2 39.8311 142.7127 49.6330 0.0000 0.0000 0.0000
# 3 13.4641 49.6330 90.2457 0.0000 0.0000 0.0000
# 4 0.0000 0.0000 0.0000 50.3623 0.0000 0.0000
# 5 0.0000 0.0000 0.0000 0.0000 46.4972 0.0000
# 6 0.0000 0.0000 0.0000 0.0000 0.0000 26.9441
#
#
#
# Elastic Compliance Matrix: (Units=1/GPa)
#
#
# Indices 1 2 3 4 5 6 
#
# 1 0.012408 -0.003486 0.000066 0.000000 0.000000 0.000000
# 2 -0.003486 0.009644 -0.004784 0.000000 0.000000 0.000000
# 3 0.000066 -0.004784 0.013702 0.000000 0.000000 0.000000
# 4 0.000000 0.000000 0.000000 0.019856 0.000000 0.000000
# 5 0.000000 0.000000 0.000000 0.000000 0.021507 0.000000
# 6 0.000000 0.000000 0.000000 0.000000 0.000000 0.037114
#
#
# Mechanical properties :
#
#
# Convention : Reuss Voigt Hill
#
# Bulk Modulus (GPa) = 51.68978 58.94749 55.31863
# Shear Modulus (GPa) = 36.47333 39.54355 38.00844
#
# Velocity S-wave (km/s) = 4.12728 4.29748 4.21324
# Velocity P-wave (km/s) = 6.84497 7.22185 7.03593
#
# Compressibility (1/GPa) = 0.01934619
#
# Stress axis : x y z
#
# Youngs Moduli (GPa) = 80.59372 103.69434 72.98230
#
# Poissons Ratio (x) = 0.36148 -0.00482
# Poissons Ratio (y) = 0.28095 0.34913
# Poissons Ratio (z) = -0.00532 0.49605
#
# Static dielectric constant tensor:
#      x y z
#    x 3.983520 0.000000 0.000000 
#    y 0.000000 4.036690 0.000000 
#    z 0.000000 0.000000 4.040580 
# 
# 
# High freq. dielectric constant tensor:
#      x y z
#    x 1.849690 0.000000 0.000000 
#    y 0.000000 1.856000 0.000000 
#    z 0.000000 0.000000 1.861260 
# 
# From -- ./inp_files/16529.got.cif
#   From: 2010.03.12/outbox.cif.g09.slc.cpg/sg70_9_cif.got.tgz:16529.got - 2010.04.16 13:46:32.
