data_PCOD8286336
_publ_section_title
;
Structure prediction by ZEFSAII (Michael W. Deem and Ramdas Pophale) SiO2 
 PCOD8286336
Probable space group: F D D D
;
_chemical_formula_sum "Si O2"
_cell_formula_units_Z 112
_cell_length_a 27.947874
_cell_length_b 16.100375
_cell_length_c 12.368879
_cell_angle_alpha 90.000000
_cell_angle_beta 90.000000
_cell_angle_gamma 90.000000
_cell_volume 5565.639968
_symmetry_space_group_name_H-M "F D D D"
_symmetry_group_IT_number 70
_space_group.IT_coordinate_system_code '2'
_symmetry_cell_setting 'orthorhombic'
loop_
_space_group_symop_operation_xyz
x,y,z
1/4-x,1/4-y,z
x,1/4-y,1/4-z
1/4-x,y,1/4-z
-x,-y,-z
3/4+x,3/4+y,-z
-x,3/4+y,3/4+z
3/4+x,-y,3/4+z
x,1/2+y,1/2+z
1/4-x,3/4-y,1/2+z
x,3/4-y,3/4-z
1/4-x,1/2+y,3/4-z
-x,1/2-y,1/2-z
3/4+x,1/4+y,1/2-z
-x,1/4+y,1/4+z
3/4+x,1/2-y,1/4+z
1/2+x,y,1/2+z
3/4-x,1/4-y,1/2+z
1/2+x,1/4-y,3/4-z
3/4-x,y,3/4-z
1/2-x,-y,1/2-z
1/4+x,3/4+y,1/2-z
1/2-x,3/4+y,1/4+z
1/4+x,-y,1/4+z
1/2+x,1/2+y,z
3/4-x,3/4-y,z
1/2+x,3/4-y,1/4-z
3/4-x,1/2+y,1/4-z
1/2-x,1/2-y,-z
1/4+x,1/4+y,-z
1/2-x,1/4+y,3/4+z
1/4+x,1/2-y,3/4+z
loop_
_atom_site_type_symbol
_atom_site_label
_atom_site_fract_x
_atom_site_fract_y
_atom_site_fract_z
Si Si1 0.413024 0.510190 0.792919
Si Si2 0.511902 0.969406 0.382184
Si Si3 0.359495 0.282984 0.174662
Si Si4 0.375000 0.582049 0.375000
O O1 0.375000 0.465099 0.875000
O O2 0.465962 0.472414 0.802732
O O3 0.393347 0.500865 0.671391
O O4 0.417167 0.607059 0.830278
O O5 0.531604 0.875000 0.375000
O O6 0.500000 0.000000 0.500000
O O7 0.553647 0.033627 0.353198
O O8 0.375000 0.375000 0.207375
O O9 0.359945 0.224380 0.277161
#
# Coordination Sequence:
#
# PCOD8286336 Si02
#       4
#    32  32  32  16
#     4  10  22  38  68  93 127 160 221 266 322 371
#     4  12  22  39  66  99 130 164 214 272 334 370
#     4  12  24  42  64  94 133 171 215 270 321 385
#     4  10  23  44  61  84 136 180 200 260 333 380
#
# _framework density 20.123472
#
# number of rings (size 3 to 8) (size 9 to 14) (size 15 to 20)
#    0.857    0.000    2.857    6.429    0.000    0.000 
#    0.000    8.571    0.000    0.000    0.000    0.000 
#    0.000    0.000    0.000    0.000    0.000    0.000 
#
# Total GULP energy -346941.149837 kJ/mol
# GULP energy per Si atom -12390.755351 kJ/mol
# Density = 2.007767 g / cm^3
# Si number density = 20.123472 Si / 1000 Ang^3
#
#
#
# Elastic Constant Matrix: (Units=GPa)
#
#
# Indices 1 2 3 4 5 6 
#
# 1 133.4818 17.8506 13.4419 0.0000 0.0000 0.0000
# 2 17.8506 111.3721 10.5677 0.0000 0.0000 0.0000
# 3 13.4419 10.5677 91.5389 0.0000 0.0000 0.0000
# 4 0.0000 0.0000 0.0000 73.5225 0.0000 0.0000
# 5 0.0000 0.0000 0.0000 0.0000 21.3750 0.0000
# 6 0.0000 0.0000 0.0000 0.0000 0.0000 20.2082
#
#
#
# Elastic Compliance Matrix: (Units=1/GPa)
#
#
# Indices 1 2 3 4 5 6 
#
# 1 0.007746 -0.001146 -0.001005 0.000000 0.000000 0.000000
# 2 -0.001146 0.009248 -0.000899 0.000000 0.000000 0.000000
# 3 -0.001005 -0.000899 0.011176 0.000000 0.000000 0.000000
# 4 0.000000 0.000000 0.000000 0.013601 0.000000 0.000000
# 5 0.000000 0.000000 0.000000 0.000000 0.046784 0.000000
# 6 0.000000 0.000000 0.000000 0.000000 0.000000 0.049485
#
#
# Mechanical properties :
#
#
# Convention : Reuss Voigt Hill
#
# Bulk Modulus (GPa) = 45.31337 46.67927 45.99632
# Shear Modulus (GPa) = 33.00396 42.65665 37.83031
#
# Velocity S-wave (km/s) = 4.05417 4.60906 4.34050
# Velocity P-wave (km/s) = 6.66946 7.18132 6.93012
#
# Compressibility (1/GPa) = 0.02206854
#
# Stress axis : x y z
#
# Youngs Moduli (GPa) = 129.09629 108.13202 89.47955
#
# Poissons Ratio (x) = 0.12394 0.08994
# Poissons Ratio (y) = 0.14797 0.08047
# Poissons Ratio (z) = 0.12976 0.09725
#
# Static dielectric constant tensor:
#      x y z
#    x 1.268600 0.000000 0.000000 
#    y 0.000000 3.801950 0.000000 
#    z 0.000000 0.000000 3.478270 
# 
# 
# High freq. dielectric constant tensor:
#      x y z
#    x 1.776780 0.000000 0.000000 
#    y 0.000000 1.790020 0.000000 
#    z 0.000000 0.000000 1.789180 
# 
# From -- ./inp_files/16250.got.cif
#   From: 2010.03.12/outbox.cif.g09.slc.cpg/sg70_9_cif.got.tgz:16250.got - 2010.04.16 13:46:32.
