data_PCOD8286706
_publ_section_title
;
Structure prediction by ZEFSAII (Michael W. Deem and Ramdas Pophale) SiO2 
 PCOD8286706
Probable space group: F D D D
;
_chemical_formula_sum "Si O2"
_cell_formula_units_Z 160
_cell_length_a 28.235089
_cell_length_b 12.688192
_cell_length_c 20.651313
_cell_angle_alpha 90.000000
_cell_angle_beta 90.000000
_cell_angle_gamma 90.000000
_cell_volume 7398.378942
_symmetry_space_group_name_H-M "F D D D"
_symmetry_group_IT_number 70
_space_group.IT_coordinate_system_code '2'
_symmetry_cell_setting 'orthorhombic'
loop_
_space_group_symop_operation_xyz
x,y,z
1/4-x,1/4-y,z
x,1/4-y,1/4-z
1/4-x,y,1/4-z
-x,-y,-z
3/4+x,3/4+y,-z
-x,3/4+y,3/4+z
3/4+x,-y,3/4+z
x,1/2+y,1/2+z
1/4-x,3/4-y,1/2+z
x,3/4-y,3/4-z
1/4-x,1/2+y,3/4-z
-x,1/2-y,1/2-z
3/4+x,1/4+y,1/2-z
-x,1/4+y,1/4+z
3/4+x,1/2-y,1/4+z
1/2+x,y,1/2+z
3/4-x,1/4-y,1/2+z
1/2+x,1/4-y,3/4-z
3/4-x,y,3/4-z
1/2-x,-y,1/2-z
1/4+x,3/4+y,1/2-z
1/2-x,3/4+y,1/4+z
1/4+x,-y,1/4+z
1/2+x,1/2+y,z
3/4-x,3/4-y,z
1/2+x,3/4-y,1/4-z
3/4-x,1/2+y,1/4-z
1/2-x,1/2-y,-z
1/4+x,1/4+y,-z
1/2-x,1/4+y,3/4+z
1/4+x,1/2-y,3/4+z
loop_
_atom_site_type_symbol
_atom_site_label
_atom_site_fract_x
_atom_site_fract_y
_atom_site_fract_z
Si Si1 0.057541 0.065442 0.339401
Si Si2 0.652673 0.962474 0.818548
Si Si3 0.803874 0.275842 0.013238
Si Si4 0.462043 0.957905 0.820514
Si Si5 0.617038 0.390707 0.691917
O O1 0.061382 0.192599 0.335840
O O2 0.065155 0.021977 0.411625
O O3 0.100512 0.008565 0.303241
O O4 0.008387 0.029482 0.306763
O O5 0.655590 0.875000 0.875000
O O6 0.664621 0.915191 0.747535
O O7 0.750000 0.250000 0.000000
O O8 0.808631 0.397525 0.992113
O O9 0.836948 0.193746 0.974947
O O10 0.477207 0.875000 0.875000
O O11 0.417613 0.025236 0.843111
O O12 0.625000 0.321457 0.625000
#
# Coordination Sequence:
#
# PCOD8286706 Si02
#       5
#    32  32  32  32  32
#     4  11  24  43  66  97 130 180 235 275 342 413
#     4  11  23  43  69  94 133 184 230 282 332 416
#     4  12  22  38  66  96 134 171 219 288 341 403
#     4  12  23  38  63 101 135 168 218 289 348 402
#     4  12  24  39  64  99 139 174 220 280 352 402
#
# _framework density 21.626359000000001
#
# number of rings (size 3 to 8) (size 9 to 14) (size 15 to 20)
#    0.000    0.400    6.000    3.600    2.800    0.800 
#    0.000    2.000    0.000    0.000    0.000    0.000 
#    0.000    0.000    0.000    0.000    0.000    0.000 
#
# Total GULP energy -495582.842200 kJ/mol
# GULP energy per Si atom -12389.571055 kJ/mol
# Density = 2.157714 g / cm^3
# Si number density = 21.626359 Si / 1000 Ang^3
#
#
#
# Elastic Constant Matrix: (Units=GPa)
#
#
# Indices 1 2 3 4 5 6 
#
# 1 79.2164 13.5139 -11.5797 0.0000 0.0000 0.0000
# 2 13.5139 89.2674 24.0773 0.0000 0.0000 0.0000
# 3 -11.5797 24.0773 129.1528 0.0000 0.0000 0.0000
# 4 0.0000 0.0000 0.0000 27.4565 0.0000 0.0000
# 5 0.0000 0.0000 0.0000 0.0000 20.9424 0.0000
# 6 0.0000 0.0000 0.0000 0.0000 0.0000 38.7442
#
#
#
# Elastic Compliance Matrix: (Units=1/GPa)
#
#
# Indices 1 2 3 4 5 6 
#
# 1 0.013284 -0.002456 0.001649 0.000000 0.000000 0.000000
# 2 -0.002456 0.012249 -0.002504 0.000000 0.000000 0.000000
# 3 0.001649 -0.002504 0.008357 0.000000 0.000000 0.000000
# 4 0.000000 0.000000 0.000000 0.036421 0.000000 0.000000
# 5 0.000000 0.000000 0.000000 0.000000 0.047750 0.000000
# 6 0.000000 0.000000 0.000000 0.000000 0.000000 0.025810
#
#
# Mechanical properties :
#
#
# Convention : Reuss Voigt Hill
#
# Bulk Modulus (GPa) = 36.67164 38.85107 37.76135
# Shear Modulus (GPa) = 31.33169 35.53696 33.43433
#
# Velocity S-wave (km/s) = 3.81040 4.05807 3.93618
# Velocity P-wave (km/s) = 6.02932 6.32146 6.17712
#
# Compressibility (1/GPa) = 0.02726903
#
# Stress axis : x y z
#
# Youngs Moduli (GPa) = 75.28089 81.63689 119.65501
#
# Poissons Ratio (x) = 0.20047 -0.19729
# Poissons Ratio (y) = 0.18486 0.29959
# Poissons Ratio (z) = -0.12412 0.20440
#
# Static dielectric constant tensor:
#      x y z
#    x 3.849010 0.000000 0.000000 
#    y 0.000000 4.196800 0.000000 
#    z 0.000000 0.000000 2.000130 
# 
# 
# High freq. dielectric constant tensor:
#      x y z
#    x 1.850320 0.000000 0.000000 
#    y 0.000000 1.837140 0.000000 
#    z 0.000000 0.000000 1.855350 
# 
# From -- ./inp_files/54869.got.cif
#   From: 2010.03.12/outbox.cif.g09.slc.cpg/sg70_28_cif.got.tgz:54869.got - 2010.04.16 13:46:32.
