data_PCOD8286366
_publ_section_title
;
Structure prediction by ZEFSAII (Michael W. Deem and Ramdas Pophale) SiO2 
 PCOD8286366
Probable space group: F D D D
;
_chemical_formula_sum "Si O2"
_cell_formula_units_Z 176
_cell_length_a 23.709605
_cell_length_b 12.554886
_cell_length_c 29.279891
_cell_angle_alpha 90.000000
_cell_angle_beta 90.000000
_cell_angle_gamma 90.000000
_cell_volume 8715.785791
_symmetry_space_group_name_H-M "F D D D"
_symmetry_group_IT_number 70
_space_group.IT_coordinate_system_code '2'
_symmetry_cell_setting 'orthorhombic'
loop_
_space_group_symop_operation_xyz
x,y,z
1/4-x,1/4-y,z
x,1/4-y,1/4-z
1/4-x,y,1/4-z
-x,-y,-z
3/4+x,3/4+y,-z
-x,3/4+y,3/4+z
3/4+x,-y,3/4+z
x,1/2+y,1/2+z
1/4-x,3/4-y,1/2+z
x,3/4-y,3/4-z
1/4-x,1/2+y,3/4-z
-x,1/2-y,1/2-z
3/4+x,1/4+y,1/2-z
-x,1/4+y,1/4+z
3/4+x,1/2-y,1/4+z
1/2+x,y,1/2+z
3/4-x,1/4-y,1/2+z
1/2+x,1/4-y,3/4-z
3/4-x,y,3/4-z
1/2-x,-y,1/2-z
1/4+x,3/4+y,1/2-z
1/2-x,3/4+y,1/4+z
1/4+x,-y,1/4+z
1/2+x,1/2+y,z
3/4-x,3/4-y,z
1/2+x,3/4-y,1/4-z
3/4-x,1/2+y,1/4-z
1/2-x,1/2-y,-z
1/4+x,1/4+y,-z
1/2-x,1/4+y,3/4+z
1/4+x,1/2-y,3/4+z
loop_
_atom_site_type_symbol
_atom_site_label
_atom_site_fract_x
_atom_site_fract_y
_atom_site_fract_z
Si Si1 0.125000 0.125000 0.267398
Si Si2 0.137389 0.792326 0.337268
Si Si3 0.404274 0.145099 0.755811
Si Si4 0.488702 0.800612 0.554945
Si Si5 0.218798 0.856064 0.011627
Si Si6 0.787003 0.851558 0.596803
O O1 0.111112 0.229818 0.237489
O O2 0.180086 0.138158 0.298216
O O3 0.117977 0.875000 0.375000
O O4 0.166674 0.857257 0.295977
O O5 0.179774 0.708725 0.360728
O O6 0.079826 0.731960 0.322150
O O7 0.457573 0.116350 0.786820
O O8 0.347343 0.083431 0.769702
O O9 0.483304 0.687817 0.529497
O O10 0.493802 0.795016 0.609972
O O11 0.241701 0.894426 0.060481
O O12 0.250000 0.750000 0.000000
#
# Coordination Sequence:
#
# PCOD8286366 Si02
#       6
#    16  32  32  32  32  32
#     4  10  22  40  64  97 122 168 214 275 328 388
#     4  11  21  38  66  94 121 170 224 277 322 389
#     4  11  22  40  66  91 132 170 218 270 339 395
#     4  11  23  41  64  95 131 171 215 274 333 398
#     4  11  23  40  64  94 130 174 215 271 334 395
#     4  11  23  39  62  94 132 165 224 270 328 402
#
# _framework density 20.193245000000001
#
# number of rings (size 3 to 8) (size 9 to 14) (size 15 to 20)
#    0.000    1.091    3.636    4.909    0.000    1.455 
#    0.000    0.000    0.000    6.545    0.000    0.000 
#    0.000    0.000    0.000    0.000    0.000    0.000 
#
# Total GULP energy -545307.385576 kJ/mol
# GULP energy per Si atom -12393.349672 kJ/mol
# Density = 2.014728 g / cm^3
# Si number density = 20.193245 Si / 1000 Ang^3
#
#
#
# Elastic Constant Matrix: (Units=GPa)
#
#
# Indices 1 2 3 4 5 6 
#
# 1 121.2512 56.0370 46.9451 0.0000 0.0000 0.0000
# 2 56.0370 102.6331 32.8670 0.0000 0.0000 0.0000
# 3 46.9451 32.8670 113.7680 0.0000 0.0000 0.0000
# 4 0.0000 0.0000 0.0000 25.8241 0.0000 0.0000
# 5 0.0000 0.0000 0.0000 0.0000 35.4438 0.0000
# 6 0.0000 0.0000 0.0000 0.0000 0.0000 28.4680
#
#
#
# Elastic Compliance Matrix: (Units=1/GPa)
#
#
# Indices 1 2 3 4 5 6 
#
# 1 0.012120 -0.005527 -0.003404 0.000000 0.000000 0.000000
# 2 -0.005527 0.013257 -0.001549 0.000000 0.000000 0.000000
# 3 -0.003404 -0.001549 0.010642 0.000000 0.000000 0.000000
# 4 0.000000 0.000000 0.000000 0.038723 0.000000 0.000000
# 5 0.000000 0.000000 0.000000 0.000000 0.028214 0.000000
# 6 0.000000 0.000000 0.000000 0.000000 0.000000 0.035127
#
#
# Mechanical properties :
#
#
# Convention : Reuss Voigt Hill
#
# Bulk Modulus (GPa) = 66.41067 67.70563 67.05815
# Shear Modulus (GPa) = 30.47583 31.40072 30.93828
#
# Velocity S-wave (km/s) = 3.88907 3.94764 3.91846
# Velocity P-wave (km/s) = 7.28872 7.37429 7.33163
#
# Compressibility (1/GPa) = 0.01505782
#
# Stress axis : x y z
#
# Youngs Moduli (GPa) = 82.50954 75.42978 93.96591
#
# Poissons Ratio (x) = 0.41691 0.31989
# Poissons Ratio (y) = 0.45604 0.14558
# Poissons Ratio (z) = 0.28089 0.11686
#
# Static dielectric constant tensor:
#      x y z
#    x 3.964290 0.000000 0.000000 
#    y 0.000000 3.818800 0.000000 
#    z 0.000000 0.000000 3.679380 
# 
# 
# High freq. dielectric constant tensor:
#      x y z
#    x 1.788920 0.000000 0.000000 
#    y 0.000000 1.797680 0.000000 
#    z 0.000000 0.000000 1.772780 
# 
# From -- ./inp_files/19613.got.cif
#   From: 2010.03.12/outbox.cif.g09.slc.cpg/sg70_10_cif.got.tgz:19613.got - 2010.04.16 13:46:32.
