data_PCOD8286909
_publ_section_title
;
Structure prediction by ZEFSAII (Michael W. Deem and Ramdas Pophale) SiO2 
 PCOD8286909
Probable space group: I M M M
;
_chemical_formula_sum "Si O2"
_cell_formula_units_Z 88
_cell_length_a 15.101353
_cell_length_b 18.330923
_cell_length_c 18.601782
_cell_angle_alpha 90.000000
_cell_angle_beta 90.000000
_cell_angle_gamma 90.000000
_cell_volume 5149.377642
_symmetry_space_group_name_H-M "I M M M"
_symmetry_group_IT_number 71
_symmetry_cell_setting 'orthorhombic'
loop_
_space_group_symop_operation_xyz
x,y,z
-x,-y,z
x,-y,-z
-x,y,-z
-x,-y,-z
x,y,-z
-x,y,z
x,-y,z
1/2+x,1/2+y,1/2+z
1/2-x,1/2-y,1/2+z
1/2+x,1/2-y,1/2-z
1/2-x,1/2+y,1/2-z
1/2-x,1/2-y,1/2-z
1/2+x,1/2+y,1/2-z
1/2-x,1/2+y,1/2+z
1/2+x,1/2-y,1/2+z
loop_
_atom_site_type_symbol
_atom_site_label
_atom_site_fract_x
_atom_site_fract_y
_atom_site_fract_z
Si Si1 0.343570 0.681793 0.418515
Si Si2 0.159729 0.725476 0.215159
Si Si3 0.359335 0.858008 0.920455
Si Si4 0.398647 0.920166 0.228027
Si Si5 0.500000 0.266329 0.078507
Si Si6 0.500000 0.587253 0.643459
Si Si7 0.000000 0.814643 0.274091
O O1 0.365113 0.705489 0.500000
O O2 0.351370 0.753505 0.368608
O O3 0.245285 0.651507 0.410830
O O4 0.412326 0.619032 0.394374
O O5 0.250000 0.750000 0.250000
O O6 0.155394 0.638461 0.225404
O O7 0.083893 0.764598 0.259528
O O8 0.391143 0.911623 0.858146
O O9 0.411384 0.781975 0.912617
O O10 0.379100 0.891131 0.000000
O O11 0.500000 0.913500 0.250904
O O12 0.361071 0.000000 0.247973
O O13 0.500000 0.329485 0.139759
O O14 0.500000 0.304183 0.000000
O O15 0.500000 0.500000 0.637737
O O16 0.500000 0.611128 0.727681
#
# Coordination Sequence:
#
# PCOD8286909 Si02
#       7
#    16  16  16  16   8   8   8
#     4  10  21  34  54  77  99 133 173 215 257 300
#     4  11  18  34  55  73 100 135 176 215 249 303
#     4  10  18  31  50  76 106 133 165 200 249 306
#     4  11  21  33  50  75 109 142 170 208 260 311
#     4  10  16  28  53  79 105 131 162 204 249 303
#     4  10  23  38  52  71 100 135 173 217 260 301
#     4  10  18  33  52  73  98 133 177 211 252 300
#
# _framework density 17.089444
#
# number of rings (size 3 to 8) (size 9 to 14) (size 15 to 20)
#    0.000    1.636    5.455    0.273    0.000    1.818 
#    0.000    2.727    0.000    0.818    0.000    1.273 
#    0.000    7.636    0.000    0.000    0.000    1.091 
#
# Total GULP energy -545328.757740 kJ/mol
# GULP energy per Si atom -12393.835403 kJ/mol
# Density = 1.705055 g / cm^3
# Si number density = 17.089444 Si / 1000 Ang^3
#
#
#
# Elastic Constant Matrix: (Units=GPa)
#
#
# Indices 1 2 3 4 5 6 
#
# 1 102.7456 31.0541 34.6030 0.0000 0.0000 0.0000
# 2 31.0541 117.4338 67.6521 0.0000 0.0000 0.0000
# 3 34.6030 67.6521 135.7257 0.0000 0.0000 0.0000
# 4 0.0000 0.0000 0.0000 20.3130 0.0000 0.0000
# 5 0.0000 0.0000 0.0000 0.0000 22.6918 0.0000
# 6 0.0000 0.0000 0.0000 0.0000 0.0000 15.3074
#
#
#
# Elastic Compliance Matrix: (Units=1/GPa)
#
#
# Indices 1 2 3 4 5 6 
#
# 1 0.010911 -0.001800 -0.001885 0.000000 0.000000 0.000000
# 2 -0.001800 0.012242 -0.005643 0.000000 0.000000 0.000000
# 3 -0.001885 -0.005643 0.010661 0.000000 0.000000 0.000000
# 4 0.000000 0.000000 0.000000 0.049230 0.000000 0.000000
# 5 0.000000 0.000000 0.000000 0.000000 0.044069 0.000000
# 6 0.000000 0.000000 0.000000 0.000000 0.000000 0.065328
#
#
# Mechanical properties :
#
#
# Convention : Reuss Voigt Hill
#
# Bulk Modulus (GPa) = 65.96527 69.16927 67.56727
# Shear Modulus (GPa) = 23.13204 26.50216 24.81710
#
# Velocity S-wave (km/s) = 3.68310 3.94228 3.81489
# Velocity P-wave (km/s) = 7.53464 7.82846 7.68296
#
# Compressibility (1/GPa) = 0.01515949
#
# Stress axis : x y z
#
# Youngs Moduli (GPa) = 91.64659 81.68343 93.79747
#
# Poissons Ratio (x) = 0.14699 0.17680
# Poissons Ratio (y) = 0.16492 0.52933
# Poissons Ratio (z) = 0.17274 0.46097
#
# Static dielectric constant tensor:
#      x y z
#    x 3.380740 0.000000 0.000000 
#    y 0.000000 2.961070 0.000000 
#    z 0.000000 0.000000 3.549030 
# 
# 
# High freq. dielectric constant tensor:
#      x y z
#    x 1.679340 0.000000 0.000000 
#    y 0.000000 1.615350 0.000000 
#    z 0.000000 0.000000 1.663940 
# 
# From -- ./inp_files/36410.got.cif
#   From: 2010.06.25/outbox.cif.g09.slc.cpg/sg71_19_cif.got.tgz:36410.got - 2010.06.28 04:59:45.
