data_PCOD8286771
_publ_section_title
;
Structure prediction by ZEFSAII (Michael W. Deem and Ramdas Pophale) SiO2 
 PCOD8286771
Probable space group: F D D D
;
_chemical_formula_sum "Si O2"
_cell_formula_units_Z 88
_cell_length_a 5.519986
_cell_length_b 28.505680
_cell_length_c 24.005645
_cell_angle_alpha 90.000000
_cell_angle_beta 90.000000
_cell_angle_gamma 90.000000
_cell_volume 3777.311155
_symmetry_space_group_name_H-M "F D D D"
_symmetry_group_IT_number 70
_space_group.IT_coordinate_system_code '2'
_symmetry_cell_setting 'orthorhombic'
loop_
_space_group_symop_operation_xyz
x,y,z
1/4-x,1/4-y,z
x,1/4-y,1/4-z
1/4-x,y,1/4-z
-x,-y,-z
3/4+x,3/4+y,-z
-x,3/4+y,3/4+z
3/4+x,-y,3/4+z
x,1/2+y,1/2+z
1/4-x,3/4-y,1/2+z
x,3/4-y,3/4-z
1/4-x,1/2+y,3/4-z
-x,1/2-y,1/2-z
3/4+x,1/4+y,1/2-z
-x,1/4+y,1/4+z
3/4+x,1/2-y,1/4+z
1/2+x,y,1/2+z
3/4-x,1/4-y,1/2+z
1/2+x,1/4-y,3/4-z
3/4-x,y,3/4-z
1/2-x,-y,1/2-z
1/4+x,3/4+y,1/2-z
1/2-x,3/4+y,1/4+z
1/4+x,-y,1/4+z
1/2+x,1/2+y,z
3/4-x,3/4-y,z
1/2+x,3/4-y,1/4-z
3/4-x,1/2+y,1/4-z
1/2-x,1/2-y,-z
1/4+x,1/4+y,-z
1/2-x,1/4+y,3/4+z
1/4+x,1/2-y,3/4+z
loop_
_atom_site_type_symbol
_atom_site_label
_atom_site_fract_x
_atom_site_fract_y
_atom_site_fract_z
Si Si1 0.125000 0.902231 0.625000
Si Si2 0.777537 0.552913 0.179623
Si Si3 0.198794 0.467264 0.027724
Si Si4 0.875000 0.875000 0.375000
O O1 0.375000 0.875000 0.614049
O O2 0.068647 0.932003 0.569701
O O3 0.625000 0.551207 0.125000
O O4 0.605220 0.562780 0.232906
O O5 0.883479 0.501133 0.185955
O O6 0.974252 0.593696 0.169206
O O7 0.000000 0.500000 0.000000
#
# Coordination Sequence:
#
# PCOD8286771 Si02
#       4
#    16  32  32   8
#     4  12  31  50  76 119 162 201 264 328 395 470
#     4  11  25  45  75 105 146 191 254 310 388 452
#     4  11  26  50  77 102 147 208 252 311 390 471
#     4  12  24  44  68 118 148 180 254 332 380 458
#
# _framework density 23.296993000000001
#
# number of rings (size 3 to 8) (size 9 to 14) (size 15 to 20)
#    0.000    0.727    0.000    6.000   12.727    5.818 
#    3.273    0.000    0.000    0.000    0.000    0.000 
#    0.000    0.000    0.000    0.000    0.000    0.000 
#
# Total GULP energy -272754.460985 kJ/mol
# GULP energy per Si atom -12397.930045 kJ/mol
# Density = 2.324397 g / cm^3
# Si number density = 23.296993 Si / 1000 Ang^3
#
#
#
# Elastic Constant Matrix: (Units=GPa)
#
#
# Indices 1 2 3 4 5 6 
#
# 1 139.1449 56.3261 62.9948 0.0000 0.0000 0.0000
# 2 56.3261 99.3501 85.3059 0.0000 0.0000 0.0000
# 3 62.9948 85.3059 150.2022 0.0000 0.0000 0.0000
# 4 0.0000 0.0000 0.0000 86.4870 0.0000 0.0000
# 5 0.0000 0.0000 0.0000 0.0000 26.9283 0.0000
# 6 0.0000 0.0000 0.0000 0.0000 0.0000 61.9934
#
#
#
# Elastic Compliance Matrix: (Units=1/GPa)
#
#
# Indices 1 2 3 4 5 6 
#
# 1 0.009576 -0.003866 -0.001821 0.000000 0.000000 0.000000
# 2 -0.003866 0.021206 -0.010423 0.000000 0.000000 0.000000
# 3 -0.001821 -0.010423 0.013341 0.000000 0.000000 0.000000
# 4 0.000000 0.000000 0.000000 0.011562 0.000000 0.000000
# 5 0.000000 0.000000 0.000000 0.000000 0.037136 0.000000
# 6 0.000000 0.000000 0.000000 0.000000 0.000000 0.016131
#
#
# Mechanical properties :
#
#
# Convention : Reuss Voigt Hill
#
# Bulk Modulus (GPa) = 83.99894 88.66121 86.33007
# Shear Modulus (GPa) = 34.44993 47.35310 40.90152
#
# Velocity S-wave (km/s) = 3.84960 4.51331 4.19460
# Velocity P-wave (km/s) = 7.47617 8.08081 7.78436
#
# Compressibility (1/GPa) = 0.01190491
#
# Stress axis : x y z
#
# Youngs Moduli (GPa) = 104.42934 47.15560 74.95862
#
# Poissons Ratio (x) = 0.18229 0.13647
# Poissons Ratio (y) = 0.40370 0.78127
# Poissons Ratio (z) = 0.19012 0.49149
#
# Static dielectric constant tensor:
#      x y z
#    x 3.099870 0.000000 0.000000 
#    y 0.000000 3.860640 0.000000 
#    z 0.000000 0.000000 5.215000 
# 
# 
# High freq. dielectric constant tensor:
#      x y z
#    x 1.936110 0.000000 0.000000 
#    y 0.000000 1.923400 0.000000 
#    z 0.000000 0.000000 1.939950 
# 
# From -- ./inp_files/2561.got.cif
#   From: 2010.03.12/outbox.cif.g09.slc.cpg/sg70_2_cif.got.tgz:2561.got - 2010.04.16 13:46:32.
