data_PCOD8286501
_publ_section_title
;
Structure prediction by ZEFSAII (Michael W. Deem and Ramdas Pophale) SiO2 
 PCOD8286501
Probable space group: F D D D
;
_chemical_formula_sum "Si O2"
_cell_formula_units_Z 176
_cell_length_a 18.606449
_cell_length_b 27.063994
_cell_length_c 15.796592
_cell_angle_alpha 90.000000
_cell_angle_beta 90.000000
_cell_angle_gamma 90.000000
_cell_volume 7954.608072
_symmetry_space_group_name_H-M "F D D D"
_symmetry_group_IT_number 70
_space_group.IT_coordinate_system_code '2'
_symmetry_cell_setting 'orthorhombic'
loop_
_space_group_symop_operation_xyz
x,y,z
1/4-x,1/4-y,z
x,1/4-y,1/4-z
1/4-x,y,1/4-z
-x,-y,-z
3/4+x,3/4+y,-z
-x,3/4+y,3/4+z
3/4+x,-y,3/4+z
x,1/2+y,1/2+z
1/4-x,3/4-y,1/2+z
x,3/4-y,3/4-z
1/4-x,1/2+y,3/4-z
-x,1/2-y,1/2-z
3/4+x,1/4+y,1/2-z
-x,1/4+y,1/4+z
3/4+x,1/2-y,1/4+z
1/2+x,y,1/2+z
3/4-x,1/4-y,1/2+z
1/2+x,1/4-y,3/4-z
3/4-x,y,3/4-z
1/2-x,-y,1/2-z
1/4+x,3/4+y,1/2-z
1/2-x,3/4+y,1/4+z
1/4+x,-y,1/4+z
1/2+x,1/2+y,z
3/4-x,3/4-y,z
1/2+x,3/4-y,1/4-z
3/4-x,1/2+y,1/4-z
1/2-x,1/2-y,-z
1/4+x,1/4+y,-z
1/2-x,1/4+y,3/4+z
1/4+x,1/2-y,3/4+z
loop_
_atom_site_type_symbol
_atom_site_label
_atom_site_fract_x
_atom_site_fract_y
_atom_site_fract_z
Si Si1 0.071877 0.483513 0.951303
Si Si2 0.875000 0.974318 0.875000
Si Si3 0.947046 0.404862 0.497958
Si Si4 0.329782 0.825137 0.680821
Si Si5 0.097149 0.886265 0.779388
Si Si6 0.562063 0.451923 0.257533
O O1 0.122266 0.530048 0.958717
O O2 0.113923 0.437618 0.997295
O O3 0.059592 0.471553 0.853176
O O4 0.000000 0.500000 0.000000
O O5 0.938912 0.942865 0.920116
O O6 0.920861 0.003237 0.805208
O O7 0.875000 0.375000 0.501615
O O8 0.953669 0.433224 0.587097
O O9 0.011449 0.365267 0.485870
O O10 0.375000 0.875000 0.689858
O O11 0.263586 0.825317 0.744829
O O12 0.117246 0.875000 0.875000
O O13 0.128793 0.838851 0.731295
#
# Coordination Sequence:
#
# PCOD8286501 Si02
#       6
#    32  16  32  32  32  32
#     4  11  25  48  74  98 136 189 245 298 358 427
#     4  12  23  40  72 106 148 182 235 276 368 422
#     4  11  24  41  68 106 146 188 227 283 355 431
#     4  11  25  44  69 102 142 177 238 299 354 420
#     4  10  23  43  68  98 141 184 233 285 353 428
#     4  11  25  42  68 106 134 187 234 290 358 421
#
# _framework density 22.125540000000001
#
# number of rings (size 3 to 8) (size 9 to 14) (size 15 to 20)
#    0.000    1.091    1.818    3.545    7.636    2.182 
#    0.000    4.545    0.000    0.000    0.000    0.000 
#    0.000    0.000    0.000    0.000    0.000    0.000 
#
# Total GULP energy -545403.025942 kJ/mol
# GULP energy per Si atom -12395.523317 kJ/mol
# Density = 2.207518 g / cm^3
# Si number density = 22.125540 Si / 1000 Ang^3
#
#
#
# Elastic Constant Matrix: (Units=GPa)
#
#
# Indices 1 2 3 4 5 6 
#
# 1 154.6241 60.5368 35.3810 0.0000 0.0000 0.0000
# 2 60.5368 118.2411 21.9897 0.0000 0.0000 0.0000
# 3 35.3810 21.9897 57.8385 0.0000 0.0000 0.0000
# 4 0.0000 0.0000 0.0000 27.5443 0.0000 0.0000
# 5 0.0000 0.0000 0.0000 0.0000 15.6059 0.0000
# 6 0.0000 0.0000 0.0000 0.0000 0.0000 38.5018
#
#
#
# Elastic Compliance Matrix: (Units=1/GPa)
#
#
# Indices 1 2 3 4 5 6 
#
# 1 0.008865 -0.003799 -0.003979 0.000000 0.000000 0.000000
# 2 -0.003799 0.010729 -0.001755 0.000000 0.000000 0.000000
# 3 -0.003979 -0.001755 0.020391 0.000000 0.000000 0.000000
# 4 0.000000 0.000000 0.000000 0.036305 0.000000 0.000000
# 5 0.000000 0.000000 0.000000 0.000000 0.064078 0.000000
# 6 0.000000 0.000000 0.000000 0.000000 0.000000 0.025973
#
#
# Mechanical properties :
#
#
# Convention : Reuss Voigt Hill
#
# Bulk Modulus (GPa) = 47.80314 62.94652 55.37483
# Shear Modulus (GPa) = 25.99044 30.51681 28.25362
#
# Velocity S-wave (km/s) = 3.43108 3.71786 3.57735
# Velocity P-wave (km/s) = 6.11136 6.85139 6.49193
#
# Compressibility (1/GPa) = 0.02091913
#
# Stress axis : x y z
#
# Youngs Moduli (GPa) = 112.80419 93.20908 49.04220
#
# Poissons Ratio (x) = 0.35408 0.19512
# Poissons Ratio (y) = 0.42851 0.08608
# Poissons Ratio (z) = 0.44880 0.16359
#
# Static dielectric constant tensor:
#      x y z
#    x 3.901970 0.000000 0.000000 
#    y 0.000000 4.303610 0.000000 
#    z 0.000000 0.000000 5.204890 
# 
# 
# High freq. dielectric constant tensor:
#      x y z
#    x 1.881270 0.000000 0.000000 
#    y 0.000000 1.881940 0.000000 
#    z 0.000000 0.000000 1.868590 
# 
# From -- ./inp_files/35251.got.cif
#   From: 2010.03.12/outbox.cif.g09.slc.cpg/sg70_18_cif.got.tgz:35251.got - 2010.04.16 13:46:32.
