data_PCOD8286640
_publ_section_title
;
Structure prediction by ZEFSAII (Michael W. Deem and Ramdas Pophale) SiO2 
 PCOD8286640
Probable space group: F D D D
;
_chemical_formula_sum "Si O2"
_cell_formula_units_Z 176
_cell_length_a 26.538561
_cell_length_b 24.779907
_cell_length_c 11.478582
_cell_angle_alpha 90.000000
_cell_angle_beta 90.000000
_cell_angle_gamma 90.000000
_cell_volume 7548.580374
_symmetry_space_group_name_H-M "F D D D"
_symmetry_group_IT_number 70
_space_group.IT_coordinate_system_code '2'
_symmetry_cell_setting 'orthorhombic'
loop_
_space_group_symop_operation_xyz
x,y,z
1/4-x,1/4-y,z
x,1/4-y,1/4-z
1/4-x,y,1/4-z
-x,-y,-z
3/4+x,3/4+y,-z
-x,3/4+y,3/4+z
3/4+x,-y,3/4+z
x,1/2+y,1/2+z
1/4-x,3/4-y,1/2+z
x,3/4-y,3/4-z
1/4-x,1/2+y,3/4-z
-x,1/2-y,1/2-z
3/4+x,1/4+y,1/2-z
-x,1/4+y,1/4+z
3/4+x,1/2-y,1/4+z
1/2+x,y,1/2+z
3/4-x,1/4-y,1/2+z
1/2+x,1/4-y,3/4-z
3/4-x,y,3/4-z
1/2-x,-y,1/2-z
1/4+x,3/4+y,1/2-z
1/2-x,3/4+y,1/4+z
1/4+x,-y,1/4+z
1/2+x,1/2+y,z
3/4-x,3/4-y,z
1/2+x,3/4-y,1/4-z
3/4-x,1/2+y,1/4-z
1/2-x,1/2-y,-z
1/4+x,1/4+y,-z
1/2-x,1/4+y,3/4+z
1/4+x,1/2-y,3/4+z
loop_
_atom_site_type_symbol
_atom_site_label
_atom_site_fract_x
_atom_site_fract_y
_atom_site_fract_z
Si Si1 0.823949 0.676285 0.421457
Si Si2 0.277380 0.388991 0.241461
Si Si3 0.232902 0.975895 0.476831
Si Si4 0.823799 0.443852 0.171758
Si Si5 0.070888 0.241724 0.866975
Si Si6 0.280537 0.375000 0.875000
O O1 0.875000 0.647235 0.375000
O O2 0.779409 0.632576 0.439467
O O3 0.810213 0.722609 0.325902
O O4 0.834774 0.704717 0.545986
O O5 0.278301 0.375000 0.375000
O O6 0.317021 0.350055 0.179295
O O7 0.293466 0.450669 0.221665
O O8 0.282112 0.006454 0.528539
O O9 0.245875 0.913171 0.453349
O O10 0.213827 0.006584 0.360790
O O11 0.880596 0.464746 0.176064
O O12 0.813439 0.415664 0.295536
#
# Coordination Sequence:
#
# PCOD8286640 Si02
#       6
#    32  32  32  32  32  16
#     4  11  21  43  67  98 141 183 231 293 353 432
#     4  11  23  40  67 107 138 175 236 303 356 418
#     4  11  24  45  68  98 140 185 236 293 356 429
#     4  12  24  44  71 104 140 190 234 292 368 431
#     4  11  23  40  71 102 136 184 236 300 364 425
#     4  12  26  47  68 100 148 180 232 288 353 440
#
# _framework density 23.315643000000001
#
# number of rings (size 3 to 8) (size 9 to 14) (size 15 to 20)
#    0.000    0.727    5.455    5.455    0.000    2.182 
#    1.636    0.000    0.000    0.000    0.000    0.000 
#    0.000    0.000    0.000    0.000    0.000    0.000 
#
# Total GULP energy -545559.303785 kJ/mol
# GULP energy per Si atom -12399.075086 kJ/mol
# Density = 2.326258 g / cm^3
# Si number density = 23.315643 Si / 1000 Ang^3
#
#
#
# Elastic Constant Matrix: (Units=GPa)
#
#
# Indices 1 2 3 4 5 6 
#
# 1 130.1196 2.9547 40.2909 0.0002 0.0000 0.0000
# 2 2.9547 38.7780 10.4854 0.0009 -0.0003 -0.0001
# 3 40.2909 10.4854 111.2423 0.0017 -0.0007 -0.0002
# 4 0.0002 0.0009 0.0017 30.3540 -0.0004 -0.0001
# 5 0.0000 -0.0003 -0.0007 -0.0004 21.0498 0.0000
# 6 0.0000 -0.0001 -0.0002 -0.0001 0.0000 24.6064
#
#
#
# Elastic Compliance Matrix: (Units=1/GPa)
#
#
# Indices 1 2 3 4 5 6 
#
# 1 0.008657 0.000193 -0.003154 0.000000 0.000000 0.000000
# 2 0.000193 0.026467 -0.002565 -0.000001 0.000000 0.000000
# 3 -0.003154 -0.002565 0.010373 0.000000 0.000000 0.000000
# 4 0.000000 -0.000001 0.000000 0.032945 0.000001 0.000000
# 5 0.000000 0.000000 0.000000 0.000001 0.047506 0.000000
# 6 0.000000 0.000000 0.000000 0.000000 0.000000 0.040640
#
#
# Mechanical properties :
#
#
# Convention : Reuss Voigt Hill
#
# Bulk Modulus (GPa) = 29.03032 43.06687 36.04860
# Shear Modulus (GPa) = 26.43807 30.29595 28.36701
#
# Velocity S-wave (km/s) = 3.37103 3.60861 3.49184
# Velocity P-wave (km/s) = 5.25640 5.98949 5.63488
#
# Compressibility (1/GPa) = 0.03444674
#
# Stress axis : x y z
#
# Youngs Moduli (GPa) = 115.50779 37.78351 96.40025
#
# Poissons Ratio (x) = -0.00730 0.30403
# Poissons Ratio (y) = -0.02231 0.24723
# Poissons Ratio (z) = 0.36429 0.09690
#
# Static dielectric constant tensor:
#      x y z
#    x 4.257290 0.000000 0.000000 
#    y 0.000000 4.041500 0.000000 
#    z 0.000000 0.000000 4.255000 
# 
# 
# High freq. dielectric constant tensor:
#      x y z
#    x 1.925380 0.000000 0.000000 
#    y 0.000000 1.898570 0.000000 
#    z 0.000000 0.000000 1.926360 
# 
# From -- ./inp_files/20994.got.cif
#   From: 2010.03.12/outbox.cif.g09.slc.cpg/sg70_11_cif.got.tgz:20994.got - 2010.04.16 13:46:32.
