data_PCOD8286910
_publ_section_title
;
Structure prediction by ZEFSAII (Michael W. Deem and Ramdas Pophale) SiO2 
 PCOD8286910
Probable space group: I M M M
;
_chemical_formula_sum "Si O2"
_cell_formula_units_Z 92
_cell_length_a 23.951220
_cell_length_b 16.912709
_cell_length_c 12.541950
_cell_angle_alpha 90.000000
_cell_angle_beta 90.000000
_cell_angle_gamma 90.000000
_cell_volume 5080.493282
_symmetry_space_group_name_H-M "I M M M"
_symmetry_group_IT_number 71
_symmetry_cell_setting 'orthorhombic'
loop_
_space_group_symop_operation_xyz
x,y,z
-x,-y,z
x,-y,-z
-x,y,-z
-x,-y,-z
x,y,-z
-x,y,z
x,-y,z
1/2+x,1/2+y,1/2+z
1/2-x,1/2-y,1/2+z
1/2+x,1/2-y,1/2-z
1/2-x,1/2+y,1/2-z
1/2-x,1/2-y,1/2-z
1/2+x,1/2+y,1/2-z
1/2-x,1/2+y,1/2+z
1/2+x,1/2-y,1/2+z
loop_
_atom_site_type_symbol
_atom_site_label
_atom_site_fract_x
_atom_site_fract_y
_atom_site_fract_z
Si Si1 0.500000 0.160867 0.381856
Si Si2 0.819041 0.204259 0.662840
Si Si3 0.500000 0.638428 0.000000
Si Si4 0.624117 0.590193 0.000000
Si Si5 0.116216 0.586782 0.161884
Si Si6 0.000000 0.273913 0.661838
Si Si7 0.307049 0.769400 0.616508
Si Si8 0.385373 0.856416 0.114314
O O1 0.500000 0.200042 0.500000
O O2 0.447389 0.104014 0.367623
O O3 0.500000 0.230229 0.291806
O O4 0.852875 0.132884 0.607365
O O5 0.754050 0.195772 0.638081
O O6 0.826952 0.207003 0.792448
O O7 0.839946 0.286845 0.616502
O O8 0.443307 0.587621 0.000000
O O9 0.500000 0.687838 0.890121
O O10 0.645592 0.500000 0.000000
O O11 0.132347 0.500000 0.117626
O O12 0.153871 0.653976 0.110619
O O13 0.124643 0.583244 0.289905
O O14 0.053557 0.319622 0.620945
O O15 0.310030 0.727720 0.500000
O O16 0.379296 0.900151 0.000000
#
# Coordination Sequence:
#
# PCOD8286910 Si02
#       8
#     8  16   4   8  16   8  16  16
#     4  10  21  34  48  70  99 138 178 218 264 312
#     4  10  19  35  55  80 109 140 180 227 265 324
#     4  12  19  36  58  84 111 138 174 232 287 348
#     4  12  23  36  58  88 118 145 174 227 296 345
#     4  10  22  33  46  73 105 139 177 216 263 316
#     4  10  16  28  55  76  98 130 171 220 266 305
#     4  10  20  34  56  80 105 144 188 224 264 314
#     4  10  16  30  53  73 100 137 173 215 264 309
#
# _framework density 18.108478000000002
#
# number of rings (size 3 to 8) (size 9 to 14) (size 15 to 20)
#    0.000    1.739    4.348    0.913    0.000    2.783 
#    0.000    0.000    0.000    3.652    0.000    0.000 
#    0.000    2.087    0.000    0.000    0.000    0.000 
#
# Total GULP energy -570040.599508 kJ/mol
# GULP energy per Si atom -12392.186946 kJ/mol
# Density = 1.806726 g / cm^3
# Si number density = 18.108478 Si / 1000 Ang^3
#
#
#
# Elastic Constant Matrix: (Units=GPa)
#
#
# Indices 1 2 3 4 5 6 
#
# 1 95.9743 29.8437 13.0393 0.0000 0.0000 0.0000
# 2 29.8437 76.5690 32.1369 0.0000 0.0000 0.0000
# 3 13.0393 32.1369 183.9260 0.0000 0.0000 0.0000
# 4 0.0000 0.0000 0.0000 9.4985 0.0000 0.0000
# 5 0.0000 0.0000 0.0000 0.0000 20.5483 0.0000
# 6 0.0000 0.0000 0.0000 0.0000 0.0000 8.4573
#
#
#
# Elastic Compliance Matrix: (Units=1/GPa)
#
#
# Indices 1 2 3 4 5 6 
#
# 1 0.011857 -0.004606 -0.000036 0.000000 0.000000 0.000000
# 2 -0.004606 0.015883 -0.002449 0.000000 0.000000 0.000000
# 3 -0.000036 -0.002449 0.005867 0.000000 0.000000 0.000000
# 4 0.000000 0.000000 0.000000 0.105279 0.000000 0.000000
# 5 0.000000 0.000000 0.000000 0.000000 0.048666 0.000000
# 6 0.000000 0.000000 0.000000 0.000000 0.000000 0.118241
#
#
# Mechanical properties :
#
#
# Convention : Reuss Voigt Hill
#
# Bulk Modulus (GPa) = 51.47776 56.27877 53.87827
# Shear Modulus (GPa) = 15.31627 26.46413 20.89020
#
# Velocity S-wave (km/s) = 2.91143 3.82700 3.40017
# Velocity P-wave (km/s) = 6.30802 7.11857 6.72552
#
# Compressibility (1/GPa) = 0.01942586
#
# Stress axis : x y z
#
# Youngs Moduli (GPa) = 84.34079 62.95965 170.43469
#
# Poissons Ratio (x) = 0.29001 0.00609
# Poissons Ratio (y) = 0.38850 0.41734
# Poissons Ratio (z) = 0.00301 0.15417
#
# Static dielectric constant tensor:
#      x y z
#    x 3.450570 0.000000 0.000000 
#    y 0.000000 2.869530 0.000000 
#    z 0.000000 0.000000 3.896000 
# 
# 
# High freq. dielectric constant tensor:
#      x y z
#    x 1.715730 0.000000 0.000000 
#    y 0.000000 1.644870 0.000000 
#    z 0.000000 0.000000 1.724260 
# 
# From -- ./inp_files/27483.got.cif
#   From: 2010.06.25/outbox.cif.g09.slc.cpg/sg71_14_cif.got.tgz:27483.got - 2010.06.28 04:59:45.
