data_PCOD8286762
_publ_section_title
;
Structure prediction by ZEFSAII (Michael W. Deem and Ramdas Pophale) SiO2 
 PCOD8286762
Probable space group: F D D D
;
_chemical_formula_sum "Si O2"
_cell_formula_units_Z 160
_cell_length_a 20.693953
_cell_length_b 13.773027
_cell_length_c 23.090103
_cell_angle_alpha 90.000000
_cell_angle_beta 90.000000
_cell_angle_gamma 90.000000
_cell_volume 6581.103599
_symmetry_space_group_name_H-M "F D D D"
_symmetry_group_IT_number 70
_space_group.IT_coordinate_system_code '2'
_symmetry_cell_setting 'orthorhombic'
loop_
_space_group_symop_operation_xyz
x,y,z
1/4-x,1/4-y,z
x,1/4-y,1/4-z
1/4-x,y,1/4-z
-x,-y,-z
3/4+x,3/4+y,-z
-x,3/4+y,3/4+z
3/4+x,-y,3/4+z
x,1/2+y,1/2+z
1/4-x,3/4-y,1/2+z
x,3/4-y,3/4-z
1/4-x,1/2+y,3/4-z
-x,1/2-y,1/2-z
3/4+x,1/4+y,1/2-z
-x,1/4+y,1/4+z
3/4+x,1/2-y,1/4+z
1/2+x,y,1/2+z
3/4-x,1/4-y,1/2+z
1/2+x,1/4-y,3/4-z
3/4-x,y,3/4-z
1/2-x,-y,1/2-z
1/4+x,3/4+y,1/2-z
1/2-x,3/4+y,1/4+z
1/4+x,-y,1/4+z
1/2+x,1/2+y,z
3/4-x,3/4-y,z
1/2+x,3/4-y,1/4-z
3/4-x,1/2+y,1/4-z
1/2-x,1/2-y,-z
1/4+x,1/4+y,-z
1/2-x,1/4+y,3/4+z
1/4+x,1/2-y,3/4+z
loop_
_atom_site_type_symbol
_atom_site_label
_atom_site_fract_x
_atom_site_fract_y
_atom_site_fract_z
Si Si1 0.082274 0.032721 0.274591
Si Si2 0.219694 0.322539 0.643092
Si Si3 0.260919 0.969986 0.406512
Si Si4 0.353230 0.985812 0.792147
Si Si5 0.368940 0.090345 0.682917
O O1 0.125000 0.125000 0.262386
O O2 0.035097 0.016325 0.221198
O O3 0.039694 0.044720 0.332635
O O4 0.129297 0.939873 0.280712
O O5 0.218663 0.437042 0.630537
O O6 0.164040 0.302716 0.690189
O O7 0.206268 0.257956 0.585335
O O8 0.290802 0.875000 0.375000
O O9 0.183851 0.960061 0.410168
O O10 0.332979 0.013983 0.725957
O O11 0.375000 0.875000 0.796472
O O12 0.329309 0.125000 0.625000
#
# Coordination Sequence:
#
# PCOD8286762 Si02
#       5
#    32  32  32  32  32
#     4  12  26  44  74 112 152 199 243 308 377 445
#     4  11  24  48  74 108 148 197 250 304 373 438
#     4  11  25  44  75 109 151 197 248 308 370 446
#     4  11  25  48  81 107 144 197 259 308 360 446
#     4  11  25  48  70 111 150 189 242 306 374 438
#
# _framework density 24.312031000000001
#
# number of rings (size 3 to 8) (size 9 to 14) (size 15 to 20)
#    0.000    0.800    4.000    3.600    2.800    6.000 
#    0.000    3.000    0.000    0.000    0.000    0.000 
#    0.000    0.000    0.000    0.000    0.000    0.000 
#
# Total GULP energy -495862.949297 kJ/mol
# GULP energy per Si atom -12396.573732 kJ/mol
# Density = 2.425670 g / cm^3
# Si number density = 24.312031 Si / 1000 Ang^3
#
#
#
# Elastic Constant Matrix: (Units=GPa)
#
#
# Indices 1 2 3 4 5 6 
#
# 1 52.7976 17.2873 18.9655 0.0000 0.0000 0.0000
# 2 17.2873 184.9886 51.2935 0.0000 0.0000 0.0000
# 3 18.9655 51.2935 150.5418 0.0000 0.0000 0.0000
# 4 0.0000 0.0000 0.0000 34.6522 0.0000 0.0000
# 5 0.0000 0.0000 0.0000 0.0000 11.2466 0.0000
# 6 0.0000 0.0000 0.0000 0.0000 0.0000 35.7492
#
#
#
# Elastic Compliance Matrix: (Units=1/GPa)
#
#
# Indices 1 2 3 4 5 6 
#
# 1 0.020117 -0.001300 -0.002091 0.000000 0.000000 0.000000
# 2 -0.001300 0.006054 -0.001899 0.000000 0.000000 0.000000
# 3 -0.002091 -0.001899 0.007553 0.000000 0.000000 0.000000
# 4 0.000000 0.000000 0.000000 0.028858 0.000000 0.000000
# 5 0.000000 0.000000 0.000000 0.000000 0.088916 0.000000
# 6 0.000000 0.000000 0.000000 0.000000 0.000000 0.027973
#
#
# Mechanical properties :
#
#
# Convention : Reuss Voigt Hill
#
# Bulk Modulus (GPa) = 43.20895 62.60229 52.90562
# Shear Modulus (GPa) = 25.28238 36.38171 30.83205
#
# Velocity S-wave (km/s) = 3.22827 3.87259 3.56502
# Velocity P-wave (km/s) = 5.63088 6.76767 6.22528
#
# Compressibility (1/GPa) = 0.02314336
#
# Stress axis : x y z
#
# Youngs Moduli (GPa) = 49.70871 165.18673 132.39498
#
# Poissons Ratio (x) = 0.21475 0.27689
# Poissons Ratio (y) = 0.06462 0.25140
# Poissons Ratio (z) = 0.10396 0.31367
#
# Static dielectric constant tensor:
#      x y z
#    x 4.063570 0.000000 0.000000 
#    y 0.000000 4.630060 0.000000 
#    z 0.000000 0.000000 4.842580 
# 
# 
# High freq. dielectric constant tensor:
#      x y z
#    x 1.938800 0.000000 0.000000 
#    y 0.000000 1.980640 0.000000 
#    z 0.000000 0.000000 1.987660 
# 
# From -- ./inp_files/53560.got.cif
#   From: 2010.03.12/outbox.cif.g09.slc.cpg/sg70_27_cif.got.tgz:53560.got - 2010.04.16 13:46:32.
