data_PCOD8286410
_publ_section_title
;
Structure prediction by ZEFSAII (Michael W. Deem and Ramdas Pophale) SiO2 
 PCOD8286410
Probable space group: F D D D
;
_chemical_formula_sum "Si O2"
_cell_formula_units_Z 176
_cell_length_a 11.285911
_cell_length_b 24.204761
_cell_length_c 27.665720
_cell_angle_alpha 90.000000
_cell_angle_beta 90.000000
_cell_angle_gamma 90.000000
_cell_volume 7557.521599
_symmetry_space_group_name_H-M "F D D D"
_symmetry_group_IT_number 70
_space_group.IT_coordinate_system_code '2'
_symmetry_cell_setting 'orthorhombic'
loop_
_space_group_symop_operation_xyz
x,y,z
1/4-x,1/4-y,z
x,1/4-y,1/4-z
1/4-x,y,1/4-z
-x,-y,-z
3/4+x,3/4+y,-z
-x,3/4+y,3/4+z
3/4+x,-y,3/4+z
x,1/2+y,1/2+z
1/4-x,3/4-y,1/2+z
x,3/4-y,3/4-z
1/4-x,1/2+y,3/4-z
-x,1/2-y,1/2-z
3/4+x,1/4+y,1/2-z
-x,1/4+y,1/4+z
3/4+x,1/2-y,1/4+z
1/2+x,y,1/2+z
3/4-x,1/4-y,1/2+z
1/2+x,1/4-y,3/4-z
3/4-x,y,3/4-z
1/2-x,-y,1/2-z
1/4+x,3/4+y,1/2-z
1/2-x,3/4+y,1/4+z
1/4+x,-y,1/4+z
1/2+x,1/2+y,z
3/4-x,3/4-y,z
1/2+x,3/4-y,1/4-z
3/4-x,1/2+y,1/4-z
1/2-x,1/2-y,-z
1/4+x,1/4+y,-z
1/2-x,1/4+y,3/4+z
1/4+x,1/2-y,3/4+z
loop_
_atom_site_type_symbol
_atom_site_label
_atom_site_fract_x
_atom_site_fract_y
_atom_site_fract_z
Si Si1 0.375000 0.238011 0.875000
Si Si2 0.472836 0.297532 0.712182
Si Si3 0.372540 0.629675 0.744630
Si Si4 0.066042 0.287839 0.674821
Si Si5 0.971503 0.030854 0.692365
Si Si6 0.888940 0.538703 0.656069
O O1 0.439065 0.201623 0.834032
O O2 0.277289 0.276841 0.850202
O O3 0.500000 0.250000 0.750000
O O4 0.492168 0.357530 0.737533
O O5 0.339228 0.280946 0.696708
O O6 0.436353 0.663703 0.786405
O O7 0.448997 0.573632 0.735842
O O8 0.364878 0.664606 0.696372
O O9 0.125000 0.309436 0.625000
O O10 0.139588 0.233113 0.691590
O O11 0.930918 0.267303 0.670645
O O12 0.921679 0.060046 0.643645
#
# Coordination Sequence:
#
# PCOD8286410 Si02
#       6
#    16  32  32  32  32  32
#     4  10  22  44  69  88 146 174 218 291 348 400
#     4   9  21  40  61  95 133 172 221 280 340 396
#     4  11  22  38  68  98 130 176 237 269 343 412
#     4  10  23  43  66  93 138 175 224 281 339 403
#     4   9  21  44  63  93 137 174 217 286 337 397
#     4  10  22  43  66  98 130 179 225 278 341 409
#
# _framework density 23.288059000000001
#
# number of rings (size 3 to 8) (size 9 to 14) (size 15 to 20)
#    0.000    2.182    0.000    1.091    6.364    1.455 
#    9.818   10.909    0.000    0.000    0.000    0.000 
#    0.000    0.000    0.000    0.000    0.000    0.000 
#
# Total GULP energy -545221.117454 kJ/mol
# GULP energy per Si atom -12391.389033 kJ/mol
# Density = 2.323505 g / cm^3
# Si number density = 23.288059 Si / 1000 Ang^3
#
#
#
# Elastic Constant Matrix: (Units=GPa)
#
#
# Indices 1 2 3 4 5 6 
#
# 1 103.6942 32.1939 25.3953 0.0000 0.0000 0.0000
# 2 32.1939 104.3119 62.6030 0.0000 0.0000 0.0000
# 3 25.3953 62.6030 112.1017 0.0000 0.0000 0.0000
# 4 0.0000 0.0000 0.0000 23.3636 0.0000 0.0000
# 5 0.0000 0.0000 0.0000 0.0000 16.3306 0.0000
# 6 0.0000 0.0000 0.0000 0.0000 0.0000 3.7601
#
#
#
# Elastic Compliance Matrix: (Units=1/GPa)
#
#
# Indices 1 2 3 4 5 6 
#
# 1 0.010722 -0.002785 -0.000874 0.000000 0.000000 0.000000
# 2 -0.002785 0.015143 -0.007825 0.000000 0.000000 0.000000
# 3 -0.000874 -0.007825 0.013489 0.000000 0.000000 0.000000
# 4 0.000000 0.000000 0.000000 0.042802 0.000000 0.000000
# 5 0.000000 0.000000 0.000000 0.000000 0.061235 0.000000
# 6 0.000000 0.000000 0.000000 0.000000 0.000000 0.265949
#
#
# Mechanical properties :
#
#
# Convention : Reuss Voigt Hill
#
# Bulk Modulus (GPa) = 61.03065 62.27691 61.65378
# Shear Modulus (GPa) = 11.42154 22.01857 16.72005
#
# Velocity S-wave (km/s) = 2.21700 3.07821 2.68240
# Velocity P-wave (km/s) = 5.72863 6.27964 6.01045
#
# Compressibility (1/GPa) = 0.01638521
#
# Stress axis : x y z
#
# Youngs Moduli (GPa) = 93.26310 66.03889 74.13694
#
# Poissons Ratio (x) = 0.18391 0.06478
# Poissons Ratio (y) = 0.25972 0.58016
# Poissons Ratio (z) = 0.08150 0.51679
#
# Static dielectric constant tensor:
#      x y z
#    x 4.621340 0.000000 0.000000 
#    y 0.000000 4.025590 0.000000 
#    z 0.000000 0.000000 4.176490 
# 
# 
# High freq. dielectric constant tensor:
#      x y z
#    x 1.911720 0.000000 0.000000 
#    y 0.000000 1.899040 0.000000 
#    z 0.000000 0.000000 1.942390 
# 
# From -- ./inp_files/19668.got.cif
#   From: 2010.03.12/outbox.cif.g09.slc.cpg/sg70_10_cif.got.tgz:19668.got - 2010.04.16 13:46:32.
