data_PCOD8286424
_publ_section_title
;
Structure prediction by ZEFSAII (Michael W. Deem and Ramdas Pophale) SiO2 
 PCOD8286424
Probable space group: F D D D
;
_chemical_formula_sum "Si O2"
_cell_formula_units_Z 160
_cell_length_a 15.262963
_cell_length_b 15.252662
_cell_length_c 32.265086
_cell_angle_alpha 90.000000
_cell_angle_beta 90.000000
_cell_angle_gamma 90.000000
_cell_volume 7511.338341
_symmetry_space_group_name_H-M "F D D D"
_symmetry_group_IT_number 70
_space_group.IT_coordinate_system_code '2'
_symmetry_cell_setting 'orthorhombic'
loop_
_space_group_symop_operation_xyz
x,y,z
1/4-x,1/4-y,z
x,1/4-y,1/4-z
1/4-x,y,1/4-z
-x,-y,-z
3/4+x,3/4+y,-z
-x,3/4+y,3/4+z
3/4+x,-y,3/4+z
x,1/2+y,1/2+z
1/4-x,3/4-y,1/2+z
x,3/4-y,3/4-z
1/4-x,1/2+y,3/4-z
-x,1/2-y,1/2-z
3/4+x,1/4+y,1/2-z
-x,1/4+y,1/4+z
3/4+x,1/2-y,1/4+z
1/2+x,y,1/2+z
3/4-x,1/4-y,1/2+z
1/2+x,1/4-y,3/4-z
3/4-x,y,3/4-z
1/2-x,-y,1/2-z
1/4+x,3/4+y,1/2-z
1/2-x,3/4+y,1/4+z
1/4+x,-y,1/4+z
1/2+x,1/2+y,z
3/4-x,3/4-y,z
1/2+x,3/4-y,1/4-z
3/4-x,1/2+y,1/4-z
1/2-x,1/2-y,-z
1/4+x,1/4+y,-z
1/2-x,1/4+y,3/4+z
1/4+x,1/2-y,3/4+z
loop_
_atom_site_type_symbol
_atom_site_label
_atom_site_fract_x
_atom_site_fract_y
_atom_site_fract_z
Si Si1 0.375000 0.875000 0.241743
Si Si2 0.529875 0.083484 0.193874
Si Si3 0.552218 0.954274 0.719562
Si Si4 0.096311 0.875000 0.375000
Si Si5 0.965218 0.617063 0.816676
Si Si6 0.445776 0.798507 0.111020
O O1 0.352801 0.793842 0.271073
O O2 0.457242 0.849974 0.213247
O O3 0.625000 0.125000 0.190951
O O4 0.497103 0.085243 0.240943
O O5 0.463436 0.139554 0.165733
O O6 0.529335 0.986162 0.175028
O O7 0.621839 0.883186 0.704293
O O8 0.480371 0.972959 0.684609
O O9 0.155977 0.789404 0.380633
O O10 0.974277 0.669320 0.859823
O O11 0.375000 0.875000 0.109357
#
# Coordination Sequence:
#
# PCOD8286424 Si02
#       6
#    16  32  32  16  32  32
#     4  10  22  44  67 100 132 182 224 273 346 416
#     4  11  26  46  70 104 132 183 230 282 347 416
#     4  11  26  40  72 100 138 174 230 288 334 409
#     4  12  27  44  75  94 144 186 230 283 348 415
#     4  11  23  47  69  95 143 180 222 279 353 404
#     4  12  25  46  67 104 137 181 229 285 338 409
#
# _framework density 21.301130000000001
#
# number of rings (size 3 to 8) (size 9 to 14) (size 15 to 20)
#    0.000    0.800    3.000    3.300   11.200    2.400 
#    0.000    0.000    0.000    0.000    0.000    0.000 
#    0.000    0.000    0.000    0.000    0.000    0.000 
#
# Total GULP energy -496324.184660 kJ/mol
# GULP energy per Si atom -12408.104617 kJ/mol
# Density = 2.125265 g / cm^3
# Si number density = 21.301130 Si / 1000 Ang^3
#
#
#
# Elastic Constant Matrix: (Units=GPa)
#
#
# Indices 1 2 3 4 5 6 
#
# 1 105.8718 37.3329 43.9439 0.0000 0.0000 0.0000
# 2 37.3329 102.0915 34.6761 0.0000 0.0000 0.0000
# 3 43.9439 34.6761 131.7157 0.0000 0.0000 0.0000
# 4 0.0000 0.0000 0.0000 29.3879 0.0000 0.0000
# 5 0.0000 0.0000 0.0000 0.0000 32.5213 0.0000
# 6 0.0000 0.0000 0.0000 0.0000 0.0000 34.3760
#
#
#
# Elastic Compliance Matrix: (Units=1/GPa)
#
#
# Indices 1 2 3 4 5 6 
#
# 1 0.011895 -0.003297 -0.003101 0.000000 0.000000 0.000000
# 2 -0.003297 0.011671 -0.001973 0.000000 0.000000 0.000000
# 3 -0.003101 -0.001973 0.009146 0.000000 0.000000 0.000000
# 4 0.000000 0.000000 0.000000 0.034028 0.000000 0.000000
# 5 0.000000 0.000000 0.000000 0.000000 0.030749 0.000000
# 6 0.000000 0.000000 0.000000 0.000000 0.000000 0.029090
#
#
# Mechanical properties :
#
#
# Convention : Reuss Voigt Hill
#
# Bulk Modulus (GPa) = 62.61050 63.50942 63.05996
# Shear Modulus (GPa) = 33.63797 34.17210 33.90504
#
# Velocity S-wave (km/s) = 3.97818 4.00964 3.99394
# Velocity P-wave (km/s) = 7.11042 7.16352 7.13702
#
# Compressibility (1/GPa) = 0.01597176
#
# Stress axis : x y z
#
# Youngs Moduli (GPa) = 84.07054 85.68506 109.33905
#
# Poissons Ratio (x) = 0.28247 0.33901
# Poissons Ratio (y) = 0.27714 0.21569
# Poissons Ratio (z) = 0.26066 0.16903
#
# Static dielectric constant tensor:
#      x y z
#    x 3.925790 0.000000 0.000000 
#    y 0.000000 3.816190 0.000000 
#    z 0.000000 0.000000 3.994150 
# 
# 
# High freq. dielectric constant tensor:
#      x y z
#    x 1.846870 0.000000 0.000000 
#    y 0.000000 1.835800 0.000000 
#    z 0.000000 0.000000 1.846870 
# 
# From -- ./inp_files/34010.got.cif
#   From: 2010.03.12/outbox.cif.g09.slc.cpg/sg70_18_cif.got.tgz:34010.got - 2010.04.16 13:46:32.
