data_PCOD8286671
_publ_section_title
;
Structure prediction by ZEFSAII (Michael W. Deem and Ramdas Pophale) SiO2 
 PCOD8286671
Probable space group: F D D D
;
_chemical_formula_sum "Si O2"
_cell_formula_units_Z 208
_cell_length_a 21.651966
_cell_length_b 17.405970
_cell_length_c 26.425761
_cell_angle_alpha 90.000000
_cell_angle_beta 90.000000
_cell_angle_gamma 90.000000
_cell_volume 9959.168262
_symmetry_space_group_name_H-M "F D D D"
_symmetry_group_IT_number 70
_space_group.IT_coordinate_system_code '2'
_symmetry_cell_setting 'orthorhombic'
loop_
_space_group_symop_operation_xyz
x,y,z
1/4-x,1/4-y,z
x,1/4-y,1/4-z
1/4-x,y,1/4-z
-x,-y,-z
3/4+x,3/4+y,-z
-x,3/4+y,3/4+z
3/4+x,-y,3/4+z
x,1/2+y,1/2+z
1/4-x,3/4-y,1/2+z
x,3/4-y,3/4-z
1/4-x,1/2+y,3/4-z
-x,1/2-y,1/2-z
3/4+x,1/4+y,1/2-z
-x,1/4+y,1/4+z
3/4+x,1/2-y,1/4+z
1/2+x,y,1/2+z
3/4-x,1/4-y,1/2+z
1/2+x,1/4-y,3/4-z
3/4-x,y,3/4-z
1/2-x,-y,1/2-z
1/4+x,3/4+y,1/2-z
1/2-x,3/4+y,1/4+z
1/4+x,-y,1/4+z
1/2+x,1/2+y,z
3/4-x,3/4-y,z
1/2+x,3/4-y,1/4-z
3/4-x,1/2+y,1/4-z
1/2-x,1/2-y,-z
1/4+x,1/4+y,-z
1/2-x,1/4+y,3/4+z
1/4+x,1/2-y,3/4+z
loop_
_atom_site_type_symbol
_atom_site_label
_atom_site_fract_x
_atom_site_fract_y
_atom_site_fract_z
Si Si1 0.490324 0.203836 0.009516
Si Si2 0.649277 0.007228 0.947245
Si Si3 0.725207 0.398141 0.563274
Si Si4 0.143414 0.839655 0.477207
Si Si5 0.053306 0.200230 0.721332
Si Si6 0.663733 0.192992 0.411223
Si Si7 0.875000 0.519016 0.875000
O O1 0.486319 0.275641 0.047929
O O2 0.420957 0.179712 0.994317
O O3 0.525822 0.134267 0.037715
O O4 0.528210 0.229263 0.959676
O O5 0.633177 0.042859 0.893326
O O6 0.633165 0.917023 0.944842
O O7 0.610502 0.050635 0.990236
O O8 0.699242 0.352319 0.515351
O O9 0.766774 0.338544 0.594390
O O10 0.667792 0.423216 0.595548
O O11 0.164297 0.771256 0.441522
O O12 0.081361 0.223922 0.666021
O O13 0.000000 0.250000 0.750000
O O14 0.625000 0.125000 0.438700
#
# Coordination Sequence:
#
# PCOD8286671 Si02
#       7
#    32  32  32  32  32  32  16
#     4  11  22  43  66  95 138 175 214 280 341 408
#     4  11  25  43  66  99 140 176 223 279 344 416
#     4  11  26  43  67  97 131 176 233 282 331 409
#     4  11  23  47  66  98 133 180 225 286 342 402
#     4  12  24  42  69  99 142 179 220 283 344 422
#     4  12  25  41  70  98 130 181 230 279 340 407
#     4  12  26  45  68 102 137 184 224 274 361 412
#
# _framework density 20.885278
#
# number of rings (size 3 to 8) (size 9 to 14) (size 15 to 20)
#    0.000    0.615    6.154    2.308    6.462    1.231 
#    2.769    0.000    0.000    0.000    0.000    0.000 
#    0.000    0.000    0.000    0.000    0.000    0.000 
#
# Total GULP energy -644488.520338 kJ/mol
# GULP energy per Si atom -12394.010006 kJ/mol
# Density = 2.083774 g / cm^3
# Si number density = 20.885278 Si / 1000 Ang^3
#
#
#
# Elastic Constant Matrix: (Units=GPa)
#
#
# Indices 1 2 3 4 5 6 
#
# 1 74.2461 32.1361 5.6710 0.0000 0.0000 0.0000
# 2 32.1361 107.8422 29.6471 0.0000 0.0000 0.0000
# 3 5.6710 29.6471 87.9345 0.0000 0.0000 0.0000
# 4 0.0000 0.0000 0.0000 24.0683 0.0000 0.0000
# 5 0.0000 0.0000 0.0000 0.0000 25.1600 0.0000
# 6 0.0000 0.0000 0.0000 0.0000 0.0000 39.6645
#
#
#
# Elastic Compliance Matrix: (Units=1/GPa)
#
#
# Indices 1 2 3 4 5 6 
#
# 1 0.015493 -0.004786 0.000614 0.000000 0.000000 0.000000
# 2 -0.004786 0.011698 -0.003635 0.000000 0.000000 0.000000
# 3 0.000614 -0.003635 0.012558 0.000000 0.000000 0.000000
# 4 0.000000 0.000000 0.000000 0.041548 0.000000 0.000000
# 5 0.000000 0.000000 0.000000 0.000000 0.039746 0.000000
# 6 0.000000 0.000000 0.000000 0.000000 0.000000 0.025211
#
#
# Mechanical properties :
#
#
# Convention : Reuss Voigt Hill
#
# Bulk Modulus (GPa) = 41.43186 44.99236 43.21211
# Shear Modulus (GPa) = 29.42658 31.28312 30.35485
#
# Velocity S-wave (km/s) = 3.75769 3.87441 3.81650
# Velocity P-wave (km/s) = 6.22156 6.45013 6.33688
#
# Compressibility (1/GPa) = 0.02413601
#
# Stress axis : x y z
#
# Youngs Moduli (GPa) = 64.54435 85.48215 79.62945
#
# Poissons Ratio (x) = 0.40910 -0.04892
# Poissons Ratio (y) = 0.30889 0.28949
# Poissons Ratio (z) = -0.03965 0.31077
#
# Static dielectric constant tensor:
#      x y z
#    x 4.059660 0.000000 0.000000 
#    y 0.000000 3.994060 0.000000 
#    z 0.000000 0.000000 3.768110 
# 
# 
# High freq. dielectric constant tensor:
#      x y z
#    x 1.829780 0.000000 0.000000 
#    y 0.000000 1.836040 0.000000 
#    z 0.000000 0.000000 1.796070 
# 
# From -- ./inp_files/60426.got.cif
#   From: 2010.03.12/outbox.cif.g09.slc.cpg/sg70_31_cif.got.tgz:60426.got - 2010.04.16 13:46:32.
