data_PCOD8286662
_publ_section_title
;
Structure prediction by ZEFSAII (Michael W. Deem and Ramdas Pophale) SiO2 
 PCOD8286662
Probable space group: F D D D
;
_chemical_formula_sum "Si O2"
_cell_formula_units_Z 216
_cell_length_a 21.432634
_cell_length_b 16.368799
_cell_length_c 29.441055
_cell_angle_alpha 90.000000
_cell_angle_beta 90.000000
_cell_angle_gamma 90.000000
_cell_volume 10328.701634
_symmetry_space_group_name_H-M "F D D D"
_symmetry_group_IT_number 70
_space_group.IT_coordinate_system_code '2'
_symmetry_cell_setting 'orthorhombic'
loop_
_space_group_symop_operation_xyz
x,y,z
1/4-x,1/4-y,z
x,1/4-y,1/4-z
1/4-x,y,1/4-z
-x,-y,-z
3/4+x,3/4+y,-z
-x,3/4+y,3/4+z
3/4+x,-y,3/4+z
x,1/2+y,1/2+z
1/4-x,3/4-y,1/2+z
x,3/4-y,3/4-z
1/4-x,1/2+y,3/4-z
-x,1/2-y,1/2-z
3/4+x,1/4+y,1/2-z
-x,1/4+y,1/4+z
3/4+x,1/2-y,1/4+z
1/2+x,y,1/2+z
3/4-x,1/4-y,1/2+z
1/2+x,1/4-y,3/4-z
3/4-x,y,3/4-z
1/2-x,-y,1/2-z
1/4+x,3/4+y,1/2-z
1/2-x,3/4+y,1/4+z
1/4+x,-y,1/4+z
1/2+x,1/2+y,z
3/4-x,3/4-y,z
1/2+x,3/4-y,1/4-z
3/4-x,1/2+y,1/4-z
1/2-x,1/2-y,-z
1/4+x,1/4+y,-z
1/2-x,1/4+y,3/4+z
1/4+x,1/2-y,3/4+z
loop_
_atom_site_type_symbol
_atom_site_label
_atom_site_fract_x
_atom_site_fract_y
_atom_site_fract_z
Si Si1 0.875000 0.375000 0.875000
Si Si2 0.841449 0.542696 0.235369
Si Si3 0.164952 0.799171 0.846448
Si Si4 0.327314 0.562388 0.838490
Si Si5 0.247013 0.313334 0.772362
Si Si6 0.032454 0.779522 0.881177
Si Si7 0.625000 0.125000 0.495048
Si Si8 0.042851 0.989846 0.674742
O O1 0.917679 0.430916 0.841493
O O2 0.898007 0.580129 0.205083
O O3 0.853914 0.541832 0.288890
O O4 0.779642 0.593668 0.223413
O O5 0.837995 0.446850 0.217877
O O6 0.189211 0.875000 0.875000
O O7 0.104079 0.758574 0.869336
O O8 0.222826 0.737695 0.845468
O O9 0.375000 0.525215 0.875000
O O10 0.260226 0.522277 0.847090
O O11 0.325545 0.659755 0.844654
O O12 0.229960 0.258301 0.816018
O O13 0.321873 0.324000 0.772041
O O14 0.215320 0.267009 0.729527
O O15 0.018282 0.875000 0.875000
#
# Coordination Sequence:
#
# PCOD8286662 Si02
#       8
#     8  32  32  32  32  32  16  32
#     4  12  24  52  72  94 118 168 240 284 380 384
#     4  11  23  38  62  93 136 174 222 262 328 400
#     4  11  22  42  67  93 126 181 220 274 328 400
#     4  11  25  41  63  98 136 171 220 276 332 399
#     4  11  23  40  62  97 137 176 220 273 328 401
#     4  11  23  40  64  96 144 183 214 258 331 403
#     4  12  22  34  65  95 132 182 217 258 331 408
#     4  11  25  43  72  92 123 170 231 292 332 406
#
# _framework density 20.912599
#
# number of rings (size 3 to 8) (size 9 to 14) (size 15 to 20)
#    0.000    0.889    5.926    2.222    4.148    0.889 
#    0.000    1.481    0.000    4.444    0.000    0.000 
#    0.000    0.000    0.000    0.000    0.000    0.000 
#
# Total GULP energy -668965.187163 kJ/mol
# GULP energy per Si atom -12388.244207 kJ/mol
# Density = 2.086500 g / cm^3
# Si number density = 20.912599 Si / 1000 Ang^3
#
#
#
# Elastic Constant Matrix: (Units=GPa)
#
#
# Indices 1 2 3 4 5 6 
#
# 1 105.9914 30.5998 40.9152 0.0000 0.0000 0.0000
# 2 30.5998 98.1658 34.0875 0.0000 0.0000 0.0000
# 3 40.9152 34.0875 148.9344 0.0000 0.0000 0.0000
# 4 0.0000 0.0000 0.0000 17.4913 0.0000 0.0000
# 5 0.0000 0.0000 0.0000 0.0000 6.5326 0.0000
# 6 0.0000 0.0000 0.0000 0.0000 0.0000 29.5934
#
#
#
# Elastic Compliance Matrix: (Units=1/GPa)
#
#
# Indices 1 2 3 4 5 6 
#
# 1 0.011141 -0.002618 -0.002461 0.000000 0.000000 0.000000
# 2 -0.002618 0.011682 -0.001954 0.000000 0.000000 0.000000
# 3 -0.002461 -0.001954 0.007838 0.000000 0.000000 0.000000
# 4 0.000000 0.000000 0.000000 0.057171 0.000000 0.000000
# 5 0.000000 0.000000 0.000000 0.000000 0.153077 0.000000
# 6 0.000000 0.000000 0.000000 0.000000 0.000000 0.033791
#
#
# Mechanical properties :
#
#
# Convention : Reuss Voigt Hill
#
# Bulk Modulus (GPa) = 60.26804 62.69962 61.48383
# Shear Modulus (GPa) = 16.98955 27.22274 22.10615
#
# Velocity S-wave (km/s) = 2.85337 3.61188 3.25479
# Velocity P-wave (km/s) = 6.30374 6.88774 6.60220
#
# Compressibility (1/GPa) = 0.01659254
#
# Stress axis : x y z
#
# Youngs Moduli (GPa) = 89.76103 85.60479 127.58569
#
# Poissons Ratio (x) = 0.22412 0.31403
# Poissons Ratio (y) = 0.23500 0.24936
# Poissons Ratio (z) = 0.22093 0.16731
#
# Static dielectric constant tensor:
#      x y z
#    x 3.796300 0.000000 0.000000 
#    y 0.000000 3.731140 0.000000 
#    z 0.000000 0.000000 4.090410 
# 
# 
# High freq. dielectric constant tensor:
#      x y z
#    x 1.824930 0.000000 0.000000 
#    y 0.000000 1.799800 0.000000 
#    z 0.000000 0.000000 1.826040 
# 
# From -- ./inp_files/67999.got.cif
#   From: 2010.03.12/outbox.cif.g09.slc.cpg/sg70_34_cif.got.tgz:67999.got - 2010.04.16 13:46:32.
