data_PCOD8286997
_publ_section_title
;
Structure prediction by ZEFSAII (Michael W. Deem and Ramdas Pophale) SiO2 
 PCOD8286997
Probable space group: I M M M
;
_chemical_formula_sum "Si O2"
_cell_formula_units_Z 96
_cell_length_a 27.796059
_cell_length_b 29.150862
_cell_length_c 9.091298
_cell_angle_alpha 90.000000
_cell_angle_beta 90.000000
_cell_angle_gamma 90.000000
_cell_volume 7366.488580
_symmetry_space_group_name_H-M "I M M M"
_symmetry_group_IT_number 71
_symmetry_cell_setting 'orthorhombic'
loop_
_space_group_symop_operation_xyz
x,y,z
-x,-y,z
x,-y,-z
-x,y,-z
-x,-y,-z
x,y,-z
-x,y,z
x,-y,z
1/2+x,1/2+y,1/2+z
1/2-x,1/2-y,1/2+z
1/2+x,1/2-y,1/2-z
1/2-x,1/2+y,1/2-z
1/2-x,1/2-y,1/2-z
1/2+x,1/2+y,1/2-z
1/2-x,1/2+y,1/2+z
1/2+x,1/2-y,1/2+z
loop_
_atom_site_type_symbol
_atom_site_label
_atom_site_fract_x
_atom_site_fract_y
_atom_site_fract_z
Si Si1 0.320575 0.770831 0.164094
Si Si2 0.846830 0.131135 0.674255
Si Si3 0.600893 0.553015 0.328383
Si Si4 0.254846 0.318809 0.837106
Si Si5 0.000000 0.091774 0.174577
Si Si6 0.604090 0.716211 0.673832
Si Si7 0.000000 0.806156 0.172020
O O1 0.286812 0.726773 0.164746
O O2 0.290890 0.813921 0.229788
O O3 0.367837 0.759874 0.260129
O O4 0.336893 0.783871 0.000000
O O5 0.855877 0.135527 0.500000
O O6 0.860099 0.081132 0.734278
O O7 0.790218 0.139763 0.710590
O O8 0.879345 0.168320 0.757062
O O9 0.606461 0.565510 0.500000
O O10 0.611333 0.500000 0.298756
O O11 0.547426 0.565114 0.270616
O O12 0.234173 0.327170 0.000000
O O13 0.000000 0.142971 0.243800
O O14 0.000000 0.092384 0.000000
O O15 0.613212 0.714322 0.500000
O O16 0.547742 0.722237 0.715457
O O17 0.000000 0.815246 0.000000
#
# Coordination Sequence:
#
# PCOD8286997 Si02
#       7
#    16  16  16  16   8  16   8
#     4   9  16  25  37  56  75  90 110 139 176 213
#     4  10  19  29  40  55  73  91 113 146 187 226
#     4  10  19  30  44  57  69  90 121 155 191 231
#     4   8  15  26  38  52  70  92 114 135 169 217
#     4   9  15  28  43  56  68  86 122 160 190 225
#     4  10  17  27  41  54  71  94 121 149 178 215
#     4   9  16  25  40  56  69  93 127 156 181 217
#
# _framework density 13.03199
#
# number of rings (size 3 to 8) (size 9 to 14) (size 15 to 20)
#    0.000    2.667    1.667    2.750    0.000    6.000 
#    0.000    2.917    0.000    1.000    0.000    0.000 
#    0.000    0.000    0.000    0.000    0.000    0.000 
#
# Total GULP energy -594952.999179 kJ/mol
# GULP energy per Si atom -12394.854150 kJ/mol
# Density = 1.300233 g / cm^3
# Si number density = 13.031990 Si / 1000 Ang^3
#
#
#
# Elastic Constant Matrix: (Units=GPa)
#
#
# Indices 1 2 3 4 5 6 
#
# 1 87.6946 48.3489 49.1397 0.0000 0.0000 0.0000
# 2 48.3489 47.7572 31.3445 0.0000 0.0000 0.0000
# 3 49.1397 31.3445 75.5030 0.0000 0.0000 0.0000
# 4 0.0000 0.0000 0.0000 15.7866 0.0000 0.0000
# 5 0.0000 0.0000 0.0000 0.0000 17.4881 0.0000
# 6 0.0000 0.0000 0.0000 0.0000 0.0000 19.9067
#
#
#
# Elastic Compliance Matrix: (Units=1/GPa)
#
#
# Indices 1 2 3 4 5 6 
#
# 1 0.030093 -0.024207 -0.009536 0.000000 0.000000 0.000000
# 2 -0.024207 0.048254 -0.004278 0.000000 0.000000 0.000000
# 3 -0.009536 -0.004278 0.021227 0.000000 0.000000 0.000000
# 4 0.000000 0.000000 0.000000 0.063345 0.000000 0.000000
# 5 0.000000 0.000000 0.000000 0.000000 0.057182 0.000000
# 6 0.000000 0.000000 0.000000 0.000000 0.000000 0.050234
#
#
# Mechanical properties :
#
#
# Convention : Reuss Voigt Hill
#
# Bulk Modulus (GPa) = 42.49507 52.06902 47.28205
# Shear Modulus (GPa) = 14.11557 16.11104 15.11330
#
# Velocity S-wave (km/s) = 3.29469 3.51988 3.40914
# Velocity P-wave (km/s) = 6.86676 7.52070 7.20115
#
# Compressibility (1/GPa) = 0.02353214
#
# Stress axis : x y z
#
# Youngs Moduli (GPa) = 33.23062 20.72384 47.11068
#
# Poissons Ratio (x) = 0.50166 0.44925
# Poissons Ratio (y) = 0.80441 0.20152
# Poissons Ratio (z) = 0.31689 0.08865
#
# Static dielectric constant tensor:
#      x y z
#    x 2.743770 0.000000 0.000000 
#    y 0.000000 2.373260 0.000000 
#    z 0.000000 0.000000 2.664460 
# 
# 
# High freq. dielectric constant tensor:
#      x y z
#    x 1.483680 0.000000 0.000000 
#    y 0.000000 1.446110 0.000000 
#    z 0.000000 0.000000 1.498310 
# 
# From -- ./inp_files/17587.got.cif
#   From: 2010.06.25/outbox.cif.g09.slc.cpg/sg71_9_cif.got.tgz:17587.got - 2010.06.28 04:59:45.
