data_PCOD8286191
_publ_section_title
;
Structure prediction by ZEFSAII (Michael W. Deem and Ramdas Pophale) SiO2 
 PCOD8286191
Probable space group: F D D D
;
_chemical_formula_sum "Si O2"
_cell_formula_units_Z 160
_cell_length_a 25.693407
_cell_length_b 12.273946
_cell_length_c 25.538589
_cell_angle_alpha 90.000000
_cell_angle_beta 90.000000
_cell_angle_gamma 90.000000
_cell_volume 8053.836404
_symmetry_space_group_name_H-M "F D D D"
_symmetry_group_IT_number 70
_space_group.IT_coordinate_system_code '2'
_symmetry_cell_setting 'orthorhombic'
loop_
_space_group_symop_operation_xyz
x,y,z
1/4-x,1/4-y,z
x,1/4-y,1/4-z
1/4-x,y,1/4-z
-x,-y,-z
3/4+x,3/4+y,-z
-x,3/4+y,3/4+z
3/4+x,-y,3/4+z
x,1/2+y,1/2+z
1/4-x,3/4-y,1/2+z
x,3/4-y,3/4-z
1/4-x,1/2+y,3/4-z
-x,1/2-y,1/2-z
3/4+x,1/4+y,1/2-z
-x,1/4+y,1/4+z
3/4+x,1/2-y,1/4+z
1/2+x,y,1/2+z
3/4-x,1/4-y,1/2+z
1/2+x,1/4-y,3/4-z
3/4-x,y,3/4-z
1/2-x,-y,1/2-z
1/4+x,3/4+y,1/2-z
1/2-x,3/4+y,1/4+z
1/4+x,-y,1/4+z
1/2+x,1/2+y,z
3/4-x,3/4-y,z
1/2+x,3/4-y,1/4-z
3/4-x,1/2+y,1/4-z
1/2-x,1/2-y,-z
1/4+x,1/4+y,-z
1/2-x,1/4+y,3/4+z
1/4+x,1/2-y,3/4+z
loop_
_atom_site_type_symbol
_atom_site_label
_atom_site_fract_x
_atom_site_fract_y
_atom_site_fract_z
Si Si1 0.186834 0.798720 0.235819
Si Si2 0.024660 0.586616 0.065355
Si Si3 0.428500 0.096565 0.997242
Si Si4 0.930299 0.729463 0.846477
Si Si5 0.285294 0.308339 0.801549
O O1 0.196055 0.673153 0.221583
O O2 0.130414 0.815858 0.261703
O O3 0.193027 0.867819 0.182663
O O4 0.229071 0.836419 0.278075
O O5 0.027917 0.625000 0.125000
O O6 0.053801 0.472178 0.054526
O O7 0.964721 0.571430 0.047393
O O8 0.431974 0.224794 0.984502
O O9 0.875000 0.723425 0.875000
O O10 0.931555 0.830171 0.805577
O O11 0.973328 0.753188 0.891235
#
# Coordination Sequence:
#
# PCOD8286191 Si02
#       5
#    32  32  32  32  32
#     4  11  22  36  60  86 116 152 196 244 297 348
#     4  10  22  38  58  85 118 152 200 243 291 352
#     4  10  21  38  58  84 119 153 189 248 294 345
#     4  11  21  37  62  83 114 152 196 242 287 354
#     4  10  21  36  56  88 115 147 193 243 294 344
#
# _framework density 19.866308
#
# number of rings (size 3 to 8) (size 9 to 14) (size 15 to 20)
#    0.000    1.600    2.000    3.600    0.000    0.800 
#    3.600    0.000    0.000    0.000    0.000    0.000 
#    0.000    0.000    0.000    0.000    0.000    0.000 
#
# Total GULP energy -495959.830219 kJ/mol
# GULP energy per Si atom -12398.995755 kJ/mol
# Density = 1.982109 g / cm^3
# Si number density = 19.866308 Si / 1000 Ang^3
#
#
#
# Elastic Constant Matrix: (Units=GPa)
#
#
# Indices 1 2 3 4 5 6 
#
# 1 144.0022 28.4684 49.0142 0.0000 0.0000 0.0000
# 2 28.4684 69.7642 11.0999 0.0000 0.0000 0.0000
# 3 49.0142 11.0999 68.8760 0.0000 0.0000 0.0000
# 4 0.0000 0.0000 0.0000 31.7987 0.0000 0.0000
# 5 0.0000 0.0000 0.0000 0.0000 33.2770 0.0000
# 6 0.0000 0.0000 0.0000 0.0000 0.0000 26.5938
#
#
#
# Elastic Compliance Matrix: (Units=1/GPa)
#
#
# Indices 1 2 3 4 5 6 
#
# 1 0.009718 -0.002941 -0.006442 0.000000 0.000000 0.000000
# 2 -0.002941 0.015601 -0.000421 0.000000 0.000000 0.000000
# 3 -0.006442 -0.000421 0.019171 0.000000 0.000000 0.000000
# 4 0.000000 0.000000 0.000000 0.031448 0.000000 0.000000
# 5 0.000000 0.000000 0.000000 0.000000 0.030051 0.000000
# 6 0.000000 0.000000 0.000000 0.000000 0.000000 0.037603
#
#
# Mechanical properties :
#
#
# Convention : Reuss Voigt Hill
#
# Bulk Modulus (GPa) = 40.18957 51.08971 45.63964
# Shear Modulus (GPa) = 29.15548 31.27123 30.21336
#
# Velocity S-wave (km/s) = 3.83506 3.97178 3.90402
# Velocity P-wave (km/s) = 6.31539 6.84149 6.58370
#
# Compressibility (1/GPa) = 0.02488208
#
# Stress axis : x y z
#
# Youngs Moduli (GPa) = 102.89792 64.09811 52.16196
#
# Poissons Ratio (x) = 0.18850 0.33603
# Poissons Ratio (y) = 0.30260 0.02199
# Poissons Ratio (z) = 0.66286 0.02702
#
# Static dielectric constant tensor:
#      x y z
#    x 3.618060 0.000000 0.000000 
#    y 0.000000 3.861150 0.000000 
#    z 0.000000 0.000000 3.595040 
# 
# 
# High freq. dielectric constant tensor:
#      x y z
#    x 1.765940 0.000000 0.000000 
#    y 0.000000 1.795640 0.000000 
#    z 0.000000 0.000000 1.751910 
# 
# From -- ./inp_files/19479.got.cif
#   From: 2010.03.12/outbox.cif.g09.slc.cpg/sg70_10_cif.got.tgz:19479.got - 2010.04.16 13:46:32.
