data_PCOD8286272
_publ_section_title
;
Structure prediction by ZEFSAII (Michael W. Deem and Ramdas Pophale) SiO2 
 PCOD8286272
Probable space group: F D D D
;
_chemical_formula_sum "Si O2"
_cell_formula_units_Z 176
_cell_length_a 24.150820
_cell_length_b 11.512773
_cell_length_c 28.200416
_cell_angle_alpha 90.000000
_cell_angle_beta 90.000000
_cell_angle_gamma 90.000000
_cell_volume 7840.925683
_symmetry_space_group_name_H-M "F D D D"
_symmetry_group_IT_number 70
_space_group.IT_coordinate_system_code '2'
_symmetry_cell_setting 'orthorhombic'
loop_
_space_group_symop_operation_xyz
x,y,z
1/4-x,1/4-y,z
x,1/4-y,1/4-z
1/4-x,y,1/4-z
-x,-y,-z
3/4+x,3/4+y,-z
-x,3/4+y,3/4+z
3/4+x,-y,3/4+z
x,1/2+y,1/2+z
1/4-x,3/4-y,1/2+z
x,3/4-y,3/4-z
1/4-x,1/2+y,3/4-z
-x,1/2-y,1/2-z
3/4+x,1/4+y,1/2-z
-x,1/4+y,1/4+z
3/4+x,1/2-y,1/4+z
1/2+x,y,1/2+z
3/4-x,1/4-y,1/2+z
1/2+x,1/4-y,3/4-z
3/4-x,y,3/4-z
1/2-x,-y,1/2-z
1/4+x,3/4+y,1/2-z
1/2-x,3/4+y,1/4+z
1/4+x,-y,1/4+z
1/2+x,1/2+y,z
3/4-x,3/4-y,z
1/2+x,3/4-y,1/4-z
3/4-x,1/2+y,1/4-z
1/2-x,1/2-y,-z
1/4+x,1/4+y,-z
1/2-x,1/4+y,3/4+z
1/4+x,1/2-y,3/4+z
loop_
_atom_site_type_symbol
_atom_site_label
_atom_site_fract_x
_atom_site_fract_y
_atom_site_fract_z
Si Si1 0.042671 0.670099 0.223178
Si Si2 0.432756 0.919835 0.321474
Si Si3 0.737112 0.375000 0.875000
Si Si4 0.979009 0.165232 0.996305
Si Si5 0.109406 0.382741 0.731883
Si Si6 0.676428 0.041968 0.433306
O O1 0.043077 0.547155 0.249757
O O2 0.100401 0.742989 0.226875
O O3 0.000000 0.750000 0.250000
O O4 0.027095 0.651317 0.168606
O O5 0.437033 0.875000 0.375000
O O6 0.375000 0.875000 0.297216
O O7 0.489078 0.880575 0.295019
O O8 0.421854 0.058420 0.313809
O O9 0.696100 0.265769 0.865708
O O10 0.924921 0.087727 0.985544
O O11 0.021631 0.136054 0.953915
O O12 0.082809 0.436898 0.779412
O O13 0.625000 0.125000 0.423370
#
# Coordination Sequence:
#
# PCOD8286272 Si02
#       6
#    32  32  16  32  32  32
#     4  11  20  44  68  94 136 173 219 276 337 393
#     4  10  22  42  61  97 137 169 224 273 328 397
#     4  10  22  44  65  98 132 174 225 274 336 398
#     4  10  21  40  70  95 128 180 219 262 338 401
#     4  11  21  42  71  93 133 177 215 274 331 400
#     4  10  22  43  64  94 135 169 218 276 320 402
#
# _framework density 22.446328000000001
#
# number of rings (size 3 to 8) (size 9 to 14) (size 15 to 20)
#    0.000    1.636    5.455    2.727    0.000    2.909 
#   21.273    3.636    2.000    0.000    0.000    0.000 
#    0.000    0.000    0.000    0.000    0.000    0.000 
#
# Total GULP energy -545107.418139 kJ/mol
# GULP energy per Si atom -12388.804958 kJ/mol
# Density = 2.239524 g / cm^3
# Si number density = 22.446328 Si / 1000 Ang^3
#
#
#
# Elastic Constant Matrix: (Units=GPa)
#
#
# Indices 1 2 3 4 5 6 
#
# 1 141.9745 9.3034 41.1015 0.0000 0.0000 0.0000
# 2 9.3034 55.7686 13.2463 0.0000 0.0000 0.0000
# 3 41.1015 13.2463 101.1500 0.0000 0.0000 0.0000
# 4 0.0000 0.0000 0.0000 30.6841 0.0000 0.0000
# 5 0.0000 0.0000 0.0000 0.0000 12.4233 0.0000
# 6 0.0000 0.0000 0.0000 0.0000 0.0000 36.7203
#
#
#
# Elastic Compliance Matrix: (Units=1/GPa)
#
#
# Indices 1 2 3 4 5 6 
#
# 1 0.008001 -0.000581 -0.003175 0.000000 0.000000 0.000000
# 2 -0.000581 0.018549 -0.002193 0.000000 0.000000 0.000000
# 3 -0.003175 -0.002193 0.011464 0.000000 0.000000 0.000000
# 4 0.000000 0.000000 0.000000 0.032590 0.000000 0.000000
# 5 0.000000 0.000000 0.000000 0.000000 0.080494 0.000000
# 6 0.000000 0.000000 0.000000 0.000000 0.000000 0.027233
#
#
# Mechanical properties :
#
#
# Convention : Reuss Voigt Hill
#
# Bulk Modulus (GPa) = 38.29094 47.35506 42.82300
# Shear Modulus (GPa) = 25.13405 31.64833 28.39119
#
# Velocity S-wave (km/s) = 3.34988 3.75901 3.56033
# Velocity P-wave (km/s) = 5.66200 6.32321 6.00172
#
# Compressibility (1/GPa) = 0.02611584
#
# Stress axis : x y z
#
# Youngs Moduli (GPa) = 124.98876 53.91121 87.23215
#
# Poissons Ratio (x) = 0.03130 0.27696
# Poissons Ratio (y) = 0.07256 0.19132
# Poissons Ratio (z) = 0.39684 0.11824
#
# Static dielectric constant tensor:
#      x y z
#    x 4.644300 0.000000 0.000000 
#    y 0.000000 4.374620 0.000000 
#    z 0.000000 0.000000 3.731810 
# 
# 
# High freq. dielectric constant tensor:
#      x y z
#    x 1.902510 0.000000 0.000000 
#    y 0.000000 1.889580 0.000000 
#    z 0.000000 0.000000 1.852680 
# 
# From -- ./inp_files/54994.got.cif
#   From: 2010.03.12/outbox.cif.g09.slc.cpg/sg70_28_cif.got.tgz:54994.got - 2010.04.16 13:46:32.
