data_PCOD8286518
_publ_section_title
;
Structure prediction by ZEFSAII (Michael W. Deem and Ramdas Pophale) SiO2 
 PCOD8286518
Probable space group: F D D D
;
_chemical_formula_sum "Si O2"
_cell_formula_units_Z 96
_cell_length_a 8.078471
_cell_length_b 28.923767
_cell_length_c 17.057740
_cell_angle_alpha 90.000000
_cell_angle_beta 90.000000
_cell_angle_gamma 90.000000
_cell_volume 3985.708337
_symmetry_space_group_name_H-M "F D D D"
_symmetry_group_IT_number 70
_space_group.IT_coordinate_system_code '2'
_symmetry_cell_setting 'orthorhombic'
loop_
_space_group_symop_operation_xyz
x,y,z
1/4-x,1/4-y,z
x,1/4-y,1/4-z
1/4-x,y,1/4-z
-x,-y,-z
3/4+x,3/4+y,-z
-x,3/4+y,3/4+z
3/4+x,-y,3/4+z
x,1/2+y,1/2+z
1/4-x,3/4-y,1/2+z
x,3/4-y,3/4-z
1/4-x,1/2+y,3/4-z
-x,1/2-y,1/2-z
3/4+x,1/4+y,1/2-z
-x,1/4+y,1/4+z
3/4+x,1/2-y,1/4+z
1/2+x,y,1/2+z
3/4-x,1/4-y,1/2+z
1/2+x,1/4-y,3/4-z
3/4-x,y,3/4-z
1/2-x,-y,1/2-z
1/4+x,3/4+y,1/2-z
1/2-x,3/4+y,1/4+z
1/4+x,-y,1/4+z
1/2+x,1/2+y,z
3/4-x,3/4-y,z
1/2+x,3/4-y,1/4-z
3/4-x,1/2+y,1/4-z
1/2-x,1/2-y,-z
1/4+x,1/4+y,-z
1/2-x,1/4+y,3/4+z
1/4+x,1/2-y,3/4+z
loop_
_atom_site_type_symbol
_atom_site_label
_atom_site_fract_x
_atom_site_fract_y
_atom_site_fract_z
Si Si1 0.842626 0.718487 0.741534
Si Si2 0.949034 0.704180 0.581730
Si Si3 0.070352 0.880507 0.540980
O O1 0.808621 0.708873 0.649313
O O2 0.695051 0.747272 0.783044
O O3 0.890338 0.671230 0.785212
O O4 0.000000 0.750000 0.750000
O O5 0.899663 0.661902 0.526312
O O6 0.125000 0.694303 0.625000
O O7 0.125000 0.901138 0.625000
O O8 0.875000 0.875000 0.530150
#
# Coordination Sequence:
#
# PCOD8286518 Si02
#       3
#    32  32  32
#     4  10  23  45  74 109 145 192 249 305 371 453
#     4  10  24  46  79 102 150 194 246 303 383 433
#     4  12  29  47  74 112 153 197 255 309 372 448
#
# _framework density 24.086055999999999
#
# number of rings (size 3 to 8) (size 9 to 14) (size 15 to 20)
#    0.000    1.333    0.000    4.000   14.000    8.000 
#    0.000    0.000    0.000    0.000    0.000    0.000 
#    0.000    0.000    0.000    0.000    0.000    0.000 
#
# Total GULP energy -297479.212137 kJ/mol
# GULP energy per Si atom -12394.967172 kJ/mol
# Density = 2.403124 g / cm^3
# Si number density = 24.086056 Si / 1000 Ang^3
#
#
#
# Elastic Constant Matrix: (Units=GPa)
#
#
# Indices 1 2 3 4 5 6 
#
# 1 60.2725 18.9187 62.6741 0.0000 0.0000 0.0000
# 2 18.9187 153.8191 82.6630 0.0000 0.0000 0.0000
# 3 62.6741 82.6630 200.8087 0.0000 0.0000 0.0000
# 4 0.0000 0.0000 0.0000 34.0844 0.0000 0.0000
# 5 0.0000 0.0000 0.0000 0.0000 27.7626 0.0000
# 6 0.0000 0.0000 0.0000 0.0000 0.0000 21.3235
#
#
#
# Elastic Compliance Matrix: (Units=1/GPa)
#
#
# Indices 1 2 3 4 5 6 
#
# 1 0.024804 0.001425 -0.008328 0.000000 0.000000 0.000000
# 2 0.001425 0.008430 -0.003915 0.000000 0.000000 0.000000
# 3 -0.008328 -0.003915 0.009191 0.000000 0.000000 0.000000
# 4 0.000000 0.000000 0.000000 0.029339 0.000000 0.000000
# 5 0.000000 0.000000 0.000000 0.000000 0.036020 0.000000
# 6 0.000000 0.000000 0.000000 0.000000 0.000000 0.046897
#
#
# Mechanical properties :
#
#
# Convention : Reuss Voigt Hill
#
# Bulk Modulus (GPa) = 48.10408 82.60135 65.35271
# Shear Modulus (GPa) = 27.28587 33.34373 30.31480
#
# Velocity S-wave (km/s) = 3.36943 3.72473 3.55153
# Velocity P-wave (km/s) = 5.92896 7.27096 6.63398
#
# Compressibility (1/GPa) = 0.02078826
#
# Stress axis : x y z
#
# Youngs Moduli (GPa) = 40.31612 118.62777 108.80616
#
# Poissons Ratio (x) = -0.16902 0.90614
# Poissons Ratio (y) = -0.05744 0.42595
# Poissons Ratio (z) = 0.33576 0.46440
#
# Static dielectric constant tensor:
#      x y z
#    x 4.216460 0.000000 0.000000 
#    y 0.000000 1.824340 0.000000 
#    z 0.000000 0.000000 5.905440 
# 
# 
# High freq. dielectric constant tensor:
#      x y z
#    x 1.928430 0.000000 0.000000 
#    y 0.000000 1.968650 0.000000 
#    z 0.000000 0.000000 1.983500 
# 
# From -- ./inp_files/41106.got.cif
#   From: 2010.03.12/outbox.cif.g09.slc.cpg/sg70_21_cif.got.tgz:41106.got - 2010.04.16 13:46:32.
