data_PCOD8286527
_publ_section_title
;
Structure prediction by ZEFSAII (Michael W. Deem and Ramdas Pophale) SiO2 
 PCOD8286527
Probable space group: F D D D
;
_chemical_formula_sum "Si O2"
_cell_formula_units_Z 136
_cell_length_a 18.794398
_cell_length_b 19.264107
_cell_length_c 17.141934
_cell_angle_alpha 90.000000
_cell_angle_beta 90.000000
_cell_angle_gamma 90.000000
_cell_volume 6206.362239
_symmetry_space_group_name_H-M "F D D D"
_symmetry_group_IT_number 70
_space_group.IT_coordinate_system_code '2'
_symmetry_cell_setting 'orthorhombic'
loop_
_space_group_symop_operation_xyz
x,y,z
1/4-x,1/4-y,z
x,1/4-y,1/4-z
1/4-x,y,1/4-z
-x,-y,-z
3/4+x,3/4+y,-z
-x,3/4+y,3/4+z
3/4+x,-y,3/4+z
x,1/2+y,1/2+z
1/4-x,3/4-y,1/2+z
x,3/4-y,3/4-z
1/4-x,1/2+y,3/4-z
-x,1/2-y,1/2-z
3/4+x,1/4+y,1/2-z
-x,1/4+y,1/4+z
3/4+x,1/2-y,1/4+z
1/2+x,y,1/2+z
3/4-x,1/4-y,1/2+z
1/2+x,1/4-y,3/4-z
3/4-x,y,3/4-z
1/2-x,-y,1/2-z
1/4+x,3/4+y,1/2-z
1/2-x,3/4+y,1/4+z
1/4+x,-y,1/4+z
1/2+x,1/2+y,z
3/4-x,3/4-y,z
1/2+x,3/4-y,1/4-z
3/4-x,1/2+y,1/4-z
1/2-x,1/2-y,-z
1/4+x,1/4+y,-z
1/2-x,1/4+y,3/4+z
1/4+x,1/2-y,3/4+z
loop_
_atom_site_type_symbol
_atom_site_label
_atom_site_fract_x
_atom_site_fract_y
_atom_site_fract_z
Si Si1 0.625000 0.907027 0.125000
Si Si2 0.126320 0.726469 0.402879
Si Si3 0.313315 0.125000 0.125000
Si Si4 0.125000 0.625000 0.125000
Si Si5 0.239996 0.629928 0.789413
Si Si6 0.420573 0.980846 0.987603
O O1 0.695790 0.864068 0.101791
O O2 0.619240 0.952495 0.046755
O O3 0.137112 0.809858 0.401615
O O4 0.189129 0.686955 0.448798
O O5 0.051140 0.702234 0.440858
O O6 0.122497 0.703642 0.312590
O O7 0.263240 0.138920 0.199603
O O8 0.177770 0.669960 0.073941
O O9 0.500000 0.000000 0.000000
#
# Coordination Sequence:
#
# PCOD8286527 Si02
#       6
#    16  32  16   8  32  32
#     4  11  22  43  68 103 138 179 238 286 354 423
#     4  11  25  46  73 102 144 188 239 298 355 431
#     4  12  26  48  72 107 139 194 246 292 366 430
#     4  10  24  38  68 100 138 176 224 292 356 416
#     4  11  25  46  73 106 146 189 238 301 359 430
#     4  11  22  42  67 102 138 180 229 289 358 423
#
# _framework density 21.912997000000001
#
# number of rings (size 3 to 8) (size 9 to 14) (size 15 to 20)
#    0.000    0.941    4.706    2.118    0.000    4.706 
#    0.000    0.000    0.000    0.000    0.000    0.000 
#    0.000    0.000    0.000    0.000    0.000    0.000 
#
# Total GULP energy -421280.336073 kJ/mol
# GULP energy per Si atom -12390.598120 kJ/mol
# Density = 2.186312 g / cm^3
# Si number density = 21.912997 Si / 1000 Ang^3
#
#
#
# Elastic Constant Matrix: (Units=GPa)
#
#
# Indices 1 2 3 4 5 6 
#
# 1 128.9719 46.6200 49.1517 0.0000 0.0000 0.0000
# 2 46.6200 132.1425 38.0055 0.0000 0.0000 0.0000
# 3 49.1517 38.0055 144.2139 0.0000 0.0000 0.0000
# 4 0.0000 0.0000 0.0000 98.8258 0.0000 0.0000
# 5 0.0000 0.0000 0.0000 0.0000 30.4946 0.0000
# 6 0.0000 0.0000 0.0000 0.0000 0.0000 37.0077
#
#
#
# Elastic Compliance Matrix: (Units=1/GPa)
#
#
# Indices 1 2 3 4 5 6 
#
# 1 0.009715 -0.002678 -0.002605 0.000000 0.000000 0.000000
# 2 -0.002678 0.008926 -0.001440 0.000000 0.000000 0.000000
# 3 -0.002605 -0.001440 0.008201 0.000000 0.000000 0.000000
# 4 0.000000 0.000000 0.000000 0.010119 0.000000 0.000000
# 5 0.000000 0.000000 0.000000 0.000000 0.032793 0.000000
# 6 0.000000 0.000000 0.000000 0.000000 0.000000 0.027021
#
#
# Mechanical properties :
#
#
# Convention : Reuss Voigt Hill
#
# Bulk Modulus (GPa) = 74.64568 74.76474 74.70521
# Shear Modulus (GPa) = 43.59702 51.36902 47.48302
#
# Velocity S-wave (km/s) = 4.46528 4.84697 4.66004
# Velocity P-wave (km/s) = 7.79253 8.09427 7.94483
#
# Compressibility (1/GPa) = 0.01339662
#
# Stress axis : x y z
#
# Youngs Moduli (GPa) = 102.93878 112.02645 121.92923
#
# Poissons Ratio (x) = 0.30001 0.31765
# Poissons Ratio (y) = 0.27567 0.17554
# Poissons Ratio (z) = 0.26818 0.16129
#
# Static dielectric constant tensor:
#      x y z
#    x 3.842580 0.000000 0.000000 
#    y 0.000000 4.091640 0.000000 
#    z 0.000000 0.000000 4.493510 
# 
# 
# High freq. dielectric constant tensor:
#      x y z
#    x 1.865100 0.000000 0.000000 
#    y 0.000000 1.852450 0.000000 
#    z 0.000000 0.000000 1.876860 
# 
# From -- ./inp_files/34725.got.cif
#   From: 2010.03.12/outbox.cif.g09.slc.cpg/sg70_18_cif.got.tgz:34725.got - 2010.04.16 13:46:32.
