data_PCOD8286130
_publ_section_title
;
Structure prediction by ZEFSAII (Michael W. Deem and Ramdas Pophale) SiO2 
 PCOD8286130
Probable space group: F D D D
;
_chemical_formula_sum "Si O2"
_cell_formula_units_Z 112
_cell_length_a 27.320105
_cell_length_b 9.423943
_cell_length_c 21.351319
_cell_angle_alpha 90.000000
_cell_angle_beta 90.000000
_cell_angle_gamma 90.000000
_cell_volume 5497.177041
_symmetry_space_group_name_H-M "F D D D"
_symmetry_group_IT_number 70
_space_group.IT_coordinate_system_code '2'
_symmetry_cell_setting 'orthorhombic'
loop_
_space_group_symop_operation_xyz
x,y,z
1/4-x,1/4-y,z
x,1/4-y,1/4-z
1/4-x,y,1/4-z
-x,-y,-z
3/4+x,3/4+y,-z
-x,3/4+y,3/4+z
3/4+x,-y,3/4+z
x,1/2+y,1/2+z
1/4-x,3/4-y,1/2+z
x,3/4-y,3/4-z
1/4-x,1/2+y,3/4-z
-x,1/2-y,1/2-z
3/4+x,1/4+y,1/2-z
-x,1/4+y,1/4+z
3/4+x,1/2-y,1/4+z
1/2+x,y,1/2+z
3/4-x,1/4-y,1/2+z
1/2+x,1/4-y,3/4-z
3/4-x,y,3/4-z
1/2-x,-y,1/2-z
1/4+x,3/4+y,1/2-z
1/2-x,3/4+y,1/4+z
1/4+x,-y,1/4+z
1/2+x,1/2+y,z
3/4-x,3/4-y,z
1/2+x,3/4-y,1/4-z
3/4-x,1/2+y,1/4-z
1/2-x,1/2-y,-z
1/4+x,1/4+y,-z
1/2-x,1/4+y,3/4+z
1/4+x,1/2-y,3/4+z
loop_
_atom_site_type_symbol
_atom_site_label
_atom_site_fract_x
_atom_site_fract_y
_atom_site_fract_z
Si Si1 0.660021 0.875000 0.375000
Si Si2 0.179116 0.406230 0.789308
Si Si3 0.677113 0.461489 0.143894
Si Si4 0.779016 0.848131 0.141862
O O1 0.626352 0.833433 0.315676
O O2 0.694238 0.747189 0.396329
O O3 0.182101 0.445034 0.717715
O O4 0.201291 0.249216 0.801225
O O5 0.211452 0.521306 0.825772
O O6 0.679850 0.625000 0.125000
O O7 0.625000 0.394059 0.125000
O O8 0.720209 0.379527 0.106329
#
# Coordination Sequence:
#
# PCOD8286130 Si02
#       4
#    16  32  32  32
#     4  10  22  38  67  92 123 170 208 256 322 378
#     4  10  20  40  64  92 124 154 222 260 304 369
#     4  11  24  37  63  93 123 166 216 260 317 368
#     4  10  21  40  63  93 121 168 207 261 312 373
#
# _framework density 20.374092999999998
#
# number of rings (size 3 to 8) (size 9 to 14) (size 15 to 20)
#    0.000    2.000    2.857    4.286    8.000    0.000 
#    0.000    9.286    0.000    0.000    0.000    0.000 
#    0.000    0.000    0.000    0.000    0.000    0.000 
#
# Total GULP energy -347167.601924 kJ/mol
# GULP energy per Si atom -12398.842926 kJ/mol
# Density = 2.032772 g / cm^3
# Si number density = 20.374093 Si / 1000 Ang^3
#
#
#
# Elastic Constant Matrix: (Units=GPa)
#
#
# Indices 1 2 3 4 5 6 
#
# 1 173.6227 41.2618 24.1941 0.0000 0.0000 0.0000
# 2 41.2618 92.7825 32.9263 0.0000 0.0000 0.0000
# 3 24.1941 32.9263 123.6394 0.0000 0.0000 0.0000
# 4 0.0000 0.0000 0.0000 22.9276 0.0000 0.0000
# 5 0.0000 0.0000 0.0000 0.0000 9.3990 0.0000
# 6 0.0000 0.0000 0.0000 0.0000 0.0000 -17.0128
#
#
#
# Elastic Compliance Matrix: (Units=1/GPa)
#
#
# Indices 1 2 3 4 5 6 
#
# 1 0.006474 -0.002683 -0.000552 0.000000 0.000000 0.000000
# 2 -0.002683 0.013015 -0.002941 0.000000 0.000000 0.000000
# 3 -0.000552 -0.002941 0.008979 0.000000 0.000000 0.000000
# 4 0.000000 0.000000 0.000000 0.043616 0.000000 0.000000
# 5 0.000000 0.000000 0.000000 0.000000 0.106395 0.000000
# 6 0.000000 0.000000 0.000000 0.000000 0.000000 -0.058779
#
#
# Mechanical properties :
#
#
# Convention : Reuss Voigt Hill
#
# Bulk Modulus (GPa) = 62.05210 65.20102 63.62656
# Shear Modulus (GPa) = 36.38373 22.50690 29.44532
#
# Velocity S-wave (km/s) = 4.23044 3.32728 3.80575
# Velocity P-wave (km/s) = 7.37459 6.84343 7.11397
#
# Compressibility (1/GPa) = 0.01611549
#
# Stress axis : x y z
#
# Youngs Moduli (GPa) = 154.45809 76.83553 111.36712
#
# Poissons Ratio (x) = 0.20616 0.06151
# Poissons Ratio (y) = 0.41444 0.32752
# Poissons Ratio (z) = 0.08531 0.22597
#
# Static dielectric constant tensor:
#      x y z
#    x 4.404810 0.000000 0.000000 
#    y 0.000000 3.665650 0.000000 
#    z 0.000000 0.000000 3.432460 
# 
# 
# High freq. dielectric constant tensor:
#      x y z
#    x 1.821150 0.000000 0.000000 
#    y 0.000000 1.773820 0.000000 
#    z 0.000000 0.000000 1.777240 
# 
# From -- ./inp_files/10691.got.cif
#   From: 2010.03.12/outbox.cif.g09.slc.cpg/sg70_6_cif.got.tgz:10691.got - 2010.04.16 13:46:32.
