data_PCOD8286729
_publ_section_title
;
Structure prediction by ZEFSAII (Michael W. Deem and Ramdas Pophale) SiO2 
 PCOD8286729
Probable space group: F D D D
;
_chemical_formula_sum "Si O2"
_cell_formula_units_Z 208
_cell_length_a 19.636143
_cell_length_b 26.843563
_cell_length_c 19.985154
_cell_angle_alpha 90.000000
_cell_angle_beta 90.000000
_cell_angle_gamma 90.000000
_cell_volume 10534.255447
_symmetry_space_group_name_H-M "F D D D"
_symmetry_group_IT_number 70
_space_group.IT_coordinate_system_code '2'
_symmetry_cell_setting 'orthorhombic'
loop_
_space_group_symop_operation_xyz
x,y,z
1/4-x,1/4-y,z
x,1/4-y,1/4-z
1/4-x,y,1/4-z
-x,-y,-z
3/4+x,3/4+y,-z
-x,3/4+y,3/4+z
3/4+x,-y,3/4+z
x,1/2+y,1/2+z
1/4-x,3/4-y,1/2+z
x,3/4-y,3/4-z
1/4-x,1/2+y,3/4-z
-x,1/2-y,1/2-z
3/4+x,1/4+y,1/2-z
-x,1/4+y,1/4+z
3/4+x,1/2-y,1/4+z
1/2+x,y,1/2+z
3/4-x,1/4-y,1/2+z
1/2+x,1/4-y,3/4-z
3/4-x,y,3/4-z
1/2-x,-y,1/2-z
1/4+x,3/4+y,1/2-z
1/2-x,3/4+y,1/4+z
1/4+x,-y,1/4+z
1/2+x,1/2+y,z
3/4-x,3/4-y,z
1/2+x,3/4-y,1/4-z
3/4-x,1/2+y,1/4-z
1/2-x,1/2-y,-z
1/4+x,1/4+y,-z
1/2-x,1/4+y,3/4+z
1/4+x,1/2-y,3/4+z
loop_
_atom_site_type_symbol
_atom_site_label
_atom_site_fract_x
_atom_site_fract_y
_atom_site_fract_z
Si Si1 0.299079 0.362182 0.678470
Si Si2 0.296523 0.611295 0.552186
Si Si3 0.625000 0.489923 0.625000
Si Si4 0.137630 0.764585 0.271812
Si Si5 0.556973 0.656310 0.459154
Si Si6 0.940184 0.596294 0.192624
Si Si7 0.223530 0.499481 0.377247
O O1 0.375000 0.375000 0.701340
O O2 0.255438 0.374083 0.743610
O O3 0.282371 0.399993 0.617586
O O4 0.286360 0.305864 0.652709
O O5 0.266173 0.625000 0.625000
O O6 0.314387 0.553032 0.560367
O O7 0.365013 0.640575 0.532831
O O8 0.621299 0.461618 0.696596
O O9 0.697491 0.518647 0.630857
O O10 0.178074 0.712967 0.270882
O O11 0.064312 0.757984 0.306405
O O12 0.625000 0.625000 0.472723
O O13 0.495424 0.635702 0.503618
O O14 0.958642 0.625000 0.125000
O O15 0.940662 0.536796 0.182133
#
# Coordination Sequence:
#
# PCOD8286729 Si02
#       7
#    32  32  16  32  32  32  32
#     4  11  24  44  69  92 126 170 219 276 326 389
#     4  11  24  44  69  92 126 170 219 276 326 389
#     4  12  26  36  69  94 134 184 206 256 321 414
#     4  12  23  43  61  97 133 170 214 266 325 377
#     4  11  24  38  61  93 133 169 212 265 315 391
#     4  11  24  38  61  93 133 169 212 265 315 391
#     4  12  23  43  61  97 133 170 214 266 325 377
#
# _framework density 19.745107999999998
#
# number of rings (size 3 to 8) (size 9 to 14) (size 15 to 20)
#    0.000    0.615    9.231    0.462    4.308    1.231 
#    0.000    3.077    0.000    3.692    0.000    0.000 
#    0.000    0.000    0.000    0.000    0.000    0.000 
#
# Total GULP energy -644313.117369 kJ/mol
# GULP energy per Si atom -12390.636872 kJ/mol
# Density = 1.970017 g / cm^3
# Si number density = 19.745108 Si / 1000 Ang^3
#
#
#
# Elastic Constant Matrix: (Units=GPa)
#
#
# Indices 1 2 3 4 5 6 
#
# 1 142.1061 27.7321 88.4130 0.0000 0.0000 0.0000
# 2 27.7321 89.9307 32.1188 0.0000 0.0000 0.0000
# 3 88.4130 32.1188 174.0777 0.0000 0.0000 0.0000
# 4 0.0000 0.0000 0.0000 8.9031 0.0000 0.0000
# 5 0.0000 0.0000 0.0000 0.0000 49.5072 0.0000
# 6 0.0000 0.0000 0.0000 0.0000 0.0000 10.9449
#
#
#
# Elastic Compliance Matrix: (Units=1/GPa)
#
#
# Indices 1 2 3 4 5 6 
#
# 1 0.010455 -0.001421 -0.005048 0.000000 0.000000 0.000000
# 2 -0.001421 0.012097 -0.001510 0.000000 0.000000 0.000000
# 3 -0.005048 -0.001510 0.008587 0.000000 0.000000 0.000000
# 4 0.000000 0.000000 0.000000 0.112320 0.000000 0.000000
# 5 0.000000 0.000000 0.000000 0.000000 0.020199 0.000000
# 6 0.000000 0.000000 0.000000 0.000000 0.000000 0.091367
#
#
# Mechanical properties :
#
#
# Convention : Reuss Voigt Hill
#
# Bulk Modulus (GPa) = 65.87284 78.07137 71.97210
# Shear Modulus (GPa) = 18.11305 31.06108 24.58706
#
# Velocity S-wave (km/s) = 3.03205 3.97054 3.53260
# Velocity P-wave (km/s) = 6.75957 7.78753 7.29169
#
# Compressibility (1/GPa) = 0.01518076
#
# Stress axis : x y z
#
# Youngs Moduli (GPa) = 95.64944 82.66303 116.45609
#
# Poissons Ratio (x) = 0.11748 0.58784
# Poissons Ratio (y) = 0.13593 0.17588
# Poissons Ratio (z) = 0.48281 0.12484
#
# Static dielectric constant tensor:
#      x y z
#    x 3.767470 0.000000 0.000000 
#    y 0.000000 3.612070 0.000000 
#    z 0.000000 0.000000 3.868330 
# 
# 
# High freq. dielectric constant tensor:
#      x y z
#    x 1.771490 0.000000 0.000000 
#    y 0.000000 1.757770 0.000000 
#    z 0.000000 0.000000 1.777530 
# 
# From -- ./inp_files/38722.got.cif
#   From: 2010.03.12/outbox.cif.g09.slc.cpg/sg70_20_cif.got.tgz:38722.got - 2010.04.16 13:46:32.
