data_PCOD8286721
_publ_section_title
;
Structure prediction by ZEFSAII (Michael W. Deem and Ramdas Pophale) SiO2 
 PCOD8286721
Probable space group: F D D D
;
_chemical_formula_sum "Si O2"
_cell_formula_units_Z 104
_cell_length_a 26.279488
_cell_length_b 13.918027
_cell_length_c 12.127240
_cell_angle_alpha 90.000000
_cell_angle_beta 90.000000
_cell_angle_gamma 90.000000
_cell_volume 4435.642610
_symmetry_space_group_name_H-M "F D D D"
_symmetry_group_IT_number 70
_space_group.IT_coordinate_system_code '2'
_symmetry_cell_setting 'orthorhombic'
loop_
_space_group_symop_operation_xyz
x,y,z
1/4-x,1/4-y,z
x,1/4-y,1/4-z
1/4-x,y,1/4-z
-x,-y,-z
3/4+x,3/4+y,-z
-x,3/4+y,3/4+z
3/4+x,-y,3/4+z
x,1/2+y,1/2+z
1/4-x,3/4-y,1/2+z
x,3/4-y,3/4-z
1/4-x,1/2+y,3/4-z
-x,1/2-y,1/2-z
3/4+x,1/4+y,1/2-z
-x,1/4+y,1/4+z
3/4+x,1/2-y,1/4+z
1/2+x,y,1/2+z
3/4-x,1/4-y,1/2+z
1/2+x,1/4-y,3/4-z
3/4-x,y,3/4-z
1/2-x,-y,1/2-z
1/4+x,3/4+y,1/2-z
1/2-x,3/4+y,1/4+z
1/4+x,-y,1/4+z
1/2+x,1/2+y,z
3/4-x,3/4-y,z
1/2+x,3/4-y,1/4-z
3/4-x,1/2+y,1/4-z
1/2-x,1/2-y,-z
1/4+x,1/4+y,-z
1/2-x,1/4+y,3/4+z
1/4+x,1/2-y,3/4+z
loop_
_atom_site_type_symbol
_atom_site_label
_atom_site_fract_x
_atom_site_fract_y
_atom_site_fract_z
Si Si1 0.053549 0.766973 0.500516
Si Si2 0.375000 0.375000 0.875000
Si Si3 0.801822 0.202758 0.846817
Si Si4 0.357557 0.268728 0.538737
O O1 0.087620 0.684949 0.550466
O O2 0.048057 0.851891 0.588576
O O3 0.081847 0.792627 0.386297
O O4 0.998563 0.725650 0.469942
O O5 0.846993 0.201190 0.756586
O O6 0.815489 0.282237 0.940574
O O7 0.375000 0.375000 0.575259
#
# Coordination Sequence:
#
# PCOD8286721 Si02
#       4
#    32   8  32  32
#     4  12  26  48  71 109 146 194 243 302 359 435
#     4  12  28  48  72 106 146 192 240 304 372 424
#     4  11  25  44  76 108 144 195 244 291 370 423
#     4  11  23  47  73 107 152 190 245 299 351 429
#
# _framework density 23.446432000000001
#
# number of rings (size 3 to 8) (size 9 to 14) (size 15 to 20)
#    0.000    0.615    1.538    7.385    0.000    3.692 
#   11.077    0.000    0.000    0.000    0.000    0.000 
#    0.000    0.000    0.000    0.000    0.000    0.000 
#
# Total GULP energy -322241.604547 kJ/mol
# GULP energy per Si atom -12393.907867 kJ/mol
# Density = 2.339307 g / cm^3
# Si number density = 23.446432 Si / 1000 Ang^3
#
#
#
# Elastic Constant Matrix: (Units=GPa)
#
#
# Indices 1 2 3 4 5 6 
#
# 1 182.4035 56.3427 83.9734 0.0000 0.0000 0.0000
# 2 56.3427 106.7658 25.7722 0.0000 0.0000 0.0000
# 3 83.9734 25.7722 105.1853 0.0000 0.0000 0.0000
# 4 0.0000 0.0000 0.0000 -271.8887 0.0000 0.0000
# 5 0.0000 0.0000 0.0000 0.0000 5.9755 0.0000
# 6 0.0000 0.0000 0.0000 0.0000 0.0000 41.3473
#
#
#
# Elastic Compliance Matrix: (Units=1/GPa)
#
#
# Indices 1 2 3 4 5 6 
#
# 1 0.009744 -0.003470 -0.006929 0.000000 0.000000 0.000000
# 2 -0.003470 0.011190 0.000028 0.000000 0.000000 0.000000
# 3 -0.006929 0.000028 0.015032 0.000000 0.000000 0.000000
# 4 0.000000 0.000000 0.000000 -0.003678 0.000000 0.000000
# 5 0.000000 0.000000 0.000000 0.000000 0.167349 0.000000
# 6 0.000000 0.000000 0.000000 0.000000 0.000000 0.024185
#
#
# Mechanical properties :
#
#
# Convention : Reuss Voigt Hill
#
# Bulk Modulus (GPa) = 65.67979 80.72569 73.20274
# Shear Modulus (GPa) = 20.02895 -29.69542 -4.83323
#
# Velocity S-wave (km/s) = 2.92591 -3.56268 -1.43731
# Velocity P-wave (km/s) = 6.28396 4.19297 5.34177
#
# Compressibility (1/GPa) = 0.01522538
#
# Stress axis : x y z
#
# Youngs Moduli (GPa) = 102.62843 89.36165 66.52600
#
# Poissons Ratio (x) = 0.31004 0.46095
# Poissons Ratio (y) = 0.35607 -0.00186
# Poissons Ratio (z) = 0.71109 -0.00250
#
# Static dielectric constant tensor:
#      x y z
#    x 4.440870 0.000000 0.000000 
#    y 0.000000 3.966270 0.000000 
#    z 0.000000 0.000000 4.400140 
# 
# 
# High freq. dielectric constant tensor:
#      x y z
#    x 1.941530 0.000000 0.000000 
#    y 0.000000 1.925450 0.000000 
#    z 0.000000 0.000000 1.944140 
# 
# From -- ./inp_files/20186.got.cif
#   From: 2010.03.12/outbox.cif.g09.slc.cpg/sg70_11_cif.got.tgz:20186.got - 2010.04.16 13:46:32.
