data_PCOD8286117
_publ_section_title
;
Structure prediction by ZEFSAII (Michael W. Deem and Ramdas Pophale) SiO2 
 PCOD8286117
Probable space group: F D D D
;
_chemical_formula_sum "Si O2"
_cell_formula_units_Z 168
_cell_length_a 31.494108
_cell_length_b 15.469593
_cell_length_c 16.398257
_cell_angle_alpha 90.000000
_cell_angle_beta 90.000000
_cell_angle_gamma 90.000000
_cell_volume 7989.247744
_symmetry_space_group_name_H-M "F D D D"
_symmetry_group_IT_number 70
_space_group.IT_coordinate_system_code '2'
_symmetry_cell_setting 'orthorhombic'
loop_
_space_group_symop_operation_xyz
x,y,z
1/4-x,1/4-y,z
x,1/4-y,1/4-z
1/4-x,y,1/4-z
-x,-y,-z
3/4+x,3/4+y,-z
-x,3/4+y,3/4+z
3/4+x,-y,3/4+z
x,1/2+y,1/2+z
1/4-x,3/4-y,1/2+z
x,3/4-y,3/4-z
1/4-x,1/2+y,3/4-z
-x,1/2-y,1/2-z
3/4+x,1/4+y,1/2-z
-x,1/4+y,1/4+z
3/4+x,1/2-y,1/4+z
1/2+x,y,1/2+z
3/4-x,1/4-y,1/2+z
1/2+x,1/4-y,3/4-z
3/4-x,y,3/4-z
1/2-x,-y,1/2-z
1/4+x,3/4+y,1/2-z
1/2-x,3/4+y,1/4+z
1/4+x,-y,1/4+z
1/2+x,1/2+y,z
3/4-x,3/4-y,z
1/2+x,3/4-y,1/4-z
3/4-x,1/2+y,1/4-z
1/2-x,1/2-y,-z
1/4+x,1/4+y,-z
1/2-x,1/4+y,3/4+z
1/4+x,1/2-y,3/4+z
loop_
_atom_site_type_symbol
_atom_site_label
_atom_site_fract_x
_atom_site_fract_y
_atom_site_fract_z
Si Si1 0.949420 0.458713 0.272152
Si Si2 0.125000 0.125000 0.625000
Si Si3 0.706157 0.012441 0.705949
Si Si4 0.510304 0.771284 0.868863
Si Si5 0.321569 0.243463 0.475957
Si Si6 0.874060 0.677168 0.781778
O O1 0.938715 0.358197 0.277135
O O2 0.963149 0.499477 0.359040
O O3 0.986788 0.479855 0.208456
O O4 0.907993 0.507842 0.236518
O O5 0.095119 0.175133 0.687956
O O6 0.750000 0.000000 0.750000
O O7 0.672807 0.943572 0.746182
O O8 0.505362 0.875000 0.875000
O O9 0.552165 0.744386 0.816401
O O10 0.468983 0.723824 0.831440
O O11 0.357636 0.169837 0.478720
O O12 0.875000 0.707140 0.875000
#
# Coordination Sequence:
#
# PCOD8286117 Si02
#       6
#    32   8  32  32  32  32
#     4  10  22  41  66  93 130 170 218 274 327 411
#     4  12  24  44  60 100 134 170 240 284 340 400
#     4  10  23  41  66  99 126 171 219 276 341 393
#     4  11  23  42  67  97 134 177 229 269 338 410
#     4  11  24  41  65  97 131 184 220 277 339 403
#     4  10  20  39  67  88 127 176 216 266 336 397
#
# _framework density 21.028262999999999
#
# number of rings (size 3 to 8) (size 9 to 14) (size 15 to 20)
#    0.000    1.524    3.810    0.571    5.333    2.286 
#    3.429    3.810    0.000    0.000    0.000    0.000 
#    0.000    0.000    0.000    0.000    0.000    0.000 
#
# Total GULP energy -520532.813167 kJ/mol
# GULP energy per Si atom -12393.638409 kJ/mol
# Density = 2.098040 g / cm^3
# Si number density = 21.028263 Si / 1000 Ang^3
#
#
#
# Elastic Constant Matrix: (Units=GPa)
#
#
# Indices 1 2 3 4 5 6 
#
# 1 148.0553 54.7044 50.9709 0.0000 0.0000 0.0000
# 2 54.7044 107.0585 34.5989 0.0000 0.0000 0.0000
# 3 50.9709 34.5989 97.5511 0.0000 0.0000 0.0000
# 4 0.0000 0.0000 0.0000 27.2904 0.0000 0.0000
# 5 0.0000 0.0000 0.0000 0.0000 27.2604 0.0000
# 6 0.0000 0.0000 0.0000 0.0000 0.0000 27.9848
#
#
#
# Elastic Compliance Matrix: (Units=1/GPa)
#
#
# Indices 1 2 3 4 5 6 
#
# 1 0.009322 -0.003602 -0.003593 0.000000 0.000000 0.000000
# 2 -0.003602 0.011942 -0.002353 0.000000 0.000000 0.000000
# 3 -0.003593 -0.002353 0.012963 0.000000 0.000000 0.000000
# 4 0.000000 0.000000 0.000000 0.036643 0.000000 0.000000
# 5 0.000000 0.000000 0.000000 0.000000 0.036683 0.000000
# 6 0.000000 0.000000 0.000000 0.000000 0.000000 0.035734
#
#
# Mechanical properties :
#
#
# Convention : Reuss Voigt Hill
#
# Bulk Modulus (GPa) = 66.09514 70.35704 68.22609
# Shear Modulus (GPa) = 29.86357 30.66650 30.26503
#
# Velocity S-wave (km/s) = 3.77259 3.82297 3.79787
# Velocity P-wave (km/s) = 7.10468 7.28133 7.19355
#
# Compressibility (1/GPa) = 0.01512971
#
# Stress axis : x y z
#
# Youngs Moduli (GPa) = 107.27008 83.73909 77.14133
#
# Poissons Ratio (x) = 0.30164 0.27719
# Poissons Ratio (y) = 0.38641 0.18154
# Poissons Ratio (z) = 0.38546 0.19706
#
# Static dielectric constant tensor:
#      x y z
#    x 4.046690 0.000000 0.000000 
#    y 0.000000 3.866510 0.000000 
#    z 0.000000 0.000000 3.962990 
# 
# 
# High freq. dielectric constant tensor:
#      x y z
#    x 1.830070 0.000000 0.000000 
#    y 0.000000 1.821320 0.000000 
#    z 0.000000 0.000000 1.810550 
# 
# From -- ./inp_files/47628.got.cif
#   From: 2010.03.12/outbox.cif.g09.slc.cpg/sg70_24_cif.got.tgz:47628.got - 2010.04.16 13:46:32.
