data_PCOD8286231
_publ_section_title
;
Structure prediction by ZEFSAII (Michael W. Deem and Ramdas Pophale) SiO2 
 PCOD8286231
Probable space group: F D D D
;
_chemical_formula_sum "Si O2"
_cell_formula_units_Z 80
_cell_length_a 16.758884
_cell_length_b 23.503276
_cell_length_c 8.642592
_cell_angle_alpha 90.000000
_cell_angle_beta 90.000000
_cell_angle_gamma 90.000000
_cell_volume 3404.219121
_symmetry_space_group_name_H-M "F D D D"
_symmetry_group_IT_number 70
_space_group.IT_coordinate_system_code '2'
_symmetry_cell_setting 'orthorhombic'
loop_
_space_group_symop_operation_xyz
x,y,z
1/4-x,1/4-y,z
x,1/4-y,1/4-z
1/4-x,y,1/4-z
-x,-y,-z
3/4+x,3/4+y,-z
-x,3/4+y,3/4+z
3/4+x,-y,3/4+z
x,1/2+y,1/2+z
1/4-x,3/4-y,1/2+z
x,3/4-y,3/4-z
1/4-x,1/2+y,3/4-z
-x,1/2-y,1/2-z
3/4+x,1/4+y,1/2-z
-x,1/4+y,1/4+z
3/4+x,1/2-y,1/4+z
1/2+x,y,1/2+z
3/4-x,1/4-y,1/2+z
1/2+x,1/4-y,3/4-z
3/4-x,y,3/4-z
1/2-x,-y,1/2-z
1/4+x,3/4+y,1/2-z
1/2-x,3/4+y,1/4+z
1/4+x,-y,1/4+z
1/2+x,1/2+y,z
3/4-x,3/4-y,z
1/2+x,3/4-y,1/4-z
3/4-x,1/2+y,1/4-z
1/2-x,1/2-y,-z
1/4+x,1/4+y,-z
1/2-x,1/4+y,3/4+z
1/4+x,1/2-y,3/4+z
loop_
_atom_site_type_symbol
_atom_site_label
_atom_site_fract_x
_atom_site_fract_y
_atom_site_fract_z
Si Si1 0.555334 0.664223 0.824283
Si Si2 0.347412 0.712115 0.051218
Si Si3 0.778780 0.125000 0.625000
O O1 0.625000 0.625000 0.750519
O O2 0.485727 0.676225 0.697705
O O3 0.587705 0.726044 0.877937
O O4 0.524802 0.630314 0.973825
O O5 0.414095 0.679598 0.150131
O O6 0.375000 0.719416 0.875000
#
# Coordination Sequence:
#
# PCOD8286231 Si02
#       3
#    32  32  16
#     4  10  21  38  63  89 117 158 203 243 295 354
#     4   9  21  39  59  87 122 158 196 241 299 361
#     4  10  21  40  61  90 122 152 198 254 299 342
#
# _framework density 23.500252
#
# number of rings (size 3 to 8) (size 9 to 14) (size 15 to 20)
#    0.000    2.400    0.000    0.600    0.000   12.000 
#    0.000    8.000    0.000    0.000    0.000    0.000 
#    0.000    0.000    0.000    0.000    0.000    0.000 
#
# Total GULP energy -247978.521802 kJ/mol
# GULP energy per Si atom -12398.926090 kJ/mol
# Density = 2.344676 g / cm^3
# Si number density = 23.500252 Si / 1000 Ang^3
#
#
#
# Elastic Constant Matrix: (Units=GPa)
#
#
# Indices 1 2 3 4 5 6 
#
# 1 146.9173 78.5125 32.1912 0.0000 -0.0001 0.0000
# 2 78.5125 153.6032 55.4353 0.0000 0.0000 0.0000
# 3 32.1912 55.4353 57.0171 0.0001 -0.0003 0.0000
# 4 0.0000 0.0000 0.0001 31.5903 0.0000 0.0000
# 5 -0.0001 0.0000 -0.0003 0.0000 2.6768 0.0000
# 6 0.0000 0.0000 0.0000 0.0000 0.0000 48.6740
#
#
#
# Elastic Compliance Matrix: (Units=1/GPa)
#
#
# Indices 1 2 3 4 5 6 
#
# 1 0.009400 -0.004451 -0.000979 0.000000 0.000000 0.000000
# 2 -0.004451 0.012137 -0.009287 0.000000 -0.000001 0.000000
# 3 -0.000979 -0.009287 0.027121 0.000000 0.000003 0.000000
# 4 0.000000 0.000000 0.000000 0.031655 0.000000 0.000000
# 5 0.000000 -0.000001 0.000003 0.000000 0.373579 0.000000
# 6 0.000000 0.000000 0.000000 0.000000 0.000000 0.020545
#
#
# Mechanical properties :
#
#
# Convention : Reuss Voigt Hill
#
# Bulk Modulus (GPa) = 52.02255 76.64619 64.33437
# Shear Modulus (GPa) = 9.79851 29.34814 19.57333
#
# Velocity S-wave (km/s) = 2.04416 3.53773 2.88913
# Velocity P-wave (km/s) = 5.26845 7.02661 6.21006
#
# Compressibility (1/GPa) = 0.01922243
#
# Stress axis : x y z
#
# Youngs Moduli (GPa) = 106.38483 82.39080 36.87136
#
# Poissons Ratio (x) = 0.36673 0.03611
# Poissons Ratio (y) = 0.47354 0.34244
# Poissons Ratio (z) = 0.10419 0.76520
#
# Static dielectric constant tensor:
#      x y z
#    x 4.723950 0.000000 0.000000 
#    y 0.000000 4.354040 0.000000 
#    z 0.000000 0.000000 3.525190 
# 
# 
# High freq. dielectric constant tensor:
#      x y z
#    x 1.953050 0.000000 0.000000 
#    y 0.000000 1.941740 0.000000 
#    z 0.000000 0.000000 1.888270 
# 
# From -- ./inp_files/6859.got.cif
#   From: 2010.03.12/outbox.cif.g09.slc.cpg/sg70_4_cif.got.tgz:6859.got - 2010.04.16 13:46:32.
