data_PCOD8286633
_publ_section_title
;
Structure prediction by ZEFSAII (Michael W. Deem and Ramdas Pophale) SiO2 
 PCOD8286633
Probable space group: F D D D
;
_chemical_formula_sum "Si O2"
_cell_formula_units_Z 176
_cell_length_a 24.334428
_cell_length_b 28.218475
_cell_length_c 11.696656
_cell_angle_alpha 90.000000
_cell_angle_beta 90.000000
_cell_angle_gamma 90.000000
_cell_volume 8031.864984
_symmetry_space_group_name_H-M "F D D D"
_symmetry_group_IT_number 70
_space_group.IT_coordinate_system_code '2'
_symmetry_cell_setting 'orthorhombic'
loop_
_space_group_symop_operation_xyz
x,y,z
1/4-x,1/4-y,z
x,1/4-y,1/4-z
1/4-x,y,1/4-z
-x,-y,-z
3/4+x,3/4+y,-z
-x,3/4+y,3/4+z
3/4+x,-y,3/4+z
x,1/2+y,1/2+z
1/4-x,3/4-y,1/2+z
x,3/4-y,3/4-z
1/4-x,1/2+y,3/4-z
-x,1/2-y,1/2-z
3/4+x,1/4+y,1/2-z
-x,1/4+y,1/4+z
3/4+x,1/2-y,1/4+z
1/2+x,y,1/2+z
3/4-x,1/4-y,1/2+z
1/2+x,1/4-y,3/4-z
3/4-x,y,3/4-z
1/2-x,-y,1/2-z
1/4+x,3/4+y,1/2-z
1/2-x,3/4+y,1/4+z
1/4+x,-y,1/4+z
1/2+x,1/2+y,z
3/4-x,3/4-y,z
1/2+x,3/4-y,1/4-z
3/4-x,1/2+y,1/4-z
1/2-x,1/2-y,-z
1/4+x,1/4+y,-z
1/2-x,1/4+y,3/4+z
1/4+x,1/2-y,3/4+z
loop_
_atom_site_type_symbol
_atom_site_label
_atom_site_fract_x
_atom_site_fract_y
_atom_site_fract_z
Si Si1 0.679340 0.073091 0.178697
Si Si2 0.253069 0.521273 0.024390
Si Si3 0.973857 0.299560 0.214113
Si Si4 0.031915 0.375000 0.375000
Si Si5 0.842809 0.549881 0.988178
Si Si6 0.144452 0.526106 0.395323
O O1 0.677205 0.125000 0.125000
O O2 0.625000 0.045945 0.125000
O O3 0.737526 0.050689 0.139181
O O4 0.672361 0.067805 0.316211
O O5 0.213176 0.477280 0.030189
O O6 0.312360 0.496490 0.016182
O O7 0.243616 0.556864 0.917155
O O8 0.907286 0.296996 0.214649
O O9 0.000000 0.250000 0.250000
O O10 0.992813 0.341115 0.298309
O O11 0.074542 0.348698 0.455633
O O12 0.875000 0.563981 0.875000
O O13 0.881508 0.519289 0.069172
#
# Coordination Sequence:
#
# PCOD8286633 Si02
#       6
#    32  32  32  16  32  32
#     4  11  21  40  68 106 145 176 226 293 350 419
#     4  11  22  43  72  97 140 182 228 286 358 419
#     4  11  24  48  67  96 141 183 234 296 352 418
#     4  12  26  48  71  98 142 186 239 300 352 426
#     4  11  23  45  68  98 135 176 227 289 349 419
#     4  11  22  44  74 100 138 188 228 284 364 420
#
# _framework density 21.91272
#
# number of rings (size 3 to 8) (size 9 to 14) (size 15 to 20)
#    0.000    0.909    9.091    0.545    0.000    3.636 
#    1.636    0.909    0.000    0.000    0.000    0.000 
#    0.000    0.000    0.000    0.000    0.000    0.000 
#
# Total GULP energy -545207.001904 kJ/mol
# GULP energy per Si atom -12391.068225 kJ/mol
# Density = 2.186285 g / cm^3
# Si number density = 21.912720 Si / 1000 Ang^3
#
#
#
# Elastic Constant Matrix: (Units=GPa)
#
#
# Indices 1 2 3 4 5 6 
#
# 1 115.0810 46.3643 66.6455 -0.0001 0.0000 0.0001
# 2 46.3643 113.9969 56.8709 -0.0001 0.0000 0.0001
# 3 66.6455 56.8709 104.7037 -0.0004 0.0003 0.0004
# 4 -0.0001 -0.0001 -0.0004 29.2197 0.0001 0.0002
# 5 0.0000 0.0000 0.0003 0.0001 24.5962 -0.0001
# 6 0.0001 0.0001 0.0004 0.0002 -0.0001 41.3027
#
#
#
# Elastic Compliance Matrix: (Units=1/GPa)
#
#
# Indices 1 2 3 4 5 6 
#
# 1 0.014002 -0.001713 -0.007982 0.000000 0.000000 0.000000
# 2 -0.001713 0.012242 -0.005559 0.000000 0.000000 0.000000
# 3 -0.007982 -0.005559 0.017651 0.000000 0.000000 0.000000
# 4 0.000000 0.000000 0.000000 0.034224 0.000000 0.000000
# 5 0.000000 0.000000 0.000000 0.000000 0.040657 0.000000
# 6 0.000000 0.000000 0.000000 0.000000 0.000000 0.024212
#
#
# Mechanical properties :
#
#
# Convention : Reuss Voigt Hill
#
# Bulk Modulus (GPa) = 74.69964 74.83810 74.76887
# Shear Modulus (GPa) = 28.09643 29.95045 29.02344
#
# Velocity S-wave (km/s) = 3.58466 3.70105 3.64332
# Velocity P-wave (km/s) = 7.16217 7.24504 7.20373
#
# Compressibility (1/GPa) = 0.01338694
#
# Stress axis : x y z
#
# Youngs Moduli (GPa) = 71.41676 81.68487 56.65305
#
# Poissons Ratio (x) = 0.13990 0.45223
# Poissons Ratio (y) = 0.12231 0.31495
# Poissons Ratio (z) = 0.57008 0.45411
#
# Static dielectric constant tensor:
#      x y z
#    x 3.899710 0.000000 0.000010 
#    y 0.000000 4.138620 0.000000 
#    z 0.000010 0.000000 5.575750 
# 
# 
# High freq. dielectric constant tensor:
#      x y z
#    x 1.864170 0.000000 0.000000 
#    y 0.000000 1.851860 0.000000 
#    z 0.000000 0.000000 1.859970 
# 
# From -- ./inp_files/20973.got.cif
#   From: 2010.03.12/outbox.cif.g09.slc.cpg/sg70_11_cif.got.tgz:20973.got - 2010.04.16 13:46:32.
