data_PCOD8286605
_publ_section_title
;
Structure prediction by ZEFSAII (Michael W. Deem and Ramdas Pophale) SiO2 
 PCOD8286605
Probable space group: F D D D
;
_chemical_formula_sum "Si O2"
_cell_formula_units_Z 144
_cell_length_a 14.660718
_cell_length_b 22.939265
_cell_length_c 20.373227
_cell_angle_alpha 90.000000
_cell_angle_beta 90.000000
_cell_angle_gamma 90.000000
_cell_volume 6851.640421
_symmetry_space_group_name_H-M "F D D D"
_symmetry_group_IT_number 70
_space_group.IT_coordinate_system_code '2'
_symmetry_cell_setting 'orthorhombic'
loop_
_space_group_symop_operation_xyz
x,y,z
1/4-x,1/4-y,z
x,1/4-y,1/4-z
1/4-x,y,1/4-z
-x,-y,-z
3/4+x,3/4+y,-z
-x,3/4+y,3/4+z
3/4+x,-y,3/4+z
x,1/2+y,1/2+z
1/4-x,3/4-y,1/2+z
x,3/4-y,3/4-z
1/4-x,1/2+y,3/4-z
-x,1/2-y,1/2-z
3/4+x,1/4+y,1/2-z
-x,1/4+y,1/4+z
3/4+x,1/2-y,1/4+z
1/2+x,y,1/2+z
3/4-x,1/4-y,1/2+z
1/2+x,1/4-y,3/4-z
3/4-x,y,3/4-z
1/2-x,-y,1/2-z
1/4+x,3/4+y,1/2-z
1/2-x,3/4+y,1/4+z
1/4+x,-y,1/4+z
1/2+x,1/2+y,z
3/4-x,3/4-y,z
1/2+x,3/4-y,1/4-z
3/4-x,1/2+y,1/4-z
1/2-x,1/2-y,-z
1/4+x,1/4+y,-z
1/2-x,1/4+y,3/4+z
1/4+x,1/2-y,3/4+z
loop_
_atom_site_type_symbol
_atom_site_label
_atom_site_fract_x
_atom_site_fract_y
_atom_site_fract_z
Si Si1 0.695965 0.244116 0.683486
Si Si2 0.949124 0.310244 0.241095
Si Si3 0.331947 0.099236 0.058259
Si Si4 0.944006 0.628790 0.314427
Si Si5 0.625000 0.625000 0.377286
O O1 0.625000 0.238755 0.625000
O O2 0.654955 0.201583 0.739342
O O3 0.793878 0.214657 0.670593
O O4 0.704823 0.310801 0.704884
O O5 0.938139 0.330269 0.165301
O O6 0.000000 0.250000 0.250000
O O7 0.000516 0.358506 0.283786
O O8 0.376368 0.125000 0.125000
O O9 0.406250 0.090229 0.000997
O O10 0.875000 0.638913 0.375000
O O11 0.045394 0.655136 0.328906
#
# Coordination Sequence:
#
# PCOD8286605 Si02
#       5
#    32  32  32  32  16
#     4  11  20  34  60  94 124 158 202 269 336 371
#     4  12  20  36  63  95 124 157 209 274 334 373
#     4  12  23  36  60  94 130 158 205 270 321 380
#     4  11  23  42  61  89 127 170 210 255 321 395
#     4  12  24  40  66  90 132 172 210 260 322 398
#
# _framework density 21.016864999999999
#
# number of rings (size 3 to 8) (size 9 to 14) (size 15 to 20)
#    0.000    0.444    8.889    1.333    0.000    0.000 
#    0.000    1.667    0.000    2.667    0.000    0.000 
#    0.000    0.000    0.000    0.000    0.000    0.000 
#
# Total GULP energy -446044.620246 kJ/mol
# GULP energy per Si atom -12390.128340 kJ/mol
# Density = 2.096903 g / cm^3
# Si number density = 21.016865 Si / 1000 Ang^3
#
#
#
# Elastic Constant Matrix: (Units=GPa)
#
#
# Indices 1 2 3 4 5 6 
#
# 1 111.2643 20.4277 46.4186 0.0000 0.0000 0.0000
# 2 20.4277 58.4894 12.8933 0.0000 0.0000 0.0000
# 3 46.4186 12.8933 110.9909 0.0000 0.0000 0.0000
# 4 0.0000 0.0000 0.0000 16.2637 0.0000 0.0000
# 5 0.0000 0.0000 0.0000 0.0000 49.5909 0.0000
# 6 0.0000 0.0000 0.0000 0.0000 0.0000 25.5006
#
#
#
# Elastic Compliance Matrix: (Units=1/GPa)
#
#
# Indices 1 2 3 4 5 6 
#
# 1 0.011379 -0.003002 -0.004410 0.000000 0.000000 0.000000
# 2 -0.003002 0.018338 -0.000875 0.000000 0.000000 0.000000
# 3 -0.004410 -0.000875 0.010956 0.000000 0.000000 0.000000
# 4 0.000000 0.000000 0.000000 0.061487 0.000000 0.000000
# 5 0.000000 0.000000 0.000000 0.000000 0.020165 0.000000
# 6 0.000000 0.000000 0.000000 0.000000 0.000000 0.039215
#
#
# Mechanical properties :
#
#
# Convention : Reuss Voigt Hill
#
# Bulk Modulus (GPa) = 41.49513 48.91373 45.20443
# Shear Modulus (GPa) = 26.86065 31.67135 29.26600
#
# Velocity S-wave (km/s) = 3.57886 3.88616 3.73567
# Velocity P-wave (km/s) = 6.07160 6.59245 6.33738
#
# Compressibility (1/GPa) = 0.02409921
#
# Stress axis : x y z
#
# Youngs Moduli (GPa) = 87.88444 54.53040 91.27637
#
# Poissons Ratio (x) = 0.16369 0.40253
# Poissons Ratio (y) = 0.26382 0.07985
# Poissons Ratio (z) = 0.38757 0.04770
#
# Static dielectric constant tensor:
#      x y z
#    x 2.052200 0.000000 0.000000 
#    y 0.000000 3.693750 0.000000 
#    z 0.000000 0.000000 3.644460 
# 
# 
# High freq. dielectric constant tensor:
#      x y z
#    x 1.808200 0.000000 0.000000 
#    y 0.000000 1.807450 0.000000 
#    z 0.000000 0.000000 1.821480 
# 
# From -- ./inp_files/43592.got.cif
#   From: 2010.03.12/outbox.cif.g09.slc.cpg/sg70_22_cif.got.tgz:43592.got - 2010.04.16 13:46:32.
