data_PCOD8286827
_publ_section_title
;
Structure prediction by ZEFSAII (Michael W. Deem and Ramdas Pophale) SiO2 
 PCOD8286827
Probable space group: F D D D
;
_chemical_formula_sum "Si O2"
_cell_formula_units_Z 176
_cell_length_a 10.739882
_cell_length_b 32.638390
_cell_length_c 21.853427
_cell_angle_alpha 90.000000
_cell_angle_beta 90.000000
_cell_angle_gamma 90.000000
_cell_volume 7660.335466
_symmetry_space_group_name_H-M "F D D D"
_symmetry_group_IT_number 70
_space_group.IT_coordinate_system_code '2'
_symmetry_cell_setting 'orthorhombic'
loop_
_space_group_symop_operation_xyz
x,y,z
1/4-x,1/4-y,z
x,1/4-y,1/4-z
1/4-x,y,1/4-z
-x,-y,-z
3/4+x,3/4+y,-z
-x,3/4+y,3/4+z
3/4+x,-y,3/4+z
x,1/2+y,1/2+z
1/4-x,3/4-y,1/2+z
x,3/4-y,3/4-z
1/4-x,1/2+y,3/4-z
-x,1/2-y,1/2-z
3/4+x,1/4+y,1/2-z
-x,1/4+y,1/4+z
3/4+x,1/2-y,1/4+z
1/2+x,y,1/2+z
3/4-x,1/4-y,1/2+z
1/2+x,1/4-y,3/4-z
3/4-x,y,3/4-z
1/2-x,-y,1/2-z
1/4+x,3/4+y,1/2-z
1/2-x,3/4+y,1/4+z
1/4+x,-y,1/4+z
1/2+x,1/2+y,z
3/4-x,3/4-y,z
1/2+x,3/4-y,1/4-z
3/4-x,1/2+y,1/4-z
1/2-x,1/2-y,-z
1/4+x,1/4+y,-z
1/2-x,1/4+y,3/4+z
1/4+x,1/2-y,3/4+z
loop_
_atom_site_type_symbol
_atom_site_label
_atom_site_fract_x
_atom_site_fract_y
_atom_site_fract_z
Si Si1 0.875000 0.375000 0.538767
Si Si2 0.375000 0.266999 0.875000
Si Si3 0.793963 0.179097 0.542858
Si Si4 0.313278 0.190282 0.312166
Si Si5 0.302231 0.412653 0.254257
Si Si6 0.000827 0.518699 0.266855
Si Si7 0.464750 0.125000 0.125000
O O1 0.769259 0.355583 0.497017
O O2 0.802232 0.409642 0.578293
O O3 0.312982 0.294496 0.926486
O O4 0.268048 0.241201 0.839201
O O5 0.876337 0.207639 0.500193
O O6 0.880945 0.158751 0.592897
O O7 0.375000 0.205741 0.375000
O O8 0.414018 0.165958 0.271807
O O9 0.261779 0.228389 0.274382
O O10 0.375000 0.375000 0.221150
O O11 0.374871 0.454920 0.243135
O O12 0.296512 0.401301 0.326526
#
# Coordination Sequence:
#
# PCOD8286827 Si02
#       7
#    16  16  32  32  32  32  16
#     4  12  24  53  70 110 142 193 266 298 380 450
#     4  12  26  47  76 108 150 198 248 322 368 452
#     4  12  25  47  77 108 143 191 258 312 374 442
#     4  12  29  47  76 110 152 196 247 317 381 466
#     4  12  26  49  71 112 144 199 249 306 385 449
#     4  12  28  47  75 111 152 193 253 307 394 445
#     4  12  23  45  78 106 142 195 249 314 360 458
#
# _framework density 22.975496
#
# number of rings (size 3 to 8) (size 9 to 14) (size 15 to 20)
#    0.000    0.000    5.455    3.545    6.364    0.000 
#    3.273    0.000    0.000    0.000    0.000    0.000 
#    0.000    0.000    0.000    0.000    0.000    0.000 
#
# Total GULP energy -545714.013071 kJ/mol
# GULP energy per Si atom -12402.591206 kJ/mol
# Density = 2.292320 g / cm^3
# Si number density = 22.975496 Si / 1000 Ang^3
#
#
#
# Elastic Constant Matrix: (Units=GPa)
#
#
# Indices 1 2 3 4 5 6 
#
# 1 108.7407 48.6467 20.4267 0.0000 0.0000 0.0000
# 2 48.6467 120.6428 27.2496 0.0000 0.0000 0.0000
# 3 20.4267 27.2496 96.3296 0.0000 0.0000 0.0000
# 4 0.0000 0.0000 0.0000 28.0362 0.0000 0.0000
# 5 0.0000 0.0000 0.0000 0.0000 -108.4034 0.0000
# 6 0.0000 0.0000 0.0000 0.0000 0.0000 61.8248
#
#
#
# Elastic Compliance Matrix: (Units=1/GPa)
#
#
# Indices 1 2 3 4 5 6 
#
# 1 0.011346 -0.004307 -0.001188 0.000000 0.000000 0.000000
# 2 -0.004307 0.010489 -0.002054 0.000000 0.000000 0.000000
# 3 -0.001188 -0.002054 0.011214 0.000000 0.000000 0.000000
# 4 0.000000 0.000000 0.000000 0.035668 0.000000 0.000000
# 5 0.000000 0.000000 0.000000 0.000000 -0.009225 0.000000
# 6 0.000000 0.000000 0.000000 0.000000 0.000000 0.016175
#
#
# Mechanical properties :
#
#
# Convention : Reuss Voigt Hill
#
# Bulk Modulus (GPa) = 55.70236 57.59545 56.64891
# Shear Modulus (GPa) = 51.68039 11.58420 31.63229
#
# Velocity S-wave (km/s) = 4.74790 2.24787 3.71453
# Velocity P-wave (km/s) = 7.37249 5.64445 6.56557
#
# Compressibility (1/GPa) = 0.01795256
#
# Stress axis : x y z
#
# Youngs Moduli (GPa) = 88.13688 95.33346 89.17507
#
# Poissons Ratio (x) = 0.41058 0.10591
# Poissons Ratio (y) = 0.37959 0.18317
# Poissons Ratio (z) = 0.10467 0.19582
#
# Static dielectric constant tensor:
#      x y z
#    x 4.309620 0.000000 0.000000 
#    y 0.000000 4.274530 0.000000 
#    z 0.000000 0.000000 4.099540 
# 
# 
# High freq. dielectric constant tensor:
#      x y z
#    x 1.931710 0.000000 0.000000 
#    y 0.000000 1.919520 0.000000 
#    z 0.000000 0.000000 1.901060 
# 
# From -- ./inp_files/50459.got.cif
#   From: 2010.03.12/outbox.cif.g09.slc.cpg/sg70_26_cif.got.tgz:50459.got - 2010.04.16 13:46:32.
