data_PCOD8286719
_publ_section_title
;
Structure prediction by ZEFSAII (Michael W. Deem and Ramdas Pophale) SiO2 
 PCOD8286719
Probable space group: F D D D
;
_chemical_formula_sum "Si O2"
_cell_formula_units_Z 176
_cell_length_a 24.064973
_cell_length_b 11.215012
_cell_length_c 28.379404
_cell_angle_alpha 90.000000
_cell_angle_beta 90.000000
_cell_angle_gamma 90.000000
_cell_volume 7659.287859
_symmetry_space_group_name_H-M "F D D D"
_symmetry_group_IT_number 70
_space_group.IT_coordinate_system_code '2'
_symmetry_cell_setting 'orthorhombic'
loop_
_space_group_symop_operation_xyz
x,y,z
1/4-x,1/4-y,z
x,1/4-y,1/4-z
1/4-x,y,1/4-z
-x,-y,-z
3/4+x,3/4+y,-z
-x,3/4+y,3/4+z
3/4+x,-y,3/4+z
x,1/2+y,1/2+z
1/4-x,3/4-y,1/2+z
x,3/4-y,3/4-z
1/4-x,1/2+y,3/4-z
-x,1/2-y,1/2-z
3/4+x,1/4+y,1/2-z
-x,1/4+y,1/4+z
3/4+x,1/2-y,1/4+z
1/2+x,y,1/2+z
3/4-x,1/4-y,1/2+z
1/2+x,1/4-y,3/4-z
3/4-x,y,3/4-z
1/2-x,-y,1/2-z
1/4+x,3/4+y,1/2-z
1/2-x,3/4+y,1/4+z
1/4+x,-y,1/4+z
1/2+x,1/2+y,z
3/4-x,3/4-y,z
1/2+x,3/4-y,1/4-z
3/4-x,1/2+y,1/4-z
1/2-x,1/2-y,-z
1/4+x,1/4+y,-z
1/2-x,1/4+y,3/4+z
1/4+x,1/2-y,3/4+z
loop_
_atom_site_type_symbol
_atom_site_label
_atom_site_fract_x
_atom_site_fract_y
_atom_site_fract_z
Si Si1 0.017919 0.485438 0.218670
Si Si2 0.378960 0.132254 0.262112
Si Si3 0.174039 0.704500 0.447695
Si Si4 0.726354 0.375000 0.375000
Si Si5 0.049892 0.432610 0.922529
Si Si6 0.236368 0.419922 0.566544
O O1 0.082553 0.458224 0.210536
O O2 0.978445 0.372181 0.209347
O O3 0.000871 0.596339 0.186771
O O4 0.016916 0.521636 0.272788
O O5 0.405534 0.192001 0.214922
O O6 0.424849 0.118104 0.302304
O O7 0.351889 0.006325 0.246380
O O8 0.125000 0.625000 0.423809
O O9 0.187255 0.817128 0.414826
O O10 0.766360 0.479538 0.393522
O O11 0.076558 0.375000 0.875000
O O12 0.023278 0.561624 0.912719
#
# Coordination Sequence:
#
# PCOD8286719 Si02
#       6
#    32  32  32  16  32  32
#     4  11  23  46  73 100 141 184 236 287 349 429
#     4  11  24  43  75 103 134 191 231 285 352 426
#     4  12  24  45  73  98 139 182 235 290 356 410
#     4  12  28  44  67 112 142 180 239 302 344 424
#     4  11  25  45  70 106 143 180 234 298 346 412
#     4  11  25  44  69 105 141 184 236 285 353 419
#
# _framework density 22.978638
#
# number of rings (size 3 to 8) (size 9 to 14) (size 15 to 20)
#    0.000    0.727    5.455    3.818    1.273    2.909 
#    0.000    5.455    0.000    0.000    0.000    0.000 
#    0.000    0.000    0.000    0.000    0.000    0.000 
#
# Total GULP energy -545503.952771 kJ/mol
# GULP energy per Si atom -12397.817108 kJ/mol
# Density = 2.292634 g / cm^3
# Si number density = 22.978638 Si / 1000 Ang^3
#
#
#
# Elastic Constant Matrix: (Units=GPa)
#
#
# Indices 1 2 3 4 5 6 
#
# 1 147.0100 40.3206 19.5658 0.0000 0.0000 0.0000
# 2 40.3206 127.6384 26.4789 0.0000 0.0000 0.0000
# 3 19.5658 26.4789 53.7047 0.0000 0.0000 0.0000
# 4 0.0000 0.0000 0.0000 42.8293 0.0000 0.0000
# 5 0.0000 0.0000 0.0000 0.0000 15.0726 0.0000
# 6 0.0000 0.0000 0.0000 0.0000 0.0000 -56.9297
#
#
#
# Elastic Compliance Matrix: (Units=1/GPa)
#
#
# Indices 1 2 3 4 5 6 
#
# 1 0.007595 -0.002033 -0.001765 0.000000 0.000000 0.000000
# 2 -0.002033 0.009272 -0.003831 0.000000 0.000000 0.000000
# 3 -0.001765 -0.003831 0.021152 0.000000 0.000000 0.000000
# 4 0.000000 0.000000 0.000000 0.023348 0.000000 0.000000
# 5 0.000000 0.000000 0.000000 0.000000 0.066346 0.000000
# 6 0.000000 0.000000 0.000000 0.000000 0.000000 -0.017566
#
#
# Mechanical properties :
#
#
# Convention : Reuss Voigt Hill
#
# Bulk Modulus (GPa) = 43.93342 55.67598 49.80470
# Shear Modulus (GPa) = 37.59667 16.32696 26.96181
#
# Velocity S-wave (km/s) = 4.04933 2.66846 3.42912
# Velocity P-wave (km/s) = 6.40496 5.81174 6.11555
#
# Compressibility (1/GPa) = 0.02276171
#
# Stress axis : x y z
#
# Youngs Moduli (GPa) = 131.67045 107.85678 47.27711
#
# Poissons Ratio (x) = 0.21928 0.08342
# Poissons Ratio (y) = 0.26770 0.18110
# Poissons Ratio (z) = 0.23233 0.41316
#
# Static dielectric constant tensor:
#      x y z
#    x 4.197510 0.000000 0.000000 
#    y 0.000000 4.374760 0.000000 
#    z 0.000000 0.000000 4.193030 
# 
# 
# High freq. dielectric constant tensor:
#      x y z
#    x 1.907290 0.000000 0.000000 
#    y 0.000000 1.919440 0.000000 
#    z 0.000000 0.000000 1.892800 
# 
# From -- ./inp_files/61665.got.cif
#   From: 2010.03.12/outbox.cif.g09.slc.cpg/sg70_31_cif.got.tgz:61665.got - 2010.04.16 13:46:32.
