data_PCOD8286396
_publ_section_title
;
Structure prediction by ZEFSAII (Michael W. Deem and Ramdas Pophale) SiO2 
 PCOD8286396
Probable space group: F D D D
;
_chemical_formula_sum "Si O2"
_cell_formula_units_Z 176
_cell_length_a 25.528229
_cell_length_b 13.000559
_cell_length_c 26.042161
_cell_angle_alpha 90.000000
_cell_angle_beta 90.000000
_cell_angle_gamma 90.000000
_cell_volume 8642.904875
_symmetry_space_group_name_H-M "F D D D"
_symmetry_group_IT_number 70
_space_group.IT_coordinate_system_code '2'
_symmetry_cell_setting 'orthorhombic'
loop_
_space_group_symop_operation_xyz
x,y,z
1/4-x,1/4-y,z
x,1/4-y,1/4-z
1/4-x,y,1/4-z
-x,-y,-z
3/4+x,3/4+y,-z
-x,3/4+y,3/4+z
3/4+x,-y,3/4+z
x,1/2+y,1/2+z
1/4-x,3/4-y,1/2+z
x,3/4-y,3/4-z
1/4-x,1/2+y,3/4-z
-x,1/2-y,1/2-z
3/4+x,1/4+y,1/2-z
-x,1/4+y,1/4+z
3/4+x,1/2-y,1/4+z
1/2+x,y,1/2+z
3/4-x,1/4-y,1/2+z
1/2+x,1/4-y,3/4-z
3/4-x,y,3/4-z
1/2-x,-y,1/2-z
1/4+x,3/4+y,1/2-z
1/2-x,3/4+y,1/4+z
1/4+x,-y,1/4+z
1/2+x,1/2+y,z
3/4-x,3/4-y,z
1/2+x,3/4-y,1/4-z
3/4-x,1/2+y,1/4-z
1/2-x,1/2-y,-z
1/4+x,1/4+y,-z
1/2-x,1/4+y,3/4+z
1/4+x,1/2-y,3/4+z
loop_
_atom_site_type_symbol
_atom_site_label
_atom_site_fract_x
_atom_site_fract_y
_atom_site_fract_z
Si Si1 0.024346 0.481979 0.445986
Si Si2 0.125000 0.625000 0.299075
Si Si3 0.087180 0.421918 0.667845
Si Si4 0.874480 0.649062 0.222173
Si Si5 0.273950 0.846987 0.118202
Si Si6 0.307573 0.875000 0.375000
Si Si7 0.301488 0.625000 0.125000
O O1 0.071912 0.402665 0.450582
O O2 0.038813 0.591082 0.420041
O O3 0.000000 0.500000 0.500000
O O4 0.978207 0.438598 0.412470
O O5 0.132955 0.729035 0.265772
O O6 0.073397 0.637196 0.332356
O O7 0.125000 0.368358 0.625000
O O8 0.107020 0.402367 0.725199
O O9 0.091671 0.545227 0.658999
O O10 0.027865 0.383945 0.661331
O O11 0.915302 0.633150 0.176770
O O12 0.265782 0.726482 0.131031
#
# Coordination Sequence:
#
# PCOD8286396 Si02
#       7
#    32  16  32  32  32  16  16
#     4  11  22  38  66  96 127 171 223 278 334 409
#     4  10  22  42  69  90 128 177 222 292 328 394
#     4  11  24  43  61  95 139 173 216 273 357 415
#     4  11  22  41  65  99 128 175 228 281 346 404
#     4  10  22  44  62  97 131 172 227 279 340 399
#     4  10  22  42  62  89 136 171 207 283 332 400
#     4  10  23  40  67  93 128 173 234 288 322 408
#
# _framework density 20.363524000000002
#
# number of rings (size 3 to 8) (size 9 to 14) (size 15 to 20)
#    0.000    1.455    0.000    7.364    2.545    2.909 
#    9.818    0.000    0.000    0.000    0.000    0.000 
#    0.000    0.000    0.000    0.000    0.000    0.000 
#
# Total GULP energy -545394.286260 kJ/mol
# GULP energy per Si atom -12395.324688 kJ/mol
# Density = 2.031718 g / cm^3
# Si number density = 20.363524 Si / 1000 Ang^3
#
#
#
# Elastic Constant Matrix: (Units=GPa)
#
#
# Indices 1 2 3 4 5 6 
#
# 1 74.8706 29.3798 15.0266 0.0000 0.0000 0.0000
# 2 29.3798 176.9983 53.0780 0.0000 0.0000 0.0000
# 3 15.0266 53.0780 127.9769 0.0000 0.0000 0.0000
# 4 0.0000 0.0000 0.0000 -1.1476 0.0000 0.0000
# 5 0.0000 0.0000 0.0000 0.0000 33.3672 0.0000
# 6 0.0000 0.0000 0.0000 0.0000 0.0000 18.3468
#
#
#
# Elastic Compliance Matrix: (Units=1/GPa)
#
#
# Indices 1 2 3 4 5 6 
#
# 1 0.014358 -0.002144 -0.000796 0.000000 0.000000 0.000000
# 2 -0.002144 0.006773 -0.002557 0.000000 0.000000 0.000000
# 3 -0.000796 -0.002557 0.008968 0.000000 0.000000 0.000000
# 4 0.000000 0.000000 0.000000 -0.871392 0.000000 0.000000
# 5 0.000000 0.000000 0.000000 0.000000 0.029970 0.000000
# 6 0.000000 0.000000 0.000000 0.000000 0.000000 0.054506
#
#
# Mechanical properties :
#
#
# Convention : Reuss Voigt Hill
#
# Bulk Modulus (GPa) = 52.34962 63.86829 58.10895
# Shear Modulus (GPa) = -6.76174 28.93737 11.08782
#
# Velocity S-wave (km/s) = -1.82420 3.77376 2.33597
# Velocity P-wave (km/s) = 4.61805 7.10074 5.98944
#
# Compressibility (1/GPa) = 0.01910234
#
# Stress axis : x y z
#
# Youngs Moduli (GPa) = 69.64902 147.65513 111.50787
#
# Poissons Ratio (x) = 0.31663 0.08881
# Poissons Ratio (y) = 0.14935 0.28514
# Poissons Ratio (z) = 0.05547 0.37757
#
# Static dielectric constant tensor:
#      x y z
#    x 3.366150 0.000000 0.000000 
#    y 0.000000 4.508590 0.000000 
#    z 0.000000 0.000000 3.590970 
# 
# 
# High freq. dielectric constant tensor:
#      x y z
#    x 1.805600 0.000000 0.000000 
#    y 0.000000 1.812090 0.000000 
#    z 0.000000 0.000000 1.793130 
# 
# From -- ./inp_files/21010.got.cif
#   From: 2010.03.12/outbox.cif.g09.slc.cpg/sg70_11_cif.got.tgz:21010.got - 2010.04.16 13:46:32.
