data_PCOD8286276
_publ_section_title
;
Structure prediction by ZEFSAII (Michael W. Deem and Ramdas Pophale) SiO2 
 PCOD8286276
Probable space group: F D D D
;
_chemical_formula_sum "Si O2"
_cell_formula_units_Z 96
_cell_length_a 10.409492
_cell_length_b 12.534925
_cell_length_c 27.621490
_cell_angle_alpha 90.000000
_cell_angle_beta 90.000000
_cell_angle_gamma 90.000000
_cell_volume 3604.112824
_symmetry_space_group_name_H-M "F D D D"
_symmetry_group_IT_number 70
_space_group.IT_coordinate_system_code '2'
_symmetry_cell_setting 'orthorhombic'
loop_
_space_group_symop_operation_xyz
x,y,z
1/4-x,1/4-y,z
x,1/4-y,1/4-z
1/4-x,y,1/4-z
-x,-y,-z
3/4+x,3/4+y,-z
-x,3/4+y,3/4+z
3/4+x,-y,3/4+z
x,1/2+y,1/2+z
1/4-x,3/4-y,1/2+z
x,3/4-y,3/4-z
1/4-x,1/2+y,3/4-z
-x,1/2-y,1/2-z
3/4+x,1/4+y,1/2-z
-x,1/4+y,1/4+z
3/4+x,1/2-y,1/4+z
1/2+x,y,1/2+z
3/4-x,1/4-y,1/2+z
1/2+x,1/4-y,3/4-z
3/4-x,y,3/4-z
1/2-x,-y,1/2-z
1/4+x,3/4+y,1/2-z
1/2-x,3/4+y,1/4+z
1/4+x,-y,1/4+z
1/2+x,1/2+y,z
3/4-x,3/4-y,z
1/2+x,3/4-y,1/4-z
3/4-x,1/2+y,1/4-z
1/2-x,1/2-y,-z
1/4+x,1/4+y,-z
1/2-x,1/4+y,3/4+z
1/4+x,1/2-y,3/4+z
loop_
_atom_site_type_symbol
_atom_site_label
_atom_site_fract_x
_atom_site_fract_y
_atom_site_fract_z
Si Si1 0.546859 0.020628 0.704934
Si Si2 0.827290 0.042865 0.446239
Si Si3 0.923617 0.486999 0.103833
O O1 0.625000 0.125000 0.718688
O O2 0.457875 0.997126 0.751670
O O3 0.640221 0.920206 0.693778
O O4 0.452366 0.056623 0.660052
O O5 0.706577 0.018066 0.410611
O O6 0.950933 0.977368 0.426594
O O7 0.875000 0.375000 0.082674
#
# Coordination Sequence:
#
# PCOD8286276 Si02
#       3
#    32  32  32
#     4  11  22  39  68 102 134 174 222 276 337 401
#     4  10  21  41  65  94 134 178 221 274 330 401
#     4   9  20  40  63  89 133 179 217 271 331 391
#
# _framework density 26.636234999999999
#
# number of rings (size 3 to 8) (size 9 to 14) (size 15 to 20)
#    0.000    2.000    0.000    3.000    0.000    0.000 
#    0.000   28.333    0.000   16.000    0.000    0.000 
#    0.000    0.000    0.000    0.000    0.000    0.000 
#
# Total GULP energy -297358.180262 kJ/mol
# GULP energy per Si atom -12389.924178 kJ/mol
# Density = 2.657561 g / cm^3
# Si number density = 26.636235 Si / 1000 Ang^3
#
#
#
# Elastic Constant Matrix: (Units=GPa)
#
#
# Indices 1 2 3 4 5 6 
#
# 1 95.0784 8.2797 55.2235 0.0000 0.0000 0.0000
# 2 8.2797 32.9519 19.6977 0.0000 0.0000 0.0000
# 3 55.2235 19.6977 150.7117 0.0000 0.0000 0.0000
# 4 0.0000 0.0000 0.0000 26.0582 0.0000 0.0000
# 5 0.0000 0.0000 0.0000 0.0000 44.8489 0.0000
# 6 0.0000 0.0000 0.0000 0.0000 0.0000 -1.7993
#
#
#
# Elastic Compliance Matrix: (Units=1/GPa)
#
#
# Indices 1 2 3 4 5 6 
#
# 1 0.013368 -0.000467 -0.004837 0.000000 0.000000 0.000000
# 2 -0.000467 0.032936 -0.004133 0.000000 0.000000 0.000000
# 3 -0.004837 -0.004133 0.008948 0.000000 0.000000 0.000000
# 4 0.000000 0.000000 0.000000 0.038376 0.000000 0.000000
# 5 0.000000 0.000000 0.000000 0.000000 0.022297 0.000000
# 6 0.000000 0.000000 0.000000 0.000000 0.000000 -0.555765
#
#
# Mechanical properties :
#
#
# Convention : Reuss Voigt Hill
#
# Bulk Modulus (GPa) = 27.49108 49.46042 38.47575
# Shear Modulus (GPa) = -12.22971 26.85763 7.31396
#
# Velocity S-wave (km/s) = -2.14508 3.17884 1.65886
# Velocity P-wave (km/s) = 2.05139 5.66414 4.25974
#
# Compressibility (1/GPa) = 0.03637543
#
# Stress axis : x y z
#
# Youngs Moduli (GPa) = 74.80643 30.36235 111.75913
#
# Poissons Ratio (x) = 0.01419 0.54059
# Poissons Ratio (y) = 0.03497 0.46194
# Poissons Ratio (z) = 0.36185 0.12550
#
# Static dielectric constant tensor:
#      x y z
#    x 5.318890 0.000000 0.000000 
#    y 0.000000 4.504370 0.000000 
#    z 0.000000 0.000000 4.586040 
# 
# 
# High freq. dielectric constant tensor:
#      x y z
#    x 2.084640 0.000000 0.000000 
#    y 0.000000 2.052650 0.000000 
#    z 0.000000 0.000000 2.071790 
# 
# From -- ./inp_files/18382.got.cif
#   From: 2010.03.12/outbox.cif.g09.slc.cpg/sg70_10_cif.got.tgz:18382.got - 2010.04.16 13:46:32.
