data_PCOD8286111
_publ_section_title
;
Structure prediction by ZEFSAII (Michael W. Deem and Ramdas Pophale) SiO2 
 PCOD8286111
Probable space group: F D D D
;
_chemical_formula_sum "Si O2"
_cell_formula_units_Z 208
_cell_length_a 20.624809
_cell_length_b 28.871220
_cell_length_c 17.724829
_cell_angle_alpha 90.000000
_cell_angle_beta 90.000000
_cell_angle_gamma 90.000000
_cell_volume 10554.486907
_symmetry_space_group_name_H-M "F D D D"
_symmetry_group_IT_number 70
_space_group.IT_coordinate_system_code '2'
_symmetry_cell_setting 'orthorhombic'
loop_
_space_group_symop_operation_xyz
x,y,z
1/4-x,1/4-y,z
x,1/4-y,1/4-z
1/4-x,y,1/4-z
-x,-y,-z
3/4+x,3/4+y,-z
-x,3/4+y,3/4+z
3/4+x,-y,3/4+z
x,1/2+y,1/2+z
1/4-x,3/4-y,1/2+z
x,3/4-y,3/4-z
1/4-x,1/2+y,3/4-z
-x,1/2-y,1/2-z
3/4+x,1/4+y,1/2-z
-x,1/4+y,1/4+z
3/4+x,1/2-y,1/4+z
1/2+x,y,1/2+z
3/4-x,1/4-y,1/2+z
1/2+x,1/4-y,3/4-z
3/4-x,y,3/4-z
1/2-x,-y,1/2-z
1/4+x,3/4+y,1/2-z
1/2-x,3/4+y,1/4+z
1/4+x,-y,1/4+z
1/2+x,1/2+y,z
3/4-x,3/4-y,z
1/2+x,3/4-y,1/4-z
3/4-x,1/2+y,1/4-z
1/2-x,1/2-y,-z
1/4+x,1/4+y,-z
1/2-x,1/4+y,3/4+z
1/4+x,1/2-y,3/4+z
loop_
_atom_site_type_symbol
_atom_site_label
_atom_site_fract_x
_atom_site_fract_y
_atom_site_fract_z
Si Si1 0.980682 0.072996 0.627884
Si Si2 0.836768 0.560867 0.776032
Si Si3 0.309960 0.503869 0.804501
Si Si4 0.710568 0.767699 0.674670
Si Si5 0.253452 0.625000 0.625000
Si Si6 0.861689 0.658542 0.014819
Si Si7 0.060238 0.041382 0.203229
O O1 0.010469 0.125000 0.625000
O O2 0.958137 0.054651 0.546354
O O3 0.919208 0.072814 0.682732
O O4 0.035199 0.036955 0.655144
O O5 0.896999 0.524729 0.773345
O O6 0.794822 0.550327 0.850697
O O7 0.867194 0.612235 0.778513
O O8 0.250000 0.500000 0.750000
O O9 0.344674 0.553486 0.797728
O O10 0.362233 0.463321 0.784408
O O11 0.287667 0.497065 0.891121
O O12 0.775082 0.782847 0.717777
O O13 0.298906 0.652610 0.567262
O O14 0.206915 0.658154 0.672487
#
# Coordination Sequence:
#
# PCOD8286111 Si02
#       7
#    32  32  32  32  16  32  32
#     4  10  20  39  64  91 124 166 210 261 323 389
#     4  10  22  37  64  96 123 166 208 271 313 390
#     4  11  24  40  61  92 126 170 214 269 326 395
#     4  11  21  38  61  95 125 161 216 265 321 381
#     4  12  20  41  64  90 128 169 212 268 326 401
#     4  11  19  39  65  90 124 166 221 261 322 395
#     4  11  24  39  62  91 128 171 215 268 331 388
#
# _framework density 19.707259000000001
#
# number of rings (size 3 to 8) (size 9 to 14) (size 15 to 20)
#    0.000    1.231    6.923    0.462    0.000    3.692 
#    0.000    1.538    0.000    0.000    0.000    0.000 
#    0.000    0.000    0.000    0.000    0.000    0.000 
#
# Total GULP energy -644704.823312 kJ/mol
# GULP energy per Si atom -12398.169679 kJ/mol
# Density = 1.966240 g / cm^3
# Si number density = 19.707259 Si / 1000 Ang^3
#
#
#
# Elastic Constant Matrix: (Units=GPa)
#
#
# Indices 1 2 3 4 5 6 
#
# 1 90.9567 38.8829 41.7629 0.0000 0.0000 0.0000
# 2 38.8829 124.8228 38.0475 0.0000 0.0000 0.0000
# 3 41.7629 38.0475 92.2033 0.0000 0.0000 0.0000
# 4 0.0000 0.0000 0.0000 39.6129 0.0000 0.0000
# 5 0.0000 0.0000 0.0000 0.0000 38.2941 0.0000
# 6 0.0000 0.0000 0.0000 0.0000 0.0000 217.1514
#
#
#
# Elastic Compliance Matrix: (Units=1/GPa)
#
#
# Indices 1 2 3 4 5 6 
#
# 1 0.014761 -0.002929 -0.005478 0.000000 0.000000 0.000000
# 2 -0.002929 0.009745 -0.002695 0.000000 0.000000 0.000000
# 3 -0.005478 -0.002695 0.014439 0.000000 0.000000 0.000000
# 4 0.000000 0.000000 0.000000 0.025244 0.000000 0.000000
# 5 0.000000 0.000000 0.000000 0.000000 0.026114 0.000000
# 6 0.000000 0.000000 0.000000 0.000000 0.000000 0.004605
#
#
# Mechanical properties :
#
#
# Convention : Reuss Voigt Hill
#
# Bulk Modulus (GPa) = 59.72622 60.59660 60.16141
# Shear Modulus (GPa) = 40.75291 71.63098 56.19194
#
# Velocity S-wave (km/s) = 4.55237 6.03543 5.34558
# Velocity P-wave (km/s) = 7.61607 8.90975 8.28819
#
# Compressibility (1/GPa) = 0.01674307
#
# Stress axis : x y z
#
# Youngs Moduli (GPa) = 67.74528 102.61645 69.25879
#
# Poissons Ratio (x) = 0.30052 0.37937
# Poissons Ratio (y) = 0.19840 0.18664
# Poissons Ratio (z) = 0.37108 0.27653
#
# Static dielectric constant tensor:
#      x y z
#    x 3.547240 0.000000 0.000000 
#    y 0.000000 3.806380 0.000000 
#    z 0.000000 0.000000 3.723160 
# 
# 
# High freq. dielectric constant tensor:
#      x y z
#    x 1.757670 0.000000 0.000000 
#    y 0.000000 1.769630 0.000000 
#    z 0.000000 0.000000 1.771970 
# 
# From -- ./inp_files/36890.got.cif
#   From: 2010.03.12/outbox.cif.g09.slc.cpg/sg70_19_cif.got.tgz:36890.got - 2010.04.16 13:46:32.
