data_PCOD8286473
_publ_section_title
;
Structure prediction by ZEFSAII (Michael W. Deem and Ramdas Pophale) SiO2 
 PCOD8286473
Probable space group: F D D D
;
_chemical_formula_sum "Si O2"
_cell_formula_units_Z 160
_cell_length_a 10.567996
_cell_length_b 28.418024
_cell_length_c 24.877929
_cell_angle_alpha 90.000000
_cell_angle_beta 90.000000
_cell_angle_gamma 90.000000
_cell_volume 7471.378545
_symmetry_space_group_name_H-M "F D D D"
_symmetry_group_IT_number 70
_space_group.IT_coordinate_system_code '2'
_symmetry_cell_setting 'orthorhombic'
loop_
_space_group_symop_operation_xyz
x,y,z
1/4-x,1/4-y,z
x,1/4-y,1/4-z
1/4-x,y,1/4-z
-x,-y,-z
3/4+x,3/4+y,-z
-x,3/4+y,3/4+z
3/4+x,-y,3/4+z
x,1/2+y,1/2+z
1/4-x,3/4-y,1/2+z
x,3/4-y,3/4-z
1/4-x,1/2+y,3/4-z
-x,1/2-y,1/2-z
3/4+x,1/4+y,1/2-z
-x,1/4+y,1/4+z
3/4+x,1/2-y,1/4+z
1/2+x,y,1/2+z
3/4-x,1/4-y,1/2+z
1/2+x,1/4-y,3/4-z
3/4-x,y,3/4-z
1/2-x,-y,1/2-z
1/4+x,3/4+y,1/2-z
1/2-x,3/4+y,1/4+z
1/4+x,-y,1/4+z
1/2+x,1/2+y,z
3/4-x,3/4-y,z
1/2+x,3/4-y,1/4-z
3/4-x,1/2+y,1/4-z
1/2-x,1/2-y,-z
1/4+x,1/4+y,-z
1/2-x,1/4+y,3/4+z
1/4+x,1/2-y,3/4+z
loop_
_atom_site_type_symbol
_atom_site_label
_atom_site_fract_x
_atom_site_fract_y
_atom_site_fract_z
Si Si1 0.193671 0.846013 0.572249
Si Si2 0.235272 0.663578 0.242286
Si Si3 0.484408 0.712778 0.613996
Si Si4 0.367544 0.739512 0.721899
Si Si5 0.297944 0.443373 0.057719
O O1 0.125000 0.825018 0.625000
O O2 0.257605 0.895476 0.586743
O O3 0.298950 0.808876 0.550512
O O4 0.096147 0.860076 0.525678
O O5 0.125000 0.625000 0.232853
O O6 0.303332 0.680032 0.186525
O O7 0.194249 0.708529 0.278922
O O8 0.625000 0.694476 0.625000
O O9 0.391460 0.712000 0.665475
O O10 0.491372 0.767015 0.599087
O O11 0.500000 0.750000 0.750000
O O12 0.273398 0.703507 0.751744
#
# Coordination Sequence:
#
# PCOD8286473 Si02
#       5
#    32  32  32  32  32
#     4  11  24  40  65  96 128 174 217 285 334 392
#     4  11  25  40  65  99 132 166 228 278 331 399
#     4  11  22  40  64  96 128 178 212 269 333 397
#     4  11  21  41  64  92 131 177 211 271 335 397
#     4  10  23  41  63  93 133 167 228 266 337 404
#
# _framework density 21.415057999999998
#
# number of rings (size 3 to 8) (size 9 to 14) (size 15 to 20)
#    0.000    1.200    4.000    3.000    5.600    3.600 
#    0.000    3.000    0.000    2.400    0.000    0.000 
#    0.000    0.000    0.000    0.000    0.000    0.000 
#
# Total GULP energy -495592.884944 kJ/mol
# GULP energy per Si atom -12389.822124 kJ/mol
# Density = 2.136632 g / cm^3
# Si number density = 21.415058 Si / 1000 Ang^3
#
#
#
# Elastic Constant Matrix: (Units=GPa)
#
#
# Indices 1 2 3 4 5 6 
#
# 1 113.3493 27.1793 67.1301 0.0000 0.0000 0.0000
# 2 27.1793 63.4621 24.7837 0.0000 0.0000 0.0000
# 3 67.1301 24.7837 153.7036 0.0000 0.0000 0.0000
# 4 0.0000 0.0000 0.0000 20.3692 0.0000 0.0000
# 5 0.0000 0.0000 0.0000 0.0000 44.6478 0.0000
# 6 0.0000 0.0000 0.0000 0.0000 0.0000 28.1780
#
#
#
# Elastic Compliance Matrix: (Units=1/GPa)
#
#
# Indices 1 2 3 4 5 6 
#
# 1 0.012574 -0.003458 -0.004934 0.000000 0.000000 0.000000
# 2 -0.003458 0.017767 -0.001355 0.000000 0.000000 0.000000
# 3 -0.004934 -0.001355 0.008879 0.000000 0.000000 0.000000
# 4 0.000000 0.000000 0.000000 0.049094 0.000000 0.000000
# 5 0.000000 0.000000 0.000000 0.000000 0.022398 0.000000
# 6 0.000000 0.000000 0.000000 0.000000 0.000000 0.035489
#
#
# Mechanical properties :
#
#
# Convention : Reuss Voigt Hill
#
# Bulk Modulus (GPa) = 50.69148 63.18902 56.94025
# Shear Modulus (GPa) = 29.02436 32.73380 30.87908
#
# Velocity S-wave (km/s) = 3.68547 3.91390 3.80140
# Velocity P-wave (km/s) = 6.46781 7.07076 6.77600
#
# Compressibility (1/GPa) = 0.01972718
#
# Stress axis : x y z
#
# Youngs Moduli (GPa) = 79.53201 56.28268 112.62115
#
# Poissons Ratio (x) = 0.19463 0.55566
# Poissons Ratio (y) = 0.27503 0.15255
# Poissons Ratio (z) = 0.39240 0.07624
#
# Static dielectric constant tensor:
#      x y z
#    x 4.650540 0.000000 0.000000 
#    y 0.000000 3.814770 0.000000 
#    z 0.000000 0.000000 4.084510 
# 
# 
# High freq. dielectric constant tensor:
#      x y z
#    x 1.836390 0.000000 0.000000 
#    y 0.000000 1.837760 0.000000 
#    z 0.000000 0.000000 1.836000 
# 
# From -- ./inp_files/50314.got.cif
#   From: 2010.03.12/outbox.cif.g09.slc.cpg/sg70_26_cif.got.tgz:50314.got - 2010.04.16 13:46:32.
