data_PCOD8286207
_publ_section_title
;
Structure prediction by ZEFSAII (Michael W. Deem and Ramdas Pophale) SiO2 
 PCOD8286207
Probable space group: F D D D
;
_chemical_formula_sum "Si O2"
_cell_formula_units_Z 176
_cell_length_a 11.318845
_cell_length_b 32.786372
_cell_length_c 23.990141
_cell_angle_alpha 90.000000
_cell_angle_beta 90.000000
_cell_angle_gamma 90.000000
_cell_volume 8902.833994
_symmetry_space_group_name_H-M "F D D D"
_symmetry_group_IT_number 70
_space_group.IT_coordinate_system_code '2'
_symmetry_cell_setting 'orthorhombic'
loop_
_space_group_symop_operation_xyz
x,y,z
1/4-x,1/4-y,z
x,1/4-y,1/4-z
1/4-x,y,1/4-z
-x,-y,-z
3/4+x,3/4+y,-z
-x,3/4+y,3/4+z
3/4+x,-y,3/4+z
x,1/2+y,1/2+z
1/4-x,3/4-y,1/2+z
x,3/4-y,3/4-z
1/4-x,1/2+y,3/4-z
-x,1/2-y,1/2-z
3/4+x,1/4+y,1/2-z
-x,1/4+y,1/4+z
3/4+x,1/2-y,1/4+z
1/2+x,y,1/2+z
3/4-x,1/4-y,1/2+z
1/2+x,1/4-y,3/4-z
3/4-x,y,3/4-z
1/2-x,-y,1/2-z
1/4+x,3/4+y,1/2-z
1/2-x,3/4+y,1/4+z
1/4+x,-y,1/4+z
1/2+x,1/2+y,z
3/4-x,3/4-y,z
1/2+x,3/4-y,1/4-z
3/4-x,1/2+y,1/4-z
1/2-x,1/2-y,-z
1/4+x,1/4+y,-z
1/2-x,1/4+y,3/4+z
1/4+x,1/2-y,3/4+z
loop_
_atom_site_type_symbol
_atom_site_label
_atom_site_fract_x
_atom_site_fract_y
_atom_site_fract_z
Si Si1 0.934190 0.083981 0.515635
Si Si2 0.067812 0.053997 0.697054
Si Si3 0.186316 0.168448 0.904630
Si Si4 0.071628 0.416101 0.707262
Si Si5 0.035955 0.875000 0.375000
Si Si6 0.952135 0.212256 0.925459
O O1 0.963444 0.119941 0.472545
O O2 0.887673 0.103201 0.575231
O O3 0.839980 0.053900 0.486321
O O4 0.054608 0.059645 0.525126
O O5 0.966654 0.053525 0.743916
O O6 0.045777 0.089983 0.652568
O O7 0.062115 0.010435 0.668225
O O8 0.125000 0.125000 0.904244
O O9 0.249764 0.178909 0.847062
O O10 0.287103 0.169339 0.951822
O O11 0.089569 0.202519 0.917770
O O12 0.875000 0.192033 0.875000
#
# Coordination Sequence:
#
# PCOD8286207 Si02
#       6
#    32  32  32  32  16  32
#     4  11  20  37  60  89 121 158 207 253 317 370
#     4  11  22  37  59  88 122 158 208 252 312 375
#     4  11  21  38  59  87 119 152 203 252 321 372
#     4  10  21  37  62  83 114 161 200 251 307 384
#     4  10  21  38  60  83 120 171 202 246 305 388
#     4  12  24  36  59  93 125 154 199 267 316 366
#
# _framework density 19.768986000000002
#
# number of rings (size 3 to 8) (size 9 to 14) (size 15 to 20)
#    0.000    1.091    1.818    8.182    0.000    2.182 
#    0.000    0.000    0.000    8.727    0.000    0.000 
#    0.000    0.000    0.000    0.000    0.000    0.000 
#
# Total GULP energy -545485.150627 kJ/mol
# GULP energy per Si atom -12397.389787 kJ/mol
# Density = 1.972399 g / cm^3
# Si number density = 19.768986 Si / 1000 Ang^3
#
#
#
# Elastic Constant Matrix: (Units=GPa)
#
#
# Indices 1 2 3 4 5 6 
#
# 1 134.3103 40.9181 60.8606 0.0000 0.0000 0.0000
# 2 40.9181 98.2048 37.7850 0.0000 0.0000 0.0000
# 3 60.8606 37.7850 121.3475 0.0000 0.0000 0.0000
# 4 0.0000 0.0000 0.0000 22.9229 0.0000 0.0000
# 5 0.0000 0.0000 0.0000 0.0000 31.5340 0.0000
# 6 0.0000 0.0000 0.0000 0.0000 0.0000 38.6179
#
#
#
# Elastic Compliance Matrix: (Units=1/GPa)
#
#
# Indices 1 2 3 4 5 6 
#
# 1 0.010183 -0.002588 -0.004301 0.000000 0.000000 0.000000
# 2 -0.002588 0.012226 -0.002509 0.000000 0.000000 0.000000
# 3 -0.004301 -0.002509 0.011179 0.000000 0.000000 0.000000
# 4 0.000000 0.000000 0.000000 0.043625 0.000000 0.000000
# 5 0.000000 0.000000 0.000000 0.000000 0.031712 0.000000
# 6 0.000000 0.000000 0.000000 0.000000 0.000000 0.025895
#
#
# Mechanical properties :
#
#
# Convention : Reuss Voigt Hill
#
# Bulk Modulus (GPa) = 67.60367 70.33222 68.96794
# Shear Modulus (GPa) = 31.53633 32.90154 32.21893
#
# Velocity S-wave (km/s) = 3.99838 4.08401 4.04142
# Velocity P-wave (km/s) = 7.45568 7.60875 7.53261
#
# Compressibility (1/GPa) = 0.01479210
#
# Stress axis : x y z
#
# Youngs Moduli (GPa) = 98.20354 81.78972 89.45039
#
# Poissons Ratio (x) = 0.21166 0.38476
# Poissons Ratio (y) = 0.25414 0.22444
# Poissons Ratio (z) = 0.42241 0.20522
#
# Static dielectric constant tensor:
#      x y z
#    x 3.630960 0.000000 0.000000 
#    y 0.000000 3.461210 0.000000 
#    z 0.000000 0.000000 3.972380 
# 
# 
# High freq. dielectric constant tensor:
#      x y z
#    x 1.751090 0.000000 0.000000 
#    y 0.000000 1.761980 0.000000 
#    z 0.000000 0.000000 1.787230 
# 
# From -- ./inp_files/19623.got.cif
#   From: 2010.03.12/outbox.cif.g09.slc.cpg/sg70_10_cif.got.tgz:19623.got - 2010.04.16 13:46:32.
