data_PCOD8286636
_publ_section_title
;
Structure prediction by ZEFSAII (Michael W. Deem and Ramdas Pophale) SiO2 
 PCOD8286636
Probable space group: F D D D
;
_chemical_formula_sum "Si O2"
_cell_formula_units_Z 96
_cell_length_a 29.979643
_cell_length_b 26.337762
_cell_length_c 6.094901
_cell_angle_alpha 90.000000
_cell_angle_beta 90.000000
_cell_angle_gamma 90.000000
_cell_volume 4812.513730
_symmetry_space_group_name_H-M "F D D D"
_symmetry_group_IT_number 70
_space_group.IT_coordinate_system_code '2'
_symmetry_cell_setting 'orthorhombic'
loop_
_space_group_symop_operation_xyz
x,y,z
1/4-x,1/4-y,z
x,1/4-y,1/4-z
1/4-x,y,1/4-z
-x,-y,-z
3/4+x,3/4+y,-z
-x,3/4+y,3/4+z
3/4+x,-y,3/4+z
x,1/2+y,1/2+z
1/4-x,3/4-y,1/2+z
x,3/4-y,3/4-z
1/4-x,1/2+y,3/4-z
-x,1/2-y,1/2-z
3/4+x,1/4+y,1/2-z
-x,1/4+y,1/4+z
3/4+x,1/2-y,1/4+z
1/2+x,y,1/2+z
3/4-x,1/4-y,1/2+z
1/2+x,1/4-y,3/4-z
3/4-x,y,3/4-z
1/2-x,-y,1/2-z
1/4+x,3/4+y,1/2-z
1/2-x,3/4+y,1/4+z
1/4+x,-y,1/4+z
1/2+x,1/2+y,z
3/4-x,3/4-y,z
1/2+x,3/4-y,1/4-z
3/4-x,1/2+y,1/4-z
1/2-x,1/2-y,-z
1/4+x,1/4+y,-z
1/2-x,1/4+y,3/4+z
1/4+x,1/2-y,3/4+z
loop_
_atom_site_type_symbol
_atom_site_label
_atom_site_fract_x
_atom_site_fract_y
_atom_site_fract_z
Si Si1 0.988675 0.583799 0.464877
Si Si2 0.283330 0.494923 0.454711
Si Si3 0.375000 0.210614 0.375000
Si Si4 0.168357 0.875000 0.875000
O O1 0.011387 0.625000 0.625000
O O2 0.972153 0.537069 0.609161
O O3 0.948467 0.611702 0.336266
O O4 0.025318 0.561800 0.297244
O O5 0.250000 0.500000 0.250000
O O6 0.334448 0.500145 0.390247
O O7 0.363545 0.173175 0.578192
#
# Coordination Sequence:
#
# PCOD8286636 Si02
#       4
#    32  32  16  16
#     4  11  21  41  64  94 134 175 213 274 342 395
#     4  11  23  40  63  96 134 173 215 278 339 397
#     4  12  22  38  66 103 126 166 225 280 326 410
#     4  12  22  40  68 101 130 162 223 288 338 378
#
# _framework density 19.947994999999999
#
# number of rings (size 3 to 8) (size 9 to 14) (size 15 to 20)
#    0.000    0.667    6.667    2.000    0.000    0.000 
#    0.000    0.000    0.000   15.000    0.000    0.000 
#    0.000    0.000    0.000    0.000    0.000    0.000 
#
# Total GULP energy -297380.981929 kJ/mol
# GULP energy per Si atom -12390.874247 kJ/mol
# Density = 1.990259 g / cm^3
# Si number density = 19.947995 Si / 1000 Ang^3
#
#
#
# Elastic Constant Matrix: (Units=GPa)
#
#
# Indices 1 2 3 4 5 6 
#
# 1 151.9620 55.7020 53.4146 -0.0149 0.0051 0.0004
# 2 55.7020 89.5723 45.3964 -0.0851 0.0414 -0.0162
# 3 53.4146 45.3964 108.3310 -0.1427 0.0693 -0.0236
# 4 -0.0149 -0.0851 -0.1427 58.5087 0.0522 -0.0203
# 5 0.0051 0.0414 0.0693 0.0522 19.8014 0.0012
# 6 0.0004 -0.0162 -0.0236 -0.0203 0.0012 37.1157
#
#
#
# Elastic Compliance Matrix: (Units=1/GPa)
#
#
# Indices 1 2 3 4 5 6 
#
# 1 0.009100 -0.004298 -0.002686 -0.000011 0.000016 -0.000004
# 2 -0.004298 0.016204 -0.004671 0.000011 -0.000016 0.000004
# 3 -0.002686 -0.004671 0.012513 0.000023 -0.000033 0.000006
# 4 -0.000011 0.000011 0.000023 0.017092 -0.000045 0.000009
# 5 0.000016 -0.000016 -0.000033 -0.000045 0.050502 -0.000002
# 6 -0.000004 0.000004 0.000006 0.000009 -0.000002 0.026943
#
#
# Mechanical properties :
#
#
# Convention : Reuss Voigt Hill
#
# Bulk Modulus (GPa) = 68.93162 73.21015 71.07088
# Shear Modulus (GPa) = 31.15276 36.10865 33.63071
#
# Velocity S-wave (km/s) = 3.95612 4.25919 4.11045
# Velocity P-wave (km/s) = 7.44973 7.80819 7.63106
#
# Compressibility (1/GPa) = 0.01450713
#
# Stress axis : x y z
#
# Youngs Moduli (GPa) = 109.88932 61.71203 79.91729
#
# Poissons Ratio (x) = 0.26522 0.21466
# Poissons Ratio (y) = 0.47228 0.37332
# Poissons Ratio (z) = 0.29516 0.28828
#
# Static dielectric constant tensor:
#      x y z
#    x 3.762500 0.000290 -0.000230 
#    y 0.000290 4.003670 -0.001180 
#    z -0.000230 -0.001180 4.169890 
# 
# 
# High freq. dielectric constant tensor:
#      x y z
#    x 1.755050 0.000010 0.000020 
#    y 0.000010 1.777840 -0.000030 
#    z 0.000020 -0.000030 1.797540 
# 
# From -- ./inp_files/3973.got.cif
#   From: 2010.03.12/outbox.cif.g09.slc.cpg/sg70_2_cif.got.tgz:3973.got - 2010.04.16 13:46:32.
