data_PCOD8286677
_publ_section_title
;
Structure prediction by ZEFSAII (Michael W. Deem and Ramdas Pophale) SiO2 
 PCOD8286677
Probable space group: F D D D
;
_chemical_formula_sum "Si O2"
_cell_formula_units_Z 176
_cell_length_a 25.140192
_cell_length_b 25.668434
_cell_length_c 11.497336
_cell_angle_alpha 90.000000
_cell_angle_beta 90.000000
_cell_angle_gamma 90.000000
_cell_volume 7419.338526
_symmetry_space_group_name_H-M "F D D D"
_symmetry_group_IT_number 70
_space_group.IT_coordinate_system_code '2'
_symmetry_cell_setting 'orthorhombic'
loop_
_space_group_symop_operation_xyz
x,y,z
1/4-x,1/4-y,z
x,1/4-y,1/4-z
1/4-x,y,1/4-z
-x,-y,-z
3/4+x,3/4+y,-z
-x,3/4+y,3/4+z
3/4+x,-y,3/4+z
x,1/2+y,1/2+z
1/4-x,3/4-y,1/2+z
x,3/4-y,3/4-z
1/4-x,1/2+y,3/4-z
-x,1/2-y,1/2-z
3/4+x,1/4+y,1/2-z
-x,1/4+y,1/4+z
3/4+x,1/2-y,1/4+z
1/2+x,y,1/2+z
3/4-x,1/4-y,1/2+z
1/2+x,1/4-y,3/4-z
3/4-x,y,3/4-z
1/2-x,-y,1/2-z
1/4+x,3/4+y,1/2-z
1/2-x,3/4+y,1/4+z
1/4+x,-y,1/4+z
1/2+x,1/2+y,z
3/4-x,3/4-y,z
1/2+x,3/4-y,1/4-z
3/4-x,1/2+y,1/4-z
1/2-x,1/2-y,-z
1/4+x,1/4+y,-z
1/2-x,1/4+y,3/4+z
1/4+x,1/2-y,3/4+z
loop_
_atom_site_type_symbol
_atom_site_label
_atom_site_fract_x
_atom_site_fract_y
_atom_site_fract_z
Si Si1 0.771936 0.447147 0.487747
Si Si2 0.082182 0.751569 0.934861
Si Si3 0.181760 0.978501 0.176961
Si Si4 0.052782 0.483647 0.930390
Si Si5 0.523747 0.597990 0.864418
Si Si6 0.264319 0.125000 0.625000
O O1 0.712725 0.470763 0.515643
O O2 0.792826 0.463757 0.357657
O O3 0.811690 0.477979 0.572083
O O4 0.777489 0.386264 0.522349
O O5 0.073899 0.780779 0.813085
O O6 0.139976 0.760396 0.995829
O O7 0.073730 0.690278 0.905707
O O8 0.125000 0.969054 0.125000
O O9 0.220461 0.935102 0.125920
O O10 0.050487 0.426086 0.877459
O O11 0.000000 0.500000 0.000000
O O12 0.520756 0.629595 0.742789
#
# Coordination Sequence:
#
# PCOD8286677 Si02
#       6
#    32  32  32  32  32  16
#     4  11  23  43  68 104 135 174 237 284 346 431
#     4  11  25  45  71  99 146 184 230 298 353 414
#     4  11  22  44  69  96 141 182 224 295 352 419
#     4  12  25  46  68 101 144 184 237 287 348 428
#     4  11  24  42  71 104 137 186 233 285 361 423
#     4  12  22  46  71  96 144 186 227 292 350 422
#
# _framework density 23.721792000000001
#
# number of rings (size 3 to 8) (size 9 to 14) (size 15 to 20)
#    0.000    0.727    7.273    2.182    0.000    7.273 
#    0.000    1.818    0.000    0.000    0.000    0.000 
#    0.000    0.000    0.000    0.000    0.000    0.000 
#
# Total GULP energy -545126.078966 kJ/mol
# GULP energy per Si atom -12389.229067 kJ/mol
# Density = 2.366780 g / cm^3
# Si number density = 23.721792 Si / 1000 Ang^3
#
#
#
# Elastic Constant Matrix: (Units=GPa)
#
#
# Indices 1 2 3 4 5 6 
#
# 1 104.8048 18.0337 7.8974 0.0000 0.0000 0.0000
# 2 18.0337 131.2626 7.8099 0.0000 0.0000 0.0000
# 3 7.8974 7.8099 46.7315 0.0000 0.0001 -0.0001
# 4 0.0000 0.0000 0.0000 34.3384 0.0001 0.0000
# 5 0.0000 0.0000 0.0001 0.0001 33.5983 0.0000
# 6 0.0000 0.0000 -0.0001 0.0000 0.0000 12.2011
#
#
#
# Elastic Compliance Matrix: (Units=1/GPa)
#
#
# Indices 1 2 3 4 5 6 
#
# 1 0.009870 -0.001269 -0.001456 0.000000 0.000000 0.000000
# 2 -0.001269 0.007858 -0.001099 0.000000 0.000000 0.000000
# 3 -0.001456 -0.001099 0.021828 0.000000 0.000000 0.000000
# 4 0.000000 0.000000 0.000000 0.029122 0.000000 0.000000
# 5 0.000000 0.000000 0.000000 0.000000 0.029763 0.000000
# 6 0.000000 0.000000 0.000000 0.000000 0.000000 0.081960
#
#
# Mechanical properties :
#
#
# Convention : Reuss Voigt Hill
#
# Bulk Modulus (GPa) = 31.33963 38.92009 35.12986
# Shear Modulus (GPa) = 25.16541 32.63143 28.89842
#
# Velocity S-wave (km/s) = 3.26061 3.71292 3.49409
# Velocity P-wave (km/s) = 5.23598 5.90115 5.57848
#
# Compressibility (1/GPa) = 0.03190848
#
# Stress axis : x y z
#
# Youngs Moduli (GPa) = 101.32064 127.25755 45.81168
#
# Poissons Ratio (x) = 0.16153 0.06669
# Poissons Ratio (y) = 0.12861 0.05034
# Poissons Ratio (z) = 0.14750 0.13982
#
# Static dielectric constant tensor:
#      x y z
#    x 4.254250 0.000000 0.000000 
#    y 0.000000 4.286180 0.000000 
#    z 0.000000 0.000000 4.785810 
# 
# 
# High freq. dielectric constant tensor:
#      x y z
#    x 1.935270 0.000000 0.000000 
#    y 0.000000 1.931170 0.000000 
#    z 0.000000 0.000000 1.943230 
# 
# From -- ./inp_files/22308.got.cif
#   From: 2010.03.12/outbox.cif.g09.slc.cpg/sg70_12_cif.got.tgz:22308.got - 2010.04.16 13:46:32.
