data_PCOD8286923
_publ_section_title
;
Structure prediction by ZEFSAII (Michael W. Deem and Ramdas Pophale) SiO2 
 PCOD8286923
Probable space group: I M M M
;
_chemical_formula_sum "Si O2"
_cell_formula_units_Z 128
_cell_length_a 17.258950
_cell_length_b 28.452041
_cell_length_c 18.515930
_cell_angle_alpha 90.000000
_cell_angle_beta 90.000000
_cell_angle_gamma 90.000000
_cell_volume 9092.290995
_symmetry_space_group_name_H-M "I M M M"
_symmetry_group_IT_number 71
_symmetry_cell_setting 'orthorhombic'
loop_
_space_group_symop_operation_xyz
x,y,z
-x,-y,z
x,-y,-z
-x,y,-z
-x,-y,-z
x,y,-z
-x,y,z
x,-y,z
1/2+x,1/2+y,1/2+z
1/2-x,1/2-y,1/2+z
1/2+x,1/2-y,1/2-z
1/2-x,1/2+y,1/2-z
1/2-x,1/2-y,1/2-z
1/2+x,1/2+y,1/2-z
1/2-x,1/2+y,1/2+z
1/2+x,1/2-y,1/2+z
loop_
_atom_site_type_symbol
_atom_site_label
_atom_site_fract_x
_atom_site_fract_y
_atom_site_fract_z
Si Si1 0.085557 0.765773 0.789211
Si Si2 0.740468 0.446406 0.916360
Si Si3 0.656178 0.310958 0.840133
Si Si4 0.914651 0.334643 0.285960
Si Si5 0.407995 0.210800 0.420174
Si Si6 0.409433 0.222326 0.082821
Si Si7 0.816419 0.637748 0.839360
Si Si8 0.086142 0.103924 0.417573
O O1 0.139982 0.800841 0.744503
O O2 0.080329 0.716370 0.749178
O O3 0.119890 0.754159 0.868904
O O4 0.000000 0.788431 0.794468
O O5 0.757369 0.500000 0.895205
O O6 0.794432 0.414196 0.865983
O O7 0.649662 0.436163 0.901437
O O8 0.760562 0.436568 0.000000
O O9 0.643066 0.265578 0.890161
O O10 0.744280 0.327022 0.844660
O O11 0.598767 0.351631 0.866313
O O12 0.890923 0.324730 0.369708
O O13 0.851297 0.365739 0.242302
O O14 0.000000 0.358839 0.281911
O O15 0.375379 0.220607 0.500000
O O16 0.500000 0.208345 0.418769
O O17 0.379910 0.159944 0.392607
O O18 0.500000 0.236102 0.092328
O O19 0.389004 0.210903 0.000000
O O20 0.094474 0.121569 0.500000
O O21 0.000000 0.083243 0.403449
#
# Coordination Sequence:
#
# PCOD8286923 Si02
#       8
#    16  16  16  16  16  16  16  16
#     4   8  14  24  36  50  71  98 124 151 180 206
#     4   9  18  30  41  55  75  96 118 149 192 232
#     4  10  17  23  34  54  78 102 128 154 180 210
#     4   8  15  27  40  53  70  96 128 155 181 217
#     4   9  17  28  40  52  67  93 130 162 184 211
#     4   9  16  25  37  54  79 107 128 149 179 211
#     4  10  18  27  40  55  71  94 124 157 190 220
#     4   9  16  25  38  55  74  99 130 156 176 207
#
# _framework density 14.077859999999999
#
# number of rings (size 3 to 8) (size 9 to 14) (size 15 to 20)
#    0.000    3.000    0.000    3.750    0.000    7.250 
#    0.000    1.250    0.000    1.500    0.000    4.375 
#    0.000    0.500    0.000    3.500    0.000    1.000 
#
# Total GULP energy -793088.893335 kJ/mol
# GULP energy per Si atom -12392.013958 kJ/mol
# Density = 1.404582 g / cm^3
# Si number density = 14.077860 Si / 1000 Ang^3
#
#
#
# Elastic Constant Matrix: (Units=GPa)
#
#
# Indices 1 2 3 4 5 6 
#
# 1 46.2911 29.3711 31.1207 0.0000 0.0000 0.0000
# 2 29.3711 63.8608 43.0097 0.0004 0.0000 0.0000
# 3 31.1207 43.0097 107.0379 0.0003 0.0000 0.0000
# 4 0.0000 0.0004 0.0003 17.0378 0.0000 0.0000
# 5 0.0000 0.0000 0.0000 0.0000 17.9422 0.0000
# 6 0.0000 0.0000 0.0000 0.0000 0.0000 10.4568
#
#
#
# Elastic Compliance Matrix: (Units=1/GPa)
#
#
# Indices 1 2 3 4 5 6 
#
# 1 0.032118 -0.011630 -0.004665 0.000000 0.000000 0.000000
# 2 -0.011630 0.025680 -0.006937 -0.000001 0.000000 0.000000
# 3 -0.004665 -0.006937 0.013486 0.000000 0.000000 0.000000
# 4 0.000000 -0.000001 0.000000 0.058693 0.000000 0.000000
# 5 0.000000 0.000000 0.000000 0.000000 0.055735 0.000000
# 6 0.000000 0.000000 0.000000 0.000000 0.000000 0.095632
#
#
# Mechanical properties :
#
#
# Convention : Reuss Voigt Hill
#
# Bulk Modulus (GPa) = 40.29060 47.13256 43.71158
# Shear Modulus (GPa) = 14.87735 16.66657 15.77196
#
# Velocity S-wave (km/s) = 3.25436 3.44450 3.35078
# Velocity P-wave (km/s) = 6.54241 7.02652 6.78878
#
# Compressibility (1/GPa) = 0.02481969
#
# Stress axis : x y z
#
# Youngs Moduli (GPa) = 31.13563 38.94051 74.14884
#
# Poissons Ratio (x) = 0.45287 0.34590
# Poissons Ratio (y) = 0.36210 0.51440
# Poissons Ratio (z) = 0.14525 0.27015
#
# Static dielectric constant tensor:
#      x y z
#    x 2.802550 0.000000 0.000000 
#    y 0.000000 2.411960 0.000000 
#    z 0.000000 0.000000 3.234450 
# 
# 
# High freq. dielectric constant tensor:
#      x y z
#    x 1.540460 0.000000 0.000000 
#    y 0.000000 1.483500 0.000000 
#    z 0.000000 0.000000 1.534830 
# 
# From -- ./inp_files/54505.got.cif
#   From: 2010.06.25/outbox.cif.g09.slc.cpg/sg71_28_cif.got.tgz:54505.got - 2010.06.28 04:59:45.
