data_PCOD8286303
_publ_section_title
;
Structure prediction by ZEFSAII (Michael W. Deem and Ramdas Pophale) SiO2 
 PCOD8286303
Probable space group: F D D D
;
_chemical_formula_sum "Si O2"
_cell_formula_units_Z 160
_cell_length_a 11.855052
_cell_length_b 20.820456
_cell_length_c 31.463889
_cell_angle_alpha 90.000000
_cell_angle_beta 90.000000
_cell_angle_gamma 90.000000
_cell_volume 7766.155848
_symmetry_space_group_name_H-M "F D D D"
_symmetry_group_IT_number 70
_space_group.IT_coordinate_system_code '2'
_symmetry_cell_setting 'orthorhombic'
loop_
_space_group_symop_operation_xyz
x,y,z
1/4-x,1/4-y,z
x,1/4-y,1/4-z
1/4-x,y,1/4-z
-x,-y,-z
3/4+x,3/4+y,-z
-x,3/4+y,3/4+z
3/4+x,-y,3/4+z
x,1/2+y,1/2+z
1/4-x,3/4-y,1/2+z
x,3/4-y,3/4-z
1/4-x,1/2+y,3/4-z
-x,1/2-y,1/2-z
3/4+x,1/4+y,1/2-z
-x,1/4+y,1/4+z
3/4+x,1/2-y,1/4+z
1/2+x,y,1/2+z
3/4-x,1/4-y,1/2+z
1/2+x,1/4-y,3/4-z
3/4-x,y,3/4-z
1/2-x,-y,1/2-z
1/4+x,3/4+y,1/2-z
1/2-x,3/4+y,1/4+z
1/4+x,-y,1/4+z
1/2+x,1/2+y,z
3/4-x,3/4-y,z
1/2+x,3/4-y,1/4-z
3/4-x,1/2+y,1/4-z
1/2-x,1/2-y,-z
1/4+x,1/4+y,-z
1/2-x,1/4+y,3/4+z
1/4+x,1/2-y,3/4+z
loop_
_atom_site_type_symbol
_atom_site_label
_atom_site_fract_x
_atom_site_fract_y
_atom_site_fract_z
Si Si1 0.875000 0.211516 0.875000
Si Si2 0.774305 0.523904 0.084923
Si Si3 0.254618 0.618776 0.938213
Si Si4 0.454177 0.562145 0.650511
Si Si5 0.125000 0.125000 0.051197
Si Si6 0.359952 0.631269 0.726894
O O1 0.787782 0.169104 0.901902
O O2 0.798974 0.257539 0.845784
O O3 0.729378 0.452187 0.079873
O O4 0.839742 0.534492 0.129136
O O5 0.661564 0.567215 0.082671
O O6 0.858085 0.548206 0.046381
O O7 0.125000 0.625000 0.952080
O O8 0.335993 0.634632 0.977158
O O9 0.497024 0.625000 0.625000
O O10 0.430073 0.580716 0.698951
O O11 0.230184 0.144089 0.020580
#
# Coordination Sequence:
#
# PCOD8286303 Si02
#       6
#    16  32  32  32  16  32
#     4  12  27  44  66 101 146 182 232 278 360 421
#     4   9  21  44  67 100 134 176 234 277 350 401
#     4  12  26  46  66 103 143 187 222 291 356 412
#     4  10  21  43  70 100 129 183 230 287 337 418
#     4   8  20  43  64 106 126 182 230 292 330 410
#     4   9  23  41  73 102 129 181 233 287 334 416
#
# _framework density 20.602214
#
# number of rings (size 3 to 8) (size 9 to 14) (size 15 to 20)
#    1.200    0.800    2.000    0.300    2.800    8.000 
#    1.800    0.000    0.000    0.000    0.000    0.000 
#    0.000    0.000    0.000    0.000    0.000    0.000 
#
# Total GULP energy -495671.347132 kJ/mol
# GULP energy per Si atom -12391.783678 kJ/mol
# Density = 2.055532 g / cm^3
# Si number density = 20.602214 Si / 1000 Ang^3
#
#
#
# Elastic Constant Matrix: (Units=GPa)
#
#
# Indices 1 2 3 4 5 6 
#
# 1 112.1686 36.5157 13.2428 0.0000 0.0000 0.0000
# 2 36.5157 128.8157 19.6452 0.0000 0.0000 0.0000
# 3 13.2428 19.6452 57.5392 0.0000 0.0000 0.0000
# 4 0.0000 0.0000 0.0000 19.8893 0.0000 0.0000
# 5 0.0000 0.0000 0.0000 0.0000 18.1055 0.0000
# 6 0.0000 0.0000 0.0000 0.0000 0.0000 42.1330
#
#
#
# Elastic Compliance Matrix: (Units=1/GPa)
#
#
# Indices 1 2 3 4 5 6 
#
# 1 0.009927 -0.002601 -0.001397 0.000000 0.000000 0.000000
# 2 -0.002601 0.008871 -0.002430 0.000000 0.000000 0.000000
# 3 -0.001397 -0.002430 0.018531 0.000000 0.000000 0.000000
# 4 0.000000 0.000000 0.000000 0.050278 0.000000 0.000000
# 5 0.000000 0.000000 0.000000 0.000000 0.055232 0.000000
# 6 0.000000 0.000000 0.000000 0.000000 0.000000 0.023734
#
#
# Mechanical properties :
#
#
# Convention : Reuss Voigt Hill
#
# Bulk Modulus (GPa) = 40.86164 48.59234 44.72699
# Shear Modulus (GPa) = 26.65446 31.30021 28.97733
#
# Velocity S-wave (km/s) = 3.60080 3.90200 3.75442
# Velocity P-wave (km/s) = 6.09626 6.62858 6.36798
#
# Compressibility (1/GPa) = 0.02447283
#
# Stress axis : x y z
#
# Youngs Moduli (GPa) = 100.73769 112.72762 53.96483
#
# Poissons Ratio (x) = 0.29320 0.07537
# Poissons Ratio (y) = 0.26202 0.13114
# Poissons Ratio (z) = 0.14069 0.27394
#
# Static dielectric constant tensor:
#      x y z
#    x 3.697040 0.000000 0.000000 
#    y 0.000000 3.736270 0.000000 
#    z 0.000000 0.000000 3.316610 
# 
# 
# High freq. dielectric constant tensor:
#      x y z
#    x 1.813920 0.000000 0.000000 
#    y 0.000000 1.805130 0.000000 
#    z 0.000000 0.000000 1.778040 
# 
# From -- ./inp_files/65692.got.cif
#   From: 2010.03.12/outbox.cif.g09.slc.cpg/sg70_33_cif.got.tgz:65692.got - 2010.04.16 13:46:32.
