data_PCOD8286530
_publ_section_title
;
Structure prediction by ZEFSAII (Michael W. Deem and Ramdas Pophale) SiO2 
 PCOD8286530
Probable space group: F D D D
;
_chemical_formula_sum "Si O2"
_cell_formula_units_Z 112
_cell_length_a 15.669407
_cell_length_b 28.504303
_cell_length_c 10.625286
_cell_angle_alpha 90.000000
_cell_angle_beta 90.000000
_cell_angle_gamma 90.000000
_cell_volume 4745.736443
_symmetry_space_group_name_H-M "F D D D"
_symmetry_group_IT_number 70
_space_group.IT_coordinate_system_code '2'
_symmetry_cell_setting 'orthorhombic'
loop_
_space_group_symop_operation_xyz
x,y,z
1/4-x,1/4-y,z
x,1/4-y,1/4-z
1/4-x,y,1/4-z
-x,-y,-z
3/4+x,3/4+y,-z
-x,3/4+y,3/4+z
3/4+x,-y,3/4+z
x,1/2+y,1/2+z
1/4-x,3/4-y,1/2+z
x,3/4-y,3/4-z
1/4-x,1/2+y,3/4-z
-x,1/2-y,1/2-z
3/4+x,1/4+y,1/2-z
-x,1/4+y,1/4+z
3/4+x,1/2-y,1/4+z
1/2+x,y,1/2+z
3/4-x,1/4-y,1/2+z
1/2+x,1/4-y,3/4-z
3/4-x,y,3/4-z
1/2-x,-y,1/2-z
1/4+x,3/4+y,1/2-z
1/2-x,3/4+y,1/4+z
1/4+x,-y,1/4+z
1/2+x,1/2+y,z
3/4-x,3/4-y,z
1/2+x,3/4-y,1/4-z
3/4-x,1/2+y,1/4-z
1/2-x,1/2-y,-z
1/4+x,1/4+y,-z
1/2-x,1/4+y,3/4+z
1/4+x,1/2-y,3/4+z
loop_
_atom_site_type_symbol
_atom_site_label
_atom_site_fract_x
_atom_site_fract_y
_atom_site_fract_z
Si Si1 0.148301 0.676594 0.980682
Si Si2 0.375000 0.007634 0.375000
Si Si3 0.913295 0.095276 0.497242
Si Si4 0.935844 0.231245 0.116264
O O1 0.125000 0.625000 0.929483
O O2 0.249256 0.681274 0.965085
O O3 0.095832 0.715136 0.901956
O O4 0.125000 0.682866 0.125000
O O5 0.357676 0.037396 0.247605
O O6 0.288383 0.976657 0.385348
O O7 0.922735 0.125000 0.625000
O O8 0.875000 0.123704 0.375000
O O9 0.845735 0.053305 0.509544
#
# Coordination Sequence:
#
# PCOD8286530 Si02
#       4
#    32  16  32  32
#     4  11  22  43  70  99 130 185 244 290 336 419
#     4  10  24  40  67 100 138 192 216 288 355 414
#     4  12  26  43  70 105 140 184 234 293 354 419
#     4  11  23  43  68 100 142 184 232 285 354 416
#
# _framework density 23.600131000000001
#
# number of rings (size 3 to 8) (size 9 to 14) (size 15 to 20)
#    0.000    0.857    2.857    5.143    2.000    2.286 
#    0.000    1.429    0.000    0.000    0.000    0.000 
#    0.000    0.000    0.000    0.000    0.000    0.000 
#
# Total GULP energy -346927.086531 kJ/mol
# GULP energy per Si atom -12390.253090 kJ/mol
# Density = 2.354642 g / cm^3
# Si number density = 23.600131 Si / 1000 Ang^3
#
#
#
# Elastic Constant Matrix: (Units=GPa)
#
#
# Indices 1 2 3 4 5 6 
#
# 1 194.8835 30.4761 70.8442 0.0000 0.0000 0.0000
# 2 30.4761 90.3462 26.2550 0.0000 0.0000 0.0000
# 3 70.8442 26.2550 112.3322 0.0000 0.0000 0.0000
# 4 0.0000 0.0000 0.0000 20.0931 0.0000 0.0000
# 5 0.0000 0.0000 0.0000 0.0000 38.4392 0.0000
# 6 0.0000 0.0000 0.0000 0.0000 0.0000 22.7052
#
#
#
# Elastic Compliance Matrix: (Units=1/GPa)
#
#
# Indices 1 2 3 4 5 6 
#
# 1 0.006761 -0.001117 -0.004003 0.000000 0.000000 0.000000
# 2 -0.001117 0.012060 -0.002114 0.000000 0.000000 0.000000
# 3 -0.004003 -0.002114 0.011921 0.000000 0.000000 0.000000
# 4 0.000000 0.000000 0.000000 0.049768 0.000000 0.000000
# 5 0.000000 0.000000 0.000000 0.000000 0.026015 0.000000
# 6 0.000000 0.000000 0.000000 0.000000 0.000000 0.044043
#
#
# Mechanical properties :
#
#
# Convention : Reuss Voigt Hill
#
# Bulk Modulus (GPa) = 61.45091 72.52360 66.98726
# Shear Modulus (GPa) = 29.33228 34.24662 31.78945
#
# Velocity S-wave (km/s) = 3.52928 3.81349 3.67414
# Velocity P-wave (km/s) = 6.53473 7.08429 6.81505
#
# Compressibility (1/GPa) = 0.01627315
#
# Stress axis : x y z
#
# Youngs Moduli (GPa) = 147.90407 82.92007 83.88762
#
# Poissons Ratio (x) = 0.09266 0.33579
# Poissons Ratio (y) = 0.16528 0.17733
# Poissons Ratio (z) = 0.59204 0.17529
#
# Static dielectric constant tensor:
#      x y z
#    x 4.416130 0.000000 0.000000 
#    y 0.000000 3.886980 0.000000 
#    z 0.000000 0.000000 4.522600 
# 
# 
# High freq. dielectric constant tensor:
#      x y z
#    x 1.956320 0.000000 0.000000 
#    y 0.000000 1.902650 0.000000 
#    z 0.000000 0.000000 1.952840 
# 
# From -- ./inp_files/14992.got.cif
#   From: 2010.03.12/outbox.cif.g09.slc.cpg/sg70_8_cif.got.tgz:14992.got - 2010.04.16 13:46:32.
