data_PCOD8286666
_publ_section_title
;
Structure prediction by ZEFSAII (Michael W. Deem and Ramdas Pophale) SiO2 
 PCOD8286666
Probable space group: F D D D
;
_chemical_formula_sum "Si O2"
_cell_formula_units_Z 112
_cell_length_a 26.282792
_cell_length_b 17.697385
_cell_length_c 9.769954
_cell_angle_alpha 90.000000
_cell_angle_beta 90.000000
_cell_angle_gamma 90.000000
_cell_volume 4544.364054
_symmetry_space_group_name_H-M "F D D D"
_symmetry_group_IT_number 70
_space_group.IT_coordinate_system_code '2'
_symmetry_cell_setting 'orthorhombic'
loop_
_space_group_symop_operation_xyz
x,y,z
1/4-x,1/4-y,z
x,1/4-y,1/4-z
1/4-x,y,1/4-z
-x,-y,-z
3/4+x,3/4+y,-z
-x,3/4+y,3/4+z
3/4+x,-y,3/4+z
x,1/2+y,1/2+z
1/4-x,3/4-y,1/2+z
x,3/4-y,3/4-z
1/4-x,1/2+y,3/4-z
-x,1/2-y,1/2-z
3/4+x,1/4+y,1/2-z
-x,1/4+y,1/4+z
3/4+x,1/2-y,1/4+z
1/2+x,y,1/2+z
3/4-x,1/4-y,1/2+z
1/2+x,1/4-y,3/4-z
3/4-x,y,3/4-z
1/2-x,-y,1/2-z
1/4+x,3/4+y,1/2-z
1/2-x,3/4+y,1/4+z
1/4+x,-y,1/4+z
1/2+x,1/2+y,z
3/4-x,3/4-y,z
1/2+x,3/4-y,1/4-z
3/4-x,1/2+y,1/4-z
1/2-x,1/2-y,-z
1/4+x,1/4+y,-z
1/2-x,1/4+y,3/4+z
1/4+x,1/2-y,3/4+z
loop_
_atom_site_type_symbol
_atom_site_label
_atom_site_fract_x
_atom_site_fract_y
_atom_site_fract_z
Si Si1 0.375000 0.566687 0.375000
Si Si2 0.775466 0.450487 0.435369
Si Si3 0.176092 0.449124 0.777152
Si Si4 0.596521 0.547433 0.418222
O O1 0.402261 0.616602 0.257640
O O2 0.412788 0.508780 0.453859
O O3 0.801528 0.375000 0.375000
O O4 0.794808 0.526176 0.360656
O O5 0.714621 0.445816 0.408261
O O6 0.790912 0.446213 0.596096
O O7 0.132367 0.509086 0.804636
O O8 0.625000 0.625000 0.463202
#
# Coordination Sequence:
#
# PCOD8286666 Si02
#       4
#    16  32  32  32
#     4  12  25  44  71 110 152 188 234 322 379 418
#     4  11  22  42  72 104 136 190 250 296 352 456
#     4  11  24  42  72 104 138 186 251 301 359 441
#     4  12  24  45  74 103 146 197 241 300 377 439
#
# _framework density 24.645913
#
# number of rings (size 3 to 8) (size 9 to 14) (size 15 to 20)
#    0.000    0.571    5.714    3.000    0.000    0.000 
#    0.000    5.714   12.571    0.000    0.000    0.000 
#    0.000    0.000    0.000    0.000    0.000    0.000 
#
# Total GULP energy -346897.960477 kJ/mol
# GULP energy per Si atom -12389.212874 kJ/mol
# Density = 2.458982 g / cm^3
# Si number density = 24.645913 Si / 1000 Ang^3
#
#
#
# Elastic Constant Matrix: (Units=GPa)
#
#
# Indices 1 2 3 4 5 6 
#
# 1 87.4940 30.6272 41.8790 0.0000 0.0000 0.0000
# 2 30.6272 157.0548 39.0719 0.0000 0.0000 0.0000
# 3 41.8790 39.0719 98.2617 -0.0001 0.0000 0.0000
# 4 0.0000 0.0000 -0.0001 63.0279 0.0000 0.0000
# 5 0.0000 0.0000 0.0000 0.0000 38.9016 0.0000
# 6 0.0000 0.0000 0.0000 0.0000 0.0000 30.7273
#
#
#
# Elastic Compliance Matrix: (Units=1/GPa)
#
#
# Indices 1 2 3 4 5 6 
#
# 1 0.014649 -0.001447 -0.005668 0.000000 0.000000 0.000000
# 2 -0.001447 0.007209 -0.002250 0.000000 0.000000 0.000000
# 3 -0.005668 -0.002250 0.013487 0.000000 0.000000 0.000000
# 4 0.000000 0.000000 0.000000 0.015866 0.000000 0.000000
# 5 0.000000 0.000000 0.000000 0.000000 0.025706 0.000000
# 6 0.000000 0.000000 0.000000 0.000000 0.000000 0.032544
#
#
# Mechanical properties :
#
#
# Convention : Reuss Voigt Hill
#
# Bulk Modulus (GPa) = 60.18367 62.88518 61.53442
# Shear Modulus (GPa) = 37.38899 41.94687 39.66793
#
# Velocity S-wave (km/s) = 3.89915 4.12998 4.01623
# Velocity P-wave (km/s) = 6.68906 6.95077 6.82117
#
# Compressibility (1/GPa) = 0.01661580
#
# Stress axis : x y z
#
# Youngs Moduli (GPa) = 68.26519 138.71446 74.14376
#
# Poissons Ratio (x) = 0.20066 0.42025
# Poissons Ratio (y) = 0.09875 0.16683
# Poissons Ratio (z) = 0.38693 0.31211
#
# Static dielectric constant tensor:
#      x y z
#    x 4.219770 0.000000 0.000000 
#    y 0.000000 4.748840 0.000000 
#    z 0.000000 0.000000 4.243950 
# 
# 
# High freq. dielectric constant tensor:
#      x y z
#    x 1.959830 0.000000 0.000000 
#    y 0.000000 2.005970 0.000000 
#    z 0.000000 0.000000 1.976480 
# 
# From -- ./inp_files/20255.got.cif
#   From: 2010.03.12/outbox.cif.g09.slc.cpg/sg70_11_cif.got.tgz:20255.got - 2010.04.16 13:46:32.
