data_PCOD8286625
_publ_section_title
;
Structure prediction by ZEFSAII (Michael W. Deem and Ramdas Pophale) SiO2 
 PCOD8286625
Probable space group: F D D D
;
_chemical_formula_sum "Si O2"
_cell_formula_units_Z 176
_cell_length_a 24.990604
_cell_length_b 18.332967
_cell_length_c 18.686059
_cell_angle_alpha 90.000000
_cell_angle_beta 90.000000
_cell_angle_gamma 90.000000
_cell_volume 8561.053779
_symmetry_space_group_name_H-M "F D D D"
_symmetry_group_IT_number 70
_space_group.IT_coordinate_system_code '2'
_symmetry_cell_setting 'orthorhombic'
loop_
_space_group_symop_operation_xyz
x,y,z
1/4-x,1/4-y,z
x,1/4-y,1/4-z
1/4-x,y,1/4-z
-x,-y,-z
3/4+x,3/4+y,-z
-x,3/4+y,3/4+z
3/4+x,-y,3/4+z
x,1/2+y,1/2+z
1/4-x,3/4-y,1/2+z
x,3/4-y,3/4-z
1/4-x,1/2+y,3/4-z
-x,1/2-y,1/2-z
3/4+x,1/4+y,1/2-z
-x,1/4+y,1/4+z
3/4+x,1/2-y,1/4+z
1/2+x,y,1/2+z
3/4-x,1/4-y,1/2+z
1/2+x,1/4-y,3/4-z
3/4-x,y,3/4-z
1/2-x,-y,1/2-z
1/4+x,3/4+y,1/2-z
1/2-x,3/4+y,1/4+z
1/4+x,-y,1/4+z
1/2+x,1/2+y,z
3/4-x,3/4-y,z
1/2+x,3/4-y,1/4-z
3/4-x,1/2+y,1/4-z
1/2-x,1/2-y,-z
1/4+x,1/4+y,-z
1/2-x,1/4+y,3/4+z
1/4+x,1/2-y,3/4+z
loop_
_atom_site_type_symbol
_atom_site_label
_atom_site_fract_x
_atom_site_fract_y
_atom_site_fract_z
Si Si1 0.382809 0.613122 0.794738
Si Si2 0.964712 0.020368 0.721676
Si Si3 0.941614 0.758604 0.279496
Si Si4 0.725175 0.125000 0.125000
Si Si5 0.360691 0.455234 0.140373
Si Si6 0.698459 0.318029 0.315003
O O1 0.375000 0.586580 0.875000
O O2 0.410575 0.542432 0.761382
O O3 0.422609 0.679985 0.801798
O O4 0.331710 0.636765 0.747431
O O5 0.990545 0.095573 0.692365
O O6 0.943061 0.976221 0.653077
O O7 0.003612 0.975393 0.775015
O O8 0.939083 0.807515 0.350620
O O9 0.904286 0.799501 0.223202
O O10 0.000000 0.750000 0.250000
O O11 0.375000 0.375000 0.111850
O O12 0.409788 0.513416 0.139382
O O13 0.720858 0.375000 0.375000
#
# Coordination Sequence:
#
# PCOD8286625 Si02
#       6
#    32  32  32  16  32  32
#     4  11  24  42  64  98 134 174 231 290 344 423
#     4  12  23  42  71  92 134 187 229 290 360 409
#     4  11  21  37  64  93 133 172 215 274 362 420
#     4  12  20  36  67 100 128 168 220 276 357 426
#     4  11  24  42  64  98 134 174 231 290 344 423
#     4  11  24  45  69  98 139 189 232 284 361 432
#
# _framework density 20.558216000000002
#
# number of rings (size 3 to 8) (size 9 to 14) (size 15 to 20)
#    0.000    0.727    5.455    3.273    0.000    1.455 
#    3.273    5.455    0.000    0.000    0.000    0.000 
#    0.000    0.000    0.000    0.000    0.000    0.000 
#
# Total GULP energy -545290.426013 kJ/mol
# GULP energy per Si atom -12392.964228 kJ/mol
# Density = 2.051142 g / cm^3
# Si number density = 20.558216 Si / 1000 Ang^3
#
#
#
# Elastic Constant Matrix: (Units=GPa)
#
#
# Indices 1 2 3 4 5 6 
#
# 1 68.5279 24.8296 20.5254 0.0000 0.0000 0.0000
# 2 24.8296 75.0841 31.1098 0.0000 0.0000 0.0000
# 3 20.5254 31.1098 100.0676 0.0000 0.0000 0.0000
# 4 0.0000 0.0000 0.0000 46.8395 0.0000 0.0000
# 5 0.0000 0.0000 0.0000 0.0000 41.7151 0.0000
# 6 0.0000 0.0000 0.0000 0.0000 0.0000 30.9455
#
#
#
# Elastic Compliance Matrix: (Units=1/GPa)
#
#
# Indices 1 2 3 4 5 6 
#
# 1 0.016916 -0.004771 -0.001987 0.000000 0.000000 0.000000
# 2 -0.004771 0.016633 -0.004192 0.000000 0.000000 0.000000
# 3 -0.001987 -0.004192 0.011704 0.000000 0.000000 0.000000
# 4 0.000000 0.000000 0.000000 0.021350 0.000000 0.000000
# 5 0.000000 0.000000 0.000000 0.000000 0.023972 0.000000
# 6 0.000000 0.000000 0.000000 0.000000 0.000000 0.032315
#
#
# Mechanical properties :
#
#
# Convention : Reuss Voigt Hill
#
# Bulk Modulus (GPa) = 42.81994 44.06770 43.44382
# Shear Modulus (GPa) = 32.77088 35.04769 33.90929
#
# Velocity S-wave (km/s) = 3.99689 4.13340 4.06572
# Velocity P-wave (km/s) = 6.49415 6.65298 6.57405
#
# Compressibility (1/GPa) = 0.02335360
#
# Stress axis : x y z
#
# Youngs Moduli (GPa) = 59.11474 60.12079 85.44014
#
# Poissons Ratio (x) = 0.28683 0.16973
# Poissons Ratio (y) = 0.28203 0.35820
# Poissons Ratio (z) = 0.11743 0.25205
#
# Static dielectric constant tensor:
#      x y z
#    x 3.798680 0.000000 0.000000 
#    y 0.000000 3.984200 0.000000 
#    z 0.000000 0.000000 3.639810 
# 
# 
# High freq. dielectric constant tensor:
#      x y z
#    x 1.791470 0.000000 0.000000 
#    y 0.000000 1.802800 0.000000 
#    z 0.000000 0.000000 1.810870 
# 
# From -- ./inp_files/35254.got.cif
#   From: 2010.03.12/outbox.cif.g09.slc.cpg/sg70_18_cif.got.tgz:35254.got - 2010.04.16 13:46:32.
