data_PCOD8286175
_publ_section_title
;
Structure prediction by ZEFSAII (Michael W. Deem and Ramdas Pophale) SiO2 
 PCOD8286175
Probable space group: F D D D
;
_chemical_formula_sum "Si O2"
_cell_formula_units_Z 160
_cell_length_a 23.294941
_cell_length_b 23.526859
_cell_length_c 13.474475
_cell_angle_alpha 90.000000
_cell_angle_beta 90.000000
_cell_angle_gamma 90.000000
_cell_volume 7384.777547
_symmetry_space_group_name_H-M "F D D D"
_symmetry_group_IT_number 70
_space_group.IT_coordinate_system_code '2'
_symmetry_cell_setting 'orthorhombic'
loop_
_space_group_symop_operation_xyz
x,y,z
1/4-x,1/4-y,z
x,1/4-y,1/4-z
1/4-x,y,1/4-z
-x,-y,-z
3/4+x,3/4+y,-z
-x,3/4+y,3/4+z
3/4+x,-y,3/4+z
x,1/2+y,1/2+z
1/4-x,3/4-y,1/2+z
x,3/4-y,3/4-z
1/4-x,1/2+y,3/4-z
-x,1/2-y,1/2-z
3/4+x,1/4+y,1/2-z
-x,1/4+y,1/4+z
3/4+x,1/2-y,1/4+z
1/2+x,y,1/2+z
3/4-x,1/4-y,1/2+z
1/2+x,1/4-y,3/4-z
3/4-x,y,3/4-z
1/2-x,-y,1/2-z
1/4+x,3/4+y,1/2-z
1/2-x,3/4+y,1/4+z
1/4+x,-y,1/4+z
1/2+x,1/2+y,z
3/4-x,3/4-y,z
1/2+x,3/4-y,1/4-z
3/4-x,1/2+y,1/4-z
1/2-x,1/2-y,-z
1/4+x,1/4+y,-z
1/2-x,1/4+y,3/4+z
1/4+x,1/2-y,3/4+z
loop_
_atom_site_type_symbol
_atom_site_label
_atom_site_fract_x
_atom_site_fract_y
_atom_site_fract_z
Si Si1 0.719188 0.875000 0.875000
Si Si2 0.994110 0.236398 0.633991
Si Si3 0.121164 0.967681 0.822929
Si Si4 0.254260 0.137923 0.333825
Si Si5 0.625000 0.904351 0.125000
Si Si6 0.574917 0.583538 0.751320
O O1 0.678413 0.930168 0.878222
O O2 0.760424 0.882100 0.778505
O O3 0.929123 0.215904 0.610367
O O4 0.000000 0.250000 0.750000
O O5 0.007802 0.293705 0.574402
O O6 0.037803 0.187566 0.594036
O O7 0.139892 0.945375 0.715823
O O8 0.100880 0.032291 0.814138
O O9 0.319136 0.115354 0.355381
O O10 0.212381 0.118071 0.418963
O O11 0.625000 0.625000 0.712117
#
# Coordination Sequence:
#
# PCOD8286175 Si02
#       6
#    16  32  32  32  16  32
#     4  10  24  46  73  92 143 194 238 306 364 446
#     4  12  24  44  66 105 149 183 230 301 373 431
#     4  11  22  43  66  98 141 185 237 292 363 433
#     4  11  24  44  69 101 139 187 245 297 364 436
#     4  10  20  44  61  96 138 183 224 292 354 430
#     4  12  26  45  74 110 140 187 249 302 361 439
#
# _framework density 21.666191000000001
#
# number of rings (size 3 to 8) (size 9 to 14) (size 15 to 20)
#    0.000    0.800    8.000    0.000    5.600    1.600 
#    7.200    0.500    0.000    0.000    0.000    0.000 
#    0.000    0.000    0.000    0.000    0.000    0.000 
#
# Total GULP energy -495890.324868 kJ/mol
# GULP energy per Si atom -12397.258122 kJ/mol
# Density = 2.161688 g / cm^3
# Si number density = 21.666191 Si / 1000 Ang^3
#
#
#
# Elastic Constant Matrix: (Units=GPa)
#
#
# Indices 1 2 3 4 5 6 
#
# 1 113.9814 32.2207 46.9744 0.0000 0.0000 0.0000
# 2 32.2207 98.6042 36.8161 0.0000 0.0000 0.0000
# 3 46.9744 36.8161 141.8466 0.0000 0.0000 0.0000
# 4 0.0000 0.0000 0.0000 20.9789 0.0000 0.0000
# 5 0.0000 0.0000 0.0000 0.0000 30.0240 0.0000
# 6 0.0000 0.0000 0.0000 0.0000 0.0000 30.9699
#
#
#
# Elastic Compliance Matrix: (Units=1/GPa)
#
#
# Indices 1 2 3 4 5 6 
#
# 1 0.010647 -0.002395 -0.002904 0.000000 0.000000 0.000000
# 2 -0.002395 0.011768 -0.002261 0.000000 0.000000 0.000000
# 3 -0.002904 -0.002261 0.008599 0.000000 0.000000 0.000000
# 4 0.000000 0.000000 0.000000 0.047667 0.000000 0.000000
# 5 0.000000 0.000000 0.000000 0.000000 0.033307 0.000000
# 6 0.000000 0.000000 0.000000 0.000000 0.000000 0.032289
#
#
# Mechanical properties :
#
#
# Convention : Reuss Voigt Hill
#
# Bulk Modulus (GPa) = 62.92017 65.16163 64.04090
# Shear Modulus (GPa) = 30.35890 32.28931 31.32410
#
# Velocity S-wave (km/s) = 3.74734 3.86464 3.80644
# Velocity P-wave (km/s) = 6.91572 7.07492 6.99577
#
# Compressibility (1/GPa) = 0.01589315
#
# Stress axis : x y z
#
# Youngs Moduli (GPa) = 93.92037 84.97303 116.29715
#
# Poissons Ratio (x) = 0.20349 0.33778
# Poissons Ratio (y) = 0.22492 0.26300
# Poissons Ratio (z) = 0.27279 0.19216
#
# Static dielectric constant tensor:
#      x y z
#    x 4.184390 0.000000 0.000000 
#    y 0.000000 3.895540 0.000000 
#    z 0.000000 0.000000 3.865460 
# 
# 
# High freq. dielectric constant tensor:
#      x y z
#    x 1.858540 0.000000 0.000000 
#    y 0.000000 1.842100 0.000000 
#    z 0.000000 0.000000 1.844010 
# 
# From -- ./inp_files/29946.got.cif
#   From: 2010.03.12/outbox.cif.g09.slc.cpg/sg70_15_cif.got.tgz:29946.got - 2010.04.16 13:46:32.
