data_PCOD8286562
_publ_section_title
;
Structure prediction by ZEFSAII (Michael W. Deem and Ramdas Pophale) SiO2 
 PCOD8286562
Probable space group: F D D D
;
_chemical_formula_sum "Si O2"
_cell_formula_units_Z 216
_cell_length_a 19.852373
_cell_length_b 21.352926
_cell_length_c 23.841441
_cell_angle_alpha 90.000000
_cell_angle_beta 90.000000
_cell_angle_gamma 90.000000
_cell_volume 10106.535887
_symmetry_space_group_name_H-M "F D D D"
_symmetry_group_IT_number 70
_space_group.IT_coordinate_system_code '2'
_symmetry_cell_setting 'orthorhombic'
loop_
_space_group_symop_operation_xyz
x,y,z
1/4-x,1/4-y,z
x,1/4-y,1/4-z
1/4-x,y,1/4-z
-x,-y,-z
3/4+x,3/4+y,-z
-x,3/4+y,3/4+z
3/4+x,-y,3/4+z
x,1/2+y,1/2+z
1/4-x,3/4-y,1/2+z
x,3/4-y,3/4-z
1/4-x,1/2+y,3/4-z
-x,1/2-y,1/2-z
3/4+x,1/4+y,1/2-z
-x,1/4+y,1/4+z
3/4+x,1/2-y,1/4+z
1/2+x,y,1/2+z
3/4-x,1/4-y,1/2+z
1/2+x,1/4-y,3/4-z
3/4-x,y,3/4-z
1/2-x,-y,1/2-z
1/4+x,3/4+y,1/2-z
1/2-x,3/4+y,1/4+z
1/4+x,-y,1/4+z
1/2+x,1/2+y,z
3/4-x,3/4-y,z
1/2+x,3/4-y,1/4-z
3/4-x,1/2+y,1/4-z
1/2-x,1/2-y,-z
1/4+x,1/4+y,-z
1/2-x,1/4+y,3/4+z
1/4+x,1/2-y,3/4+z
loop_
_atom_site_type_symbol
_atom_site_label
_atom_site_fract_x
_atom_site_fract_y
_atom_site_fract_z
Si Si1 0.798017 0.811630 0.275591
Si Si2 0.184343 0.438180 0.963883
Si Si3 0.609178 0.820437 0.973361
Si Si4 0.677755 0.729046 0.888127
Si Si5 0.068784 0.970415 0.078430
Si Si6 0.125000 0.125000 0.433383
Si Si7 0.625000 0.625000 0.625000
Si Si8 0.552863 0.108178 0.559996
O O1 0.828657 0.742952 0.259809
O O2 0.718700 0.804814 0.278630
O O3 0.812780 0.863208 0.226573
O O4 0.828200 0.831655 0.335617
O O5 0.120302 0.392242 0.953204
O O6 0.202425 0.468351 0.904695
O O7 0.248357 0.394243 0.978361
O O8 0.644820 0.764673 0.939889
O O9 0.641449 0.822934 0.035206
O O10 0.747121 0.689734 0.901658
O O11 0.621435 0.684990 0.857982
O O12 0.125000 0.986041 0.125000
O O13 0.042215 0.034705 0.050742
O O14 0.625000 0.125000 0.534227
O O15 0.547132 0.125000 0.625000
#
# Coordination Sequence:
#
# PCOD8286562 Si02
#       8
#    32  32  32  32  32  16   8  32
#     4  10  24  47  71  97 130 178 231 290 345 398
#     4  11  22  42  63  95 130 172 226 274 342 399
#     4  12  25  40  67 100 138 174 224 286 337 407
#     4  11  22  40  63  95 131 174 222 271 338 411
#     4  12  22  38  59  93 136 181 212 261 330 408
#     4   9  22  47  66  90 133 174 223 284 340 396
#     4  10  24  52  76  92 132 172 240 290 338 404
#     4  11  17  31  59  88 126 175 208 244 308 400
#
# _framework density 21.372308
#
# number of rings (size 3 to 8) (size 9 to 14) (size 15 to 20)
#    0.000    1.037    4.444    3.556    2.074    1.185 
#    5.333    2.222    0.000    0.000    0.000    0.000 
#    0.000    0.000    0.000    0.000    0.000    0.000 
#
# Total GULP energy -669100.958902 kJ/mol
# GULP energy per Si atom -12390.758498 kJ/mol
# Density = 2.132366 g / cm^3
# Si number density = 21.372308 Si / 1000 Ang^3
#
#
#
# Elastic Constant Matrix: (Units=GPa)
#
#
# Indices 1 2 3 4 5 6 
#
# 1 112.0173 40.0810 42.7027 0.0000 0.0000 0.0000
# 2 40.0810 78.9525 37.6284 0.0000 0.0000 0.0000
# 3 42.7027 37.6284 97.2158 0.0000 0.0000 0.0000
# 4 0.0000 0.0000 0.0000 18.4307 0.0000 0.0000
# 5 0.0000 0.0000 0.0000 0.0000 24.5586 0.0000
# 6 0.0000 0.0000 0.0000 0.0000 0.0000 21.6507
#
#
#
# Elastic Compliance Matrix: (Units=1/GPa)
#
#
# Indices 1 2 3 4 5 6 
#
# 1 0.011814 -0.004321 -0.003517 0.000000 0.000000 0.000000
# 2 -0.004321 0.017112 -0.004725 0.000000 0.000000 0.000000
# 3 -0.003517 -0.004725 0.013660 0.000000 0.000000 0.000000
# 4 0.000000 0.000000 0.000000 0.054257 0.000000 0.000000
# 5 0.000000 0.000000 0.000000 0.000000 0.040719 0.000000
# 6 0.000000 0.000000 0.000000 0.000000 0.000000 0.046188
#
#
# Mechanical properties :
#
#
# Convention : Reuss Voigt Hill
#
# Bulk Modulus (GPa) = 57.27614 58.77886 58.02750
# Shear Modulus (GPa) = 23.28875 24.11290 23.70083
#
# Velocity S-wave (km/s) = 3.30460 3.36256 3.33370
# Velocity P-wave (km/s) = 6.43567 6.52976 6.48289
#
# Compressibility (1/GPa) = 0.01745928
#
# Stress axis : x y z
#
# Youngs Moduli (GPa) = 84.64462 58.43990 73.20639
#
# Poissons Ratio (x) = 0.25255 0.25745
# Poissons Ratio (y) = 0.36579 0.34590
# Poissons Ratio (z) = 0.29767 0.27613
#
# Static dielectric constant tensor:
#      x y z
#    x 3.972270 0.000000 0.000000 
#    y 0.000000 3.951110 0.000000 
#    z 0.000000 0.000000 3.881830 
# 
# 
# High freq. dielectric constant tensor:
#      x y z
#    x 1.835780 0.000000 0.000000 
#    y 0.000000 1.830680 0.000000 
#    z 0.000000 0.000000 1.832990 
# 
# From -- ./inp_files/45152.got.cif
#   From: 2010.03.12/outbox.cif.g09.slc.cpg/sg70_23_cif.got.tgz:45152.got - 2010.04.16 13:46:32.
