data_PCOD8286904
_publ_section_title
;
Structure prediction by ZEFSAII (Michael W. Deem and Ramdas Pophale) SiO2 
 PCOD8286904
Probable space group: I M M M
;
_chemical_formula_sum "Si O2"
_cell_formula_units_Z 120
_cell_length_a 25.807052
_cell_length_b 14.456563
_cell_length_c 20.931608
_cell_angle_alpha 90.000000
_cell_angle_beta 90.000000
_cell_angle_gamma 90.000000
_cell_volume 7809.190960
_symmetry_space_group_name_H-M "I M M M"
_symmetry_group_IT_number 71
_symmetry_cell_setting 'orthorhombic'
loop_
_space_group_symop_operation_xyz
x,y,z
-x,-y,z
x,-y,-z
-x,y,-z
-x,-y,-z
x,y,-z
-x,y,z
x,-y,z
1/2+x,1/2+y,1/2+z
1/2-x,1/2-y,1/2+z
1/2+x,1/2-y,1/2-z
1/2-x,1/2+y,1/2-z
1/2-x,1/2-y,1/2-z
1/2+x,1/2+y,1/2-z
1/2-x,1/2+y,1/2+z
1/2+x,1/2-y,1/2+z
loop_
_atom_site_type_symbol
_atom_site_label
_atom_site_fract_x
_atom_site_fract_y
_atom_site_fract_z
Si Si1 0.557886 0.792031 0.126101
Si Si2 0.335179 0.255984 0.147844
Si Si3 0.805607 0.897774 0.178736
Si Si4 0.845338 0.288539 0.790172
Si Si5 0.278138 0.895596 0.073854
Si Si6 0.939779 0.600314 0.500000
Si Si7 0.057837 0.606375 0.242753
Si Si8 0.746030 0.394879 0.813613
O O1 0.500000 0.746834 0.120421
O O2 0.603659 0.716398 0.138106
O O3 0.575609 0.843495 0.062400
O O4 0.558791 0.865891 0.183104
O O5 0.328476 0.208587 0.216522
O O6 0.320444 0.179270 0.095371
O O7 0.299041 0.346500 0.144012
O O8 0.848867 0.817364 0.184183
O O9 0.774286 0.881265 0.113894
O O10 0.766671 0.888814 0.238527
O O11 0.831936 0.000000 0.178993
O O12 0.901706 0.334580 0.799594
O O13 0.800707 0.344667 0.827721
O O14 0.299428 0.000000 0.085025
O O15 0.264559 0.878734 0.000000
O O16 0.911142 0.500000 0.500000
O O17 0.000000 0.581676 0.500000
O O18 0.074368 0.500000 0.238101
O O19 0.000000 0.622549 0.214886
O O20 0.750062 0.500000 0.837287
#
# Coordination Sequence:
#
# PCOD8286904 Si02
#       8
#    16  16  16  16  16   8  16  16
#     4   9  18  28  38  52  77 113 146 177 212 249
#     4  10  18  29  41  60  86 110 145 179 211 253
#     4   9  16  28  43  63  88 109 139 176 210 252
#     4  10  16  27  45  63  84 114 143 173 211 248
#     4  10  19  28  40  61  89 118 141 167 209 257
#     4   9  16  26  38  54  77 107 147 183 209 244
#     4   9  17  27  39  59  87 114 138 169 209 250
#     4  10  17  27  45  65  82 104 138 181 219 250
#
# _framework density 15.366509000000001
#
# number of rings (size 3 to 8) (size 9 to 14) (size 15 to 20)
#    0.000    2.467    2.667    1.600    0.933    4.267 
#    0.000    0.000    0.000    1.200    0.000    5.600 
#    0.000    2.133    0.000    4.933    0.000    3.467 
#
# Total GULP energy -743507.374334 kJ/mol
# GULP energy per Si atom -12391.789572 kJ/mol
# Density = 1.533153 g / cm^3
# Si number density = 15.366509 Si / 1000 Ang^3
#
#
#
# Elastic Constant Matrix: (Units=GPa)
#
#
# Indices 1 2 3 4 5 6 
#
# 1 111.0105 64.8530 27.4187 0.0000 0.0000 0.0000
# 2 64.8530 100.9698 26.9850 0.0000 0.0000 0.0000
# 3 27.4187 26.9850 46.2395 0.0000 0.0000 0.0000
# 4 0.0000 0.0000 0.0000 15.9570 0.0000 0.0000
# 5 0.0000 0.0000 0.0000 0.0000 13.3647 0.0000
# 6 0.0000 0.0000 0.0000 0.0000 0.0000 21.5123
#
#
#
# Elastic Compliance Matrix: (Units=1/GPa)
#
#
# Indices 1 2 3 4 5 6 
#
# 1 0.014982 -0.008588 -0.003872 0.000000 0.000000 0.000000
# 2 -0.008588 0.016657 -0.004628 0.000000 0.000000 0.000000
# 3 -0.003872 -0.004628 0.026624 0.000000 0.000000 0.000000
# 4 0.000000 0.000000 0.000000 0.062668 0.000000 0.000000
# 5 0.000000 0.000000 0.000000 0.000000 0.074824 0.000000
# 6 0.000000 0.000000 0.000000 0.000000 0.000000 0.046485
#
#
# Mechanical properties :
#
#
# Convention : Reuss Voigt Hill
#
# Bulk Modulus (GPa) = 41.51846 55.19258 48.35552
# Shear Modulus (GPa) = 17.57814 19.43102 18.50458
#
# Velocity S-wave (km/s) = 3.38587 3.55984 3.47394
# Velocity P-wave (km/s) = 6.50868 7.27269 6.90127
#
# Compressibility (1/GPa) = 0.02408567
#
# Stress axis : x y z
#
# Youngs Moduli (GPa) = 66.74864 60.03493 37.56078
#
# Poissons Ratio (x) = 0.51557 0.14543
# Poissons Ratio (y) = 0.57323 0.17385
# Poissons Ratio (z) = 0.25844 0.27787
#
# Static dielectric constant tensor:
#      x y z
#    x 3.002150 0.000000 0.000000 
#    y 0.000000 2.967870 0.000000 
#    z 0.000000 0.000000 2.782250 
# 
# 
# High freq. dielectric constant tensor:
#      x y z
#    x 1.580330 0.000000 0.000000 
#    y 0.000000 1.574970 0.000000 
#    z 0.000000 0.000000 1.552510 
# 
# From -- ./inp_files/55919.got.cif
#   From: 2010.06.25/outbox.cif.g09.slc.cpg/sg71_28_cif.got.tgz:55919.got - 2010.06.28 04:59:45.
