data_PCOD8286975
_publ_section_title
;
Structure prediction by ZEFSAII (Michael W. Deem and Ramdas Pophale) SiO2 
 PCOD8286975
Probable space group: I M M M
;
_chemical_formula_sum "Si O2"
_cell_formula_units_Z 80
_cell_length_a 26.821146
_cell_length_b 18.540949
_cell_length_c 9.674407
_cell_angle_alpha 90.000000
_cell_angle_beta 90.000000
_cell_angle_gamma 90.000000
_cell_volume 4810.981021
_symmetry_space_group_name_H-M "I M M M"
_symmetry_group_IT_number 71
_symmetry_cell_setting 'orthorhombic'
loop_
_space_group_symop_operation_xyz
x,y,z
-x,-y,z
x,-y,-z
-x,y,-z
-x,-y,-z
x,y,-z
-x,y,z
x,-y,z
1/2+x,1/2+y,1/2+z
1/2-x,1/2-y,1/2+z
1/2+x,1/2-y,1/2-z
1/2-x,1/2+y,1/2-z
1/2-x,1/2-y,1/2-z
1/2+x,1/2+y,1/2-z
1/2-x,1/2+y,1/2+z
1/2+x,1/2-y,1/2+z
loop_
_atom_site_type_symbol
_atom_site_label
_atom_site_fract_x
_atom_site_fract_y
_atom_site_fract_z
Si Si1 0.661220 0.152814 0.500000
Si Si2 0.802001 0.582427 0.729741
Si Si3 0.274409 0.414492 0.500000
Si Si4 0.630116 0.318622 0.500000
Si Si5 0.053116 0.345426 0.000000
Si Si6 0.444201 0.279683 0.713344
Si Si7 0.383385 0.080003 0.000000
Si Si8 0.441400 0.777598 0.000000
O O1 0.692828 0.131382 0.634536
O O2 0.653868 0.238785 0.500000
O O3 0.606260 0.111959 0.500000
O O4 0.794072 0.500000 0.776617
O O5 0.755106 0.609595 0.638345
O O6 0.850934 0.589800 0.637149
O O7 0.280193 0.500000 0.500000
O O8 0.328171 0.378835 0.500000
O O9 0.594942 0.331043 0.365636
O O10 0.052898 0.296735 0.863510
O O11 0.000000 0.390745 0.000000
O O12 0.500000 0.314355 0.716493
O O13 0.422317 0.265725 0.866089
O O14 0.425724 0.139435 0.000000
O O15 0.407620 0.000000 0.000000
O O16 0.500000 0.779758 0.000000
#
# Coordination Sequence:
#
# PCOD8286975 Si02
#       8
#     8  16   8   8   8  16   8   8
#     4  10  17  27  48  73  91 115 153 192 229 264
#     4   9  18  32  47  61  86 124 157 184 221 271
#     4   9  20  37  51  64  86 119 151 181 228 281
#     4  10  18  30  50  71  92 115 144 189 228 259
#     4   8  14  25  40  62  93 124 152 182 218 259
#     4   8  15  27  44  66  92 120 144 171 219 278
#     4   9  16  27  41  57  83 123 164 192 212 244
#     4  10  17  26  42  65  93 121 149 183 222 264
#
# _framework density 16.628626000000001
#
# number of rings (size 3 to 8) (size 9 to 14) (size 15 to 20)
#    0.000    3.200    0.000    4.800    0.000    1.000 
#    0.000    1.000    0.000    3.600    0.000    0.000 
#    0.000    5.600    0.000    0.000    0.000    0.000 
#
# Total GULP energy -495598.102933 kJ/mol
# GULP energy per Si atom -12389.952573 kJ/mol
# Density = 1.659078 g / cm^3
# Si number density = 16.628626 Si / 1000 Ang^3
#
#
#
# Elastic Constant Matrix: (Units=GPa)
#
#
# Indices 1 2 3 4 5 6 
#
# 1 92.2566 29.5167 46.1018 0.0000 0.0000 0.0000
# 2 29.5167 23.6630 23.9077 0.0000 0.0000 0.0000
# 3 46.1018 23.9077 134.9373 0.0000 0.0000 0.0000
# 4 0.0000 0.0000 0.0000 9.0657 0.0000 0.0000
# 5 0.0000 0.0000 0.0000 0.0000 11.4137 0.0000
# 6 0.0000 0.0000 0.0000 0.0000 0.0000 28.1578
#
#
#
# Elastic Compliance Matrix: (Units=1/GPa)
#
#
# Indices 1 2 3 4 5 6 
#
# 1 0.018852 -0.020716 -0.002770 0.000000 0.000000 0.000000
# 2 -0.020716 0.074239 -0.006076 0.000000 0.000000 0.000000
# 3 -0.002770 -0.006076 0.009434 0.000000 0.000000 0.000000
# 4 0.000000 0.000000 0.000000 0.110306 0.000000 0.000000
# 5 0.000000 0.000000 0.000000 0.000000 0.087614 0.000000
# 6 0.000000 0.000000 0.000000 0.000000 0.000000 0.035514
#
#
# Mechanical properties :
#
#
# Convention : Reuss Voigt Hill
#
# Bulk Modulus (GPa) = 23.04123 49.98994 36.51559
# Shear Modulus (GPa) = 12.20852 19.81616 16.01234
#
# Velocity S-wave (km/s) = 2.71253 3.45583 3.10649
# Velocity P-wave (km/s) = 4.86794 6.78613 5.90544
#
# Compressibility (1/GPa) = 0.04340045
#
# Stress axis : x y z
#
# Youngs Moduli (GPa) = 53.04566 13.46994 106.00170
#
# Poissons Ratio (x) = 0.27905 0.29366
# Poissons Ratio (y) = 1.09890 0.64403
# Poissons Ratio (z) = 0.14695 0.08184
#
# Static dielectric constant tensor:
#      x y z
#    x 3.246960 0.000000 0.000000 
#    y 0.000000 2.579450 0.000000 
#    z 0.000000 0.000000 3.539730 
# 
# 
# High freq. dielectric constant tensor:
#      x y z
#    x 1.636350 0.000000 0.000000 
#    y 0.000000 1.578960 0.000000 
#    z 0.000000 0.000000 1.655100 
# 
# From -- ./inp_files/14795.got.cif
#   From: 2010.06.25/outbox.cif.g09.slc.cpg/sg71_8_cif.got.tgz:14795.got - 2010.06.28 04:59:45.
