data_PCOD8286853
_publ_section_title
;
Structure prediction by ZEFSAII (Michael W. Deem and Ramdas Pophale) SiO2 
 PCOD8286853
Probable space group: F D D D
;
_chemical_formula_sum "Si O2"
_cell_formula_units_Z 80
_cell_length_a 10.372617
_cell_length_b 11.082767
_cell_length_c 27.458403
_cell_angle_alpha 90.000000
_cell_angle_beta 90.000000
_cell_angle_gamma 90.000000
_cell_volume 3156.543800
_symmetry_space_group_name_H-M "F D D D"
_symmetry_group_IT_number 70
_space_group.IT_coordinate_system_code '2'
_symmetry_cell_setting 'orthorhombic'
loop_
_space_group_symop_operation_xyz
x,y,z
1/4-x,1/4-y,z
x,1/4-y,1/4-z
1/4-x,y,1/4-z
-x,-y,-z
3/4+x,3/4+y,-z
-x,3/4+y,3/4+z
3/4+x,-y,3/4+z
x,1/2+y,1/2+z
1/4-x,3/4-y,1/2+z
x,3/4-y,3/4-z
1/4-x,1/2+y,3/4-z
-x,1/2-y,1/2-z
3/4+x,1/4+y,1/2-z
-x,1/4+y,1/4+z
3/4+x,1/2-y,1/4+z
1/2+x,y,1/2+z
3/4-x,1/4-y,1/2+z
1/2+x,1/4-y,3/4-z
3/4-x,y,3/4-z
1/2-x,-y,1/2-z
1/4+x,3/4+y,1/2-z
1/2-x,3/4+y,1/4+z
1/4+x,-y,1/4+z
1/2+x,1/2+y,z
3/4-x,3/4-y,z
1/2+x,3/4-y,1/4-z
3/4-x,1/2+y,1/4-z
1/2-x,1/2-y,-z
1/4+x,1/4+y,-z
1/2-x,1/4+y,3/4+z
1/4+x,1/2-y,3/4+z
loop_
_atom_site_type_symbol
_atom_site_label
_atom_site_fract_x
_atom_site_fract_y
_atom_site_fract_z
Si Si1 0.745106 0.304064 0.053490
Si Si2 0.540981 0.742139 0.194361
Si Si3 0.842416 0.625000 0.625000
O O1 0.875000 0.375000 0.062750
O O2 0.621368 0.386463 0.066095
O O3 0.744588 0.191802 0.089421
O O4 0.750000 0.250000 0.000000
O O5 0.625000 0.625000 0.186195
O O6 0.500000 0.750000 0.250000
O O7 0.424349 0.724677 0.156252
#
# Coordination Sequence:
#
# PCOD8286853 Si02
#       3
#    32  32  16
#     4  12  26  52  77 118 162 213 285 336 413 496
#     4  12  25  51  81 111 166 215 271 346 415 485
#     4  12  27  50  85 118 162 223 270 341 418 496
#
# _framework density 25.344176000000001
#
# number of rings (size 3 to 8) (size 9 to 14) (size 15 to 20)
#    0.000    0.000    8.000    0.600    0.000    1.600 
#   14.400    0.000    0.000    0.000    0.000    0.000 
#    0.000    0.000    0.000    0.000    0.000    0.000 
#
# Total GULP energy -247996.291805 kJ/mol
# GULP energy per Si atom -12399.814590 kJ/mol
# Density = 2.528649 g / cm^3
# Si number density = 25.344176 Si / 1000 Ang^3
#
#
#
# Elastic Constant Matrix: (Units=GPa)
#
#
# Indices 1 2 3 4 5 6 
#
# 1 98.8941 74.6665 54.7182 0.0000 0.0000 0.0000
# 2 74.6665 180.2834 87.9039 0.0000 0.0000 0.0000
# 3 54.7182 87.9039 205.7847 0.0000 0.0000 0.0000
# 4 0.0000 0.0000 0.0000 56.5743 0.0000 0.0000
# 5 0.0000 0.0000 0.0000 0.0000 42.4842 0.0000
# 6 0.0000 0.0000 0.0000 0.0000 0.0000 65.3266
#
#
#
# Elastic Compliance Matrix: (Units=1/GPa)
#
#
# Indices 1 2 3 4 5 6 
#
# 1 0.015172 -0.005452 -0.001705 0.000000 0.000000 0.000000
# 2 -0.005452 0.008965 -0.002380 0.000000 0.000000 0.000000
# 3 -0.001705 -0.002380 0.006329 0.000000 0.000000 0.000000
# 4 0.000000 0.000000 0.000000 0.017676 0.000000 0.000000
# 5 0.000000 0.000000 0.000000 0.000000 0.023538 0.000000
# 6 0.000000 0.000000 0.000000 0.000000 0.000000 0.015308
#
#
# Mechanical properties :
#
#
# Convention : Reuss Voigt Hill
#
# Bulk Modulus (GPa) = 87.78094 102.17105 94.97599
# Shear Modulus (GPa) = 45.51241 50.72194 48.11717
#
# Velocity S-wave (km/s) = 4.24225 4.47847 4.36196
# Velocity P-wave (km/s) = 7.66201 8.19410 7.93251
#
# Compressibility (1/GPa) = 0.01139199
#
# Stress axis : x y z
#
# Youngs Moduli (GPa) = 65.91196 111.54113 157.99060
#
# Poissons Ratio (x) = 0.60813 0.26941
# Poissons Ratio (y) = 0.35936 0.37601
# Poissons Ratio (z) = 0.11239 0.26546
#
# Static dielectric constant tensor:
#      x y z
#    x 4.721660 0.000000 0.000000 
#    y 0.000000 3.521320 0.000000 
#    z 0.000000 0.000000 4.806170 
# 
# 
# High freq. dielectric constant tensor:
#      x y z
#    x 2.011470 0.000000 0.000000 
#    y 0.000000 2.025020 0.000000 
#    z 0.000000 0.000000 2.043180 
# 
# From -- ./inp_files/13823.got.cif
#   From: 2010.03.12/outbox.cif.g09.slc.cpg/sg70_7_cif.got.tgz:13823.got - 2010.04.16 13:46:32.
