data_PCOD8286903
_publ_section_title
;
Structure prediction by ZEFSAII (Michael W. Deem and Ramdas Pophale) SiO2 
 PCOD8286903
Probable space group: I M M M
;
_chemical_formula_sum "Si O2"
_cell_formula_units_Z 80
_cell_length_a 27.778725
_cell_length_b 10.588822
_cell_length_c 19.909095
_cell_angle_alpha 90.000000
_cell_angle_beta 90.000000
_cell_angle_gamma 90.000000
_cell_volume 5856.140330
_symmetry_space_group_name_H-M "I M M M"
_symmetry_group_IT_number 71
_symmetry_cell_setting 'orthorhombic'
loop_
_space_group_symop_operation_xyz
x,y,z
-x,-y,z
x,-y,-z
-x,y,-z
-x,-y,-z
x,y,-z
-x,y,z
x,-y,z
1/2+x,1/2+y,1/2+z
1/2-x,1/2-y,1/2+z
1/2+x,1/2-y,1/2-z
1/2-x,1/2+y,1/2-z
1/2-x,1/2-y,1/2-z
1/2+x,1/2+y,1/2-z
1/2-x,1/2+y,1/2+z
1/2+x,1/2-y,1/2+z
loop_
_atom_site_type_symbol
_atom_site_label
_atom_site_fract_x
_atom_site_fract_y
_atom_site_fract_z
Si Si1 0.220545 0.000000 0.678840
Si Si2 0.305781 0.000000 0.578695
Si Si3 0.694387 0.746334 0.228588
Si Si4 0.554178 0.354205 0.578403
Si Si5 0.716584 0.000000 0.186122
Si Si6 0.702880 0.500000 0.422980
Si Si7 0.148381 0.757164 0.129436
O O1 0.186925 0.125136 0.679957
O O2 0.253852 0.000000 0.613649
O O3 0.251473 0.000000 0.746859
O O4 0.334792 0.875678 0.599557
O O5 0.296513 0.000000 0.500000
O O6 0.750000 0.750000 0.250000
O O7 0.683030 0.874818 0.187324
O O8 0.659704 0.735283 0.292038
O O9 0.564750 0.335462 0.500000
O O10 0.500000 0.310345 0.595867
O O11 0.561248 0.500000 0.598278
O O12 0.590914 0.267758 0.620481
O O13 0.748887 0.000000 0.120229
O O14 0.718762 0.500000 0.500000
O O15 0.672537 0.625853 0.408952
#
# Coordination Sequence:
#
# PCOD8286903 Si02
#       7
#     8   8  16  16   8   8  16
#     4  10  16  30  40  54  80 106 131 165 198 243
#     4  12  22  28  39  61  86 108 134 172 207 242
#     4  10  16  27  44  57  76 106 133 167 196 246
#     4   9  18  31  44  58  78 103 134 177 219 242
#     4  10  16  30  40  54  82 108 131 167 200 245
#     4  12  20  26  43  65  80 102 144 186 201 226
#     4  12  19  30  44  61  80 105 142 177 208 241
#
# _framework density 13.660876
#
# number of rings (size 3 to 8) (size 9 to 14) (size 15 to 20)
#    0.000    1.400    9.000    2.400    0.000    0.000 
#    0.000    0.500    0.000    1.800    0.000    0.000 
#    0.000    0.000    0.000    0.000    0.000    6.000 
#
# Total GULP energy -495807.580347 kJ/mol
# GULP energy per Si atom -12395.189509 kJ/mol
# Density = 1.362978 g / cm^3
# Si number density = 13.660876 Si / 1000 Ang^3
#
#
#
# Elastic Constant Matrix: (Units=GPa)
#
#
# Indices 1 2 3 4 5 6 
#
# 1 70.4678 37.6064 51.6503 0.0000 0.0000 0.0000
# 2 37.6064 136.1672 37.1602 0.0000 0.0000 0.0000
# 3 51.6503 37.1602 63.8429 0.0000 0.0000 0.0000
# 4 0.0000 0.0000 0.0000 12.8174 0.0000 0.0000
# 5 0.0000 0.0000 0.0000 0.0000 21.1809 0.0000
# 6 0.0000 0.0000 0.0000 0.0000 0.0000 5.2590
#
#
#
# Elastic Compliance Matrix: (Units=1/GPa)
#
#
# Indices 1 2 3 4 5 6 
#
# 1 0.035480 -0.002337 -0.027344 0.000000 0.000000 0.000000
# 2 -0.002337 0.008885 -0.003281 0.000000 0.000000 0.000000
# 3 -0.027344 -0.003281 0.039695 0.000000 0.000000 0.000000
# 4 0.000000 0.000000 0.000000 0.078019 0.000000 0.000000
# 5 0.000000 0.000000 0.000000 0.000000 0.047212 0.000000
# 6 0.000000 0.000000 0.000000 0.000000 0.000000 0.190150
#
#
# Mechanical properties :
#
#
# Convention : Reuss Voigt Hill
#
# Bulk Modulus (GPa) = 55.13763 58.14575 56.64169
# Shear Modulus (GPa) = 10.60646 17.45551 14.03098
#
# Velocity S-wave (km/s) = 2.78944 3.57847 3.20831
# Velocity P-wave (km/s) = 7.12909 7.72852 7.43485
#
# Compressibility (1/GPa) = 0.01813643
#
# Stress axis : x y z
#
# Youngs Moduli (GPa) = 28.18476 112.55410 25.19187
#
# Poissons Ratio (x) = 0.26299 0.68885
# Poissons Ratio (y) = 0.06585 0.08266
# Poissons Ratio (z) = 0.77069 0.36929
#
# Static dielectric constant tensor:
#      x y z
#    x 2.329660 0.000000 0.000000 
#    y 0.000000 10.718590 0.000000 
#    z 0.000000 0.000000 2.560550 
# 
# 
# High freq. dielectric constant tensor:
#      x y z
#    x 1.473040 0.000000 0.000000 
#    y 0.000000 1.546680 0.000000 
#    z 0.000000 0.000000 1.496590 
# 
# From -- ./inp_files/48729.got.cif
#   From: 2010.06.25/outbox.cif.g09.slc.cpg/sg71_25_cif.got.tgz:48729.got - 2010.06.28 04:59:45.
