data_PCOD8286330
_publ_section_title
;
Structure prediction by ZEFSAII (Michael W. Deem and Ramdas Pophale) SiO2 
 PCOD8286330
Probable space group: F D D D
;
_chemical_formula_sum "Si O2"
_cell_formula_units_Z 144
_cell_length_a 30.295123
_cell_length_b 23.608015
_cell_length_c 8.462304
_cell_angle_alpha 90.000000
_cell_angle_beta 90.000000
_cell_angle_gamma 90.000000
_cell_volume 6052.305135
_symmetry_space_group_name_H-M "F D D D"
_symmetry_group_IT_number 70
_space_group.IT_coordinate_system_code '2'
_symmetry_cell_setting 'orthorhombic'
loop_
_space_group_symop_operation_xyz
x,y,z
1/4-x,1/4-y,z
x,1/4-y,1/4-z
1/4-x,y,1/4-z
-x,-y,-z
3/4+x,3/4+y,-z
-x,3/4+y,3/4+z
3/4+x,-y,3/4+z
x,1/2+y,1/2+z
1/4-x,3/4-y,1/2+z
x,3/4-y,3/4-z
1/4-x,1/2+y,3/4-z
-x,1/2-y,1/2-z
3/4+x,1/4+y,1/2-z
-x,1/4+y,1/4+z
3/4+x,1/2-y,1/4+z
1/2+x,y,1/2+z
3/4-x,1/4-y,1/2+z
1/2+x,1/4-y,3/4-z
3/4-x,y,3/4-z
1/2-x,-y,1/2-z
1/4+x,3/4+y,1/2-z
1/2-x,3/4+y,1/4+z
1/4+x,-y,1/4+z
1/2+x,1/2+y,z
3/4-x,3/4-y,z
1/2+x,3/4-y,1/4-z
3/4-x,1/2+y,1/4-z
1/2-x,1/2-y,-z
1/4+x,1/4+y,-z
1/2-x,1/4+y,3/4+z
1/4+x,1/2-y,3/4+z
loop_
_atom_site_type_symbol
_atom_site_label
_atom_site_fract_x
_atom_site_fract_y
_atom_site_fract_z
Si Si1 0.548281 0.741399 0.324943
Si Si2 0.187748 0.640731 0.868054
Si Si3 0.625000 0.796208 0.125000
Si Si4 0.875000 0.875000 0.375000
Si Si5 0.975676 0.703090 0.352869
Si Si6 0.831401 0.625000 0.625000
Si Si7 0.625000 0.625000 0.125000
O O1 0.500000 0.750000 0.250000
O O2 0.559639 0.677088 0.368286
O O3 0.583951 0.760995 0.195363
O O4 0.550706 0.774579 0.493831
O O5 0.235755 0.662953 0.835562
O O6 0.156984 0.664878 0.728019
O O7 0.159713 0.662147 0.020904
O O8 0.639001 0.834818 0.270242
O O9 0.000000 0.750000 0.250000
O O10 0.946496 0.665350 0.238604
#
# Coordination Sequence:
#
# PCOD8286330 Si02
#       7
#    32  32  16   8  32  16   8
#     4  12  26  45  73 106 143 189 245 308 381 458
#     4  11  23  42  65  99 137 179 235 297 360 438
#     4  12  27  48  73 107 142 191 249 312 385 458
#     4  10  22  38  62  90 132 178 222 290 358 418
#     4  12  25  45  72 103 145 197 245 303 375 451
#     4  12  27  48  71 103 144 189 250 314 376 460
#     4  10  22  38  66  94 136 182 224 298 364 414
#
# _framework density 23.792587000000001
#
# number of rings (size 3 to 8) (size 9 to 14) (size 15 to 20)
#    0.000    0.444    0.000    9.333    0.000    8.889 
#    0.000    1.111    0.000    0.000    0.000    0.000 
#    0.000    0.000    0.000    0.000    0.000    0.000 
#
# Total GULP energy -446010.865056 kJ/mol
# GULP energy per Si atom -12389.190696 kJ/mol
# Density = 2.373843 g / cm^3
# Si number density = 23.792587 Si / 1000 Ang^3
#
#
#
# Elastic Constant Matrix: (Units=GPa)
#
#
# Indices 1 2 3 4 5 6 
#
# 1 158.0163 51.8844 66.2294 0.0004 0.0007 0.0003
# 2 51.8844 117.1325 47.6624 -0.0017 0.0064 0.0004
# 3 66.2294 47.6624 166.2617 -0.0166 0.0222 0.0015
# 4 0.0004 -0.0017 -0.0166 37.7497 0.0104 0.0016
# 5 0.0007 0.0064 0.0222 0.0104 -12.6156 -0.0046
# 6 0.0003 0.0004 0.0015 0.0016 -0.0046 40.2818
#
#
#
# Elastic Compliance Matrix: (Units=1/GPa)
#
#
# Indices 1 2 3 4 5 6 
#
# 1 0.008253 -0.002624 -0.002535 -0.000001 -0.000005 0.000000
# 2 -0.002624 0.010499 -0.001965 0.000000 0.000002 0.000000
# 3 -0.002535 -0.001965 0.007588 0.000003 0.000012 0.000000
# 4 -0.000001 0.000000 0.000003 0.026490 0.000022 -0.000001
# 5 -0.000005 0.000002 0.000012 0.000022 -0.079267 -0.000009
# 6 0.000000 0.000000 0.000000 -0.000001 -0.000009 0.024825
#
#
# Mechanical properties :
#
#
# Convention : Reuss Voigt Hill
#
# Bulk Modulus (GPa) = 82.69936 85.88476 84.29206
# Shear Modulus (GPa) = 300.01805 31.45880 165.73842
#
# Velocity S-wave (km/s) = 11.24149 3.64017 8.35529
# Velocity P-wave (km/s) = 14.25933 7.33780 11.33958
#
# Compressibility (1/GPa) = 0.01209199
#
# Stress axis : x y z
#
# Youngs Moduli (GPa) = 121.17400 95.24702 131.79305
#
# Poissons Ratio (x) = 0.24992 0.33412
# Poissons Ratio (y) = 0.31795 0.25891
# Poissons Ratio (z) = 0.30720 0.18712
#
# Static dielectric constant tensor:
#      x y z
#    x 5.100450 -0.000030 0.000030 
#    y -0.000030 4.491450 -0.000010 
#    z 0.000030 -0.000010 4.854640 
# 
# 
# High freq. dielectric constant tensor:
#      x y z
#    x 1.963900 0.000000 0.000000 
#    y 0.000000 1.933980 0.000000 
#    z 0.000000 0.000000 1.977140 
# 
# From -- ./inp_files/12325.got.cif
#   From: 2010.03.12/outbox.cif.g09.slc.cpg/sg70_7_cif.got.tgz:12325.got - 2010.04.16 13:46:32.
