data_PCOD8286866
_publ_section_title
;
Structure prediction by ZEFSAII (Michael W. Deem and Ramdas Pophale) SiO2 
 PCOD8286866
Probable space group: F D D D
;
_chemical_formula_sum "Si O2"
_cell_formula_units_Z 72
_cell_length_a 5.769794
_cell_length_b 21.821853
_cell_length_c 19.552734
_cell_angle_alpha 90.000000
_cell_angle_beta 90.000000
_cell_angle_gamma 90.000000
_cell_volume 2461.837743
_symmetry_space_group_name_H-M "F D D D"
_symmetry_group_IT_number 70
_space_group.IT_coordinate_system_code '2'
_symmetry_cell_setting 'orthorhombic'
loop_
_space_group_symop_operation_xyz
x,y,z
1/4-x,1/4-y,z
x,1/4-y,1/4-z
1/4-x,y,1/4-z
-x,-y,-z
3/4+x,3/4+y,-z
-x,3/4+y,3/4+z
3/4+x,-y,3/4+z
x,1/2+y,1/2+z
1/4-x,3/4-y,1/2+z
x,3/4-y,3/4-z
1/4-x,1/2+y,3/4-z
-x,1/2-y,1/2-z
3/4+x,1/4+y,1/2-z
-x,1/4+y,1/4+z
3/4+x,1/2-y,1/4+z
1/2+x,y,1/2+z
3/4-x,1/4-y,1/2+z
1/2+x,1/4-y,3/4-z
3/4-x,y,3/4-z
1/2-x,-y,1/2-z
1/4+x,3/4+y,1/2-z
1/2-x,3/4+y,1/4+z
1/4+x,-y,1/4+z
1/2+x,1/2+y,z
3/4-x,3/4-y,z
1/2+x,3/4-y,1/4-z
3/4-x,1/2+y,1/4-z
1/2-x,1/2-y,-z
1/4+x,1/4+y,-z
1/2-x,1/4+y,3/4+z
1/4+x,1/2-y,3/4+z
loop_
_atom_site_type_symbol
_atom_site_label
_atom_site_fract_x
_atom_site_fract_y
_atom_site_fract_z
Si Si1 0.102758 0.329622 0.497906
Si Si2 0.423611 0.541324 0.797328
Si Si3 0.125000 0.625000 0.125000
O O1 0.307639 0.311603 0.549059
O O2 0.022646 0.399850 0.518131
O O3 0.914035 0.272451 0.499235
O O4 0.209584 0.332208 0.421295
O O5 0.375000 0.525304 0.875000
#
# Coordination Sequence:
#
# PCOD8286866 Si02
#       3
#    32  32   8
#     4   9  19  38  60  96 131 179 217 275 347 411
#     4   9  18  38  64  95 133 175 222 276 340 407
#     4   8  16  36  62  84 132 176 208 276 342 404
#
# _framework density 29.246441000000001
#
# number of rings (size 3 to 8) (size 9 to 14) (size 15 to 20)
#    0.000    3.556    0.000    0.000    0.000    0.000 
#   64.000   10.000    0.000    0.000    0.000    0.000 
#    0.000    0.000    0.000    0.000    0.000    0.000 
#
# Total GULP energy -223155.965606 kJ/mol
# GULP energy per Si atom -12397.553645 kJ/mol
# Density = 2.917988 g / cm^3
# Si number density = 29.246441 Si / 1000 Ang^3
#
#
#
# Elastic Constant Matrix: (Units=GPa)
#
#
# Indices 1 2 3 4 5 6 
#
# 1 174.5246 155.7793 29.9534 0.0000 0.0000 0.0000
# 2 155.7793 315.5587 80.2374 0.0000 0.0000 0.0000
# 3 29.9534 80.2374 144.1715 0.0000 0.0000 0.0000
# 4 0.0000 0.0000 0.0000 49.5522 0.0000 0.0000
# 5 0.0000 0.0000 0.0000 0.0000 39.5336 0.0000
# 6 0.0000 0.0000 0.0000 0.0000 0.0000 100.3717
#
#
#
# Elastic Compliance Matrix: (Units=1/GPa)
#
#
# Indices 1 2 3 4 5 6 
#
# 1 0.010323 -0.005301 0.000805 0.000000 0.000000 0.000000
# 2 -0.005301 0.006413 -0.002468 0.000000 0.000000 0.000000
# 3 0.000805 -0.002468 0.008142 0.000000 0.000000 0.000000
# 4 0.000000 0.000000 0.000000 0.020181 0.000000 0.000000
# 5 0.000000 0.000000 0.000000 0.000000 0.025295 0.000000
# 6 0.000000 0.000000 0.000000 0.000000 0.000000 0.009963
#
#
# Mechanical properties :
#
#
# Convention : Reuss Voigt Hill
#
# Bulk Modulus (GPa) = 91.30782 129.57724 110.44253
# Shear Modulus (GPa) = 51.07494 62.44384 56.75939
#
# Velocity S-wave (km/s) = 4.18349 4.62572 4.41015
# Velocity P-wave (km/s) = 7.39076 8.53998 7.98607
#
# Compressibility (1/GPa) = 0.01095196
#
# Stress axis : x y z
#
# Youngs Moduli (GPa) = 96.86883 155.92313 122.81423
#
# Poissons Ratio (x) = 0.82655 -0.09892
# Poissons Ratio (y) = 0.51350 0.30310
# Poissons Ratio (z) = -0.07802 0.38482
#
# Static dielectric constant tensor:
#      x y z
#    x 6.003090 0.000000 0.000000 
#    y 0.000000 6.616690 0.000000 
#    z 0.000000 0.000000 4.669850 
# 
# 
# High freq. dielectric constant tensor:
#      x y z
#    x 2.281730 0.000000 0.000000 
#    y 0.000000 2.271140 0.000000 
#    z 0.000000 0.000000 2.136870 
# 
# From -- ./inp_files/6673.got.cif
#   From: 2010.03.12/outbox.cif.g09.slc.cpg/sg70_4_cif.got.tgz:6673.got - 2010.04.16 13:46:32.
