data_PCOD8286983
_publ_section_title
;
Structure prediction by ZEFSAII (Michael W. Deem and Ramdas Pophale) SiO2 
 PCOD8286983
Probable space group: I M M M
;
_chemical_formula_sum "Si O2"
_cell_formula_units_Z 96
_cell_length_a 13.427433
_cell_length_b 19.158239
_cell_length_c 23.593645
_cell_angle_alpha 90.000000
_cell_angle_beta 90.000000
_cell_angle_gamma 90.000000
_cell_volume 6069.370107
_symmetry_space_group_name_H-M "I M M M"
_symmetry_group_IT_number 71
_symmetry_cell_setting 'orthorhombic'
loop_
_space_group_symop_operation_xyz
x,y,z
-x,-y,z
x,-y,-z
-x,y,-z
-x,-y,-z
x,y,-z
-x,y,z
x,-y,z
1/2+x,1/2+y,1/2+z
1/2-x,1/2-y,1/2+z
1/2+x,1/2-y,1/2-z
1/2-x,1/2+y,1/2-z
1/2-x,1/2-y,1/2-z
1/2+x,1/2+y,1/2-z
1/2-x,1/2+y,1/2+z
1/2+x,1/2-y,1/2+z
loop_
_atom_site_type_symbol
_atom_site_label
_atom_site_fract_x
_atom_site_fract_y
_atom_site_fract_z
Si Si1 0.306466 0.856168 0.773186
Si Si2 0.613024 0.212165 0.393487
Si Si3 0.113633 0.581747 0.386537
Si Si4 0.882300 0.577390 0.835477
Si Si5 0.611247 0.282365 0.725721
Si Si6 0.268241 0.081416 0.000000
Si Si7 0.119747 0.795724 0.000000
O O1 0.326383 0.881398 0.836410
O O2 0.339975 0.913665 0.727743
O O3 0.365734 0.783883 0.765201
O O4 0.188476 0.844637 0.763091
O O5 0.500000 0.198114 0.411034
O O6 0.661857 0.136192 0.378527
O O7 0.622143 0.261512 0.339558
O O8 0.662163 0.251813 0.446423
O O9 0.116354 0.500000 0.375091
O O10 0.165721 0.600491 0.445582
O O11 0.000000 0.608773 0.388371
O O12 0.854967 0.500000 0.857847
O O13 0.000000 0.588284 0.830323
O O14 0.500000 0.309348 0.739101
O O15 0.167968 0.127467 0.000000
O O16 0.236614 0.000000 0.000000
O O17 0.000000 0.806068 0.000000
#
# Coordination Sequence:
#
# PCOD8286983 Si02
#       7
#    16  16  16  16  16   8   8
#     4  10  17  26  45  66  84 114 150 177 211 262
#     4   8  15  27  42  61  84 112 143 174 215 257
#     4  10  19  31  46  63  84 109 140 179 219 260
#     4   9  16  27  43  64  89 111 138 184 231 267
#     4   9  17  28  41  62  92 117 141 180 219 251
#     4  10  21  33  44  62  88 116 144 177 222 260
#     4  10  18  30  48  64  84 116 151 180 204 256
#
# _framework density 15.817128
#
# number of rings (size 3 to 8) (size 9 to 14) (size 15 to 20)
#    0.000    2.667    0.000    4.250    0.000    2.500 
#    0.000    0.417    0.000    5.500    0.000    0.000 
#    0.000    0.000    0.000    0.000    0.000   32.167 
#
# Total GULP energy -594971.218735 kJ/mol
# GULP energy per Si atom -12395.233724 kJ/mol
# Density = 1.578113 g / cm^3
# Si number density = 15.817128 Si / 1000 Ang^3
#
#
#
# Elastic Constant Matrix: (Units=GPa)
#
#
# Indices 1 2 3 4 5 6 
#
# 1 75.4184 33.7294 22.5197 0.0000 0.0000 0.0000
# 2 33.7294 71.7716 34.2237 0.0000 0.0000 0.0000
# 3 22.5197 34.2237 86.6617 0.0000 0.0000 0.0000
# 4 0.0000 0.0000 0.0000 18.4622 0.0000 0.0000
# 5 0.0000 0.0000 0.0000 0.0000 13.7180 0.0000
# 6 0.0000 0.0000 0.0000 0.0000 0.0000 19.9004
#
#
#
# Elastic Compliance Matrix: (Units=1/GPa)
#
#
# Indices 1 2 3 4 5 6 
#
# 1 0.016955 -0.007229 -0.001551 0.000000 0.000000 0.000000
# 2 -0.007229 0.020247 -0.006117 0.000000 0.000000 0.000000
# 3 -0.001551 -0.006117 0.014358 0.000000 0.000000 0.000000
# 4 0.000000 0.000000 0.000000 0.054165 0.000000 0.000000
# 5 0.000000 0.000000 0.000000 0.000000 0.072897 0.000000
# 6 0.000000 0.000000 0.000000 0.000000 0.000000 0.050250
#
#
# Mechanical properties :
#
#
# Convention : Reuss Voigt Hill
#
# Bulk Modulus (GPa) = 45.94316 46.08861 46.01588
# Shear Modulus (GPa) = 18.80243 19.97469 19.38856
#
# Velocity S-wave (km/s) = 3.45155 3.55752 3.50493
# Velocity P-wave (km/s) = 6.70774 6.78795 6.74796
#
# Compressibility (1/GPa) = 0.02176603
#
# Stress axis : x y z
#
# Youngs Moduli (GPa) = 58.97819 49.38944 69.64700
#
# Poissons Ratio (x) = 0.35701 0.10805
# Poissons Ratio (y) = 0.42633 0.42606
# Poissons Ratio (z) = 0.09150 0.30214
#
# Static dielectric constant tensor:
#      x y z
#    x 2.942340 0.000000 0.000000 
#    y 0.000000 3.001590 0.000000 
#    z 0.000000 0.000000 3.061900 
# 
# 
# High freq. dielectric constant tensor:
#      x y z
#    x 1.585320 0.000000 0.000000 
#    y 0.000000 1.596780 0.000000 
#    z 0.000000 0.000000 1.607390 
# 
# From -- ./inp_files/64618.got.cif
#   From: 2010.06.25/outbox.cif.g09.slc.cpg/sg71_33_cif.got.tgz:64618.got - 2010.06.28 04:59:45.
