data_PCOD8286244
_publ_section_title
;
Structure prediction by ZEFSAII (Michael W. Deem and Ramdas Pophale) SiO2 
 PCOD8286244
Probable space group: F D D D
;
_chemical_formula_sum "Si O2"
_cell_formula_units_Z 144
_cell_length_a 17.769573
_cell_length_b 31.928812
_cell_length_c 13.463378
_cell_angle_alpha 90.000000
_cell_angle_beta 90.000000
_cell_angle_gamma 90.000000
_cell_volume 7638.600394
_symmetry_space_group_name_H-M "F D D D"
_symmetry_group_IT_number 70
_space_group.IT_coordinate_system_code '2'
_symmetry_cell_setting 'orthorhombic'
loop_
_space_group_symop_operation_xyz
x,y,z
1/4-x,1/4-y,z
x,1/4-y,1/4-z
1/4-x,y,1/4-z
-x,-y,-z
3/4+x,3/4+y,-z
-x,3/4+y,3/4+z
3/4+x,-y,3/4+z
x,1/2+y,1/2+z
1/4-x,3/4-y,1/2+z
x,3/4-y,3/4-z
1/4-x,1/2+y,3/4-z
-x,1/2-y,1/2-z
3/4+x,1/4+y,1/2-z
-x,1/4+y,1/4+z
3/4+x,1/2-y,1/4+z
1/2+x,y,1/2+z
3/4-x,1/4-y,1/2+z
1/2+x,1/4-y,3/4-z
3/4-x,y,3/4-z
1/2-x,-y,1/2-z
1/4+x,3/4+y,1/2-z
1/2-x,3/4+y,1/4+z
1/4+x,-y,1/4+z
1/2+x,1/2+y,z
3/4-x,3/4-y,z
1/2+x,3/4-y,1/4-z
3/4-x,1/2+y,1/4-z
1/2-x,1/2-y,-z
1/4+x,1/4+y,-z
1/2-x,1/4+y,3/4+z
1/4+x,1/2-y,3/4+z
loop_
_atom_site_type_symbol
_atom_site_label
_atom_site_fract_x
_atom_site_fract_y
_atom_site_fract_z
Si Si1 0.979925 0.697146 0.140916
Si Si2 0.704662 0.887856 0.078236
Si Si3 0.640038 0.875000 0.875000
Si Si4 0.698775 0.540833 0.856388
Si Si5 0.566941 0.588091 0.790363
O O1 0.909634 0.666052 0.145136
O O2 0.953417 0.743215 0.107722
O O3 0.017603 0.700067 0.247787
O O4 0.041115 0.680747 0.063787
O O5 0.625000 0.900216 0.125000
O O6 0.754857 0.929876 0.067532
O O7 0.744900 0.853666 0.148103
O O8 0.693584 0.867861 0.969710
O O9 0.610588 0.553021 0.854837
O O10 0.625000 0.625000 0.766653
#
# Coordination Sequence:
#
# PCOD8286244 Si02
#       5
#    32  32  16  32  32
#     4  11  21  35  62  90 122 151 193 255 307 351
#     4  11  21  39  61  84 120 159 197 244 294 360
#     4  12  22  38  62  88 116 164 202 234 302 362
#     4  10  23  36  59  93 122 151 195 253 305 350
#     4  10  21  39  60  88 119 156 200 247 300 359
#
# _framework density 18.851621000000002
#
# number of rings (size 3 to 8) (size 9 to 14) (size 15 to 20)
#    0.000    1.333    4.444    2.000    3.111    2.667 
#    0.000    6.111    4.889    0.000    0.000    0.000 
#    0.000    0.000    0.000    0.000    0.000    0.000 
#
# Total GULP energy -446478.121806 kJ/mol
# GULP energy per Si atom -12402.170050 kJ/mol
# Density = 1.880871 g / cm^3
# Si number density = 18.851621 Si / 1000 Ang^3
#
#
#
# Elastic Constant Matrix: (Units=GPa)
#
#
# Indices 1 2 3 4 5 6 
#
# 1 88.5849 36.1500 29.6945 0.0000 0.0000 0.0000
# 2 36.1500 111.7740 34.3110 0.0000 0.0000 0.0000
# 3 29.6945 34.3110 81.7427 0.0000 0.0000 0.0000
# 4 0.0000 0.0000 0.0000 14.5514 0.0000 0.0000
# 5 0.0000 0.0000 0.0000 0.0000 25.2754 0.0000
# 6 0.0000 0.0000 0.0000 0.0000 0.0000 10.3627
#
#
#
# Elastic Compliance Matrix: (Units=1/GPa)
#
#
# Indices 1 2 3 4 5 6 
#
# 1 0.013882 -0.003377 -0.003625 0.000000 0.000000 0.000000
# 2 -0.003377 0.011091 -0.003429 0.000000 0.000000 0.000000
# 3 -0.003625 -0.003429 0.014990 0.000000 0.000000 0.000000
# 4 0.000000 0.000000 0.000000 0.068722 0.000000 0.000000
# 5 0.000000 0.000000 0.000000 0.000000 0.039564 0.000000
# 6 0.000000 0.000000 0.000000 0.000000 0.000000 0.096500
#
#
# Mechanical properties :
#
#
# Convention : Reuss Voigt Hill
#
# Bulk Modulus (GPa) = 52.35386 53.60140 52.97763
# Shear Modulus (GPa) = 18.38384 22.16765 20.27574
#
# Velocity S-wave (km/s) = 3.12618 3.43286 3.28311
# Velocity P-wave (km/s) = 6.39238 6.64889 6.52190
#
# Compressibility (1/GPa) = 0.01910079
#
# Stress axis : x y z
#
# Youngs Moduli (GPa) = 72.03625 90.16090 66.71230
#
# Poissons Ratio (x) = 0.30445 0.24186
# Poissons Ratio (y) = 0.24325 0.22874
# Poissons Ratio (z) = 0.26116 0.30915
#
# Static dielectric constant tensor:
#      x y z
#    x 3.647980 0.000000 0.000000 
#    y 0.000000 3.801350 0.000000 
#    z 0.000000 0.000000 3.367450 
# 
# 
# High freq. dielectric constant tensor:
#      x y z
#    x 1.735980 0.000000 0.000000 
#    y 0.000000 1.735760 0.000000 
#    z 0.000000 0.000000 1.714680 
# 
# From -- ./inp_files/26565.got.cif
#   From: 2010.03.12/outbox.cif.g09.slc.cpg/sg70_14_cif.got.tgz:26565.got - 2010.04.16 13:46:32.
