data_PCOD8286405
_publ_section_title
;
Structure prediction by ZEFSAII (Michael W. Deem and Ramdas Pophale) SiO2 
 PCOD8286405
Probable space group: F D D D
;
_chemical_formula_sum "Si O2"
_cell_formula_units_Z 192
_cell_length_a 24.964754
_cell_length_b 13.894701
_cell_length_c 23.411374
_cell_angle_alpha 90.000000
_cell_angle_beta 90.000000
_cell_angle_gamma 90.000000
_cell_volume 8120.885729
_symmetry_space_group_name_H-M "F D D D"
_symmetry_group_IT_number 70
_space_group.IT_coordinate_system_code '2'
_symmetry_cell_setting 'orthorhombic'
loop_
_space_group_symop_operation_xyz
x,y,z
1/4-x,1/4-y,z
x,1/4-y,1/4-z
1/4-x,y,1/4-z
-x,-y,-z
3/4+x,3/4+y,-z
-x,3/4+y,3/4+z
3/4+x,-y,3/4+z
x,1/2+y,1/2+z
1/4-x,3/4-y,1/2+z
x,3/4-y,3/4-z
1/4-x,1/2+y,3/4-z
-x,1/2-y,1/2-z
3/4+x,1/4+y,1/2-z
-x,1/4+y,1/4+z
3/4+x,1/2-y,1/4+z
1/2+x,y,1/2+z
3/4-x,1/4-y,1/2+z
1/2+x,1/4-y,3/4-z
3/4-x,y,3/4-z
1/2-x,-y,1/2-z
1/4+x,3/4+y,1/2-z
1/2-x,3/4+y,1/4+z
1/4+x,-y,1/4+z
1/2+x,1/2+y,z
3/4-x,3/4-y,z
1/2+x,3/4-y,1/4-z
3/4-x,1/2+y,1/4-z
1/2-x,1/2-y,-z
1/4+x,1/4+y,-z
1/2-x,1/4+y,3/4+z
1/4+x,1/2-y,3/4+z
loop_
_atom_site_type_symbol
_atom_site_label
_atom_site_fract_x
_atom_site_fract_y
_atom_site_fract_z
Si Si1 0.768484 0.375000 0.875000
Si Si2 0.938588 0.625000 0.625000
Si Si3 0.765368 0.554775 0.376610
Si Si4 0.599225 0.851173 0.495297
Si Si5 0.508446 0.031688 0.788576
Si Si6 0.705372 0.779761 0.542375
Si Si7 0.352031 0.271453 0.805873
O O1 0.733402 0.310873 0.830367
O O2 0.805563 0.299210 0.908557
O O3 0.901085 0.637270 0.680064
O O4 0.973593 0.530244 0.634056
O O5 0.745883 0.616536 0.322716
O O6 0.770816 0.621709 0.432600
O O7 0.825501 0.506610 0.381475
O O8 0.548886 0.781120 0.506870
O O9 0.651445 0.788458 0.506818
O O10 0.602166 0.945140 0.536355
O O11 0.556416 0.030119 0.743802
O O12 0.750000 0.750000 0.500000
O O13 0.375000 0.375000 0.813067
#
# Coordination Sequence:
#
# PCOD8286405 Si02
#       7
#    16  16  32  32  32  32  32
#     4  10  22  42  76  95 142 189 230 303 367 414
#     4  12  24  45  69 101 140 192 226 297 364 424
#     4  10  24  42  69 100 137 184 235 286 358 433
#     4  11  26  43  68 101 141 177 243 290 358 439
#     4  11  24  47  67 103 142 179 244 299 350 439
#     4  10  23  44  69 104 141 181 242 298 351 441
#     4  11  24  44  69 103 142 191 229 299 360 418
#
# _framework density 23.64274
#
# number of rings (size 3 to 8) (size 9 to 14) (size 15 to 20)
#    0.000    1.333    1.667    3.000    2.333   12.667 
#    0.000    1.667    0.000    0.000    0.000    0.000 
#    0.000    0.000    0.000    0.000    0.000    0.000 
#
# Total GULP energy -594769.675375 kJ/mol
# GULP energy per Si atom -12391.034904 kJ/mol
# Density = 2.358893 g / cm^3
# Si number density = 23.642740 Si / 1000 Ang^3
#
#
#
# Elastic Constant Matrix: (Units=GPa)
#
#
# Indices 1 2 3 4 5 6 
#
# 1 67.9659 45.9355 32.0039 0.0000 0.0000 0.0000
# 2 45.9355 150.2714 37.3741 0.0000 0.0000 0.0000
# 3 32.0039 37.3741 125.8162 0.0000 0.0000 0.0000
# 4 0.0000 0.0000 0.0000 19.7437 0.0000 0.0000
# 5 0.0000 0.0000 0.0000 0.0000 17.0791 0.0000
# 6 0.0000 0.0000 0.0000 0.0000 0.0000 34.1478
#
#
#
# Elastic Compliance Matrix: (Units=1/GPa)
#
#
# Indices 1 2 3 4 5 6 
#
# 1 0.019885 -0.005205 -0.003512 0.000000 0.000000 0.000000
# 2 -0.005205 0.008548 -0.001215 0.000000 0.000000 0.000000
# 3 -0.003512 -0.001215 0.009202 0.000000 0.000000 0.000000
# 4 0.000000 0.000000 0.000000 0.050649 0.000000 0.000000
# 5 0.000000 0.000000 0.000000 0.000000 0.058551 0.000000
# 6 0.000000 0.000000 0.000000 0.000000 0.000000 0.029284
#
#
# Mechanical properties :
#
#
# Convention : Reuss Voigt Hill
#
# Bulk Modulus (GPa) = 56.27177 63.85337 60.06257
# Shear Modulus (GPa) = 24.76376 29.44344 27.10360
#
# Velocity S-wave (km/s) = 3.23989 3.53278 3.38950
# Velocity P-wave (km/s) = 6.15210 6.61112 6.38574
#
# Compressibility (1/GPa) = 0.01777090
#
# Stress axis : x y z
#
# Youngs Moduli (GPa) = 50.28962 116.98724 108.66715
#
# Poissons Ratio (x) = 0.60892 0.38163
# Poissons Ratio (y) = 0.26176 0.13205
# Poissons Ratio (z) = 0.17661 0.14216
#
# Static dielectric constant tensor:
#      x y z
#    x 4.520630 0.000000 0.000000 
#    y 0.000000 -1.720940 0.000000 
#    z 0.000000 0.000000 3.898930 
# 
# 
# High freq. dielectric constant tensor:
#      x y z
#    x 1.923800 0.000000 0.000000 
#    y 0.000000 1.956810 0.000000 
#    z 0.000000 0.000000 1.961380 
# 
# From -- ./inp_files/54369.got.cif
#   From: 2010.03.12/outbox.cif.g09.slc.cpg/sg70_28_cif.got.tgz:54369.got - 2010.04.16 13:46:32.
