data_PCOD8286949
_publ_section_title
;
Structure prediction by ZEFSAII (Michael W. Deem and Ramdas Pophale) SiO2 
 PCOD8286949
Probable space group: I M M M
;
_chemical_formula_sum "Si O2"
_cell_formula_units_Z 104
_cell_length_a 33.087927
_cell_length_b 7.722883
_cell_length_c 22.344726
_cell_angle_alpha 90.000000
_cell_angle_beta 90.000000
_cell_angle_gamma 90.000000
_cell_volume 5709.841435
_symmetry_space_group_name_H-M "I M M M"
_symmetry_group_IT_number 71
_symmetry_cell_setting 'orthorhombic'
loop_
_space_group_symop_operation_xyz
x,y,z
-x,-y,z
x,-y,-z
-x,y,-z
-x,-y,-z
x,y,-z
-x,y,z
x,-y,z
1/2+x,1/2+y,1/2+z
1/2-x,1/2-y,1/2+z
1/2+x,1/2-y,1/2-z
1/2-x,1/2+y,1/2-z
1/2-x,1/2-y,1/2-z
1/2+x,1/2+y,1/2-z
1/2-x,1/2+y,1/2+z
1/2+x,1/2-y,1/2+z
loop_
_atom_site_type_symbol
_atom_site_label
_atom_site_fract_x
_atom_site_fract_y
_atom_site_fract_z
Si Si1 0.326862 0.796050 0.933420
Si Si2 0.044935 0.794173 0.271727
Si Si3 0.453965 0.706744 0.000000
Si Si4 0.817684 0.500000 0.071300
Si Si5 0.237449 0.192480 0.928669
Si Si6 0.408636 0.300521 0.884297
Si Si7 0.590755 0.000000 0.570899
Si Si8 0.047780 0.801829 0.861483
O O1 0.282421 0.747008 0.908470
O O2 0.360439 0.722151 0.888436
O O3 0.330887 0.000000 0.937135
O O4 0.333589 0.716433 0.000000
O O5 0.075011 0.716884 0.322332
O O6 0.059335 0.737723 0.205505
O O7 0.000000 0.721909 0.284922
O O8 0.043709 0.000000 0.272341
O O9 0.431149 0.783519 0.058365
O O10 0.452013 0.500000 0.000000
O O11 0.500000 0.772918 0.000000
O O12 0.795187 0.328624 0.096383
O O13 0.863294 0.500000 0.094914
O O14 0.815857 0.500000 0.000000
O O15 0.227217 0.000000 0.903647
O O16 0.237202 0.186200 0.000000
O O17 0.420389 0.500000 0.882526
O O18 0.569438 0.175071 0.592365
O O19 0.589472 0.000000 0.500000
O O20 0.000000 0.788377 0.870913
O O21 0.062054 0.000000 0.873096
#
# Coordination Sequence:
#
# PCOD8286949 Si02
#       8
#    16  16   8   8  16  16   8  16
#     4   9  17  28  40  59  95 133 164 213 267 311
#     4   8  15  30  50  69  94 130 176 221 252 286
#     4   9  16  24  35  59  95 131 167 211 271 325
#     4   9  18  31  48  75 104 134 159 196 242 310
#     4   8  15  28  45  65  94 135 171 201 247 300
#     4  10  17  25  42  68  92 124 172 222 266 305
#     4  11  23  36  55  88 120 133 156 200 258 305
#     4   9  19  37  58  78 106 145 180 208 241 288
#
# _framework density 18.214167
#
# number of rings (size 3 to 8) (size 9 to 14) (size 15 to 20)
#    0.000    3.000    0.769    2.538    1.077    3.385 
#    1.385    2.308    0.000    1.846    0.000    1.077 
#    0.000    0.000    0.000    0.000    0.000    0.000 
#
# Total GULP energy -644489.437287 kJ/mol
# GULP energy per Si atom -12394.027640 kJ/mol
# Density = 1.817271 g / cm^3
# Si number density = 18.214167 Si / 1000 Ang^3
#
#
#
# Elastic Constant Matrix: (Units=GPa)
#
#
# Indices 1 2 3 4 5 6 
#
# 1 112.9688 48.2078 49.1505 0.0000 0.0000 0.0000
# 2 48.2078 68.2736 29.9310 0.0000 0.0000 0.0000
# 3 49.1505 29.9310 78.7098 0.0000 0.0000 0.0000
# 4 0.0000 0.0000 0.0000 10.1856 0.0000 0.0000
# 5 0.0000 0.0000 0.0000 0.0000 15.3171 0.0000
# 6 0.0000 0.0000 0.0000 0.0000 0.0000 3.1906
#
#
#
# Elastic Compliance Matrix: (Units=1/GPa)
#
#
# Indices 1 2 3 4 5 6 
#
# 1 0.014934 -0.007748 -0.006379 0.000000 0.000000 0.000000
# 2 -0.007748 0.021597 -0.003374 0.000000 0.000000 0.000000
# 3 -0.006379 -0.003374 0.017972 0.000000 0.000000 0.000000
# 4 0.000000 0.000000 0.000000 0.098178 0.000000 0.000000
# 5 0.000000 0.000000 0.000000 0.000000 0.065286 0.000000
# 6 0.000000 0.000000 0.000000 0.000000 0.000000 0.313422
#
#
# Mechanical properties :
#
#
# Convention : Reuss Voigt Hill
#
# Bulk Modulus (GPa) = 51.28399 57.17009 54.22704
# Shear Modulus (GPa) = 8.72765 14.58286 11.65526
#
# Velocity S-wave (km/s) = 2.19137 2.83262 2.53237
# Velocity P-wave (km/s) = 5.88388 6.49262 6.19573
#
# Compressibility (1/GPa) = 0.01949926
#
# Stress axis : x y z
#
# Youngs Moduli (GPa) = 66.96219 46.30219 55.64365
#
# Poissons Ratio (x) = 0.35876 0.35495
# Poissons Ratio (y) = 0.51883 0.18777
# Poissons Ratio (z) = 0.42715 0.15624
#
# Static dielectric constant tensor:
#      x y z
#    x 3.471490 0.000000 0.000000 
#    y 0.000000 3.242540 0.000000 
#    z 0.000000 0.000000 3.265320 
# 
# 
# High freq. dielectric constant tensor:
#      x y z
#    x 1.701010 0.000000 0.000000 
#    y 0.000000 1.697440 0.000000 
#    z 0.000000 0.000000 1.661870 
# 
# From -- ./inp_files/62346.got.cif
#   From: 2010.06.25/outbox.cif.g09.slc.cpg/sg71_32_cif.got.tgz:62346.got - 2010.06.28 04:59:45.
