data_PCOD8286714
_publ_section_title
;
Structure prediction by ZEFSAII (Michael W. Deem and Ramdas Pophale) SiO2 
 PCOD8286714
Probable space group: F D D D
;
_chemical_formula_sum "Si O2"
_cell_formula_units_Z 136
_cell_length_a 21.130823
_cell_length_b 16.003331
_cell_length_c 18.586923
_cell_angle_alpha 90.000000
_cell_angle_beta 90.000000
_cell_angle_gamma 90.000000
_cell_volume 6285.419954
_symmetry_space_group_name_H-M "F D D D"
_symmetry_group_IT_number 70
_space_group.IT_coordinate_system_code '2'
_symmetry_cell_setting 'orthorhombic'
loop_
_space_group_symop_operation_xyz
x,y,z
1/4-x,1/4-y,z
x,1/4-y,1/4-z
1/4-x,y,1/4-z
-x,-y,-z
3/4+x,3/4+y,-z
-x,3/4+y,3/4+z
3/4+x,-y,3/4+z
x,1/2+y,1/2+z
1/4-x,3/4-y,1/2+z
x,3/4-y,3/4-z
1/4-x,1/2+y,3/4-z
-x,1/2-y,1/2-z
3/4+x,1/4+y,1/2-z
-x,1/4+y,1/4+z
3/4+x,1/2-y,1/4+z
1/2+x,y,1/2+z
3/4-x,1/4-y,1/2+z
1/2+x,1/4-y,3/4-z
3/4-x,y,3/4-z
1/2-x,-y,1/2-z
1/4+x,3/4+y,1/2-z
1/2-x,3/4+y,1/4+z
1/4+x,-y,1/4+z
1/2+x,1/2+y,z
3/4-x,3/4-y,z
1/2+x,3/4-y,1/4-z
3/4-x,1/2+y,1/4-z
1/2-x,1/2-y,-z
1/4+x,1/4+y,-z
1/2-x,1/4+y,3/4+z
1/4+x,1/2-y,3/4+z
loop_
_atom_site_type_symbol
_atom_site_label
_atom_site_fract_x
_atom_site_fract_y
_atom_site_fract_z
Si Si1 0.098196 0.962921 0.340023
Si Si2 0.625000 0.625000 0.625000
Si Si3 0.466303 0.245276 0.450610
Si Si4 0.082457 0.936309 0.059810
Si Si5 0.475967 0.525034 0.138364
O O1 0.081338 0.875000 0.375000
O O2 0.131224 0.959175 0.262047
O O3 0.152947 0.007191 0.386314
O O4 0.031747 0.011478 0.344230
O O5 0.579202 0.679236 0.573492
O O6 0.426558 0.162504 0.438787
O O7 0.494707 0.253490 0.531605
O O8 0.125000 0.967266 0.125000
O O9 0.015905 0.983452 0.073756
O O10 0.478388 0.625000 0.125000
#
# Coordination Sequence:
#
# PCOD8286714 Si02
#       5
#    32   8  32  32  32
#     4  11  23  45  69  99 142 178 226 290 346 421
#     4  12  28  44  72 104 142 192 240 284 348 424
#     4  12  25  44  71 103 137 186 234 286 350 418
#     4  12  24  45  70 102 140 182 231 292 350 422
#     4  11  25  46  70 102 140 179 231 290 357 415
#
# _framework density 21.637377000000001
#
# number of rings (size 3 to 8) (size 9 to 14) (size 15 to 20)
#    0.000    0.471    9.412    0.706    0.000    3.294 
#    0.000    4.706    0.000    0.000    0.000    0.000 
#    0.000    0.000    0.000    0.000    0.000    0.000 
#
# Total GULP energy -421213.602401 kJ/mol
# GULP energy per Si atom -12388.635365 kJ/mol
# Density = 2.158813 g / cm^3
# Si number density = 21.637377 Si / 1000 Ang^3
#
#
#
# Elastic Constant Matrix: (Units=GPa)
#
#
# Indices 1 2 3 4 5 6 
#
# 1 107.8774 16.9333 -8.0586 0.0000 0.0000 0.0000
# 2 16.9333 63.6176 8.7804 0.0000 0.0000 0.0000
# 3 -8.0586 8.7804 75.8706 0.0000 0.0000 0.0000
# 4 0.0000 0.0000 0.0000 28.9479 0.0000 0.0000
# 5 0.0000 0.0000 0.0000 0.0000 40.8316 0.0000
# 6 0.0000 0.0000 0.0000 0.0000 0.0000 29.4636
#
#
#
# Elastic Compliance Matrix: (Units=1/GPa)
#
#
# Indices 1 2 3 4 5 6 
#
# 1 0.009811 -0.002800 0.001366 0.000000 0.000000 0.000000
# 2 -0.002800 0.016773 -0.002239 0.000000 0.000000 0.000000
# 3 0.001366 -0.002239 0.013585 0.000000 0.000000 0.000000
# 4 0.000000 0.000000 0.000000 0.034545 0.000000 0.000000
# 5 0.000000 0.000000 0.000000 0.000000 0.024491 0.000000
# 6 0.000000 0.000000 0.000000 0.000000 0.000000 0.033940
#
#
# Mechanical properties :
#
#
# Convention : Reuss Voigt Hill
#
# Bulk Modulus (GPa) = 30.46539 31.40843 30.93691
# Shear Modulus (GPa) = 33.01828 35.16264 34.09046
#
# Velocity S-wave (km/s) = 3.91062 4.03561 3.97361
# Velocity P-wave (km/s) = 5.87377 6.02181 5.94825
#
# Compressibility (1/GPa) = 0.03282413
#
# Stress axis : x y z
#
# Youngs Moduli (GPa) = 101.92271 59.61894 73.61328
#
# Poissons Ratio (x) = 0.16694 -0.10057
# Poissons Ratio (y) = 0.28539 0.16479
# Poissons Ratio (z) = -0.13924 0.13346
#
# Static dielectric constant tensor:
#      x y z
#    x 4.266680 0.000000 0.000000 
#    y 0.000000 3.626250 0.000000 
#    z 0.000000 0.000000 4.517330 
# 
# 
# High freq. dielectric constant tensor:
#      x y z
#    x 1.876520 0.000000 0.000000 
#    y 0.000000 1.825980 0.000000 
#    z 0.000000 0.000000 1.860010 
# 
# From -- ./inp_files/28476.got.cif
#   From: 2010.03.12/outbox.cif.g09.slc.cpg/sg70_15_cif.got.tgz:28476.got - 2010.04.16 13:46:32.
