data_PCOD8286335
_publ_section_title
;
Structure prediction by ZEFSAII (Michael W. Deem and Ramdas Pophale) SiO2 
 PCOD8286335
Probable space group: F D D D
;
_chemical_formula_sum "Si O2"
_cell_formula_units_Z 192
_cell_length_a 15.714831
_cell_length_b 23.431855
_cell_length_c 27.365380
_cell_angle_alpha 90.000000
_cell_angle_beta 90.000000
_cell_angle_gamma 90.000000
_cell_volume 10076.689332
_symmetry_space_group_name_H-M "F D D D"
_symmetry_group_IT_number 70
_space_group.IT_coordinate_system_code '2'
_symmetry_cell_setting 'orthorhombic'
loop_
_space_group_symop_operation_xyz
x,y,z
1/4-x,1/4-y,z
x,1/4-y,1/4-z
1/4-x,y,1/4-z
-x,-y,-z
3/4+x,3/4+y,-z
-x,3/4+y,3/4+z
3/4+x,-y,3/4+z
x,1/2+y,1/2+z
1/4-x,3/4-y,1/2+z
x,3/4-y,3/4-z
1/4-x,1/2+y,3/4-z
-x,1/2-y,1/2-z
3/4+x,1/4+y,1/2-z
-x,1/4+y,1/4+z
3/4+x,1/2-y,1/4+z
1/2+x,y,1/2+z
3/4-x,1/4-y,1/2+z
1/2+x,1/4-y,3/4-z
3/4-x,y,3/4-z
1/2-x,-y,1/2-z
1/4+x,3/4+y,1/2-z
1/2-x,3/4+y,1/4+z
1/4+x,-y,1/4+z
1/2+x,1/2+y,z
3/4-x,3/4-y,z
1/2+x,3/4-y,1/4-z
3/4-x,1/2+y,1/4-z
1/2-x,1/2-y,-z
1/4+x,1/4+y,-z
1/2-x,1/4+y,3/4+z
1/4+x,1/2-y,3/4+z
loop_
_atom_site_type_symbol
_atom_site_label
_atom_site_fract_x
_atom_site_fract_y
_atom_site_fract_z
Si Si1 0.591264 0.927698 0.339342
Si Si2 0.543602 0.731788 0.152006
Si Si3 0.738525 0.895615 0.666171
Si Si4 0.875000 0.375000 0.087441
Si Si5 0.782302 0.389569 0.274767
Si Si6 0.773708 0.764752 0.555317
Si Si7 0.625000 0.947443 0.125000
O O1 0.613071 0.875000 0.375000
O O2 0.535721 0.975922 0.365746
O O3 0.539414 0.905043 0.292237
O O4 0.676705 0.958991 0.323518
O O5 0.625000 0.703973 0.125000
O O6 0.566621 0.796761 0.165454
O O7 0.515000 0.701380 0.202090
O O8 0.803360 0.901899 0.621607
O O9 0.787808 0.891167 0.716761
O O10 0.677655 0.841422 0.662442
O O11 0.830521 0.323535 0.056199
O O12 0.875000 0.375000 0.295413
O O13 0.750000 0.750000 0.500000
O O14 0.690339 0.767177 0.590745
#
# Coordination Sequence:
#
# PCOD8286335 Si02
#       7
#    32  32  32  16  32  32  16
#     4  10  22  39  62  90 130 165 200 256 320 383
#     4  11  20  35  57  87 125 158 189 240 309 378
#     4  11  20  38  57  87 121 152 207 252 304 373
#     4  10  22  38  66  85 115 168 202 268 322 354
#     4  11  21  33  58  93 119 157 196 245 313 378
#     4  11  23  46  65  93 127 169 223 270 320 384
#     4  10  24  40  67  88 123 172 214 268 320 362
#
# _framework density 19.053877
#
# number of rings (size 3 to 8) (size 9 to 14) (size 15 to 20)
#    0.000    1.333    5.000    1.500    0.000    0.000 
#    3.000    0.000    0.000    0.000    0.000    0.000 
#    0.000    0.000    0.000    0.000    0.000    0.000 
#
# Total GULP energy -594865.087375 kJ/mol
# GULP energy per Si atom -12393.022654 kJ/mol
# Density = 1.901051 g / cm^3
# Si number density = 19.053877 Si / 1000 Ang^3
#
#
#
# Elastic Constant Matrix: (Units=GPa)
#
#
# Indices 1 2 3 4 5 6 
#
# 1 119.3168 52.0920 53.4112 0.0000 0.0000 0.0000
# 2 52.0920 104.0884 56.0011 0.0000 0.0000 0.0000
# 3 53.4112 56.0011 124.6969 0.0000 0.0000 0.0000
# 4 0.0000 0.0000 0.0000 22.7090 0.0000 0.0000
# 5 0.0000 0.0000 0.0000 0.0000 27.2535 0.0000
# 6 0.0000 0.0000 0.0000 0.0000 0.0000 22.9428
#
#
#
# Elastic Compliance Matrix: (Units=1/GPa)
#
#
# Indices 1 2 3 4 5 6 
#
# 1 0.011570 -0.004119 -0.003106 0.000000 0.000000 0.000000
# 2 -0.004119 0.014135 -0.004583 0.000000 0.000000 0.000000
# 3 -0.003106 -0.004583 0.011408 0.000000 0.000000 0.000000
# 4 0.000000 0.000000 0.000000 0.044035 0.000000 0.000000
# 5 0.000000 0.000000 0.000000 0.000000 0.036692 0.000000
# 6 0.000000 0.000000 0.000000 0.000000 0.000000 0.043587
#
#
# Mechanical properties :
#
#
# Convention : Reuss Voigt Hill
#
# Bulk Modulus (GPa) = 74.09761 74.56785 74.33273
# Shear Modulus (GPa) = 26.37931 27.02092 26.70012
#
# Velocity S-wave (km/s) = 3.72487 3.76990 3.74745
# Velocity P-wave (km/s) = 7.58106 7.62691 7.60402
#
# Compressibility (1/GPa) = 0.01349571
#
# Stress axis : x y z
#
# Youngs Moduli (GPa) = 86.43276 70.74773 87.65688
#
# Poissons Ratio (x) = 0.29143 0.27223
# Poissons Ratio (y) = 0.35604 0.40177
# Poissons Ratio (z) = 0.26843 0.32427
#
# Static dielectric constant tensor:
#      x y z
#    x 3.512020 0.000000 0.000000 
#    y 0.000000 3.411640 0.000000 
#    z 0.000000 0.000000 3.356640 
# 
# 
# High freq. dielectric constant tensor:
#      x y z
#    x 1.740220 0.000000 0.000000 
#    y 0.000000 1.741060 0.000000 
#    z 0.000000 0.000000 1.739040 
# 
# From -- ./inp_files/58751.got.cif
#   From: 2010.03.12/outbox.cif.g09.slc.cpg/sg70_30_cif.got.tgz:58751.got - 2010.04.16 13:46:32.
