data_PCOD8286802
_publ_section_title
;
Structure prediction by ZEFSAII (Michael W. Deem and Ramdas Pophale) SiO2 
 PCOD8286802
Probable space group: F D D D
;
_chemical_formula_sum "Si O2"
_cell_formula_units_Z 104
_cell_length_a 8.834741
_cell_length_b 23.517047
_cell_length_c 16.358899
_cell_angle_alpha 90.000000
_cell_angle_beta 90.000000
_cell_angle_gamma 90.000000
_cell_volume 3398.839685
_symmetry_space_group_name_H-M "F D D D"
_symmetry_group_IT_number 70
_space_group.IT_coordinate_system_code '2'
_symmetry_cell_setting 'orthorhombic'
loop_
_space_group_symop_operation_xyz
x,y,z
1/4-x,1/4-y,z
x,1/4-y,1/4-z
1/4-x,y,1/4-z
-x,-y,-z
3/4+x,3/4+y,-z
-x,3/4+y,3/4+z
3/4+x,-y,3/4+z
x,1/2+y,1/2+z
1/4-x,3/4-y,1/2+z
x,3/4-y,3/4-z
1/4-x,1/2+y,3/4-z
-x,1/2-y,1/2-z
3/4+x,1/4+y,1/2-z
-x,1/4+y,1/4+z
3/4+x,1/2-y,1/4+z
1/2+x,y,1/2+z
3/4-x,1/4-y,1/2+z
1/2+x,1/4-y,3/4-z
3/4-x,y,3/4-z
1/2-x,-y,1/2-z
1/4+x,3/4+y,1/2-z
1/2-x,3/4+y,1/4+z
1/4+x,-y,1/4+z
1/2+x,1/2+y,z
3/4-x,3/4-y,z
1/2+x,3/4-y,1/4-z
3/4-x,1/2+y,1/4-z
1/2-x,1/2-y,-z
1/4+x,1/4+y,-z
1/2-x,1/4+y,3/4+z
1/4+x,1/2-y,3/4+z
loop_
_atom_site_type_symbol
_atom_site_label
_atom_site_fract_x
_atom_site_fract_y
_atom_site_fract_z
Si Si1 0.787789 0.459233 0.458351
Si Si2 0.939177 0.316089 0.130144
Si Si3 0.101572 0.911053 0.961015
Si Si4 0.375000 0.375000 0.375000
O O1 0.813690 0.457395 0.555804
O O2 0.710303 0.519555 0.441146
O O3 0.688480 0.404010 0.435885
O O4 0.969094 0.454437 0.422084
O O5 0.875000 0.375000 0.091584
O O6 0.160035 0.329453 0.060107
O O7 0.272656 0.918041 0.930275
#
# Coordination Sequence:
#
# PCOD8286802 Si02
#       4
#    32  32  32   8
#     4   8  16  38  68 105 145 196 275 316 395 501
#     4   8  16  36  72 111 144 201 268 324 400 487
#     4   8  20  35  71 104 138 212 254 324 396 488
#     4  12  20  42  68 100 152 202 272 324 402 484
#
# _framework density 30.598676000000001
#
# number of rings (size 3 to 8) (size 9 to 14) (size 15 to 20)
#    1.846    1.846    0.000    0.000    0.000    2.462 
#    0.000    3.077   16.923    7.385    0.000    8.615 
#    0.000    0.000    0.000    0.000    0.000    0.000 
#
# Total GULP energy -322255.857567 kJ/mol
# GULP energy per Si atom -12394.456060 kJ/mol
# Density = 3.052903 g / cm^3
# Si number density = 30.598676 Si / 1000 Ang^3
#
#
#
# Elastic Constant Matrix: (Units=GPa)
#
#
# Indices 1 2 3 4 5 6 
#
# 1 164.6991 77.8366 61.4905 0.0000 0.0000 0.0000
# 2 77.8366 257.8757 102.7187 0.0000 0.0000 0.0000
# 3 61.4905 102.7187 130.4349 0.0000 0.0000 0.0000
# 4 0.0000 0.0000 0.0000 72.3839 0.0000 0.0000
# 5 0.0000 0.0000 0.0000 0.0000 30.9975 0.0000
# 6 0.0000 0.0000 0.0000 0.0000 0.0000 47.5647
#
#
#
# Elastic Compliance Matrix: (Units=1/GPa)
#
#
# Indices 1 2 3 4 5 6 
#
# 1 0.007644 -0.001270 -0.002603 0.000000 0.000000 0.000000
# 2 -0.001270 0.005861 -0.004017 0.000000 0.000000 0.000000
# 3 -0.002603 -0.004017 0.012057 0.000000 0.000000 0.000000
# 4 0.000000 0.000000 0.000000 0.013815 0.000000 0.000000
# 5 0.000000 0.000000 0.000000 0.000000 0.032261 0.000000
# 6 0.000000 0.000000 0.000000 0.000000 0.000000 0.021024
#
#
# Mechanical properties :
#
#
# Convention : Reuss Voigt Hill
#
# Bulk Modulus (GPa) = 102.23285 115.23345 108.73315
# Shear Modulus (GPa) = 44.76120 50.92015 47.84067
#
# Velocity S-wave (km/s) = 3.82887 4.08380 3.95839
# Velocity P-wave (km/s) = 7.28220 7.74454 7.51692
#
# Compressibility (1/GPa) = 0.00978159
#
# Stress axis : x y z
#
# Youngs Moduli (GPa) = 130.82292 170.60933 82.93742
#
# Poissons Ratio (x) = 0.21673 0.21590
# Poissons Ratio (y) = 0.16619 0.33316
# Poissons Ratio (z) = 0.34055 0.68534
#
# Static dielectric constant tensor:
#      x y z
#    x 5.613020 0.000000 0.000000 
#    y 0.000000 5.696050 0.000000 
#    z 0.000000 0.000000 6.754530 
# 
# 
# High freq. dielectric constant tensor:
#      x y z
#    x 2.230580 0.000000 0.000000 
#    y 0.000000 2.263570 0.000000 
#    z 0.000000 0.000000 2.333990 
# 
# From -- ./inp_files/49031.got.cif
#   From: 2010.03.12/outbox.cif.g09.slc.cpg/sg70_25_cif.got.tgz:49031.got - 2010.04.16 13:46:32.
