data_PCOD8286550
_publ_section_title
;
Structure prediction by ZEFSAII (Michael W. Deem and Ramdas Pophale) SiO2 
 PCOD8286550
Probable space group: F D D D
;
_chemical_formula_sum "Si O2"
_cell_formula_units_Z 216
_cell_length_a 15.142807
_cell_length_b 21.776142
_cell_length_c 27.875687
_cell_angle_alpha 90.000000
_cell_angle_beta 90.000000
_cell_angle_gamma 90.000000
_cell_volume 9192.061184
_symmetry_space_group_name_H-M "F D D D"
_symmetry_group_IT_number 70
_space_group.IT_coordinate_system_code '2'
_symmetry_cell_setting 'orthorhombic'
loop_
_space_group_symop_operation_xyz
x,y,z
1/4-x,1/4-y,z
x,1/4-y,1/4-z
1/4-x,y,1/4-z
-x,-y,-z
3/4+x,3/4+y,-z
-x,3/4+y,3/4+z
3/4+x,-y,3/4+z
x,1/2+y,1/2+z
1/4-x,3/4-y,1/2+z
x,3/4-y,3/4-z
1/4-x,1/2+y,3/4-z
-x,1/2-y,1/2-z
3/4+x,1/4+y,1/2-z
-x,1/4+y,1/4+z
3/4+x,1/2-y,1/4+z
1/2+x,y,1/2+z
3/4-x,1/4-y,1/2+z
1/2+x,1/4-y,3/4-z
3/4-x,y,3/4-z
1/2-x,-y,1/2-z
1/4+x,3/4+y,1/2-z
1/2-x,3/4+y,1/4+z
1/4+x,-y,1/4+z
1/2+x,1/2+y,z
3/4-x,3/4-y,z
1/2+x,3/4-y,1/4-z
3/4-x,1/2+y,1/4-z
1/2-x,1/2-y,-z
1/4+x,1/4+y,-z
1/2-x,1/4+y,3/4+z
1/4+x,1/2-y,3/4+z
loop_
_atom_site_type_symbol
_atom_site_label
_atom_site_fract_x
_atom_site_fract_y
_atom_site_fract_z
Si Si1 0.544296 0.288696 0.534909
Si Si2 0.759271 0.092588 0.544523
Si Si3 0.266939 0.726607 0.108302
Si Si4 0.027943 0.836393 0.701416
Si Si5 0.422412 0.438047 0.134054
Si Si6 0.204836 0.362562 0.306181
Si Si7 0.625000 0.125000 0.625000
Si Si8 0.125000 0.326273 0.625000
O O1 0.493394 0.225954 0.522356
O O2 0.651255 0.282937 0.535246
O O3 0.513561 0.313283 0.586622
O O4 0.519981 0.341932 0.496937
O O5 0.734081 0.135761 0.499416
O O6 0.852678 0.117306 0.563695
O O7 0.689138 0.088004 0.588709
O O8 0.364835 0.753965 0.099904
O O9 0.268027 0.693707 0.159879
O O10 0.241919 0.674930 0.068783
O O11 0.199179 0.781921 0.102878
O O12 0.079703 0.886378 0.668513
O O13 0.947250 0.806306 0.672194
O O14 0.375000 0.375000 0.144932
#
# Coordination Sequence:
#
# PCOD8286550 Si02
#       8
#    32  32  32  32  32  32   8  16
#     4  11  23  43  68 101 141 183 234 302 364 432
#     4  11  26  44  69 103 144 188 240 301 364 437
#     4  11  23  43  71  97 140 187 231 295 354 436
#     4  11  24  43  69 104 142 182 244 301 362 437
#     4  12  23  42  72  99 137 186 239 291 367 429
#     4  10  24  45  67 102 141 185 238 293 368 432
#     4  12  28  42  72 108 144 192 252 288 370 446
#     4  12  22  42  70 104 138 186 238 304 358 438
#
# _framework density 23.498539000000001
#
# number of rings (size 3 to 8) (size 9 to 14) (size 15 to 20)
#    0.000    0.889    4.444    1.778    3.111    1.185 
#    5.333    5.185    0.000    0.000    0.000    0.000 
#    0.000    0.000    0.000    0.000    0.000    0.000 
#
# Total GULP energy -669254.642130 kJ/mol
# GULP energy per Si atom -12393.604484 kJ/mol
# Density = 2.344506 g / cm^3
# Si number density = 23.498539 Si / 1000 Ang^3
#
#
#
# Elastic Constant Matrix: (Units=GPa)
#
#
# Indices 1 2 3 4 5 6 
#
# 1 62.5800 11.1173 17.1568 0.0000 0.0000 0.0000
# 2 11.1173 66.0961 22.0144 0.0000 0.0000 0.0000
# 3 17.1568 22.0144 106.7662 0.0000 0.0000 0.0000
# 4 0.0000 0.0000 0.0000 28.5335 0.0000 0.0000
# 5 0.0000 0.0000 0.0000 0.0000 19.3522 0.0000
# 6 0.0000 0.0000 0.0000 0.0000 0.0000 26.4532
#
#
#
# Elastic Compliance Matrix: (Units=1/GPa)
#
#
# Indices 1 2 3 4 5 6 
#
# 1 0.016981 -0.002091 -0.002298 0.000000 0.000000 0.000000
# 2 -0.002091 0.016503 -0.003067 0.000000 0.000000 0.000000
# 3 -0.002298 -0.003067 0.010368 0.000000 0.000000 0.000000
# 4 0.000000 0.000000 0.000000 0.035046 0.000000 0.000000
# 5 0.000000 0.000000 0.000000 0.000000 0.051674 0.000000
# 6 0.000000 0.000000 0.000000 0.000000 0.000000 0.037803
#
#
# Mechanical properties :
#
#
# Convention : Reuss Voigt Hill
#
# Bulk Modulus (GPa) = 34.55329 37.33549 35.94439
# Shear Modulus (GPa) = 25.91593 27.21138 26.56365
#
# Velocity S-wave (km/s) = 3.32456 3.40664 3.36585
# Velocity P-wave (km/s) = 5.42893 5.60326 5.51678
#
# Compressibility (1/GPa) = 0.02894081
#
# Stress axis : x y z
#
# Youngs Moduli (GPa) = 58.88971 60.59653 96.45242
#
# Poissons Ratio (x) = 0.12670 0.22161
# Poissons Ratio (y) = 0.12313 0.29579
# Poissons Ratio (z) = 0.13531 0.18583
#
# Static dielectric constant tensor:
#      x y z
#    x 4.238530 0.000000 0.000000 
#    y 0.000000 4.277670 0.000000 
#    z 0.000000 0.000000 4.260620 
# 
# 
# High freq. dielectric constant tensor:
#      x y z
#    x 1.924770 0.000000 0.000000 
#    y 0.000000 1.935030 0.000000 
#    z 0.000000 0.000000 1.930680 
# 
# From -- ./inp_files/65960.got.cif
#   From: 2010.03.12/outbox.cif.g09.slc.cpg/sg70_33_cif.got.tgz:65960.got - 2010.04.16 13:46:32.
