data_PCOD8286943
_publ_section_title
;
Structure prediction by ZEFSAII (Michael W. Deem and Ramdas Pophale) SiO2 
 PCOD8286943
Probable space group: I M M M
;
_chemical_formula_sum "Si O2"
_cell_formula_units_Z 96
_cell_length_a 29.024144
_cell_length_b 9.060978
_cell_length_c 26.419291
_cell_angle_alpha 90.000000
_cell_angle_beta 90.000000
_cell_angle_gamma 90.000000
_cell_volume 6947.933523
_symmetry_space_group_name_H-M "I M M M"
_symmetry_group_IT_number 71
_symmetry_cell_setting 'orthorhombic'
loop_
_space_group_symop_operation_xyz
x,y,z
-x,-y,z
x,-y,-z
-x,y,-z
-x,-y,-z
x,y,-z
-x,y,z
x,-y,z
1/2+x,1/2+y,1/2+z
1/2-x,1/2-y,1/2+z
1/2+x,1/2-y,1/2-z
1/2-x,1/2+y,1/2-z
1/2-x,1/2-y,1/2-z
1/2+x,1/2+y,1/2-z
1/2-x,1/2+y,1/2+z
1/2+x,1/2-y,1/2+z
loop_
_atom_site_type_symbol
_atom_site_label
_atom_site_fract_x
_atom_site_fract_y
_atom_site_fract_z
Si Si1 0.774541 0.330400 0.205192
Si Si2 0.137441 0.326526 0.255443
Si Si3 0.369445 0.670433 0.056702
Si Si4 0.052345 0.329682 0.609770
Si Si5 0.312296 0.328356 0.152004
Si Si6 0.448112 0.326674 0.784575
O O1 0.771994 0.500000 0.219483
O O2 0.750000 0.250000 0.250000
O O3 0.829043 0.287087 0.207000
O O4 0.743639 0.297667 0.154961
O O5 0.128520 0.500000 0.260344
O O6 0.160140 0.269138 0.307526
O O7 0.088439 0.246370 0.245914
O O8 0.383486 0.500000 0.063218
O O9 0.414653 0.768732 0.066056
O O10 0.328702 0.714104 0.095646
O O11 0.351415 0.702632 0.000000
O O12 0.063279 0.500000 0.621187
O O13 0.062025 0.237286 0.660155
O O14 0.000000 0.308698 0.591133
O O15 0.322590 0.500000 0.163964
O O16 0.500000 0.287451 0.766768
O O17 0.440136 0.500000 0.786624
#
# Coordination Sequence:
#
# PCOD8286943 Si02
#       6
#    16  16  16  16  16  16
#     4   8  15  25  38  57  76  95 118 146 181 219
#     4  10  17  25  40  60  78  94 119 153 186 220
#     4  10  20  31  43  58  74  96 126 158 192 229
#     4  10  20  32  44  56  70  91 122 162 203 235
#     4   9  16  28  42  54  74 100 123 150 185 224
#     4  10  19  29  41  56  75 100 126 151 185 229
#
# _framework density 13.817057999999999
#
# number of rings (size 3 to 8) (size 9 to 14) (size 15 to 20)
#    0.000    2.500    1.667    1.500    0.000    3.333 
#    0.000    1.667    0.000    0.000    0.000    0.000 
#    0.000    0.000    0.000    0.000    0.000    0.833 
#
# Total GULP energy -594644.303094 kJ/mol
# GULP energy per Si atom -12388.422981 kJ/mol
# Density = 1.378561 g / cm^3
# Si number density = 13.817058 Si / 1000 Ang^3
#
#
#
# Elastic Constant Matrix: (Units=GPa)
#
#
# Indices 1 2 3 4 5 6 
#
# 1 118.9886 44.2598 52.0614 0.0000 0.0000 0.0000
# 2 44.2598 54.5044 20.2960 0.0000 0.0000 0.0000
# 3 52.0614 20.2960 44.0852 0.0000 0.0000 0.0000
# 4 0.0000 0.0000 0.0000 10.9675 0.0000 0.0000
# 5 0.0000 0.0000 0.0000 0.0000 19.2949 0.0000
# 6 0.0000 0.0000 0.0000 0.0000 0.0000 21.1551
#
#
#
# Elastic Compliance Matrix: (Units=1/GPa)
#
#
# Indices 1 2 3 4 5 6 
#
# 1 0.020665 -0.009285 -0.020129 0.000000 0.000000 0.000000
# 2 -0.009285 0.026315 -0.001150 0.000000 0.000000 0.000000
# 3 -0.020129 -0.001150 0.046984 0.000000 0.000000 0.000000
# 4 0.000000 0.000000 0.000000 0.091178 0.000000 0.000000
# 5 0.000000 0.000000 0.000000 0.000000 0.051827 0.000000
# 6 0.000000 0.000000 0.000000 0.000000 0.000000 0.047270
#
#
# Mechanical properties :
#
#
# Convention : Reuss Voigt Hill
#
# Bulk Modulus (GPa) = 30.45466 50.09029 40.27247
# Shear Modulus (GPa) = 14.03255 17.01424 15.52340
#
# Velocity S-wave (km/s) = 3.19030 3.51293 3.35549
# Velocity P-wave (km/s) = 5.97159 7.26536 6.65001
#
# Compressibility (1/GPa) = 0.03283570
#
# Stress axis : x y z
#
# Youngs Moduli (GPa) = 48.39028 38.00059 21.28384
#
# Poissons Ratio (x) = 0.35285 0.42843
# Poissons Ratio (y) = 0.44932 0.02447
# Poissons Ratio (z) = 0.97407 0.04369
#
# Static dielectric constant tensor:
#      x y z
#    x 3.252690 0.000000 0.000000 
#    y 0.000000 3.257260 0.000000 
#    z 0.000000 0.000000 2.533510 
# 
# 
# High freq. dielectric constant tensor:
#      x y z
#    x 1.532110 0.000000 0.000000 
#    y 0.000000 1.540720 0.000000 
#    z 0.000000 0.000000 1.466420 
# 
# From -- ./inp_files/15462.got.cif
#   From: 2010.06.25/outbox.cif.g09.slc.cpg/sg71_8_cif.got.tgz:15462.got - 2010.06.28 04:59:45.
