data_PCOD8286863
_publ_section_title
;
Structure prediction by ZEFSAII (Michael W. Deem and Ramdas Pophale) SiO2 
 PCOD8286863
Probable space group: F D D D
;
_chemical_formula_sum "Si O2"
_cell_formula_units_Z 56
_cell_length_a 16.665312
_cell_length_b 13.704837
_cell_length_c 7.079202
_cell_angle_alpha 90.000000
_cell_angle_beta 90.000000
_cell_angle_gamma 90.000000
_cell_volume 1616.857063
_symmetry_space_group_name_H-M "F D D D"
_symmetry_group_IT_number 70
_space_group.IT_coordinate_system_code '2'
_symmetry_cell_setting 'orthorhombic'
loop_
_space_group_symop_operation_xyz
x,y,z
1/4-x,1/4-y,z
x,1/4-y,1/4-z
1/4-x,y,1/4-z
-x,-y,-z
3/4+x,3/4+y,-z
-x,3/4+y,3/4+z
3/4+x,-y,3/4+z
x,1/2+y,1/2+z
1/4-x,3/4-y,1/2+z
x,3/4-y,3/4-z
1/4-x,1/2+y,3/4-z
-x,1/2-y,1/2-z
3/4+x,1/4+y,1/2-z
-x,1/4+y,1/4+z
3/4+x,1/2-y,1/4+z
1/2+x,y,1/2+z
3/4-x,1/4-y,1/2+z
1/2+x,1/4-y,3/4-z
3/4-x,y,3/4-z
1/2-x,-y,1/2-z
1/4+x,3/4+y,1/2-z
1/2-x,3/4+y,1/4+z
1/4+x,-y,1/4+z
1/2+x,1/2+y,z
3/4-x,3/4-y,z
1/2+x,3/4-y,1/4-z
3/4-x,1/2+y,1/4-z
1/2-x,1/2-y,-z
1/4+x,1/4+y,-z
1/2-x,1/4+y,3/4+z
1/4+x,1/2-y,3/4+z
loop_
_atom_site_type_symbol
_atom_site_label
_atom_site_fract_x
_atom_site_fract_y
_atom_site_fract_z
Si Si1 0.375000 0.375000 0.375000
Si Si2 0.783339 0.297270 0.222779
Si Si3 0.375000 0.619751 0.375000
O O1 0.435227 0.312836 0.240249
O O2 0.818116 0.375000 0.375000
O O3 0.684860 0.299766 0.248003
O O4 0.810464 0.187532 0.268310
#
# Coordination Sequence:
#
# PCOD8286863 Si02
#       3
#     8  32  16
#     4  12  26  50  88 124 176 226 290 346 472 484
#     4  12  28  56  82 132 176 227 289 373 428 532
#     4  12  29  59  90 123 187 224 296 366 443 515
#
# _framework density 34.635095
#
# number of rings (size 3 to 8) (size 9 to 14) (size 15 to 20)
#    0.000    0.000    5.714    1.714    4.000    4.571 
#    0.000    0.000    0.000    0.000    0.000    0.000 
#    0.000    0.000    0.000    0.000    0.000    0.000 
#
# Total GULP energy -173543.963618 kJ/mol
# GULP energy per Si atom -12395.997401 kJ/mol
# Density = 3.455626 g / cm^3
# Si number density = 34.635095 Si / 1000 Ang^3
#
#
#
# Elastic Constant Matrix: (Units=GPa)
#
#
# Indices 1 2 3 4 5 6 
#
# 1 344.2351 107.7224 32.9508 0.0001 0.0000 0.0000
# 2 107.7224 164.3567 32.8919 0.0002 -0.0001 0.0000
# 3 32.9508 32.8919 210.4040 0.0007 -0.0003 -0.0001
# 4 0.0001 0.0002 0.0007 68.9857 -0.0001 -0.0001
# 5 0.0000 -0.0001 -0.0003 -0.0001 59.1134 0.0000
# 6 0.0000 0.0000 -0.0001 -0.0001 0.0000 82.6692
#
#
#
# Elastic Compliance Matrix: (Units=1/GPa)
#
#
# Indices 1 2 3 4 5 6 
#
# 1 0.003663 -0.002360 -0.000205 0.000000 0.000000 0.000000
# 2 -0.002360 0.007801 -0.000850 0.000000 0.000000 0.000000
# 3 -0.000205 -0.000850 0.004918 0.000000 0.000000 0.000000
# 4 0.000000 0.000000 0.000000 0.014496 0.000000 0.000000
# 5 0.000000 0.000000 0.000000 0.000000 0.016917 0.000000
# 6 0.000000 0.000000 0.000000 0.000000 0.000000 0.012096
#
#
# Mechanical properties :
#
#
# Convention : Reuss Voigt Hill
#
# Bulk Modulus (GPa) = 104.68199 118.45844 111.57022
# Shear Modulus (GPa) = 71.52658 78.51571 75.02114
#
# Velocity S-wave (km/s) = 4.54932 4.76641 4.65913
# Velocity P-wave (km/s) = 7.60822 8.03540 7.82472
#
# Compressibility (1/GPa) = 0.00955274
#
# Stress axis : x y z
#
# Youngs Moduli (GPa) = 272.99509 128.18668 203.34719
#
# Poissons Ratio (x) = 0.30250 0.04164
# Poissons Ratio (y) = 0.64423 0.17284
# Poissons Ratio (z) = 0.05590 0.10895
#
# Static dielectric constant tensor:
#      x y z
#    x 7.296840 0.000000 0.000000 
#    y 0.000000 7.648000 0.000000 
#    z 0.000000 0.000000 6.829410 
# 
# 
# High freq. dielectric constant tensor:
#      x y z
#    x 2.522830 0.000000 0.000000 
#    y 0.000000 2.482420 0.000000 
#    z 0.000000 0.000000 2.447580 
# 
# From -- ./inp_files/5454.got.cif
#   From: 2010.03.12/outbox.cif.g09.slc.cpg/sg70_3_cif.got.tgz:5454.got - 2010.04.16 13:46:32.
