data_PCOD8286837
_publ_section_title
;
Structure prediction by ZEFSAII (Michael W. Deem and Ramdas Pophale) SiO2 
 PCOD8286837
Probable space group: F D D D
;
_chemical_formula_sum "Si O2"
_cell_formula_units_Z 168
_cell_length_a 30.961578
_cell_length_b 12.131236
_cell_length_c 20.270003
_cell_angle_alpha 90.000000
_cell_angle_beta 90.000000
_cell_angle_gamma 90.000000
_cell_volume 7613.457916
_symmetry_space_group_name_H-M "F D D D"
_symmetry_group_IT_number 70
_space_group.IT_coordinate_system_code '2'
_symmetry_cell_setting 'orthorhombic'
loop_
_space_group_symop_operation_xyz
x,y,z
1/4-x,1/4-y,z
x,1/4-y,1/4-z
1/4-x,y,1/4-z
-x,-y,-z
3/4+x,3/4+y,-z
-x,3/4+y,3/4+z
3/4+x,-y,3/4+z
x,1/2+y,1/2+z
1/4-x,3/4-y,1/2+z
x,3/4-y,3/4-z
1/4-x,1/2+y,3/4-z
-x,1/2-y,1/2-z
3/4+x,1/4+y,1/2-z
-x,1/4+y,1/4+z
3/4+x,1/2-y,1/4+z
1/2+x,y,1/2+z
3/4-x,1/4-y,1/2+z
1/2+x,1/4-y,3/4-z
3/4-x,y,3/4-z
1/2-x,-y,1/2-z
1/4+x,3/4+y,1/2-z
1/2-x,3/4+y,1/4+z
1/4+x,-y,1/4+z
1/2+x,1/2+y,z
3/4-x,3/4-y,z
1/2+x,3/4-y,1/4-z
3/4-x,1/2+y,1/4-z
1/2-x,1/2-y,-z
1/4+x,1/4+y,-z
1/2-x,1/4+y,3/4+z
1/4+x,1/2-y,3/4+z
loop_
_atom_site_type_symbol
_atom_site_label
_atom_site_fract_x
_atom_site_fract_y
_atom_site_fract_z
Si Si1 0.625000 0.125000 0.295109
Si Si2 0.476999 0.643797 0.376716
Si Si3 0.940532 0.997084 0.633949
Si Si4 0.922252 0.174742 0.998229
Si Si5 0.375000 0.375000 0.875000
Si Si6 0.770348 0.125000 0.625000
Si Si7 0.337021 0.713502 0.274073
O O1 0.600531 0.213158 0.340802
O O2 0.657766 0.196786 0.250465
O O3 0.519072 0.572303 0.390525
O O4 0.450684 0.593128 0.316180
O O5 0.490248 0.769651 0.361753
O O6 0.448598 0.632268 0.443685
O O7 0.950170 0.125000 0.625000
O O8 0.931756 0.972847 0.710869
O O9 0.880253 0.098651 0.995686
O O10 0.949461 0.143816 0.062204
O O11 0.343961 0.447035 0.919699
#
# Coordination Sequence:
#
# PCOD8286837 Si02
#       7
#    16  32  32  32   8  16  32
#     4  12  25  50  73 111 141 202 250 302 368 449
#     4  12  27  45  71 114 149 191 241 314 371 432
#     4  12  27  47  76 104 148 196 247 301 364 439
#     4  12  25  47  74 104 149 194 247 298 374 445
#     4  12  24  44  76 106 146 184 244 302 368 432
#     4  12  25  46  73 112 152 190 252 309 372 436
#     4  12  26  46  72 107 146 194 240 300 366 442
#
# _framework density 22.066189999999999
#
# number of rings (size 3 to 8) (size 9 to 14) (size 15 to 20)
#    0.000    0.000    5.714    4.000    2.667    2.286 
#    0.000    0.952    0.000    0.000    0.000    0.000 
#    0.000    0.000    0.000    0.000    0.000    0.000 
#
# Total GULP energy -521057.193621 kJ/mol
# GULP energy per Si atom -12406.123658 kJ/mol
# Density = 2.201597 g / cm^3
# Si number density = 22.066190 Si / 1000 Ang^3
#
#
#
# Elastic Constant Matrix: (Units=GPa)
#
#
# Indices 1 2 3 4 5 6 
#
# 1 105.0925 38.3138 46.2854 0.0000 0.0000 0.0000
# 2 38.3138 132.8921 39.7640 0.0000 0.0000 0.0000
# 3 46.2854 39.7640 107.9195 0.0000 0.0000 0.0000
# 4 0.0000 0.0000 0.0000 59.6217 0.0000 0.0000
# 5 0.0000 0.0000 0.0000 0.0000 480.6171 0.0000
# 6 0.0000 0.0000 0.0000 0.0000 0.0000 -958.8591
#
#
#
# Elastic Compliance Matrix: (Units=1/GPa)
#
#
# Indices 1 2 3 4 5 6 
#
# 1 0.012282 -0.002208 -0.004454 0.000000 0.000000 0.000000
# 2 -0.002208 0.008854 -0.002315 0.000000 0.000000 0.000000
# 3 -0.004454 -0.002315 0.012030 0.000000 0.000000 0.000000
# 4 0.000000 0.000000 0.000000 0.016772 0.000000 0.000000
# 5 0.000000 0.000000 0.000000 0.000000 0.002081 0.000000
# 6 0.000000 0.000000 0.000000 0.000000 0.000000 -0.001043
#
#
# Mechanical properties :
#
#
# Convention : Reuss Voigt Hill
#
# Bulk Modulus (GPa) = 65.74302 66.07007 65.90655
# Shear Modulus (GPa) = 67.56583 -68.95468 -0.69442
#
# Velocity S-wave (km/s) = 5.53950 -5.59615 -0.56159
# Velocity P-wave (km/s) = 8.41267 3.42769 5.43249
#
# Compressibility (1/GPa) = 0.01521074
#
# Stress axis : x y z
#
# Youngs Moduli (GPa) = 81.41876 112.93849 83.12864
#
# Poissons Ratio (x) = 0.24940 0.37026
# Poissons Ratio (y) = 0.17980 0.19247
# Poissons Ratio (z) = 0.36264 0.26149
#
# Static dielectric constant tensor:
#      x y z
#    x 4.434730 0.000000 0.000000 
#    y 0.000000 3.062930 0.000000 
#    z 0.000000 0.000000 4.281360 
# 
# 
# High freq. dielectric constant tensor:
#      x y z
#    x 1.891270 0.000000 0.000000 
#    y 0.000000 1.871290 0.000000 
#    z 0.000000 0.000000 1.875940 
# 
# From -- ./inp_files/47641.got.cif
#   From: 2010.03.12/outbox.cif.g09.slc.cpg/sg70_24_cif.got.tgz:47641.got - 2010.04.16 13:46:32.
