data_PCOD8286588
_publ_section_title
;
Structure prediction by ZEFSAII (Michael W. Deem and Ramdas Pophale) SiO2 
 PCOD8286588
Probable space group: F D D D
;
_chemical_formula_sum "Si O2"
_cell_formula_units_Z 136
_cell_length_a 16.239169
_cell_length_b 22.393511
_cell_length_c 16.630555
_cell_angle_alpha 90.000000
_cell_angle_beta 90.000000
_cell_angle_gamma 90.000000
_cell_volume 6047.734747
_symmetry_space_group_name_H-M "F D D D"
_symmetry_group_IT_number 70
_space_group.IT_coordinate_system_code '2'
_symmetry_cell_setting 'orthorhombic'
loop_
_space_group_symop_operation_xyz
x,y,z
1/4-x,1/4-y,z
x,1/4-y,1/4-z
1/4-x,y,1/4-z
-x,-y,-z
3/4+x,3/4+y,-z
-x,3/4+y,3/4+z
3/4+x,-y,3/4+z
x,1/2+y,1/2+z
1/4-x,3/4-y,1/2+z
x,3/4-y,3/4-z
1/4-x,1/2+y,3/4-z
-x,1/2-y,1/2-z
3/4+x,1/4+y,1/2-z
-x,1/4+y,1/4+z
3/4+x,1/2-y,1/4+z
1/2+x,y,1/2+z
3/4-x,1/4-y,1/2+z
1/2+x,1/4-y,3/4-z
3/4-x,y,3/4-z
1/2-x,-y,1/2-z
1/4+x,3/4+y,1/2-z
1/2-x,3/4+y,1/4+z
1/4+x,-y,1/4+z
1/2+x,1/2+y,z
3/4-x,3/4-y,z
1/2+x,3/4-y,1/4-z
3/4-x,1/2+y,1/4-z
1/2-x,1/2-y,-z
1/4+x,1/4+y,-z
1/2-x,1/4+y,3/4+z
1/4+x,1/2-y,3/4+z
loop_
_atom_site_type_symbol
_atom_site_label
_atom_site_fract_x
_atom_site_fract_y
_atom_site_fract_z
Si Si1 0.598626 0.875000 0.375000
Si Si2 0.004906 0.593688 0.485846
Si Si3 0.668410 0.028143 0.479344
Si Si4 0.625000 0.125000 0.125000
Si Si5 0.016039 0.458399 0.924762
Si Si6 0.125000 0.300285 0.125000
O O1 0.544373 0.919376 0.430776
O O2 0.655335 0.835182 0.434973
O O3 0.071493 0.542328 0.466612
O O4 0.039671 0.659303 0.497255
O O5 0.942427 0.593898 0.412230
O O6 0.716022 0.996329 0.406125
O O7 0.673620 0.988550 0.558960
O O8 0.683826 0.168382 0.074304
O O9 0.000000 0.500000 0.000000
#
# Coordination Sequence:
#
# PCOD8286588 Si02
#       6
#    16  32  32   8  32  16
#     4  11  24  48  70 109 144 192 244 309 360 450
#     4  11  26  44  71 108 143 178 254 296 365 445
#     4  11  26  45  71 107 141 193 234 311 367 429
#     4  10  28  50  68 110 144 194 252 302 356 458
#     4  11  27  46  74 101 150 198 241 301 374 440
#     4  12  24  44  74 100 142 192 236 302 364 438
#
# _framework density 22.487757999999999
#
# number of rings (size 3 to 8) (size 9 to 14) (size 15 to 20)
#    0.000    0.941    2.353    2.118    9.882    3.765 
#    0.000    0.000    0.000    0.000    0.000    0.000 
#    0.000    0.000    0.000    0.000    0.000    0.000 
#
# Total GULP energy -421450.077194 kJ/mol
# GULP energy per Si atom -12395.590506 kJ/mol
# Density = 2.243657 g / cm^3
# Si number density = 22.487758 Si / 1000 Ang^3
#
#
#
# Elastic Constant Matrix: (Units=GPa)
#
#
# Indices 1 2 3 4 5 6 
#
# 1 148.5303 51.2739 64.1860 0.0000 0.0000 0.0000
# 2 51.2739 93.2993 48.0834 0.0000 0.0000 0.0000
# 3 64.1860 48.0834 150.7215 0.0000 0.0000 0.0000
# 4 0.0000 0.0000 0.0000 49.2340 0.0000 0.0000
# 5 0.0000 0.0000 0.0000 0.0000 34.3789 0.0000
# 6 0.0000 0.0000 0.0000 0.0000 0.0000 25.1056
#
#
#
# Elastic Compliance Matrix: (Units=1/GPa)
#
#
# Indices 1 2 3 4 5 6 
#
# 1 0.009172 -0.003623 -0.002750 0.000000 0.000000 0.000000
# 2 -0.003623 0.014258 -0.003006 0.000000 0.000000 0.000000
# 3 -0.002750 -0.003006 0.008765 0.000000 0.000000 0.000000
# 4 0.000000 0.000000 0.000000 0.020311 0.000000 0.000000
# 5 0.000000 0.000000 0.000000 0.000000 0.029088 0.000000
# 6 0.000000 0.000000 0.000000 0.000000 0.000000 0.039832
#
#
# Mechanical properties :
#
#
# Convention : Reuss Voigt Hill
#
# Bulk Modulus (GPa) = 74.42122 79.95975 77.19049
# Shear Modulus (GPa) = 34.56321 37.01090 35.78705
#
# Velocity S-wave (km/s) = 3.92469 4.06128 3.99357
# Velocity P-wave (km/s) = 7.32827 7.59119 7.46089
#
# Compressibility (1/GPa) = 0.01343703
#
# Stress axis : x y z
#
# Youngs Moduli (GPa) = 109.03001 70.13378 114.09320
#
# Poissons Ratio (x) = 0.25411 0.31376
# Poissons Ratio (y) = 0.39504 0.34294
# Poissons Ratio (z) = 0.29983 0.21081
#
# Static dielectric constant tensor:
#      x y z
#    x 4.633400 0.000000 0.000000 
#    y 0.000000 4.272740 0.000000 
#    z 0.000000 0.000000 4.290020 
# 
# 
# High freq. dielectric constant tensor:
#      x y z
#    x 1.905880 0.000000 0.000000 
#    y 0.000000 1.904940 0.000000 
#    z 0.000000 0.000000 1.873680 
# 
# From -- ./inp_files/34958.got.cif
#   From: 2010.03.12/outbox.cif.g09.slc.cpg/sg70_18_cif.got.tgz:34958.got - 2010.04.16 13:46:32.
