data_PCOD8286942
_publ_section_title
;
Structure prediction by ZEFSAII (Michael W. Deem and Ramdas Pophale) SiO2 
 PCOD8286942
Probable space group: I M M M
;
_chemical_formula_sum "Si O2"
_cell_formula_units_Z 72
_cell_length_a 10.366079
_cell_length_b 19.797174
_cell_length_c 22.335690
_cell_angle_alpha 90.000000
_cell_angle_beta 90.000000
_cell_angle_gamma 90.000000
_cell_volume 4583.709522
_symmetry_space_group_name_H-M "I M M M"
_symmetry_group_IT_number 71
_symmetry_cell_setting 'orthorhombic'
loop_
_space_group_symop_operation_xyz
x,y,z
-x,-y,z
x,-y,-z
-x,y,-z
-x,-y,-z
x,y,-z
-x,y,z
x,-y,z
1/2+x,1/2+y,1/2+z
1/2-x,1/2-y,1/2+z
1/2+x,1/2-y,1/2-z
1/2-x,1/2+y,1/2-z
1/2-x,1/2-y,1/2-z
1/2+x,1/2+y,1/2-z
1/2-x,1/2+y,1/2+z
1/2+x,1/2-y,1/2+z
loop_
_atom_site_type_symbol
_atom_site_label
_atom_site_fract_x
_atom_site_fract_y
_atom_site_fract_z
Si Si1 0.738530 0.578270 0.721102
Si Si2 0.500000 0.709805 0.165627
Si Si3 0.000000 0.308846 0.840066
Si Si4 0.761495 0.124253 0.357408
Si Si5 0.000000 0.354694 0.703819
Si Si6 0.000000 0.163817 0.801685
Si Si7 0.852530 0.000000 0.570819
O O1 0.714745 0.500000 0.708942
O O2 0.735064 0.591677 0.791793
O O3 0.874312 0.600008 0.692403
O O4 0.627207 0.619452 0.686975
O O5 0.626961 0.679892 0.134281
O O6 0.500000 0.790897 0.158752
O O7 0.500000 0.690632 0.234656
O O8 0.126101 0.339654 0.871427
O O9 0.000000 0.327386 0.770782
O O10 0.000000 0.227536 0.846740
O O11 0.779485 0.065877 0.405781
O O12 0.847181 0.000000 0.500000
O O13 0.000000 0.000000 0.594581
#
# Coordination Sequence:
#
# PCOD8286942 Si02
#       7
#    16   8   8  16   8   8   8
#     4  10  17  25  40  59  87 116 148 176 212 253
#     4   9  16  27  44  57  78 109 148 182 213 255
#     4   9  18  29  42  61  82 105 140 186 221 255
#     4  10  18  30  46  60  80 111 147 182 226 257
#     4   9  17  26  37  60  84 110 143 185 212 244
#     4   9  17  26  39  60  82 108 145 183 208 246
#     4  11  22  35  49  67  85 107 151 195 229 261
#
# _framework density 15.707801999999999
#
# number of rings (size 3 to 8) (size 9 to 14) (size 15 to 20)
#    0.000    2.333    2.222    2.000    0.000    5.778 
#    0.000    1.111    0.000    0.000    0.000    0.000 
#    0.000    0.000    0.000    0.000    0.000   77.778 
#
# Total GULP energy -446415.981119 kJ/mol
# GULP energy per Si atom -12400.443920 kJ/mol
# Density = 1.567205 g / cm^3
# Si number density = 15.707802 Si / 1000 Ang^3
#
#
#
# Elastic Constant Matrix: (Units=GPa)
#
#
# Indices 1 2 3 4 5 6 
#
# 1 158.5265 71.6049 22.3168 0.0000 0.0000 0.0000
# 2 71.6049 135.6569 26.3571 0.0000 0.0000 0.0000
# 3 22.3168 26.3571 23.9238 0.0000 0.0000 0.0000
# 4 0.0000 0.0000 0.0000 10.1283 0.0000 0.0000
# 5 0.0000 0.0000 0.0000 0.0000 9.9285 0.0000
# 6 0.0000 0.0000 0.0000 0.0000 0.0000 30.1475
#
#
#
# Elastic Compliance Matrix: (Units=1/GPa)
#
#
# Indices 1 2 3 4 5 6 
#
# 1 0.008549 -0.003770 -0.003821 0.000000 0.000000 0.000000
# 2 -0.003770 0.011042 -0.008648 0.000000 0.000000 0.000000
# 3 -0.003821 -0.008648 0.054891 0.000000 0.000000 0.000000
# 4 0.000000 0.000000 0.000000 0.098733 0.000000 0.000000
# 5 0.000000 0.000000 0.000000 0.000000 0.100720 0.000000
# 6 0.000000 0.000000 0.000000 0.000000 0.000000 0.033170
#
#
# Mechanical properties :
#
#
# Convention : Reuss Voigt Hill
#
# Bulk Modulus (GPa) = 23.80747 62.07386 42.94067
# Shear Modulus (GPa) = 14.14086 23.22943 18.68514
#
# Velocity S-wave (km/s) = 3.00366 3.84975 3.45272
# Velocity P-wave (km/s) = 5.21715 7.70483 6.57963
#
# Compressibility (1/GPa) = 0.04200362
#
# Stress axis : x y z
#
# Youngs Moduli (GPa) = 116.97403 90.56548 18.21780
#
# Poissons Ratio (x) = 0.34143 0.06961
# Poissons Ratio (y) = 0.44099 0.15755
# Poissons Ratio (z) = 0.44698 0.78321
#
# Static dielectric constant tensor:
#      x y z
#    x 3.258700 0.000000 0.000000 
#    y 0.000000 3.136690 0.000000 
#    z 0.000000 0.000000 2.324940 
# 
# 
# High freq. dielectric constant tensor:
#      x y z
#    x 1.624410 0.000000 0.000000 
#    y 0.000000 1.617000 0.000000 
#    z 0.000000 0.000000 1.514790 
# 
# From -- ./inp_files/10014.got.cif
#   From: 2010.06.25/outbox.cif.g09.slc.cpg/sg71_6_cif.got.tgz:10014.got - 2010.06.28 04:59:45.
