data_PCOD8286808
_publ_section_title
;
Structure prediction by ZEFSAII (Michael W. Deem and Ramdas Pophale) SiO2 
 PCOD8286808
Probable space group: F D D D
;
_chemical_formula_sum "Si O2"
_cell_formula_units_Z 192
_cell_length_a 23.344370
_cell_length_b 19.491766
_cell_length_c 18.224695
_cell_angle_alpha 90.000000
_cell_angle_beta 90.000000
_cell_angle_gamma 90.000000
_cell_volume 8292.655347
_symmetry_space_group_name_H-M "F D D D"
_symmetry_group_IT_number 70
_space_group.IT_coordinate_system_code '2'
_symmetry_cell_setting 'orthorhombic'
loop_
_space_group_symop_operation_xyz
x,y,z
1/4-x,1/4-y,z
x,1/4-y,1/4-z
1/4-x,y,1/4-z
-x,-y,-z
3/4+x,3/4+y,-z
-x,3/4+y,3/4+z
3/4+x,-y,3/4+z
x,1/2+y,1/2+z
1/4-x,3/4-y,1/2+z
x,3/4-y,3/4-z
1/4-x,1/2+y,3/4-z
-x,1/2-y,1/2-z
3/4+x,1/4+y,1/2-z
-x,1/4+y,1/4+z
3/4+x,1/2-y,1/4+z
1/2+x,y,1/2+z
3/4-x,1/4-y,1/2+z
1/2+x,1/4-y,3/4-z
3/4-x,y,3/4-z
1/2-x,-y,1/2-z
1/4+x,3/4+y,1/2-z
1/2-x,3/4+y,1/4+z
1/4+x,-y,1/4+z
1/2+x,1/2+y,z
3/4-x,3/4-y,z
1/2+x,3/4-y,1/4-z
3/4-x,1/2+y,1/4-z
1/2-x,1/2-y,-z
1/4+x,1/4+y,-z
1/2-x,1/4+y,3/4+z
1/4+x,1/2-y,3/4+z
loop_
_atom_site_type_symbol
_atom_site_label
_atom_site_fract_x
_atom_site_fract_y
_atom_site_fract_z
Si Si1 0.064347 0.392060 0.598666
Si Si2 0.490648 0.674702 0.717286
Si Si3 0.966426 0.307455 0.055546
Si Si4 0.991361 0.510877 0.839463
Si Si5 0.135685 0.051073 0.912823
Si Si6 0.380295 0.150356 0.704820
O O1 0.125000 0.421192 0.625000
O O2 0.055822 0.312496 0.624329
O O3 0.066580 0.388952 0.509906
O O4 0.014409 0.440930 0.629969
O O5 0.500000 0.750000 0.750000
O O6 0.536602 0.626572 0.756902
O O7 0.503961 0.686285 0.629653
O O8 0.427423 0.640571 0.729047
O O9 0.904475 0.294376 0.090883
O O10 0.981472 0.247425 0.997588
O O11 0.048264 0.554172 0.859661
O O12 0.125000 0.125000 0.953126
O O13 0.129930 0.982365 0.960885
O O14 0.400213 0.125000 0.625000
#
# Coordination Sequence:
#
# PCOD8286808 Si02
#       6
#    32  32  32  32  32  32
#     4  12  24  45  70 107 141 187 252 308 367 452
#     4  12  21  43  73 106 139 187 235 309 377 445
#     4  12  25  42  73 102 143 196 243 304 374 450
#     4  12  24  45  71 103 149 189 242 304 384 453
#     4  12  24  46  70 105 145 196 247 308 377 452
#     4  12  24  44  74 102 146 198 242 302 382 449
#
# _framework density 23.153017999999999
#
# number of rings (size 3 to 8) (size 9 to 14) (size 15 to 20)
#    0.000    0.000    8.333    1.500    0.000    0.667 
#    3.000    0.000    0.000    3.500    0.000    0.000 
#    0.000    0.000    0.000    0.000    0.000    0.000 
#
# Total GULP energy -594692.018688 kJ/mol
# GULP energy per Si atom -12389.417056 kJ/mol
# Density = 2.310032 g / cm^3
# Si number density = 23.153018 Si / 1000 Ang^3
#
#
#
# Elastic Constant Matrix: (Units=GPa)
#
#
# Indices 1 2 3 4 5 6 
#
# 1 82.4180 29.1066 44.2023 0.0000 0.0000 0.0000
# 2 29.1066 125.1796 28.8583 0.0000 0.0000 0.0000
# 3 44.2023 28.8583 100.5099 0.0000 0.0000 0.0000
# 4 0.0000 0.0000 0.0000 37.7124 0.0000 0.0000
# 5 0.0000 0.0000 0.0000 0.0000 38.3545 0.0000
# 6 0.0000 0.0000 0.0000 0.0000 0.0000 34.7187
#
#
#
# Elastic Compliance Matrix: (Units=1/GPa)
#
#
# Indices 1 2 3 4 5 6 
#
# 1 0.016482 -0.002315 -0.006584 0.000000 0.000000 0.000000
# 2 -0.002315 0.008880 -0.001532 0.000000 0.000000 0.000000
# 3 -0.006584 -0.001532 0.013284 0.000000 0.000000 0.000000
# 4 0.000000 0.000000 0.000000 0.026516 0.000000 0.000000
# 5 0.000000 0.000000 0.000000 0.000000 0.026073 0.000000
# 6 0.000000 0.000000 0.000000 0.000000 0.000000 0.028803
#
#
# Mechanical properties :
#
#
# Convention : Reuss Voigt Hill
#
# Bulk Modulus (GPa) = 56.22401 56.93797 56.58099
# Shear Modulus (GPa) = 34.05381 35.88648 34.97015
#
# Velocity S-wave (km/s) = 3.83928 3.94124 3.89059
# Velocity P-wave (km/s) = 6.63248 6.73473 6.68380
#
# Compressibility (1/GPa) = 0.01778599
#
# Stress axis : x y z
#
# Youngs Moduli (GPa) = 60.67348 112.61524 75.27588
#
# Poissons Ratio (x) = 0.26065 0.49560
# Poissons Ratio (y) = 0.14043 0.11530
# Poissons Ratio (z) = 0.39946 0.17249
#
# Static dielectric constant tensor:
#      x y z
#    x 4.156680 0.000000 0.000000 
#    y 0.000000 4.365490 0.000000 
#    z 0.000000 0.000000 4.652060 
# 
# 
# High freq. dielectric constant tensor:
#      x y z
#    x 1.898490 0.000000 0.000000 
#    y 0.000000 1.926010 0.000000 
#    z 0.000000 0.000000 1.917450 
# 
# From -- ./inp_files/45928.got.cif
#   From: 2010.03.12/outbox.cif.g09.slc.cpg/sg70_23_cif.got.tgz:45928.got - 2010.04.16 13:46:32.
