data_PCOD8286157
_publ_section_title
;
Structure prediction by ZEFSAII (Michael W. Deem and Ramdas Pophale) SiO2 
 PCOD8286157
Probable space group: F D D D
;
_chemical_formula_sum "Si O2"
_cell_formula_units_Z 216
_cell_length_a 24.035616
_cell_length_b 27.137875
_cell_length_c 15.438848
_cell_angle_alpha 90.000000
_cell_angle_beta 90.000000
_cell_angle_gamma 90.000000
_cell_volume 10070.382956
_symmetry_space_group_name_H-M "F D D D"
_symmetry_group_IT_number 70
_space_group.IT_coordinate_system_code '2'
_symmetry_cell_setting 'orthorhombic'
loop_
_space_group_symop_operation_xyz
x,y,z
1/4-x,1/4-y,z
x,1/4-y,1/4-z
1/4-x,y,1/4-z
-x,-y,-z
3/4+x,3/4+y,-z
-x,3/4+y,3/4+z
3/4+x,-y,3/4+z
x,1/2+y,1/2+z
1/4-x,3/4-y,1/2+z
x,3/4-y,3/4-z
1/4-x,1/2+y,3/4-z
-x,1/2-y,1/2-z
3/4+x,1/4+y,1/2-z
-x,1/4+y,1/4+z
3/4+x,1/2-y,1/4+z
1/2+x,y,1/2+z
3/4-x,1/4-y,1/2+z
1/2+x,1/4-y,3/4-z
3/4-x,y,3/4-z
1/2-x,-y,1/2-z
1/4+x,3/4+y,1/2-z
1/2-x,3/4+y,1/4+z
1/4+x,-y,1/4+z
1/2+x,1/2+y,z
3/4-x,3/4-y,z
1/2+x,3/4-y,1/4-z
3/4-x,1/2+y,1/4-z
1/2-x,1/2-y,-z
1/4+x,1/4+y,-z
1/2-x,1/4+y,3/4+z
1/4+x,1/2-y,3/4+z
loop_
_atom_site_type_symbol
_atom_site_label
_atom_site_fract_x
_atom_site_fract_y
_atom_site_fract_z
Si Si1 0.937038 0.852967 0.126201
Si Si2 0.892433 0.656235 0.544888
Si Si3 0.636013 0.244396 0.902143
Si Si4 0.019794 0.085136 0.192571
Si Si5 0.125000 0.125000 0.625000
Si Si6 0.937767 0.231929 0.480466
Si Si7 0.875000 0.093863 0.875000
Si Si8 0.202572 0.066889 0.496294
O O1 0.875000 0.875000 0.117289
O O2 0.934694 0.796564 0.162073
O O3 0.972529 0.884376 0.194602
O O4 0.969490 0.856658 0.037196
O O5 0.866978 0.625000 0.625000
O O6 0.856092 0.706804 0.538195
O O7 0.893779 0.627995 0.454378
O O8 0.954354 0.672509 0.572000
O O9 0.638049 0.261403 0.800608
O O10 0.578003 0.219216 0.928275
O O11 0.043964 0.125000 0.125000
O O12 0.051247 0.033247 0.180825
O O13 0.162179 0.086485 0.571398
O O14 0.924013 0.191931 0.407079
O O15 0.993365 0.212323 0.530908
#
# Coordination Sequence:
#
# PCOD8286157 Si02
#       8
#    32  32  32  32   8  32  16  32
#     4   9  19  38  63  89 129 165 204 275 332 382
#     4  11  22  43  63  92 140 176 218 280 338 404
#     4  10  20  42  66  90 133 175 212 278 339 395
#     4  10  22  39  64  98 129 172 222 267 341 413
#     4  12  24  42  72 100 126 176 238 280 340 390
#     4  11  24  42  68  99 136 179 225 274 347 417
#     4  12  26  41  69 100 133 182 239 274 348 420
#     4  11  22  43  66  97 136 171 225 288 333 398
#
# _framework density 21.449034000000001
#
# number of rings (size 3 to 8) (size 9 to 14) (size 15 to 20)
#    0.000    1.481    5.185    0.889    0.000    5.630 
#    0.000    3.704    0.000    0.000    0.000    0.000 
#    0.000    0.000    0.000    0.000    0.000    0.000 
#
# Total GULP energy -669172.165235 kJ/mol
# GULP energy per Si atom -12392.077134 kJ/mol
# Density = 2.140022 g / cm^3
# Si number density = 21.449034 Si / 1000 Ang^3
#
#
#
# Elastic Constant Matrix: (Units=GPa)
#
#
# Indices 1 2 3 4 5 6 
#
# 1 57.9209 34.1300 30.3914 0.0000 0.0000 0.0000
# 2 34.1300 175.6712 75.7587 0.0000 0.0000 0.0000
# 3 30.3914 75.7587 117.5222 0.0000 0.0000 0.0000
# 4 0.0000 0.0000 0.0000 44.1312 0.0000 0.0000
# 5 0.0000 0.0000 0.0000 0.0000 21.0496 0.0000
# 6 0.0000 0.0000 0.0000 0.0000 0.0000 24.3587
#
#
#
# Elastic Compliance Matrix: (Units=1/GPa)
#
#
# Indices 1 2 3 4 5 6 
#
# 1 0.020663 -0.002369 -0.003817 0.000000 0.000000 0.000000
# 2 -0.002369 0.008156 -0.004645 0.000000 0.000000 0.000000
# 3 -0.003817 -0.004645 0.012490 0.000000 0.000000 0.000000
# 4 0.000000 0.000000 0.000000 0.022660 0.000000 0.000000
# 5 0.000000 0.000000 0.000000 0.000000 0.047507 0.000000
# 6 0.000000 0.000000 0.000000 0.000000 0.000000 0.041053
#
#
# Mechanical properties :
#
#
# Convention : Reuss Voigt Hill
#
# Bulk Modulus (GPa) = 50.89339 70.18604 60.53971
# Shear Modulus (GPa) = 27.66418 31.96351 29.81384
#
# Velocity S-wave (km/s) = 3.59522 3.86451 3.73230
# Velocity P-wave (km/s) = 6.40416 7.25988 6.84540
#
# Compressibility (1/GPa) = 0.01964892
#
# Stress axis : x y z
#
# Youngs Moduli (GPa) = 48.39508 122.61241 80.06186
#
# Poissons Ratio (x) = 0.29042 0.30557
# Poissons Ratio (y) = 0.11463 0.37189
# Poissons Ratio (z) = 0.18471 0.56953
#
# Static dielectric constant tensor:
#      x y z
#    x 3.594900 0.000000 0.000000 
#    y 0.000000 4.396740 0.000000 
#    z 0.000000 0.000000 3.732070 
# 
# 
# High freq. dielectric constant tensor:
#      x y z
#    x 1.814820 0.000000 0.000000 
#    y 0.000000 1.872110 0.000000 
#    z 0.000000 0.000000 1.825320 
# 
# From -- ./inp_files/30177.got.cif
#   From: 2010.03.12/outbox.cif.g09.slc.cpg/sg70_16_cif.got.tgz:30177.got - 2010.04.16 13:46:32.
