data_PCOD8286015
_publ_section_title
;
Structure prediction by ZEFSAII (Michael W. Deem and Ramdas Pophale) SiO2 
 PCOD8286015
Probable space group: F D D D
;
_chemical_formula_sum "Si O2"
_cell_formula_units_Z 192
_cell_length_a 16.917435
_cell_length_b 22.312474
_cell_length_c 25.609597
_cell_angle_alpha 90.000000
_cell_angle_beta 90.000000
_cell_angle_gamma 90.000000
_cell_volume 9666.850190
_symmetry_space_group_name_H-M "F D D D"
_symmetry_group_IT_number 70
_space_group.IT_coordinate_system_code '2'
_symmetry_cell_setting 'orthorhombic'
loop_
_space_group_symop_operation_xyz
x,y,z
1/4-x,1/4-y,z
x,1/4-y,1/4-z
1/4-x,y,1/4-z
-x,-y,-z
3/4+x,3/4+y,-z
-x,3/4+y,3/4+z
3/4+x,-y,3/4+z
x,1/2+y,1/2+z
1/4-x,3/4-y,1/2+z
x,3/4-y,3/4-z
1/4-x,1/2+y,3/4-z
-x,1/2-y,1/2-z
3/4+x,1/4+y,1/2-z
-x,1/4+y,1/4+z
3/4+x,1/2-y,1/4+z
1/2+x,y,1/2+z
3/4-x,1/4-y,1/2+z
1/2+x,1/4-y,3/4-z
3/4-x,y,3/4-z
1/2-x,-y,1/2-z
1/4+x,3/4+y,1/2-z
1/2-x,3/4+y,1/4+z
1/4+x,-y,1/4+z
1/2+x,1/2+y,z
3/4-x,3/4-y,z
1/2+x,3/4-y,1/4-z
3/4-x,1/2+y,1/4-z
1/2-x,1/2-y,-z
1/4+x,1/4+y,-z
1/2-x,1/4+y,3/4+z
1/4+x,1/2-y,3/4+z
loop_
_atom_site_type_symbol
_atom_site_label
_atom_site_fract_x
_atom_site_fract_y
_atom_site_fract_z
Si Si1 0.867646 0.554830 0.254186
Si Si2 0.150408 0.438790 0.234983
Si Si3 0.267337 0.772090 0.192475
Si Si4 0.125000 0.625000 0.461502
Si Si5 0.493481 0.281595 0.330457
Si Si6 0.125000 0.625000 0.125000
Si Si7 0.625000 0.125000 0.625000
Si Si8 0.535671 0.550851 0.046362
O O1 0.897353 0.617954 0.276875
O O2 0.943195 0.517083 0.237672
O O3 0.808952 0.560273 0.204158
O O4 0.814570 0.518518 0.297000
O O5 0.210291 0.471065 0.195577
O O6 0.180858 0.448050 0.295176
O O7 0.065011 0.464901 0.221245
O O8 0.315921 0.832787 0.178230
O O9 0.265136 0.733772 0.139807
O O10 0.070801 0.581927 0.495349
O O11 0.428492 0.334767 0.335483
O O12 0.565362 0.082091 0.597035
#
# Coordination Sequence:
#
# PCOD8286015 Si02
#       8
#    32  32  32  16  32   8   8  32
#     4  10  21  39  64  87 124 167 211 253 322 379
#     4  11  23  43  64  92 127 164 216 267 320 391
#     4  11  21  43  63  93 130 169 209 273 320 390
#     4   9  18  37  65  82 128 170 198 256 325 376
#     4  11  25  41  66  96 121 172 216 261 337 375
#     4  12  20  44  70  92 134 166 218 274 316 398
#     4  10  20  36  60  92 134 160 210 274 302 386
#     4   9  19  37  58  91 122 167 205 248 318 378
#
# _framework density 19.861692000000001
#
# number of rings (size 3 to 8) (size 9 to 14) (size 15 to 20)
#    0.000    1.667    3.333    1.000    0.000    1.333 
#    6.000    0.000    0.000    0.000    0.000    0.000 
#    0.000    0.000    0.000    0.000    0.000    0.000 
#
# Total GULP energy -594686.682346 kJ/mol
# GULP energy per Si atom -12389.305882 kJ/mol
# Density = 1.981649 g / cm^3
# Si number density = 19.861692 Si / 1000 Ang^3
#
#
#
# Elastic Constant Matrix: (Units=GPa)
#
#
# Indices 1 2 3 4 5 6 
#
# 1 89.8754 30.8845 21.5066 0.0000 0.0000 0.0000
# 2 30.8845 130.1694 24.4257 0.0000 0.0000 0.0000
# 3 21.5066 24.4257 63.7213 0.0000 0.0000 0.0000
# 4 0.0000 0.0000 0.0000 17.8838 0.0000 0.0000
# 5 0.0000 0.0000 0.0000 0.0000 22.1766 0.0000
# 6 0.0000 0.0000 0.0000 0.0000 0.0000 36.3287
#
#
#
# Elastic Compliance Matrix: (Units=1/GPa)
#
#
# Indices 1 2 3 4 5 6 
#
# 1 0.012759 -0.002391 -0.003390 0.000000 0.000000 0.000000
# 2 -0.002391 0.008726 -0.002538 0.000000 0.000000 0.000000
# 3 -0.003390 -0.002538 0.017810 0.000000 0.000000 0.000000
# 4 0.000000 0.000000 0.000000 0.055916 0.000000 0.000000
# 5 0.000000 0.000000 0.000000 0.000000 0.045093 0.000000
# 6 0.000000 0.000000 0.000000 0.000000 0.000000 0.027526
#
#
# Mechanical properties :
#
#
# Convention : Reuss Voigt Hill
#
# Bulk Modulus (GPa) = 44.13479 48.59997 46.36738
# Shear Modulus (GPa) = 26.03880 29.07444 27.55662
#
# Velocity S-wave (km/s) = 3.62471 3.83017 3.72886
# Velocity P-wave (km/s) = 6.30772 6.63947 6.47572
#
# Compressibility (1/GPa) = 0.02265786
#
# Stress axis : x y z
#
# Youngs Moduli (GPa) = 78.37359 114.60204 56.14759
#
# Poissons Ratio (x) = 0.27404 0.19033
# Poissons Ratio (y) = 0.18741 0.14249
# Poissons Ratio (z) = 0.26567 0.29083
#
# Static dielectric constant tensor:
#      x y z
#    x 3.855300 0.000000 0.000000 
#    y 0.000000 3.908060 0.000000 
#    z 0.000000 0.000000 3.328180 
# 
# 
# High freq. dielectric constant tensor:
#      x y z
#    x 1.789530 0.000000 0.000000 
#    y 0.000000 1.796730 0.000000 
#    z 0.000000 0.000000 1.737050 
# 
# From -- ./inp_files/29111.got.cif
#   From: 2010.03.12/outbox.cif.g09.slc.cpg/sg70_15_cif.got.tgz:29111.got - 2010.04.16 13:46:32.
