data_PCOD8286053
_publ_section_title
;
Structure prediction by ZEFSAII (Michael W. Deem and Ramdas Pophale) SiO2 
 PCOD8286053
Probable space group: F D D D
;
_chemical_formula_sum "Si O2"
_cell_formula_units_Z 216
_cell_length_a 14.063127
_cell_length_b 29.402668
_cell_length_c 25.271109
_cell_angle_alpha 90.000000
_cell_angle_beta 90.000000
_cell_angle_gamma 90.000000
_cell_volume 10449.438152
_symmetry_space_group_name_H-M "F D D D"
_symmetry_group_IT_number 70
_space_group.IT_coordinate_system_code '2'
_symmetry_cell_setting 'orthorhombic'
loop_
_space_group_symop_operation_xyz
x,y,z
1/4-x,1/4-y,z
x,1/4-y,1/4-z
1/4-x,y,1/4-z
-x,-y,-z
3/4+x,3/4+y,-z
-x,3/4+y,3/4+z
3/4+x,-y,3/4+z
x,1/2+y,1/2+z
1/4-x,3/4-y,1/2+z
x,3/4-y,3/4-z
1/4-x,1/2+y,3/4-z
-x,1/2-y,1/2-z
3/4+x,1/4+y,1/2-z
-x,1/4+y,1/4+z
3/4+x,1/2-y,1/4+z
1/2+x,y,1/2+z
3/4-x,1/4-y,1/2+z
1/2+x,1/4-y,3/4-z
3/4-x,y,3/4-z
1/2-x,-y,1/2-z
1/4+x,3/4+y,1/2-z
1/2-x,3/4+y,1/4+z
1/4+x,-y,1/4+z
1/2+x,1/2+y,z
3/4-x,3/4-y,z
1/2+x,3/4-y,1/4-z
3/4-x,1/2+y,1/4-z
1/2-x,1/2-y,-z
1/4+x,1/4+y,-z
1/2-x,1/4+y,3/4+z
1/4+x,1/2-y,3/4+z
loop_
_atom_site_type_symbol
_atom_site_label
_atom_site_fract_x
_atom_site_fract_y
_atom_site_fract_z
Si Si1 0.222426 0.886182 0.721724
Si Si2 0.807481 0.550079 0.944784
Si Si3 0.052034 0.833261 0.338904
Si Si4 0.652778 0.578188 0.866842
Si Si5 0.495907 0.801517 0.438549
Si Si6 0.208634 0.796973 0.662677
Si Si7 0.625000 0.125000 0.625000
Si Si8 0.875000 0.974490 0.375000
O O1 0.127802 0.907498 0.696495
O O2 0.233918 0.896918 0.783189
O O3 0.312826 0.908141 0.692311
O O4 0.214844 0.831632 0.712413
O O5 0.736295 0.552751 0.895963
O O6 0.864169 0.503815 0.929592
O O7 0.746557 0.550872 0.998072
O O8 0.084053 0.875000 0.375000
O O9 0.144669 0.801373 0.331366
O O10 0.967903 0.806238 0.367153
O O11 0.625000 0.625000 0.897081
O O12 0.560537 0.546410 0.866330
O O13 0.438969 0.755330 0.426441
O O14 0.439387 0.844013 0.413611
O O15 0.125000 0.814811 0.625000
#
# Coordination Sequence:
#
# PCOD8286053 Si02
#       8
#    32  32  32  32  32  32   8  16
#     4  10  22  41  67  94 136 172 217 273 349 394
#     4  11  23  42  64 102 128 177 217 286 333 413
#     4  11  26  44  66  98 137 184 216 275 338 414
#     4  10  20  37  64  91 132 166 218 272 338 393
#     4  11  26  44  72  90 135 176 234 274 339 396
#     4  11  23  42  65  97 126 173 225 283 325 399
#     4  12  24  56  66  94 132 194 232 284 342 398
#     4  12  25  40  73  98 148 167 232 265 352 418
#
# _framework density 20.670967000000001
#
# number of rings (size 3 to 8) (size 9 to 14) (size 15 to 20)
#    0.000    1.185    2.963    2.889    5.185    3.556 
#    0.000    0.741    0.000    0.000    0.000    0.000 
#    0.000    0.000    0.000    0.000    0.000    0.000 
#
# Total GULP energy -669400.560305 kJ/mol
# GULP energy per Si atom -12396.306672 kJ/mol
# Density = 2.062392 g / cm^3
# Si number density = 20.670967 Si / 1000 Ang^3
#
#
#
# Elastic Constant Matrix: (Units=GPa)
#
#
# Indices 1 2 3 4 5 6 
#
# 1 85.1115 21.0720 33.2492 0.0000 0.0000 0.0000
# 2 21.0720 110.8820 37.1159 0.0000 0.0000 0.0000
# 3 33.2492 37.1159 108.0164 0.0000 0.0000 0.0000
# 4 0.0000 0.0000 0.0000 26.4550 0.0000 0.0000
# 5 0.0000 0.0000 0.0000 0.0000 29.1042 0.0000
# 6 0.0000 0.0000 0.0000 0.0000 0.0000 32.7224
#
#
#
# Elastic Compliance Matrix: (Units=1/GPa)
#
#
# Indices 1 2 3 4 5 6 
#
# 1 0.013527 -0.001330 -0.003707 0.000000 0.000000 0.000000
# 2 -0.001330 0.010321 -0.003137 0.000000 0.000000 0.000000
# 3 -0.003707 -0.003137 0.011477 0.000000 0.000000 0.000000
# 4 0.000000 0.000000 0.000000 0.037800 0.000000 0.000000
# 5 0.000000 0.000000 0.000000 0.000000 0.034359 0.000000
# 6 0.000000 0.000000 0.000000 0.000000 0.000000 0.030560
#
#
# Mechanical properties :
#
#
# Convention : Reuss Voigt Hill
#
# Bulk Modulus (GPa) = 52.69468 54.09823 53.39646
# Shear Modulus (GPa) = 31.11045 31.82785 31.46915
#
# Velocity S-wave (km/s) = 3.88368 3.92820 3.90601
# Velocity P-wave (km/s) = 6.75708 6.84122 6.79928
#
# Compressibility (1/GPa) = 0.01897725
#
# Stress axis : x y z
#
# Youngs Moduli (GPa) = 73.92850 96.88555 87.13182
#
# Poissons Ratio (x) = 0.12884 0.32298
# Poissons Ratio (y) = 0.09831 0.27336
# Poissons Ratio (z) = 0.27404 0.30396
#
# Static dielectric constant tensor:
#      x y z
#    x 3.802350 0.000000 0.000000 
#    y 0.000000 3.864530 0.000000 
#    z 0.000000 0.000000 3.673580 
# 
# 
# High freq. dielectric constant tensor:
#      x y z
#    x 1.820900 0.000000 0.000000 
#    y 0.000000 1.816080 0.000000 
#    z 0.000000 0.000000 1.794390 
# 
# From -- ./inp_files/51616.got.cif
#   From: 2010.03.12/outbox.cif.g09.slc.cpg/sg70_26_cif.got.tgz:51616.got - 2010.04.16 13:46:32.
