data_PCOD8286722
_publ_section_title
;
Structure prediction by ZEFSAII (Michael W. Deem and Ramdas Pophale) SiO2 
 PCOD8286722
Probable space group: F D D D
;
_chemical_formula_sum "Si O2"
_cell_formula_units_Z 112
_cell_length_a 24.455422
_cell_length_b 17.173026
_cell_length_c 10.896787
_cell_angle_alpha 90.000000
_cell_angle_beta 90.000000
_cell_angle_gamma 90.000000
_cell_volume 4576.362841
_symmetry_space_group_name_H-M "F D D D"
_symmetry_group_IT_number 70
_space_group.IT_coordinate_system_code '2'
_symmetry_cell_setting 'orthorhombic'
loop_
_space_group_symop_operation_xyz
x,y,z
1/4-x,1/4-y,z
x,1/4-y,1/4-z
1/4-x,y,1/4-z
-x,-y,-z
3/4+x,3/4+y,-z
-x,3/4+y,3/4+z
3/4+x,-y,3/4+z
x,1/2+y,1/2+z
1/4-x,3/4-y,1/2+z
x,3/4-y,3/4-z
1/4-x,1/2+y,3/4-z
-x,1/2-y,1/2-z
3/4+x,1/4+y,1/2-z
-x,1/4+y,1/4+z
3/4+x,1/2-y,1/4+z
1/2+x,y,1/2+z
3/4-x,1/4-y,1/2+z
1/2+x,1/4-y,3/4-z
3/4-x,y,3/4-z
1/2-x,-y,1/2-z
1/4+x,3/4+y,1/2-z
1/2-x,3/4+y,1/4+z
1/4+x,-y,1/4+z
1/2+x,1/2+y,z
3/4-x,3/4-y,z
1/2+x,3/4-y,1/4-z
3/4-x,1/2+y,1/4-z
1/2-x,1/2-y,-z
1/4+x,1/4+y,-z
1/2-x,1/4+y,3/4+z
1/4+x,1/2-y,3/4+z
loop_
_atom_site_type_symbol
_atom_site_label
_atom_site_fract_x
_atom_site_fract_y
_atom_site_fract_z
Si Si1 0.077739 0.570323 0.339296
Si Si2 0.125000 0.784519 0.125000
Si Si3 0.967062 0.138995 0.485666
Si Si4 0.438243 0.960863 0.399804
O O1 0.125000 0.625000 0.396542
O O2 0.106356 0.517195 0.238369
O O3 0.052884 0.520303 0.454006
O O4 0.031716 0.628858 0.281768
O O5 0.072472 0.837435 0.152891
O O6 0.949134 0.125000 0.625000
O O7 0.965979 0.229139 0.444015
O O8 0.462781 0.875000 0.375000
O O9 0.375000 0.966528 0.375000
#
# Coordination Sequence:
#
# PCOD8286722 Si02
#       4
#    32  16  32  32
#     4  12  27  49  76 115 154 202 258 320 398 470
#     4  12  29  46  79 112 152 198 266 320 395 470
#     4  12  28  49  78 110 155 201 260 324 390 459
#     4  11  23  47  77 104 149 200 248 310 380 459
#
# _framework density 24.473583000000001
#
# number of rings (size 3 to 8) (size 9 to 14) (size 15 to 20)
#    0.000    0.286    4.286    4.714    4.000    2.286 
#    0.000    0.000    0.000    0.000    0.000    0.000 
#    0.000    0.000    0.000    0.000    0.000    0.000 
#
# Total GULP energy -347175.770030 kJ/mol
# GULP energy per Si atom -12399.134644 kJ/mol
# Density = 2.441788 g / cm^3
# Si number density = 24.473583 Si / 1000 Ang^3
#
#
#
# Elastic Constant Matrix: (Units=GPa)
#
#
# Indices 1 2 3 4 5 6 
#
# 1 109.8118 40.4694 20.2651 0.0000 0.0000 0.0000
# 2 40.4694 97.5250 65.5428 0.0000 0.0000 0.0000
# 3 20.2651 65.5428 183.9208 -0.0001 0.0000 0.0000
# 4 0.0000 0.0000 -0.0001 -42.4521 0.0000 0.0000
# 5 0.0000 0.0000 0.0000 0.0000 38.6751 0.0000
# 6 0.0000 0.0000 0.0000 0.0000 0.0000 5.4007
#
#
#
# Elastic Compliance Matrix: (Units=1/GPa)
#
#
# Indices 1 2 3 4 5 6 
#
# 1 0.010790 -0.004837 0.000535 0.000000 0.000000 0.000000
# 2 -0.004837 0.015651 -0.005045 0.000000 0.000000 0.000000
# 3 0.000535 -0.005045 0.007176 0.000000 0.000000 0.000000
# 4 0.000000 0.000000 0.000000 -0.023556 0.000000 0.000000
# 5 0.000000 0.000000 0.000000 0.000000 0.025856 0.000000
# 6 0.000000 0.000000 0.000000 0.000000 0.000000 0.185162
#
#
# Mechanical properties :
#
#
# Convention : Reuss Voigt Hill
#
# Bulk Modulus (GPa) = 67.00649 71.53469 69.27059
# Shear Modulus (GPa) = 20.42912 17.99009 19.20960
#
# Velocity S-wave (km/s) = 2.89232 2.71418 2.80467
# Velocity P-wave (km/s) = 6.21229 6.25421 6.23329
#
# Compressibility (1/GPa) = 0.01492393
#
# Stress axis : x y z
#
# Youngs Moduli (GPa) = 92.67481 63.89263 139.35531
#
# Poissons Ratio (x) = 0.30905 -0.07453
# Poissons Ratio (y) = 0.44828 0.70299
# Poissons Ratio (z) = -0.04957 0.32231
#
# Static dielectric constant tensor:
#      x y z
#    x 4.867790 0.000000 0.000000 
#    y 0.000000 4.586620 0.000000 
#    z 0.000000 0.000000 4.584110 
# 
# 
# High freq. dielectric constant tensor:
#      x y z
#    x 1.996650 0.000000 0.000000 
#    y 0.000000 1.953930 0.000000 
#    z 0.000000 0.000000 1.993700 
# 
# From -- ./inp_files/20243.got.cif
#   From: 2010.03.12/outbox.cif.g09.slc.cpg/sg70_11_cif.got.tgz:20243.got - 2010.04.16 13:46:32.
