data_PCOD8286419
_publ_section_title
;
Structure prediction by ZEFSAII (Michael W. Deem and Ramdas Pophale) SiO2 
 PCOD8286419
Probable space group: F D D D
;
_chemical_formula_sum "Si O2"
_cell_formula_units_Z 176
_cell_length_a 11.818336
_cell_length_b 25.237604
_cell_length_c 26.877298
_cell_angle_alpha 90.000000
_cell_angle_beta 90.000000
_cell_angle_gamma 90.000000
_cell_volume 8016.597171
_symmetry_space_group_name_H-M "F D D D"
_symmetry_group_IT_number 70
_space_group.IT_coordinate_system_code '2'
_symmetry_cell_setting 'orthorhombic'
loop_
_space_group_symop_operation_xyz
x,y,z
1/4-x,1/4-y,z
x,1/4-y,1/4-z
1/4-x,y,1/4-z
-x,-y,-z
3/4+x,3/4+y,-z
-x,3/4+y,3/4+z
3/4+x,-y,3/4+z
x,1/2+y,1/2+z
1/4-x,3/4-y,1/2+z
x,3/4-y,3/4-z
1/4-x,1/2+y,3/4-z
-x,1/2-y,1/2-z
3/4+x,1/4+y,1/2-z
-x,1/4+y,1/4+z
3/4+x,1/2-y,1/4+z
1/2+x,y,1/2+z
3/4-x,1/4-y,1/2+z
1/2+x,1/4-y,3/4-z
3/4-x,y,3/4-z
1/2-x,-y,1/2-z
1/4+x,3/4+y,1/2-z
1/2-x,3/4+y,1/4+z
1/4+x,-y,1/4+z
1/2+x,1/2+y,z
3/4-x,3/4-y,z
1/2+x,3/4-y,1/4-z
3/4-x,1/2+y,1/4-z
1/2-x,1/2-y,-z
1/4+x,1/4+y,-z
1/2-x,1/4+y,3/4+z
1/4+x,1/2-y,3/4+z
loop_
_atom_site_type_symbol
_atom_site_label
_atom_site_fract_x
_atom_site_fract_y
_atom_site_fract_z
Si Si1 0.625000 0.125000 0.625000
Si Si2 0.918210 0.682836 0.430724
Si Si3 0.875000 0.375000 0.875000
Si Si4 0.625000 0.781569 0.125000
Si Si5 0.510039 0.647143 0.445893
Si Si6 0.753937 0.451461 0.951984
Si Si7 0.625000 0.125000 0.473224
Si Si8 0.012771 0.198581 0.195577
O O1 0.529684 0.154914 0.654652
O O2 0.875000 0.679978 0.375000
O O3 0.824732 0.650467 0.462557
O O4 0.929868 0.743292 0.447180
O O5 0.034006 0.651131 0.437248
O O6 0.793405 0.411593 0.908607
O O7 0.530607 0.817596 0.100167
O O8 0.574989 0.749973 0.172694
O O9 0.625000 0.625000 0.423842
O O10 0.540130 0.680261 0.494739
O O11 0.618998 0.460702 0.952287
O O12 0.571203 0.075612 0.504794
#
# Coordination Sequence:
#
# PCOD8286419 Si02
#       8
#     8  32   8  16  32  32  16  32
#     4   8  18  40  64 104 134 176 234 298 360 402
#     4  12  28  45  75 111 145 196 242 310 375 445
#     4  12  26  50  70 108 150 210 256 304 358 460
#     4  11  26  42  72 110 144 188 244 307 376 432
#     4  12  28  48  70 106 153 191 242 306 372 448
#     4  12  26  49  75 105 146 199 252 304 370 441
#     4  11  24  47  77 106 150 188 251 307 376 441
#     4  10  22  43  73 104 140 188 243 305 357 436
#
# _framework density 21.954452
#
# number of rings (size 3 to 8) (size 9 to 14) (size 15 to 20)
#    0.000    0.727    4.545    1.636    6.364    2.182 
#    3.273    0.000    0.000    0.000    0.000    0.000 
#    0.000    0.000    0.000    0.000    0.000    0.000 
#
# Total GULP energy -545270.864746 kJ/mol
# GULP energy per Si atom -12392.519653 kJ/mol
# Density = 2.190448 g / cm^3
# Si number density = 21.954452 Si / 1000 Ang^3
#
#
#
# Elastic Constant Matrix: (Units=GPa)
#
#
# Indices 1 2 3 4 5 6 
#
# 1 143.9898 72.5890 49.7124 0.0000 0.0000 0.0000
# 2 72.5890 168.1738 69.3115 0.0000 0.0000 0.0000
# 3 49.7124 69.3115 131.7441 0.0000 0.0000 0.0000
# 4 0.0000 0.0000 0.0000 -244.0026 0.0000 0.0000
# 5 0.0000 0.0000 0.0000 0.0000 24.0242 0.0000
# 6 0.0000 0.0000 0.0000 0.0000 0.0000 -1.4100
#
#
#
# Elastic Compliance Matrix: (Units=1/GPa)
#
#
# Indices 1 2 3 4 5 6 
#
# 1 0.009186 -0.003239 -0.001762 0.000000 0.000000 0.000000
# 2 -0.003239 0.008734 -0.003373 0.000000 0.000000 0.000000
# 3 -0.001762 -0.003373 0.010030 0.000000 0.000000 0.000000
# 4 0.000000 0.000000 0.000000 -0.004098 0.000000 0.000000
# 5 0.000000 0.000000 0.000000 0.000000 0.041625 0.000000
# 6 0.000000 0.000000 0.000000 0.000000 0.000000 -0.709205
#
#
# Mechanical properties :
#
#
# Convention : Reuss Voigt Hill
#
# Bulk Modulus (GPa) = 89.26817 91.90371 90.58594
# Shear Modulus (GPa) = -8.02252 -27.45802 -17.74027
#
# Velocity S-wave (km/s) = -1.91366 -3.54033 -2.84570
# Velocity P-wave (km/s) = 5.98883 5.02394 5.52748
#
# Compressibility (1/GPa) = 0.01120220
#
# Stress axis : x y z
#
# Youngs Moduli (GPa) = 108.86025 114.49074 99.69958
#
# Poissons Ratio (x) = 0.37079 0.17571
# Poissons Ratio (y) = 0.35256 0.33630
# Poissons Ratio (z) = 0.19186 0.38619
#
# Static dielectric constant tensor:
#      x y z
#    x 3.993290 0.000000 0.000000 
#    y 0.000000 4.443910 0.000000 
#    z 0.000000 0.000000 4.245860 
# 
# 
# High freq. dielectric constant tensor:
#      x y z
#    x 1.868610 0.000000 0.000000 
#    y 0.000000 1.884670 0.000000 
#    z 0.000000 0.000000 1.874590 
# 
# From -- ./inp_files/64819.got.cif
#   From: 2010.03.12/outbox.cif.g09.slc.cpg/sg70_33_cif.got.tgz:64819.got - 2010.04.16 13:46:32.
