data_PCOD8286751
_publ_section_title
;
Structure prediction by ZEFSAII (Michael W. Deem and Ramdas Pophale) SiO2 
 PCOD8286751
Probable space group: F D D D
;
_chemical_formula_sum "Si O2"
_cell_formula_units_Z 192
_cell_length_a 27.676366
_cell_length_b 12.936611
_cell_length_c 22.575136
_cell_angle_alpha 90.000000
_cell_angle_beta 90.000000
_cell_angle_gamma 90.000000
_cell_volume 8082.765141
_symmetry_space_group_name_H-M "F D D D"
_symmetry_group_IT_number 70
_space_group.IT_coordinate_system_code '2'
_symmetry_cell_setting 'orthorhombic'
loop_
_space_group_symop_operation_xyz
x,y,z
1/4-x,1/4-y,z
x,1/4-y,1/4-z
1/4-x,y,1/4-z
-x,-y,-z
3/4+x,3/4+y,-z
-x,3/4+y,3/4+z
3/4+x,-y,3/4+z
x,1/2+y,1/2+z
1/4-x,3/4-y,1/2+z
x,3/4-y,3/4-z
1/4-x,1/2+y,3/4-z
-x,1/2-y,1/2-z
3/4+x,1/4+y,1/2-z
-x,1/4+y,1/4+z
3/4+x,1/2-y,1/4+z
1/2+x,y,1/2+z
3/4-x,1/4-y,1/2+z
1/2+x,1/4-y,3/4-z
3/4-x,y,3/4-z
1/2-x,-y,1/2-z
1/4+x,3/4+y,1/2-z
1/2-x,3/4+y,1/4+z
1/4+x,-y,1/4+z
1/2+x,1/2+y,z
3/4-x,3/4-y,z
1/2+x,3/4-y,1/4-z
3/4-x,1/2+y,1/4-z
1/2-x,1/2-y,-z
1/4+x,1/4+y,-z
1/2-x,1/4+y,3/4+z
1/4+x,1/2-y,3/4+z
loop_
_atom_site_type_symbol
_atom_site_label
_atom_site_fract_x
_atom_site_fract_y
_atom_site_fract_z
Si Si1 0.630467 0.375000 0.375000
Si Si2 0.567351 0.827381 0.257909
Si Si3 0.125000 0.625000 0.625000
Si Si4 0.449268 0.487373 0.452234
Si Si5 0.547770 0.226245 0.336025
Si Si6 0.667650 0.287490 0.709596
Si Si7 0.625000 0.625000 0.625000
Si Si8 0.220316 0.609185 0.457045
O O1 0.668198 0.384964 0.322306
O O2 0.595639 0.279421 0.361182
O O3 0.614217 0.833324 0.217149
O O4 0.550983 0.709484 0.261952
O O5 0.526395 0.899199 0.227585
O O6 0.163077 0.697393 0.660522
O O7 0.500335 0.450103 0.423344
O O8 0.442261 0.439244 0.518429
O O9 0.450990 0.613206 0.446662
O O10 0.405329 0.449945 0.414855
O O11 0.534652 0.138276 0.385170
O O12 0.689705 0.238630 0.769512
#
# Coordination Sequence:
#
# PCOD8286751 Si02
#       8
#    16  32   8  32  32  32   8  32
#     4  12  23  45  76 103 151 188 254 306 372 444
#     4  11  25  45  70 113 145 199 244 306 381 449
#     4  12  26  38  78 102 146 192 250 296 392 434
#     4  11  27  46  72 106 143 196 252 306 386 441
#     4  11  24  45  71 102 138 192 241 304 370 444
#     4  12  24  48  72 106 149 196 243 315 373 461
#     4  12  28  48  70 102 150 188 258 320 368 462
#     4  11  25  45  74 105 153 189 246 311 380 456
#
# _framework density 23.754248
#
# number of rings (size 3 to 8) (size 9 to 14) (size 15 to 20)
#    0.000    0.667    5.000    1.000    4.667    4.667 
#    0.000    0.000    0.000    0.000    0.000    0.000 
#    0.000    0.000    0.000    0.000    0.000    0.000 
#
# Total GULP energy -594768.383149 kJ/mol
# GULP energy per Si atom -12391.007982 kJ/mol
# Density = 2.370018 g / cm^3
# Si number density = 23.754248 Si / 1000 Ang^3
#
#
#
# Elastic Constant Matrix: (Units=GPa)
#
#
# Indices 1 2 3 4 5 6 
#
# 1 126.3808 17.5141 39.5475 0.0000 0.0000 0.0000
# 2 17.5141 62.2599 33.1110 0.0000 0.0000 0.0000
# 3 39.5475 33.1110 127.7322 0.0000 0.0000 0.0000
# 4 0.0000 0.0000 0.0000 37.7787 0.0000 0.0000
# 5 0.0000 0.0000 0.0000 0.0000 51.8165 0.0000
# 6 0.0000 0.0000 0.0000 0.0000 0.0000 34.8283
#
#
#
# Elastic Compliance Matrix: (Units=1/GPa)
#
#
# Indices 1 2 3 4 5 6 
#
# 1 0.008838 -0.001196 -0.002426 0.000000 0.000000 0.000000
# 2 -0.001196 0.018792 -0.004501 0.000000 0.000000 0.000000
# 3 -0.002426 -0.004501 0.009747 0.000000 0.000000 0.000000
# 4 0.000000 0.000000 0.000000 0.026470 0.000000 0.000000
# 5 0.000000 0.000000 0.000000 0.000000 0.019299 0.000000
# 6 0.000000 0.000000 0.000000 0.000000 0.000000 0.028712
#
#
# Mechanical properties :
#
#
# Convention : Reuss Voigt Hill
#
# Bulk Modulus (GPa) = 47.32576 55.19090 51.25833
# Shear Modulus (GPa) = 36.99682 39.96471 38.48077
#
# Velocity S-wave (km/s) = 3.95078 4.10619 4.02923
# Velocity P-wave (km/s) = 6.38575 6.76503 6.57812
#
# Compressibility (1/GPa) = 0.02113014
#
# Stress axis : x y z
#
# Youngs Moduli (GPa) = 113.15381 53.21466 102.59727
#
# Poissons Ratio (x) = 0.06363 0.24893
# Poissons Ratio (y) = 0.13530 0.46179
# Poissons Ratio (z) = 0.27454 0.23952
#
# Static dielectric constant tensor:
#      x y z
#    x 4.546950 0.000000 0.000000 
#    y 0.000000 4.079430 0.000000 
#    z 0.000000 0.000000 4.543580 
# 
# 
# High freq. dielectric constant tensor:
#      x y z
#    x 1.959090 0.000000 0.000000 
#    y 0.000000 1.913790 0.000000 
#    z 0.000000 0.000000 1.957500 
# 
# From -- ./inp_files/54374.got.cif
#   From: 2010.03.12/outbox.cif.g09.slc.cpg/sg70_28_cif.got.tgz:54374.got - 2010.04.16 13:46:32.
