data_PCOD8286408
_publ_section_title
;
Structure prediction by ZEFSAII (Michael W. Deem and Ramdas Pophale) SiO2 
 PCOD8286408
Probable space group: F D D D
;
_chemical_formula_sum "Si O2"
_cell_formula_units_Z 144
_cell_length_a 14.305876
_cell_length_b 16.486323
_cell_length_c 27.604065
_cell_angle_alpha 90.000000
_cell_angle_beta 90.000000
_cell_angle_gamma 90.000000
_cell_volume 6510.454409
_symmetry_space_group_name_H-M "F D D D"
_symmetry_group_IT_number 70
_space_group.IT_coordinate_system_code '2'
_symmetry_cell_setting 'orthorhombic'
loop_
_space_group_symop_operation_xyz
x,y,z
1/4-x,1/4-y,z
x,1/4-y,1/4-z
1/4-x,y,1/4-z
-x,-y,-z
3/4+x,3/4+y,-z
-x,3/4+y,3/4+z
3/4+x,-y,3/4+z
x,1/2+y,1/2+z
1/4-x,3/4-y,1/2+z
x,3/4-y,3/4-z
1/4-x,1/2+y,3/4-z
-x,1/2-y,1/2-z
3/4+x,1/4+y,1/2-z
-x,1/4+y,1/4+z
3/4+x,1/2-y,1/4+z
1/2+x,y,1/2+z
3/4-x,1/4-y,1/2+z
1/2+x,1/4-y,3/4-z
3/4-x,y,3/4-z
1/2-x,-y,1/2-z
1/4+x,3/4+y,1/2-z
1/2-x,3/4+y,1/4+z
1/4+x,-y,1/4+z
1/2+x,1/2+y,z
3/4-x,3/4-y,z
1/2+x,3/4-y,1/4-z
3/4-x,1/2+y,1/4-z
1/2-x,1/2-y,-z
1/4+x,1/4+y,-z
1/2-x,1/4+y,3/4+z
1/4+x,1/2-y,3/4+z
loop_
_atom_site_type_symbol
_atom_site_label
_atom_site_fract_x
_atom_site_fract_y
_atom_site_fract_z
Si Si1 0.771306 0.397805 0.819218
Si Si2 0.197570 0.560650 0.353310
Si Si3 0.626131 0.769667 0.299957
Si Si4 0.625000 0.837968 0.125000
Si Si5 0.087479 0.044304 0.049112
O O1 0.767965 0.375000 0.875000
O O2 0.875000 0.375000 0.799038
O O3 0.737068 0.492458 0.815486
O O4 0.697869 0.343240 0.790096
O O5 0.125000 0.625000 0.328088
O O6 0.142754 0.522789 0.398717
O O7 0.285387 0.605736 0.375619
O O8 0.522934 0.805843 0.299390
O O9 0.632409 0.708411 0.254797
O O10 0.626722 0.784495 0.076916
O O11 0.125000 0.125000 0.075029
#
# Coordination Sequence:
#
# PCOD8286408 Si02
#       5
#    32  32  32  16  32
#     4   9  19  38  66  93 121 174 217 257 320 397
#     4  11  21  38  64  94 131 166 215 271 322 383
#     4  10  22  43  66  90 130 174 215 266 333 388
#     4  12  25  40  63 100 130 168 220 266 325 402
#     4  11  25  40  65  95 128 173 217 269 328 394
#
# _framework density 22.118272999999999
#
# number of rings (size 3 to 8) (size 9 to 14) (size 15 to 20)
#    0.000    1.556    2.222    3.667    6.222    1.778 
#    0.000    2.222    0.000    0.000    0.000    0.000 
#    0.000    0.000    0.000    0.000    0.000    0.000 
#
# Total GULP energy -446261.247061 kJ/mol
# GULP energy per Si atom -12396.145752 kJ/mol
# Density = 2.206793 g / cm^3
# Si number density = 22.118273 Si / 1000 Ang^3
#
#
#
# Elastic Constant Matrix: (Units=GPa)
#
#
# Indices 1 2 3 4 5 6 
#
# 1 132.5949 77.9240 38.4702 0.0000 0.0000 0.0000
# 2 77.9240 154.2000 14.3197 0.0000 0.0000 0.0000
# 3 38.4702 14.3197 39.1709 0.0000 0.0000 0.0000
# 4 0.0000 0.0000 0.0000 28.6736 0.0000 0.0000
# 5 0.0000 0.0000 0.0000 0.0000 23.8178 0.0000
# 6 0.0000 0.0000 0.0000 0.0000 0.0000 40.2432
#
#
#
# Elastic Compliance Matrix: (Units=1/GPa)
#
#
# Indices 1 2 3 4 5 6 
#
# 1 0.014829 -0.006357 -0.012240 0.000000 0.000000 0.000000
# 2 -0.006357 0.009438 0.002793 0.000000 0.000000 0.000000
# 3 -0.012240 0.002793 0.036529 0.000000 0.000000 0.000000
# 4 0.000000 0.000000 0.000000 0.034875 0.000000 0.000000
# 5 0.000000 0.000000 0.000000 0.000000 0.041985 0.000000
# 6 0.000000 0.000000 0.000000 0.000000 0.000000 0.024849
#
#
# Mechanical properties :
#
#
# Convention : Reuss Voigt Hill
#
# Bulk Modulus (GPa) = 34.26007 65.26596 49.76301
# Shear Modulus (GPa) = 24.52877 31.56371 28.04624
#
# Velocity S-wave (km/s) = 3.33375 3.78172 3.56478
# Velocity P-wave (km/s) = 5.50832 6.97426 6.28418
#
# Compressibility (1/GPa) = 0.02918850
#
# Stress axis : x y z
#
# Youngs Moduli (GPa) = 67.43630 105.95239 27.37567
#
# Poissons Ratio (x) = 0.67354 0.33507
# Poissons Ratio (y) = 0.42869 -0.07646
# Poissons Ratio (z) = 0.82539 -0.29592
#
# Static dielectric constant tensor:
#      x y z
#    x 4.306760 0.000000 0.000000 
#    y 0.000000 4.367900 0.000000 
#    z 0.000000 0.000000 3.681290 
# 
# 
# High freq. dielectric constant tensor:
#      x y z
#    x 1.887850 0.000000 0.000000 
#    y 0.000000 1.883300 0.000000 
#    z 0.000000 0.000000 1.835930 
# 
# From -- ./inp_files/65631.got.cif
#   From: 2010.03.12/outbox.cif.g09.slc.cpg/sg70_33_cif.got.tgz:65631.got - 2010.04.16 13:46:32.
