data_PCOD8286602
_publ_section_title
;
Structure prediction by ZEFSAII (Michael W. Deem and Ramdas Pophale) SiO2 
 PCOD8286602
Probable space group: F D D D
;
_chemical_formula_sum "Si O2"
_cell_formula_units_Z 176
_cell_length_a 18.857743
_cell_length_b 19.461647
_cell_length_c 23.688299
_cell_angle_alpha 90.000000
_cell_angle_beta 90.000000
_cell_angle_gamma 90.000000
_cell_volume 8693.670579
_symmetry_space_group_name_H-M "F D D D"
_symmetry_group_IT_number 70
_space_group.IT_coordinate_system_code '2'
_symmetry_cell_setting 'orthorhombic'
loop_
_space_group_symop_operation_xyz
x,y,z
1/4-x,1/4-y,z
x,1/4-y,1/4-z
1/4-x,y,1/4-z
-x,-y,-z
3/4+x,3/4+y,-z
-x,3/4+y,3/4+z
3/4+x,-y,3/4+z
x,1/2+y,1/2+z
1/4-x,3/4-y,1/2+z
x,3/4-y,3/4-z
1/4-x,1/2+y,3/4-z
-x,1/2-y,1/2-z
3/4+x,1/4+y,1/2-z
-x,1/4+y,1/4+z
3/4+x,1/2-y,1/4+z
1/2+x,y,1/2+z
3/4-x,1/4-y,1/2+z
1/2+x,1/4-y,3/4-z
3/4-x,y,3/4-z
1/2-x,-y,1/2-z
1/4+x,3/4+y,1/2-z
1/2-x,3/4+y,1/4+z
1/4+x,-y,1/4+z
1/2+x,1/2+y,z
3/4-x,3/4-y,z
1/2+x,3/4-y,1/4-z
3/4-x,1/2+y,1/4-z
1/2-x,1/2-y,-z
1/4+x,1/4+y,-z
1/2-x,1/4+y,3/4+z
1/4+x,1/2-y,3/4+z
loop_
_atom_site_type_symbol
_atom_site_label
_atom_site_fract_x
_atom_site_fract_y
_atom_site_fract_z
Si Si1 0.853742 0.001919 0.292056
Si Si2 0.089381 0.024838 0.345504
Si Si3 0.463808 0.689121 0.687069
Si Si4 0.772680 0.414477 0.115558
Si Si5 0.747278 0.797954 0.263545
Si Si6 0.625000 0.878492 0.125000
O O1 0.826184 0.007866 0.228276
O O2 0.856190 0.076624 0.320482
O O3 0.796652 0.955126 0.324017
O O4 0.929157 0.964964 0.295729
O O5 0.173921 0.039772 0.346004
O O6 0.049982 0.085526 0.380997
O O7 0.074275 0.951924 0.376988
O O8 0.056711 0.015095 0.281829
O O9 0.456938 0.614097 0.712862
O O10 0.693062 0.418553 0.140592
O O11 0.766155 0.444838 0.052267
#
# Coordination Sequence:
#
# PCOD8286602 Si02
#       6
#    32  32  32  32  32  16
#     4  11  20  33  56  92 123 160 206 240 312 396
#     4  11  23  38  57  93 126 167 212 256 319 390
#     4  11  20  34  57  88 128 162 199 252 316 382
#     4  11  23  39  62  84 126 166 210 267 317 375
#     4  12  22  36  61  91 126 168 207 258 318 388
#     4  12  20  40  59  88 117 166 210 258 320 376
#
# _framework density 20.244613999999999
#
# number of rings (size 3 to 8) (size 9 to 14) (size 15 to 20)
#    0.000    0.727    7.273    2.182    2.545    0.000 
#    0.000    3.636    0.000    0.000    0.000    0.000 
#    0.000    0.000    0.000    0.000    0.000    0.000 
#
# Total GULP energy -545128.823156 kJ/mol
# GULP energy per Si atom -12389.291435 kJ/mol
# Density = 2.019854 g / cm^3
# Si number density = 20.244614 Si / 1000 Ang^3
#
#
#
# Elastic Constant Matrix: (Units=GPa)
#
#
# Indices 1 2 3 4 5 6 
#
# 1 136.5939 31.6528 25.5337 0.0000 0.0000 0.0000
# 2 31.6528 49.1939 21.8799 0.0000 0.0000 0.0000
# 3 25.5337 21.8799 69.6606 0.0000 0.0000 0.0000
# 4 0.0000 0.0000 0.0000 20.0083 0.0000 0.0000
# 5 0.0000 0.0000 0.0000 0.0000 28.8078 0.0000
# 6 0.0000 0.0000 0.0000 0.0000 0.0000 33.2967
#
#
#
# Elastic Compliance Matrix: (Units=1/GPa)
#
#
# Indices 1 2 3 4 5 6 
#
# 1 0.008769 -0.004897 -0.001676 0.000000 0.000000 0.000000
# 2 -0.004897 0.026363 -0.006486 0.000000 0.000000 0.000000
# 3 -0.001676 -0.006486 0.017007 0.000000 0.000000 0.000000
# 4 0.000000 0.000000 0.000000 0.049979 0.000000 0.000000
# 5 0.000000 0.000000 0.000000 0.000000 0.034713 0.000000
# 6 0.000000 0.000000 0.000000 0.000000 0.000000 0.030033
#
#
# Mechanical properties :
#
#
# Convention : Reuss Voigt Hill
#
# Bulk Modulus (GPa) = 38.42931 45.95348 42.19139
# Shear Modulus (GPa) = 24.79485 28.18137 26.48811
#
# Velocity S-wave (km/s) = 3.50346 3.73506 3.62111
# Velocity P-wave (km/s) = 5.94889 6.43034 6.19429
#
# Compressibility (1/GPa) = 0.02602181
#
# Stress axis : x y z
#
# Youngs Moduli (GPa) = 114.03782 37.93201 58.80004
#
# Poissons Ratio (x) = 0.18574 0.09856
# Poissons Ratio (y) = 0.55841 0.38135
# Poissons Ratio (z) = 0.19115 0.24601
#
# Static dielectric constant tensor:
#      x y z
#    x 3.945300 0.000000 0.000000 
#    y 0.000000 3.554500 0.000000 
#    z 0.000000 0.000000 3.626390 
# 
# 
# High freq. dielectric constant tensor:
#      x y z
#    x 1.795840 0.000000 0.000000 
#    y 0.000000 1.762100 0.000000 
#    z 0.000000 0.000000 1.773480 
# 
# From -- ./inp_files/59465.got.cif
#   From: 2010.03.12/outbox.cif.g09.slc.cpg/sg70_30_cif.got.tgz:59465.got - 2010.04.16 13:46:32.
