data_PCOD8286265
_publ_section_title
;
Structure prediction by ZEFSAII (Michael W. Deem and Ramdas Pophale) SiO2 
 PCOD8286265
Probable space group: F D D D
;
_chemical_formula_sum "Si O2"
_cell_formula_units_Z 144
_cell_length_a 30.218234
_cell_length_b 17.557359
_cell_length_c 12.390915
_cell_angle_alpha 90.000000
_cell_angle_beta 90.000000
_cell_angle_gamma 90.000000
_cell_volume 6574.029477
_symmetry_space_group_name_H-M "F D D D"
_symmetry_group_IT_number 70
_space_group.IT_coordinate_system_code '2'
_symmetry_cell_setting 'orthorhombic'
loop_
_space_group_symop_operation_xyz
x,y,z
1/4-x,1/4-y,z
x,1/4-y,1/4-z
1/4-x,y,1/4-z
-x,-y,-z
3/4+x,3/4+y,-z
-x,3/4+y,3/4+z
3/4+x,-y,3/4+z
x,1/2+y,1/2+z
1/4-x,3/4-y,1/2+z
x,3/4-y,3/4-z
1/4-x,1/2+y,3/4-z
-x,1/2-y,1/2-z
3/4+x,1/4+y,1/2-z
-x,1/4+y,1/4+z
3/4+x,1/2-y,1/4+z
1/2+x,y,1/2+z
3/4-x,1/4-y,1/2+z
1/2+x,1/4-y,3/4-z
3/4-x,y,3/4-z
1/2-x,-y,1/2-z
1/4+x,3/4+y,1/2-z
1/2-x,3/4+y,1/4+z
1/4+x,-y,1/4+z
1/2+x,1/2+y,z
3/4-x,3/4-y,z
1/2+x,3/4-y,1/4-z
3/4-x,1/2+y,1/4-z
1/2-x,1/2-y,-z
1/4+x,1/4+y,-z
1/2-x,1/4+y,3/4+z
1/4+x,1/2-y,3/4+z
loop_
_atom_site_type_symbol
_atom_site_label
_atom_site_fract_x
_atom_site_fract_y
_atom_site_fract_z
Si Si1 0.305406 0.946594 0.310585
Si Si2 0.730258 0.539481 0.412234
Si Si3 0.302808 0.147621 0.501123
Si Si4 0.822491 0.962936 0.379937
Si Si5 0.625000 0.935323 0.625000
O O1 0.325384 0.875000 0.375000
O O2 0.298746 0.926251 0.185377
O O3 0.259456 0.968889 0.369537
O O4 0.340326 0.014471 0.309553
O O5 0.761108 0.608818 0.446249
O O6 0.698101 0.507607 0.506722
O O7 0.299830 0.125000 0.625000
O O8 0.301600 0.238061 0.469722
O O9 0.349760 0.117555 0.459340
O O10 0.807726 0.875000 0.375000
O O11 0.875000 0.971025 0.375000
#
# Coordination Sequence:
#
# PCOD8286265 Si02
#       5
#    32  32  32  32  16
#     4  10  21  40  64  98 129 176 222 284 347 415
#     4  10  23  41  67  94 135 175 226 283 349 418
#     4  11  24  43  69  97 133 182 230 285 347 427
#     4  11  25  44  66 101 136 183 232 286 354 418
#     4  10  23  38  61  96 128 168 224 282 347 406
#
# _framework density 21.904374000000001
#
# number of rings (size 3 to 8) (size 9 to 14) (size 15 to 20)
#    0.000    1.556    1.111    2.333    3.111    7.111 
#    4.000    0.000    0.000    0.000    0.000    0.000 
#    0.000    0.000    0.000    0.000    0.000    0.000 
#
# Total GULP energy -446336.110009 kJ/mol
# GULP energy per Si atom -12398.225278 kJ/mol
# Density = 2.185452 g / cm^3
# Si number density = 21.904374 Si / 1000 Ang^3
#
#
#
# Elastic Constant Matrix: (Units=GPa)
#
#
# Indices 1 2 3 4 5 6 
#
# 1 93.9921 20.6265 47.8240 0.0000 0.0000 0.0000
# 2 20.6265 129.2626 63.8116 0.0000 0.0000 0.0000
# 3 47.8240 63.8116 169.4662 0.0000 0.0000 0.0000
# 4 0.0000 0.0000 0.0000 39.6405 0.0000 0.0000
# 5 0.0000 0.0000 0.0000 0.0000 34.7904 0.0000
# 6 0.0000 0.0000 0.0000 0.0000 0.0000 9.0906
#
#
#
# Elastic Compliance Matrix: (Units=1/GPa)
#
#
# Indices 1 2 3 4 5 6 
#
# 1 0.012433 -0.000309 -0.003392 0.000000 0.000000 0.000000
# 2 -0.000309 0.009510 -0.003494 0.000000 0.000000 0.000000
# 3 -0.003392 -0.003494 0.008174 0.000000 0.000000 0.000000
# 4 0.000000 0.000000 0.000000 0.025227 0.000000 0.000000
# 5 0.000000 0.000000 0.000000 0.000000 0.028744 0.000000
# 6 0.000000 0.000000 0.000000 0.000000 0.000000 0.110004
#
#
# Mechanical properties :
#
#
# Convention : Reuss Voigt Hill
#
# Bulk Modulus (GPa) = 63.58702 73.02722 68.30712
# Shear Modulus (GPa) = 23.39471 34.06821 28.73146
#
# Velocity S-wave (km/s) = 3.27163 3.94803 3.62564
# Velocity P-wave (km/s) = 6.58512 7.36166 6.98419
#
# Compressibility (1/GPa) = 0.01572648
#
# Stress axis : x y z
#
# Youngs Moduli (GPa) = 80.43089 105.14946 122.34349
#
# Poissons Ratio (x) = 0.03253 0.41501
# Poissons Ratio (y) = 0.02488 0.42744
# Poissons Ratio (z) = 0.27283 0.36736
#
# Static dielectric constant tensor:
#      x y z
#    x 4.080650 0.000000 0.000000 
#    y 0.000000 4.005880 0.000000 
#    z 0.000000 0.000000 4.443740 
# 
# 
# High freq. dielectric constant tensor:
#      x y z
#    x 1.875120 0.000000 0.000000 
#    y 0.000000 1.860710 0.000000 
#    z 0.000000 0.000000 1.858570 
# 
# From -- ./inp_files/30837.got.cif
#   From: 2010.03.12/outbox.cif.g09.slc.cpg/sg70_16_cif.got.tgz:30837.got - 2010.04.16 13:46:32.
