data_PCOD8286668
_publ_section_title
;
Structure prediction by ZEFSAII (Michael W. Deem and Ramdas Pophale) SiO2 
 PCOD8286668
Probable space group: F D D D
;
_chemical_formula_sum "Si O2"
_cell_formula_units_Z 160
_cell_length_a 22.947732
_cell_length_b 26.431046
_cell_length_c 10.562249
_cell_angle_alpha 90.000000
_cell_angle_beta 90.000000
_cell_angle_gamma 90.000000
_cell_volume 6406.347926
_symmetry_space_group_name_H-M "F D D D"
_symmetry_group_IT_number 70
_space_group.IT_coordinate_system_code '2'
_symmetry_cell_setting 'orthorhombic'
loop_
_space_group_symop_operation_xyz
x,y,z
1/4-x,1/4-y,z
x,1/4-y,1/4-z
1/4-x,y,1/4-z
-x,-y,-z
3/4+x,3/4+y,-z
-x,3/4+y,3/4+z
3/4+x,-y,3/4+z
x,1/2+y,1/2+z
1/4-x,3/4-y,1/2+z
x,3/4-y,3/4-z
1/4-x,1/2+y,3/4-z
-x,1/2-y,1/2-z
3/4+x,1/4+y,1/2-z
-x,1/4+y,1/4+z
3/4+x,1/2-y,1/4+z
1/2+x,y,1/2+z
3/4-x,1/4-y,1/2+z
1/2+x,1/4-y,3/4-z
3/4-x,y,3/4-z
1/2-x,-y,1/2-z
1/4+x,3/4+y,1/2-z
1/2-x,3/4+y,1/4+z
1/4+x,-y,1/4+z
1/2+x,1/2+y,z
3/4-x,3/4-y,z
1/2+x,3/4-y,1/4-z
3/4-x,1/2+y,1/4-z
1/2-x,1/2-y,-z
1/4+x,1/4+y,-z
1/2-x,1/4+y,3/4+z
1/4+x,1/2-y,3/4+z
loop_
_atom_site_type_symbol
_atom_site_label
_atom_site_fract_x
_atom_site_fract_y
_atom_site_fract_z
Si Si1 0.110903 0.681834 0.854857
Si Si2 0.193507 0.869184 0.626313
Si Si3 0.260245 0.802795 0.436805
Si Si4 0.479835 0.822182 0.936874
Si Si5 0.261860 0.965902 0.605738
O O1 0.125000 0.625000 0.884529
O O2 0.078030 0.684181 0.718557
O O3 0.168451 0.715521 0.868478
O O4 0.067694 0.699072 0.965659
O O5 0.125000 0.878806 0.625000
O O6 0.217881 0.846711 0.493986
O O7 0.209117 0.829793 0.738354
O O8 0.227311 0.920206 0.674210
O O9 0.250000 0.750000 0.500000
O O10 0.247407 0.797148 0.290034
O O11 0.458383 0.875000 0.875000
O O12 0.489309 0.772218 0.846904
#
# Coordination Sequence:
#
# PCOD8286668 Si02
#       5
#    32  32  32  32  32
#     4  11  23  46  72 108 140 185 242 293 357 430
#     4  11  26  45  65 107 145 184 239 292 366 429
#     4  11  22  42  73 108 142 180 227 300 361 422
#     4  11  27  48  69 103 145 194 241 299 355 432
#     4  12  24  46  75 103 141 190 239 292 368 428
#
# _framework density 24.975228999999999
#
# number of rings (size 3 to 8) (size 9 to 14) (size 15 to 20)
#    0.000    0.800    8.000    1.200    2.800    5.200 
#    3.600    0.000    0.000    0.000    0.000    0.000 
#    0.000    0.000    0.000    0.000    0.000    0.000 
#
# Total GULP energy -495736.106520 kJ/mol
# GULP energy per Si atom -12393.402663 kJ/mol
# Density = 2.491838 g / cm^3
# Si number density = 24.975229 Si / 1000 Ang^3
#
#
#
# Elastic Constant Matrix: (Units=GPa)
#
#
# Indices 1 2 3 4 5 6 
#
# 1 161.5154 43.5669 -5.4216 -0.0001 0.0001 0.0000
# 2 43.5669 169.9584 11.9752 0.0000 0.0001 0.0000
# 3 -5.4216 11.9752 7.4417 -0.0002 0.0003 0.0000
# 4 -0.0001 0.0000 -0.0002 46.0080 0.0000 0.0000
# 5 0.0001 0.0001 0.0003 0.0000 20.9026 0.0000
# 6 0.0000 0.0000 0.0000 0.0000 0.0000 34.1517
#
#
#
# Elastic Compliance Matrix: (Units=1/GPa)
#
#
# Indices 1 2 3 4 5 6 
#
# 1 0.007173 -0.002489 0.009231 0.000000 0.000000 0.000000
# 2 -0.002489 0.007500 -0.013882 0.000000 0.000000 0.000000
# 3 0.009231 -0.013882 0.163443 0.000001 -0.000003 0.000000
# 4 0.000000 0.000000 0.000001 0.021735 0.000000 0.000000
# 5 0.000000 0.000000 -0.000003 0.000000 0.047841 0.000000
# 6 0.000000 0.000000 0.000000 0.000000 0.000000 0.029281
#
#
# Mechanical properties :
#
#
# Convention : Reuss Voigt Hill
#
# Bulk Modulus (GPa) = 6.10373 48.79516 27.44944
# Shear Modulus (GPa) = 14.45651 39.46546 26.96099
#
# Velocity S-wave (km/s) = 2.40851 3.97947 3.28915
# Velocity P-wave (km/s) = 3.19120 6.37924 5.04373
#
# Compressibility (1/GPa) = 0.16383428
#
# Stress axis : x y z
#
# Youngs Moduli (GPa) = 139.41945 133.33401 6.11836
#
# Poissons Ratio (x) = 0.33187 -0.05648
# Poissons Ratio (y) = 0.34702 0.08494
# Poissons Ratio (z) = -1.28697 1.85098
#
# Static dielectric constant tensor:
#      x y z
#    x 3.945220 0.000000 0.000000 
#    y 0.000000 4.769290 0.000000 
#    z 0.000000 0.000000 4.877710 
# 
# 
# High freq. dielectric constant tensor:
#      x y z
#    x 1.979020 0.000000 0.000000 
#    y 0.000000 2.012540 0.000000 
#    z 0.000000 0.000000 2.011640 
# 
# From -- ./inp_files/19510.got.cif
#   From: 2010.03.12/outbox.cif.g09.slc.cpg/sg70_10_cif.got.tgz:19510.got - 2010.04.16 13:46:32.
