data_PCOD8286093
_publ_section_title
;
Structure prediction by ZEFSAII (Michael W. Deem and Ramdas Pophale) SiO2 
 PCOD8286093
Probable space group: F D D D
;
_chemical_formula_sum "Si O2"
_cell_formula_units_Z 96
_cell_length_a 27.558639
_cell_length_b 9.442461
_cell_length_c 16.035254
_cell_angle_alpha 90.000000
_cell_angle_beta 90.000000
_cell_angle_gamma 90.000000
_cell_volume 4172.715828
_symmetry_space_group_name_H-M "F D D D"
_symmetry_group_IT_number 70
_space_group.IT_coordinate_system_code '2'
_symmetry_cell_setting 'orthorhombic'
loop_
_space_group_symop_operation_xyz
x,y,z
1/4-x,1/4-y,z
x,1/4-y,1/4-z
1/4-x,y,1/4-z
-x,-y,-z
3/4+x,3/4+y,-z
-x,3/4+y,3/4+z
3/4+x,-y,3/4+z
x,1/2+y,1/2+z
1/4-x,3/4-y,1/2+z
x,3/4-y,3/4-z
1/4-x,1/2+y,3/4-z
-x,1/2-y,1/2-z
3/4+x,1/4+y,1/2-z
-x,1/4+y,1/4+z
3/4+x,1/2-y,1/4+z
1/2+x,y,1/2+z
3/4-x,1/4-y,1/2+z
1/2+x,1/4-y,3/4-z
3/4-x,y,3/4-z
1/2-x,-y,1/2-z
1/4+x,3/4+y,1/2-z
1/2-x,3/4+y,1/4+z
1/4+x,-y,1/4+z
1/2+x,1/2+y,z
3/4-x,3/4-y,z
1/2+x,3/4-y,1/4-z
3/4-x,1/2+y,1/4-z
1/2-x,1/2-y,-z
1/4+x,1/4+y,-z
1/2-x,1/4+y,3/4+z
1/4+x,1/2-y,3/4+z
loop_
_atom_site_type_symbol
_atom_site_label
_atom_site_fract_x
_atom_site_fract_y
_atom_site_fract_z
Si Si1 0.889732 0.578059 0.279730
Si Si2 0.707026 0.002660 0.313546
Si Si3 0.950146 0.930032 0.032050
O O1 0.875000 0.596925 0.375000
O O2 0.908417 0.726197 0.241038
O O3 0.932291 0.458137 0.271115
O O4 0.842474 0.543753 0.225487
O O5 0.716628 0.875000 0.375000
O O6 0.750000 0.000000 0.250000
O O7 0.704954 0.144695 0.369276
O O8 0.000000 0.000000 0.000000
#
# Coordination Sequence:
#
# PCOD8286093 Si02
#       3
#    32  32  32
#     4  10  21  41  65  95 128 167 217 267 323 391
#     4  10  22  42  63  92 129 166 211 266 324 384
#     4  10  20  38  66  96 126 168 216 267 322 390
#
# _framework density 23.006599999999999
#
# number of rings (size 3 to 8) (size 9 to 14) (size 15 to 20)
#    0.000    2.000    0.000    4.000    0.000    2.667 
#    0.000   73.333    0.000    6.000    0.000    0.000 
#    0.000    0.000    0.000    0.000    0.000    0.000 
#
# Total GULP energy -297401.477035 kJ/mol
# GULP energy per Si atom -12391.728210 kJ/mol
# Density = 2.295424 g / cm^3
# Si number density = 23.006600 Si / 1000 Ang^3
#
#
#
# Elastic Constant Matrix: (Units=GPa)
#
#
# Indices 1 2 3 4 5 6 
#
# 1 194.7581 73.4153 102.2140 0.0000 0.0000 0.0000
# 2 73.4153 56.0221 61.3365 0.0000 0.0000 0.0000
# 3 102.2140 61.3365 221.0198 0.0000 0.0000 0.0000
# 4 0.0000 0.0000 0.0000 34.9033 0.0000 0.0000
# 5 0.0000 0.0000 0.0000 0.0000 59.5510 0.0000
# 6 0.0000 0.0000 0.0000 0.0000 0.0000 39.1831
#
#
#
# Elastic Compliance Matrix: (Units=1/GPa)
#
#
# Indices 1 2 3 4 5 6 
#
# 1 0.010477 -0.012102 -0.001487 0.000000 0.000000 0.000000
# 2 -0.012102 0.039619 -0.005398 0.000000 0.000000 0.000000
# 3 -0.001487 -0.005398 0.006710 0.000000 0.000000 0.000000
# 4 0.000000 0.000000 0.000000 0.028651 0.000000 0.000000
# 5 0.000000 0.000000 0.000000 0.000000 0.016792 0.000000
# 6 0.000000 0.000000 0.000000 0.000000 0.000000 0.025521
#
#
# Mechanical properties :
#
#
# Convention : Reuss Voigt Hill
#
# Bulk Modulus (GPa) = 53.09892 105.08127 79.09009
# Shear Modulus (GPa) = 29.06620 42.38311 35.72466
#
# Velocity S-wave (km/s) = 3.55827 4.29676 3.94483
# Velocity P-wave (km/s) = 6.32548 8.38986 7.42972
#
# Compressibility (1/GPa) = 0.01883278
#
# Stress axis : x y z
#
# Youngs Moduli (GPa) = 95.45120 25.24019 149.02723
#
# Poissons Ratio (x) = 0.30544 0.22156
# Poissons Ratio (y) = 1.15510 0.80452
# Poissons Ratio (z) = 0.14191 0.13626
#
# Static dielectric constant tensor:
#      x y z
#    x 4.330190 0.000000 0.000000 
#    y 0.000000 4.294530 0.000000 
#    z 0.000000 0.000000 4.796300 
# 
# 
# High freq. dielectric constant tensor:
#      x y z
#    x 1.918140 0.000000 0.000000 
#    y 0.000000 1.884960 0.000000 
#    z 0.000000 0.000000 1.923690 
# 
# From -- ./inp_files/20115.got.cif
#   From: 2010.03.12/outbox.cif.g09.slc.cpg/sg70_11_cif.got.tgz:20115.got - 2010.04.16 13:46:32.
