data_PCOD8286680
_publ_section_title
;
Structure prediction by ZEFSAII (Michael W. Deem and Ramdas Pophale) SiO2 
 PCOD8286680
Probable space group: F D D D
;
_chemical_formula_sum "Si O2"
_cell_formula_units_Z 160
_cell_length_a 22.207244
_cell_length_b 25.560446
_cell_length_c 13.483671
_cell_angle_alpha 90.000000
_cell_angle_beta 90.000000
_cell_angle_gamma 90.000000
_cell_volume 7653.696542
_symmetry_space_group_name_H-M "F D D D"
_symmetry_group_IT_number 70
_space_group.IT_coordinate_system_code '2'
_symmetry_cell_setting 'orthorhombic'
loop_
_space_group_symop_operation_xyz
x,y,z
1/4-x,1/4-y,z
x,1/4-y,1/4-z
1/4-x,y,1/4-z
-x,-y,-z
3/4+x,3/4+y,-z
-x,3/4+y,3/4+z
3/4+x,-y,3/4+z
x,1/2+y,1/2+z
1/4-x,3/4-y,1/2+z
x,3/4-y,3/4-z
1/4-x,1/2+y,3/4-z
-x,1/2-y,1/2-z
3/4+x,1/4+y,1/2-z
-x,1/4+y,1/4+z
3/4+x,1/2-y,1/4+z
1/2+x,y,1/2+z
3/4-x,1/4-y,1/2+z
1/2+x,1/4-y,3/4-z
3/4-x,y,3/4-z
1/2-x,-y,1/2-z
1/4+x,3/4+y,1/2-z
1/2-x,3/4+y,1/4+z
1/4+x,-y,1/4+z
1/2+x,1/2+y,z
3/4-x,3/4-y,z
1/2+x,3/4-y,1/4-z
3/4-x,1/2+y,1/4-z
1/2-x,1/2-y,-z
1/4+x,1/4+y,-z
1/2-x,1/4+y,3/4+z
1/4+x,1/2-y,3/4+z
loop_
_atom_site_type_symbol
_atom_site_label
_atom_site_fract_x
_atom_site_fract_y
_atom_site_fract_z
Si Si1 0.303509 0.645712 0.869989
Si Si2 0.727142 0.574992 0.688951
Si Si3 0.869130 0.435810 0.657212
Si Si4 0.231350 0.014752 0.957860
Si Si5 0.248794 0.714991 0.402096
O O1 0.375000 0.641241 0.875000
O O2 0.285279 0.692502 0.795224
O O3 0.276702 0.591743 0.825938
O O4 0.275457 0.657823 0.977889
O O5 0.708797 0.625000 0.625000
O O6 0.665668 0.553085 0.738918
O O7 0.755752 0.531095 0.620447
O O8 0.875000 0.375000 0.639065
O O9 0.830879 0.457777 0.567318
O O10 0.933923 0.462326 0.652292
O O11 0.214537 0.994222 0.066617
O O12 0.250000 0.750000 0.500000
#
# Coordination Sequence:
#
# PCOD8286680 Si02
#       5
#    32  32  32  32  32
#     4  11  25  46  65 103 140 174 223 276 348 421
#     4  11  22  44  76 108 133 167 222 302 361 396
#     4  11  22  45  69  99 135 170 231 283 337 413
#     4  11  25  44  72 101 133 176 223 288 351 400
#     4  12  28  45  65  97 137 190 230 272 337 408
#
# _framework density 20.904931999999999
#
# number of rings (size 3 to 8) (size 9 to 14) (size 15 to 20)
#    0.000    0.800    6.000    2.400    8.400    2.800 
#    0.000    1.000    0.000    0.000    0.000    0.000 
#    0.000    0.000    0.000    0.000    0.000    0.000 
#
# Total GULP energy -495955.997828 kJ/mol
# GULP energy per Si atom -12398.899946 kJ/mol
# Density = 2.085735 g / cm^3
# Si number density = 20.904932 Si / 1000 Ang^3
#
#
#
# Elastic Constant Matrix: (Units=GPa)
#
#
# Indices 1 2 3 4 5 6 
#
# 1 74.5101 -5.3196 4.0380 0.0000 0.0000 0.0000
# 2 -5.3196 105.9179 51.6929 0.0000 0.0000 0.0000
# 3 4.0380 51.6929 109.3635 0.0000 0.0000 0.0000
# 4 0.0000 0.0000 0.0000 43.9875 0.0000 0.0000
# 5 0.0000 0.0000 0.0000 0.0000 8.5339 0.0000
# 6 0.0000 0.0000 0.0000 0.0000 0.0000 14.1292
#
#
#
# Elastic Compliance Matrix: (Units=1/GPa)
#
#
# Indices 1 2 3 4 5 6 
#
# 1 0.013565 0.001203 -0.001070 0.000000 0.000000 0.000000
# 2 0.001203 0.012379 -0.005896 0.000000 0.000000 0.000000
# 3 -0.001070 -0.005896 0.011970 0.000000 0.000000 0.000000
# 4 0.000000 0.000000 0.000000 0.022734 0.000000 0.000000
# 5 0.000000 0.000000 0.000000 0.000000 0.117180 0.000000
# 6 0.000000 0.000000 0.000000 0.000000 0.000000 0.070775
#
#
# Mechanical properties :
#
#
# Convention : Reuss Voigt Hill
#
# Bulk Modulus (GPa) = 37.89313 43.40159 40.64736
# Shear Modulus (GPa) = 18.59263 29.28878 23.94071
#
# Velocity S-wave (km/s) = 2.98550 3.74712 3.38778
# Velocity P-wave (km/s) = 5.48179 6.28710 5.89821
#
# Compressibility (1/GPa) = 0.02639001
#
# Stress axis : x y z
#
# Youngs Moduli (GPa) = 73.71979 80.78157 83.54205
#
# Poissons Ratio (x) = -0.09720 0.08936
# Poissons Ratio (y) = -0.08871 0.49253
# Poissons Ratio (z) = 0.07885 0.47626
#
# Static dielectric constant tensor:
#      x y z
#    x 3.792080 0.000000 0.000000 
#    y 0.000000 4.061400 0.000000 
#    z 0.000000 0.000000 3.717870 
# 
# 
# High freq. dielectric constant tensor:
#      x y z
#    x 1.822430 0.000000 0.000000 
#    y 0.000000 1.838800 0.000000 
#    z 0.000000 0.000000 1.808410 
# 
# From -- ./inp_files/28657.got.cif
#   From: 2010.03.12/outbox.cif.g09.slc.cpg/sg70_15_cif.got.tgz:28657.got - 2010.04.16 13:46:32.
