data_PCOD8286463
_publ_section_title
;
Structure prediction by ZEFSAII (Michael W. Deem and Ramdas Pophale) SiO2 
 PCOD8286463
Probable space group: F D D D
;
_chemical_formula_sum "Si O2"
_cell_formula_units_Z 192
_cell_length_a 20.073661
_cell_length_b 26.574913
_cell_length_c 18.322522
_cell_angle_alpha 90.000000
_cell_angle_beta 90.000000
_cell_angle_gamma 90.000000
_cell_volume 9774.255534
_symmetry_space_group_name_H-M "F D D D"
_symmetry_group_IT_number 70
_space_group.IT_coordinate_system_code '2'
_symmetry_cell_setting 'orthorhombic'
loop_
_space_group_symop_operation_xyz
x,y,z
1/4-x,1/4-y,z
x,1/4-y,1/4-z
1/4-x,y,1/4-z
-x,-y,-z
3/4+x,3/4+y,-z
-x,3/4+y,3/4+z
3/4+x,-y,3/4+z
x,1/2+y,1/2+z
1/4-x,3/4-y,1/2+z
x,3/4-y,3/4-z
1/4-x,1/2+y,3/4-z
-x,1/2-y,1/2-z
3/4+x,1/4+y,1/2-z
-x,1/4+y,1/4+z
3/4+x,1/2-y,1/4+z
1/2+x,y,1/2+z
3/4-x,1/4-y,1/2+z
1/2+x,1/4-y,3/4-z
3/4-x,y,3/4-z
1/2-x,-y,1/2-z
1/4+x,3/4+y,1/2-z
1/2-x,3/4+y,1/4+z
1/4+x,-y,1/4+z
1/2+x,1/2+y,z
3/4-x,3/4-y,z
1/2+x,3/4-y,1/4-z
3/4-x,1/2+y,1/4-z
1/2-x,1/2-y,-z
1/4+x,1/4+y,-z
1/2-x,1/4+y,3/4+z
1/4+x,1/2-y,3/4+z
loop_
_atom_site_type_symbol
_atom_site_label
_atom_site_fract_x
_atom_site_fract_y
_atom_site_fract_z
Si Si1 0.234229 0.984753 0.960384
Si Si2 0.899435 0.251355 0.294605
Si Si3 0.189558 0.315303 0.794912
Si Si4 0.484649 0.569573 0.045651
Si Si5 0.534940 0.293214 0.293851
Si Si6 0.448275 0.883554 0.788578
O O1 0.229215 0.972510 0.875986
O O2 0.273332 0.936331 0.992072
O O3 0.161187 0.995948 0.989560
O O4 0.276431 0.033731 0.980639
O O5 0.875000 0.239119 0.375000
O O6 0.952328 0.208974 0.272454
O O7 0.935790 0.306570 0.292185
O O8 0.208532 0.297588 0.876614
O O9 0.215953 0.372231 0.786966
O O10 0.111877 0.306196 0.781882
O O11 0.500000 0.250000 0.250000
O O12 0.499649 0.342239 0.261438
O O13 0.444173 0.875000 0.875000
O O14 0.375000 0.875000 0.754286
#
# Coordination Sequence:
#
# PCOD8286463 Si02
#       6
#    32  32  32  32  32  32
#     4  11  22  39  64  92 125 165 208 263 314 376
#     4  11  21  41  65  92 122 165 215 265 314 371
#     4  11  22  41  64  91 125 170 211 258 318 387
#     4  10  23  40  64  91 123 169 217 256 317 385
#     4  11  23  40  65  94 127 163 206 262 318 384
#     4   9  19  37  62  88 121 165 205 247 313 387
#
# _framework density 19.643439999999998
#
# number of rings (size 3 to 8) (size 9 to 14) (size 15 to 20)
#    0.000    1.500    3.333    2.000    4.667    2.667 
#    6.000    0.000    3.667    0.000    0.000    0.000 
#    0.000    0.000    0.000    0.000    0.000    0.000 
#
# Total GULP energy -594682.816980 kJ/mol
# GULP energy per Si atom -12389.225354 kJ/mol
# Density = 1.959873 g / cm^3
# Si number density = 19.643440 Si / 1000 Ang^3
#
#
#
# Elastic Constant Matrix: (Units=GPa)
#
#
# Indices 1 2 3 4 5 6 
#
# 1 166.9566 72.5697 39.1532 0.0000 0.0000 0.0000
# 2 72.5697 123.0663 40.5426 0.0000 0.0000 0.0000
# 3 39.1532 40.5426 60.7751 0.0000 0.0000 0.0000
# 4 0.0000 0.0000 0.0000 26.9150 0.0000 0.0000
# 5 0.0000 0.0000 0.0000 0.0000 19.4724 0.0000
# 6 0.0000 0.0000 0.0000 0.0000 0.0000 43.5474
#
#
#
# Elastic Compliance Matrix: (Units=1/GPa)
#
#
# Indices 1 2 3 4 5 6 
#
# 1 0.008385 -0.004056 -0.002696 0.000000 0.000000 0.000000
# 2 -0.004056 0.012377 -0.005643 0.000000 0.000000 0.000000
# 3 -0.002696 -0.005643 0.021955 0.000000 0.000000 0.000000
# 4 0.000000 0.000000 0.000000 0.037154 0.000000 0.000000
# 5 0.000000 0.000000 0.000000 0.000000 0.051355 0.000000
# 6 0.000000 0.000000 0.000000 0.000000 0.000000 0.022963
#
#
# Mechanical properties :
#
#
# Convention : Reuss Voigt Hill
#
# Bulk Modulus (GPa) = 55.78416 72.81433 64.29925
# Shear Modulus (GPa) = 27.03354 31.22246 29.12800
#
# Velocity S-wave (km/s) = 3.71376 3.99113 3.85494
# Velocity P-wave (km/s) = 6.84466 7.64116 7.25385
#
# Compressibility (1/GPa) = 0.01792623
#
# Stress axis : x y z
#
# Youngs Moduli (GPa) = 119.26185 80.79709 45.54685
#
# Poissons Ratio (x) = 0.32774 0.12279
# Poissons Ratio (y) = 0.48376 0.25703
# Poissons Ratio (z) = 0.32152 0.45595
#
# Static dielectric constant tensor:
#      x y z
#    x 3.971620 0.000000 0.000000 
#    y 0.000000 4.542980 0.000000 
#    z 0.000000 0.000000 3.327790 
# 
# 
# High freq. dielectric constant tensor:
#      x y z
#    x 1.788910 0.000000 0.000000 
#    y 0.000000 1.767740 0.000000 
#    z 0.000000 0.000000 1.747110 
# 
# From -- ./inp_files/44945.got.cif
#   From: 2010.03.12/outbox.cif.g09.slc.cpg/sg70_23_cif.got.tgz:44945.got - 2010.04.16 13:46:32.
