data_PCOD8286769
_publ_section_title
;
Structure prediction by ZEFSAII (Michael W. Deem and Ramdas Pophale) SiO2 
 PCOD8286769
Probable space group: F D D D
;
_chemical_formula_sum "Si O2"
_cell_formula_units_Z 88
_cell_length_a 22.456263
_cell_length_b 6.814768
_cell_length_c 27.580111
_cell_angle_alpha 90.000000
_cell_angle_beta 90.000000
_cell_angle_gamma 90.000000
_cell_volume 4220.700843
_symmetry_space_group_name_H-M "F D D D"
_symmetry_group_IT_number 70
_space_group.IT_coordinate_system_code '2'
_symmetry_cell_setting 'orthorhombic'
loop_
_space_group_symop_operation_xyz
x,y,z
1/4-x,1/4-y,z
x,1/4-y,1/4-z
1/4-x,y,1/4-z
-x,-y,-z
3/4+x,3/4+y,-z
-x,3/4+y,3/4+z
3/4+x,-y,3/4+z
x,1/2+y,1/2+z
1/4-x,3/4-y,1/2+z
x,3/4-y,3/4-z
1/4-x,1/2+y,3/4-z
-x,1/2-y,1/2-z
3/4+x,1/4+y,1/2-z
-x,1/4+y,1/4+z
3/4+x,1/2-y,1/4+z
1/2+x,y,1/2+z
3/4-x,1/4-y,1/2+z
1/2+x,1/4-y,3/4-z
3/4-x,y,3/4-z
1/2-x,-y,1/2-z
1/4+x,3/4+y,1/2-z
1/2-x,3/4+y,1/4+z
1/4+x,-y,1/4+z
1/2+x,1/2+y,z
3/4-x,3/4-y,z
1/2+x,3/4-y,1/4-z
3/4-x,1/2+y,1/4-z
1/2-x,1/2-y,-z
1/4+x,1/4+y,-z
1/2-x,1/4+y,3/4+z
1/4+x,1/2-y,3/4+z
loop_
_atom_site_type_symbol
_atom_site_label
_atom_site_fract_x
_atom_site_fract_y
_atom_site_fract_z
Si Si1 0.833883 0.048300 0.573557
Si Si2 0.875000 0.875000 0.002935
Si Si3 0.375000 0.875000 0.875000
Si Si4 0.947626 0.220400 0.416881
O O1 0.858141 0.125000 0.625000
O O2 0.837757 0.222959 0.535161
O O3 0.875000 0.875000 0.553972
O O4 0.768407 0.958546 0.580019
O O5 0.925220 0.779900 0.969615
O O6 0.330820 0.741787 0.906761
O O7 0.928425 0.375000 0.375000
#
# Coordination Sequence:
#
# PCOD8286769 Si02
#       4
#    32  16   8  32
#     4  11  26  44  67  99 139 183 228 279 341 403
#     4  12  23  46  69 102 136 179 229 280 344 404
#     4  12  22  44  74  94 140 178 230 274 360 386
#     4  11  25  45  70 102 138 175 229 289 336 410
#
# _framework density 20.849618
#
# number of rings (size 3 to 8) (size 9 to 14) (size 15 to 20)
#    0.000    0.727    5.455    1.091    5.091    1.455 
#    0.000    0.000    0.000    0.000    0.000    0.000 
#    0.000    0.000    0.000    0.000    0.000    0.000 
#
# Total GULP energy -272856.473111 kJ/mol
# GULP energy per Si atom -12402.566960 kJ/mol
# Density = 2.080216 g / cm^3
# Si number density = 20.849618 Si / 1000 Ang^3
#
#
#
# Elastic Constant Matrix: (Units=GPa)
#
#
# Indices 1 2 3 4 5 6 
#
# 1 131.9060 74.4390 38.6796 0.0002 0.0008 0.0036
# 2 74.4390 157.7822 66.9465 0.0006 0.0007 0.0038
# 3 38.6796 66.9465 139.5038 -0.0001 -0.0003 -0.0004
# 4 0.0002 0.0006 -0.0001 35.7077 -0.0003 -0.0002
# 5 0.0008 0.0007 -0.0003 -0.0003 19.3166 -0.0001
# 6 0.0036 0.0038 -0.0004 -0.0002 -0.0001 33.4233
#
#
#
# Elastic Compliance Matrix: (Units=1/GPa)
#
#
# Indices 1 2 3 4 5 6 
#
# 1 0.010381 -0.004616 -0.000663 0.000000 0.000000 -0.000001
# 2 -0.004616 0.010011 -0.003524 0.000000 0.000000 -0.000001
# 3 -0.000663 -0.003524 0.009043 0.000000 0.000000 0.000001
# 4 0.000000 0.000000 0.000000 0.028005 0.000001 0.000000
# 5 0.000000 0.000000 0.000000 0.000001 0.051769 0.000000
# 6 -0.000001 -0.000001 0.000001 0.000000 0.000000 0.029919
#
#
# Mechanical properties :
#
#
# Convention : Reuss Voigt Hill
#
# Bulk Modulus (GPa) = 84.54350 87.70249 86.12299
# Shear Modulus (GPa) = 31.11817 34.29798 32.70807
#
# Velocity S-wave (km/s) = 3.86749 4.06028 3.96506
# Velocity P-wave (km/s) = 7.78335 8.00855 7.89675
#
# Compressibility (1/GPa) = 0.01182823
#
# Stress axis : x y z
#
# Youngs Moduli (GPa) = 96.33375 99.89021 110.57846
#
# Poissons Ratio (x) = 0.46110 0.07331
# Poissons Ratio (y) = 0.44469 0.38971
# Poissons Ratio (z) = 0.06387 0.35204
#
# Static dielectric constant tensor:
#      x y z
#    x 3.753100 0.000010 0.000000 
#    y 0.000010 3.646180 0.000000 
#    z 0.000000 0.000000 3.852210 
# 
# 
# High freq. dielectric constant tensor:
#      x y z
#    x 1.829790 0.000000 0.000000 
#    y 0.000000 1.819650 0.000000 
#    z 0.000000 0.000000 1.823780 
# 
# From -- ./inp_files/2536.got.cif
#   From: 2010.03.12/outbox.cif.g09.slc.cpg/sg70_2_cif.got.tgz:2536.got - 2010.04.16 13:46:32.
