data_PCOD8286649
_publ_section_title
;
Structure prediction by ZEFSAII (Michael W. Deem and Ramdas Pophale) SiO2 
 PCOD8286649
Probable space group: F D D D
;
_chemical_formula_sum "Si O2"
_cell_formula_units_Z 144
_cell_length_a 20.862286
_cell_length_b 19.957919
_cell_length_c 16.072026
_cell_angle_alpha 90.000000
_cell_angle_beta 90.000000
_cell_angle_gamma 90.000000
_cell_volume 6691.874334
_symmetry_space_group_name_H-M "F D D D"
_symmetry_group_IT_number 70
_space_group.IT_coordinate_system_code '2'
_symmetry_cell_setting 'orthorhombic'
loop_
_space_group_symop_operation_xyz
x,y,z
1/4-x,1/4-y,z
x,1/4-y,1/4-z
1/4-x,y,1/4-z
-x,-y,-z
3/4+x,3/4+y,-z
-x,3/4+y,3/4+z
3/4+x,-y,3/4+z
x,1/2+y,1/2+z
1/4-x,3/4-y,1/2+z
x,3/4-y,3/4-z
1/4-x,1/2+y,3/4-z
-x,1/2-y,1/2-z
3/4+x,1/4+y,1/2-z
-x,1/4+y,1/4+z
3/4+x,1/2-y,1/4+z
1/2+x,y,1/2+z
3/4-x,1/4-y,1/2+z
1/2+x,1/4-y,3/4-z
3/4-x,y,3/4-z
1/2-x,-y,1/2-z
1/4+x,3/4+y,1/2-z
1/2-x,3/4+y,1/4+z
1/4+x,-y,1/4+z
1/2+x,1/2+y,z
3/4-x,3/4-y,z
1/2+x,3/4-y,1/4-z
3/4-x,1/2+y,1/4-z
1/2-x,1/2-y,-z
1/4+x,1/4+y,-z
1/2-x,1/4+y,3/4+z
1/4+x,1/2-y,3/4+z
loop_
_atom_site_type_symbol
_atom_site_label
_atom_site_fract_x
_atom_site_fract_y
_atom_site_fract_z
Si Si1 0.447602 0.893294 0.989392
Si Si2 0.770679 0.511606 0.480168
Si Si3 0.375000 0.062713 0.375000
Si Si4 0.914575 0.096276 0.218239
Si Si5 0.701887 0.270589 0.908228
O O1 0.375000 0.875000 0.964176
O O2 0.475399 0.825356 0.025534
O O3 0.461399 0.944329 0.064970
O O4 0.484545 0.930920 0.912951
O O5 0.817570 0.513080 0.401255
O O6 0.729815 0.443878 0.485395
O O7 0.816139 0.518975 0.561384
O O8 0.349066 0.104465 0.295488
O O9 0.920078 0.125000 0.125000
O O10 0.853384 0.048055 0.217800
#
# Coordination Sequence:
#
# PCOD8286649 Si02
#       5
#    32  32  16  32  32
#     4  11  22  39  67 103 137 176 225 282 359 424
#     4  12  25  43  70  97 139 184 231 287 345 408
#     4  12  26  48  71 103 136 186 234 286 350 412
#     4  12  25  47  72 100 141 186 229 287 351 412
#     4  11  23  44  65 103 141 174 224 296 348 415
#
# _framework density 21.518635
#
# number of rings (size 3 to 8) (size 9 to 14) (size 15 to 20)
#    0.000    0.444    6.667    2.000    3.111    2.667 
#    0.000    0.556    0.000    0.000    0.000    0.000 
#    0.000    0.000    0.000    0.000    0.000    0.000 
#
# Total GULP energy -446084.440898 kJ/mol
# GULP energy per Si atom -12391.234469 kJ/mol
# Density = 2.146966 g / cm^3
# Si number density = 21.518635 Si / 1000 Ang^3
#
#
#
# Elastic Constant Matrix: (Units=GPa)
#
#
# Indices 1 2 3 4 5 6 
#
# 1 114.4509 18.3291 42.3971 0.0000 0.0000 0.0000
# 2 18.3291 66.4635 23.2027 0.0000 0.0000 0.0000
# 3 42.3971 23.2027 130.0931 0.0000 0.0000 0.0000
# 4 0.0000 0.0000 0.0000 25.9096 0.0000 0.0000
# 5 0.0000 0.0000 0.0000 0.0000 31.2887 0.0000
# 6 0.0000 0.0000 0.0000 0.0000 0.0000 30.2250
#
#
#
# Elastic Compliance Matrix: (Units=1/GPa)
#
#
# Indices 1 2 3 4 5 6 
#
# 1 0.010124 -0.001749 -0.002987 0.000000 0.000000 0.000000
# 2 -0.001749 0.016347 -0.002346 0.000000 0.000000 0.000000
# 3 -0.002987 -0.002346 0.009079 0.000000 0.000000 0.000000
# 4 0.000000 0.000000 0.000000 0.038596 0.000000 0.000000
# 5 0.000000 0.000000 0.000000 0.000000 0.031960 0.000000
# 6 0.000000 0.000000 0.000000 0.000000 0.000000 0.033085
#
#
# Mechanical properties :
#
#
# Convention : Reuss Voigt Hill
#
# Bulk Modulus (GPa) = 46.76010 53.20725 49.98367
# Shear Modulus (GPa) = 31.15570 32.62321 31.88946
#
# Velocity S-wave (km/s) = 3.80919 3.89787 3.85378
# Velocity P-wave (km/s) = 6.41278 6.71101 6.56359
#
# Compressibility (1/GPa) = 0.02138576
#
# Stress axis : x y z
#
# Youngs Moduli (GPa) = 98.77354 61.17309 110.14714
#
# Poissons Ratio (x) = 0.10700 0.32906
# Poissons Ratio (y) = 0.17276 0.25836
# Poissons Ratio (z) = 0.29509 0.14349
#
# Static dielectric constant tensor:
#      x y z
#    x 4.103870 0.000000 0.000000 
#    y 0.000000 3.957390 0.000000 
#    z 0.000000 0.000000 3.912440 
# 
# 
# High freq. dielectric constant tensor:
#      x y z
#    x 1.841650 0.000000 0.000000 
#    y 0.000000 1.843550 0.000000 
#    z 0.000000 0.000000 1.853910 
# 
# From -- ./inp_files/36233.got.cif
#   From: 2010.03.12/outbox.cif.g09.slc.cpg/sg70_19_cif.got.tgz:36233.got - 2010.04.16 13:46:32.
