data_PCOD8286107
_publ_section_title
;
Structure prediction by ZEFSAII (Michael W. Deem and Ramdas Pophale) SiO2 
 PCOD8286107
Probable space group: F D D D
;
_chemical_formula_sum "Si O2"
_cell_formula_units_Z 136
_cell_length_a 31.228493
_cell_length_b 20.225727
_cell_length_c 11.426797
_cell_angle_alpha 90.000000
_cell_angle_beta 90.000000
_cell_angle_gamma 90.000000
_cell_volume 7217.381798
_symmetry_space_group_name_H-M "F D D D"
_symmetry_group_IT_number 70
_space_group.IT_coordinate_system_code '2'
_symmetry_cell_setting 'orthorhombic'
loop_
_space_group_symop_operation_xyz
x,y,z
1/4-x,1/4-y,z
x,1/4-y,1/4-z
1/4-x,y,1/4-z
-x,-y,-z
3/4+x,3/4+y,-z
-x,3/4+y,3/4+z
3/4+x,-y,3/4+z
x,1/2+y,1/2+z
1/4-x,3/4-y,1/2+z
x,3/4-y,3/4-z
1/4-x,1/2+y,3/4-z
-x,1/2-y,1/2-z
3/4+x,1/4+y,1/2-z
-x,1/4+y,1/4+z
3/4+x,1/2-y,1/4+z
1/2+x,y,1/2+z
3/4-x,1/4-y,1/2+z
1/2+x,1/4-y,3/4-z
3/4-x,y,3/4-z
1/2-x,-y,1/2-z
1/4+x,3/4+y,1/2-z
1/2-x,3/4+y,1/4+z
1/4+x,-y,1/4+z
1/2+x,1/2+y,z
3/4-x,3/4-y,z
1/2+x,3/4-y,1/4-z
3/4-x,1/2+y,1/4-z
1/2-x,1/2-y,-z
1/4+x,1/4+y,-z
1/2-x,1/4+y,3/4+z
1/4+x,1/2-y,3/4+z
loop_
_atom_site_type_symbol
_atom_site_label
_atom_site_fract_x
_atom_site_fract_y
_atom_site_fract_z
Si Si1 0.529585 0.654904 0.748093
Si Si2 0.903324 0.186417 0.047237
Si Si3 0.875000 0.875000 0.875000
Si Si4 0.061386 0.798894 0.204325
Si Si5 0.411237 0.422178 0.098240
O O1 0.543732 0.625000 0.625000
O O2 0.552084 0.726130 0.755222
O O3 0.478354 0.655900 0.758609
O O4 0.544270 0.607270 0.854124
O O5 0.919979 0.125000 0.125000
O O6 0.905385 0.251728 0.124113
O O7 0.933932 0.198719 0.936067
O O8 0.854415 0.172236 0.010687
O O9 0.843310 0.918389 0.793099
O O10 0.375000 0.375000 0.158085
#
# Coordination Sequence:
#
# PCOD8286107 Si02
#       5
#    32  32   8  32  32
#     4  11  20  37  66  92 119 150 212 259 308 355
#     4  11  22  39  59  90 124 161 207 245 313 369
#     4   8  20  36  58  88 116 160 210 238 300 348
#     4  10  22  37  59  93 122 156 199 264 310 356
#     4  10  20  39  63  88 116 166 203 251 298 377
#
# _framework density 18.843398000000001
#
# number of rings (size 3 to 8) (size 9 to 14) (size 15 to 20)
#    0.706    0.941    4.706    0.706    0.000    2.353 
#    2.118    1.176    0.000    0.000    0.000    0.000 
#    0.000    0.000    0.000    0.000    0.000    0.000 
#
# Total GULP energy -421464.930054 kJ/mol
# GULP energy per Si atom -12396.027355 kJ/mol
# Density = 1.880051 g / cm^3
# Si number density = 18.843398 Si / 1000 Ang^3
#
#
#
# Elastic Constant Matrix: (Units=GPa)
#
#
# Indices 1 2 3 4 5 6 
#
# 1 62.5222 20.7762 21.1418 0.0000 0.0000 0.0000
# 2 20.7762 113.9257 44.7664 0.0000 0.0000 0.0000
# 3 21.1418 44.7664 126.9359 0.0000 0.0000 0.0000
# 4 0.0000 0.0000 0.0000 29.1120 0.0000 0.0000
# 5 0.0000 0.0000 0.0000 0.0000 25.7593 0.0000
# 6 0.0000 0.0000 0.0000 0.0000 0.0000 18.1992
#
#
#
# Elastic Compliance Matrix: (Units=1/GPa)
#
#
# Indices 1 2 3 4 5 6 
#
# 1 0.017485 -0.002373 -0.002075 0.000000 0.000000 0.000000
# 2 -0.002373 0.010512 -0.003312 0.000000 0.000000 0.000000
# 3 -0.002075 -0.003312 0.009392 0.000000 0.000000 0.000000
# 4 0.000000 0.000000 0.000000 0.034350 0.000000 0.000000
# 5 0.000000 0.000000 0.000000 0.000000 0.038821 0.000000
# 6 0.000000 0.000000 0.000000 0.000000 0.000000 0.054947
#
#
# Mechanical properties :
#
#
# Convention : Reuss Voigt Hill
#
# Bulk Modulus (GPa) = 45.72997 52.97252 49.35124
# Shear Modulus (GPa) = 26.55106 29.06074 27.80590
#
# Velocity S-wave (km/s) = 3.75779 3.93138 3.84556
# Velocity P-wave (km/s) = 6.56880 6.98431 6.77974
#
# Compressibility (1/GPa) = 0.02186750
#
# Stress axis : x y z
#
# Youngs Moduli (GPa) = 57.19305 95.13087 106.47761
#
# Poissons Ratio (x) = 0.22576 0.22096
# Poissons Ratio (y) = 0.13573 0.35265
# Poissons Ratio (z) = 0.11869 0.31507
#
# Static dielectric constant tensor:
#      x y z
#    x 3.377510 0.000000 0.000000 
#    y 0.000000 3.260390 0.000000 
#    z 0.000000 0.000000 3.383430 
# 
# 
# High freq. dielectric constant tensor:
#      x y z
#    x 1.722700 0.000000 0.000000 
#    y 0.000000 1.726630 0.000000 
#    z 0.000000 0.000000 1.729430 
# 
# From -- ./inp_files/17848.got.cif
#   From: 2010.03.12/outbox.cif.g09.slc.cpg/sg70_9_cif.got.tgz:17848.got - 2010.04.16 13:46:32.
