data_PCOD8286401
_publ_section_title
;
Structure prediction by ZEFSAII (Michael W. Deem and Ramdas Pophale) SiO2 
 PCOD8286401
Probable space group: F D D D
;
_chemical_formula_sum "Si O2"
_cell_formula_units_Z 144
_cell_length_a 14.618060
_cell_length_b 21.793453
_cell_length_c 22.345197
_cell_angle_alpha 90.000000
_cell_angle_beta 90.000000
_cell_angle_gamma 90.000000
_cell_volume 7118.688249
_symmetry_space_group_name_H-M "F D D D"
_symmetry_group_IT_number 70
_space_group.IT_coordinate_system_code '2'
_symmetry_cell_setting 'orthorhombic'
loop_
_space_group_symop_operation_xyz
x,y,z
1/4-x,1/4-y,z
x,1/4-y,1/4-z
1/4-x,y,1/4-z
-x,-y,-z
3/4+x,3/4+y,-z
-x,3/4+y,3/4+z
3/4+x,-y,3/4+z
x,1/2+y,1/2+z
1/4-x,3/4-y,1/2+z
x,3/4-y,3/4-z
1/4-x,1/2+y,3/4-z
-x,1/2-y,1/2-z
3/4+x,1/4+y,1/2-z
-x,1/4+y,1/4+z
3/4+x,1/2-y,1/4+z
1/2+x,y,1/2+z
3/4-x,1/4-y,1/2+z
1/2+x,1/4-y,3/4-z
3/4-x,y,3/4-z
1/2-x,-y,1/2-z
1/4+x,3/4+y,1/2-z
1/2-x,3/4+y,1/4+z
1/4+x,-y,1/4+z
1/2+x,1/2+y,z
3/4-x,3/4-y,z
1/2+x,3/4-y,1/4-z
3/4-x,1/2+y,1/4-z
1/2-x,1/2-y,-z
1/4+x,1/4+y,-z
1/2-x,1/4+y,3/4+z
1/4+x,1/2-y,3/4+z
loop_
_atom_site_type_symbol
_atom_site_label
_atom_site_fract_x
_atom_site_fract_y
_atom_site_fract_z
Si Si1 0.875000 0.741412 0.875000
Si Si2 0.125000 0.125000 0.860394
Si Si3 0.208163 0.364117 0.053303
Si Si4 0.952285 0.996247 0.562498
Si Si5 0.779668 0.579494 0.072397
Si Si6 0.625000 0.465477 0.625000
O O1 0.842942 0.700143 0.932266
O O2 0.799949 0.782627 0.841119
O O3 0.207689 0.142092 0.902581
O O4 0.098659 0.181303 0.818100
O O5 0.142325 0.421578 0.067995
O O6 0.242173 0.377640 0.985751
O O7 0.033325 0.005202 0.612288
O O8 0.877666 0.048386 0.566925
O O9 0.000000 0.000000 0.500000
O O10 0.793330 0.625000 0.125000
#
# Coordination Sequence:
#
# PCOD8286401 Si02
#       6
#    16  16  32  32  32  16
#     4  11  25  48  69 100 143 185 231 290 354 422
#     4  10  22  42  71 101 130 192 222 278 360 406
#     4  10  22  42  70  97 134 183 230 279 347 423
#     4  11  22  45  68  99 134 175 231 285 340 418
#     4  12  27  43  67 105 141 177 235 291 347 420
#     4   9  20  40  68  96 128 174 231 276 346 410
#
# _framework density 20.228446000000002
#
# number of rings (size 3 to 8) (size 9 to 14) (size 15 to 20)
#    0.000    1.333    4.444    0.333    3.111    4.444 
#    4.000    0.000    0.000    0.000    0.000    0.000 
#    0.000    0.000    0.000    0.000    0.000    0.000 
#
# Total GULP energy -446043.090533 kJ/mol
# GULP energy per Si atom -12390.085848 kJ/mol
# Density = 2.018241 g / cm^3
# Si number density = 20.228446 Si / 1000 Ang^3
#
#
#
# Elastic Constant Matrix: (Units=GPa)
#
#
# Indices 1 2 3 4 5 6 
#
# 1 103.6719 68.8114 32.2775 0.0000 0.0000 0.0000
# 2 68.8114 117.8597 77.6741 0.0000 0.0000 0.0000
# 3 32.2775 77.6741 137.1635 0.0000 0.0000 0.0000
# 4 0.0000 0.0000 0.0000 30.8911 0.0000 0.0000
# 5 0.0000 0.0000 0.0000 0.0000 43.3467 0.0000
# 6 0.0000 0.0000 0.0000 0.0000 0.0000 46.1199
#
#
#
# Elastic Compliance Matrix: (Units=1/GPa)
#
#
# Indices 1 2 3 4 5 6 
#
# 1 0.016258 -0.011121 0.002472 0.000000 0.000000 0.000000
# 2 -0.011121 0.021144 -0.009357 0.000000 0.000000 0.000000
# 3 0.002472 -0.009357 0.012007 0.000000 0.000000 0.000000
# 4 0.000000 0.000000 0.000000 0.032372 0.000000 0.000000
# 5 0.000000 0.000000 0.000000 0.000000 0.023070 0.000000
# 6 0.000000 0.000000 0.000000 0.000000 0.000000 0.021683
#
#
# Mechanical properties :
#
#
# Convention : Reuss Voigt Hill
#
# Bulk Modulus (GPa) = 74.63966 79.58014 77.10990
# Shear Modulus (GPa) = 29.93830 36.06702 33.00266
#
# Velocity S-wave (km/s) = 3.85126 4.22712 4.04356
# Velocity P-wave (km/s) = 7.53358 7.95304 7.74615
#
# Compressibility (1/GPa) = 0.01339770
#
# Stress axis : x y z
#
# Youngs Moduli (GPa) = 61.50940 47.29505 83.28223
#
# Poissons Ratio (x) = 0.52597 -0.20587
# Poissons Ratio (y) = 0.68405 0.77923
# Poissons Ratio (z) = -0.15205 0.44252
#
# Static dielectric constant tensor:
#      x y z
#    x 2.072280 0.000000 0.000000 
#    y 0.000000 3.326500 0.000000 
#    z 0.000000 0.000000 -29.751240 
# 
# 
# High freq. dielectric constant tensor:
#      x y z
#    x 1.815730 0.000000 0.000000 
#    y 0.000000 1.784230 0.000000 
#    z 0.000000 0.000000 1.786290 
# 
# From -- ./inp_files/34939.got.cif
#   From: 2010.03.12/outbox.cif.g09.slc.cpg/sg70_18_cif.got.tgz:34939.got - 2010.04.16 13:46:32.
