data_PCOD8286044
_publ_section_title
;
Structure prediction by ZEFSAII (Michael W. Deem and Ramdas Pophale) SiO2 
 PCOD8286044
Probable space group: F D D D
;
_chemical_formula_sum "Si O2"
_cell_formula_units_Z 240
_cell_length_a 19.581016
_cell_length_b 26.159999
_cell_length_c 22.981286
_cell_angle_alpha 90.000000
_cell_angle_beta 90.000000
_cell_angle_gamma 90.000000
_cell_volume 11771.919209
_symmetry_space_group_name_H-M "F D D D"
_symmetry_group_IT_number 70
_space_group.IT_coordinate_system_code '2'
_symmetry_cell_setting 'orthorhombic'
loop_
_space_group_symop_operation_xyz
x,y,z
1/4-x,1/4-y,z
x,1/4-y,1/4-z
1/4-x,y,1/4-z
-x,-y,-z
3/4+x,3/4+y,-z
-x,3/4+y,3/4+z
3/4+x,-y,3/4+z
x,1/2+y,1/2+z
1/4-x,3/4-y,1/2+z
x,3/4-y,3/4-z
1/4-x,1/2+y,3/4-z
-x,1/2-y,1/2-z
3/4+x,1/4+y,1/2-z
-x,1/4+y,1/4+z
3/4+x,1/2-y,1/4+z
1/2+x,y,1/2+z
3/4-x,1/4-y,1/2+z
1/2+x,1/4-y,3/4-z
3/4-x,y,3/4-z
1/2-x,-y,1/2-z
1/4+x,3/4+y,1/2-z
1/2-x,3/4+y,1/4+z
1/4+x,-y,1/4+z
1/2+x,1/2+y,z
3/4-x,3/4-y,z
1/2+x,3/4-y,1/4-z
3/4-x,1/2+y,1/4-z
1/2-x,1/2-y,-z
1/4+x,1/4+y,-z
1/2-x,1/4+y,3/4+z
1/4+x,1/2-y,3/4+z
loop_
_atom_site_type_symbol
_atom_site_label
_atom_site_fract_x
_atom_site_fract_y
_atom_site_fract_z
Si Si1 0.591050 0.738161 0.184383
Si Si2 0.964066 0.276483 0.123909
Si Si3 0.886241 0.573299 0.656745
Si Si4 0.260377 0.932271 0.883857
Si Si5 0.722431 0.775735 0.244034
Si Si6 0.689104 0.092610 0.777990
Si Si7 0.625000 0.763390 0.625000
Si Si8 0.701501 0.927242 0.026404
O O1 0.625000 0.714199 0.125000
O O2 0.533020 0.776364 0.162199
O O3 0.644117 0.772302 0.222450
O O4 0.552697 0.696478 0.224185
O O5 0.929818 0.221204 0.122788
O O6 0.917684 0.315747 0.160543
O O7 0.979094 0.295794 0.058467
O O8 0.906217 0.625000 0.625000
O O9 0.806635 0.559902 0.654532
O O10 0.901307 0.582304 0.723569
O O11 0.290483 0.875000 0.875000
O O12 0.312884 0.974758 0.859944
O O13 0.237180 0.937561 0.951505
O O14 0.740602 0.718102 0.261074
O O15 0.625000 0.125000 0.757863
O O16 0.757778 0.125331 0.790228
O O17 0.599619 0.801772 0.575525
#
# Coordination Sequence:
#
# PCOD8286044 Si02
#       8
#    32  32  32  32  32  32  16  32
#     4  10  20  37  62  90 124 170 204 248 308 372
#     4  10  22  37  60  90 126 167 202 255 313 372
#     4  10  21  39  63  93 122 160 209 261 309 372
#     4  10  21  39  67  91 114 158 211 268 322 373
#     4   9  19  40  59  86 127 156 203 262 310 371
#     4  12  23  38  60  92 126 166 207 252 313 376
#     4  10  23  44  64  82 126 164 205 272 322 374
#     4  10  22  41  59  90 123 164 206 256 312 378
#
# _framework density 20.387499999999999
#
# number of rings (size 3 to 8) (size 9 to 14) (size 15 to 20)
#    0.000    1.867    1.333    2.200    1.867    2.933 
#    8.400    4.000    0.000    0.000    0.000    0.000 
#    0.000    0.000    0.000    0.000    0.000    0.000 
#
# Total GULP energy -743644.527852 kJ/mol
# GULP energy per Si atom -12394.075464 kJ/mol
# Density = 2.034110 g / cm^3
# Si number density = 20.387500 Si / 1000 Ang^3
#
#
#
# Elastic Constant Matrix: (Units=GPa)
#
#
# Indices 1 2 3 4 5 6 
#
# 1 80.8491 30.3534 37.0807 0.0000 0.0000 0.0000
# 2 30.3534 87.0329 62.9210 0.0000 0.0000 0.0000
# 3 37.0807 62.9210 103.4689 0.0000 0.0000 0.0000
# 4 0.0000 0.0000 0.0000 26.2520 0.0000 0.0000
# 5 0.0000 0.0000 0.0000 0.0000 35.1483 0.0000
# 6 0.0000 0.0000 0.0000 0.0000 0.0000 -92.8653
#
#
#
# Elastic Compliance Matrix: (Units=1/GPa)
#
#
# Indices 1 2 3 4 5 6 
#
# 1 0.015080 -0.002413 -0.003937 0.000000 0.000000 0.000000
# 2 -0.002413 0.020891 -0.011839 0.000000 0.000000 0.000000
# 3 -0.003937 -0.011839 0.018275 0.000000 0.000000 0.000000
# 4 0.000000 0.000000 0.000000 0.038092 0.000000 0.000000
# 5 0.000000 0.000000 0.000000 0.000000 0.028451 0.000000
# 6 0.000000 0.000000 0.000000 0.000000 0.000000 -0.010768
#
#
# Mechanical properties :
#
#
# Convention : Reuss Voigt Hill
#
# Bulk Modulus (GPa) = 55.96667 59.11790 57.54229
# Shear Modulus (GPa) = 32.81796 3.10671 17.96233
#
# Velocity S-wave (km/s) = 4.01647 1.23578 2.97146
# Velocity P-wave (km/s) = 7.00146 5.57640 6.32917
#
# Compressibility (1/GPa) = 0.01786778
#
# Stress axis : x y z
#
# Youngs Moduli (GPa) = 66.31150 47.86820 54.71886
#
# Poissons Ratio (x) = 0.11551 0.21543
# Poissons Ratio (y) = 0.16002 0.64783
# Poissons Ratio (z) = 0.26107 0.56672
#
# Static dielectric constant tensor:
#      x y z
#    x 3.740840 0.000000 0.000000 
#    y 0.000000 3.614480 0.000000 
#    z 0.000000 0.000000 4.123780 
# 
# 
# High freq. dielectric constant tensor:
#      x y z
#    x 1.799500 0.000000 0.000000 
#    y 0.000000 1.787930 0.000000 
#    z 0.000000 0.000000 1.800900 
# 
# From -- ./inp_files/45189.got.cif
#   From: 2010.03.12/outbox.cif.g09.slc.cpg/sg70_23_cif.got.tgz:45189.got - 2010.04.16 13:46:32.
