data_PCOD8286370
_publ_section_title
;
Structure prediction by ZEFSAII (Michael W. Deem and Ramdas Pophale) SiO2 
 PCOD8286370
Probable space group: F D D D
;
_chemical_formula_sum "Si O2"
_cell_formula_units_Z 240
_cell_length_a 22.791363
_cell_length_b 25.889568
_cell_length_c 19.834372
_cell_angle_alpha 90.000000
_cell_angle_beta 90.000000
_cell_angle_gamma 90.000000
_cell_volume 11703.440628
_symmetry_space_group_name_H-M "F D D D"
_symmetry_group_IT_number 70
_space_group.IT_coordinate_system_code '2'
_symmetry_cell_setting 'orthorhombic'
loop_
_space_group_symop_operation_xyz
x,y,z
1/4-x,1/4-y,z
x,1/4-y,1/4-z
1/4-x,y,1/4-z
-x,-y,-z
3/4+x,3/4+y,-z
-x,3/4+y,3/4+z
3/4+x,-y,3/4+z
x,1/2+y,1/2+z
1/4-x,3/4-y,1/2+z
x,3/4-y,3/4-z
1/4-x,1/2+y,3/4-z
-x,1/2-y,1/2-z
3/4+x,1/4+y,1/2-z
-x,1/4+y,1/4+z
3/4+x,1/2-y,1/4+z
1/2+x,y,1/2+z
3/4-x,1/4-y,1/2+z
1/2+x,1/4-y,3/4-z
3/4-x,y,3/4-z
1/2-x,-y,1/2-z
1/4+x,3/4+y,1/2-z
1/2-x,3/4+y,1/4+z
1/4+x,-y,1/4+z
1/2+x,1/2+y,z
3/4-x,3/4-y,z
1/2+x,3/4-y,1/4-z
3/4-x,1/2+y,1/4-z
1/2-x,1/2-y,-z
1/4+x,1/4+y,-z
1/2-x,1/4+y,3/4+z
1/4+x,1/2-y,3/4+z
loop_
_atom_site_type_symbol
_atom_site_label
_atom_site_fract_x
_atom_site_fract_y
_atom_site_fract_z
Si Si1 0.491299 0.666151 0.570671
Si Si2 0.696825 0.268531 0.455178
Si Si3 0.370825 0.133581 0.016912
Si Si4 0.992813 0.217825 0.918514
Si Si5 0.415527 0.919382 0.713251
Si Si6 0.131405 0.178294 0.321627
Si Si7 0.625000 0.337551 0.125000
Si Si8 0.564591 0.469549 0.802363
O O1 0.515334 0.625000 0.625000
O O2 0.422986 0.659170 0.558012
O O3 0.502317 0.722423 0.602496
O O4 0.521657 0.659748 0.497617
O O5 0.750000 0.250000 0.500000
O O6 0.682316 0.325976 0.480170
O O7 0.642350 0.228765 0.467333
O O8 0.713072 0.269945 0.375773
O O9 0.385524 0.123628 0.939179
O O10 0.356575 0.080019 0.054971
O O11 0.053044 0.188546 0.898950
O O12 0.934274 0.196143 0.882871
O O13 0.988038 0.210017 0.999540
O O14 0.375000 0.875000 0.747064
O O15 0.414084 0.913890 0.632528
O O16 0.398317 0.980262 0.725158
O O17 0.125000 0.125000 0.277315
#
# Coordination Sequence:
#
# PCOD8286370 Si02
#       8
#    32  32  32  32  32  32  16  32
#     4  11  23  38  63  91 133 165 215 264 325 384
#     4  11  23  40  66  98 125 169 216 263 329 395
#     4  11  23  41  64  97 127 171 215 273 326 391
#     4  10  22  44  64  95 125 173 210 272 321 391
#     4   9  21  38  61  89 121 171 206 262 311 379
#     4  10  22  40  66  87 130 167 213 259 331 382
#     4  10  26  40  69  92 127 168 228 266 328 394
#     4   9  21  41  65  88 134 162 212 267 326 379
#
# _framework density 20.506791
#
# number of rings (size 3 to 8) (size 9 to 14) (size 15 to 20)
#    0.000    1.867    1.333    1.200    9.333    5.600 
#    0.000    1.333    0.000    0.800    0.000    0.000 
#    0.000    0.000    0.000    0.000    0.000    0.000 
#
# Total GULP energy -743391.628116 kJ/mol
# GULP energy per Si atom -12389.860469 kJ/mol
# Density = 2.046012 g / cm^3
# Si number density = 20.506791 Si / 1000 Ang^3
#
#
#
# Elastic Constant Matrix: (Units=GPa)
#
#
# Indices 1 2 3 4 5 6 
#
# 1 107.0617 56.4045 35.4664 0.0000 0.0000 0.0000
# 2 56.4045 161.8091 38.1044 0.0000 0.0000 0.0000
# 3 35.4664 38.1044 104.5714 0.0000 0.0000 0.0000
# 4 0.0000 0.0000 0.0000 26.7931 0.0000 0.0000
# 5 0.0000 0.0000 0.0000 0.0000 27.7550 0.0000
# 6 0.0000 0.0000 0.0000 0.0000 0.0000 34.1735
#
#
#
# Elastic Compliance Matrix: (Units=1/GPa)
#
#
# Indices 1 2 3 4 5 6 
#
# 1 0.012158 -0.003574 -0.002821 0.000000 0.000000 0.000000
# 2 -0.003574 0.007811 -0.001634 0.000000 0.000000 0.000000
# 3 -0.002821 -0.001634 0.011115 0.000000 0.000000 0.000000
# 4 0.000000 0.000000 0.000000 0.037323 0.000000 0.000000
# 5 0.000000 0.000000 0.000000 0.000000 0.036030 0.000000
# 6 0.000000 0.000000 0.000000 0.000000 0.000000 0.029262
#
#
# Mechanical properties :
#
#
# Convention : Reuss Voigt Hill
#
# Bulk Modulus (GPa) = 66.55290 70.37697 68.46494
# Shear Modulus (GPa) = 32.30707 33.97547 33.14127
#
# Velocity S-wave (km/s) = 3.97348 4.07479 4.02445
# Velocity P-wave (km/s) = 7.31956 7.51877 7.41983
#
# Compressibility (1/GPa) = 0.01502564
#
# Stress axis : x y z
#
# Youngs Moduli (GPa) = 82.25214 128.03028 89.96762
#
# Poissons Ratio (x) = 0.45754 0.25382
# Poissons Ratio (y) = 0.29394 0.14701
# Poissons Ratio (z) = 0.23205 0.20921
#
# Static dielectric constant tensor:
#      x y z
#    x 3.510210 0.000000 0.000000 
#    y 0.000000 4.304390 0.000000 
#    z 0.000000 0.000000 3.606880 
# 
# 
# High freq. dielectric constant tensor:
#      x y z
#    x 1.780410 0.000000 0.000000 
#    y 0.000000 1.834000 0.000000 
#    z 0.000000 0.000000 1.781510 
# 
# From -- ./inp_files/45194.got.cif
#   From: 2010.03.12/outbox.cif.g09.slc.cpg/sg70_23_cif.got.tgz:45194.got - 2010.04.16 13:46:32.
