data_PCOD8286259
_publ_section_title
;
Structure prediction by ZEFSAII (Michael W. Deem and Ramdas Pophale) SiO2 
 PCOD8286259
Probable space group: F D D D
;
_chemical_formula_sum "Si O2"
_cell_formula_units_Z 176
_cell_length_a 14.128139
_cell_length_b 25.401732
_cell_length_c 23.090569
_cell_angle_alpha 90.000000
_cell_angle_beta 90.000000
_cell_angle_gamma 90.000000
_cell_volume 8286.724943
_symmetry_space_group_name_H-M "F D D D"
_symmetry_group_IT_number 70
_space_group.IT_coordinate_system_code '2'
_symmetry_cell_setting 'orthorhombic'
loop_
_space_group_symop_operation_xyz
x,y,z
1/4-x,1/4-y,z
x,1/4-y,1/4-z
1/4-x,y,1/4-z
-x,-y,-z
3/4+x,3/4+y,-z
-x,3/4+y,3/4+z
3/4+x,-y,3/4+z
x,1/2+y,1/2+z
1/4-x,3/4-y,1/2+z
x,3/4-y,3/4-z
1/4-x,1/2+y,3/4-z
-x,1/2-y,1/2-z
3/4+x,1/4+y,1/2-z
-x,1/4+y,1/4+z
3/4+x,1/2-y,1/4+z
1/2+x,y,1/2+z
3/4-x,1/4-y,1/2+z
1/2+x,1/4-y,3/4-z
3/4-x,y,3/4-z
1/2-x,-y,1/2-z
1/4+x,3/4+y,1/2-z
1/2-x,3/4+y,1/4+z
1/4+x,-y,1/4+z
1/2+x,1/2+y,z
3/4-x,3/4-y,z
1/2+x,3/4-y,1/4-z
3/4-x,1/2+y,1/4-z
1/2-x,1/2-y,-z
1/4+x,1/4+y,-z
1/2-x,1/4+y,3/4+z
1/4+x,1/2-y,3/4+z
loop_
_atom_site_type_symbol
_atom_site_label
_atom_site_fract_x
_atom_site_fract_y
_atom_site_fract_z
Si Si1 0.084233 0.937594 0.381547
Si Si2 0.849485 0.759882 0.030500
Si Si3 0.875000 0.589654 0.875000
Si Si4 0.319984 0.755243 0.948396
Si Si5 0.969799 0.498794 0.713904
Si Si6 0.955946 0.910585 0.123396
O O1 0.083614 0.875000 0.375000
O O2 0.118148 0.960788 0.320231
O O3 0.157235 0.956451 0.431784
O O4 0.976753 0.957621 0.398481
O O5 0.842554 0.811626 0.069075
O O6 0.750000 0.750000 0.000000
O O7 0.928425 0.771862 0.981850
O O8 0.916814 0.553636 0.925269
O O9 0.792598 0.626244 0.900296
O O10 0.250000 0.750000 0.000000
O O11 0.418882 0.773910 0.977403
O O12 0.992456 0.451004 0.671218
O O13 0.875000 0.875000 0.152926
#
# Coordination Sequence:
#
# PCOD8286259 Si02
#       6
#    32  32  16  32  32  32
#     4  10  23  42  63  94 127 161 208 258 314 381
#     4  11  24  41  61  89 126 167 211 259 308 370
#     4  12  22  40  65  90 125 166 204 256 310 364
#     4  10  21  40  63  90 125 160 203 260 314 374
#     4  10  22  41  62  90 128 163 203 259 315 371
#     4  11  23  39  62  93 120 157 211 256 302 372
#
# _framework density 21.238788
#
# number of rings (size 3 to 8) (size 9 to 14) (size 15 to 20)
#    0.000    1.455    0.000    6.545    0.000   10.909 
#    0.000    5.909    0.000    0.000    0.000    0.000 
#    0.000    0.000    0.000    0.000    0.000    0.000 
#
# Total GULP energy -545434.518084 kJ/mol
# GULP energy per Si atom -12396.239047 kJ/mol
# Density = 2.119045 g / cm^3
# Si number density = 21.238788 Si / 1000 Ang^3
#
#
#
# Elastic Constant Matrix: (Units=GPa)
#
#
# Indices 1 2 3 4 5 6 
#
# 1 151.8325 58.6504 48.6177 0.0000 0.0000 0.0000
# 2 58.6504 152.0618 48.1028 0.0000 0.0000 0.0000
# 3 48.6177 48.1028 103.0945 0.0000 0.0000 0.0000
# 4 0.0000 0.0000 0.0000 3.2091 0.0000 0.0000
# 5 0.0000 0.0000 0.0000 0.0000 38.8464 0.0000
# 6 0.0000 0.0000 0.0000 0.0000 0.0000 41.1544
#
#
#
# Elastic Compliance Matrix: (Units=1/GPa)
#
#
# Indices 1 2 3 4 5 6 
#
# 1 0.008409 -0.002333 -0.002877 0.000000 0.000000 0.000000
# 2 -0.002333 0.008362 -0.002802 0.000000 0.000000 0.000000
# 3 -0.002877 -0.002802 0.012364 0.000000 0.000000 0.000000
# 4 0.000000 0.000000 0.000000 0.311612 0.000000 0.000000
# 5 0.000000 0.000000 0.000000 0.000000 0.025742 0.000000
# 6 0.000000 0.000000 0.000000 0.000000 0.000000 0.024299
#
#
# Mechanical properties :
#
#
# Convention : Reuss Voigt Hill
#
# Bulk Modulus (GPa) = 76.26734 79.74784 78.00759
# Shear Modulus (GPa) = 12.16007 33.41651 22.78829
#
# Velocity S-wave (km/s) = 2.39538 3.97088 3.27915
# Velocity P-wave (km/s) = 6.60590 7.65856 7.15162
#
# Compressibility (1/GPa) = 0.01311177
#
# Stress axis : x y z
#
# Youngs Moduli (GPa) = 118.92541 119.58272 80.88244
#
# Poissons Ratio (x) = 0.27901 0.23268
# Poissons Ratio (y) = 0.27748 0.22659
# Poissons Ratio (z) = 0.34212 0.33501
#
# Static dielectric constant tensor:
#      x y z
#    x 4.581130 0.000000 0.000000 
#    y 0.000000 3.735470 0.000000 
#    z 0.000000 0.000000 4.194680 
# 
# 
# High freq. dielectric constant tensor:
#      x y z
#    x 1.853320 0.000000 0.000000 
#    y 0.000000 1.816760 0.000000 
#    z 0.000000 0.000000 1.839570 
# 
# From -- ./inp_files/51225.got.cif
#   From: 2010.03.12/outbox.cif.g09.slc.cpg/sg70_26_cif.got.tgz:51225.got - 2010.04.16 13:46:32.
