data_PCOD8286521
_publ_section_title
;
Structure prediction by ZEFSAII (Michael W. Deem and Ramdas Pophale) SiO2 
 PCOD8286521
Probable space group: F D D D
;
_chemical_formula_sum "Si O2"
_cell_formula_units_Z 144
_cell_length_a 29.949572
_cell_length_b 14.976233
_cell_length_c 14.104865
_cell_angle_alpha 90.000000
_cell_angle_beta 90.000000
_cell_angle_gamma 90.000000
_cell_volume 6326.480043
_symmetry_space_group_name_H-M "F D D D"
_symmetry_group_IT_number 70
_space_group.IT_coordinate_system_code '2'
_symmetry_cell_setting 'orthorhombic'
loop_
_space_group_symop_operation_xyz
x,y,z
1/4-x,1/4-y,z
x,1/4-y,1/4-z
1/4-x,y,1/4-z
-x,-y,-z
3/4+x,3/4+y,-z
-x,3/4+y,3/4+z
3/4+x,-y,3/4+z
x,1/2+y,1/2+z
1/4-x,3/4-y,1/2+z
x,3/4-y,3/4-z
1/4-x,1/2+y,3/4-z
-x,1/2-y,1/2-z
3/4+x,1/4+y,1/2-z
-x,1/4+y,1/4+z
3/4+x,1/2-y,1/4+z
1/2+x,y,1/2+z
3/4-x,1/4-y,1/2+z
1/2+x,1/4-y,3/4-z
3/4-x,y,3/4-z
1/2-x,-y,1/2-z
1/4+x,3/4+y,1/2-z
1/2-x,3/4+y,1/4+z
1/4+x,-y,1/4+z
1/2+x,1/2+y,z
3/4-x,3/4-y,z
1/2+x,3/4-y,1/4-z
3/4-x,1/2+y,1/4-z
1/2-x,1/2-y,-z
1/4+x,1/4+y,-z
1/2-x,1/4+y,3/4+z
1/4+x,1/2-y,3/4+z
loop_
_atom_site_type_symbol
_atom_site_label
_atom_site_fract_x
_atom_site_fract_y
_atom_site_fract_z
Si Si1 0.956213 0.953210 0.310007
Si Si2 0.833455 0.933706 0.634687
Si Si3 0.375000 0.555379 0.375000
Si Si4 0.895645 0.569822 0.208670
Si Si5 0.216334 0.174895 0.227121
O O1 0.979030 0.875000 0.375000
O O2 0.928798 0.911544 0.223083
O O3 0.920505 0.998734 0.379436
O O4 0.989550 0.023858 0.261539
O O5 0.875000 0.875000 0.665952
O O6 0.791540 0.906214 0.700031
O O7 0.850899 0.032411 0.656997
O O8 0.375833 0.613560 0.282044
O O9 0.921942 0.625000 0.125000
O O10 0.926663 0.498538 0.264667
O O11 0.220358 0.125000 0.125000
#
# Coordination Sequence:
#
# PCOD8286521 Si02
#       5
#    32  32  16  32  32
#     4  12  27  44  70 104 141 188 238 293 352 422
#     4  10  23  46  72  99 143 184 237 293 354 417
#     4  12  25  42  75 102 142 188 236 288 359 422
#     4  11  23  45  72 108 138 187 239 297 351 429
#     4  11  27  45  71 102 146 187 234 294 357 420
#
# _framework density 22.761472999999999
#
# number of rings (size 3 to 8) (size 9 to 14) (size 15 to 20)
#    0.000    0.889    2.222    3.667    9.333    4.889 
#    0.000    0.000    0.000    0.000    0.000    0.000 
#    0.000    0.000    0.000    0.000    0.000    0.000 
#
# Total GULP energy -445990.169495 kJ/mol
# GULP energy per Si atom -12388.615819 kJ/mol
# Density = 2.270967 g / cm^3
# Si number density = 22.761473 Si / 1000 Ang^3
#
#
#
# Elastic Constant Matrix: (Units=GPa)
#
#
# Indices 1 2 3 4 5 6 
#
# 1 90.0668 47.3608 38.7916 0.0000 0.0000 0.0000
# 2 47.3608 113.8091 75.0311 0.0000 0.0000 0.0000
# 3 38.7916 75.0311 163.4949 0.0000 0.0000 0.0000
# 4 0.0000 0.0000 0.0000 56.6753 0.0000 0.0000
# 5 0.0000 0.0000 0.0000 0.0000 27.6902 0.0000
# 6 0.0000 0.0000 0.0000 0.0000 0.0000 -72.8633
#
#
#
# Elastic Compliance Matrix: (Units=1/GPa)
#
#
# Indices 1 2 3 4 5 6 
#
# 1 0.014315 -0.005331 -0.000950 0.000000 0.000000 0.000000
# 2 -0.005331 0.014583 -0.005428 0.000000 0.000000 0.000000
# 3 -0.000950 -0.005428 0.008833 0.000000 0.000000 0.000000
# 4 0.000000 0.000000 0.000000 0.017644 0.000000 0.000000
# 5 0.000000 0.000000 0.000000 0.000000 0.036114 0.000000
# 6 0.000000 0.000000 0.000000 0.000000 0.000000 -0.013724
#
#
# Mechanical properties :
#
#
# Convention : Reuss Voigt Hill
#
# Bulk Modulus (GPa) = 69.86172 76.63754 73.24963
# Shear Modulus (GPa) = 47.19028 16.04627 31.61828
#
# Velocity S-wave (km/s) = 4.55824 2.65802 3.73113
# Velocity P-wave (km/s) = 7.64611 6.56986 7.12832
#
# Compressibility (1/GPa) = 0.01431399
#
# Stress axis : x y z
#
# Youngs Moduli (GPa) = 69.85561 68.57095 113.21500
#
# Poissons Ratio (x) = 0.36554 0.10756
# Poissons Ratio (y) = 0.37239 0.61451
# Poissons Ratio (z) = 0.06637 0.37219
#
# Static dielectric constant tensor:
#      x y z
#    x 4.005070 0.000000 0.000000 
#    y 0.000000 4.752910 0.000000 
#    z 0.000000 0.000000 4.007800 
# 
# 
# High freq. dielectric constant tensor:
#      x y z
#    x 1.885580 0.000000 0.000000 
#    y 0.000000 1.910890 0.000000 
#    z 0.000000 0.000000 1.912680 
# 
# From -- ./inp_files/30820.got.cif
#   From: 2010.03.12/outbox.cif.g09.slc.cpg/sg70_16_cif.got.tgz:30820.got - 2010.04.16 13:46:32.
