data_PCOD8286061
_publ_section_title
;
Structure prediction by ZEFSAII (Michael W. Deem and Ramdas Pophale) SiO2 
 PCOD8286061
Probable space group: F D D D
;
_chemical_formula_sum "Si O2"
_cell_formula_units_Z 176
_cell_length_a 25.391714
_cell_length_b 32.173406
_cell_length_c 10.515391
_cell_angle_alpha 90.000000
_cell_angle_beta 90.000000
_cell_angle_gamma 90.000000
_cell_volume 8590.421689
_symmetry_space_group_name_H-M "F D D D"
_symmetry_group_IT_number 70
_space_group.IT_coordinate_system_code '2'
_symmetry_cell_setting 'orthorhombic'
loop_
_space_group_symop_operation_xyz
x,y,z
1/4-x,1/4-y,z
x,1/4-y,1/4-z
1/4-x,y,1/4-z
-x,-y,-z
3/4+x,3/4+y,-z
-x,3/4+y,3/4+z
3/4+x,-y,3/4+z
x,1/2+y,1/2+z
1/4-x,3/4-y,1/2+z
x,3/4-y,3/4-z
1/4-x,1/2+y,3/4-z
-x,1/2-y,1/2-z
3/4+x,1/4+y,1/2-z
-x,1/4+y,1/4+z
3/4+x,1/2-y,1/4+z
1/2+x,y,1/2+z
3/4-x,1/4-y,1/2+z
1/2+x,1/4-y,3/4-z
3/4-x,y,3/4-z
1/2-x,-y,1/2-z
1/4+x,3/4+y,1/2-z
1/2-x,3/4+y,1/4+z
1/4+x,-y,1/4+z
1/2+x,1/2+y,z
3/4-x,3/4-y,z
1/2+x,3/4-y,1/4-z
3/4-x,1/2+y,1/4-z
1/2-x,1/2-y,-z
1/4+x,1/4+y,-z
1/2-x,1/4+y,3/4+z
1/4+x,1/2-y,3/4+z
loop_
_atom_site_type_symbol
_atom_site_label
_atom_site_fract_x
_atom_site_fract_y
_atom_site_fract_z
Si Si1 0.737876 0.828140 0.387716
Si Si2 0.581013 0.595037 0.783060
Si Si3 0.885383 0.696022 0.015541
Si Si4 0.139573 0.541475 0.486457
Si Si5 0.565035 0.375000 0.875000
Si Si6 0.511193 0.662198 0.913126
O O1 0.718200 0.875000 0.375000
O O2 0.797260 0.823451 0.330468
O O3 0.696626 0.801952 0.306073
O O4 0.735756 0.816139 0.537345
O O5 0.625000 0.625000 0.721395
O O6 0.543607 0.622107 0.871608
O O7 0.607293 0.561171 0.871920
O O8 0.850818 0.665441 0.100813
O O9 0.875000 0.678909 0.875000
O O10 0.869928 0.744124 0.023493
O O11 0.125000 0.559617 0.625000
O O12 0.201813 0.551946 0.473680
O O13 0.530622 0.392428 0.759102
#
# Coordination Sequence:
#
# PCOD8286061 Si02
#       6
#    32  32  32  32  16  32
#     4  10  20  38  60  85 119 156 205 251 302 367
#     4   9  19  37  62  89 120 158 200 249 308 365
#     4  11  24  40  61  87 120 164 203 253 311 366
#     4  10  22  39  59  90 126 156 203 256 307 367
#     4  12  24  40  65  88 121 164 212 244 310 376
#     4  10  22  38  62  90 119 164 204 251 306 366
#
# _framework density 20.487935
#
# number of rings (size 3 to 8) (size 9 to 14) (size 15 to 20)
#    0.000    1.818    0.909    3.273    0.000   13.091 
#    0.000    6.364    0.000    0.000    0.000    0.000 
#    0.000    0.000    0.000    0.000    0.000    0.000 
#
# Total GULP energy -545176.048124 kJ/mol
# GULP energy per Si atom -12390.364730 kJ/mol
# Density = 2.044130 g / cm^3
# Si number density = 20.487935 Si / 1000 Ang^3
#
#
#
# Elastic Constant Matrix: (Units=GPa)
#
#
# Indices 1 2 3 4 5 6 
#
# 1 123.5370 24.6998 71.0857 0.0000 0.0001 0.0001
# 2 24.6998 63.3962 30.6629 0.0001 0.0000 -0.0003
# 3 71.0857 30.6629 151.8554 0.0014 -0.0005 -0.0001
# 4 0.0000 0.0001 0.0014 3.5667 -0.0003 0.0001
# 5 0.0001 0.0000 -0.0005 -0.0003 25.5674 -0.0001
# 6 0.0001 -0.0003 -0.0001 0.0001 -0.0001 15.8785
#
#
#
# Elastic Compliance Matrix: (Units=1/GPa)
#
#
# Indices 1 2 3 4 5 6 
#
# 1 0.011314 -0.002046 -0.004883 0.000002 0.000000 0.000000
# 2 -0.002046 0.017851 -0.002647 0.000001 0.000000 0.000000
# 3 -0.004883 -0.002647 0.009405 -0.000004 0.000000 0.000000
# 4 0.000002 0.000001 -0.000004 0.280374 0.000003 -0.000002
# 5 0.000000 0.000000 0.000000 0.000003 0.039112 0.000000
# 6 0.000000 0.000000 0.000000 -0.000002 0.000000 0.062978
#
#
# Mechanical properties :
#
#
# Convention : Reuss Voigt Hill
#
# Bulk Modulus (GPa) = 51.49700 65.74283 58.61991
# Shear Modulus (GPa) = 11.19421 23.15852 17.17637
#
# Velocity S-wave (km/s) = 2.34001 3.36571 2.89859
# Velocity P-wave (km/s) = 5.70006 6.87476 6.31478
#
# Compressibility (1/GPa) = 0.01941861
#
# Stress axis : x y z
#
# Youngs Moduli (GPa) = 88.38958 56.01879 106.32215
#
# Poissons Ratio (x) = 0.11462 0.51916
# Poissons Ratio (y) = 0.18086 0.28140
# Poissons Ratio (z) = 0.43159 0.14826
#
# Static dielectric constant tensor:
#      x y z
#    x 3.861450 0.000000 0.000000 
#    y 0.000000 3.480840 0.000000 
#    z 0.000000 0.000000 4.011250 
# 
# 
# High freq. dielectric constant tensor:
#      x y z
#    x 1.803860 0.000000 0.000000 
#    y 0.000000 1.780670 0.000000 
#    z 0.000000 0.000000 1.819860 
# 
# From -- ./inp_files/19637.got.cif
#   From: 2010.03.12/outbox.cif.g09.slc.cpg/sg70_10_cif.got.tgz:19637.got - 2010.04.16 13:46:32.
