data_PCOD8286017
_publ_section_title
;
Structure prediction by ZEFSAII (Michael W. Deem and Ramdas Pophale) SiO2 
 PCOD8286017
Probable space group: F D D D
;
_chemical_formula_sum "Si O2"
_cell_formula_units_Z 216
_cell_length_a 28.186128
_cell_length_b 20.167349
_cell_length_c 19.302346
_cell_angle_alpha 90.000000
_cell_angle_beta 90.000000
_cell_angle_gamma 90.000000
_cell_volume 10972.215529
_symmetry_space_group_name_H-M "F D D D"
_symmetry_group_IT_number 70
_space_group.IT_coordinate_system_code '2'
_symmetry_cell_setting 'orthorhombic'
loop_
_space_group_symop_operation_xyz
x,y,z
1/4-x,1/4-y,z
x,1/4-y,1/4-z
1/4-x,y,1/4-z
-x,-y,-z
3/4+x,3/4+y,-z
-x,3/4+y,3/4+z
3/4+x,-y,3/4+z
x,1/2+y,1/2+z
1/4-x,3/4-y,1/2+z
x,3/4-y,3/4-z
1/4-x,1/2+y,3/4-z
-x,1/2-y,1/2-z
3/4+x,1/4+y,1/2-z
-x,1/4+y,1/4+z
3/4+x,1/2-y,1/4+z
1/2+x,y,1/2+z
3/4-x,1/4-y,1/2+z
1/2+x,1/4-y,3/4-z
3/4-x,y,3/4-z
1/2-x,-y,1/2-z
1/4+x,3/4+y,1/2-z
1/2-x,3/4+y,1/4+z
1/4+x,-y,1/4+z
1/2+x,1/2+y,z
3/4-x,3/4-y,z
1/2+x,3/4-y,1/4-z
3/4-x,1/2+y,1/4-z
1/2-x,1/2-y,-z
1/4+x,1/4+y,-z
1/2-x,1/4+y,3/4+z
1/4+x,1/2-y,3/4+z
loop_
_atom_site_type_symbol
_atom_site_label
_atom_site_fract_x
_atom_site_fract_y
_atom_site_fract_z
Si Si1 0.903076 0.223180 0.570384
Si Si2 0.449357 0.978578 0.415895
Si Si3 0.834372 0.094440 0.926811
Si Si4 0.000566 0.576666 0.983062
Si Si5 0.223208 0.375000 0.375000
Si Si6 0.322204 0.359809 0.633344
Si Si7 0.625000 0.125000 0.625000
Si Si8 0.699021 0.751431 0.929913
O O1 0.896771 0.181888 0.500097
O O2 0.939127 0.188848 0.623194
O O3 0.924040 0.298101 0.561928
O O4 0.850183 0.224221 0.604843
O O5 0.411081 0.919028 0.420741
O O6 0.446417 0.016307 0.488463
O O7 0.437290 0.028453 0.355265
O O8 0.504797 0.958920 0.401123
O O9 0.875000 0.122621 0.875000
O O10 0.796251 0.152442 0.939425
O O11 0.004388 0.618551 0.055120
O O12 0.000000 0.500000 0.000000
O O13 0.046149 0.591690 0.937569
O O14 0.375000 0.375000 0.608493
O O15 0.295617 0.421718 0.669215
#
# Coordination Sequence:
#
# PCOD8286017 Si02
#       8
#    32  32  32  32  16  32   8  32
#     4  10  20  36  62  87 120 163 212 252 319 379
#     4  11  22  35  54  88 125 167 197 249 303 378
#     4  11  21  39  63  92 127 168 204 259 319 389
#     4  11  22  43  66  91 124 162 220 267 324 383
#     4  10  22  37  67  86 112 165 211 266 316 378
#     4  10  21  37  63  91 120 167 204 266 321 383
#     4  12  24  34  56  84 128 168 206 236 308 384
#     4  10  21  36  56  85 124 157 204 251 309 377
#
# _framework density 19.686088000000002
#
# number of rings (size 3 to 8) (size 9 to 14) (size 15 to 20)
#    0.000    1.481    5.185    0.000    5.185    0.593 
#    0.000    1.852    6.519    0.000    0.000    0.000 
#    0.000    0.000    0.000    0.000    0.000    0.000 
#
# Total GULP energy -669107.254543 kJ/mol
# GULP energy per Si atom -12390.875084 kJ/mol
# Density = 1.964128 g / cm^3
# Si number density = 19.686088 Si / 1000 Ang^3
#
#
#
# Elastic Constant Matrix: (Units=GPa)
#
#
# Indices 1 2 3 4 5 6 
#
# 1 119.3536 46.9180 24.5353 0.0000 0.0000 0.0000
# 2 46.9180 91.2046 14.6367 0.0000 0.0000 0.0000
# 3 24.5353 14.6367 64.2490 0.0000 0.0000 0.0000
# 4 0.0000 0.0000 0.0000 24.1247 0.0000 0.0000
# 5 0.0000 0.0000 0.0000 0.0000 26.0834 0.0000
# 6 0.0000 0.0000 0.0000 0.0000 0.0000 36.2703
#
#
#
# Elastic Compliance Matrix: (Units=1/GPa)
#
#
# Indices 1 2 3 4 5 6 
#
# 1 0.011044 -0.005194 -0.003034 0.000000 0.000000 0.000000
# 2 -0.005194 0.013824 -0.001166 0.000000 0.000000 0.000000
# 3 -0.003034 -0.001166 0.016989 0.000000 0.000000 0.000000
# 4 0.000000 0.000000 0.000000 0.041451 0.000000 0.000000
# 5 0.000000 0.000000 0.000000 0.000000 0.038339 0.000000
# 6 0.000000 0.000000 0.000000 0.000000 0.000000 0.027571
#
#
# Mechanical properties :
#
#
# Convention : Reuss Voigt Hill
#
# Bulk Modulus (GPa) = 43.34998 49.66525 46.50762
# Shear Modulus (GPa) = 28.45846 29.87682 29.16764
#
# Velocity S-wave (km/s) = 3.80625 3.89994 3.85338
# Velocity P-wave (km/s) = 6.43313 6.75002 6.59348
#
# Compressibility (1/GPa) = 0.02306806
#
# Stress axis : x y z
#
# Youngs Moduli (GPa) = 90.54582 72.34019 58.86288
#
# Poissons Ratio (x) = 0.37577 0.17860
# Poissons Ratio (y) = 0.47034 0.06861
# Poissons Ratio (z) = 0.27473 0.08431
#
# Static dielectric constant tensor:
#      x y z
#    x 3.975680 0.000000 0.000000 
#    y 0.000000 3.606550 0.000000 
#    z 0.000000 0.000000 3.513000 
# 
# 
# High freq. dielectric constant tensor:
#      x y z
#    x 1.777460 0.000000 0.000000 
#    y 0.000000 1.755170 0.000000 
#    z 0.000000 0.000000 1.754530 
# 
# From -- ./inp_files/45257.got.cif
#   From: 2010.03.12/outbox.cif.g09.slc.cpg/sg70_23_cif.got.tgz:45257.got - 2010.04.16 13:46:32.
