data_PCOD8286552
_publ_section_title
;
Structure prediction by ZEFSAII (Michael W. Deem and Ramdas Pophale) SiO2 
 PCOD8286552
Probable space group: F D D D
;
_chemical_formula_sum "Si O2"
_cell_formula_units_Z 104
_cell_length_a 18.165186
_cell_length_b 30.518146
_cell_length_c 9.104565
_cell_angle_alpha 90.000000
_cell_angle_beta 90.000000
_cell_angle_gamma 90.000000
_cell_volume 5047.277655
_symmetry_space_group_name_H-M "F D D D"
_symmetry_group_IT_number 70
_space_group.IT_coordinate_system_code '2'
_symmetry_cell_setting 'orthorhombic'
loop_
_space_group_symop_operation_xyz
x,y,z
1/4-x,1/4-y,z
x,1/4-y,1/4-z
1/4-x,y,1/4-z
-x,-y,-z
3/4+x,3/4+y,-z
-x,3/4+y,3/4+z
3/4+x,-y,3/4+z
x,1/2+y,1/2+z
1/4-x,3/4-y,1/2+z
x,3/4-y,3/4-z
1/4-x,1/2+y,3/4-z
-x,1/2-y,1/2-z
3/4+x,1/4+y,1/2-z
-x,1/4+y,1/4+z
3/4+x,1/2-y,1/4+z
1/2+x,y,1/2+z
3/4-x,1/4-y,1/2+z
1/2+x,1/4-y,3/4-z
3/4-x,y,3/4-z
1/2-x,-y,1/2-z
1/4+x,3/4+y,1/2-z
1/2-x,3/4+y,1/4+z
1/4+x,-y,1/4+z
1/2+x,1/2+y,z
3/4-x,3/4-y,z
1/2+x,3/4-y,1/4-z
3/4-x,1/2+y,1/4-z
1/2-x,1/2-y,-z
1/4+x,1/4+y,-z
1/2-x,1/4+y,3/4+z
1/4+x,1/2-y,3/4+z
loop_
_atom_site_type_symbol
_atom_site_label
_atom_site_fract_x
_atom_site_fract_y
_atom_site_fract_z
Si Si1 0.671292 0.333623 0.770772
Si Si2 0.875000 0.375000 0.375000
Si Si3 0.417137 0.416155 0.154022
Si Si4 0.586315 0.254466 0.274321
O O1 0.625000 0.341566 0.625000
O O2 0.755964 0.326057 0.731057
O O3 0.643545 0.290291 0.853176
O O4 0.661106 0.375000 0.875000
O O5 0.823321 0.405476 0.270799
O O6 0.375000 0.375000 0.229356
O O7 0.366412 0.458226 0.171812
O O8 0.500000 0.250000 0.250000
O O9 0.625000 0.269821 0.125000
#
# Coordination Sequence:
#
# PCOD8286552 Si02
#       4
#    32   8  32  32
#     4  12  28  45  71 104 145 189 240 299 361 426
#     4   8  24  40  78 100 140 180 248 276 356 440
#     4  10  24  45  73  98 145 191 229 292 365 430
#     4  12  25  45  73 106 139 185 243 295 356 433
#
# _framework density 20.605167000000002
#
# number of rings (size 3 to 8) (size 9 to 14) (size 15 to 20)
#    0.923    0.000    3.077    2.769    4.308    3.692 
#    0.000    0.000    0.000    0.000    0.000    0.000 
#    0.000    0.000    0.000    0.000    0.000    0.000 
#
# Total GULP energy -322391.037530 kJ/mol
# GULP energy per Si atom -12399.655290 kJ/mol
# Density = 2.055827 g / cm^3
# Si number density = 20.605167 Si / 1000 Ang^3
#
#
#
# Elastic Constant Matrix: (Units=GPa)
#
#
# Indices 1 2 3 4 5 6 
#
# 1 129.3799 66.7637 60.9762 -0.0001 0.0000 0.0000
# 2 66.7637 192.9039 76.2832 0.0000 0.0000 0.0000
# 3 60.9762 76.2832 158.9408 -0.0002 0.0000 0.0000
# 4 -0.0001 0.0000 -0.0002 86.0420 0.0001 0.0000
# 5 0.0000 0.0000 0.0000 0.0001 38.8862 0.0000
# 6 0.0000 0.0000 0.0000 0.0000 0.0000 33.3039
#
#
#
# Elastic Compliance Matrix: (Units=1/GPa)
#
#
# Indices 1 2 3 4 5 6 
#
# 1 0.010310 -0.002474 -0.002768 0.000000 0.000000 0.000000
# 2 -0.002474 0.006992 -0.002407 0.000000 0.000000 0.000000
# 3 -0.002768 -0.002407 0.008509 0.000000 0.000000 0.000000
# 4 0.000000 0.000000 0.000000 0.011622 0.000000 0.000000
# 5 0.000000 0.000000 0.000000 0.000000 0.025716 0.000000
# 6 0.000000 0.000000 0.000000 0.000000 0.000000 0.030026
#
#
# Mechanical properties :
#
#
# Convention : Reuss Voigt Hill
#
# Bulk Modulus (GPa) = 95.11444 98.80787 96.96115
# Shear Modulus (GPa) = 44.65189 50.12653 47.38921
#
# Velocity S-wave (km/s) = 4.66018 4.93761 4.80090
# Velocity P-wave (km/s) = 8.67278 8.97573 8.82555
#
# Compressibility (1/GPa) = 0.01051365
#
# Stress axis : x y z
#
# Youngs Moduli (GPa) = 96.99013 143.02507 117.52641
#
# Poissons Ratio (x) = 0.35380 0.32534
# Poissons Ratio (y) = 0.23992 0.28285
# Poissons Ratio (z) = 0.26849 0.34421
#
# Static dielectric constant tensor:
#      x y z
#    x 3.646890 0.000000 0.000000 
#    y 0.000000 3.872810 0.000000 
#    z 0.000000 0.000000 3.970910 
# 
# 
# High freq. dielectric constant tensor:
#      x y z
#    x 1.802720 0.000000 0.000000 
#    y 0.000000 1.819420 0.000000 
#    z 0.000000 0.000000 1.823450 
# 
# From -- ./inp_files/8196.got.cif
#   From: 2010.03.12/outbox.cif.g09.slc.cpg/sg70_5_cif.got.tgz:8196.got - 2010.04.16 13:46:32.
