data_PCOD8286515
_publ_section_title
;
Structure prediction by ZEFSAII (Michael W. Deem and Ramdas Pophale) SiO2 
 PCOD8286515
Probable space group: F D D D
;
_chemical_formula_sum "Si O2"
_cell_formula_units_Z 160
_cell_length_a 17.608058
_cell_length_b 19.289268
_cell_length_c 20.703212
_cell_angle_alpha 90.000000
_cell_angle_beta 90.000000
_cell_angle_gamma 90.000000
_cell_volume 7031.774524
_symmetry_space_group_name_H-M "F D D D"
_symmetry_group_IT_number 70
_space_group.IT_coordinate_system_code '2'
_symmetry_cell_setting 'orthorhombic'
loop_
_space_group_symop_operation_xyz
x,y,z
1/4-x,1/4-y,z
x,1/4-y,1/4-z
1/4-x,y,1/4-z
-x,-y,-z
3/4+x,3/4+y,-z
-x,3/4+y,3/4+z
3/4+x,-y,3/4+z
x,1/2+y,1/2+z
1/4-x,3/4-y,1/2+z
x,3/4-y,3/4-z
1/4-x,1/2+y,3/4-z
-x,1/2-y,1/2-z
3/4+x,1/4+y,1/2-z
-x,1/4+y,1/4+z
3/4+x,1/2-y,1/4+z
1/2+x,y,1/2+z
3/4-x,1/4-y,1/2+z
1/2+x,1/4-y,3/4-z
3/4-x,y,3/4-z
1/2-x,-y,1/2-z
1/4+x,3/4+y,1/2-z
1/2-x,3/4+y,1/4+z
1/4+x,-y,1/4+z
1/2+x,1/2+y,z
3/4-x,3/4-y,z
1/2+x,3/4-y,1/4-z
3/4-x,1/2+y,1/4-z
1/2-x,1/2-y,-z
1/4+x,1/4+y,-z
1/2-x,1/4+y,3/4+z
1/4+x,1/2-y,3/4+z
loop_
_atom_site_type_symbol
_atom_site_label
_atom_site_fract_x
_atom_site_fract_y
_atom_site_fract_z
Si Si1 0.709147 0.012949 0.151219
Si Si2 0.962679 0.515517 0.228599
Si Si3 0.707806 0.643160 0.474915
Si Si4 0.425652 0.509638 0.937892
Si Si5 0.539813 0.612032 0.983692
O O1 0.625000 0.996984 0.125000
O O2 0.743953 0.942576 0.179121
O O3 0.767393 0.036041 0.094969
O O4 0.703001 0.073863 0.203474
O O5 0.873443 0.521377 0.246064
O O6 0.995504 0.438415 0.245142
O O7 0.002538 0.569088 0.275911
O O8 0.625000 0.625000 0.447246
O O9 0.375000 0.508224 0.875000
O O10 0.488919 0.569744 0.931588
O O11 0.461234 0.432789 0.949530
O O12 0.625000 0.625000 0.956080
#
# Coordination Sequence:
#
# PCOD8286515 Si02
#       5
#    32  32  32  32  32
#     4  11  25  46  70 101 152 189 241 310 369 444
#     4  11  24  39  71 104 138 186 240 302 357 438
#     4  11  25  45  72 103 142 194 241 297 380 439
#     4  10  23  45  71  99 143 194 236 295 372 437
#     4   9  22  44  68 100 140 179 238 301 354 422
#
# _framework density 22.753858999999999
#
# number of rings (size 3 to 8) (size 9 to 14) (size 15 to 20)
#    0.000    1.600    2.000    0.600    5.600    6.000 
#    3.600    0.000   13.200    0.000    0.000    0.000 
#    0.000    0.000    0.000    0.000    0.000    0.000 
#
# Total GULP energy -495729.119004 kJ/mol
# GULP energy per Si atom -12393.227975 kJ/mol
# Density = 2.270207 g / cm^3
# Si number density = 22.753859 Si / 1000 Ang^3
#
#
#
# Elastic Constant Matrix: (Units=GPa)
#
#
# Indices 1 2 3 4 5 6 
#
# 1 91.6108 43.3645 42.6442 0.0000 0.0000 0.0000
# 2 43.3645 146.5413 8.1253 0.0000 0.0000 0.0000
# 3 42.6442 8.1253 83.2743 0.0000 0.0000 0.0000
# 4 0.0000 0.0000 0.0000 4.9298 0.0000 0.0000
# 5 0.0000 0.0000 0.0000 0.0000 46.3653 0.0000
# 6 0.0000 0.0000 0.0000 0.0000 0.0000 43.6529
#
#
#
# Elastic Compliance Matrix: (Units=1/GPa)
#
#
# Indices 1 2 3 4 5 6 
#
# 1 0.016884 -0.004541 -0.008203 0.000000 0.000000 0.000000
# 2 -0.004541 0.008083 0.001537 0.000000 0.000000 0.000000
# 3 -0.008203 0.001537 0.016059 0.000000 0.000000 0.000000
# 4 0.000000 0.000000 0.000000 0.202849 0.000000 0.000000
# 5 0.000000 0.000000 0.000000 0.000000 0.021568 0.000000
# 6 0.000000 0.000000 0.000000 0.000000 0.000000 0.022908
#
#
# Mechanical properties :
#
#
# Convention : Reuss Voigt Hill
#
# Bulk Modulus (GPa) = 53.73191 56.63272 55.18232
# Shear Modulus (GPa) = 15.77439 34.14242 24.95840
#
# Velocity S-wave (km/s) = 2.63584 3.87785 3.31552
# Velocity P-wave (km/s) = 5.73840 6.70772 6.24191
#
# Compressibility (1/GPa) = 0.01861091
#
# Stress axis : x y z
#
# Youngs Moduli (GPa) = 59.22794 123.72102 62.26941
#
# Poissons Ratio (x) = 0.56187 0.51080
# Poissons Ratio (y) = 0.26898 -0.09571
# Poissons Ratio (z) = 0.48585 -0.19016
#
# Static dielectric constant tensor:
#      x y z
#    x 4.268890 0.000000 0.000000 
#    y 0.000000 4.428650 0.000000 
#    z 0.000000 0.000000 3.953260 
# 
# 
# High freq. dielectric constant tensor:
#      x y z
#    x 1.897220 0.000000 0.000000 
#    y 0.000000 1.920270 0.000000 
#    z 0.000000 0.000000 1.877510 
# 
# From -- ./inp_files/43641.got.cif
#   From: 2010.03.12/outbox.cif.g09.slc.cpg/sg70_22_cif.got.tgz:43641.got - 2010.04.16 13:46:32.
