data_PCOD8286752
_publ_section_title
;
Structure prediction by ZEFSAII (Michael W. Deem and Ramdas Pophale) SiO2 
 PCOD8286752
Probable space group: F D D D
;
_chemical_formula_sum "Si O2"
_cell_formula_units_Z 112
_cell_length_a 25.624842
_cell_length_b 10.835786
_cell_length_c 17.669246
_cell_angle_alpha 90.000000
_cell_angle_beta 90.000000
_cell_angle_gamma 90.000000
_cell_volume 4906.136566
_symmetry_space_group_name_H-M "F D D D"
_symmetry_group_IT_number 70
_space_group.IT_coordinate_system_code '2'
_symmetry_cell_setting 'orthorhombic'
loop_
_space_group_symop_operation_xyz
x,y,z
1/4-x,1/4-y,z
x,1/4-y,1/4-z
1/4-x,y,1/4-z
-x,-y,-z
3/4+x,3/4+y,-z
-x,3/4+y,3/4+z
3/4+x,-y,3/4+z
x,1/2+y,1/2+z
1/4-x,3/4-y,1/2+z
x,3/4-y,3/4-z
1/4-x,1/2+y,3/4-z
-x,1/2-y,1/2-z
3/4+x,1/4+y,1/2-z
-x,1/4+y,1/4+z
3/4+x,1/2-y,1/4+z
1/2+x,y,1/2+z
3/4-x,1/4-y,1/2+z
1/2+x,1/4-y,3/4-z
3/4-x,y,3/4-z
1/2-x,-y,1/2-z
1/4+x,3/4+y,1/2-z
1/2-x,3/4+y,1/4+z
1/4+x,-y,1/4+z
1/2+x,1/2+y,z
3/4-x,3/4-y,z
1/2+x,3/4-y,1/4-z
3/4-x,1/2+y,1/4-z
1/2-x,1/2-y,-z
1/4+x,1/4+y,-z
1/2-x,1/4+y,3/4+z
1/4+x,1/2-y,3/4+z
loop_
_atom_site_type_symbol
_atom_site_label
_atom_site_fract_x
_atom_site_fract_y
_atom_site_fract_z
Si Si1 0.797282 0.075729 0.042669
Si Si2 0.793007 0.027491 0.563347
Si Si3 0.629223 0.771481 0.541527
Si Si4 0.125000 0.125000 0.344280
O O1 0.777676 0.125000 0.125000
O O2 0.847299 0.983263 0.046431
O O3 0.815715 0.195917 0.996526
O O4 0.752471 0.018392 0.991404
O O5 0.771195 0.125000 0.625000
O O6 0.833810 0.090159 0.505981
O O7 0.826358 0.921618 0.605158
O O8 0.625000 0.625000 0.542148
O O9 0.625000 0.827022 0.625000
#
# Coordination Sequence:
#
# PCOD8286752 Si02
#       4
#    32  32  32  16
#     4  12  27  46  78 110 149 202 251 314 386 453
#     4  12  26  47  74 110 153 198 247 317 387 453
#     4  11  24  45  71 107 146 186 251 313 367 456
#     4  12  24  50  76 102 154 190 252 310 374 456
#
# _framework density 22.828552999999999
#
# number of rings (size 3 to 8) (size 9 to 14) (size 15 to 20)
#    0.000    0.286    7.143    0.000    8.000    5.714 
#    0.000    0.000    0.000    0.000    0.000    0.000 
#    0.000    0.000    0.000    0.000    0.000    0.000 
#
# Total GULP energy -346895.649984 kJ/mol
# GULP energy per Si atom -12389.130357 kJ/mol
# Density = 2.277659 g / cm^3
# Si number density = 22.828553 Si / 1000 Ang^3
#
#
#
# Elastic Constant Matrix: (Units=GPa)
#
#
# Indices 1 2 3 4 5 6 
#
# 1 113.4593 36.8520 66.0584 0.0000 0.0000 0.0000
# 2 36.8520 77.2875 51.4772 0.0000 0.0000 0.0000
# 3 66.0584 51.4772 182.5280 0.0000 0.0000 0.0000
# 4 0.0000 0.0000 0.0000 31.9394 0.0000 0.0000
# 5 0.0000 0.0000 0.0000 0.0000 92.0820 0.0000
# 6 0.0000 0.0000 0.0000 0.0000 0.0000 28.0897
#
#
#
# Elastic Compliance Matrix: (Units=1/GPa)
#
#
# Indices 1 2 3 4 5 6 
#
# 1 0.011868 -0.003445 -0.003323 0.000000 0.000000 0.000000
# 2 -0.003445 0.016931 -0.003528 0.000000 0.000000 0.000000
# 3 -0.003323 -0.003528 0.007676 0.000000 0.000000 0.000000
# 4 0.000000 0.000000 0.000000 0.031309 0.000000 0.000000
# 5 0.000000 0.000000 0.000000 0.000000 0.010860 0.000000
# 6 0.000000 0.000000 0.000000 0.000000 0.000000 0.035600
#
#
# Mechanical properties :
#
#
# Convention : Reuss Voigt Hill
#
# Bulk Modulus (GPa) = 62.96467 75.78333 69.37400
# Shear Modulus (GPa) = 35.68053 45.01471 40.34762
#
# Velocity S-wave (km/s) = 3.95774 4.44538 4.20863
# Velocity P-wave (km/s) = 6.96609 7.72123 7.35336
#
# Compressibility (1/GPa) = 0.01588192
#
# Stress axis : x y z
#
# Youngs Moduli (GPa) = 84.26245 59.06194 130.26924
#
# Poissons Ratio (x) = 0.20348 0.43294
# Poissons Ratio (y) = 0.29030 0.45962
# Poissons Ratio (z) = 0.28004 0.20838
#
# Static dielectric constant tensor:
#      x y z
#    x 6.277750 0.000000 0.000000 
#    y 0.000000 3.919060 0.000000 
#    z 0.000000 0.000000 4.765990 
# 
# 
# High freq. dielectric constant tensor:
#      x y z
#    x 1.899380 0.000000 0.000000 
#    y 0.000000 1.892370 0.000000 
#    z 0.000000 0.000000 1.920590 
# 
# From -- ./inp_files/16509.got.cif
#   From: 2010.03.12/outbox.cif.g09.slc.cpg/sg70_9_cif.got.tgz:16509.got - 2010.04.16 13:46:32.
