data_PCOD8286579
_publ_section_title
;
Structure prediction by ZEFSAII (Michael W. Deem and Ramdas Pophale) SiO2 
 PCOD8286579
Probable space group: F D D D
;
_chemical_formula_sum "Si O2"
_cell_formula_units_Z 120
_cell_length_a 22.893274
_cell_length_b 18.226647
_cell_length_c 13.841279
_cell_angle_alpha 90.000000
_cell_angle_beta 90.000000
_cell_angle_gamma 90.000000
_cell_volume 5775.517600
_symmetry_space_group_name_H-M "F D D D"
_symmetry_group_IT_number 70
_space_group.IT_coordinate_system_code '2'
_symmetry_cell_setting 'orthorhombic'
loop_
_space_group_symop_operation_xyz
x,y,z
1/4-x,1/4-y,z
x,1/4-y,1/4-z
1/4-x,y,1/4-z
-x,-y,-z
3/4+x,3/4+y,-z
-x,3/4+y,3/4+z
3/4+x,-y,3/4+z
x,1/2+y,1/2+z
1/4-x,3/4-y,1/2+z
x,3/4-y,3/4-z
1/4-x,1/2+y,3/4-z
-x,1/2-y,1/2-z
3/4+x,1/4+y,1/2-z
-x,1/4+y,1/4+z
3/4+x,1/2-y,1/4+z
1/2+x,y,1/2+z
3/4-x,1/4-y,1/2+z
1/2+x,1/4-y,3/4-z
3/4-x,y,3/4-z
1/2-x,-y,1/2-z
1/4+x,3/4+y,1/2-z
1/2-x,3/4+y,1/4+z
1/4+x,-y,1/4+z
1/2+x,1/2+y,z
3/4-x,3/4-y,z
1/2+x,3/4-y,1/4-z
3/4-x,1/2+y,1/4-z
1/2-x,1/2-y,-z
1/4+x,1/4+y,-z
1/2-x,1/4+y,3/4+z
1/4+x,1/2-y,3/4+z
loop_
_atom_site_type_symbol
_atom_site_label
_atom_site_fract_x
_atom_site_fract_y
_atom_site_fract_z
Si Si1 0.669006 0.689907 0.304801
Si Si2 0.298728 0.589833 0.418060
Si Si3 0.844536 0.005411 0.253684
Si Si4 0.125000 0.471372 0.625000
Si Si5 0.375000 0.375000 0.375000
O O1 0.625000 0.625000 0.332353
O O2 0.733743 0.657495 0.290935
O O3 0.668731 0.750256 0.390255
O O4 0.651900 0.726792 0.205478
O O5 0.339045 0.534572 0.480789
O O6 0.299987 0.562258 0.305699
O O7 0.324287 0.671913 0.422530
O O8 0.835966 0.926150 0.304755
#
# Coordination Sequence:
#
# PCOD8286579 Si02
#       5
#    32  32  32  16   8
#     4  12  24  40  66  96 122 178 214 257 328 384
#     4   9  23  42  65  93 130 162 212 273 318 383
#     4   9  19  39  64  99 121 161 212 262 332 371
#     4  10  26  46  58  96 134 170 220 260 318 396
#     4   8  14  32  60  88 128 136 198 268 296 370
#
# _framework density 20.777359000000001
#
# number of rings (size 3 to 8) (size 9 to 14) (size 15 to 20)
#    0.000    2.667    1.333    1.200    3.733    5.333 
#    4.800    2.667    0.000    0.000    0.000    0.000 
#    0.000    0.000    0.000    0.000    0.000    0.000 
#
# Total GULP energy -371959.163681 kJ/mol
# GULP energy per Si atom -12398.638789 kJ/mol
# Density = 2.073007 g / cm^3
# Si number density = 20.777359 Si / 1000 Ang^3
#
#
#
# Elastic Constant Matrix: (Units=GPa)
#
#
# Indices 1 2 3 4 5 6 
#
# 1 148.6774 50.9748 50.3184 0.0000 0.0000 0.0000
# 2 50.9748 68.4014 21.6458 0.0000 0.0000 0.0000
# 3 50.3184 21.6458 105.1646 0.0000 0.0000 0.0000
# 4 0.0000 0.0000 0.0000 17.2984 0.0000 0.0000
# 5 0.0000 0.0000 0.0000 0.0000 17.2776 0.0000
# 6 0.0000 0.0000 0.0000 0.0000 0.0000 18.0931
#
#
#
# Elastic Compliance Matrix: (Units=1/GPa)
#
#
# Indices 1 2 3 4 5 6 
#
# 1 0.010121 -0.006429 -0.003520 0.000000 0.000000 0.000000
# 2 -0.006429 0.019722 -0.000983 0.000000 0.000000 0.000000
# 3 -0.003520 -0.000983 0.011395 0.000000 0.000000 0.000000
# 4 0.000000 0.000000 0.000000 0.057809 0.000000 0.000000
# 5 0.000000 0.000000 0.000000 0.000000 0.057878 0.000000
# 6 0.000000 0.000000 0.000000 0.000000 0.000000 0.055270
#
#
# Mechanical properties :
#
#
# Convention : Reuss Voigt Hill
#
# Bulk Modulus (GPa) = 51.61290 63.12462 57.36876
# Shear Modulus (GPa) = 20.78856 23.82078 22.30467
#
# Velocity S-wave (km/s) = 3.16656 3.38964 3.28000
# Velocity P-wave (km/s) = 6.18582 6.76513 6.48195
#
# Compressibility (1/GPa) = 0.01937500
#
# Stress axis : x y z
#
# Youngs Moduli (GPa) = 98.80135 50.70536 87.75570
#
# Poissons Ratio (x) = 0.32598 0.30886
# Poissons Ratio (y) = 0.63519 0.08628
# Poissons Ratio (z) = 0.34773 0.04985
#
# Static dielectric constant tensor:
#      x y z
#    x 3.587020 0.000000 0.000000 
#    y 0.000000 3.770580 0.000000 
#    z 0.000000 0.000000 3.648570 
# 
# 
# High freq. dielectric constant tensor:
#      x y z
#    x 1.801300 0.000000 0.000000 
#    y 0.000000 1.811820 0.000000 
#    z 0.000000 0.000000 1.805020 
# 
# From -- ./inp_files/28451.got.cif
#   From: 2010.03.12/outbox.cif.g09.slc.cpg/sg70_15_cif.got.tgz:28451.got - 2010.04.16 13:46:32.
