data_PCOD8286770
_publ_section_title
;
Structure prediction by ZEFSAII (Michael W. Deem and Ramdas Pophale) SiO2 
 PCOD8286770
Probable space group: F D D D
;
_chemical_formula_sum "Si O2"
_cell_formula_units_Z 192
_cell_length_a 16.987642
_cell_length_b 29.491723
_cell_length_c 17.357388
_cell_angle_alpha 90.000000
_cell_angle_beta 90.000000
_cell_angle_gamma 90.000000
_cell_volume 8695.961690
_symmetry_space_group_name_H-M "F D D D"
_symmetry_group_IT_number 70
_space_group.IT_coordinate_system_code '2'
_symmetry_cell_setting 'orthorhombic'
loop_
_space_group_symop_operation_xyz
x,y,z
1/4-x,1/4-y,z
x,1/4-y,1/4-z
1/4-x,y,1/4-z
-x,-y,-z
3/4+x,3/4+y,-z
-x,3/4+y,3/4+z
3/4+x,-y,3/4+z
x,1/2+y,1/2+z
1/4-x,3/4-y,1/2+z
x,3/4-y,3/4-z
1/4-x,1/2+y,3/4-z
-x,1/2-y,1/2-z
3/4+x,1/4+y,1/2-z
-x,1/4+y,1/4+z
3/4+x,1/2-y,1/4+z
1/2+x,y,1/2+z
3/4-x,1/4-y,1/2+z
1/2+x,1/4-y,3/4-z
3/4-x,y,3/4-z
1/2-x,-y,1/2-z
1/4+x,3/4+y,1/2-z
1/2-x,3/4+y,1/4+z
1/4+x,-y,1/4+z
1/2+x,1/2+y,z
3/4-x,3/4-y,z
1/2+x,3/4-y,1/4-z
3/4-x,1/2+y,1/4-z
1/2-x,1/2-y,-z
1/4+x,1/4+y,-z
1/2-x,1/4+y,3/4+z
1/4+x,1/2-y,3/4+z
loop_
_atom_site_type_symbol
_atom_site_label
_atom_site_fract_x
_atom_site_fract_y
_atom_site_fract_z
Si Si1 0.915732 0.593613 0.008753
Si Si2 0.299414 0.125000 0.125000
Si Si3 0.702656 0.541647 0.166757
Si Si4 0.332512 0.467795 0.666031
Si Si5 0.482771 0.529999 0.641399
Si Si6 0.125000 0.967186 0.625000
Si Si7 0.946794 0.405807 0.728255
O O1 0.854502 0.627774 0.049322
O O2 0.957732 0.564111 0.074570
O O3 0.864743 0.563125 0.951047
O O4 0.979865 0.622451 0.960899
O O5 0.244662 0.081627 0.121097
O O6 0.625000 0.526204 0.125000
O O7 0.678467 0.557667 0.252656
O O8 0.755778 0.497894 0.158615
O O9 0.409023 0.500000 0.668540
O O10 0.334757 0.430677 0.598381
O O11 0.547898 0.496409 0.608000
O O12 0.524334 0.557199 0.710450
O O13 0.875000 0.375000 0.760882
#
# Coordination Sequence:
#
# PCOD8286770 Si02
#       7
#    32  16  32  32  32  16  32
#     4  12  25  46  67 103 140 184 226 295 359 417
#     4  12  25  46  67 100 146 178 230 295 360 426
#     4  11  25  45  72 101 135 194 234 291 364 425
#     4  11  25  45  73 103 144 182 246 298 347 428
#     4  12  23  49  70 102 140 189 235 292 355 435
#     4  12  28  40  77  98 136 184 244 283 354 424
#     4  12  25  43  71 106 144 185 236 295 357 423
#
# _framework density 22.079214
#
# number of rings (size 3 to 8) (size 9 to 14) (size 15 to 20)
#    0.000    0.333    3.333    4.750    4.667    3.333 
#    0.000    0.000    0.000    0.000    0.000    0.000 
#    0.000    0.000    0.000    0.000    0.000    0.000 
#
# Total GULP energy -595333.947216 kJ/mol
# GULP energy per Si atom -12402.790567 kJ/mol
# Density = 2.202896 g / cm^3
# Si number density = 22.079214 Si / 1000 Ang^3
#
#
#
# Elastic Constant Matrix: (Units=GPa)
#
#
# Indices 1 2 3 4 5 6 
#
# 1 139.9102 37.2904 33.9062 0.0000 0.0000 0.0000
# 2 37.2904 77.4189 27.9307 0.0000 0.0000 0.0000
# 3 33.9062 27.9307 88.0771 0.0000 0.0000 0.0000
# 4 0.0000 0.0000 0.0000 38.8446 0.0000 0.0000
# 5 0.0000 0.0000 0.0000 0.0000 -1.8360 0.0000
# 6 0.0000 0.0000 0.0000 0.0000 0.0000 6.9566
#
#
#
# Elastic Compliance Matrix: (Units=1/GPa)
#
#
# Indices 1 2 3 4 5 6 
#
# 1 0.008577 -0.003320 -0.002249 0.000000 0.000000 0.000000
# 2 -0.003320 0.015871 -0.003755 0.000000 0.000000 0.000000
# 3 -0.002249 -0.003755 0.013410 0.000000 0.000000 0.000000
# 4 0.000000 0.000000 0.000000 0.025744 0.000000 0.000000
# 5 0.000000 0.000000 0.000000 0.000000 -0.544666 0.000000
# 6 0.000000 0.000000 0.000000 0.000000 0.000000 0.143748
#
#
# Mechanical properties :
#
#
# Convention : Reuss Voigt Hill
#
# Bulk Modulus (GPa) = 52.05530 55.96231 54.00880
# Shear Modulus (GPa) = -16.01201 22.54497 3.26648
#
# Velocity S-wave (km/s) = -2.69589 3.19892 1.21764
# Velocity P-wave (km/s) = 3.73328 6.24863 5.14697
#
# Compressibility (1/GPa) = 0.01921034
#
# Stress axis : x y z
#
# Youngs Moduli (GPa) = 116.58551 63.00989 74.57018
#
# Poissons Ratio (x) = 0.20920 0.16772
# Poissons Ratio (y) = 0.38707 0.27999
# Poissons Ratio (z) = 0.26221 0.23658
#
# Static dielectric constant tensor:
#      x y z
#    x 4.232690 0.000000 0.000000 
#    y 0.000000 4.487900 0.000000 
#    z 0.000000 0.000000 4.064840 
# 
# 
# High freq. dielectric constant tensor:
#      x y z
#    x 1.889200 0.000000 0.000000 
#    y 0.000000 1.875560 0.000000 
#    z 0.000000 0.000000 1.867800 
# 
# From -- ./inp_files/35536.got.cif
#   From: 2010.03.12/outbox.cif.g09.slc.cpg/sg70_18_cif.got.tgz:35536.got - 2010.04.16 13:46:32.
