data_PCOD8286774
_publ_section_title
;
Structure prediction by ZEFSAII (Michael W. Deem and Ramdas Pophale) SiO2 
 PCOD8286774
Probable space group: F D D D
;
_chemical_formula_sum "Si O2"
_cell_formula_units_Z 192
_cell_length_a 24.674656
_cell_length_b 27.181219
_cell_length_c 12.023120
_cell_angle_alpha 90.000000
_cell_angle_beta 90.000000
_cell_angle_gamma 90.000000
_cell_volume 8063.753031
_symmetry_space_group_name_H-M "F D D D"
_symmetry_group_IT_number 70
_space_group.IT_coordinate_system_code '2'
_symmetry_cell_setting 'orthorhombic'
loop_
_space_group_symop_operation_xyz
x,y,z
1/4-x,1/4-y,z
x,1/4-y,1/4-z
1/4-x,y,1/4-z
-x,-y,-z
3/4+x,3/4+y,-z
-x,3/4+y,3/4+z
3/4+x,-y,3/4+z
x,1/2+y,1/2+z
1/4-x,3/4-y,1/2+z
x,3/4-y,3/4-z
1/4-x,1/2+y,3/4-z
-x,1/2-y,1/2-z
3/4+x,1/4+y,1/2-z
-x,1/4+y,1/4+z
3/4+x,1/2-y,1/4+z
1/2+x,y,1/2+z
3/4-x,1/4-y,1/2+z
1/2+x,1/4-y,3/4-z
3/4-x,y,3/4-z
1/2-x,-y,1/2-z
1/4+x,3/4+y,1/2-z
1/2-x,3/4+y,1/4+z
1/4+x,-y,1/4+z
1/2+x,1/2+y,z
3/4-x,3/4-y,z
1/2+x,3/4-y,1/4-z
3/4-x,1/2+y,1/4-z
1/2-x,1/2-y,-z
1/4+x,1/4+y,-z
1/2-x,1/4+y,3/4+z
1/4+x,1/2-y,3/4+z
loop_
_atom_site_type_symbol
_atom_site_label
_atom_site_fract_x
_atom_site_fract_y
_atom_site_fract_z
Si Si1 0.574328 0.059937 0.794536
Si Si2 0.098686 0.038657 0.771155
Si Si3 0.335126 0.554497 0.223218
Si Si4 0.231279 0.288100 0.267577
Si Si5 0.420068 0.125000 0.625000
Si Si6 0.375000 0.375000 0.875000
Si Si7 0.625000 0.125000 0.125000
Si Si8 0.472390 0.618262 0.359920
O O1 0.632212 0.057775 0.858411
O O2 0.582218 0.092833 0.689240
O O3 0.527239 0.085792 0.868146
O O4 0.560510 0.006066 0.747626
O O5 0.089240 0.087901 0.698004
O O6 0.039992 0.013647 0.758986
O O7 0.146141 0.000090 0.736066
O O8 0.382361 0.577358 0.145649
O O9 0.324733 0.585134 0.334951
O O10 0.280356 0.553845 0.146548
O O11 0.224623 0.332228 0.181330
O O12 0.457148 0.132947 0.733912
#
# Coordination Sequence:
#
# PCOD8286774 Si02
#       8
#    32  32  32  32  16   8   8  32
#     4  11  27  47  74 107 148 204 250 316 383 450
#     4  11  27  45  70 109 149 192 251 310 387 451
#     4  11  26  46  72 108 152 194 247 317 381 450
#     4  11  25  46  76 110 148 199 255 317 381 463
#     4  12  25  43  74 107 149 204 242 324 388 426
#     4  12  24  52  72  96 154 200 254 310 368 464
#     4  12  26  38  72 100 146 200 226 306 376 460
#     4  12  25  47  74 110 151 195 257 312 376 467
#
# _framework density 23.810254
#
# number of rings (size 3 to 8) (size 9 to 14) (size 15 to 20)
#    0.000    0.667    1.667    4.500    9.333    4.000 
#    0.000    5.000    0.000    0.000    0.000    0.000 
#    0.000    0.000    0.000    0.000    0.000    0.000 
#
# Total GULP energy -594923.278892 kJ/mol
# GULP energy per Si atom -12394.234977 kJ/mol
# Density = 2.375606 g / cm^3
# Si number density = 23.810254 Si / 1000 Ang^3
#
#
#
# Elastic Constant Matrix: (Units=GPa)
#
#
# Indices 1 2 3 4 5 6 
#
# 1 112.6598 26.6117 48.4071 0.0000 0.0000 0.0000
# 2 26.6117 142.9139 53.7963 0.0000 0.0000 0.0000
# 3 48.4071 53.7963 130.2194 0.0001 -0.0001 -0.0001
# 4 0.0000 0.0000 0.0001 41.2818 -0.0001 0.0000
# 5 0.0000 0.0000 -0.0001 -0.0001 40.2085 0.0000
# 6 0.0000 0.0000 -0.0001 0.0000 0.0000 17.2014
#
#
#
# Elastic Compliance Matrix: (Units=1/GPa)
#
#
# Indices 1 2 3 4 5 6 
#
# 1 0.010604 -0.000581 -0.003702 0.000000 0.000000 0.000000
# 2 -0.000581 0.008318 -0.003220 0.000000 0.000000 0.000000
# 3 -0.003702 -0.003220 0.010386 0.000000 0.000000 0.000000
# 4 0.000000 0.000000 0.000000 0.024224 0.000000 0.000000
# 5 0.000000 0.000000 0.000000 0.000000 0.024870 0.000000
# 6 0.000000 0.000000 0.000000 0.000000 0.000000 0.058135
#
#
# Mechanical properties :
#
#
# Convention : Reuss Voigt Hill
#
# Bulk Modulus (GPa) = 69.92390 71.49147 70.70768
# Shear Modulus (GPa) = 31.98778 36.87020 34.42899
#
# Velocity S-wave (km/s) = 3.66928 3.93937 3.80672
# Velocity P-wave (km/s) = 6.88349 7.12616 7.00587
#
# Compressibility (1/GPa) = 0.01430126
#
# Stress axis : x y z
#
# Youngs Moduli (GPa) = 94.30273 120.22750 96.28563
#
# Poissons Ratio (x) = 0.06986 0.35644
# Poissons Ratio (y) = 0.05480 0.31005
# Poissons Ratio (z) = 0.34910 0.38715
#
# Static dielectric constant tensor:
#      x y z
#    x 3.875200 0.000000 0.000000 
#    y 0.000000 4.421680 0.000000 
#    z 0.000000 0.000000 4.322920 
# 
# 
# High freq. dielectric constant tensor:
#      x y z
#    x 1.941380 0.000000 0.000000 
#    y 0.000000 1.961300 0.000000 
#    z 0.000000 0.000000 1.940950 
# 
# From -- ./inp_files/21260.got.cif
#   From: 2010.03.12/outbox.cif.g09.slc.cpg/sg70_11_cif.got.tgz:21260.got - 2010.04.16 13:46:32.
