data_PCOD8286627
_publ_section_title
;
Structure prediction by ZEFSAII (Michael W. Deem and Ramdas Pophale) SiO2 
 PCOD8286627
Probable space group: F D D D
;
_chemical_formula_sum "Si O2"
_cell_formula_units_Z 208
_cell_length_a 16.914275
_cell_length_b 23.322249
_cell_length_c 25.011173
_cell_angle_alpha 90.000000
_cell_angle_beta 90.000000
_cell_angle_gamma 90.000000
_cell_volume 9866.380843
_symmetry_space_group_name_H-M "F D D D"
_symmetry_group_IT_number 70
_space_group.IT_coordinate_system_code '2'
_symmetry_cell_setting 'orthorhombic'
loop_
_space_group_symop_operation_xyz
x,y,z
1/4-x,1/4-y,z
x,1/4-y,1/4-z
1/4-x,y,1/4-z
-x,-y,-z
3/4+x,3/4+y,-z
-x,3/4+y,3/4+z
3/4+x,-y,3/4+z
x,1/2+y,1/2+z
1/4-x,3/4-y,1/2+z
x,3/4-y,3/4-z
1/4-x,1/2+y,3/4-z
-x,1/2-y,1/2-z
3/4+x,1/4+y,1/2-z
-x,1/4+y,1/4+z
3/4+x,1/2-y,1/4+z
1/2+x,y,1/2+z
3/4-x,1/4-y,1/2+z
1/2+x,1/4-y,3/4-z
3/4-x,y,3/4-z
1/2-x,-y,1/2-z
1/4+x,3/4+y,1/2-z
1/2-x,3/4+y,1/4+z
1/4+x,-y,1/4+z
1/2+x,1/2+y,z
3/4-x,3/4-y,z
1/2+x,3/4-y,1/4-z
3/4-x,1/2+y,1/4-z
1/2-x,1/2-y,-z
1/4+x,1/4+y,-z
1/2-x,1/4+y,3/4+z
1/4+x,1/2-y,3/4+z
loop_
_atom_site_type_symbol
_atom_site_label
_atom_site_fract_x
_atom_site_fract_y
_atom_site_fract_z
Si Si1 0.052430 0.356384 0.588513
Si Si2 0.791311 0.003559 0.095088
Si Si3 0.450655 0.114179 0.718443
Si Si4 0.047294 0.702734 0.880971
Si Si5 0.289726 0.777963 0.448741
Si Si6 0.962022 0.002227 0.777642
Si Si7 0.922726 0.625000 0.125000
O O1 0.125000 0.375266 0.625000
O O2 0.078640 0.375551 0.529139
O O3 0.034690 0.288461 0.596491
O O4 0.973082 0.392452 0.602582
O O5 0.860382 0.968053 0.125356
O O6 0.775728 0.065681 0.123310
O O7 0.810769 0.017389 0.033221
O O8 0.524918 0.154057 0.702754
O O9 0.478131 0.049824 0.717631
O O10 0.378851 0.124809 0.678451
O O11 0.001610 0.755908 0.854673
O O12 0.012777 0.698330 0.941841
O O13 0.250000 0.750000 0.500000
O O14 0.381230 0.763421 0.442862
#
# Coordination Sequence:
#
# PCOD8286627 Si02
#       7
#    32  32  32  32  32  32  16
#     4  11  25  41  65  93 128 169 219 270 324 382
#     4  11  24  43  64  90 131 169 214 271 328 384
#     4  11  21  38  61  88 128 167 211 254 322 389
#     4  12  22  37  63  95 130 168 212 256 317 395
#     4  12  19  32  54  93 131 169 201 247 310 381
#     4  11  22  36  59  91 131 169 208 252 319 393
#     4  12  22  42  66  92 124 170 212 268 322 384
#
# _framework density 21.081692
#
# number of rings (size 3 to 8) (size 9 to 14) (size 15 to 20)
#    0.000    0.615    6.154    2.308    2.154    2.462 
#    0.000    3.462    0.000    0.000    0.000    0.000 
#    0.000    0.000    0.000    0.000    0.000    0.000 
#
# Total GULP energy -644556.537508 kJ/mol
# GULP energy per Si atom -12395.318029 kJ/mol
# Density = 2.103371 g / cm^3
# Si number density = 21.081692 Si / 1000 Ang^3
#
#
#
# Elastic Constant Matrix: (Units=GPa)
#
#
# Indices 1 2 3 4 5 6 
#
# 1 37.3219 2.6505 27.2958 0.0000 0.0000 0.0000
# 2 2.6505 107.8974 25.2056 0.0000 0.0000 0.0000
# 3 27.2958 25.2056 78.0805 0.0000 0.0000 0.0000
# 4 0.0000 0.0000 0.0000 32.6399 0.0000 0.0000
# 5 0.0000 0.0000 0.0000 0.0000 29.8673 0.0000
# 6 0.0000 0.0000 0.0000 0.0000 0.0000 19.6447
#
#
#
# Elastic Compliance Matrix: (Units=1/GPa)
#
#
# Indices 1 2 3 4 5 6 
#
# 1 0.036497 0.002254 -0.013487 0.000000 0.000000 0.000000
# 2 0.002254 0.010163 -0.004069 0.000000 0.000000 0.000000
# 3 -0.013487 -0.004069 0.018835 0.000000 0.000000 0.000000
# 4 0.000000 0.000000 0.000000 0.030637 0.000000 0.000000
# 5 0.000000 0.000000 0.000000 0.000000 0.033481 0.000000
# 6 0.000000 0.000000 0.000000 0.000000 0.000000 0.050904
#
#
# Mechanical properties :
#
#
# Convention : Reuss Voigt Hill
#
# Bulk Modulus (GPa) = 28.65875 37.06705 32.86290
# Shear Modulus (GPa) = 22.44637 27.64025 25.04331
#
# Velocity S-wave (km/s) = 3.26656 3.62484 3.45036
# Velocity P-wave (km/s) = 5.27740 5.92791 5.61208
#
# Compressibility (1/GPa) = 0.03489336
#
# Stress axis : x y z
#
# Youngs Moduli (GPa) = 27.39914 98.39426 53.09128
#
# Poissons Ratio (x) = -0.22178 0.71602
# Poissons Ratio (y) = -0.06176 0.21602
# Poissons Ratio (z) = 0.36952 0.40035
#
# Static dielectric constant tensor:
#      x y z
#    x 3.500160 0.000000 0.000000 
#    y 0.000000 4.011050 0.000000 
#    z 0.000000 0.000000 4.213000 
# 
# 
# High freq. dielectric constant tensor:
#      x y z
#    x 1.789070 0.000000 0.000000 
#    y 0.000000 1.832680 0.000000 
#    z 0.000000 0.000000 1.829910 
# 
# From -- ./inp_files/59720.got.cif
#   From: 2010.03.12/outbox.cif.g09.slc.cpg/sg70_30_cif.got.tgz:59720.got - 2010.04.16 13:46:32.
