data_PCOD8286696
_publ_section_title
;
Structure prediction by ZEFSAII (Michael W. Deem and Ramdas Pophale) SiO2 
 PCOD8286696
Probable space group: F D D D
;
_chemical_formula_sum "Si O2"
_cell_formula_units_Z 160
_cell_length_a 18.343929
_cell_length_b 23.602954
_cell_length_c 16.442161
_cell_angle_alpha 90.000000
_cell_angle_beta 90.000000
_cell_angle_gamma 90.000000
_cell_volume 7118.977449
_symmetry_space_group_name_H-M "F D D D"
_symmetry_group_IT_number 70
_space_group.IT_coordinate_system_code '2'
_symmetry_cell_setting 'orthorhombic'
loop_
_space_group_symop_operation_xyz
x,y,z
1/4-x,1/4-y,z
x,1/4-y,1/4-z
1/4-x,y,1/4-z
-x,-y,-z
3/4+x,3/4+y,-z
-x,3/4+y,3/4+z
3/4+x,-y,3/4+z
x,1/2+y,1/2+z
1/4-x,3/4-y,1/2+z
x,3/4-y,3/4-z
1/4-x,1/2+y,3/4-z
-x,1/2-y,1/2-z
3/4+x,1/4+y,1/2-z
-x,1/4+y,1/4+z
3/4+x,1/2-y,1/4+z
1/2+x,y,1/2+z
3/4-x,1/4-y,1/2+z
1/2+x,1/4-y,3/4-z
3/4-x,y,3/4-z
1/2-x,-y,1/2-z
1/4+x,3/4+y,1/2-z
1/2-x,3/4+y,1/4+z
1/4+x,-y,1/4+z
1/2+x,1/2+y,z
3/4-x,3/4-y,z
1/2+x,3/4-y,1/4-z
3/4-x,1/2+y,1/4-z
1/2-x,1/2-y,-z
1/4+x,1/4+y,-z
1/2-x,1/4+y,3/4+z
1/4+x,1/2-y,3/4+z
loop_
_atom_site_type_symbol
_atom_site_label
_atom_site_fract_x
_atom_site_fract_y
_atom_site_fract_z
Si Si1 0.798557 0.849760 0.285211
Si Si2 0.677021 0.271769 0.456644
Si Si3 0.158606 0.069668 0.035288
Si Si4 0.644500 0.875479 0.533305
Si Si5 0.188999 0.975770 0.478779
O O1 0.785209 0.875000 0.375000
O O2 0.875000 0.875000 0.250624
O O3 0.731048 0.867771 0.228812
O O4 0.801053 0.781088 0.285480
O O5 0.750000 0.250000 0.500000
O O6 0.609575 0.238677 0.493098
O O7 0.656260 0.337161 0.472629
O O8 0.676303 0.254539 0.362942
O O9 0.125000 0.125000 0.990331
O O10 0.125000 0.069015 0.125000
O O11 0.245305 0.069937 0.028579
O O12 0.625000 0.893048 0.625000
O O13 0.627831 0.809550 0.516173
#
# Coordination Sequence:
#
# PCOD8286696 Si02
#       5
#    32  32  32  32  32
#     4  11  27  52  77 104 149 200 259 314 368 445
#     4  12  22  41  71 104 151 187 241 312 379 455
#     4  11  23  41  66 105 152 188 236 301 387 465
#     4  12  27  47  74 109 153 194 254 313 381 452
#     4  12  26  43  75 108 141 197 250 308 384 443
#
# _framework density 22.475137
#
# number of rings (size 3 to 8) (size 9 to 14) (size 15 to 20)
#    0.000    0.400    4.000    4.800    5.600    3.200 
#    0.000    0.000    0.000    0.000    0.000    0.000 
#    0.000    0.000    0.000    0.000    0.000    0.000 
#
# Total GULP energy -495867.623183 kJ/mol
# GULP energy per Si atom -12396.690580 kJ/mol
# Density = 2.242398 g / cm^3
# Si number density = 22.475137 Si / 1000 Ang^3
#
#
#
# Elastic Constant Matrix: (Units=GPa)
#
#
# Indices 1 2 3 4 5 6 
#
# 1 157.1023 53.1312 25.7030 0.0000 0.0000 0.0000
# 2 53.1312 149.8754 38.2791 0.0000 0.0000 0.0000
# 3 25.7030 38.2791 103.1544 0.0000 0.0000 0.0000
# 4 0.0000 0.0000 0.0000 32.4743 0.0000 0.0000
# 5 0.0000 0.0000 0.0000 0.0000 28.2636 0.0000
# 6 0.0000 0.0000 0.0000 0.0000 0.0000 54.9687
#
#
#
# Elastic Compliance Matrix: (Units=1/GPa)
#
#
# Indices 1 2 3 4 5 6 
#
# 1 0.007316 -0.002351 -0.000951 0.000000 0.000000 0.000000
# 2 -0.002351 0.008126 -0.002430 0.000000 0.000000 0.000000
# 3 -0.000951 -0.002430 0.010833 0.000000 0.000000 0.000000
# 4 0.000000 0.000000 0.000000 0.030794 0.000000 0.000000
# 5 0.000000 0.000000 0.000000 0.000000 0.035381 0.000000
# 6 0.000000 0.000000 0.000000 0.000000 0.000000 0.018192
#
#
# Mechanical properties :
#
#
# Convention : Reuss Voigt Hill
#
# Bulk Modulus (GPa) = 67.51021 71.59542 69.55282
# Shear Modulus (GPa) = 39.35735 42.67591 41.01663
#
# Velocity S-wave (km/s) = 4.18921 4.36226 4.27661
# Velocity P-wave (km/s) = 7.31453 7.56947 7.44309
#
# Compressibility (1/GPa) = 0.01481257
#
# Stress axis : x y z
#
# Youngs Moduli (GPa) = 136.69066 123.06013 92.31299
#
# Poissons Ratio (x) = 0.28928 0.08775
# Poissons Ratio (y) = 0.32132 0.22430
# Poissons Ratio (z) = 0.12993 0.29901
#
# Static dielectric constant tensor:
#      x y z
#    x 4.221560 0.000000 0.000000 
#    y 0.000000 4.321530 0.000000 
#    z 0.000000 0.000000 3.873690 
# 
# 
# High freq. dielectric constant tensor:
#      x y z
#    x 1.897060 0.000000 0.000000 
#    y 0.000000 1.901060 0.000000 
#    z 0.000000 0.000000 1.871450 
# 
# From -- ./inp_files/35138.got.cif
#   From: 2010.03.12/outbox.cif.g09.slc.cpg/sg70_18_cif.got.tgz:35138.got - 2010.04.16 13:46:32.
