data_PCOD8286273
_publ_section_title
;
Structure prediction by ZEFSAII (Michael W. Deem and Ramdas Pophale) SiO2 
 PCOD8286273
Probable space group: F D D D
;
_chemical_formula_sum "Si O2"
_cell_formula_units_Z 176
_cell_length_a 22.866646
_cell_length_b 15.178862
_cell_length_c 24.198584
_cell_angle_alpha 90.000000
_cell_angle_beta 90.000000
_cell_angle_gamma 90.000000
_cell_volume 8399.078391
_symmetry_space_group_name_H-M "F D D D"
_symmetry_group_IT_number 70
_space_group.IT_coordinate_system_code '2'
_symmetry_cell_setting 'orthorhombic'
loop_
_space_group_symop_operation_xyz
x,y,z
1/4-x,1/4-y,z
x,1/4-y,1/4-z
1/4-x,y,1/4-z
-x,-y,-z
3/4+x,3/4+y,-z
-x,3/4+y,3/4+z
3/4+x,-y,3/4+z
x,1/2+y,1/2+z
1/4-x,3/4-y,1/2+z
x,3/4-y,3/4-z
1/4-x,1/2+y,3/4-z
-x,1/2-y,1/2-z
3/4+x,1/4+y,1/2-z
-x,1/4+y,1/4+z
3/4+x,1/2-y,1/4+z
1/2+x,y,1/2+z
3/4-x,1/4-y,1/2+z
1/2+x,1/4-y,3/4-z
3/4-x,y,3/4-z
1/2-x,-y,1/2-z
1/4+x,3/4+y,1/2-z
1/2-x,3/4+y,1/4+z
1/4+x,-y,1/4+z
1/2+x,1/2+y,z
3/4-x,3/4-y,z
1/2+x,3/4-y,1/4-z
3/4-x,1/2+y,1/4-z
1/2-x,1/2-y,-z
1/4+x,1/4+y,-z
1/2-x,1/4+y,3/4+z
1/4+x,1/2-y,3/4+z
loop_
_atom_site_type_symbol
_atom_site_label
_atom_site_fract_x
_atom_site_fract_y
_atom_site_fract_z
Si Si1 0.884376 0.517689 0.469199
Si Si2 0.154072 0.363560 0.812268
Si Si3 0.875000 0.160069 0.875000
Si Si4 0.223516 0.538594 0.163346
Si Si5 0.209962 0.635123 0.687148
Si Si6 0.082078 0.546677 0.968635
O O1 0.885843 0.547029 0.532559
O O2 0.888337 0.599516 0.427677
O O3 0.823347 0.467981 0.462542
O O4 0.941243 0.455862 0.465249
O O5 0.133122 0.375000 0.875000
O O6 0.222447 0.344632 0.807578
O O7 0.123215 0.287652 0.777434
O O8 0.930546 0.222945 0.868056
O O9 0.236076 0.625000 0.125000
O O10 0.195592 0.570494 0.221690
O O11 0.281482 0.479695 0.174743
O O12 0.188428 0.625000 0.625000
O O13 0.125000 0.625000 0.947595
#
# Coordination Sequence:
#
# PCOD8286273 Si02
#       6
#    32  32  16  32  32  32
#     4  11  21  41  66 102 126 177 223 276 332 408
#     4  11  25  43  64  95 141 178 215 275 346 410
#     4  12  21  39  72  98 126 170 238 279 333 400
#     4  11  25  44  69  99 136 180 232 290 338 410
#     4  10  21  40  70  97 137 166 221 282 342 403
#     4  11  25  44  68  99 135 181 229 283 350 411
#
# _framework density 20.95468
#
# number of rings (size 3 to 8) (size 9 to 14) (size 15 to 20)
#    0.000    1.091    3.636    3.000    2.545    0.000 
#    6.545    0.000    0.000    0.000    0.000    0.000 
#    0.000    0.000    0.000    0.000    0.000    0.000 
#
# Total GULP energy -545492.307368 kJ/mol
# GULP energy per Si atom -12397.552440 kJ/mol
# Density = 2.090699 g / cm^3
# Si number density = 20.954680 Si / 1000 Ang^3
#
#
#
# Elastic Constant Matrix: (Units=GPa)
#
#
# Indices 1 2 3 4 5 6 
#
# 1 117.4063 42.6543 42.0355 0.0000 0.0000 0.0000
# 2 42.6543 105.8052 56.3566 0.0000 0.0000 0.0000
# 3 42.0355 56.3566 132.1444 0.0000 0.0000 0.0000
# 4 0.0000 0.0000 0.0000 28.7581 0.0000 0.0000
# 5 0.0000 0.0000 0.0000 0.0000 28.2831 0.0000
# 6 0.0000 0.0000 0.0000 0.0000 0.0000 123.1824
#
#
#
# Elastic Compliance Matrix: (Units=1/GPa)
#
#
# Indices 1 2 3 4 5 6 
#
# 1 0.010357 -0.003132 -0.001959 0.000000 0.000000 0.000000
# 2 -0.003132 0.013176 -0.004623 0.000000 0.000000 0.000000
# 3 -0.001959 -0.004623 0.010162 0.000000 0.000000 0.000000
# 4 0.000000 0.000000 0.000000 0.034773 0.000000 0.000000
# 5 0.000000 0.000000 0.000000 0.000000 0.035357 0.000000
# 6 0.000000 0.000000 0.000000 0.000000 0.000000 0.008118
#
#
# Mechanical properties :
#
#
# Convention : Reuss Voigt Hill
#
# Bulk Modulus (GPa) = 70.08878 70.82762 70.45820
# Shear Modulus (GPa) = 36.73058 50.33203 43.53130
#
# Velocity S-wave (km/s) = 4.19126 4.90628 4.56280
# Velocity P-wave (km/s) = 7.54603 8.12215 7.83938
#
# Compressibility (1/GPa) = 0.01426762
#
# Stress axis : x y z
#
# Youngs Moduli (GPa) = 96.55729 75.89318 98.40313
#
# Poissons Ratio (x) = 0.23768 0.19275
# Poissons Ratio (y) = 0.30240 0.45494
# Poissons Ratio (z) = 0.18914 0.35087
#
# Static dielectric constant tensor:
#      x y z
#    x 3.917730 0.000000 0.000000 
#    y 0.000000 3.863440 0.000000 
#    z 0.000000 0.000000 3.805180 
# 
# 
# High freq. dielectric constant tensor:
#      x y z
#    x 1.834580 0.000000 0.000000 
#    y 0.000000 1.827620 0.000000 
#    z 0.000000 0.000000 1.819250 
# 
# From -- ./inp_files/53631.got.cif
#   From: 2010.03.12/outbox.cif.g09.slc.cpg/sg70_27_cif.got.tgz:53631.got - 2010.04.16 13:46:32.
