data_PCOD8286582
_publ_section_title
;
Structure prediction by ZEFSAII (Michael W. Deem and Ramdas Pophale) SiO2 
 PCOD8286582
Probable space group: F D D D
;
_chemical_formula_sum "Si O2"
_cell_formula_units_Z 176
_cell_length_a 27.325630
_cell_length_b 13.241713
_cell_length_c 22.520539
_cell_angle_alpha 90.000000
_cell_angle_beta 90.000000
_cell_angle_gamma 90.000000
_cell_volume 8148.790169
_symmetry_space_group_name_H-M "F D D D"
_symmetry_group_IT_number 70
_space_group.IT_coordinate_system_code '2'
_symmetry_cell_setting 'orthorhombic'
loop_
_space_group_symop_operation_xyz
x,y,z
1/4-x,1/4-y,z
x,1/4-y,1/4-z
1/4-x,y,1/4-z
-x,-y,-z
3/4+x,3/4+y,-z
-x,3/4+y,3/4+z
3/4+x,-y,3/4+z
x,1/2+y,1/2+z
1/4-x,3/4-y,1/2+z
x,3/4-y,3/4-z
1/4-x,1/2+y,3/4-z
-x,1/2-y,1/2-z
3/4+x,1/4+y,1/2-z
-x,1/4+y,1/4+z
3/4+x,1/2-y,1/4+z
1/2+x,y,1/2+z
3/4-x,1/4-y,1/2+z
1/2+x,1/4-y,3/4-z
3/4-x,y,3/4-z
1/2-x,-y,1/2-z
1/4+x,3/4+y,1/2-z
1/2-x,3/4+y,1/4+z
1/4+x,-y,1/4+z
1/2+x,1/2+y,z
3/4-x,3/4-y,z
1/2+x,3/4-y,1/4-z
3/4-x,1/2+y,1/4-z
1/2-x,1/2-y,-z
1/4+x,1/4+y,-z
1/2-x,1/4+y,3/4+z
1/4+x,1/2-y,3/4+z
loop_
_atom_site_type_symbol
_atom_site_label
_atom_site_fract_x
_atom_site_fract_y
_atom_site_fract_z
Si Si1 0.625000 0.625000 0.929939
Si Si2 0.881966 0.523043 0.976413
Si Si3 0.331319 0.745363 0.273498
Si Si4 0.775316 0.469991 0.989788
Si Si5 0.811214 0.431874 0.670728
Si Si6 0.755682 0.625000 0.625000
Si Si7 0.625000 0.125000 0.625000
Si Si8 0.875000 0.875000 0.375000
O O1 0.578158 0.617684 0.886711
O O2 0.629649 0.527934 0.972883
O O3 0.911332 0.626628 0.967737
O O4 0.823128 0.541903 0.984812
O O5 0.900652 0.453783 0.921219
O O6 0.894274 0.464104 0.036790
O O7 0.276884 0.775355 0.249305
O O8 0.340357 0.804158 0.334923
O O9 0.779280 0.413871 0.926756
O O10 0.774425 0.388822 0.043074
O O11 0.788485 0.535942 0.649747
#
# Coordination Sequence:
#
# PCOD8286582 Si02
#       8
#    16  32  32  32  32  16   8   8
#     4  11  21  49  68  91 135 185 224 280 328 401
#     4  12  24  43  65 104 137 179 215 281 347 402
#     4  11  26  47  72  94 134 187 226 278 343 398
#     4  12  24  40  68 104 134 174 229 276 339 409
#     4  12  22  43  64  97 142 170 223 277 336 403
#     4  12  25  40  68  98 130 184 219 273 340 409
#     4  10  26  56  64  94 138 174 232 286 332 400
#     4  12  22  40  66  98 144 172 218 282 348 408
#
# _framework density 21.598298
#
# number of rings (size 3 to 8) (size 9 to 14) (size 15 to 20)
#    0.000    0.364    7.273    1.636    0.000    1.455 
#    3.273    1.818    0.000    0.000    0.000    0.000 
#    0.000    0.000    0.000    0.000    0.000    0.000 
#
# Total GULP energy -545140.273998 kJ/mol
# GULP energy per Si atom -12389.551682 kJ/mol
# Density = 2.154914 g / cm^3
# Si number density = 21.598298 Si / 1000 Ang^3
#
#
#
# Elastic Constant Matrix: (Units=GPa)
#
#
# Indices 1 2 3 4 5 6 
#
# 1 105.7113 17.8075 25.6547 0.0000 0.0000 0.0000
# 2 17.8075 73.4257 37.9145 0.0000 0.0000 0.0000
# 3 25.6547 37.9145 147.0855 0.0000 0.0000 0.0000
# 4 0.0000 0.0000 0.0000 -169.7419 0.0000 0.0000
# 5 0.0000 0.0000 0.0000 0.0000 21.7414 0.0000
# 6 0.0000 0.0000 0.0000 0.0000 0.0000 23.2526
#
#
#
# Elastic Compliance Matrix: (Units=1/GPa)
#
#
# Indices 1 2 3 4 5 6 
#
# 1 0.010074 -0.001772 -0.001300 0.000000 0.000000 0.000000
# 2 -0.001772 0.016022 -0.003821 0.000000 0.000000 0.000000
# 3 -0.001300 -0.003821 0.008011 0.000000 0.000000 0.000000
# 4 0.000000 0.000000 0.000000 -0.005891 0.000000 0.000000
# 5 0.000000 0.000000 0.000000 0.000000 0.045995 0.000000
# 6 0.000000 0.000000 0.000000 0.000000 0.000000 0.043006
#
#
# Mechanical properties :
#
#
# Convention : Reuss Voigt Hill
#
# Bulk Modulus (GPa) = 49.21228 54.33066 51.77147
# Shear Modulus (GPa) = 36.29095 -8.62653 13.83221
#
# Velocity S-wave (km/s) = 4.10356 -2.00069 2.53342
# Velocity P-wave (km/s) = 6.72956 4.45788 5.70787
#
# Compressibility (1/GPa) = 0.02032013
#
# Stress axis : x y z
#
# Youngs Moduli (GPa) = 99.26783 62.41453 124.83586
#
# Poissons Ratio (x) = 0.11058 0.16233
# Poissons Ratio (y) = 0.17587 0.47700
# Poissons Ratio (z) = 0.12909 0.23848
#
# Static dielectric constant tensor:
#      x y z
#    x 3.814570 0.000000 0.000000 
#    y 0.000000 3.795500 0.000000 
#    z 0.000000 0.000000 4.379090 
# 
# 
# High freq. dielectric constant tensor:
#      x y z
#    x 1.846220 0.000000 0.000000 
#    y 0.000000 1.827680 0.000000 
#    z 0.000000 0.000000 1.877180 
# 
# From -- ./inp_files/43031.got.cif
#   From: 2010.03.12/outbox.cif.g09.slc.cpg/sg70_22_cif.got.tgz:43031.got - 2010.04.16 13:46:32.
