data_PCOD8286206
_publ_section_title
;
Structure prediction by ZEFSAII (Michael W. Deem and Ramdas Pophale) SiO2 
 PCOD8286206
Probable space group: F D D D
;
_chemical_formula_sum "Si O2"
_cell_formula_units_Z 192
_cell_length_a 30.409374
_cell_length_b 24.150543
_cell_length_c 11.968404
_cell_angle_alpha 90.000000
_cell_angle_beta 90.000000
_cell_angle_gamma 90.000000
_cell_volume 8789.630539
_symmetry_space_group_name_H-M "F D D D"
_symmetry_group_IT_number 70
_space_group.IT_coordinate_system_code '2'
_symmetry_cell_setting 'orthorhombic'
loop_
_space_group_symop_operation_xyz
x,y,z
1/4-x,1/4-y,z
x,1/4-y,1/4-z
1/4-x,y,1/4-z
-x,-y,-z
3/4+x,3/4+y,-z
-x,3/4+y,3/4+z
3/4+x,-y,3/4+z
x,1/2+y,1/2+z
1/4-x,3/4-y,1/2+z
x,3/4-y,3/4-z
1/4-x,1/2+y,3/4-z
-x,1/2-y,1/2-z
3/4+x,1/4+y,1/2-z
-x,1/4+y,1/4+z
3/4+x,1/2-y,1/4+z
1/2+x,y,1/2+z
3/4-x,1/4-y,1/2+z
1/2+x,1/4-y,3/4-z
3/4-x,y,3/4-z
1/2-x,-y,1/2-z
1/4+x,3/4+y,1/2-z
1/2-x,3/4+y,1/4+z
1/4+x,-y,1/4+z
1/2+x,1/2+y,z
3/4-x,3/4-y,z
1/2+x,3/4-y,1/4-z
3/4-x,1/2+y,1/4-z
1/2-x,1/2-y,-z
1/4+x,1/4+y,-z
1/2-x,1/4+y,3/4+z
1/4+x,1/2-y,3/4+z
loop_
_atom_site_type_symbol
_atom_site_label
_atom_site_fract_x
_atom_site_fract_y
_atom_site_fract_z
Si Si1 0.278881 0.484120 0.604326
Si Si2 0.864809 0.042260 0.692538
Si Si3 0.532783 0.176852 0.681258
Si Si4 0.125000 0.706525 0.625000
Si Si5 0.779055 0.437646 0.857739
Si Si6 0.875000 0.133226 0.875000
Si Si7 0.685572 0.791818 0.496752
O O1 0.318447 0.525337 0.637258
O O2 0.278882 0.429373 0.683673
O O3 0.233554 0.515777 0.628336
O O4 0.277991 0.466685 0.477179
O O5 0.859986 0.097238 0.767812
O O6 0.899611 0.051575 0.596593
O O7 0.884318 0.993544 0.766829
O O8 0.507130 0.125000 0.625000
O O9 0.583171 0.168584 0.646476
O O10 0.797490 0.375000 0.875000
O O11 0.731758 0.434679 0.798302
O O12 0.810595 0.476742 0.781957
O O13 0.918117 0.171036 0.849943
#
# Coordination Sequence:
#
# PCOD8286206 Si02
#       7
#    32  32  32  16  32  16  32
#     4  10  23  40  60  90 122 158 209 256 310 379
#     4  10  21  40  63  90 125 161 207 268 318 374
#     4  10  21  37  61  90 123 160 200 255 315 373
#     4   9  19  36  59  88 121 160 205 249 310 388
#     4  11  25  43  62  90 129 170 211 261 319 386
#     4  11  22  40  68  96 124 164 216 273 330 382
#     4  11  24  41  66  95 126 167 217 262 321 393
#
# _framework density 21.843921999999999
#
# number of rings (size 3 to 8) (size 9 to 14) (size 15 to 20)
#    0.000    1.667    0.000    3.750    0.000   12.000 
#    0.000    5.417    0.000    0.000    0.000    0.000 
#    0.000    0.000    0.000    0.000    0.000    0.000 
#
# Total GULP energy -594978.653925 kJ/mol
# GULP energy per Si atom -12395.388623 kJ/mol
# Density = 2.179420 g / cm^3
# Si number density = 21.843922 Si / 1000 Ang^3
#
#
#
# Elastic Constant Matrix: (Units=GPa)
#
#
# Indices 1 2 3 4 5 6 
#
# 1 80.3820 36.3197 49.9944 -0.0001 0.0000 0.0000
# 2 36.3197 130.6924 50.4429 -0.0006 0.0000 0.0000
# 3 49.9944 50.4429 121.1247 -0.0027 0.0004 0.0003
# 4 -0.0001 -0.0006 -0.0027 87.3292 0.0002 0.0003
# 5 0.0000 0.0000 0.0004 0.0002 37.1681 0.0000
# 6 0.0000 0.0000 0.0003 0.0003 0.0000 22.9530
#
#
#
# Elastic Compliance Matrix: (Units=1/GPa)
#
#
# Indices 1 2 3 4 5 6 
#
# 1 0.017374 -0.002455 -0.006149 0.000000 0.000000 0.000000
# 2 -0.002455 0.009464 -0.002928 0.000000 0.000000 0.000000
# 3 -0.006149 -0.002928 0.012013 0.000000 0.000000 0.000000
# 4 0.000000 0.000000 0.000000 0.011451 0.000000 0.000000
# 5 0.000000 0.000000 0.000000 0.000000 0.026905 0.000000
# 6 0.000000 0.000000 0.000000 0.000000 0.000000 0.043567
#
#
# Mechanical properties :
#
#
# Convention : Reuss Voigt Hill
#
# Bulk Modulus (GPa) = 63.34052 67.30147 65.32099
# Shear Modulus (GPa) = 33.53441 42.51954 38.02698
#
# Velocity S-wave (km/s) = 3.92239 4.41672 4.17688
# Velocity P-wave (km/s) = 7.04083 7.54234 7.29590
#
# Compressibility (1/GPa) = 0.01578768
#
# Stress axis : x y z
#
# Youngs Moduli (GPa) = 57.55657 105.66445 83.24153
#
# Poissons Ratio (x) = 0.25942 0.51184
# Poissons Ratio (y) = 0.14131 0.24373
# Poissons Ratio (z) = 0.35390 0.30938
#
# Static dielectric constant tensor:
#      x y z
#    x 4.085820 0.000000 0.000000 
#    y 0.000000 4.117920 0.000000 
#    z 0.000000 0.000000 4.150230 
# 
# 
# High freq. dielectric constant tensor:
#      x y z
#    x 1.851300 0.000000 0.000000 
#    y 0.000000 1.862910 0.000000 
#    z 0.000000 0.000000 1.870950 
# 
# From -- ./inp_files/22480.got.cif
#   From: 2010.03.12/outbox.cif.g09.slc.cpg/sg70_12_cif.got.tgz:22480.got - 2010.04.16 13:46:32.
