data_PCOD8286098
_publ_section_title
;
Structure prediction by ZEFSAII (Michael W. Deem and Ramdas Pophale) SiO2 
 PCOD8286098
Probable space group: F D D D
;
_chemical_formula_sum "Si O2"
_cell_formula_units_Z 160
_cell_length_a 9.174232
_cell_length_b 25.855782
_cell_length_c 31.290423
_cell_angle_alpha 90.000000
_cell_angle_beta 90.000000
_cell_angle_gamma 90.000000
_cell_volume 7422.305573
_symmetry_space_group_name_H-M "F D D D"
_symmetry_group_IT_number 70
_space_group.IT_coordinate_system_code '2'
_symmetry_cell_setting 'orthorhombic'
loop_
_space_group_symop_operation_xyz
x,y,z
1/4-x,1/4-y,z
x,1/4-y,1/4-z
1/4-x,y,1/4-z
-x,-y,-z
3/4+x,3/4+y,-z
-x,3/4+y,3/4+z
3/4+x,-y,3/4+z
x,1/2+y,1/2+z
1/4-x,3/4-y,1/2+z
x,3/4-y,3/4-z
1/4-x,1/2+y,3/4-z
-x,1/2-y,1/2-z
3/4+x,1/4+y,1/2-z
-x,1/4+y,1/4+z
3/4+x,1/2-y,1/4+z
1/2+x,y,1/2+z
3/4-x,1/4-y,1/2+z
1/2+x,1/4-y,3/4-z
3/4-x,y,3/4-z
1/2-x,-y,1/2-z
1/4+x,3/4+y,1/2-z
1/2-x,3/4+y,1/4+z
1/4+x,-y,1/4+z
1/2+x,1/2+y,z
3/4-x,3/4-y,z
1/2+x,3/4-y,1/4-z
3/4-x,1/2+y,1/4-z
1/2-x,1/2-y,-z
1/4+x,1/4+y,-z
1/2-x,1/4+y,3/4+z
1/4+x,1/2-y,3/4+z
loop_
_atom_site_type_symbol
_atom_site_label
_atom_site_fract_x
_atom_site_fract_y
_atom_site_fract_z
Si Si1 0.625000 0.125000 0.125000
Si Si2 0.353551 0.147380 0.767744
Si Si3 0.125000 0.625000 0.625000
Si Si4 0.288957 0.775719 0.128472
Si Si5 0.375000 0.875000 0.175800
Si Si6 0.930053 0.957973 0.532131
Si Si7 0.128919 0.929406 0.326573
O O1 0.726945 0.091678 0.094491
O O2 0.498290 0.152677 0.796585
O O3 0.235817 0.193211 0.771896
O O4 0.284469 0.091768 0.778549
O O5 0.405214 0.156267 0.719899
O O6 0.224834 0.662795 0.598715
O O7 0.301440 0.834206 0.144145
O O8 0.341330 0.769385 0.079643
O O9 0.371932 0.740885 0.164059
O O10 0.125000 0.757357 0.125000
O O11 0.000000 0.000000 0.500000
#
# Coordination Sequence:
#
# PCOD8286098 Si02
#       7
#     8  32   8  32  16  32  32
#     4  10  20  38  70  96 136 184 228 292 348 420
#     4  11  25  45  70 104 143 186 237 299 358 423
#     4  10  26  42  64 108 156 180 224 298 372 422
#     4  12  25  46  74 103 137 195 245 289 360 433
#     4  12  27  46  71 101 152 190 237 299 364 433
#     4  11  25  44  73 104 139 183 246 299 357 432
#     4  11  24  44  71 103 141 186 236 291 356 427
#
# _framework density 21.556643999999999
#
# number of rings (size 3 to 8) (size 9 to 14) (size 15 to 20)
#    0.000    0.800    3.000    4.200    5.600    2.400 
#    0.000    0.000    0.000    0.000    0.000    0.000 
#    0.000    0.000    0.000    0.000    0.000    0.000 
#
# Total GULP energy -495601.869645 kJ/mol
# GULP energy per Si atom -12390.046741 kJ/mol
# Density = 2.150758 g / cm^3
# Si number density = 21.556644 Si / 1000 Ang^3
#
#
#
# Elastic Constant Matrix: (Units=GPa)
#
#
# Indices 1 2 3 4 5 6 
#
# 1 140.0542 29.8525 31.3236 0.0000 0.0000 0.0000
# 2 29.8525 89.4920 22.8690 0.0000 0.0000 0.0000
# 3 31.3236 22.8690 112.0904 0.0000 0.0000 0.0000
# 4 0.0000 0.0000 0.0000 45.1549 0.0000 0.0000
# 5 0.0000 0.0000 0.0000 0.0000 47.4048 0.0000
# 6 0.0000 0.0000 0.0000 0.0000 0.0000 45.0729
#
#
#
# Elastic Compliance Matrix: (Units=1/GPa)
#
#
# Indices 1 2 3 4 5 6 
#
# 1 0.008012 -0.002216 -0.001787 0.000000 0.000000 0.000000
# 2 -0.002216 0.012402 -0.001911 0.000000 0.000000 0.000000
# 3 -0.001787 -0.001911 0.009811 0.000000 0.000000 0.000000
# 4 0.000000 0.000000 0.000000 0.022146 0.000000 0.000000
# 5 0.000000 0.000000 0.000000 0.000000 0.021095 0.000000
# 6 0.000000 0.000000 0.000000 0.000000 0.000000 0.022186
#
#
# Mechanical properties :
#
#
# Convention : Reuss Voigt Hill
#
# Bulk Modulus (GPa) = 54.35756 56.63630 55.49693
# Shear Modulus (GPa) = 44.00963 44.69929 44.35446
#
# Velocity S-wave (km/s) = 4.52329 4.55859 4.54097
# Velocity P-wave (km/s) = 7.24921 7.35105 7.30031
#
# Compressibility (1/GPa) = 0.01839670
#
# Stress axis : x y z
#
# Youngs Moduli (GPa) = 124.81163 80.63386 101.93073
#
# Poissons Ratio (x) = 0.17869 0.18213
# Poissons Ratio (y) = 0.27659 0.19479
# Poissons Ratio (z) = 0.22302 0.15409
#
# Static dielectric constant tensor:
#      x y z
#    x 4.080080 0.000000 0.000000 
#    y 0.000000 3.993740 0.000000 
#    z 0.000000 0.000000 2.889880 
# 
# 
# High freq. dielectric constant tensor:
#      x y z
#    x 1.860210 0.000000 0.000000 
#    y 0.000000 1.846640 0.000000 
#    z 0.000000 0.000000 1.857090 
# 
# From -- ./inp_files/12414.got.cif
#   From: 2010.03.12/outbox.cif.g09.slc.cpg/sg70_7_cif.got.tgz:12414.got - 2010.04.16 13:46:32.
