data_PCOD8286688
_publ_section_title
;
Structure prediction by ZEFSAII (Michael W. Deem and Ramdas Pophale) SiO2 
 PCOD8286688
Probable space group: F D D D
;
_chemical_formula_sum "Si O2"
_cell_formula_units_Z 160
_cell_length_a 14.915750
_cell_length_b 26.618538
_cell_length_c 17.802702
_cell_angle_alpha 90.000000
_cell_angle_beta 90.000000
_cell_angle_gamma 90.000000
_cell_volume 7068.303945
_symmetry_space_group_name_H-M "F D D D"
_symmetry_group_IT_number 70
_space_group.IT_coordinate_system_code '2'
_symmetry_cell_setting 'orthorhombic'
loop_
_space_group_symop_operation_xyz
x,y,z
1/4-x,1/4-y,z
x,1/4-y,1/4-z
1/4-x,y,1/4-z
-x,-y,-z
3/4+x,3/4+y,-z
-x,3/4+y,3/4+z
3/4+x,-y,3/4+z
x,1/2+y,1/2+z
1/4-x,3/4-y,1/2+z
x,3/4-y,3/4-z
1/4-x,1/2+y,3/4-z
-x,1/2-y,1/2-z
3/4+x,1/4+y,1/2-z
-x,1/4+y,1/4+z
3/4+x,1/2-y,1/4+z
1/2+x,y,1/2+z
3/4-x,1/4-y,1/2+z
1/2+x,1/4-y,3/4-z
3/4-x,y,3/4-z
1/2-x,-y,1/2-z
1/4+x,3/4+y,1/2-z
1/2-x,3/4+y,1/4+z
1/4+x,-y,1/4+z
1/2+x,1/2+y,z
3/4-x,3/4-y,z
1/2+x,3/4-y,1/4-z
3/4-x,1/2+y,1/4-z
1/2-x,1/2-y,-z
1/4+x,1/4+y,-z
1/2-x,1/4+y,3/4+z
1/4+x,1/2-y,3/4+z
loop_
_atom_site_type_symbol
_atom_site_label
_atom_site_fract_x
_atom_site_fract_y
_atom_site_fract_z
Si Si1 0.125000 0.625000 0.248453
Si Si2 0.541104 0.351439 0.176108
Si Si3 0.876666 0.172003 0.078058
Si Si4 0.455143 0.987460 0.158744
Si Si5 0.625000 0.548231 0.625000
Si Si6 0.829744 0.926273 0.951266
O O1 0.215021 0.641987 0.296038
O O2 0.162979 0.580905 0.194255
O O3 0.625000 0.372451 0.125000
O O4 0.584650 0.323201 0.245994
O O5 0.473421 0.313365 0.135898
O O6 0.834314 0.125000 0.125000
O O7 0.865411 0.225154 0.120086
O O8 0.979687 0.160358 0.066990
O O9 0.414891 0.971857 0.239387
O O10 0.549884 0.014977 0.164255
O O11 0.875000 0.946009 0.875000
O O12 0.875000 0.875000 0.982115
#
# Coordination Sequence:
#
# PCOD8286688 Si02
#       6
#    16  32  32  32  16  32
#     4  11  26  42  74 106 151 196 242 320 381 458
#     4  12  25  44  71 108 149 195 254 310 386 450
#     4  12  24  48  73 100 147 199 244 316 388 450
#     4  12  25  42  76 107 140 193 253 316 378 455
#     4  11  22  48  70 108 146 184 248 316 389 424
#     4  11  25  50  72 101 151 203 248 306 386 463
#
# _framework density 22.636264000000001
#
# number of rings (size 3 to 8) (size 9 to 14) (size 15 to 20)
#    0.000    0.400    7.000    1.800    4.200    0.800 
#    0.000    4.000    0.000    0.000    0.000    0.000 
#    0.000    0.000    0.000    0.000    0.000    0.000 
#
# Total GULP energy -495659.373944 kJ/mol
# GULP energy per Si atom -12391.484349 kJ/mol
# Density = 2.258474 g / cm^3
# Si number density = 22.636264 Si / 1000 Ang^3
#
#
#
# Elastic Constant Matrix: (Units=GPa)
#
#
# Indices 1 2 3 4 5 6 
#
# 1 141.2094 31.3001 54.2782 0.0000 0.0000 0.0000
# 2 31.3001 63.6239 46.1892 0.0000 0.0000 0.0000
# 3 54.2782 46.1892 147.7620 0.0000 0.0000 0.0000
# 4 0.0000 0.0000 0.0000 30.3883 0.0000 0.0000
# 5 0.0000 0.0000 0.0000 0.0000 46.4010 0.0000
# 6 0.0000 0.0000 0.0000 0.0000 0.0000 36.8932
#
#
#
# Elastic Compliance Matrix: (Units=1/GPa)
#
#
# Indices 1 2 3 4 5 6 
#
# 1 0.008540 -0.002489 -0.002359 0.000000 0.000000 0.000000
# 2 -0.002489 0.021056 -0.005668 0.000000 0.000000 0.000000
# 3 -0.002359 -0.005668 0.009406 0.000000 0.000000 0.000000
# 4 0.000000 0.000000 0.000000 0.032907 0.000000 0.000000
# 5 0.000000 0.000000 0.000000 0.000000 0.021551 0.000000
# 6 0.000000 0.000000 0.000000 0.000000 0.000000 0.027105
#
#
# Mechanical properties :
#
#
# Convention : Reuss Voigt Hill
#
# Bulk Modulus (GPa) = 55.64496 68.45893 62.05194
# Shear Modulus (GPa) = 33.87805 37.45836 35.66820
#
# Velocity S-wave (km/s) = 3.87282 4.07233 3.97383
# Velocity P-wave (km/s) = 6.68086 7.24020 6.96615
#
# Compressibility (1/GPa) = 0.01797108
#
# Stress axis : x y z
#
# Youngs Moduli (GPa) = 117.09423 47.49151 106.31539
#
# Poissons Ratio (x) = 0.11819 0.25081
# Poissons Ratio (y) = 0.29141 0.60258
# Poissons Ratio (z) = 0.27624 0.26918
#
# Static dielectric constant tensor:
#      x y z
#    x 4.241820 0.000000 0.000000 
#    y 0.000000 3.855200 0.000000 
#    z 0.000000 0.000000 8.260460 
# 
# 
# High freq. dielectric constant tensor:
#      x y z
#    x 1.909810 0.000000 0.000000 
#    y 0.000000 1.862260 0.000000 
#    z 0.000000 0.000000 1.904820 
# 
# From -- ./inp_files/33996.got.cif
#   From: 2010.03.12/outbox.cif.g09.slc.cpg/sg70_17_cif.got.tgz:33996.got - 2010.04.16 13:46:32.
