data_PCOD8286612
_publ_section_title
;
Structure prediction by ZEFSAII (Michael W. Deem and Ramdas Pophale) SiO2 
 PCOD8286612
Probable space group: F D D D
;
_chemical_formula_sum "Si O2"
_cell_formula_units_Z 208
_cell_length_a 18.345965
_cell_length_b 18.197450
_cell_length_c 28.474933
_cell_angle_alpha 90.000000
_cell_angle_beta 90.000000
_cell_angle_gamma 90.000000
_cell_volume 9506.350140
_symmetry_space_group_name_H-M "F D D D"
_symmetry_group_IT_number 70
_space_group.IT_coordinate_system_code '2'
_symmetry_cell_setting 'orthorhombic'
loop_
_space_group_symop_operation_xyz
x,y,z
1/4-x,1/4-y,z
x,1/4-y,1/4-z
1/4-x,y,1/4-z
-x,-y,-z
3/4+x,3/4+y,-z
-x,3/4+y,3/4+z
3/4+x,-y,3/4+z
x,1/2+y,1/2+z
1/4-x,3/4-y,1/2+z
x,3/4-y,3/4-z
1/4-x,1/2+y,3/4-z
-x,1/2-y,1/2-z
3/4+x,1/4+y,1/2-z
-x,1/4+y,1/4+z
3/4+x,1/2-y,1/4+z
1/2+x,y,1/2+z
3/4-x,1/4-y,1/2+z
1/2+x,1/4-y,3/4-z
3/4-x,y,3/4-z
1/2-x,-y,1/2-z
1/4+x,3/4+y,1/2-z
1/2-x,3/4+y,1/4+z
1/4+x,-y,1/4+z
1/2+x,1/2+y,z
3/4-x,3/4-y,z
1/2+x,3/4-y,1/4-z
3/4-x,1/2+y,1/4-z
1/2-x,1/2-y,-z
1/4+x,1/4+y,-z
1/2-x,1/4+y,3/4+z
1/4+x,1/2-y,3/4+z
loop_
_atom_site_type_symbol
_atom_site_label
_atom_site_fract_x
_atom_site_fract_y
_atom_site_fract_z
Si Si1 0.375000 0.375000 0.102845
Si Si2 0.913908 0.951672 0.275783
Si Si3 0.300144 0.570333 0.743205
Si Si4 0.811447 0.426591 0.446935
Si Si5 0.727270 0.055753 0.925715
Si Si6 0.928792 0.501029 0.208448
Si Si7 0.861344 0.652662 0.430639
O O1 0.323082 0.322840 0.132153
O O2 0.323388 0.427957 0.072720
O O3 0.875000 0.875000 0.288784
O O4 0.924310 0.960791 0.219867
O O5 0.863684 0.016070 0.296794
O O6 0.994314 0.958407 0.299371
O O7 0.250000 0.500000 0.750000
O O8 0.252822 0.633640 0.721173
O O9 0.362041 0.557761 0.702533
O O10 0.330407 0.600148 0.793266
O O11 0.875000 0.375000 0.424764
O O12 0.775688 0.484024 0.409949
O O13 0.842354 0.478294 0.488037
O O14 0.779385 0.123678 0.939486
O O15 0.875000 0.654075 0.375000
#
# Coordination Sequence:
#
# PCOD8286612 Si02
#       7
#    16  32  32  32  32  32  32
#     4  12  24  46  70 104 132 180 248 296 346 424
#     4  11  24  47  70 101 142 191 236 289 355 424
#     4  12  21  38  71 101 138 185 226 281 359 432
#     4  11  20  40  68  99 133 181 228 271 357 432
#     4  11  24  41  69 102 137 184 231 292 349 417
#     4  11  22  40  71  98 132 185 234 283 353 430
#     4  12  25  42  72 104 137 181 241 288 349 423
#
# _framework density 21.880112
#
# number of rings (size 3 to 8) (size 9 to 14) (size 15 to 20)
#    0.000    0.615    9.231    0.923    2.154    0.923 
#    2.769    0.769    0.000    0.000    0.000    0.000 
#    0.000    0.000    0.000    0.000    0.000    0.000 
#
# Total GULP energy -644540.078430 kJ/mol
# GULP energy per Si atom -12395.001508 kJ/mol
# Density = 2.183031 g / cm^3
# Si number density = 21.880112 Si / 1000 Ang^3
#
#
#
# Elastic Constant Matrix: (Units=GPa)
#
#
# Indices 1 2 3 4 5 6 
#
# 1 105.2065 51.3280 24.6983 0.0000 0.0000 0.0000
# 2 51.3280 134.4132 47.6117 0.0000 0.0000 0.0000
# 3 24.6983 47.6117 78.2535 0.0000 0.0000 0.0000
# 4 0.0000 0.0000 0.0000 36.0316 0.0000 0.0000
# 5 0.0000 0.0000 0.0000 0.0000 8.5604 0.0000
# 6 0.0000 0.0000 0.0000 0.0000 0.0000 36.0345
#
#
#
# Elastic Compliance Matrix: (Units=1/GPa)
#
#
# Indices 1 2 3 4 5 6 
#
# 1 0.011777 -0.004054 -0.001250 0.000000 0.000000 0.000000
# 2 -0.004054 0.010879 -0.005340 0.000000 0.000000 0.000000
# 3 -0.001250 -0.005340 0.016422 0.000000 0.000000 0.000000
# 4 0.000000 0.000000 0.000000 0.027753 0.000000 0.000000
# 5 0.000000 0.000000 0.000000 0.000000 0.116817 0.000000
# 6 0.000000 0.000000 0.000000 0.000000 0.000000 0.027751
#
#
# Mechanical properties :
#
#
# Convention : Reuss Voigt Hill
#
# Bulk Modulus (GPa) = 56.21125 62.79435 59.50280
# Shear Modulus (GPa) = 20.95396 29.07432 25.01414
#
# Velocity S-wave (km/s) = 3.09798 3.64923 3.38485
# Velocity P-wave (km/s) = 6.20830 6.82037 6.52152
#
# Compressibility (1/GPa) = 0.01779003
#
# Stress axis : x y z
#
# Youngs Moduli (GPa) = 84.91419 91.91724 60.89242
#
# Poissons Ratio (x) = 0.37266 0.07613
# Poissons Ratio (y) = 0.34426 0.32515
# Poissons Ratio (z) = 0.10616 0.49081
#
# Static dielectric constant tensor:
#      x y z
#    x 4.239290 0.000000 0.000000 
#    y 0.000000 3.604260 0.000000 
#    z 0.000000 0.000000 3.788860 
# 
# 
# High freq. dielectric constant tensor:
#      x y z
#    x 1.874990 0.000000 0.000000 
#    y 0.000000 1.871780 0.000000 
#    z 0.000000 0.000000 1.830750 
# 
# From -- ./inp_files/67312.got.cif
#   From: 2010.03.12/outbox.cif.g09.slc.cpg/sg70_34_cif.got.tgz:67312.got - 2010.04.16 13:46:32.
