data_PCOD8286087
_publ_section_title
;
Structure prediction by ZEFSAII (Michael W. Deem and Ramdas Pophale) SiO2 
 PCOD8286087
Probable space group: F D D D
;
_chemical_formula_sum "Si O2"
_cell_formula_units_Z 160
_cell_length_a 28.993892
_cell_length_b 23.595228
_cell_length_c 10.934596
_cell_angle_alpha 90.000000
_cell_angle_beta 90.000000
_cell_angle_gamma 90.000000
_cell_volume 7480.548395
_symmetry_space_group_name_H-M "F D D D"
_symmetry_group_IT_number 70
_space_group.IT_coordinate_system_code '2'
_symmetry_cell_setting 'orthorhombic'
loop_
_space_group_symop_operation_xyz
x,y,z
1/4-x,1/4-y,z
x,1/4-y,1/4-z
1/4-x,y,1/4-z
-x,-y,-z
3/4+x,3/4+y,-z
-x,3/4+y,3/4+z
3/4+x,-y,3/4+z
x,1/2+y,1/2+z
1/4-x,3/4-y,1/2+z
x,3/4-y,3/4-z
1/4-x,1/2+y,3/4-z
-x,1/2-y,1/2-z
3/4+x,1/4+y,1/2-z
-x,1/4+y,1/4+z
3/4+x,1/2-y,1/4+z
1/2+x,y,1/2+z
3/4-x,1/4-y,1/2+z
1/2+x,1/4-y,3/4-z
3/4-x,y,3/4-z
1/2-x,-y,1/2-z
1/4+x,3/4+y,1/2-z
1/2-x,3/4+y,1/4+z
1/4+x,-y,1/4+z
1/2+x,1/2+y,z
3/4-x,3/4-y,z
1/2+x,3/4-y,1/4-z
3/4-x,1/2+y,1/4-z
1/2-x,1/2-y,-z
1/4+x,1/4+y,-z
1/2-x,1/4+y,3/4+z
1/4+x,1/2-y,3/4+z
loop_
_atom_site_type_symbol
_atom_site_label
_atom_site_fract_x
_atom_site_fract_y
_atom_site_fract_z
Si Si1 0.973650 0.905446 0.753463
Si Si2 0.890952 0.480539 0.252347
Si Si3 0.561654 0.472607 0.696443
Si Si4 0.418411 0.334641 0.576036
Si Si5 0.651922 0.316116 0.939092
O O1 0.992888 0.875000 0.875000
O O2 0.924800 0.930775 0.793196
O O3 0.963254 0.868345 0.629317
O O4 0.009850 0.954903 0.725408
O O5 0.875000 0.513363 0.375000
O O6 0.846120 0.454796 0.188260
O O7 0.917973 0.521954 0.163135
O O8 0.567821 0.541368 0.714427
O O9 0.569942 0.451906 0.558354
O O10 0.597311 0.438410 0.783022
O O11 0.375000 0.375000 0.534902
O O12 0.664498 0.375000 0.875000
#
# Coordination Sequence:
#
# PCOD8286087 Si02
#       5
#    32  32  32  32  32
#     4  11  21  37  65  98 132 162 218 283 332 388
#     4  10  20  38  65  91 123 172 221 264 331 410
#     4  10  23  41  60  98 129 163 232 269 330 414
#     4   9  20  40  65  92 130 175 212 271 331 391
#     4  10  23  43  62  85 130 178 213 273 343 400
#
# _framework density 21.388807
#
# number of rings (size 3 to 8) (size 9 to 14) (size 15 to 20)
#    0.000    2.000    2.000    0.600    2.800    3.200 
#    0.000   17.000    0.000    0.000    0.000    0.000 
#    0.000    0.000    0.000    0.000    0.000    0.000 
#
# Total GULP energy -495531.443668 kJ/mol
# GULP energy per Si atom -12388.286092 kJ/mol
# Density = 2.134012 g / cm^3
# Si number density = 21.388807 Si / 1000 Ang^3
#
#
#
# Elastic Constant Matrix: (Units=GPa)
#
#
# Indices 1 2 3 4 5 6 
#
# 1 66.3888 23.7316 25.5871 -0.0001 0.0000 0.0000
# 2 23.7316 122.0565 67.2513 0.0002 0.0000 -0.0001
# 3 25.5871 67.2513 128.4644 0.0008 -0.0001 -0.0001
# 4 -0.0001 0.0002 0.0008 43.6029 -0.0001 -0.0001
# 5 0.0000 0.0000 -0.0001 -0.0001 16.0326 0.0000
# 6 0.0000 -0.0001 -0.0001 -0.0001 0.0000 36.5728
#
#
#
# Elastic Compliance Matrix: (Units=1/GPa)
#
#
# Indices 1 2 3 4 5 6 
#
# 1 0.016649 -0.001982 -0.002279 0.000000 0.000000 0.000000
# 2 -0.001982 0.011750 -0.005756 0.000000 0.000000 0.000000
# 3 -0.002279 -0.005756 0.011252 0.000000 0.000000 0.000000
# 4 0.000000 0.000000 0.000000 0.022934 0.000000 0.000000
# 5 0.000000 0.000000 0.000000 0.000000 0.062373 0.000000
# 6 0.000000 0.000000 0.000000 0.000000 0.000000 0.027343
#
#
# Mechanical properties :
#
#
# Convention : Reuss Voigt Hill
#
# Bulk Modulus (GPa) = 50.97528 61.11663 56.04596
# Shear Modulus (GPa) = 27.95272 32.59765 30.27519
#
# Velocity S-wave (km/s) = 3.61901 3.90815 3.76635
# Velocity P-wave (km/s) = 6.43019 7.00007 6.72117
#
# Compressibility (1/GPa) = 0.01961735
#
# Stress axis : x y z
#
# Youngs Moduli (GPa) = 60.06217 85.10704 88.87601
#
# Poissons Ratio (x) = 0.16865 0.20253
# Poissons Ratio (y) = 0.11902 0.51161
# Poissons Ratio (z) = 0.13687 0.48991
#
# Static dielectric constant tensor:
#      x y z
#    x 3.543260 0.000000 0.000000 
#    y 0.000000 4.051890 0.000000 
#    z 0.000000 0.000000 3.923650 
# 
# 
# High freq. dielectric constant tensor:
#      x y z
#    x 1.818350 0.000000 0.000000 
#    y 0.000000 1.834880 0.000000 
#    z 0.000000 0.000000 1.843020 
# 
# From -- ./inp_files/22188.got.cif
#   From: 2010.03.12/outbox.cif.g09.slc.cpg/sg70_12_cif.got.tgz:22188.got - 2010.04.16 13:46:32.
