data_PCOD8286985
_publ_section_title
;
Structure prediction by ZEFSAII (Michael W. Deem and Ramdas Pophale) SiO2 
 PCOD8286985
Probable space group: I M M M
;
_chemical_formula_sum "Si O2"
_cell_formula_units_Z 120
_cell_length_a 23.290090
_cell_length_b 21.690279
_cell_length_c 15.273371
_cell_angle_alpha 90.000000
_cell_angle_beta 90.000000
_cell_angle_gamma 90.000000
_cell_volume 7715.626682
_symmetry_space_group_name_H-M "I M M M"
_symmetry_group_IT_number 71
_symmetry_cell_setting 'orthorhombic'
loop_
_space_group_symop_operation_xyz
x,y,z
-x,-y,z
x,-y,-z
-x,y,-z
-x,-y,-z
x,y,-z
-x,y,z
x,-y,z
1/2+x,1/2+y,1/2+z
1/2-x,1/2-y,1/2+z
1/2+x,1/2-y,1/2-z
1/2-x,1/2+y,1/2-z
1/2-x,1/2-y,1/2-z
1/2+x,1/2+y,1/2-z
1/2-x,1/2+y,1/2+z
1/2+x,1/2-y,1/2+z
loop_
_atom_site_type_symbol
_atom_site_label
_atom_site_fract_x
_atom_site_fract_y
_atom_site_fract_z
Si Si1 0.934612 0.933023 0.000000
Si Si2 0.115224 0.068757 0.346679
Si Si3 0.278510 0.155613 0.258698
Si Si4 0.749953 0.571475 0.399570
Si Si5 0.254800 0.428772 0.098013
Si Si6 0.934752 0.810281 0.400187
Si Si7 0.372228 0.613956 0.344523
Si Si8 0.341406 0.276276 0.759932
O O1 0.922456 0.892963 0.913922
O O2 0.000000 0.948229 0.000000
O O3 0.902203 0.000000 0.000000
O O4 0.179435 0.083376 0.377310
O O5 0.072002 0.115711 0.393548
O O6 0.112768 0.076168 0.242446
O O7 0.096489 0.000000 0.373236
O O8 0.281660 0.118592 0.166680
O O9 0.287813 0.107626 0.337419
O O10 0.330136 0.204787 0.260870
O O11 0.218441 0.189417 0.280681
O O12 0.768924 0.585113 0.500000
O O13 0.763281 0.500000 0.375360
O O14 0.682917 0.584269 0.390254
O O15 0.239328 0.500000 0.107530
O O16 0.243891 0.404948 0.000000
O O17 0.924559 0.789000 0.500000
O O18 0.886618 0.778106 0.339904
O O19 0.000000 0.793023 0.371044
O O20 0.366950 0.687068 0.323424
#
# Coordination Sequence:
#
# PCOD8286985 Si02
#       8
#     8  16  16  16  16  16  16  16
#     4  11  22  32  46  68  90 118 161 207 246 280
#     4  10  18  29  46  65  90 124 162 201 237 274
#     4  10  18  32  47  68  95 125 156 200 239 286
#     4  10  17  26  45  68  91 120 151 185 234 289
#     4  10  18  28  46  72  99 127 154 189 242 291
#     4  10  20  33  48  65  90 126 164 203 240 272
#     4  10  18  31  44  59  87 121 156 197 237 278
#     4   9  20  33  46  65  91 121 164 198 237 276
#
# _framework density 15.552852
#
# number of rings (size 3 to 8) (size 9 to 14) (size 15 to 20)
#    0.000    2.067    4.667    2.000    0.000    3.733 
#    1.200    2.000    0.000    0.000    0.000    0.000 
#    0.000    2.133    0.000    8.800    0.000    0.000 
#
# Total GULP energy -743602.642430 kJ/mol
# GULP energy per Si atom -12393.377374 kJ/mol
# Density = 1.551745 g / cm^3
# Si number density = 15.552852 Si / 1000 Ang^3
#
#
#
# Elastic Constant Matrix: (Units=GPa)
#
#
# Indices 1 2 3 4 5 6 
#
# 1 51.9064 38.7281 36.8547 0.0000 0.0000 0.0000
# 2 38.7281 70.3586 46.6025 0.0000 0.0000 0.0000
# 3 36.8547 46.6025 111.8241 0.0000 0.0000 0.0000
# 4 0.0000 0.0000 0.0000 11.5093 0.0000 0.0000
# 5 0.0000 0.0000 0.0000 0.0000 14.8250 0.0000
# 6 0.0000 0.0000 0.0000 0.0000 0.0000 17.1421
#
#
#
# Elastic Compliance Matrix: (Units=1/GPa)
#
#
# Indices 1 2 3 4 5 6 
#
# 1 0.034437 -0.015799 -0.004765 0.000000 0.000000 0.000000
# 2 -0.015799 0.026880 -0.005995 0.000000 0.000000 0.000000
# 3 -0.004765 -0.005995 0.013012 0.000000 0.000000 0.000000
# 4 0.000000 0.000000 0.000000 0.086887 0.000000 0.000000
# 5 0.000000 0.000000 0.000000 0.000000 0.067454 0.000000
# 6 0.000000 0.000000 0.000000 0.000000 0.000000 0.058336
#
#
# Mechanical properties :
#
#
# Convention : Reuss Voigt Hill
#
# Bulk Modulus (GPa) = 47.14881 53.16219 50.15550
# Shear Modulus (GPa) = 14.40115 16.15552 15.27833
#
# Velocity S-wave (km/s) = 3.04624 3.22646 3.13765
# Velocity P-wave (km/s) = 6.53864 6.93800 6.74128
#
# Compressibility (1/GPa) = 0.02120944
#
# Stress axis : x y z
#
# Youngs Moduli (GPa) = 29.03870 37.20195 76.85367
#
# Poissons Ratio (x) = 0.58775 0.36624
# Poissons Ratio (y) = 0.45878 0.46076
# Poissons Ratio (z) = 0.13838 0.22304
#
# Static dielectric constant tensor:
#      x y z
#    x 2.626350 0.000000 0.000000 
#    y 0.000000 3.073890 0.000000 
#    z 0.000000 0.000000 3.110020 
# 
# 
# High freq. dielectric constant tensor:
#      x y z
#    x 1.545930 0.000000 0.000000 
#    y 0.000000 1.586020 0.000000 
#    z 0.000000 0.000000 1.608700 
# 
# From -- ./inp_files/39631.got.cif
#   From: 2010.06.25/outbox.cif.g09.slc.cpg/sg71_20_cif.got.tgz:39631.got - 2010.06.28 04:59:45.
