data_PCOD8286623
_publ_section_title
;
Structure prediction by ZEFSAII (Michael W. Deem and Ramdas Pophale) SiO2 
 PCOD8286623
Probable space group: F D D D
;
_chemical_formula_sum "Si O2"
_cell_formula_units_Z 168
_cell_length_a 27.858333
_cell_length_b 18.625558
_cell_length_c 13.375084
_cell_angle_alpha 90.000000
_cell_angle_beta 90.000000
_cell_angle_gamma 90.000000
_cell_volume 6940.023422
_symmetry_space_group_name_H-M "F D D D"
_symmetry_group_IT_number 70
_space_group.IT_coordinate_system_code '2'
_symmetry_cell_setting 'orthorhombic'
loop_
_space_group_symop_operation_xyz
x,y,z
1/4-x,1/4-y,z
x,1/4-y,1/4-z
1/4-x,y,1/4-z
-x,-y,-z
3/4+x,3/4+y,-z
-x,3/4+y,3/4+z
3/4+x,-y,3/4+z
x,1/2+y,1/2+z
1/4-x,3/4-y,1/2+z
x,3/4-y,3/4-z
1/4-x,1/2+y,3/4-z
-x,1/2-y,1/2-z
3/4+x,1/4+y,1/2-z
-x,1/4+y,1/4+z
3/4+x,1/2-y,1/4+z
1/2+x,y,1/2+z
3/4-x,1/4-y,1/2+z
1/2+x,1/4-y,3/4-z
3/4-x,y,3/4-z
1/2-x,-y,1/2-z
1/4+x,3/4+y,1/2-z
1/2-x,3/4+y,1/4+z
1/4+x,-y,1/4+z
1/2+x,1/2+y,z
3/4-x,3/4-y,z
1/2+x,3/4-y,1/4-z
3/4-x,1/2+y,1/4-z
1/2-x,1/2-y,-z
1/4+x,1/4+y,-z
1/2-x,1/4+y,3/4+z
1/4+x,1/2-y,3/4+z
loop_
_atom_site_type_symbol
_atom_site_label
_atom_site_fract_x
_atom_site_fract_y
_atom_site_fract_z
Si Si1 0.697446 0.237067 0.709817
Si Si2 0.798184 0.860643 0.490190
Si Si3 0.655389 0.478852 0.832068
Si Si4 0.555991 0.271380 0.970332
Si Si5 0.875000 0.875000 0.875000
Si Si6 0.051446 0.357133 0.667401
O O1 0.690033 0.262870 0.823117
O O2 0.751548 0.206770 0.690021
O O3 0.658982 0.174826 0.691600
O O4 0.691203 0.308035 0.641097
O O5 0.785150 0.875000 0.375000
O O6 0.838308 0.799703 0.510099
O O7 0.752815 0.835817 0.556064
O O8 0.813984 0.936902 0.529685
O O9 0.599023 0.461874 0.858734
O O10 0.668974 0.409486 0.767347
O O11 0.569005 0.309675 0.074682
#
# Coordination Sequence:
#
# PCOD8286623 Si02
#       6
#    32  32  32  32   8  32
#     4  11  28  51  71 101 135 198 244 304 364 430
#     4  11  21  36  66 108 150 193 224 284 364 438
#     4  12  23  41  74 107 147 186 237 297 363 436
#     4  11  24  41  73 109 145 183 241 296 364 435
#     4  12  32  56  76  84 142 198 260 304 352 426
#     4  11  22  43  69 108 149 182 233 294 366 430
#
# _framework density 24.207412000000001
#
# number of rings (size 3 to 8) (size 9 to 14) (size 15 to 20)
#    0.000    0.762    3.810    4.571    5.333    0.762 
#    3.429    1.905    0.000    0.000    0.000    0.000 
#    0.000    0.000    0.000    0.000    0.000    0.000 
#
# Total GULP energy -520306.077783 kJ/mol
# GULP energy per Si atom -12388.239947 kJ/mol
# Density = 2.415231 g / cm^3
# Si number density = 24.207412 Si / 1000 Ang^3
#
#
#
# Elastic Constant Matrix: (Units=GPa)
#
#
# Indices 1 2 3 4 5 6 
#
# 1 167.9027 47.0690 8.4155 0.0000 0.0000 0.0000
# 2 47.0690 73.3484 0.9333 0.0000 0.0000 0.0000
# 3 8.4155 0.9333 26.9834 0.0000 0.0000 0.0000
# 4 0.0000 0.0000 0.0000 13.0716 0.0000 0.0000
# 5 0.0000 0.0000 0.0000 0.0000 4.9961 0.0000
# 6 0.0000 0.0000 0.0000 0.0000 0.0000 29.1653
#
#
#
# Elastic Compliance Matrix: (Units=1/GPa)
#
#
# Indices 1 2 3 4 5 6 
#
# 1 0.007384 -0.004711 -0.002140 0.000000 0.000000 0.000000
# 2 -0.004711 0.016645 0.000894 0.000000 0.000000 0.000000
# 3 -0.002140 0.000894 0.037696 0.000000 0.000000 0.000000
# 4 0.000000 0.000000 0.000000 0.076502 0.000000 0.000000
# 5 0.000000 0.000000 0.000000 0.000000 0.200157 0.000000
# 6 0.000000 0.000000 0.000000 0.000000 0.000000 0.034287
#
#
# Mechanical properties :
#
#
# Convention : Reuss Voigt Hill
#
# Bulk Modulus (GPa) = 20.07600 42.34113 31.20857
# Shear Modulus (GPa) = 12.46293 23.56771 18.01532
#
# Velocity S-wave (km/s) = 2.27147 3.12360 2.73097
# Velocity P-wave (km/s) = 3.89753 5.52613 4.78168
#
# Compressibility (1/GPa) = 0.04981072
#
# Stress axis : x y z
#
# Youngs Moduli (GPa) = 135.43233 60.07677 26.52775
#
# Poissons Ratio (x) = 0.28303 0.05677
# Poissons Ratio (y) = 0.63803 -0.02370
# Poissons Ratio (z) = 0.28981 -0.05368
#
# Static dielectric constant tensor:
#      x y z
#    x 4.912080 0.000000 0.000000 
#    y 0.000000 4.706400 0.000000 
#    z 0.000000 0.000000 3.817230 
# 
# 
# High freq. dielectric constant tensor:
#      x y z
#    x 1.979160 0.000000 0.000000 
#    y 0.000000 1.977040 0.000000 
#    z 0.000000 0.000000 1.916950 
# 
# From -- ./inp_files/29864.got.cif
#   From: 2010.03.12/outbox.cif.g09.slc.cpg/sg70_15_cif.got.tgz:29864.got - 2010.04.16 13:46:32.
