data_PCOD8286828
_publ_section_title
;
Structure prediction by ZEFSAII (Michael W. Deem and Ramdas Pophale) SiO2 
 PCOD8286828
Probable space group: F D D D
;
_chemical_formula_sum "Si O2"
_cell_formula_units_Z 128
_cell_length_a 24.052447
_cell_length_b 17.940090
_cell_length_c 13.365807
_cell_angle_alpha 90.000000
_cell_angle_beta 90.000000
_cell_angle_gamma 90.000000
_cell_volume 5767.386672
_symmetry_space_group_name_H-M "F D D D"
_symmetry_group_IT_number 70
_space_group.IT_coordinate_system_code '2'
_symmetry_cell_setting 'orthorhombic'
loop_
_space_group_symop_operation_xyz
x,y,z
1/4-x,1/4-y,z
x,1/4-y,1/4-z
1/4-x,y,1/4-z
-x,-y,-z
3/4+x,3/4+y,-z
-x,3/4+y,3/4+z
3/4+x,-y,3/4+z
x,1/2+y,1/2+z
1/4-x,3/4-y,1/2+z
x,3/4-y,3/4-z
1/4-x,1/2+y,3/4-z
-x,1/2-y,1/2-z
3/4+x,1/4+y,1/2-z
-x,1/4+y,1/4+z
3/4+x,1/2-y,1/4+z
1/2+x,y,1/2+z
3/4-x,1/4-y,1/2+z
1/2+x,1/4-y,3/4-z
3/4-x,y,3/4-z
1/2-x,-y,1/2-z
1/4+x,3/4+y,1/2-z
1/2-x,3/4+y,1/4+z
1/4+x,-y,1/4+z
1/2+x,1/2+y,z
3/4-x,3/4-y,z
1/2+x,3/4-y,1/4-z
3/4-x,1/2+y,1/4-z
1/2-x,1/2-y,-z
1/4+x,1/4+y,-z
1/2-x,1/4+y,3/4+z
1/4+x,1/2-y,3/4+z
loop_
_atom_site_type_symbol
_atom_site_label
_atom_site_fract_x
_atom_site_fract_y
_atom_site_fract_z
Si Si1 0.155666 0.550109 0.280871
Si Si2 0.320998 0.666872 0.727080
Si Si3 0.875000 0.058385 0.875000
Si Si4 0.022438 0.625000 0.125000
Si Si5 0.212497 0.750809 0.772659
O O1 0.125000 0.625000 0.313886
O O2 0.112083 0.485648 0.259072
O O3 0.189778 0.562454 0.178388
O O4 0.197125 0.529904 0.369120
O O5 0.335240 0.625000 0.625000
O O6 0.330271 0.608713 0.816650
O O7 0.257826 0.695800 0.724549
O O8 0.909439 0.005183 0.800194
O O9 0.985862 0.584448 0.210014
#
# Coordination Sequence:
#
# PCOD8286828 Si02
#       5
#    32  32  16  16  32
#     4  12  25  46  70 111 145 186 246 307 364 435
#     4  12  26  47  73 105 149 191 243 304 366 438
#     4  12  26  48  72 108 148 198 246 302 370 438
#     4  12  23  46  76 110 142 186 246 315 368 420
#     4  12  26  44  75 103 148 197 240 303 368 438
#
# _framework density 22.193760999999999
#
# number of rings (size 3 to 8) (size 9 to 14) (size 15 to 20)
#    0.000    0.000    5.000    5.625    0.000    3.000 
#    0.000    0.000    0.000    0.000    0.000    0.000 
#    0.000    0.000    0.000    0.000    0.000    0.000 
#
# Total GULP energy -397083.026689 kJ/mol
# GULP energy per Si atom -12408.844584 kJ/mol
# Density = 2.214325 g / cm^3
# Si number density = 22.193761 Si / 1000 Ang^3
#
#
#
# Elastic Constant Matrix: (Units=GPa)
#
#
# Indices 1 2 3 4 5 6 
#
# 1 120.4088 37.2424 48.4991 0.0000 0.0000 0.0000
# 2 37.2424 74.7586 36.7002 0.0000 0.0000 0.0000
# 3 48.4991 36.7002 119.1260 0.0000 0.0000 0.0000
# 4 0.0000 0.0000 0.0000 35.5373 0.0000 0.0000
# 5 0.0000 0.0000 0.0000 0.0000 137.5075 0.0000
# 6 0.0000 0.0000 0.0000 0.0000 0.0000 11.4710
#
#
#
# Elastic Compliance Matrix: (Units=1/GPa)
#
#
# Indices 1 2 3 4 5 6 
#
# 1 0.010773 -0.003786 -0.003219 0.000000 0.000000 0.000000
# 2 -0.003786 0.017091 -0.003724 0.000000 0.000000 0.000000
# 3 -0.003219 -0.003724 0.010852 0.000000 0.000000 0.000000
# 4 0.000000 0.000000 0.000000 0.028139 0.000000 0.000000
# 5 0.000000 0.000000 0.000000 0.000000 0.007272 0.000000
# 6 0.000000 0.000000 0.000000 0.000000 0.000000 0.087176
#
#
# Mechanical properties :
#
#
# Convention : Reuss Voigt Hill
#
# Bulk Modulus (GPa) = 57.94758 62.13076 60.03917
# Shear Modulus (GPa) = 26.52307 49.69327 38.10817
#
# Velocity S-wave (km/s) = 3.46073 4.73701 4.14825
# Velocity P-wave (km/s) = 6.49118 7.61410 7.07495
#
# Compressibility (1/GPa) = 0.01725698
#
# Stress axis : x y z
#
# Youngs Moduli (GPa) = 92.82576 58.51153 92.14545
#
# Poissons Ratio (x) = 0.22154 0.29666
# Poissons Ratio (y) = 0.35146 0.34313
# Poissons Ratio (z) = 0.29885 0.21789
#
# Static dielectric constant tensor:
#      x y z
#    x 4.154520 0.000000 0.000000 
#    y 0.000000 4.147570 0.000000 
#    z 0.000000 0.000000 16.844130 
# 
# 
# High freq. dielectric constant tensor:
#      x y z
#    x 1.885340 0.000000 0.000000 
#    y 0.000000 1.875210 0.000000 
#    z 0.000000 0.000000 1.881470 
# 
# From -- ./inp_files/26403.got.cif
#   From: 2010.03.12/outbox.cif.g09.slc.cpg/sg70_14_cif.got.tgz:26403.got - 2010.04.16 13:46:32.
