data_PCOD8286041
_publ_section_title
;
Structure prediction by ZEFSAII (Michael W. Deem and Ramdas Pophale) SiO2 
 PCOD8286041
Probable space group: F D D D
;
_chemical_formula_sum "Si O2"
_cell_formula_units_Z 184
_cell_length_a 16.386629
_cell_length_b 20.605255
_cell_length_c 28.394046
_cell_angle_alpha 90.000000
_cell_angle_beta 90.000000
_cell_angle_gamma 90.000000
_cell_volume 9587.268631
_symmetry_space_group_name_H-M "F D D D"
_symmetry_group_IT_number 70
_space_group.IT_coordinate_system_code '2'
_symmetry_cell_setting 'orthorhombic'
loop_
_space_group_symop_operation_xyz
x,y,z
1/4-x,1/4-y,z
x,1/4-y,1/4-z
1/4-x,y,1/4-z
-x,-y,-z
3/4+x,3/4+y,-z
-x,3/4+y,3/4+z
3/4+x,-y,3/4+z
x,1/2+y,1/2+z
1/4-x,3/4-y,1/2+z
x,3/4-y,3/4-z
1/4-x,1/2+y,3/4-z
-x,1/2-y,1/2-z
3/4+x,1/4+y,1/2-z
-x,1/4+y,1/4+z
3/4+x,1/2-y,1/4+z
1/2+x,y,1/2+z
3/4-x,1/4-y,1/2+z
1/2+x,1/4-y,3/4-z
3/4-x,y,3/4-z
1/2-x,-y,1/2-z
1/4+x,3/4+y,1/2-z
1/2-x,3/4+y,1/4+z
1/4+x,-y,1/4+z
1/2+x,1/2+y,z
3/4-x,3/4-y,z
1/2+x,3/4-y,1/4-z
3/4-x,1/2+y,1/4-z
1/2-x,1/2-y,-z
1/4+x,1/4+y,-z
1/2-x,1/4+y,3/4+z
1/4+x,1/2-y,3/4+z
loop_
_atom_site_type_symbol
_atom_site_label
_atom_site_fract_x
_atom_site_fract_y
_atom_site_fract_z
Si Si1 0.238185 0.927158 0.436835
Si Si2 0.793278 0.304576 0.853608
Si Si3 0.933235 0.041894 0.027233
Si Si4 0.625000 0.125000 0.937226
Si Si5 0.875000 0.875000 0.875000
Si Si6 0.252164 0.195086 0.752901
Si Si7 0.621730 0.999425 0.874632
O O1 0.227927 0.858626 0.461624
O O2 0.321599 0.923962 0.406883
O O3 0.163333 0.939139 0.401385
O O4 0.238438 0.984483 0.474610
O O5 0.780149 0.375000 0.875000
O O6 0.875000 0.273508 0.875000
O O7 0.792481 0.306505 0.797304
O O8 0.723922 0.258747 0.872741
O O9 0.850436 0.062813 0.999511
O O10 0.910038 0.998362 0.072453
O O11 0.000000 0.000000 0.000000
O O12 0.620129 0.184974 0.902609
O O13 0.707327 0.114161 0.968792
#
# Coordination Sequence:
#
# PCOD8286041 Si02
#       7
#    32  32  32  16   8  32  32
#     4  11  22  38  61  88 120 161 206 255 309 392
#     4  10  20  37  62  86 116 158 205 251 306 382
#     4  11  22  39  61  90 122 162 209 271 319 379
#     4  10  22  40  58  86 126 164 199 265 320 382
#     4  12  20  36  66  88 114 168 220 242 322 388
#     4  10  23  38  60  93 125 159 215 264 320 385
#     4  10  21  39  59  83 119 162 202 249 316 374
#
# _framework density 19.192119000000002
#
# number of rings (size 3 to 8) (size 9 to 14) (size 15 to 20)
#    0.000    1.565    1.739    4.174    0.000    4.174 
#    0.000    4.348    0.000    0.000    0.000    0.000 
#    0.000    0.000    0.000    0.000    0.000    0.000 
#
# Total GULP energy -570040.138152 kJ/mol
# GULP energy per Si atom -12392.176916 kJ/mol
# Density = 1.914844 g / cm^3
# Si number density = 19.192119 Si / 1000 Ang^3
#
#
#
# Elastic Constant Matrix: (Units=GPa)
#
#
# Indices 1 2 3 4 5 6 
#
# 1 137.4982 46.5290 68.7198 0.0000 0.0000 0.0000
# 2 46.5290 90.8891 49.4108 0.0000 0.0000 0.0000
# 3 68.7198 49.4108 112.4560 0.0000 0.0000 0.0000
# 4 0.0000 0.0000 0.0000 24.4342 0.0000 0.0000
# 5 0.0000 0.0000 0.0000 0.0000 35.2412 0.0000
# 6 0.0000 0.0000 0.0000 0.0000 0.0000 30.4826
#
#
#
# Elastic Compliance Matrix: (Units=1/GPa)
#
#
# Indices 1 2 3 4 5 6 
#
# 1 0.010911 -0.002576 -0.005536 0.000000 0.000000 0.000000
# 2 -0.002576 0.015064 -0.005044 0.000000 0.000000 0.000000
# 3 -0.005536 -0.005044 0.014491 0.000000 0.000000 0.000000
# 4 0.000000 0.000000 0.000000 0.040926 0.000000 0.000000
# 5 0.000000 0.000000 0.000000 0.000000 0.028376 0.000000
# 6 0.000000 0.000000 0.000000 0.000000 0.000000 0.032806
#
#
# Mechanical properties :
#
#
# Convention : Reuss Voigt Hill
#
# Bulk Modulus (GPa) = 70.65288 74.46250 72.55769
# Shear Modulus (GPa) = 28.80108 29.77719 29.28914
#
# Velocity S-wave (km/s) = 3.87805 3.94322 3.91077
# Velocity P-wave (km/s) = 7.54624 7.72106 7.63415
#
# Compressibility (1/GPa) = 0.01415370
#
# Stress axis : x y z
#
# Youngs Moduli (GPa) = 91.64773 66.38520 69.00632
#
# Poissons Ratio (x) = 0.17104 0.38200
# Poissons Ratio (y) = 0.23613 0.34808
# Poissons Ratio (z) = 0.50733 0.33486
#
# Static dielectric constant tensor:
#      x y z
#    x 4.200510 0.000000 0.000000 
#    y 0.000000 3.414960 0.000000 
#    z 0.000000 0.000000 3.782860 
# 
# 
# High freq. dielectric constant tensor:
#      x y z
#    x 1.762960 0.000000 0.000000 
#    y 0.000000 1.735460 0.000000 
#    z 0.000000 0.000000 1.760090 
# 
# From -- ./inp_files/66777.got.cif
#   From: 2010.03.12/outbox.cif.g09.slc.cpg/sg70_34_cif.got.tgz:66777.got - 2010.04.16 13:46:32.
