data_PCOD8286301
_publ_section_title
;
Structure prediction by ZEFSAII (Michael W. Deem and Ramdas Pophale) SiO2 
 PCOD8286301
Probable space group: F D D D
;
_chemical_formula_sum "Si O2"
_cell_formula_units_Z 144
_cell_length_a 17.376935
_cell_length_b 13.890751
_cell_length_c 27.889517
_cell_angle_alpha 90.000000
_cell_angle_beta 90.000000
_cell_angle_gamma 90.000000
_cell_volume 6731.934722
_symmetry_space_group_name_H-M "F D D D"
_symmetry_group_IT_number 70
_space_group.IT_coordinate_system_code '2'
_symmetry_cell_setting 'orthorhombic'
loop_
_space_group_symop_operation_xyz
x,y,z
1/4-x,1/4-y,z
x,1/4-y,1/4-z
1/4-x,y,1/4-z
-x,-y,-z
3/4+x,3/4+y,-z
-x,3/4+y,3/4+z
3/4+x,-y,3/4+z
x,1/2+y,1/2+z
1/4-x,3/4-y,1/2+z
x,3/4-y,3/4-z
1/4-x,1/2+y,3/4-z
-x,1/2-y,1/2-z
3/4+x,1/4+y,1/2-z
-x,1/4+y,1/4+z
3/4+x,1/2-y,1/4+z
1/2+x,y,1/2+z
3/4-x,1/4-y,1/2+z
1/2+x,1/4-y,3/4-z
3/4-x,y,3/4-z
1/2-x,-y,1/2-z
1/4+x,3/4+y,1/2-z
1/2-x,3/4+y,1/4+z
1/4+x,-y,1/4+z
1/2+x,1/2+y,z
3/4-x,3/4-y,z
1/2+x,3/4-y,1/4-z
3/4-x,1/2+y,1/4-z
1/2-x,1/2-y,-z
1/4+x,1/4+y,-z
1/2-x,1/4+y,3/4+z
1/4+x,1/2-y,3/4+z
loop_
_atom_site_type_symbol
_atom_site_label
_atom_site_fract_x
_atom_site_fract_y
_atom_site_fract_z
Si Si1 0.746982 0.926577 0.572581
Si Si2 0.625000 0.125000 0.248889
Si Si3 0.934406 0.623060 0.572372
Si Si4 0.710948 0.593113 0.321833
Si Si5 0.359412 0.580629 0.472858
O O1 0.799611 0.880047 0.531774
O O2 0.772827 0.880908 0.622932
O O3 0.659272 0.897331 0.561994
O O4 0.751178 0.042743 0.573033
O O5 0.619997 0.218555 0.214763
O O6 0.892449 0.625000 0.625000
O O7 0.973679 0.520378 0.562798
O O8 0.874675 0.645139 0.529304
O O9 0.625000 0.625000 0.307734
O O10 0.769522 0.651163 0.288085
#
# Coordination Sequence:
#
# PCOD8286301 Si02
#       5
#    32  16  32  32  32
#     4  10  21  43  65  90 128 165 209 262 318 371
#     4  10  22  42  61  96 122 168 209 260 320 360
#     4   9  22  41  64  93 123 164 207 261 321 363
#     4  11  23  41  63  95 132 161 208 263 315 372
#     4  11  23  40  68  93 124 168 214 253 312 382
#
# _framework density 21.390581000000001
#
# number of rings (size 3 to 8) (size 9 to 14) (size 15 to 20)
#    0.000    1.778    1.111    2.000    6.222    0.889 
#    0.000    5.556    0.000    0.000    0.000    0.000 
#    0.000    0.000    0.000    0.000    0.000    0.000 
#
# Total GULP energy -446392.477124 kJ/mol
# GULP energy per Si atom -12399.791031 kJ/mol
# Density = 2.134190 g / cm^3
# Si number density = 21.390581 Si / 1000 Ang^3
#
#
#
# Elastic Constant Matrix: (Units=GPa)
#
#
# Indices 1 2 3 4 5 6 
#
# 1 118.4713 47.7001 31.1376 0.0000 0.0000 0.0000
# 2 47.7001 160.8780 46.4607 0.0000 0.0000 0.0000
# 3 31.1376 46.4607 71.5962 0.0000 0.0000 0.0000
# 4 0.0000 0.0000 0.0000 29.4244 0.0000 0.0000
# 5 0.0000 0.0000 0.0000 0.0000 26.8557 0.0000
# 6 0.0000 0.0000 0.0000 0.0000 0.0000 24.2108
#
#
#
# Elastic Compliance Matrix: (Units=1/GPa)
#
#
# Indices 1 2 3 4 5 6 
#
# 1 0.010086 -0.002121 -0.003010 0.000000 0.000000 0.000000
# 2 -0.002121 0.008096 -0.004331 0.000000 0.000000 0.000000
# 3 -0.003010 -0.004331 0.018087 0.000000 0.000000 0.000000
# 4 0.000000 0.000000 0.000000 0.033985 0.000000 0.000000
# 5 0.000000 0.000000 0.000000 0.000000 0.037236 0.000000
# 6 0.000000 0.000000 0.000000 0.000000 0.000000 0.041304
#
#
# Mechanical properties :
#
#
# Convention : Reuss Voigt Hill
#
# Bulk Modulus (GPa) = 57.65632 66.83803 62.24718
# Shear Modulus (GPa) = 28.81859 31.14133 29.97996
#
# Velocity S-wave (km/s) = 3.67448 3.81969 3.74779
# Velocity P-wave (km/s) = 6.70932 7.12514 6.92036
#
# Compressibility (1/GPa) = 0.01734415
#
# Stress axis : x y z
#
# Youngs Moduli (GPa) = 99.14700 123.52426 55.28921
#
# Poissons Ratio (x) = 0.26202 0.16642
# Poissons Ratio (y) = 0.21031 0.23945
# Poissons Ratio (z) = 0.29843 0.53497
#
# Static dielectric constant tensor:
#      x y z
#    x 3.456050 0.000000 0.000000 
#    y 0.000000 3.986260 0.000000 
#    z 0.000000 0.000000 4.019950 
# 
# 
# High freq. dielectric constant tensor:
#      x y z
#    x 1.804920 0.000000 0.000000 
#    y 0.000000 1.850050 0.000000 
#    z 0.000000 0.000000 1.846330 
# 
# From -- ./inp_files/30843.got.cif
#   From: 2010.03.12/outbox.cif.g09.slc.cpg/sg70_16_cif.got.tgz:30843.got - 2010.04.16 13:46:32.
