data_PCOD8286074
_publ_section_title
;
Structure prediction by ZEFSAII (Michael W. Deem and Ramdas Pophale) SiO2 
 PCOD8286074
Probable space group: F D D D
;
_chemical_formula_sum "Si O2"
_cell_formula_units_Z 208
_cell_length_a 16.374753
_cell_length_b 31.819085
_cell_length_c 20.577290
_cell_angle_alpha 90.000000
_cell_angle_beta 90.000000
_cell_angle_gamma 90.000000
_cell_volume 10721.378362
_symmetry_space_group_name_H-M "F D D D"
_symmetry_group_IT_number 70
_space_group.IT_coordinate_system_code '2'
_symmetry_cell_setting 'orthorhombic'
loop_
_space_group_symop_operation_xyz
x,y,z
1/4-x,1/4-y,z
x,1/4-y,1/4-z
1/4-x,y,1/4-z
-x,-y,-z
3/4+x,3/4+y,-z
-x,3/4+y,3/4+z
3/4+x,-y,3/4+z
x,1/2+y,1/2+z
1/4-x,3/4-y,1/2+z
x,3/4-y,3/4-z
1/4-x,1/2+y,3/4-z
-x,1/2-y,1/2-z
3/4+x,1/4+y,1/2-z
-x,1/4+y,1/4+z
3/4+x,1/2-y,1/4+z
1/2+x,y,1/2+z
3/4-x,1/4-y,1/2+z
1/2+x,1/4-y,3/4-z
3/4-x,y,3/4-z
1/2-x,-y,1/2-z
1/4+x,3/4+y,1/2-z
1/2-x,3/4+y,1/4+z
1/4+x,-y,1/4+z
1/2+x,1/2+y,z
3/4-x,3/4-y,z
1/2+x,3/4-y,1/4-z
3/4-x,1/2+y,1/4-z
1/2-x,1/2-y,-z
1/4+x,1/4+y,-z
1/2-x,1/4+y,3/4+z
1/4+x,1/2-y,3/4+z
loop_
_atom_site_type_symbol
_atom_site_label
_atom_site_fract_x
_atom_site_fract_y
_atom_site_fract_z
Si Si1 0.043037 0.988519 0.322424
Si Si2 0.875000 0.763050 0.875000
Si Si3 0.933281 0.284982 0.243895
Si Si4 0.668206 0.265334 0.962509
Si Si5 0.926038 0.562755 0.814364
Si Si6 0.964551 0.860131 0.660158
Si Si7 0.738838 0.707945 0.808695
O O1 0.056878 0.966080 0.391728
O O2 0.030357 0.955418 0.263188
O O3 0.117405 0.019792 0.308220
O O4 0.964335 0.017737 0.330398
O O5 0.893931 0.793208 0.814373
O O6 0.795081 0.735878 0.856448
O O7 0.972898 0.327368 0.218634
O O8 0.000000 0.250000 0.250000
O O9 0.602456 0.227460 0.950458
O O10 0.750000 0.250000 0.000000
O O11 0.628595 0.305070 0.000001
O O12 0.875000 0.577946 0.875000
O O13 0.988700 0.600730 0.808201
O O14 0.875000 0.875000 0.645173
O O15 0.991356 0.838456 0.591504
#
# Coordination Sequence:
#
# PCOD8286074 Si02
#       7
#    32  16  32  32  32  32  32
#     4  10  20  39  62  93 123 164 221 266 313 389
#     4  10  20  38  63  88 122 156 226 260 310 390
#     4  11  20  37  64  89 121 167 213 259 314 404
#     4  11  20  38  65  96 127 167 220 281 321 398
#     4  11  23  36  62  99 129 164 219 271 335 381
#     4  12  23  40  62  94 130 169 211 278 336 391
#     4  10  22  36  63  93 119 170 217 264 322 399
#
# _framework density 19.400490999999999
#
# number of rings (size 3 to 8) (size 9 to 14) (size 15 to 20)
#    0.000    1.231    6.154    0.000    1.077    0.000 
#    0.000    0.385    0.000    6.462    0.000    0.000 
#    0.000    0.000    0.000    0.000    0.000    0.000 
#
# Total GULP energy -644292.517613 kJ/mol
# GULP energy per Si atom -12390.240723 kJ/mol
# Density = 1.935633 g / cm^3
# Si number density = 19.400491 Si / 1000 Ang^3
#
#
#
# Elastic Constant Matrix: (Units=GPa)
#
#
# Indices 1 2 3 4 5 6 
#
# 1 92.4936 25.6073 40.4205 0.0000 0.0000 0.0000
# 2 25.6073 87.7972 57.6091 0.0000 0.0000 0.0000
# 3 40.4205 57.6091 173.9191 0.0000 0.0000 0.0000
# 4 0.0000 0.0000 0.0000 48.9908 0.0000 0.0000
# 5 0.0000 0.0000 0.0000 0.0000 31.9944 0.0000
# 6 0.0000 0.0000 0.0000 0.0000 0.0000 27.4419
#
#
#
# Elastic Compliance Matrix: (Units=1/GPa)
#
#
# Indices 1 2 3 4 5 6 
#
# 1 0.012357 -0.002197 -0.002144 0.000000 0.000000 0.000000
# 2 -0.002197 0.014944 -0.004439 0.000000 0.000000 0.000000
# 3 -0.002144 -0.004439 0.007719 0.000000 0.000000 0.000000
# 4 0.000000 0.000000 0.000000 0.020412 0.000000 0.000000
# 5 0.000000 0.000000 0.000000 0.000000 0.031255 0.000000
# 6 0.000000 0.000000 0.000000 0.000000 0.000000 0.036441
#
#
# Mechanical properties :
#
#
# Convention : Reuss Voigt Hill
#
# Bulk Modulus (GPa) = 57.28052 66.83154 62.05603
# Shear Modulus (GPa) = 34.12797 37.05698 35.59247
#
# Velocity S-wave (km/s) = 4.19875 4.37522 4.28789
# Velocity P-wave (km/s) = 7.28666 7.74897 7.52137
#
# Compressibility (1/GPa) = 0.01745794
#
# Stress axis : x y z
#
# Youngs Moduli (GPa) = 80.92690 66.91824 129.55777
#
# Poissons Ratio (x) = 0.14703 0.27778
# Poissons Ratio (y) = 0.17781 0.57514
# Poissons Ratio (z) = 0.17351 0.29707
#
# Static dielectric constant tensor:
#      x y z
#    x 3.770660 0.000000 0.000000 
#    y 0.000000 3.421670 0.000000 
#    z 0.000000 0.000000 3.848510 
# 
# 
# High freq. dielectric constant tensor:
#      x y z
#    x 1.775230 0.000000 0.000000 
#    y 0.000000 1.708240 0.000000 
#    z 0.000000 0.000000 1.772950 
# 
# From -- ./inp_files/44073.got.cif
#   From: 2010.03.12/outbox.cif.g09.slc.cpg/sg70_23_cif.got.tgz:44073.got - 2010.04.16 13:46:32.
