data_PCOD8286824
_publ_section_title
;
Structure prediction by ZEFSAII (Michael W. Deem and Ramdas Pophale) SiO2 
 PCOD8286824
Probable space group: F D D D
;
_chemical_formula_sum "Si O2"
_cell_formula_units_Z 192
_cell_length_a 24.292576
_cell_length_b 14.918331
_cell_length_c 25.515525
_cell_angle_alpha 90.000000
_cell_angle_beta 90.000000
_cell_angle_gamma 90.000000
_cell_volume 9246.945918
_symmetry_space_group_name_H-M "F D D D"
_symmetry_group_IT_number 70
_space_group.IT_coordinate_system_code '2'
_symmetry_cell_setting 'orthorhombic'
loop_
_space_group_symop_operation_xyz
x,y,z
1/4-x,1/4-y,z
x,1/4-y,1/4-z
1/4-x,y,1/4-z
-x,-y,-z
3/4+x,3/4+y,-z
-x,3/4+y,3/4+z
3/4+x,-y,3/4+z
x,1/2+y,1/2+z
1/4-x,3/4-y,1/2+z
x,3/4-y,3/4-z
1/4-x,1/2+y,3/4-z
-x,1/2-y,1/2-z
3/4+x,1/4+y,1/2-z
-x,1/4+y,1/4+z
3/4+x,1/2-y,1/4+z
1/2+x,y,1/2+z
3/4-x,1/4-y,1/2+z
1/2+x,1/4-y,3/4-z
3/4-x,y,3/4-z
1/2-x,-y,1/2-z
1/4+x,3/4+y,1/2-z
1/2-x,3/4+y,1/4+z
1/4+x,-y,1/4+z
1/2+x,1/2+y,z
3/4-x,3/4-y,z
1/2+x,3/4-y,1/4-z
3/4-x,1/2+y,1/4-z
1/2-x,1/2-y,-z
1/4+x,1/4+y,-z
1/2-x,1/4+y,3/4+z
1/4+x,1/2-y,3/4+z
loop_
_atom_site_type_symbol
_atom_site_label
_atom_site_fract_x
_atom_site_fract_y
_atom_site_fract_z
Si Si1 0.819595 0.929497 0.115323
Si Si2 0.625000 0.862793 0.625000
Si Si3 0.724029 0.468148 0.977598
Si Si4 0.858194 0.067825 0.194365
Si Si5 0.984126 0.042379 0.847244
Si Si6 0.451594 0.625000 0.125000
Si Si7 0.900295 0.783085 0.459757
O O1 0.875000 0.875000 0.110456
O O2 0.775250 0.876794 0.150328
O O3 0.798924 0.948891 0.056364
O O4 0.830163 0.024815 0.142996
O O5 0.676575 0.928812 0.621717
O O6 0.630948 0.800926 0.675636
O O7 0.685956 0.380696 0.972438
O O8 0.784983 0.449421 0.956962
O O9 0.725831 0.493955 0.038463
O O10 0.913041 0.121397 0.176832
O O11 0.877860 0.987198 0.232018
O O12 0.010072 0.962163 0.881312
O O13 0.875000 0.875000 0.438153
#
# Coordination Sequence:
#
# PCOD8286824 Si02
#       7
#    32  16  32  32  32  16  32
#     4  12  23  44  71 103 137 179 235 293 343 408
#     4  12  27  47  66 100 150 180 224 287 353 426
#     4  12  24  42  71 102 136 184 228 283 350 412
#     4  12  23  42  71 104 136 174 234 286 339 421
#     4  12  26  46  68  98 141 183 232 288 351 418
#     4  12  24  47  72  94 133 182 236 292 340 400
#     4  12  26  43  69 106 142 183 222 280 360 422
#
# _framework density 20.763612999999999
#
# number of rings (size 3 to 8) (size 9 to 14) (size 15 to 20)
#    0.000    0.000    8.333    1.750    2.333    3.000 
#    3.000    1.667    0.000    0.000    0.000    0.000 
#    0.000    0.000    0.000    0.000    0.000    0.000 
#
# Total GULP energy -595501.554748 kJ/mol
# GULP energy per Si atom -12406.282391 kJ/mol
# Density = 2.071635 g / cm^3
# Si number density = 20.763613 Si / 1000 Ang^3
#
#
#
# Elastic Constant Matrix: (Units=GPa)
#
#
# Indices 1 2 3 4 5 6 
#
# 1 158.4510 57.2966 28.8999 0.0000 0.0000 0.0000
# 2 57.2966 98.1607 31.0833 0.0000 0.0000 0.0000
# 3 28.8999 31.0833 98.3556 0.0000 0.0000 0.0000
# 4 0.0000 0.0000 0.0000 25.8904 0.0000 0.0000
# 5 0.0000 0.0000 0.0000 0.0000 31.2699 0.0000
# 6 0.0000 0.0000 0.0000 0.0000 0.0000 34.8088
#
#
#
# Elastic Compliance Matrix: (Units=1/GPa)
#
#
# Indices 1 2 3 4 5 6 
#
# 1 0.008084 -0.004408 -0.000982 0.000000 0.000000 0.000000
# 2 -0.004408 0.013723 -0.003042 0.000000 0.000000 0.000000
# 3 -0.000982 -0.003042 0.011417 0.000000 0.000000 0.000000
# 4 0.000000 0.000000 0.000000 0.038624 0.000000 0.000000
# 5 0.000000 0.000000 0.000000 0.000000 0.031980 0.000000
# 6 0.000000 0.000000 0.000000 0.000000 0.000000 0.028728
#
#
# Mechanical properties :
#
#
# Convention : Reuss Voigt Hill
#
# Bulk Modulus (GPa) = 61.12178 65.50296 63.31237
# Shear Modulus (GPa) = 32.28423 34.23966 33.26195
#
# Velocity S-wave (km/s) = 3.94743 4.06522 4.00676
# Velocity P-wave (km/s) = 7.09064 7.32463 7.20858
#
# Compressibility (1/GPa) = 0.01636078
#
# Stress axis : x y z
#
# Youngs Moduli (GPa) = 123.69973 72.86856 87.58731
#
# Poissons Ratio (x) = 0.32118 0.08605
# Poissons Ratio (y) = 0.54522 0.26643
# Poissons Ratio (z) = 0.12152 0.22166
#
# Static dielectric constant tensor:
#      x y z
#    x 4.074170 0.000000 0.000000 
#    y 0.000000 3.696760 0.000000 
#    z 0.000000 0.000000 3.896900 
# 
# 
# High freq. dielectric constant tensor:
#      x y z
#    x 1.832310 0.000000 0.000000 
#    y 0.000000 1.809570 0.000000 
#    z 0.000000 0.000000 1.810960 
# 
# From -- ./inp_files/51429.got.cif
#   From: 2010.03.12/outbox.cif.g09.slc.cpg/sg70_26_cif.got.tgz:51429.got - 2010.04.16 13:46:32.
