data_PCOD8286577
_publ_section_title
;
Structure prediction by ZEFSAII (Michael W. Deem and Ramdas Pophale) SiO2 
 PCOD8286577
Probable space group: F D D D
;
_chemical_formula_sum "Si O2"
_cell_formula_units_Z 112
_cell_length_a 19.465360
_cell_length_b 18.626076
_cell_length_c 15.507258
_cell_angle_alpha 90.000000
_cell_angle_beta 90.000000
_cell_angle_gamma 90.000000
_cell_volume 5622.362243
_symmetry_space_group_name_H-M "F D D D"
_symmetry_group_IT_number 70
_space_group.IT_coordinate_system_code '2'
_symmetry_cell_setting 'orthorhombic'
loop_
_space_group_symop_operation_xyz
x,y,z
1/4-x,1/4-y,z
x,1/4-y,1/4-z
1/4-x,y,1/4-z
-x,-y,-z
3/4+x,3/4+y,-z
-x,3/4+y,3/4+z
3/4+x,-y,3/4+z
x,1/2+y,1/2+z
1/4-x,3/4-y,1/2+z
x,3/4-y,3/4-z
1/4-x,1/2+y,3/4-z
-x,1/2-y,1/2-z
3/4+x,1/4+y,1/2-z
-x,1/4+y,1/4+z
3/4+x,1/2-y,1/4+z
1/2+x,y,1/2+z
3/4-x,1/4-y,1/2+z
1/2+x,1/4-y,3/4-z
3/4-x,y,3/4-z
1/2-x,-y,1/2-z
1/4+x,3/4+y,1/2-z
1/2-x,3/4+y,1/4+z
1/4+x,-y,1/4+z
1/2+x,1/2+y,z
3/4-x,3/4-y,z
1/2+x,3/4-y,1/4-z
3/4-x,1/2+y,1/4-z
1/2-x,1/2-y,-z
1/4+x,1/4+y,-z
1/2-x,1/4+y,3/4+z
1/4+x,1/2-y,3/4+z
loop_
_atom_site_type_symbol
_atom_site_label
_atom_site_fract_x
_atom_site_fract_y
_atom_site_fract_z
Si Si1 0.908752 0.947701 0.463352
Si Si2 0.864797 0.017435 0.632778
Si Si3 0.756800 0.375000 0.375000
Si Si4 0.029595 0.375000 0.875000
Si Si5 0.625000 0.625000 0.260233
O O1 0.875000 0.976387 0.375000
O O2 0.875000 0.875000 0.497598
O O3 0.986953 0.924334 0.442299
O O4 0.895558 0.007040 0.535986
O O5 0.789605 0.053570 0.632664
O O6 0.919733 0.071199 0.678135
O O7 0.860542 0.943531 0.681881
O O8 0.805855 0.363110 0.293452
#
# Coordination Sequence:
#
# PCOD8286577 Si02
#       5
#    32  32  16  16  16
#     4   9  19  35  57  91 123 151 195 244 289 356
#     4  11  21  40  64  85 122 165 195 247 303 353
#     4  10  26  43  57  94 120 148 214 248 292 370
#     4   9  21  35  57  93 125 150 204 244 285 355
#     4  11  24  40  67  82 120 164 195 252 304 357
#
# _framework density 19.920452000000001
#
# number of rings (size 3 to 8) (size 9 to 14) (size 15 to 20)
#    0.000    2.286    1.429    1.714    8.000    0.000 
#    0.000    0.000   12.571    0.000    0.000    0.000 
#    0.000    0.000    0.000    0.000    0.000    0.000 
#
# Total GULP energy -346899.443518 kJ/mol
# GULP energy per Si atom -12389.265840 kJ/mol
# Density = 1.987511 g / cm^3
# Si number density = 19.920452 Si / 1000 Ang^3
#
#
#
# Elastic Constant Matrix: (Units=GPa)
#
#
# Indices 1 2 3 4 5 6 
#
# 1 168.6195 70.4259 52.5029 0.0000 0.0000 0.0000
# 2 70.4259 121.8116 49.1959 0.0000 0.0000 0.0000
# 3 52.5029 49.1959 99.1615 0.0000 0.0000 0.0000
# 4 0.0000 0.0000 0.0000 -9.3289 0.0000 0.0000
# 5 0.0000 0.0000 0.0000 0.0000 35.4214 0.0000
# 6 0.0000 0.0000 0.0000 0.0000 0.0000 28.6278
#
#
#
# Elastic Compliance Matrix: (Units=1/GPa)
#
#
# Indices 1 2 3 4 5 6 
#
# 1 0.008292 -0.003778 -0.002516 0.000000 0.000000 0.000000
# 2 -0.003778 0.011988 -0.003947 0.000000 0.000000 0.000000
# 3 -0.002516 -0.003947 0.013375 0.000000 0.000000 0.000000
# 4 0.000000 0.000000 0.000000 -0.107194 0.000000 0.000000
# 5 0.000000 0.000000 0.000000 0.000000 0.028232 0.000000
# 6 0.000000 0.000000 0.000000 0.000000 0.000000 0.034931
#
#
# Mechanical properties :
#
#
# Convention : Reuss Voigt Hill
#
# Bulk Modulus (GPa) = 75.91510 81.53797 78.72654
# Shear Modulus (GPa) = 344.93177 25.44192 185.18685
#
# Velocity S-wave (km/s) = 13.17310 3.57764 9.65220
# Velocity P-wave (km/s) = 16.41846 7.62146 12.79946
#
# Compressibility (1/GPa) = 0.01317261
#
# Stress axis : x y z
#
# Youngs Moduli (GPa) = 120.60186 83.41925 74.76678
#
# Poissons Ratio (x) = 0.31514 0.18811
# Poissons Ratio (y) = 0.45561 0.29511
# Poissons Ratio (z) = 0.30343 0.32926
#
# Static dielectric constant tensor:
#      x y z
#    x 3.847260 0.000000 0.000000 
#    y 0.000000 3.640280 0.000000 
#    z 0.000000 0.000000 3.397420 
# 
# 
# High freq. dielectric constant tensor:
#      x y z
#    x 1.799010 0.000000 0.000000 
#    y 0.000000 1.783580 0.000000 
#    z 0.000000 0.000000 1.750780 
# 
# From -- ./inp_files/26267.got.cif
#   From: 2010.03.12/outbox.cif.g09.slc.cpg/sg70_14_cif.got.tgz:26267.got - 2010.04.16 13:46:32.
