data_PCOD8286941
_publ_section_title
;
Structure prediction by ZEFSAII (Michael W. Deem and Ramdas Pophale) SiO2 
 PCOD8286941
Probable space group: I M M M
;
_chemical_formula_sum "Si O2"
_cell_formula_units_Z 72
_cell_length_a 12.929030
_cell_length_b 30.203809
_cell_length_c 13.201460
_cell_angle_alpha 90.000000
_cell_angle_beta 90.000000
_cell_angle_gamma 90.000000
_cell_volume 5155.248714
_symmetry_space_group_name_H-M "I M M M"
_symmetry_group_IT_number 71
_symmetry_cell_setting 'orthorhombic'
loop_
_space_group_symop_operation_xyz
x,y,z
-x,-y,z
x,-y,-z
-x,y,-z
-x,-y,-z
x,y,-z
-x,y,z
x,-y,z
1/2+x,1/2+y,1/2+z
1/2-x,1/2-y,1/2+z
1/2+x,1/2-y,1/2-z
1/2-x,1/2+y,1/2-z
1/2-x,1/2-y,1/2-z
1/2+x,1/2+y,1/2-z
1/2-x,1/2+y,1/2+z
1/2+x,1/2-y,1/2+z
loop_
_atom_site_type_symbol
_atom_site_label
_atom_site_fract_x
_atom_site_fract_y
_atom_site_fract_z
Si Si1 0.500000 0.450875 0.119889
Si Si2 0.614488 0.711213 0.194460
Si Si3 0.329940 0.382693 0.879713
Si Si4 0.680277 0.758576 0.384756
Si Si5 0.387979 0.855732 0.380424
O O1 0.500000 0.500000 0.168524
O O2 0.604720 0.425612 0.154617
O O3 0.500000 0.454481 0.000000
O O4 0.500000 0.727506 0.164909
O O5 0.621364 0.658913 0.177113
O O6 0.635636 0.720150 0.313631
O O7 0.695284 0.738346 0.125506
O O8 0.208269 0.387299 0.847124
O O9 0.339408 0.374462 0.000000
O O10 0.649928 0.747483 0.500000
O O11 0.633595 0.805339 0.346766
O O12 0.394926 0.856730 0.500000
O O13 0.500000 0.871254 0.335032
#
# Coordination Sequence:
#
# PCOD8286941 Si02
#       5
#     8  16  16  16  16
#     4   9  16  26  40  56  75  97 121 159 210 250
#     4  10  17  25  39  55  74 103 137 166 196 233
#     4   9  16  25  38  56  75  95 124 161 197 237
#     4   9  18  27  35  53  79 106 135 167 196 224
#     4   8  13  22  35  49  69  99 128 150 178 216
#
# _framework density 13.966348999999999
#
# number of rings (size 3 to 8) (size 9 to 14) (size 15 to 20)
#    0.000    3.000    1.111    2.667    0.000    2.667 
#    0.000    0.000    0.000    0.667    0.000    4.667 
#    0.000    1.778    0.000    0.000    0.000    0.000 
#
# Total GULP energy -446011.034209 kJ/mol
# GULP energy per Si atom -12389.195395 kJ/mol
# Density = 1.393456 g / cm^3
# Si number density = 13.966349 Si / 1000 Ang^3
#
#
#
# Elastic Constant Matrix: (Units=GPa)
#
#
# Indices 1 2 3 4 5 6 
#
# 1 141.1806 44.4638 9.4539 0.0001 -0.0001 0.0000
# 2 44.4638 74.2088 21.1247 0.0003 -0.0001 -0.0001
# 3 9.4539 21.1247 28.2552 0.0019 -0.0004 -0.0003
# 4 0.0001 0.0003 0.0019 10.6788 -0.0003 -0.0002
# 5 -0.0001 -0.0001 -0.0004 -0.0003 8.7549 -0.0001
# 6 0.0000 -0.0001 -0.0003 -0.0002 -0.0001 17.0448
#
#
#
# Elastic Compliance Matrix: (Units=1/GPa)
#
#
# Indices 1 2 3 4 5 6 
#
# 1 0.008766 -0.005612 0.001263 0.000000 0.000000 0.000000
# 2 -0.005612 0.020711 -0.013607 0.000002 0.000000 0.000000
# 3 0.001263 -0.013607 0.045142 -0.000008 0.000002 0.000001
# 4 0.000000 0.000002 -0.000008 0.093643 0.000003 0.000001
# 5 0.000000 0.000000 0.000002 0.000003 0.114222 0.000000
# 6 0.000000 0.000000 0.000001 0.000001 0.000000 0.058669
#
#
# Mechanical properties :
#
#
# Convention : Reuss Voigt Hill
#
# Bulk Modulus (GPa) = 25.83491 43.74772 34.79132
# Shear Modulus (GPa) = 12.82154 18.53584 15.67869
#
# Velocity S-wave (km/s) = 3.03319 3.64700 3.35416
# Velocity P-wave (km/s) = 5.55024 7.00898 6.32182
#
# Compressibility (1/GPa) = 0.03870731
#
# Stress axis : x y z
#
# Youngs Moduli (GPa) = 114.07780 48.28285 22.15220
#
# Poissons Ratio (x) = 0.27095 -0.02797
# Poissons Ratio (y) = 0.64017 0.30142
# Poissons Ratio (z) = -0.14403 0.65698
#
# Static dielectric constant tensor:
#      x y z
#    x 3.335710 0.000000 0.000000 
#    y 0.000000 2.579460 0.000000 
#    z 0.000000 0.000000 2.453350 
# 
# 
# High freq. dielectric constant tensor:
#      x y z
#    x 1.560650 0.000000 0.000000 
#    y 0.000000 1.488540 0.000000 
#    z 0.000000 0.000000 1.486210 
# 
# From -- ./inp_files/22429.got.cif
#   From: 2010.06.25/outbox.cif.g09.slc.cpg/sg71_12_cif.got.tgz:22429.got - 2010.06.28 04:59:45.
