data_PCOD8286341
_publ_section_title
;
Structure prediction by ZEFSAII (Michael W. Deem and Ramdas Pophale) SiO2 
 PCOD8286341
Probable space group: F D D D
;
_chemical_formula_sum "Si O2"
_cell_formula_units_Z 112
_cell_length_a 5.004444
_cell_length_b 33.427720
_cell_length_c 27.377638
_cell_angle_alpha 90.000000
_cell_angle_beta 90.000000
_cell_angle_gamma 90.000000
_cell_volume 4579.927111
_symmetry_space_group_name_H-M "F D D D"
_symmetry_group_IT_number 70
_space_group.IT_coordinate_system_code '2'
_symmetry_cell_setting 'orthorhombic'
loop_
_space_group_symop_operation_xyz
x,y,z
1/4-x,1/4-y,z
x,1/4-y,1/4-z
1/4-x,y,1/4-z
-x,-y,-z
3/4+x,3/4+y,-z
-x,3/4+y,3/4+z
3/4+x,-y,3/4+z
x,1/2+y,1/2+z
1/4-x,3/4-y,1/2+z
x,3/4-y,3/4-z
1/4-x,1/2+y,3/4-z
-x,1/2-y,1/2-z
3/4+x,1/4+y,1/2-z
-x,1/4+y,1/4+z
3/4+x,1/2-y,1/4+z
1/2+x,y,1/2+z
3/4-x,1/4-y,1/2+z
1/2+x,1/4-y,3/4-z
3/4-x,y,3/4-z
1/2-x,-y,1/2-z
1/4+x,3/4+y,1/2-z
1/2-x,3/4+y,1/4+z
1/4+x,-y,1/4+z
1/2+x,1/2+y,z
3/4-x,3/4-y,z
1/2+x,3/4-y,1/4-z
3/4-x,1/2+y,1/4-z
1/2-x,1/2-y,-z
1/4+x,1/4+y,-z
1/2-x,1/4+y,3/4+z
1/4+x,1/2-y,3/4+z
loop_
_atom_site_type_symbol
_atom_site_label
_atom_site_fract_x
_atom_site_fract_y
_atom_site_fract_z
Si Si1 0.739001 0.256454 0.814421
Si Si2 0.625000 0.125000 0.269999
Si Si3 0.232515 0.209842 0.792607
Si Si4 0.125000 0.625000 0.702597
Si Si5 0.625000 0.559560 0.125000
O O1 0.532654 0.219185 0.809732
O O2 0.772431 0.282027 0.765227
O O3 0.635321 0.284236 0.858725
O O4 0.033287 0.238274 0.824124
O O5 0.625713 0.164853 0.303398
O O6 0.371922 0.116662 0.236665
O O7 0.038168 0.586834 0.670492
#
# Coordination Sequence:
#
# PCOD8286341 Si02
#       5
#    32  16  32  16  16
#     4  10  22  39  61  89 126 170 211 260 311 394
#     4  12  22  43  62  94 129 167 212 273 317 396
#     4  10  22  39  62  88 124 171 218 256 312 379
#     4  11  26  36  62  98 133 169 192 267 353 402
#     4  11  24  42  60  96 138 166 208 264 342 402
#
# _framework density 24.454539
#
# number of rings (size 3 to 8) (size 9 to 14) (size 15 to 20)
#    0.000    1.429    2.857    1.714    8.000    5.714 
#    0.000    0.000    0.000    3.429    0.000    0.000 
#    0.000    0.000    0.000    0.000    0.000    0.000 
#
# Total GULP energy -347058.522511 kJ/mol
# GULP energy per Si atom -12394.947233 kJ/mol
# Density = 2.439888 g / cm^3
# Si number density = 24.454539 Si / 1000 Ang^3
#
#
#
# Elastic Constant Matrix: (Units=GPa)
#
#
# Indices 1 2 3 4 5 6 
#
# 1 121.7801 17.4238 26.6310 0.0000 0.0000 0.0000
# 2 17.4238 150.8717 36.9178 0.0000 0.0000 0.0000
# 3 26.6310 36.9178 49.4612 0.0000 0.0000 0.0000
# 4 0.0000 0.0000 0.0000 31.3802 0.0000 0.0000
# 5 0.0000 0.0000 0.0000 0.0000 38.5799 0.0000
# 6 0.0000 0.0000 0.0000 0.0000 0.0000 30.8172
#
#
#
# Elastic Compliance Matrix: (Units=1/GPa)
#
#
# Indices 1 2 3 4 5 6 
#
# 1 0.009312 0.000185 -0.005152 0.000000 0.000000 0.000000
# 2 0.000185 0.008113 -0.006155 0.000000 0.000000 0.000000
# 3 -0.005152 -0.006155 0.027586 0.000000 0.000000 0.000000
# 4 0.000000 0.000000 0.000000 0.031867 0.000000 0.000000
# 5 0.000000 0.000000 0.000000 0.000000 0.025920 0.000000
# 6 0.000000 0.000000 0.000000 0.000000 0.000000 0.032449
#
#
# Mechanical properties :
#
#
# Convention : Reuss Voigt Hill
#
# Bulk Modulus (GPa) = 43.92346 53.78425 48.85385
# Shear Modulus (GPa) = 30.28835 36.23149 33.25992
#
# Velocity S-wave (km/s) = 3.52313 3.85331 3.69192
# Velocity P-wave (km/s) = 5.87794 6.46828 6.18017
#
# Compressibility (1/GPa) = 0.02276688
#
# Stress axis : x y z
#
# Youngs Moduli (GPa) = 107.39254 123.26036 36.25031
#
# Poissons Ratio (x) = -0.02284 0.18676
# Poissons Ratio (y) = -0.01990 0.22313
# Poissons Ratio (z) = 0.55327 0.75869
#
# Static dielectric constant tensor:
#      x y z
#    x 4.386260 0.000000 0.000000 
#    y 0.000000 4.554600 0.000000 
#    z 0.000000 0.000000 4.156150 
# 
# 
# High freq. dielectric constant tensor:
#      x y z
#    x 1.982780 0.000000 0.000000 
#    y 0.000000 1.977180 0.000000 
#    z 0.000000 0.000000 1.950910 
# 
# From -- ./inp_files/62955.got.cif
#   From: 2010.03.12/outbox.cif.g09.slc.cpg/sg70_32_cif.got.tgz:62955.got - 2010.04.16 13:46:32.
