data_PCOD8286248
_publ_section_title
;
Structure prediction by ZEFSAII (Michael W. Deem and Ramdas Pophale) SiO2 
 PCOD8286248
Probable space group: F D D D
;
_chemical_formula_sum "Si O2"
_cell_formula_units_Z 144
_cell_length_a 28.164404
_cell_length_b 9.124340
_cell_length_c 22.211288
_cell_angle_alpha 90.000000
_cell_angle_beta 90.000000
_cell_angle_gamma 90.000000
_cell_volume 5707.892284
_symmetry_space_group_name_H-M "F D D D"
_symmetry_group_IT_number 70
_space_group.IT_coordinate_system_code '2'
_symmetry_cell_setting 'orthorhombic'
loop_
_space_group_symop_operation_xyz
x,y,z
1/4-x,1/4-y,z
x,1/4-y,1/4-z
1/4-x,y,1/4-z
-x,-y,-z
3/4+x,3/4+y,-z
-x,3/4+y,3/4+z
3/4+x,-y,3/4+z
x,1/2+y,1/2+z
1/4-x,3/4-y,1/2+z
x,3/4-y,3/4-z
1/4-x,1/2+y,3/4-z
-x,1/2-y,1/2-z
3/4+x,1/4+y,1/2-z
-x,1/4+y,1/4+z
3/4+x,1/2-y,1/4+z
1/2+x,y,1/2+z
3/4-x,1/4-y,1/2+z
1/2+x,1/4-y,3/4-z
3/4-x,y,3/4-z
1/2-x,-y,1/2-z
1/4+x,3/4+y,1/2-z
1/2-x,3/4+y,1/4+z
1/4+x,-y,1/4+z
1/2+x,1/2+y,z
3/4-x,3/4-y,z
1/2+x,3/4-y,1/4-z
3/4-x,1/2+y,1/4-z
1/2-x,1/2-y,-z
1/4+x,1/4+y,-z
1/2-x,1/4+y,3/4+z
1/4+x,1/2-y,3/4+z
loop_
_atom_site_type_symbol
_atom_site_label
_atom_site_fract_x
_atom_site_fract_y
_atom_site_fract_z
Si Si1 0.066733 0.479393 0.084466
Si Si2 0.264064 0.125000 0.125000
Si Si3 0.417914 0.155456 0.457292
Si Si4 0.243634 0.790088 0.738371
Si Si5 0.572927 0.159199 0.805628
O O1 0.064350 0.625000 0.125000
O O2 0.114629 0.469672 0.044944
O O3 0.066469 0.358302 0.139112
O O4 0.021667 0.448889 0.040332
O O5 0.236338 0.168115 0.185650
O O6 0.296701 0.266035 0.111163
O O7 0.452900 0.286934 0.483624
O O8 0.422611 0.014629 0.498037
O O9 0.205559 0.738665 0.788357
O O10 0.625000 0.125000 0.829771
#
# Coordination Sequence:
#
# PCOD8286248 Si02
#       5
#    32  16  32  32  32
#     4  11  23  41  64  97 138 184 236 292 351 418
#     4  10  22  40  69 100 140 172 232 299 346 424
#     4  10  21  39  64  96 137 175 230 297 347 414
#     4  11  21  40  69  98 132 182 237 292 356 424
#     4  11  21  40  67 100 134 179 233 287 356 427
#
# _framework density 25.228225999999999
#
# number of rings (size 3 to 8) (size 9 to 14) (size 15 to 20)
#    0.000    1.333    2.222    6.667    0.000    0.889 
#    0.000    8.889   12.222    0.000    0.000    0.000 
#    0.000    0.000    0.000    0.000    0.000    0.000 
#
# Total GULP energy -446114.041171 kJ/mol
# GULP energy per Si atom -12392.056699 kJ/mol
# Density = 2.517081 g / cm^3
# Si number density = 25.228226 Si / 1000 Ang^3
#
#
#
# Elastic Constant Matrix: (Units=GPa)
#
#
# Indices 1 2 3 4 5 6 
#
# 1 128.7315 14.7375 36.8767 0.0000 0.0000 0.0000
# 2 14.7375 56.4969 3.4067 0.0000 0.0001 0.0000
# 3 36.8767 3.4067 77.0801 0.0000 0.0000 0.0000
# 4 0.0000 0.0000 0.0000 32.3385 0.0000 0.0000
# 5 0.0000 0.0001 0.0000 0.0000 173.9506 0.0000
# 6 0.0000 0.0000 0.0000 0.0000 0.0000 34.6121
#
#
#
# Elastic Compliance Matrix: (Units=1/GPa)
#
#
# Indices 1 2 3 4 5 6 
#
# 1 0.009256 -0.002153 -0.004333 0.000000 0.000000 0.000000
# 2 -0.002153 0.018248 0.000224 0.000000 0.000000 0.000000
# 3 -0.004333 0.000224 0.015037 0.000000 0.000000 0.000000
# 4 0.000000 0.000000 0.000000 0.030923 0.000000 0.000000
# 5 0.000000 0.000000 0.000000 0.000000 0.005749 0.000000
# 6 0.000000 0.000000 0.000000 0.000000 0.000000 0.028892
#
#
# Mechanical properties :
#
#
# Convention : Reuss Voigt Hill
#
# Bulk Modulus (GPa) = 33.31602 41.37227 37.34414
# Shear Modulus (GPa) = 38.27474 61.99941 50.13707
#
# Velocity S-wave (km/s) = 3.89927 4.96274 4.46280
# Velocity P-wave (km/s) = 5.78852 7.01948 6.43351
#
# Compressibility (1/GPa) = 0.03001559
#
# Stress axis : x y z
#
# Youngs Moduli (GPa) = 108.03972 54.79970 66.50414
#
# Poissons Ratio (x) = 0.11799 0.28816
# Poissons Ratio (y) = 0.23263 -0.01487
# Poissons Ratio (z) = 0.46814 -0.01225
#
# Static dielectric constant tensor:
#      x y z
#    x 4.672190 0.000000 0.000000 
#    y 0.000000 4.587740 0.000000 
#    z 0.000000 0.000000 5.087450 
# 
# 
# High freq. dielectric constant tensor:
#      x y z
#    x 2.006220 0.000000 0.000000 
#    y 0.000000 2.002840 0.000000 
#    z 0.000000 0.000000 2.017150 
# 
# From -- ./inp_files/54180.got.cif
#   From: 2010.03.12/outbox.cif.g09.slc.cpg/sg70_28_cif.got.tgz:54180.got - 2010.04.16 13:46:32.
