data_PCOD8286455
_publ_section_title
;
Structure prediction by ZEFSAII (Michael W. Deem and Ramdas Pophale) SiO2 
 PCOD8286455
Probable space group: F D D D
;
_chemical_formula_sum "Si O2"
_cell_formula_units_Z 216
_cell_length_a 28.052866
_cell_length_b 14.935997
_cell_length_c 22.964539
_cell_angle_alpha 90.000000
_cell_angle_beta 90.000000
_cell_angle_gamma 90.000000
_cell_volume 9622.084944
_symmetry_space_group_name_H-M "F D D D"
_symmetry_group_IT_number 70
_space_group.IT_coordinate_system_code '2'
_symmetry_cell_setting 'orthorhombic'
loop_
_space_group_symop_operation_xyz
x,y,z
1/4-x,1/4-y,z
x,1/4-y,1/4-z
1/4-x,y,1/4-z
-x,-y,-z
3/4+x,3/4+y,-z
-x,3/4+y,3/4+z
3/4+x,-y,3/4+z
x,1/2+y,1/2+z
1/4-x,3/4-y,1/2+z
x,3/4-y,3/4-z
1/4-x,1/2+y,3/4-z
-x,1/2-y,1/2-z
3/4+x,1/4+y,1/2-z
-x,1/4+y,1/4+z
3/4+x,1/2-y,1/4+z
1/2+x,y,1/2+z
3/4-x,1/4-y,1/2+z
1/2+x,1/4-y,3/4-z
3/4-x,y,3/4-z
1/2-x,-y,1/2-z
1/4+x,3/4+y,1/2-z
1/2-x,3/4+y,1/4+z
1/4+x,-y,1/4+z
1/2+x,1/2+y,z
3/4-x,3/4-y,z
1/2+x,3/4-y,1/4-z
3/4-x,1/2+y,1/4-z
1/2-x,1/2-y,-z
1/4+x,1/4+y,-z
1/2-x,1/4+y,3/4+z
1/4+x,1/2-y,3/4+z
loop_
_atom_site_type_symbol
_atom_site_label
_atom_site_fract_x
_atom_site_fract_y
_atom_site_fract_z
Si Si1 0.432680 0.234618 0.301036
Si Si2 0.449741 0.771248 0.548992
Si Si3 0.960653 0.309458 0.681345
Si Si4 0.169815 0.673052 0.534795
Si Si5 0.757309 0.875000 0.875000
Si Si6 0.627658 0.354502 0.501665
Si Si7 0.125000 0.125000 0.625000
Si Si8 0.458865 0.009575 0.717625
O O1 0.436852 0.248183 0.230913
O O2 0.483370 0.208489 0.325910
O O3 0.398002 0.148486 0.308140
O O4 0.410295 0.318361 0.334541
O O5 0.443086 0.784074 0.617569
O O6 0.430337 0.862678 0.521397
O O7 0.415787 0.685657 0.537036
O O8 0.503424 0.757694 0.522197
O O9 0.946401 0.408604 0.701301
O O10 0.125000 0.625000 0.566373
O O11 0.212707 0.680896 0.578967
O O12 0.162807 0.775137 0.517466
O O13 0.728393 0.800055 0.841828
O O14 0.660362 0.435502 0.477925
#
# Coordination Sequence:
#
# PCOD8286455 Si02
#       8
#    32  32  32  32  16  32   8  32
#     4  11  27  47  73 103 136 186 249 297 375 439
#     4  10  24  47  70 103 149 189 243 307 375 446
#     4  11  26  48  72  99 142 195 236 308 374 443
#     4   9  21  43  66 100 143 187 230 300 365 436
#     4  10  23  38  64 105 138 178 233 284 361 454
#     4  11  24  47  70 105 141 192 244 296 368 447
#     4  12  28  48  72 114 146 180 242 326 360 448
#     4  11  25  42  70 108 141 187 247 299 371 444
#
# _framework density 22.448357999999999
#
# number of rings (size 3 to 8) (size 9 to 14) (size 15 to 20)
#    0.000    1.481    1.481    1.111    8.296    2.963 
#    9.333    0.000    0.000    0.000    0.000    0.000 
#    0.000    0.000    0.000    0.000    0.000    0.000 
#
# Total GULP energy -669035.132825 kJ/mol
# GULP energy per Si atom -12389.539497 kJ/mol
# Density = 2.239726 g / cm^3
# Si number density = 22.448358 Si / 1000 Ang^3
#
#
#
# Elastic Constant Matrix: (Units=GPa)
#
#
# Indices 1 2 3 4 5 6 
#
# 1 116.6437 46.6341 27.9181 0.0000 0.0000 0.0000
# 2 46.6341 134.0131 27.4453 0.0000 0.0000 0.0000
# 3 27.9181 27.4453 100.2930 0.0000 0.0000 0.0000
# 4 0.0000 0.0000 0.0000 27.5205 0.0000 0.0000
# 5 0.0000 0.0000 0.0000 0.0000 213.0926 0.0000
# 6 0.0000 0.0000 0.0000 0.0000 0.0000 42.9592
#
#
#
# Elastic Compliance Matrix: (Units=1/GPa)
#
#
# Indices 1 2 3 4 5 6 
#
# 1 0.010325 -0.003183 -0.002003 0.000000 0.000000 0.000000
# 2 -0.003183 0.008886 -0.001546 0.000000 0.000000 0.000000
# 3 -0.002003 -0.001546 0.010951 0.000000 0.000000 0.000000
# 4 0.000000 0.000000 0.000000 0.036337 0.000000 0.000000
# 5 0.000000 0.000000 0.000000 0.000000 0.004693 0.000000
# 6 0.000000 0.000000 0.000000 0.000000 0.000000 0.023278
#
#
# Mechanical properties :
#
#
# Convention : Reuss Voigt Hill
#
# Bulk Modulus (GPa) = 59.88288 61.66053 60.77171
# Shear Modulus (GPa) = 44.05316 73.31127 58.68221
#
# Velocity S-wave (km/s) = 4.43473 5.72089 5.11837
# Velocity P-wave (km/s) = 7.27710 8.43597 7.87787
#
# Compressibility (1/GPa) = 0.01669926
#
# Stress axis : x y z
#
# Youngs Moduli (GPa) = 96.85228 112.53629 91.31258
#
# Poissons Ratio (x) = 0.35817 0.18292
# Poissons Ratio (y) = 0.30825 0.14114
# Poissons Ratio (z) = 0.19401 0.17395
#
# Static dielectric constant tensor:
#      x y z
#    x 4.324810 0.000000 0.000000 
#    y 0.000000 4.096830 0.000000 
#    z 0.000000 0.000000 3.905660 
# 
# 
# High freq. dielectric constant tensor:
#      x y z
#    x 1.900250 0.000000 0.000000 
#    y 0.000000 1.901420 0.000000 
#    z 0.000000 0.000000 1.874610 
# 
# From -- ./inp_files/55151.got.cif
#   From: 2010.03.12/outbox.cif.g09.slc.cpg/sg70_28_cif.got.tgz:55151.got - 2010.04.16 13:46:32.
