data_PCOD8286376
_publ_section_title
;
Structure prediction by ZEFSAII (Michael W. Deem and Ramdas Pophale) SiO2 
 PCOD8286376
Probable space group: F D D D
;
_chemical_formula_sum "Si O2"
_cell_formula_units_Z 192
_cell_length_a 11.421927
_cell_length_b 28.075789
_cell_length_c 28.115446
_cell_angle_alpha 90.000000
_cell_angle_beta 90.000000
_cell_angle_gamma 90.000000
_cell_volume 9016.050326
_symmetry_space_group_name_H-M "F D D D"
_symmetry_group_IT_number 70
_space_group.IT_coordinate_system_code '2'
_symmetry_cell_setting 'orthorhombic'
loop_
_space_group_symop_operation_xyz
x,y,z
1/4-x,1/4-y,z
x,1/4-y,1/4-z
1/4-x,y,1/4-z
-x,-y,-z
3/4+x,3/4+y,-z
-x,3/4+y,3/4+z
3/4+x,-y,3/4+z
x,1/2+y,1/2+z
1/4-x,3/4-y,1/2+z
x,3/4-y,3/4-z
1/4-x,1/2+y,3/4-z
-x,1/2-y,1/2-z
3/4+x,1/4+y,1/2-z
-x,1/4+y,1/4+z
3/4+x,1/2-y,1/4+z
1/2+x,y,1/2+z
3/4-x,1/4-y,1/2+z
1/2+x,1/4-y,3/4-z
3/4-x,y,3/4-z
1/2-x,-y,1/2-z
1/4+x,3/4+y,1/2-z
1/2-x,3/4+y,1/4+z
1/4+x,-y,1/4+z
1/2+x,1/2+y,z
3/4-x,3/4-y,z
1/2+x,3/4-y,1/4-z
3/4-x,1/2+y,1/4-z
1/2-x,1/2-y,-z
1/4+x,1/4+y,-z
1/2-x,1/4+y,3/4+z
1/4+x,1/2-y,3/4+z
loop_
_atom_site_type_symbol
_atom_site_label
_atom_site_fract_x
_atom_site_fract_y
_atom_site_fract_z
Si Si1 0.375000 0.060712 0.375000
Si Si2 0.595768 0.326687 0.974195
Si Si3 0.927449 0.922197 0.426615
Si Si4 0.266760 0.766952 0.768721
Si Si5 0.454321 0.279106 0.704423
Si Si6 0.375000 0.875000 0.499898
Si Si7 0.491972 0.640725 0.459483
O O1 0.291874 0.027300 0.341027
O O2 0.453760 0.095946 0.343666
O O3 0.681258 0.329614 0.928192
O O4 0.477904 0.356592 0.965266
O O5 0.556813 0.272437 0.981062
O O6 0.665560 0.346762 0.020176
O O7 0.875000 0.921574 0.375000
O O8 0.875000 0.875000 0.453443
O O9 0.883442 0.969261 0.452720
O O10 0.170616 0.746518 0.806204
O O11 0.215228 0.812471 0.741181
O O12 0.500000 0.250000 0.750000
O O13 0.429166 0.334177 0.716584
O O14 0.625000 0.625000 0.456745
#
# Coordination Sequence:
#
# PCOD8286376 Si02
#       7
#    16  32  32  32  32  16  32
#     4  12  26  42  68  99 140 182 233 292 362 430
#     4  11  21  41  70  96 134 179 228 280 355 412
#     4  11  23  41  66  96 131 177 225 280 341 412
#     4  11  22  41  69  95 132 182 225 281 354 416
#     4  11  23  43  67  96 138 183 228 288 357 425
#     4  10  22  40  70  97 128 184 232 284 357 422
#     4  12  24  42  69  98 136 177 227 289 355 420
#
# _framework density 21.295356000000002
#
# number of rings (size 3 to 8) (size 9 to 14) (size 15 to 20)
#    0.000    0.833    6.667    0.500    1.167    1.333 
#    1.500    0.000    0.000    2.500    0.000    0.000 
#    0.000    0.000    0.000    0.000    0.000    0.000 
#
# Total GULP energy -594974.420697 kJ/mol
# GULP energy per Si atom -12395.300431 kJ/mol
# Density = 2.124689 g / cm^3
# Si number density = 21.295356 Si / 1000 Ang^3
#
#
#
# Elastic Constant Matrix: (Units=GPa)
#
#
# Indices 1 2 3 4 5 6 
#
# 1 153.1948 41.1180 53.8897 0.0000 0.0000 0.0000
# 2 41.1180 111.9822 29.9538 0.0000 0.0000 0.0000
# 3 53.8897 29.9538 102.2295 0.0000 0.0000 0.0000
# 4 0.0000 0.0000 0.0000 14.3948 0.0000 0.0000
# 5 0.0000 0.0000 0.0000 0.0000 38.0035 0.0000
# 6 0.0000 0.0000 0.0000 0.0000 0.0000 39.0052
#
#
#
# Elastic Compliance Matrix: (Units=1/GPa)
#
#
# Indices 1 2 3 4 5 6 
#
# 1 0.008434 -0.002070 -0.003839 0.000000 0.000000 0.000000
# 2 -0.002070 0.010197 -0.001897 0.000000 0.000000 0.000000
# 3 -0.003839 -0.001897 0.012362 0.000000 0.000000 0.000000
# 4 0.000000 0.000000 0.000000 0.069470 0.000000 0.000000
# 5 0.000000 0.000000 0.000000 0.000000 0.026313 0.000000
# 6 0.000000 0.000000 0.000000 0.000000 0.000000 0.025638
#
#
# Mechanical properties :
#
#
# Convention : Reuss Voigt Hill
#
# Bulk Modulus (GPa) = 65.01599 68.59214 66.80407
# Shear Modulus (GPa) = 28.87634 34.44369 31.66001
#
# Velocity S-wave (km/s) = 3.68637 4.02609 3.85997
# Velocity P-wave (km/s) = 6.97969 7.34114 7.16269
#
# Compressibility (1/GPa) = 0.01538083
#
# Stress axis : x y z
#
# Youngs Moduli (GPa) = 118.57130 98.06472 80.89579
#
# Poissons Ratio (x) = 0.20297 0.31059
# Poissons Ratio (y) = 0.24541 0.15344
# Poissons Ratio (z) = 0.45524 0.18601
#
# Static dielectric constant tensor:
#      x y z
#    x 4.363960 0.000000 0.000000 
#    y 0.000000 4.556490 0.000000 
#    z 0.000000 0.000000 3.682530 
# 
# 
# High freq. dielectric constant tensor:
#      x y z
#    x 1.861420 0.000000 0.000000 
#    y 0.000000 1.844880 0.000000 
#    z 0.000000 0.000000 1.796090 
# 
# From -- ./inp_files/57826.got.cif
#   From: 2010.03.12/outbox.cif.g09.slc.cpg/sg70_29_cif.got.tgz:57826.got - 2010.04.16 13:46:32.
