data_PCOD8286580
_publ_section_title
;
Structure prediction by ZEFSAII (Michael W. Deem and Ramdas Pophale) SiO2 
 PCOD8286580
Probable space group: F D D D
;
_chemical_formula_sum "Si O2"
_cell_formula_units_Z 192
_cell_length_a 25.572755
_cell_length_b 14.660453
_cell_length_c 25.560746
_cell_angle_alpha 90.000000
_cell_angle_beta 90.000000
_cell_angle_gamma 90.000000
_cell_volume 9582.932577
_symmetry_space_group_name_H-M "F D D D"
_symmetry_group_IT_number 70
_space_group.IT_coordinate_system_code '2'
_symmetry_cell_setting 'orthorhombic'
loop_
_space_group_symop_operation_xyz
x,y,z
1/4-x,1/4-y,z
x,1/4-y,1/4-z
1/4-x,y,1/4-z
-x,-y,-z
3/4+x,3/4+y,-z
-x,3/4+y,3/4+z
3/4+x,-y,3/4+z
x,1/2+y,1/2+z
1/4-x,3/4-y,1/2+z
x,3/4-y,3/4-z
1/4-x,1/2+y,3/4-z
-x,1/2-y,1/2-z
3/4+x,1/4+y,1/2-z
-x,1/4+y,1/4+z
3/4+x,1/2-y,1/4+z
1/2+x,y,1/2+z
3/4-x,1/4-y,1/2+z
1/2+x,1/4-y,3/4-z
3/4-x,y,3/4-z
1/2-x,-y,1/2-z
1/4+x,3/4+y,1/2-z
1/2-x,3/4+y,1/4+z
1/4+x,-y,1/4+z
1/2+x,1/2+y,z
3/4-x,3/4-y,z
1/2+x,3/4-y,1/4-z
3/4-x,1/2+y,1/4-z
1/2-x,1/2-y,-z
1/4+x,1/4+y,-z
1/2-x,1/4+y,3/4+z
1/4+x,1/2-y,3/4+z
loop_
_atom_site_type_symbol
_atom_site_label
_atom_site_fract_x
_atom_site_fract_y
_atom_site_fract_z
Si Si1 0.742198 0.357075 0.507120
Si Si2 0.322996 0.424035 0.927596
Si Si3 0.929882 0.125000 0.625000
Si Si4 0.131248 0.315720 0.773666
Si Si5 0.167137 0.363677 0.582495
Si Si6 0.125000 0.125000 0.428237
Si Si7 0.727049 0.183953 0.868304
O O1 0.750000 0.250000 0.500000
O O2 0.778711 0.417201 0.470521
O O3 0.683543 0.381937 0.492233
O O4 0.756201 0.382964 0.565849
O O5 0.303134 0.375000 0.875000
O O6 0.375000 0.375000 0.949050
O O7 0.335710 0.527735 0.915722
O O8 0.892782 0.110734 0.575283
O O9 0.967521 0.208860 0.610877
O O10 0.092821 0.325223 0.724996
O O11 0.139336 0.208939 0.784221
O O12 0.125000 0.326184 0.625000
O O13 0.225158 0.327846 0.592423
O O14 0.174594 0.139738 0.391007
#
# Coordination Sequence:
#
# PCOD8286580 Si02
#       7
#    32  32  16  32  32  16  32
#     4  12  25  37  68 104 139 180 219 285 345 426
#     4  11  22  38  60  94 138 178 216 261 338 406
#     4  10  26  46  69  98 131 184 224 290 332 416
#     4  11  25  45  68  98 135 173 233 274 351 402
#     4  12  22  44  65  94 129 175 222 282 332 408
#     4  10  26  46  69  98 131 184 224 290 332 416
#     4  11  25  45  68  98 135 173 233 274 351 402
#
# _framework density 20.035620999999999
#
# number of rings (size 3 to 8) (size 9 to 14) (size 15 to 20)
#    0.000    0.833    3.333    4.000    7.000    4.000 
#    0.000    0.000    0.000    0.000    0.000    0.000 
#    0.000    0.000    0.000    0.000    0.000    0.000 
#
# Total GULP energy -595387.310414 kJ/mol
# GULP energy per Si atom -12403.902300 kJ/mol
# Density = 1.999002 g / cm^3
# Si number density = 20.035621 Si / 1000 Ang^3
#
#
#
# Elastic Constant Matrix: (Units=GPa)
#
#
# Indices 1 2 3 4 5 6 
#
# 1 151.2733 53.7536 69.5836 0.0000 0.0000 0.0000
# 2 53.7536 153.2818 30.4162 0.0000 0.0000 0.0000
# 3 69.5836 30.4162 79.2121 0.0000 0.0000 0.0000
# 4 0.0000 0.0000 0.0000 34.7768 0.0000 0.0000
# 5 0.0000 0.0000 0.0000 0.0000 47.4030 0.0000
# 6 0.0000 0.0000 0.0000 0.0000 0.0000 31.9388
#
#
#
# Elastic Compliance Matrix: (Units=1/GPa)
#
#
# Indices 1 2 3 4 5 6 
#
# 1 0.011767 -0.002246 -0.009474 0.000000 0.000000 0.000000
# 2 -0.002246 0.007491 -0.000903 0.000000 0.000000 0.000000
# 3 -0.009474 -0.000903 0.021293 0.000000 0.000000 0.000000
# 4 0.000000 0.000000 0.000000 0.028755 0.000000 0.000000
# 5 0.000000 0.000000 0.000000 0.000000 0.021096 0.000000
# 6 0.000000 0.000000 0.000000 0.000000 0.000000 0.031310
#
#
# Mechanical properties :
#
#
# Convention : Reuss Voigt Hill
#
# Bulk Modulus (GPa) = 65.34079 76.80824 71.07451
# Shear Modulus (GPa) = 32.88200 38.15798 35.51999
#
# Velocity S-wave (km/s) = 4.05554 4.36880 4.21508
# Velocity P-wave (km/s) = 7.39006 7.99172 7.69677
#
# Compressibility (1/GPa) = 0.01530438
#
# Stress axis : x y z
#
# Youngs Moduli (GPa) = 84.98640 133.49496 46.96330
#
# Poissons Ratio (x) = 0.29989 0.44492
# Poissons Ratio (y) = 0.19092 0.04241
# Poissons Ratio (z) = 0.80514 0.12055
#
# Static dielectric constant tensor:
#      x y z
#    x 3.775070 0.000000 0.000000 
#    y 0.000000 3.768880 0.000000 
#    z 0.000000 0.000000 3.776490 
# 
# 
# High freq. dielectric constant tensor:
#      x y z
#    x 1.795760 0.000000 0.000000 
#    y 0.000000 1.790220 0.000000 
#    z 0.000000 0.000000 1.795400 
# 
# From -- ./inp_files/61781.got.cif
#   From: 2010.03.12/outbox.cif.g09.slc.cpg/sg70_31_cif.got.tgz:61781.got - 2010.04.16 13:46:32.
