data_PCOD8286375
_publ_section_title
;
Structure prediction by ZEFSAII (Michael W. Deem and Ramdas Pophale) SiO2 
 PCOD8286375
Probable space group: F D D D
;
_chemical_formula_sum "Si O2"
_cell_formula_units_Z 136
_cell_length_a 16.053947
_cell_length_b 21.700610
_cell_length_c 16.053945
_cell_angle_alpha 90.000000
_cell_angle_beta 90.000000
_cell_angle_gamma 90.000000
_cell_volume 5592.880468
_symmetry_space_group_name_H-M "F D D D"
_symmetry_group_IT_number 70
_space_group.IT_coordinate_system_code '2'
_symmetry_cell_setting 'orthorhombic'
loop_
_space_group_symop_operation_xyz
x,y,z
1/4-x,1/4-y,z
x,1/4-y,1/4-z
1/4-x,y,1/4-z
-x,-y,-z
3/4+x,3/4+y,-z
-x,3/4+y,3/4+z
3/4+x,-y,3/4+z
x,1/2+y,1/2+z
1/4-x,3/4-y,1/2+z
x,3/4-y,3/4-z
1/4-x,1/2+y,3/4-z
-x,1/2-y,1/2-z
3/4+x,1/4+y,1/2-z
-x,1/4+y,1/4+z
3/4+x,1/2-y,1/4+z
1/2+x,y,1/2+z
3/4-x,1/4-y,1/2+z
1/2+x,1/4-y,3/4-z
3/4-x,y,3/4-z
1/2-x,-y,1/2-z
1/4+x,3/4+y,1/2-z
1/2-x,3/4+y,1/4+z
1/4+x,-y,1/4+z
1/2+x,1/2+y,z
3/4-x,3/4-y,z
1/2+x,3/4-y,1/4-z
3/4-x,1/2+y,1/4-z
1/2-x,1/2-y,-z
1/4+x,1/4+y,-z
1/2-x,1/4+y,3/4+z
1/4+x,1/2-y,3/4+z
loop_
_atom_site_type_symbol
_atom_site_label
_atom_site_fract_x
_atom_site_fract_y
_atom_site_fract_z
Si Si1 0.875000 0.375000 0.375000
Si Si2 0.808033 0.321359 0.677634
Si Si3 0.747224 0.337063 0.502776
Si Si4 0.555319 0.972579 0.194681
Si Si5 0.177634 0.821359 0.808033
O O1 0.817755 0.331456 0.432245
O O2 0.875000 0.375000 0.675373
O O3 0.780401 0.302702 0.584796
O O4 0.842397 0.260374 0.725596
O O5 0.727453 0.347418 0.727453
O O6 0.727117 0.407865 0.522884
O O7 0.665203 0.302702 0.469599
O O8 0.625000 0.965002 0.125000
O O9 0.475596 0.010374 0.157603
O O10 0.175373 0.875000 0.875000
#
# Coordination Sequence:
#
# PCOD8286375 Si02
#       5
#     8  32  32  32  32
#     4  12  28  48  68  96 148 188 252 296 368 412
#     4  10  22  40  69  99 145 179 235 308 348 432
#     4  12  24  49  69 102 144 202 243 300 363 439
#     4  10  24  42  77 108 139 191 240 296 387 433
#     4  10  22  40  69  99 145 179 235 308 348 432
#
# _framework density 24.316628999999999
#
# number of rings (size 3 to 8) (size 9 to 14) (size 15 to 20)
#    1.412    0.000    2.353    3.529    0.000    3.765 
#    0.000    7.059    0.000    0.000    0.000    0.000 
#    0.000    0.000    0.000    0.000    0.000    0.000 
#
# Total GULP energy -421515.214683 kJ/mol
# GULP energy per Si atom -12397.506314 kJ/mol
# Density = 2.426128 g / cm^3
# Si number density = 24.316629 Si / 1000 Ang^3
#
#
#
# Elastic Constant Matrix: (Units=GPa)
#
#
# Indices 1 2 3 4 5 6 
#
# 1 160.3432 19.0166 58.3276 0.0000 0.0000 0.0000
# 2 19.0166 115.3646 19.0166 0.0000 0.0000 0.0000
# 3 58.3276 19.0166 160.3431 0.0000 0.0000 0.0000
# 4 0.0000 0.0000 0.0000 6.8842 0.0000 0.0000
# 5 0.0000 0.0000 0.0000 0.0000 55.5423 0.0000
# 6 0.0000 0.0000 0.0000 0.0000 0.0000 6.8842
#
#
#
# Elastic Compliance Matrix: (Units=1/GPa)
#
#
# Indices 1 2 3 4 5 6 
#
# 1 0.007255 -0.000776 -0.002547 0.000000 0.000000 0.000000
# 2 -0.000776 0.008924 -0.000776 0.000000 0.000000 0.000000
# 3 -0.002547 -0.000776 0.007255 0.000000 0.000000 0.000000
# 4 0.000000 0.000000 0.000000 0.145260 0.000000 0.000000
# 5 0.000000 0.000000 0.000000 0.000000 0.018004 0.000000
# 6 0.000000 0.000000 0.000000 0.000000 0.000000 0.145260
#
#
# Mechanical properties :
#
#
# Convention : Reuss Voigt Hill
#
# Bulk Modulus (GPa) = 65.63459 69.86359 67.74909
# Shear Modulus (GPa) = 14.48286 36.50815 25.49550
#
# Velocity S-wave (km/s) = 2.44313 3.87895 3.24154
# Velocity P-wave (km/s) = 5.91682 6.98962 6.47548
#
# Compressibility (1/GPa) = 0.01523587
#
# Stress axis : x y z
#
# Youngs Moduli (GPa) = 137.83125 112.05707 137.83118
#
# Poissons Ratio (x) = 0.08696 0.35108
# Poissons Ratio (y) = 0.10697 0.10697
# Poissons Ratio (z) = 0.35108 0.08696
#
# Static dielectric constant tensor:
#      x y z
#    x 4.589380 0.000000 0.000000 
#    y 0.000000 4.006000 0.000000 
#    z 0.000000 0.000000 4.589370 
# 
# 
# High freq. dielectric constant tensor:
#      x y z
#    x 1.976000 0.000000 0.000000 
#    y 0.000000 1.961460 0.000000 
#    z 0.000000 0.000000 1.976000 
# 
# From -- ./inp_files/34703.got.cif
#   From: 2010.03.12/outbox.cif.g09.slc.cpg/sg70_18_cif.got.tgz:34703.got - 2010.04.16 13:46:32.
