data_PCOD8286667
_publ_section_title
;
Structure prediction by ZEFSAII (Michael W. Deem and Ramdas Pophale) SiO2 
 PCOD8286667
Probable space group: F D D D
;
_chemical_formula_sum "Si O2"
_cell_formula_units_Z 208
_cell_length_a 25.168644
_cell_length_b 19.666483
_cell_length_c 18.305945
_cell_angle_alpha 90.000000
_cell_angle_beta 90.000000
_cell_angle_gamma 90.000000
_cell_volume 9061.053030
_symmetry_space_group_name_H-M "F D D D"
_symmetry_group_IT_number 70
_space_group.IT_coordinate_system_code '2'
_symmetry_cell_setting 'orthorhombic'
loop_
_space_group_symop_operation_xyz
x,y,z
1/4-x,1/4-y,z
x,1/4-y,1/4-z
1/4-x,y,1/4-z
-x,-y,-z
3/4+x,3/4+y,-z
-x,3/4+y,3/4+z
3/4+x,-y,3/4+z
x,1/2+y,1/2+z
1/4-x,3/4-y,1/2+z
x,3/4-y,3/4-z
1/4-x,1/2+y,3/4-z
-x,1/2-y,1/2-z
3/4+x,1/4+y,1/2-z
-x,1/4+y,1/4+z
3/4+x,1/2-y,1/4+z
1/2+x,y,1/2+z
3/4-x,1/4-y,1/2+z
1/2+x,1/4-y,3/4-z
3/4-x,y,3/4-z
1/2-x,-y,1/2-z
1/4+x,3/4+y,1/2-z
1/2-x,3/4+y,1/4+z
1/4+x,-y,1/4+z
1/2+x,1/2+y,z
3/4-x,3/4-y,z
1/2+x,3/4-y,1/4-z
3/4-x,1/2+y,1/4-z
1/2-x,1/2-y,-z
1/4+x,1/4+y,-z
1/2-x,1/4+y,3/4+z
1/4+x,1/2-y,3/4+z
loop_
_atom_site_type_symbol
_atom_site_label
_atom_site_fract_x
_atom_site_fract_y
_atom_site_fract_z
Si Si1 0.062535 0.115836 0.439312
Si Si2 0.382232 0.653836 0.008385
Si Si3 0.514368 0.254346 0.574062
Si Si4 0.004918 0.233429 0.907101
Si Si5 0.452280 0.625000 0.625000
Si Si6 0.968404 0.125000 0.125000
Si Si7 0.125000 0.313599 0.125000
Si Si8 0.085304 0.723378 0.182540
O O1 0.125000 0.125000 0.433050
O O2 0.026338 0.181886 0.423544
O O3 0.050571 0.062987 0.375466
O O4 0.051986 0.082669 0.520059
O O5 0.331941 0.624239 0.051144
O O6 0.434221 0.645349 0.055696
O O7 0.397525 0.610320 0.938434
O O8 0.370967 0.732810 0.989616
O O9 0.506791 0.222326 0.493394
O O10 0.502217 0.194849 0.633992
O O11 0.575497 0.271498 0.591847
O O12 0.010640 0.310877 0.882625
O O13 0.949213 0.220594 0.864024
O O14 0.125000 0.686493 0.125000
#
# Coordination Sequence:
#
# PCOD8286667 Si02
#       8
#    32  32  32  32  16  16  16  32
#     4  12  27  46  70 113 150 192 245 317 378 450
#     4  11  23  44  75 107 146 203 250 301 379 465
#     4  12  29  50  74 108 150 198 264 322 380 452
#     4  12  25  44  72 111 144 196 240 308 378 449
#     4  11  22  42  73 103 151 191 244 297 368 454
#     4  11  28  51  76 105 143 206 263 323 380 450
#     4  12  26  47  76 110 151 204 260 312 384 455
#     4  12  24  42  74 110 157 197 237 297 381 470
#
# _framework density 22.955387999999999
#
# number of rings (size 3 to 8) (size 9 to 14) (size 15 to 20)
#    0.000    0.308    3.846    5.077    4.308    2.462 
#    2.769    0.000    0.000    0.000    0.000    0.000 
#    0.000    0.000    0.000    0.000    0.000    0.000 
#
# Total GULP energy -644409.256982 kJ/mol
# GULP energy per Si atom -12392.485711 kJ/mol
# Density = 2.290314 g / cm^3
# Si number density = 22.955388 Si / 1000 Ang^3
#
#
#
# Elastic Constant Matrix: (Units=GPa)
#
#
# Indices 1 2 3 4 5 6 
#
# 1 110.0115 35.8532 35.0112 0.0000 0.0000 0.0000
# 2 35.8532 124.5923 44.0027 0.0000 0.0000 0.0000
# 3 35.0112 44.0027 110.2478 0.0000 0.0000 0.0000
# 4 0.0000 0.0000 0.0000 18.3416 0.0000 0.0000
# 5 0.0000 0.0000 0.0000 0.0000 90.9904 0.0000
# 6 0.0000 0.0000 0.0000 0.0000 0.0000 99.3159
#
#
#
# Elastic Compliance Matrix: (Units=1/GPa)
#
#
# Indices 1 2 3 4 5 6 
#
# 1 0.010591 -0.002165 -0.002499 0.000000 0.000000 0.000000
# 2 -0.002165 0.009786 -0.003218 0.000000 0.000000 0.000000
# 3 -0.002499 -0.003218 0.011149 0.000000 0.000000 0.000000
# 4 0.000000 0.000000 0.000000 0.054521 0.000000 0.000000
# 5 0.000000 0.000000 0.000000 0.000000 0.010990 0.000000
# 6 0.000000 0.000000 0.000000 0.000000 0.000000 0.010069
#
#
# Mechanical properties :
#
#
# Convention : Reuss Voigt Hill
#
# Bulk Modulus (GPa) = 63.45016 63.84287 63.64651
# Shear Modulus (GPa) = 39.02476 57.06187 48.04332
#
# Velocity S-wave (km/s) = 4.12761 4.99116 4.57978
# Velocity P-wave (km/s) = 7.10048 7.81586 7.46674
#
# Compressibility (1/GPa) = 0.01576040
#
# Stress axis : x y z
#
# Youngs Moduli (GPa) = 94.42043 102.18909 89.69721
#
# Poissons Ratio (x) = 0.22124 0.22417
# Poissons Ratio (y) = 0.20442 0.28866
# Poissons Ratio (z) = 0.23598 0.32887
#
# Static dielectric constant tensor:
#      x y z
#    x 3.850650 0.000000 0.000000 
#    y 0.000000 4.337530 0.000000 
#    z 0.000000 0.000000 4.135500 
# 
# 
# High freq. dielectric constant tensor:
#      x y z
#    x 1.918340 0.000000 0.000000 
#    y 0.000000 1.903900 0.000000 
#    z 0.000000 0.000000 1.913240 
# 
# From -- ./inp_files/38781.got.cif
#   From: 2010.03.12/outbox.cif.g09.slc.cpg/sg70_20_cif.got.tgz:38781.got - 2010.04.16 13:46:32.
