data_PCOD8286189
_publ_section_title
;
Structure prediction by ZEFSAII (Michael W. Deem and Ramdas Pophale) SiO2 
 PCOD8286189
Probable space group: F D D D
;
_chemical_formula_sum "Si O2"
_cell_formula_units_Z 96
_cell_length_a 6.457368
_cell_length_b 17.091699
_cell_length_c 31.202339
_cell_angle_alpha 90.000000
_cell_angle_beta 90.000000
_cell_angle_gamma 90.000000
_cell_volume 3443.720723
_symmetry_space_group_name_H-M "F D D D"
_symmetry_group_IT_number 70
_space_group.IT_coordinate_system_code '2'
_symmetry_cell_setting 'orthorhombic'
loop_
_space_group_symop_operation_xyz
x,y,z
1/4-x,1/4-y,z
x,1/4-y,1/4-z
1/4-x,y,1/4-z
-x,-y,-z
3/4+x,3/4+y,-z
-x,3/4+y,3/4+z
3/4+x,-y,3/4+z
x,1/2+y,1/2+z
1/4-x,3/4-y,1/2+z
x,3/4-y,3/4-z
1/4-x,1/2+y,3/4-z
-x,1/2-y,1/2-z
3/4+x,1/4+y,1/2-z
-x,1/4+y,1/4+z
3/4+x,1/2-y,1/4+z
1/2+x,y,1/2+z
3/4-x,1/4-y,1/2+z
1/2+x,1/4-y,3/4-z
3/4-x,y,3/4-z
1/2-x,-y,1/2-z
1/4+x,3/4+y,1/2-z
1/2-x,3/4+y,1/4+z
1/4+x,-y,1/4+z
1/2+x,1/2+y,z
3/4-x,3/4-y,z
1/2+x,3/4-y,1/4-z
3/4-x,1/2+y,1/4-z
1/2-x,1/2-y,-z
1/4+x,1/4+y,-z
1/2-x,1/4+y,3/4+z
1/4+x,1/2-y,3/4+z
loop_
_atom_site_type_symbol
_atom_site_label
_atom_site_fract_x
_atom_site_fract_y
_atom_site_fract_z
Si Si1 0.668326 0.450368 0.452521
Si Si2 0.604953 0.714312 0.878405
Si Si3 0.814572 0.226111 0.215481
O O1 0.735252 0.481618 0.404965
O O2 0.839044 0.488611 0.485958
O O3 0.434238 0.476913 0.461583
O O4 0.675449 0.357248 0.457520
O O5 0.625000 0.625000 0.862680
O O6 0.375000 0.747214 0.875000
O O7 0.667151 0.720330 0.928362
#
# Coordination Sequence:
#
# PCOD8286189 Si02
#       3
#    32  32  32
#     4   9  18  31  57  81 112 147 193 247 295 342
#     4  10  21  35  57  84 117 151 197 248 299 358
#     4   9  18  32  54  84 109 147 198 240 291 356
#
# _framework density 27.876825
#
# number of rings (size 3 to 8) (size 9 to 14) (size 15 to 20)
#    0.000    2.667    0.000    1.000   14.000    4.000 
#    0.000    1.667    0.000    2.000    0.000    0.000 
#    0.000    0.000    0.000    0.000    0.000    0.000 
#
# Total GULP energy -297471.562238 kJ/mol
# GULP energy per Si atom -12394.648427 kJ/mol
# Density = 2.781338 g / cm^3
# Si number density = 27.876825 Si / 1000 Ang^3
#
#
#
# Elastic Constant Matrix: (Units=GPa)
#
#
# Indices 1 2 3 4 5 6 
#
# 1 101.7434 8.6839 42.1831 0.0000 0.0000 0.0000
# 2 8.6839 190.2148 121.8344 0.0000 0.0000 0.0000
# 3 42.1831 121.8344 288.3850 0.0000 0.0000 0.0000
# 4 0.0000 0.0000 0.0000 17.8536 0.0000 0.0000
# 5 0.0000 0.0000 0.0000 0.0000 30.7553 0.0000
# 6 0.0000 0.0000 0.0000 0.0000 0.0000 32.4091
#
#
#
# Elastic Compliance Matrix: (Units=1/GPa)
#
#
# Indices 1 2 3 4 5 6 
#
# 1 0.010529 0.000693 -0.001833 0.000000 0.000000 0.000000
# 2 0.000693 0.007253 -0.003166 0.000000 0.000000 0.000000
# 3 -0.001833 -0.003166 0.005073 0.000000 0.000000 0.000000
# 4 0.000000 0.000000 0.000000 0.056011 0.000000 0.000000
# 5 0.000000 0.000000 0.000000 0.000000 0.032515 0.000000
# 6 0.000000 0.000000 0.000000 0.000000 0.000000 0.030856
#
#
# Mechanical properties :
#
#
# Convention : Reuss Voigt Hill
#
# Bulk Modulus (GPa) = 70.19988 102.86066 86.53027
# Shear Modulus (GPa) = 32.13444 43.37973 37.75708
#
# Velocity S-wave (km/s) = 3.39887 3.94905 3.68424
# Velocity P-wave (km/s) = 6.37495 7.60077 7.01469
#
# Compressibility (1/GPa) = 0.01424504
#
# Stress axis : x y z
#
# Youngs Moduli (GPa) = 94.97136 137.86964 197.11614
#
# Poissons Ratio (x) = -0.09560 0.36134
# Poissons Ratio (y) = -0.06586 0.62401
# Poissons Ratio (z) = 0.17410 0.43646
#
# Static dielectric constant tensor:
#      x y z
#    x 5.828240 0.000000 0.000000 
#    y 0.000000 4.518130 0.000000 
#    z 0.000000 0.000000 5.780450 
# 
# 
# High freq. dielectric constant tensor:
#      x y z
#    x 2.203170 0.000000 0.000000 
#    y 0.000000 2.098300 0.000000 
#    z 0.000000 0.000000 2.149890 
# 
# From -- ./inp_files/8055.got.cif
#   From: 2010.03.12/outbox.cif.g09.slc.cpg/sg70_5_cif.got.tgz:8055.got - 2010.04.16 13:46:32.
