data_PCOD8286211
_publ_section_title
;
Structure prediction by ZEFSAII (Michael W. Deem and Ramdas Pophale) SiO2 
 PCOD8286211
Probable space group: F D D D
;
_chemical_formula_sum "Si O2"
_cell_formula_units_Z 104
_cell_length_a 17.518357
_cell_length_b 13.977303
_cell_length_c 22.629806
_cell_angle_alpha 90.000000
_cell_angle_beta 90.000000
_cell_angle_gamma 90.000000
_cell_volume 5541.120354
_symmetry_space_group_name_H-M "F D D D"
_symmetry_group_IT_number 70
_space_group.IT_coordinate_system_code '2'
_symmetry_cell_setting 'orthorhombic'
loop_
_space_group_symop_operation_xyz
x,y,z
1/4-x,1/4-y,z
x,1/4-y,1/4-z
1/4-x,y,1/4-z
-x,-y,-z
3/4+x,3/4+y,-z
-x,3/4+y,3/4+z
3/4+x,-y,3/4+z
x,1/2+y,1/2+z
1/4-x,3/4-y,1/2+z
x,3/4-y,3/4-z
1/4-x,1/2+y,3/4-z
-x,1/2-y,1/2-z
3/4+x,1/4+y,1/2-z
-x,1/4+y,1/4+z
3/4+x,1/2-y,1/4+z
1/2+x,y,1/2+z
3/4-x,1/4-y,1/2+z
1/2+x,1/4-y,3/4-z
3/4-x,y,3/4-z
1/2-x,-y,1/2-z
1/4+x,3/4+y,1/2-z
1/2-x,3/4+y,1/4+z
1/4+x,-y,1/4+z
1/2+x,1/2+y,z
3/4-x,3/4-y,z
1/2+x,3/4-y,1/4-z
3/4-x,1/2+y,1/4-z
1/2-x,1/2-y,-z
1/4+x,1/4+y,-z
1/2-x,1/4+y,3/4+z
1/4+x,1/2-y,3/4+z
loop_
_atom_site_type_symbol
_atom_site_label
_atom_site_fract_x
_atom_site_fract_y
_atom_site_fract_z
Si Si1 0.392617 0.725532 0.092971
Si Si2 0.643295 0.456439 0.546068
Si Si3 0.501260 0.143007 0.367250
Si Si4 0.625000 0.625000 0.625000
O O1 0.401313 0.625000 0.125000
O O2 0.467854 0.787435 0.104949
O O3 0.318407 0.779015 0.117197
O O4 0.388069 0.712959 0.023162
O O5 0.560141 0.422963 0.567713
O O6 0.710261 0.385315 0.568293
O O7 0.670190 0.555657 0.579269
#
# Coordination Sequence:
#
# PCOD8286211 Si02
#       4
#    32  32  32   8
#     4  11  23  36  61  89 122 160 199 248 303 359
#     4  10  21  37  63  84 125 153 202 254 303 354
#     4   9  22  39  55  92 117 153 210 242 300 358
#     4   8  16  32  60  88 102 156 188 252 304 316
#
# _framework density 18.768767
#
# number of rings (size 3 to 8) (size 9 to 14) (size 15 to 20)
#    0.000    2.462    0.000    2.769   12.923    1.231 
#    0.000    3.077    0.000    0.000    0.000    0.000 
#    0.000    0.000    0.000    0.000    0.000    0.000 
#
# Total GULP energy -322101.161811 kJ/mol
# GULP energy per Si atom -12388.506223 kJ/mol
# Density = 1.872605 g / cm^3
# Si number density = 18.768767 Si / 1000 Ang^3
#
#
#
# Elastic Constant Matrix: (Units=GPa)
#
#
# Indices 1 2 3 4 5 6 
#
# 1 104.9263 50.7507 22.5452 0.0000 0.0000 0.0000
# 2 50.7507 135.1254 43.9556 0.0000 0.0000 0.0000
# 3 22.5452 43.9556 84.9314 0.0000 0.0000 0.0000
# 4 0.0000 0.0000 0.0000 24.9602 0.0000 0.0000
# 5 0.0000 0.0000 0.0000 0.0000 13.3933 0.0000
# 6 0.0000 0.0000 0.0000 0.0000 0.0000 29.0928
#
#
#
# Elastic Compliance Matrix: (Units=1/GPa)
#
#
# Indices 1 2 3 4 5 6 
#
# 1 0.011717 -0.004075 -0.001001 0.000000 0.000000 0.000000
# 2 -0.004075 0.010316 -0.004257 0.000000 0.000000 0.000000
# 3 -0.001001 -0.004257 0.014243 0.000000 0.000000 0.000000
# 4 0.000000 0.000000 0.000000 0.040064 0.000000 0.000000
# 5 0.000000 0.000000 0.000000 0.000000 0.074664 0.000000
# 6 0.000000 0.000000 0.000000 0.000000 0.000000 0.034373
#
#
# Mechanical properties :
#
#
# Convention : Reuss Voigt Hill
#
# Bulk Modulus (GPa) = 56.78903 62.16511 59.47707
# Shear Modulus (GPa) = 23.81947 27.33806 25.57876
#
# Velocity S-wave (km/s) = 3.56631 3.82065 3.69567
# Velocity P-wave (km/s) = 6.87612 7.25649 7.06886
#
# Compressibility (1/GPa) = 0.01760904
#
# Stress axis : x y z
#
# Youngs Moduli (GPa) = 85.34940 96.93860 70.20852
#
# Poissons Ratio (x) = 0.39501 0.07030
# Poissons Ratio (y) = 0.34778 0.29889
# Poissons Ratio (z) = 0.08546 0.41269
#
# Static dielectric constant tensor:
#      x y z
#    x 3.561660 0.000000 0.000000 
#    y 0.000000 3.610550 0.000000 
#    z 0.000000 0.000000 3.347380 
# 
# 
# High freq. dielectric constant tensor:
#      x y z
#    x 1.729720 0.000000 0.000000 
#    y 0.000000 1.722970 0.000000 
#    z 0.000000 0.000000 1.728500 
# 
# From -- ./inp_files/16168.got.cif
#   From: 2010.03.12/outbox.cif.g09.slc.cpg/sg70_9_cif.got.tgz:16168.got - 2010.04.16 13:46:32.
