data_PCOD8286444
_publ_section_title
;
Structure prediction by ZEFSAII (Michael W. Deem and Ramdas Pophale) SiO2 
 PCOD8286444
Probable space group: F D D D
;
_chemical_formula_sum "Si O2"
_cell_formula_units_Z 216
_cell_length_a 30.472161
_cell_length_b 11.986976
_cell_length_c 27.534827
_cell_angle_alpha 90.000000
_cell_angle_beta 90.000000
_cell_angle_gamma 90.000000
_cell_volume 10057.620446
_symmetry_space_group_name_H-M "F D D D"
_symmetry_group_IT_number 70
_space_group.IT_coordinate_system_code '2'
_symmetry_cell_setting 'orthorhombic'
loop_
_space_group_symop_operation_xyz
x,y,z
1/4-x,1/4-y,z
x,1/4-y,1/4-z
1/4-x,y,1/4-z
-x,-y,-z
3/4+x,3/4+y,-z
-x,3/4+y,3/4+z
3/4+x,-y,3/4+z
x,1/2+y,1/2+z
1/4-x,3/4-y,1/2+z
x,3/4-y,3/4-z
1/4-x,1/2+y,3/4-z
-x,1/2-y,1/2-z
3/4+x,1/4+y,1/2-z
-x,1/4+y,1/4+z
3/4+x,1/2-y,1/4+z
1/2+x,y,1/2+z
3/4-x,1/4-y,1/2+z
1/2+x,1/4-y,3/4-z
3/4-x,y,3/4-z
1/2-x,-y,1/2-z
1/4+x,3/4+y,1/2-z
1/2-x,3/4+y,1/4+z
1/4+x,-y,1/4+z
1/2+x,1/2+y,z
3/4-x,3/4-y,z
1/2+x,3/4-y,1/4-z
3/4-x,1/2+y,1/4-z
1/2-x,1/2-y,-z
1/4+x,1/4+y,-z
1/2-x,1/4+y,3/4+z
1/4+x,1/2-y,3/4+z
loop_
_atom_site_type_symbol
_atom_site_label
_atom_site_fract_x
_atom_site_fract_y
_atom_site_fract_z
Si Si1 0.875000 0.875000 0.476800
Si Si2 0.324624 0.371724 0.720569
Si Si3 0.451073 0.112210 0.243242
Si Si4 0.693923 0.251141 0.560126
Si Si5 0.465304 0.255433 0.635843
Si Si6 0.378223 0.600204 0.432056
Si Si7 0.625000 0.125000 0.625000
Si Si8 0.545013 0.641378 0.787966
O O1 0.861151 0.778281 0.440463
O O2 0.914944 0.832589 0.510320
O O3 0.375000 0.375000 0.736859
O O4 0.307144 0.246591 0.709453
O O5 0.294708 0.423607 0.763989
O O6 0.320393 0.450993 0.673923
O O7 0.419350 0.091185 0.290138
O O8 0.442736 0.225334 0.211976
O O9 0.501084 0.115696 0.259183
O O10 0.736517 0.273389 0.592084
O O11 0.669127 0.365678 0.543880
O O12 0.655488 0.198649 0.591701
O O13 0.456866 0.125000 0.625000
O O14 0.459732 0.336842 0.590419
O O15 0.375000 0.625825 0.375000
#
# Coordination Sequence:
#
# PCOD8286444 Si02
#       8
#    16  32  32  32  32  32   8  32
#     4  10  25  40  65  92 132 183 222 277 328 412
#     4  12  26  45  69 101 138 185 233 292 353 418
#     4  10  22  46  68  96 138 175 229 282 347 417
#     4  12  23  41  68 103 135 171 225 293 361 407
#     4  12  28  43  67 101 139 182 236 288 346 423
#     4  11  21  38  66  99 132 170 219 283 346 407
#     4  12  20  40  70  98 136 170 212 292 360 410
#     4  10  24  44  68  95 134 185 225 277 343 412
#
# _framework density 21.476253
#
# number of rings (size 3 to 8) (size 9 to 14) (size 15 to 20)
#    0.000    0.889    3.704    2.444    5.185    0.593 
#    0.000    0.000    0.000    0.000    0.000    0.000 
#    0.000    0.000    0.000    0.000    0.000    0.000 
#
# Total GULP energy -669274.276884 kJ/mol
# GULP energy per Si atom -12393.968090 kJ/mol
# Density = 2.142737 g / cm^3
# Si number density = 21.476253 Si / 1000 Ang^3
#
#
#
# Elastic Constant Matrix: (Units=GPa)
#
#
# Indices 1 2 3 4 5 6 
#
# 1 81.7186 43.4411 32.1570 0.0000 0.0000 0.0000
# 2 43.4411 123.2908 55.7153 0.0000 0.0000 0.0000
# 3 32.1570 55.7153 103.8032 0.0000 0.0000 0.0000
# 4 0.0000 0.0000 0.0000 42.2884 0.0000 0.0000
# 5 0.0000 0.0000 0.0000 0.0000 33.6178 0.0000
# 6 0.0000 0.0000 0.0000 0.0000 0.0000 36.2585
#
#
#
# Elastic Compliance Matrix: (Units=1/GPa)
#
#
# Indices 1 2 3 4 5 6 
#
# 1 0.015524 -0.004352 -0.002473 0.000000 0.000000 0.000000
# 2 -0.004352 0.011928 -0.005054 0.000000 0.000000 0.000000
# 3 -0.002473 -0.005054 0.013113 0.000000 0.000000 0.000000
# 4 0.000000 0.000000 0.000000 0.023647 0.000000 0.000000
# 5 0.000000 0.000000 0.000000 0.000000 0.029746 0.000000
# 6 0.000000 0.000000 0.000000 0.000000 0.000000 0.027580
#
#
# Mechanical properties :
#
#
# Convention : Reuss Voigt Hill
#
# Bulk Modulus (GPa) = 59.50317 63.49329 61.49823
# Shear Modulus (GPa) = 33.13479 34.26622 33.70051
#
# Velocity S-wave (km/s) = 3.93218 3.99875 3.96561
# Velocity P-wave (km/s) = 6.95577 7.13783 7.04739
#
# Compressibility (1/GPa) = 0.01680583
#
# Stress axis : x y z
#
# Youngs Moduli (GPa) = 64.41675 83.83369 76.26287
#
# Poissons Ratio (x) = 0.36486 0.18861
# Poissons Ratio (y) = 0.28035 0.38545
# Poissons Ratio (z) = 0.15931 0.42371
#
# Static dielectric constant tensor:
#      x y z
#    x 4.064040 0.000000 0.000000 
#    y 0.000000 4.216920 0.000000 
#    z 0.000000 0.000000 3.766860 
# 
# 
# High freq. dielectric constant tensor:
#      x y z
#    x 1.848890 0.000000 0.000000 
#    y 0.000000 1.860250 0.000000 
#    z 0.000000 0.000000 1.828820 
# 
# From -- ./inp_files/69034.got.cif
#   From: 2010.03.12/outbox.cif.g09.slc.cpg/sg70_35_cif.got.tgz:69034.got - 2010.04.16 13:46:32.
