data_PCOD8286414
_publ_section_title
;
Structure prediction by ZEFSAII (Michael W. Deem and Ramdas Pophale) SiO2 
 PCOD8286414
Probable space group: F D D D
;
_chemical_formula_sum "Si O2"
_cell_formula_units_Z 176
_cell_length_a 17.017181
_cell_length_b 19.572591
_cell_length_c 21.752194
_cell_angle_alpha 90.000000
_cell_angle_beta 90.000000
_cell_angle_gamma 90.000000
_cell_volume 7245.010296
_symmetry_space_group_name_H-M "F D D D"
_symmetry_group_IT_number 70
_space_group.IT_coordinate_system_code '2'
_symmetry_cell_setting 'orthorhombic'
loop_
_space_group_symop_operation_xyz
x,y,z
1/4-x,1/4-y,z
x,1/4-y,1/4-z
1/4-x,y,1/4-z
-x,-y,-z
3/4+x,3/4+y,-z
-x,3/4+y,3/4+z
3/4+x,-y,3/4+z
x,1/2+y,1/2+z
1/4-x,3/4-y,1/2+z
x,3/4-y,3/4-z
1/4-x,1/2+y,3/4-z
-x,1/2-y,1/2-z
3/4+x,1/4+y,1/2-z
-x,1/4+y,1/4+z
3/4+x,1/2-y,1/4+z
1/2+x,y,1/2+z
3/4-x,1/4-y,1/2+z
1/2+x,1/4-y,3/4-z
3/4-x,y,3/4-z
1/2-x,-y,1/2-z
1/4+x,3/4+y,1/2-z
1/2-x,3/4+y,1/4+z
1/4+x,-y,1/4+z
1/2+x,1/2+y,z
3/4-x,3/4-y,z
1/2+x,3/4-y,1/4-z
3/4-x,1/2+y,1/4-z
1/2-x,1/2-y,-z
1/4+x,1/4+y,-z
1/2-x,1/4+y,3/4+z
1/4+x,1/2-y,3/4+z
loop_
_atom_site_type_symbol
_atom_site_label
_atom_site_fract_x
_atom_site_fract_y
_atom_site_fract_z
Si Si1 0.751715 0.194723 0.100438
Si Si2 0.125000 0.125000 0.734290
Si Si3 0.231442 0.799613 0.581797
Si Si4 0.516085 0.447387 0.695641
Si Si5 0.587559 0.746761 0.440639
Si Si6 0.110501 0.052080 0.016275
O O1 0.791391 0.125000 0.125000
O O2 0.683368 0.173551 0.053815
O O3 0.708913 0.237165 0.154776
O O4 0.820809 0.241986 0.073958
O O5 0.074124 0.076507 0.778128
O O6 0.215976 0.879936 0.596417
O O7 0.279730 0.755549 0.631971
O O8 0.149236 0.759162 0.566652
O O9 0.278102 0.807368 0.518261
O O10 0.562929 0.444813 0.760494
O O11 0.425095 0.460299 0.713514
O O12 0.125000 0.125000 0.050042
#
# Coordination Sequence:
#
# PCOD8286414 Si02
#       6
#    32  16  32  32  32  32
#     4  12  26  47  71 101 150 182 243 305 366 434
#     4  12  27  50  70 104 140 190 241 310 366 432
#     4  10  22  43  70 102 150 192 244 298 365 436
#     4  11  24  42  70 109 143 194 243 304 366 439
#     4  12  26  43  75 103 137 196 248 297 373 439
#     4   9  20  42  70 101 149 190 234 298 364 428
#
# _framework density 24.292580000000001
#
# number of rings (size 3 to 8) (size 9 to 14) (size 15 to 20)
#    0.000    1.091    3.636    1.909    3.818    2.182 
#    0.000    4.545    0.000    0.000    0.000    0.000 
#    0.000    0.000    0.000    0.000    0.000    0.000 
#
# Total GULP energy -545314.565180 kJ/mol
# GULP energy per Si atom -12393.512845 kJ/mol
# Density = 2.423729 g / cm^3
# Si number density = 24.292580 Si / 1000 Ang^3
#
#
#
# Elastic Constant Matrix: (Units=GPa)
#
#
# Indices 1 2 3 4 5 6 
#
# 1 80.6162 36.1547 28.5670 0.0000 0.0000 0.0000
# 2 36.1547 150.0178 57.4011 0.0000 0.0000 0.0000
# 3 28.5670 57.4011 87.6551 0.0000 0.0000 0.0000
# 4 0.0000 0.0000 0.0000 31.2751 0.0000 0.0000
# 5 0.0000 0.0000 0.0000 0.0000 33.2100 0.0000
# 6 0.0000 0.0000 0.0000 0.0000 0.0000 40.0146
#
#
#
# Elastic Compliance Matrix: (Units=1/GPa)
#
#
# Indices 1 2 3 4 5 6 
#
# 1 0.014578 -0.002262 -0.003269 0.000000 0.000000 0.000000
# 2 -0.002262 0.009246 -0.005317 0.000000 0.000000 0.000000
# 3 -0.003269 -0.005317 0.015956 0.000000 0.000000 0.000000
# 4 0.000000 0.000000 0.000000 0.031974 0.000000 0.000000
# 5 0.000000 0.000000 0.000000 0.000000 0.030111 0.000000
# 6 0.000000 0.000000 0.000000 0.000000 0.000000 0.024991
#
#
# Mechanical properties :
#
#
# Convention : Reuss Voigt Hill
#
# Bulk Modulus (GPa) = 55.30596 62.50383 58.90489
# Shear Modulus (GPa) = 32.34560 33.97770 33.16165
#
# Velocity S-wave (km/s) = 3.65293 3.74396 3.69873
# Velocity P-wave (km/s) = 6.37243 6.66896 6.52238
#
# Compressibility (1/GPa) = 0.01808123
#
# Stress axis : x y z
#
# Youngs Moduli (GPa) = 68.59847 108.15946 62.67289
#
# Poissons Ratio (x) = 0.24468 0.20490
# Poissons Ratio (y) = 0.15519 0.33325
# Poissons Ratio (z) = 0.22428 0.57511
#
# Static dielectric constant tensor:
#      x y z
#    x 4.156910 0.000000 0.000000 
#    y 0.000000 4.875220 0.000000 
#    z 0.000000 0.000000 4.248700 
# 
# 
# High freq. dielectric constant tensor:
#      x y z
#    x 1.956030 0.000000 0.000000 
#    y 0.000000 1.974560 0.000000 
#    z 0.000000 0.000000 1.961340 
# 
# From -- ./inp_files/59464.got.cif
#   From: 2010.03.12/outbox.cif.g09.slc.cpg/sg70_30_cif.got.tgz:59464.got - 2010.04.16 13:46:32.
