data_PCOD8286822
_publ_section_title
;
Structure prediction by ZEFSAII (Michael W. Deem and Ramdas Pophale) SiO2 
 PCOD8286822
Probable space group: F D D D
;
_chemical_formula_sum "Si O2"
_cell_formula_units_Z 160
_cell_length_a 9.898101
_cell_length_b 27.481937
_cell_length_c 28.437106
_cell_angle_alpha 90.000000
_cell_angle_beta 90.000000
_cell_angle_gamma 90.000000
_cell_volume 7735.432799
_symmetry_space_group_name_H-M "F D D D"
_symmetry_group_IT_number 70
_space_group.IT_coordinate_system_code '2'
_symmetry_cell_setting 'orthorhombic'
loop_
_space_group_symop_operation_xyz
x,y,z
1/4-x,1/4-y,z
x,1/4-y,1/4-z
1/4-x,y,1/4-z
-x,-y,-z
3/4+x,3/4+y,-z
-x,3/4+y,3/4+z
3/4+x,-y,3/4+z
x,1/2+y,1/2+z
1/4-x,3/4-y,1/2+z
x,3/4-y,3/4-z
1/4-x,1/2+y,3/4-z
-x,1/2-y,1/2-z
3/4+x,1/4+y,1/2-z
-x,1/4+y,1/4+z
3/4+x,1/2-y,1/4+z
1/2+x,y,1/2+z
3/4-x,1/4-y,1/2+z
1/2+x,1/4-y,3/4-z
3/4-x,y,3/4-z
1/2-x,-y,1/2-z
1/4+x,3/4+y,1/2-z
1/2-x,3/4+y,1/4+z
1/4+x,-y,1/4+z
1/2+x,1/2+y,z
3/4-x,3/4-y,z
1/2+x,3/4-y,1/4-z
3/4-x,1/2+y,1/4-z
1/2-x,1/2-y,-z
1/4+x,1/4+y,-z
1/2-x,1/4+y,3/4+z
1/4+x,1/2-y,3/4+z
loop_
_atom_site_type_symbol
_atom_site_label
_atom_site_fract_x
_atom_site_fract_y
_atom_site_fract_z
Si Si1 0.364371 0.013240 0.972636
Si Si2 0.865764 0.216706 0.477981
Si Si3 0.375000 0.459581 0.375000
Si Si4 0.468598 0.611603 0.249763
Si Si5 0.125000 0.998044 0.125000
Si Si6 0.912233 0.576945 0.647552
O O1 0.359726 0.992584 0.920603
O O2 0.333658 0.070908 0.963533
O O3 0.500000 0.000000 0.000000
O O4 0.254702 0.989141 0.006125
O O5 0.750000 0.250000 0.500000
O O6 0.863312 0.161504 0.496605
O O7 0.857286 0.214961 0.421245
O O8 0.243771 0.426173 0.367793
O O9 0.625000 0.625000 0.255937
O O10 0.434171 0.582290 0.202598
O O11 0.259257 0.030414 0.121879
O O12 0.976825 0.625000 0.625000
#
# Coordination Sequence:
#
# PCOD8286822 Si02
#       6
#    32  32  16  32  16  32
#     4  12  25  47  68 104 145 185 234 299 355 428
#     4  12  24  43  72 102 141 181 236 294 354 426
#     4  12  25  43  70 100 144 186 226 292 366 412
#     4  12  24  44  72 102 140 190 238 292 357 425
#     4  12  23  43  68 104 136 184 228 302 352 416
#     4  12  23  40  69 103 135 177 241 291 351 415
#
# _framework density 20.68404
#
# number of rings (size 3 to 8) (size 9 to 14) (size 15 to 20)
#    0.000    0.000    6.000    5.400    0.000    1.600 
#    0.000    0.000    0.000    0.000    0.000    0.000 
#    0.000    0.000    0.000    0.000    0.000    0.000 
#
# Total GULP energy -496004.944851 kJ/mol
# GULP energy per Si atom -12400.123621 kJ/mol
# Density = 2.063696 g / cm^3
# Si number density = 20.684040 Si / 1000 Ang^3
#
#
#
# Elastic Constant Matrix: (Units=GPa)
#
#
# Indices 1 2 3 4 5 6 
#
# 1 132.2123 38.1924 19.3884 0.0000 0.0000 0.0000
# 2 38.1924 136.4474 22.0304 0.0000 0.0000 0.0000
# 3 19.3884 22.0304 122.5822 0.0000 0.0000 0.0000
# 4 0.0000 0.0000 0.0000 29.6401 0.0000 0.0000
# 5 0.0000 0.0000 0.0000 0.0000 28.2452 0.0000
# 6 0.0000 0.0000 0.0000 0.0000 0.0000 28.6747
#
#
#
# Elastic Compliance Matrix: (Units=1/GPa)
#
#
# Indices 1 2 3 4 5 6 
#
# 1 0.008330 -0.002182 -0.000925 0.000000 0.000000 0.000000
# 2 -0.002182 0.008119 -0.001114 0.000000 0.000000 0.000000
# 3 -0.000925 -0.001114 0.008504 0.000000 0.000000 0.000000
# 4 0.000000 0.000000 0.000000 0.033738 0.000000 0.000000
# 5 0.000000 0.000000 0.000000 0.000000 0.035404 0.000000
# 6 0.000000 0.000000 0.000000 0.000000 0.000000 0.034874
#
#
# Mechanical properties :
#
#
# Convention : Reuss Voigt Hill
#
# Bulk Modulus (GPa) = 60.56759 61.16270 60.86515
# Shear Modulus (GPa) = 34.98550 38.08737 36.53644
#
# Velocity S-wave (km/s) = 4.11716 4.29580 4.20742
# Velocity P-wave (km/s) = 7.20744 7.36474 7.28651
#
# Compressibility (1/GPa) = 0.01651048
#
# Stress axis : x y z
#
# Youngs Moduli (GPa) = 120.05328 123.16035 117.58670
#
# Poissons Ratio (x) = 0.26875 0.10880
# Poissons Ratio (y) = 0.26197 0.13100
# Poissons Ratio (z) = 0.11108 0.13721
#
# Static dielectric constant tensor:
#      x y z
#    x 3.765450 0.000000 0.000000 
#    y 0.000000 4.071920 0.000000 
#    z 0.000000 0.000000 3.965730 
# 
# 
# High freq. dielectric constant tensor:
#      x y z
#    x 1.822380 0.000000 0.000000 
#    y 0.000000 1.816230 0.000000 
#    z 0.000000 0.000000 1.815190 
# 
# From -- ./inp_files/63911.got.cif
#   From: 2010.03.12/outbox.cif.g09.slc.cpg/sg70_32_cif.got.tgz:63911.got - 2010.04.16 13:46:32.
