data_PCOD8286148
_publ_section_title
;
Structure prediction by ZEFSAII (Michael W. Deem and Ramdas Pophale) SiO2 
 PCOD8286148
Probable space group: F D D D
;
_chemical_formula_sum "Si O2"
_cell_formula_units_Z 72
_cell_length_a 31.492845
_cell_length_b 12.050174
_cell_length_c 7.328238
_cell_angle_alpha 90.000000
_cell_angle_beta 90.000000
_cell_angle_gamma 90.000000
_cell_volume 2781.024272
_symmetry_space_group_name_H-M "F D D D"
_symmetry_group_IT_number 70
_space_group.IT_coordinate_system_code '2'
_symmetry_cell_setting 'orthorhombic'
loop_
_space_group_symop_operation_xyz
x,y,z
1/4-x,1/4-y,z
x,1/4-y,1/4-z
1/4-x,y,1/4-z
-x,-y,-z
3/4+x,3/4+y,-z
-x,3/4+y,3/4+z
3/4+x,-y,3/4+z
x,1/2+y,1/2+z
1/4-x,3/4-y,1/2+z
x,3/4-y,3/4-z
1/4-x,1/2+y,3/4-z
-x,1/2-y,1/2-z
3/4+x,1/4+y,1/2-z
-x,1/4+y,1/4+z
3/4+x,1/2-y,1/4+z
1/2+x,y,1/2+z
3/4-x,1/4-y,1/2+z
1/2+x,1/4-y,3/4-z
3/4-x,y,3/4-z
1/2-x,-y,1/2-z
1/4+x,3/4+y,1/2-z
1/2-x,3/4+y,1/4+z
1/4+x,-y,1/4+z
1/2+x,1/2+y,z
3/4-x,3/4-y,z
1/2+x,3/4-y,1/4-z
3/4-x,1/2+y,1/4-z
1/2-x,1/2-y,-z
1/4+x,1/4+y,-z
1/2-x,1/4+y,3/4+z
1/4+x,1/2-y,3/4+z
loop_
_atom_site_type_symbol
_atom_site_label
_atom_site_fract_x
_atom_site_fract_y
_atom_site_fract_z
Si Si1 0.375000 0.375000 0.375000
Si Si2 0.288278 0.529064 0.993563
Si Si3 0.945152 0.790626 0.612676
O O1 0.346801 0.463594 0.489663
O O2 0.306017 0.625000 0.125000
O O3 0.306758 0.414197 0.058714
O O4 0.303619 0.547940 0.781923
O O5 0.237059 0.521768 0.009234
#
# Coordination Sequence:
#
# PCOD8286148 Si02
#       3
#     8  32  32
#     4  12  24  42  60 104 148 180 212 318 368 388
#     4  10  20  41  69  95 125 190 243 275 334 449
#     4  10  23  39  69  95 137 178 235 288 356 408
#
# _framework density 25.889742999999999
#
# number of rings (size 3 to 8) (size 9 to 14) (size 15 to 20)
#    0.000    1.778    2.222    1.333    0.000    3.556 
#    0.000    4.444    0.000    0.000    0.000    0.000 
#    0.000    0.000    0.000    0.000    0.000    0.000 
#
# Total GULP energy -223189.336160 kJ/mol
# GULP energy per Si atom -12399.407564 kJ/mol
# Density = 2.583082 g / cm^3
# Si number density = 25.889743 Si / 1000 Ang^3
#
#
#
# Elastic Constant Matrix: (Units=GPa)
#
#
# Indices 1 2 3 4 5 6 
#
# 1 143.2497 13.3302 77.2607 0.0000 0.0000 0.0000
# 2 13.3302 52.6517 50.3997 0.0000 0.0000 0.0000
# 3 77.2607 50.3997 152.4826 0.0000 0.0000 0.0000
# 4 0.0000 0.0000 0.0000 55.0190 0.0000 0.0000
# 5 0.0000 0.0000 0.0000 0.0000 -99.3777 0.0000
# 6 0.0000 0.0000 0.0000 0.0000 0.0000 26.9640
#
#
#
# Elastic Compliance Matrix: (Units=1/GPa)
#
#
# Indices 1 2 3 4 5 6 
#
# 1 0.010004 0.003393 -0.006190 0.000000 0.000000 0.000000
# 2 0.003393 0.028934 -0.011282 0.000000 0.000000 0.000000
# 3 -0.006190 -0.011282 0.013424 0.000000 0.000000 0.000000
# 4 0.000000 0.000000 0.000000 0.018176 0.000000 0.000000
# 5 0.000000 0.000000 0.000000 0.000000 -0.010063 0.000000
# 6 0.000000 0.000000 0.000000 0.000000 0.000000 0.037087
#
#
# Mechanical properties :
#
#
# Convention : Reuss Voigt Hill
#
# Bulk Modulus (GPa) = 41.32005 70.04060 55.68032
# Shear Modulus (GPa) = 37.37282 10.34729 23.86006
#
# Velocity S-wave (km/s) = 3.80351 2.00134 3.03908
# Velocity P-wave (km/s) = 5.94000 5.69672 5.81963
#
# Compressibility (1/GPa) = 0.02420133
#
# Stress axis : x y z
#
# Youngs Moduli (GPa) = 99.96310 34.56194 74.49525
#
# Poissons Ratio (x) = -0.11726 0.46113
# Poissons Ratio (y) = -0.33914 0.84048
# Poissons Ratio (z) = 0.61878 0.38994
#
# Static dielectric constant tensor:
#      x y z
#    x 4.320430 0.000000 0.000000 
#    y 0.000000 4.553220 0.000000 
#    z 0.000000 0.000000 5.607870 
# 
# 
# High freq. dielectric constant tensor:
#      x y z
#    x 1.996150 0.000000 0.000000 
#    y 0.000000 2.029620 0.000000 
#    z 0.000000 0.000000 2.059380 
# 
# From -- ./inp_files/5934.got.cif
#   From: 2010.03.12/outbox.cif.g09.slc.cpg/sg70_3_cif.got.tgz:5934.got - 2010.04.16 13:46:32.
