data_PCOD8286164
_publ_section_title
;
Structure prediction by ZEFSAII (Michael W. Deem and Ramdas Pophale) SiO2 
 PCOD8286164
Probable space group: F D D D
;
_chemical_formula_sum "Si O2"
_cell_formula_units_Z 176
_cell_length_a 10.724367
_cell_length_b 31.694081
_cell_length_c 24.931553
_cell_angle_alpha 90.000000
_cell_angle_beta 90.000000
_cell_angle_gamma 90.000000
_cell_volume 8474.208845
_symmetry_space_group_name_H-M "F D D D"
_symmetry_group_IT_number 70
_space_group.IT_coordinate_system_code '2'
_symmetry_cell_setting 'orthorhombic'
loop_
_space_group_symop_operation_xyz
x,y,z
1/4-x,1/4-y,z
x,1/4-y,1/4-z
1/4-x,y,1/4-z
-x,-y,-z
3/4+x,3/4+y,-z
-x,3/4+y,3/4+z
3/4+x,-y,3/4+z
x,1/2+y,1/2+z
1/4-x,3/4-y,1/2+z
x,3/4-y,3/4-z
1/4-x,1/2+y,3/4-z
-x,1/2-y,1/2-z
3/4+x,1/4+y,1/2-z
-x,1/4+y,1/4+z
3/4+x,1/2-y,1/4+z
1/2+x,y,1/2+z
3/4-x,1/4-y,1/2+z
1/2+x,1/4-y,3/4-z
3/4-x,y,3/4-z
1/2-x,-y,1/2-z
1/4+x,3/4+y,1/2-z
1/2-x,3/4+y,1/4+z
1/4+x,-y,1/4+z
1/2+x,1/2+y,z
3/4-x,3/4-y,z
1/2+x,3/4-y,1/4-z
3/4-x,1/2+y,1/4-z
1/2-x,1/2-y,-z
1/4+x,1/4+y,-z
1/2-x,1/4+y,3/4+z
1/4+x,1/2-y,3/4+z
loop_
_atom_site_type_symbol
_atom_site_label
_atom_site_fract_x
_atom_site_fract_y
_atom_site_fract_z
Si Si1 0.467491 0.816911 0.569378
Si Si2 0.375000 0.875000 0.486395
Si Si3 0.625000 0.387755 0.125000
Si Si4 0.126050 0.773067 0.264511
Si Si5 0.573450 0.195198 0.923737
Si Si6 0.887319 0.636927 0.185923
Si Si7 0.125000 0.125000 0.498423
O O1 0.375899 0.832508 0.522315
O O2 0.536090 0.859272 0.588847
O O3 0.562192 0.783704 0.542967
O O4 0.394705 0.795081 0.617993
O O5 0.249792 0.870297 0.451479
O O6 0.550604 0.418127 0.164988
O O7 0.209463 0.739559 0.298212
O O8 0.105486 0.813079 0.302929
O O9 0.000000 0.750000 0.250000
O O10 0.660117 0.165883 0.962000
O O11 0.910987 0.625000 0.125000
O O12 0.001081 0.614500 0.217452
#
# Coordination Sequence:
#
# PCOD8286164 Si02
#       7
#    32  16  16  32  32  32  16
#     4  11  22  40  70  98 133 180 226 284 343 411
#     4  10  20  42  70  94 128 184 234 262 340 418
#     4  12  20  40  70 102 131 177 238 278 334 410
#     4  11  24  44  63  98 137 179 223 284 350 404
#     4  12  23  40  68 103 134 173 230 288 341 410
#     4  11  25  45  70  97 138 187 232 279 346 422
#     4  12  22  42  74 100 134 180 232 284 338 418
#
# _framework density 20.768901
#
# number of rings (size 3 to 8) (size 9 to 14) (size 15 to 20)
#    0.000    0.727    5.455    3.818    0.000    1.455 
#    9.818    0.909    0.000    0.000    0.000    0.000 
#    0.000    0.000    0.000    0.000    0.000    0.000 
#
# Total GULP energy -545597.069850 kJ/mol
# GULP energy per Si atom -12399.933406 kJ/mol
# Density = 2.072163 g / cm^3
# Si number density = 20.768901 Si / 1000 Ang^3
#
#
#
# Elastic Constant Matrix: (Units=GPa)
#
#
# Indices 1 2 3 4 5 6 
#
# 1 99.8241 14.0417 29.1742 0.0000 0.0000 0.0000
# 2 14.0417 96.1939 27.6561 0.0000 0.0000 0.0000
# 3 29.1742 27.6561 116.9131 0.0000 0.0000 0.0000
# 4 0.0000 0.0000 0.0000 39.6089 0.0000 0.0000
# 5 0.0000 0.0000 0.0000 0.0000 39.7793 0.0000
# 6 0.0000 0.0000 0.0000 0.0000 0.0000 33.4853
#
#
#
# Elastic Compliance Matrix: (Units=1/GPa)
#
#
# Indices 1 2 3 4 5 6 
#
# 1 0.010872 -0.000866 -0.002508 0.000000 0.000000 0.000000
# 2 -0.000866 0.011223 -0.002439 0.000000 0.000000 0.000000
# 3 -0.002508 -0.002439 0.009756 0.000000 0.000000 0.000000
# 4 0.000000 0.000000 0.000000 0.025247 0.000000 0.000000
# 5 0.000000 0.000000 0.000000 0.000000 0.025139 0.000000
# 6 0.000000 0.000000 0.000000 0.000000 0.000000 0.029864
#
#
# Mechanical properties :
#
#
# Convention : Reuss Voigt Hill
#
# Bulk Modulus (GPa) = 49.44162 50.51948 49.98055
# Shear Modulus (GPa) = 38.32320 38.71197 38.51758
#
# Velocity S-wave (km/s) = 4.30026 4.32202 4.31116
# Velocity P-wave (km/s) = 6.96517 7.02025 6.99276
#
# Compressibility (1/GPa) = 0.02022587
#
# Stress axis : x y z
#
# Youngs Moduli (GPa) = 91.97536 89.10085 102.49931
#
# Poissons Ratio (x) = 0.07716 0.25709
# Poissons Ratio (y) = 0.07965 0.24997
# Poissons Ratio (z) = 0.23070 0.21730
#
# Static dielectric constant tensor:
#      x y z
#    x 3.806830 0.000000 0.000000 
#    y 0.000000 3.892570 0.000000 
#    z 0.000000 0.000000 4.019460 
# 
# 
# High freq. dielectric constant tensor:
#      x y z
#    x 1.815520 0.000000 0.000000 
#    y 0.000000 1.796900 0.000000 
#    z 0.000000 0.000000 1.823870 
# 
# From -- ./inp_files/50442.got.cif
#   From: 2010.03.12/outbox.cif.g09.slc.cpg/sg70_26_cif.got.tgz:50442.got - 2010.04.16 13:46:32.
