data_PCOD8286538
_publ_section_title
;
Structure prediction by ZEFSAII (Michael W. Deem and Ramdas Pophale) SiO2 
 PCOD8286538
Probable space group: F D D D
;
_chemical_formula_sum "Si O2"
_cell_formula_units_Z 112
_cell_length_a 25.706396
_cell_length_b 25.708481
_cell_length_c 7.614012
_cell_angle_alpha 90.000000
_cell_angle_beta 90.000000
_cell_angle_gamma 90.000000
_cell_volume 5031.890332
_symmetry_space_group_name_H-M "F D D D"
_symmetry_group_IT_number 70
_space_group.IT_coordinate_system_code '2'
_symmetry_cell_setting 'orthorhombic'
loop_
_space_group_symop_operation_xyz
x,y,z
1/4-x,1/4-y,z
x,1/4-y,1/4-z
1/4-x,y,1/4-z
-x,-y,-z
3/4+x,3/4+y,-z
-x,3/4+y,3/4+z
3/4+x,-y,3/4+z
x,1/2+y,1/2+z
1/4-x,3/4-y,1/2+z
x,3/4-y,3/4-z
1/4-x,1/2+y,3/4-z
-x,1/2-y,1/2-z
3/4+x,1/4+y,1/2-z
-x,1/4+y,1/4+z
3/4+x,1/2-y,1/4+z
1/2+x,y,1/2+z
3/4-x,1/4-y,1/2+z
1/2+x,1/4-y,3/4-z
3/4-x,y,3/4-z
1/2-x,-y,1/2-z
1/4+x,3/4+y,1/2-z
1/2-x,3/4+y,1/4+z
1/4+x,-y,1/4+z
1/2+x,1/2+y,z
3/4-x,3/4-y,z
1/2+x,3/4-y,1/4-z
3/4-x,1/2+y,1/4-z
1/2-x,1/2-y,-z
1/4+x,1/4+y,-z
1/2-x,1/4+y,3/4+z
1/4+x,1/2-y,3/4+z
loop_
_atom_site_type_symbol
_atom_site_label
_atom_site_fract_x
_atom_site_fract_y
_atom_site_fract_z
Si Si1 0.338401 0.742835 0.717476
Si Si2 0.875000 0.681847 0.875000
Si Si3 0.211204 0.392268 0.062983
Si Si4 0.430240 0.893155 0.677128
O O1 0.365385 0.717848 0.545945
O O2 0.299949 0.703757 0.821499
O O3 0.309687 0.795194 0.653735
O O4 0.375000 0.762611 0.875000
O O5 0.825906 0.644634 0.816775
O O6 0.272483 0.385048 0.081143
O O7 0.191351 0.375000 0.875000
O O8 0.375000 0.875000 0.592916
O O9 0.432769 0.875000 0.875000
#
# Coordination Sequence:
#
# PCOD8286538 Si02
#       4
#    32  16  32  32
#     4  11  23  44  70  97 137 177 221 281 336 392
#     4  10  24  42  69 106 129 172 236 270 334 400
#     4  10  24  42  69 100 133 174 229 277 329 400
#     4  11  25  43  61 100 136 175 230 266 340 407
#
# _framework density 22.258037000000002
#
# number of rings (size 3 to 8) (size 9 to 14) (size 15 to 20)
#    0.000    1.429    4.286    0.000    4.000   10.857 
#    0.000    0.000    0.000    0.000    0.000    0.000 
#    0.000    0.000    0.000    0.000    0.000    0.000 
#
# Total GULP energy -346916.275760 kJ/mol
# GULP energy per Si atom -12389.866991 kJ/mol
# Density = 2.220738 g / cm^3
# Si number density = 22.258037 Si / 1000 Ang^3
#
#
#
# Elastic Constant Matrix: (Units=GPa)
#
#
# Indices 1 2 3 4 5 6 
#
# 1 124.9581 46.8513 17.1513 -0.0046 0.0047 0.0000
# 2 46.8513 168.9350 27.4929 0.0115 0.0031 -0.0018
# 3 17.1513 27.4929 68.9387 -0.0332 0.0329 0.0368
# 4 -0.0046 0.0115 -0.0332 17.8819 0.0334 0.0386
# 5 0.0047 0.0031 0.0329 0.0334 20.4486 -0.0249
# 6 0.0000 -0.0018 0.0368 0.0386 -0.0249 31.8789
#
#
#
# Elastic Compliance Matrix: (Units=1/GPa)
#
#
# Indices 1 2 3 4 5 6 
#
# 1 0.009045 -0.002291 -0.001337 0.000001 0.000000 0.000001
# 2 -0.002291 0.006911 -0.002186 -0.000009 0.000003 0.000003
# 3 -0.001337 -0.002186 0.015710 0.000030 -0.000025 -0.000018
# 4 0.000001 -0.000009 0.000030 0.055923 -0.000091 -0.000068
# 5 0.000000 0.000003 -0.000025 -0.000091 0.048903 0.000038
# 6 0.000001 0.000003 -0.000018 -0.000068 0.000038 0.031369
#
#
# Mechanical properties :
#
#
# Convention : Reuss Voigt Hill
#
# Bulk Modulus (GPa) = 49.90423 60.64697 55.27560
# Shear Modulus (GPa) = 26.85756 32.13098 29.49427
#
# Velocity S-wave (km/s) = 3.47745 3.80355 3.64415
# Velocity P-wave (km/s) = 6.21232 6.82611 6.52643
#
# Compressibility (1/GPa) = 0.02003838
#
# Stress axis : x y z
#
# Youngs Moduli (GPa) = 110.55686 144.70620 63.65372
#
# Poissons Ratio (x) = 0.33152 0.08509
# Poissons Ratio (y) = 0.25328 0.13915
# Poissons Ratio (z) = 0.14778 0.31632
#
# Static dielectric constant tensor:
#      x y z
#    x 4.176490 0.000020 0.000050 
#    y 0.000020 4.353610 -0.000020 
#    z 0.000050 -0.000020 4.051810 
# 
# 
# High freq. dielectric constant tensor:
#      x y z
#    x 1.865900 0.000000 0.000000 
#    y 0.000000 1.893620 0.000000 
#    z 0.000000 0.000000 1.870500 
# 
# From -- ./inp_files/9498.got.cif
#   From: 2010.03.12/outbox.cif.g09.slc.cpg/sg70_5_cif.got.tgz:9498.got - 2010.04.16 13:46:32.
