data_PCOD8286354
_publ_section_title
;
Structure prediction by ZEFSAII (Michael W. Deem and Ramdas Pophale) SiO2 
 PCOD8286354
Probable space group: F D D D
;
_chemical_formula_sum "Si O2"
_cell_formula_units_Z 168
_cell_length_a 15.599320
_cell_length_b 19.925046
_cell_length_c 25.814246
_cell_angle_alpha 90.000000
_cell_angle_beta 90.000000
_cell_angle_gamma 90.000000
_cell_volume 8023.510850
_symmetry_space_group_name_H-M "F D D D"
_symmetry_group_IT_number 70
_space_group.IT_coordinate_system_code '2'
_symmetry_cell_setting 'orthorhombic'
loop_
_space_group_symop_operation_xyz
x,y,z
1/4-x,1/4-y,z
x,1/4-y,1/4-z
1/4-x,y,1/4-z
-x,-y,-z
3/4+x,3/4+y,-z
-x,3/4+y,3/4+z
3/4+x,-y,3/4+z
x,1/2+y,1/2+z
1/4-x,3/4-y,1/2+z
x,3/4-y,3/4-z
1/4-x,1/2+y,3/4-z
-x,1/2-y,1/2-z
3/4+x,1/4+y,1/2-z
-x,1/4+y,1/4+z
3/4+x,1/2-y,1/4+z
1/2+x,y,1/2+z
3/4-x,1/4-y,1/2+z
1/2+x,1/4-y,3/4-z
3/4-x,y,3/4-z
1/2-x,-y,1/2-z
1/4+x,3/4+y,1/2-z
1/2-x,3/4+y,1/4+z
1/4+x,-y,1/4+z
1/2+x,1/2+y,z
3/4-x,3/4-y,z
1/2+x,3/4-y,1/4-z
3/4-x,1/2+y,1/4-z
1/2-x,1/2-y,-z
1/4+x,1/4+y,-z
1/2-x,1/4+y,3/4+z
1/4+x,1/2-y,3/4+z
loop_
_atom_site_type_symbol
_atom_site_label
_atom_site_fract_x
_atom_site_fract_y
_atom_site_fract_z
Si Si1 0.856551 0.637857 0.287300
Si Si2 0.212956 0.662965 0.307995
Si Si3 0.375000 0.875000 0.875000
Si Si4 0.726526 0.025656 0.052195
Si Si5 0.901282 0.085348 0.072128
Si Si6 0.038465 0.486459 0.599136
O O1 0.809976 0.701557 0.312971
O O2 0.849984 0.638680 0.224975
O O3 0.810635 0.571347 0.308298
O O4 0.956538 0.638551 0.304287
O O5 0.125000 0.625000 0.316446
O O6 0.206353 0.707847 0.257027
O O7 0.223602 0.711092 0.356962
O O8 0.316686 0.920470 0.910897
O O9 0.827938 0.028990 0.063234
O O10 0.885537 0.125000 0.125000
O O11 0.992728 0.048204 0.070660
O O12 0.125000 0.514425 0.625000
#
# Coordination Sequence:
#
# PCOD8286354 Si02
#       6
#    32  32   8  32  32  32
#     4  10  24  42  64  96 133 173 216 275 328 394
#     4  10  22  40  61  95 129 173 218 268 325 390
#     4  12  24  40  64  96 138 176 210 268 330 388
#     4  11  24  42  62  97 134 168 221 267 333 392
#     4  11  23  43  67  96 128 171 219 271 328 393
#     4  10  23  42  64  96 129 169 223 268 326 396
#
# _framework density 20.938465000000001
#
# number of rings (size 3 to 8) (size 9 to 14) (size 15 to 20)
#    0.000    1.524    1.905    1.714    6.667    1.143 
#    0.000    1.905    0.000    0.000    0.000    0.000 
#    0.000    0.000    0.000    0.000    0.000    0.000 
#
# Total GULP energy -520959.101800 kJ/mol
# GULP energy per Si atom -12403.788138 kJ/mol
# Density = 2.089081 g / cm^3
# Si number density = 20.938465 Si / 1000 Ang^3
#
#
#
# Elastic Constant Matrix: (Units=GPa)
#
#
# Indices 1 2 3 4 5 6 
#
# 1 128.4299 52.0294 23.1992 0.0000 0.0000 0.0000
# 2 52.0294 84.9516 13.4170 0.0000 0.0000 0.0000
# 3 23.1992 13.4170 102.7024 0.0000 0.0000 0.0000
# 4 0.0000 0.0000 0.0000 32.9276 0.0000 0.0000
# 5 0.0000 0.0000 0.0000 0.0000 33.5362 0.0000
# 6 0.0000 0.0000 0.0000 0.0000 0.0000 38.6586
#
#
#
# Elastic Compliance Matrix: (Units=1/GPa)
#
#
# Indices 1 2 3 4 5 6 
#
# 1 0.010601 -0.006243 -0.001579 0.000000 0.000000 0.000000
# 2 -0.006243 0.015696 -0.000640 0.000000 0.000000 0.000000
# 3 -0.001579 -0.000640 0.010177 0.000000 0.000000 0.000000
# 4 0.000000 0.000000 0.000000 0.030370 0.000000 0.000000
# 5 0.000000 0.000000 0.000000 0.000000 0.029819 0.000000
# 6 0.000000 0.000000 0.000000 0.000000 0.000000 0.025867
#
#
# Mechanical properties :
#
#
# Convention : Reuss Voigt Hill
#
# Bulk Modulus (GPa) = 51.15271 54.81947 52.98609
# Shear Modulus (GPa) = 34.25333 36.18704 35.22018
#
# Velocity S-wave (km/s) = 4.04902 4.16174 4.10577
# Velocity P-wave (km/s) = 6.80753 7.02364 6.91643
#
# Compressibility (1/GPa) = 0.01954931
#
# Stress axis : x y z
#
# Youngs Moduli (GPa) = 94.33244 63.70956 98.25898
#
# Poissons Ratio (x) = 0.39775 0.15515
# Poissons Ratio (y) = 0.58894 0.06291
# Poissons Ratio (z) = 0.14895 0.04079
#
# Static dielectric constant tensor:
#      x y z
#    x 3.883780 0.000000 0.000000 
#    y 0.000000 3.409290 0.000000 
#    z 0.000000 0.000000 3.960170 
# 
# 
# High freq. dielectric constant tensor:
#      x y z
#    x 1.830430 0.000000 0.000000 
#    y 0.000000 1.800490 0.000000 
#    z 0.000000 0.000000 1.840060 
# 
# From -- ./inp_files/29856.got.cif
#   From: 2010.03.12/outbox.cif.g09.slc.cpg/sg70_15_cif.got.tgz:29856.got - 2010.04.16 13:46:32.
