data_PCOD8286599
_publ_section_title
;
Structure prediction by ZEFSAII (Michael W. Deem and Ramdas Pophale) SiO2 
 PCOD8286599
Probable space group: F D D D
;
_chemical_formula_sum "Si O2"
_cell_formula_units_Z 136
_cell_length_a 26.536086
_cell_length_b 11.030309
_cell_length_c 21.633510
_cell_angle_alpha 90.000000
_cell_angle_beta 90.000000
_cell_angle_gamma 90.000000
_cell_volume 6332.154948
_symmetry_space_group_name_H-M "F D D D"
_symmetry_group_IT_number 70
_space_group.IT_coordinate_system_code '2'
_symmetry_cell_setting 'orthorhombic'
loop_
_space_group_symop_operation_xyz
x,y,z
1/4-x,1/4-y,z
x,1/4-y,1/4-z
1/4-x,y,1/4-z
-x,-y,-z
3/4+x,3/4+y,-z
-x,3/4+y,3/4+z
3/4+x,-y,3/4+z
x,1/2+y,1/2+z
1/4-x,3/4-y,1/2+z
x,3/4-y,3/4-z
1/4-x,1/2+y,3/4-z
-x,1/2-y,1/2-z
3/4+x,1/4+y,1/2-z
-x,1/4+y,1/4+z
3/4+x,1/2-y,1/4+z
1/2+x,y,1/2+z
3/4-x,1/4-y,1/2+z
1/2+x,1/4-y,3/4-z
3/4-x,y,3/4-z
1/2-x,-y,1/2-z
1/4+x,3/4+y,1/2-z
1/2-x,3/4+y,1/4+z
1/4+x,-y,1/4+z
1/2+x,1/2+y,z
3/4-x,3/4-y,z
1/2+x,3/4-y,1/4-z
3/4-x,1/2+y,1/4-z
1/2-x,1/2-y,-z
1/4+x,1/4+y,-z
1/2-x,1/4+y,3/4+z
1/4+x,1/2-y,3/4+z
loop_
_atom_site_type_symbol
_atom_site_label
_atom_site_fract_x
_atom_site_fract_y
_atom_site_fract_z
Si Si1 0.450100 0.048396 0.808959
Si Si2 0.810134 0.968677 0.038968
Si Si3 0.375000 0.375000 0.375000
Si Si4 0.568101 0.748482 0.103336
Si Si5 0.915221 0.191690 0.187013
O O1 0.504141 0.981719 0.802941
O O2 0.460718 0.141454 0.864796
O O3 0.431638 0.110734 0.745534
O O4 0.408267 0.952943 0.828411
O O5 0.811093 0.824679 0.052504
O O6 0.854831 0.040937 0.073259
O O7 0.819941 0.003965 0.969059
O O8 0.541019 0.625000 0.125000
O O9 0.625000 0.753710 0.125000
O O10 0.935416 0.125000 0.125000
#
# Coordination Sequence:
#
# PCOD8286599 Si02
#       5
#    32  32   8  32  32
#     4  12  25  44  69  98 132 184 229 270 343 401
#     4  11  24  41  70 103 128 176 228 281 344 394
#     4  12  28  48  62  92 144 192 224 272 320 434
#     4  11  19  41  72  95 128 164 229 294 318 380
#     4  11  24  44  65 104 140 165 218 293 339 402
#
# _framework density 21.477681
#
# number of rings (size 3 to 8) (size 9 to 14) (size 15 to 20)
#    0.000    0.706    5.882    2.118    4.941    1.882 
#    0.000    2.353    0.000    0.000    0.000    0.000 
#    0.000    0.000    0.000    0.000    0.000    0.000 
#
# Total GULP energy -421398.192891 kJ/mol
# GULP energy per Si atom -12394.064497 kJ/mol
# Density = 2.142880 g / cm^3
# Si number density = 21.477681 Si / 1000 Ang^3
#
#
#
# Elastic Constant Matrix: (Units=GPa)
#
#
# Indices 1 2 3 4 5 6 
#
# 1 141.5342 21.1093 21.3896 0.0000 0.0000 0.0000
# 2 21.1093 67.8499 48.5535 0.0000 0.0000 0.0000
# 3 21.3896 48.5535 136.2086 0.0000 0.0000 0.0000
# 4 0.0000 0.0000 0.0000 38.8279 0.0000 0.0000
# 5 0.0000 0.0000 0.0000 0.0000 22.9379 0.0000
# 6 0.0000 0.0000 0.0000 0.0000 0.0000 5.6223
#
#
#
# Elastic Compliance Matrix: (Units=1/GPa)
#
#
# Indices 1 2 3 4 5 6 
#
# 1 0.007431 -0.001982 -0.000460 0.000000 0.000000 0.000000
# 2 -0.001982 0.020314 -0.006930 0.000000 0.000000 0.000000
# 3 -0.000460 -0.006930 0.009884 0.000000 0.000000 0.000000
# 4 0.000000 0.000000 0.000000 0.025755 0.000000 0.000000
# 5 0.000000 0.000000 0.000000 0.000000 0.043596 0.000000
# 6 0.000000 0.000000 0.000000 0.000000 0.000000 0.177864
#
#
# Mechanical properties :
#
#
# Convention : Reuss Voigt Hill
#
# Bulk Modulus (GPa) = 52.95535 58.63308 55.79422
# Shear Modulus (GPa) = 16.13508 30.44697 23.29102
#
# Velocity S-wave (km/s) = 2.74386 3.76920 3.29664
# Velocity P-wave (km/s) = 5.89474 6.80451 6.36589
#
# Compressibility (1/GPa) = 0.01888383
#
# Stress axis : x y z
#
# Youngs Moduli (GPa) = 134.57760 49.22634 101.17102
#
# Poissons Ratio (x) = 0.09759 0.04656
# Poissons Ratio (y) = 0.26680 0.70112
# Poissons Ratio (z) = 0.06193 0.34114
#
# Static dielectric constant tensor:
#      x y z
#    x 4.006430 0.000000 0.000000 
#    y 0.000000 3.996100 0.000000 
#    z 0.000000 0.000000 3.758130 
# 
# 
# High freq. dielectric constant tensor:
#      x y z
#    x 1.859960 0.000000 0.000000 
#    y 0.000000 1.825680 0.000000 
#    z 0.000000 0.000000 1.846110 
# 
# From -- ./inp_files/17667.got.cif
#   From: 2010.03.12/outbox.cif.g09.slc.cpg/sg70_9_cif.got.tgz:17667.got - 2010.04.16 13:46:32.
