data_PCOD8286753
_publ_section_title
;
Structure prediction by ZEFSAII (Michael W. Deem and Ramdas Pophale) SiO2 
 PCOD8286753
Probable space group: F D D D
;
_chemical_formula_sum "Si O2"
_cell_formula_units_Z 120
_cell_length_a 14.985193
_cell_length_b 27.769252
_cell_length_c 12.362236
_cell_angle_alpha 90.000000
_cell_angle_beta 90.000000
_cell_angle_gamma 90.000000
_cell_volume 5144.267606
_symmetry_space_group_name_H-M "F D D D"
_symmetry_group_IT_number 70
_space_group.IT_coordinate_system_code '2'
_symmetry_cell_setting 'orthorhombic'
loop_
_space_group_symop_operation_xyz
x,y,z
1/4-x,1/4-y,z
x,1/4-y,1/4-z
1/4-x,y,1/4-z
-x,-y,-z
3/4+x,3/4+y,-z
-x,3/4+y,3/4+z
3/4+x,-y,3/4+z
x,1/2+y,1/2+z
1/4-x,3/4-y,1/2+z
x,3/4-y,3/4-z
1/4-x,1/2+y,3/4-z
-x,1/2-y,1/2-z
3/4+x,1/4+y,1/2-z
-x,1/4+y,1/4+z
3/4+x,1/2-y,1/4+z
1/2+x,y,1/2+z
3/4-x,1/4-y,1/2+z
1/2+x,1/4-y,3/4-z
3/4-x,y,3/4-z
1/2-x,-y,1/2-z
1/4+x,3/4+y,1/2-z
1/2-x,3/4+y,1/4+z
1/4+x,-y,1/4+z
1/2+x,1/2+y,z
3/4-x,3/4-y,z
1/2+x,3/4-y,1/4-z
3/4-x,1/2+y,1/4-z
1/2-x,1/2-y,-z
1/4+x,1/4+y,-z
1/2-x,1/4+y,3/4+z
1/4+x,1/2-y,3/4+z
loop_
_atom_site_type_symbol
_atom_site_label
_atom_site_fract_x
_atom_site_fract_y
_atom_site_fract_z
Si Si1 0.907320 0.056622 0.986315
Si Si2 0.546481 0.375000 0.375000
Si Si3 0.875000 0.375000 0.375000
Si Si4 0.686070 0.045377 0.229302
Si Si5 0.865043 0.299787 0.534895
O O1 0.875000 0.079729 0.875000
O O2 0.012868 0.060329 0.996788
O O3 0.862873 0.085936 0.080067
O O4 0.863404 0.003727 0.996170
O O5 0.486011 0.346080 0.289299
O O6 0.923545 0.337837 0.461425
O O7 0.625000 0.033162 0.125000
O O8 0.627977 0.055034 0.336680
O O9 0.750000 0.000000 0.250000
#
# Coordination Sequence:
#
# PCOD8286753 Si02
#       5
#    32  16   8  32  32
#     4  11  24  46  71 103 149 195 259 313 383 461
#     4  12  26  50  76 116 152 212 258 322 394 474
#     4  12  26  44  74 110 144 200 246 318 394 454
#     4  12  28  50  80 113 160 210 267 326 397 469
#     4  11  26  47  74 107 152 200 258 318 391 464
#
# _framework density 23.326936
#
# number of rings (size 3 to 8) (size 9 to 14) (size 15 to 20)
#    0.000    0.533    4.000    2.800    7.467    1.067 
#    0.000    0.000    0.000    0.000    0.000    0.000 
#    0.000    0.000    0.000    0.000    0.000    0.000 
#
# Total GULP energy -371680.226727 kJ/mol
# GULP energy per Si atom -12389.340891 kJ/mol
# Density = 2.327384 g / cm^3
# Si number density = 23.326936 Si / 1000 Ang^3
#
#
#
# Elastic Constant Matrix: (Units=GPa)
#
#
# Indices 1 2 3 4 5 6 
#
# 1 87.2485 48.3365 47.4278 0.0000 0.0000 0.0000
# 2 48.3365 160.4329 48.1297 0.0000 0.0000 0.0000
# 3 47.4278 48.1297 180.7732 0.0000 0.0000 0.0000
# 4 0.0000 0.0000 0.0000 49.2429 0.0000 0.0000
# 5 0.0000 0.0000 0.0000 0.0000 45.8318 0.0000
# 6 0.0000 0.0000 0.0000 0.0000 0.0000 38.2745
#
#
#
# Elastic Compliance Matrix: (Units=1/GPa)
#
#
# Indices 1 2 3 4 5 6 
#
# 1 0.015113 -0.003656 -0.002992 0.000000 0.000000 0.000000
# 2 -0.003656 0.007659 -0.001080 0.000000 0.000000 0.000000
# 3 -0.002992 -0.001080 0.006604 0.000000 0.000000 0.000000
# 4 0.000000 0.000000 0.000000 0.020308 0.000000 0.000000
# 5 0.000000 0.000000 0.000000 0.000000 0.021819 0.000000
# 6 0.000000 0.000000 0.000000 0.000000 0.000000 0.026127
#
#
# Mechanical properties :
#
#
# Convention : Reuss Voigt Hill
#
# Bulk Modulus (GPa) = 71.83424 79.58251 75.70838
# Shear Modulus (GPa) = 42.47190 45.64055 44.05622
#
# Velocity S-wave (km/s) = 4.27162 4.42810 4.35057
# Velocity P-wave (km/s) = 7.42903 7.76752 7.60016
#
# Compressibility (1/GPa) = 0.01392094
#
# Stress axis : x y z
#
# Youngs Moduli (GPa) = 66.16721 130.57255 151.41821
#
# Poissons Ratio (x) = 0.47736 0.45301
# Poissons Ratio (y) = 0.24190 0.16351
# Poissons Ratio (z) = 0.19796 0.14100
#
# Static dielectric constant tensor:
#      x y z
#    x 4.036110 0.000000 0.000000 
#    y 0.000000 15.334160 0.000000 
#    z 0.000000 0.000000 4.161590 
# 
# 
# High freq. dielectric constant tensor:
#      x y z
#    x 1.897460 0.000000 0.000000 
#    y 0.000000 1.947850 0.000000 
#    z 0.000000 0.000000 1.945900 
# 
# From -- ./inp_files/25496.got.cif
#   From: 2010.03.12/outbox.cif.g09.slc.cpg/sg70_13_cif.got.tgz:25496.got - 2010.04.16 13:46:32.
