data_PCOD8286120
_publ_section_title
;
Structure prediction by ZEFSAII (Michael W. Deem and Ramdas Pophale) SiO2 
 PCOD8286120
Probable space group: F D D D
;
_chemical_formula_sum "Si O2"
_cell_formula_units_Z 128
_cell_length_a 7.375776
_cell_length_b 25.807230
_cell_length_c 29.222555
_cell_angle_alpha 90.000000
_cell_angle_beta 90.000000
_cell_angle_gamma 90.000000
_cell_volume 5562.465059
_symmetry_space_group_name_H-M "F D D D"
_symmetry_group_IT_number 70
_space_group.IT_coordinate_system_code '2'
_symmetry_cell_setting 'orthorhombic'
loop_
_space_group_symop_operation_xyz
x,y,z
1/4-x,1/4-y,z
x,1/4-y,1/4-z
1/4-x,y,1/4-z
-x,-y,-z
3/4+x,3/4+y,-z
-x,3/4+y,3/4+z
3/4+x,-y,3/4+z
x,1/2+y,1/2+z
1/4-x,3/4-y,1/2+z
x,3/4-y,3/4-z
1/4-x,1/2+y,3/4-z
-x,1/2-y,1/2-z
3/4+x,1/4+y,1/2-z
-x,1/4+y,1/4+z
3/4+x,1/2-y,1/4+z
1/2+x,y,1/2+z
3/4-x,1/4-y,1/2+z
1/2+x,1/4-y,3/4-z
3/4-x,y,3/4-z
1/2-x,-y,1/2-z
1/4+x,3/4+y,1/2-z
1/2-x,3/4+y,1/4+z
1/4+x,-y,1/4+z
1/2+x,1/2+y,z
3/4-x,3/4-y,z
1/2+x,3/4-y,1/4-z
3/4-x,1/2+y,1/4-z
1/2-x,1/2-y,-z
1/4+x,1/4+y,-z
1/2-x,1/4+y,3/4+z
1/4+x,1/2-y,3/4+z
loop_
_atom_site_type_symbol
_atom_site_label
_atom_site_fract_x
_atom_site_fract_y
_atom_site_fract_z
Si Si1 0.095350 0.754405 0.297432
Si Si2 0.913964 0.131521 0.675205
Si Si3 0.375000 0.704165 0.875000
Si Si4 0.625000 0.125000 0.831422
Si Si5 0.944820 0.660548 0.981490
O O1 0.156302 0.813051 0.306510
O O2 0.268223 0.716638 0.291358
O O3 0.000000 0.750000 0.250000
O O4 0.942425 0.740433 0.334382
O O5 0.818849 0.125000 0.625000
O O6 0.867738 0.089464 0.715736
O O7 0.125000 0.125000 0.667027
O O8 0.556206 0.671555 0.886711
O O9 0.796465 0.113393 0.800797
O O10 0.125000 0.625000 0.980195
#
# Coordination Sequence:
#
# PCOD8286120 Si02
#       5
#    32  32  16  16  32
#     4  12  22  40  69 102 139 187 244 290 370 438
#     4  10  20  39  71 101 143 194 238 295 367 440
#     4  12  24  38  69  96 132 180 235 298 360 444
#     4  12  24  46  69 104 138 185 238 306 370 424
#     4  11  22  44  71  99 144 186 235 307 356 436
#
# _framework density 23.011379999999999
#
# number of rings (size 3 to 8) (size 9 to 14) (size 15 to 20)
#    0.000    0.750    7.500    3.000    0.000    0.000 
#    0.000    5.625   11.000    0.000    0.000    0.000 
#    0.000    0.000    0.000    0.000    0.000    0.000 
#
# Total GULP energy -396420.147971 kJ/mol
# GULP energy per Si atom -12388.129624 kJ/mol
# Density = 2.295901 g / cm^3
# Si number density = 23.011380 Si / 1000 Ang^3
#
#
#
# Elastic Constant Matrix: (Units=GPa)
#
#
# Indices 1 2 3 4 5 6 
#
# 1 66.1251 15.1878 24.7719 0.0000 0.0000 0.0000
# 2 15.1878 114.2466 47.1012 0.0000 0.0000 0.0000
# 3 24.7719 47.1012 171.5536 0.0000 0.0000 0.0000
# 4 0.0000 0.0000 0.0000 29.5785 0.0000 0.0000
# 5 0.0000 0.0000 0.0000 0.0000 1.6918 0.0000
# 6 0.0000 0.0000 0.0000 0.0000 0.0000 17.6080
#
#
#
# Elastic Compliance Matrix: (Units=1/GPa)
#
#
# Indices 1 2 3 4 5 6 
#
# 1 0.016167 -0.001338 -0.001967 0.000000 0.000000 0.000000
# 2 -0.001338 0.009981 -0.002547 0.000000 0.000000 0.000000
# 3 -0.001967 -0.002547 0.006812 0.000000 0.000000 0.000000
# 4 0.000000 0.000000 0.000000 0.033808 0.000000 0.000000
# 5 0.000000 0.000000 0.000000 0.000000 0.591094 0.000000
# 6 0.000000 0.000000 0.000000 0.000000 0.000000 0.056792
#
#
# Mechanical properties :
#
#
# Convention : Reuss Voigt Hill
#
# Bulk Modulus (GPa) = 47.04615 58.44967 52.74791
# Shear Modulus (GPa) = 6.81714 27.43326 17.12520
#
# Velocity S-wave (km/s) = 1.72306 3.45651 2.73097
# Velocity P-wave (km/s) = 4.94446 6.43315 5.73730
#
# Compressibility (1/GPa) = 0.02125572
#
# Stress axis : x y z
#
# Youngs Moduli (GPa) = 61.85384 100.19014 146.79013
#
# Poissons Ratio (x) = 0.13408 0.28875
# Poissons Ratio (y) = 0.08278 0.37389
# Poissons Ratio (z) = 0.12167 0.25520
#
# Static dielectric constant tensor:
#      x y z
#    x 4.001480 0.000000 0.000000 
#    y 0.000000 4.057920 0.000000 
#    z 0.000000 0.000000 4.812470 
# 
# 
# High freq. dielectric constant tensor:
#      x y z
#    x 1.877940 0.000000 0.000000 
#    y 0.000000 1.898550 0.000000 
#    z 0.000000 0.000000 1.947120 
# 
# From -- ./inp_files/63689.got.cif
#   From: 2010.03.12/outbox.cif.g09.slc.cpg/sg70_32_cif.got.tgz:63689.got - 2010.04.16 13:46:32.
