data_PCOD8286332
_publ_section_title
;
Structure prediction by ZEFSAII (Michael W. Deem and Ramdas Pophale) SiO2 
 PCOD8286332
Probable space group: F D D D
;
_chemical_formula_sum "Si O2"
_cell_formula_units_Z 160
_cell_length_a 21.674193
_cell_length_b 18.730767
_cell_length_c 18.437165
_cell_angle_alpha 90.000000
_cell_angle_beta 90.000000
_cell_angle_gamma 90.000000
_cell_volume 7485.014399
_symmetry_space_group_name_H-M "F D D D"
_symmetry_group_IT_number 70
_space_group.IT_coordinate_system_code '2'
_symmetry_cell_setting 'orthorhombic'
loop_
_space_group_symop_operation_xyz
x,y,z
1/4-x,1/4-y,z
x,1/4-y,1/4-z
1/4-x,y,1/4-z
-x,-y,-z
3/4+x,3/4+y,-z
-x,3/4+y,3/4+z
3/4+x,-y,3/4+z
x,1/2+y,1/2+z
1/4-x,3/4-y,1/2+z
x,3/4-y,3/4-z
1/4-x,1/2+y,3/4-z
-x,1/2-y,1/2-z
3/4+x,1/4+y,1/2-z
-x,1/4+y,1/4+z
3/4+x,1/2-y,1/4+z
1/2+x,y,1/2+z
3/4-x,1/4-y,1/2+z
1/2+x,1/4-y,3/4-z
3/4-x,y,3/4-z
1/2-x,-y,1/2-z
1/4+x,3/4+y,1/2-z
1/2-x,3/4+y,1/4+z
1/4+x,-y,1/4+z
1/2+x,1/2+y,z
3/4-x,3/4-y,z
1/2+x,3/4-y,1/4-z
3/4-x,1/2+y,1/4-z
1/2-x,1/2-y,-z
1/4+x,1/4+y,-z
1/2-x,1/4+y,3/4+z
1/4+x,1/2-y,3/4+z
loop_
_atom_site_type_symbol
_atom_site_label
_atom_site_fract_x
_atom_site_fract_y
_atom_site_fract_z
Si Si1 0.393406 0.967947 0.953197
Si Si2 0.800094 0.583406 0.198274
Si Si3 0.460573 0.901828 0.714896
Si Si4 0.655197 0.378595 0.050630
Si Si5 0.935505 0.833734 0.696983
O O1 0.375000 0.936929 0.875000
O O2 0.422462 0.045623 0.941099
O O3 0.445802 0.918121 0.987689
O O4 0.332213 0.966479 0.005318
O O5 0.785801 0.625000 0.125000
O O6 0.859050 0.618164 0.234611
O O7 0.740925 0.597375 0.247993
O O8 0.819155 0.501312 0.186294
O O9 0.532929 0.922412 0.719699
O O10 0.447798 0.882052 0.631400
O O11 0.625000 0.409432 0.125000
O O12 0.875000 0.875000 0.728352
#
# Coordination Sequence:
#
# PCOD8286332 Si02
#       5
#    32  32  32  32  32
#     4  10  22  38  64  99 130 163 213 262 319 398
#     4  11  26  44  66  99 132 169 231 278 322 390
#     4  11  20  40  65  90 135 170 205 261 324 386
#     4  11  23  42  64  95 130 169 211 266 326 387
#     4  11  24  45  69  96 129 179 223 273 334 391
#
# _framework density 21.376045000000001
#
# number of rings (size 3 to 8) (size 9 to 14) (size 15 to 20)
#    0.000    1.200    4.000    3.000    0.000    5.200 
#    0.000    0.000    0.000    0.000    0.000    0.000 
#    0.000    0.000    0.000    0.000    0.000    0.000 
#
# Total GULP energy -495857.089505 kJ/mol
# GULP energy per Si atom -12396.427238 kJ/mol
# Density = 2.132739 g / cm^3
# Si number density = 21.376045 Si / 1000 Ang^3
#
#
#
# Elastic Constant Matrix: (Units=GPa)
#
#
# Indices 1 2 3 4 5 6 
#
# 1 153.4491 23.8243 48.1420 0.0000 0.0000 0.0000
# 2 23.8243 48.7306 16.8691 0.0000 0.0000 0.0000
# 3 48.1420 16.8691 142.2215 0.0000 0.0000 0.0000
# 4 0.0000 0.0000 0.0000 23.0025 0.0000 0.0000
# 5 0.0000 0.0000 0.0000 0.0000 38.3574 0.0000
# 6 0.0000 0.0000 0.0000 0.0000 0.0000 25.5658
#
#
#
# Elastic Compliance Matrix: (Units=1/GPa)
#
#
# Indices 1 2 3 4 5 6 
#
# 1 0.007685 -0.002979 -0.002248 0.000000 0.000000 0.000000
# 2 -0.002979 0.022554 -0.001667 0.000000 0.000000 0.000000
# 3 -0.002248 -0.001667 0.007990 0.000000 0.000000 0.000000
# 4 0.000000 0.000000 0.000000 0.043474 0.000000 0.000000
# 5 0.000000 0.000000 0.000000 0.000000 0.026071 0.000000
# 6 0.000000 0.000000 0.000000 0.000000 0.000000 0.039115
#
#
# Mechanical properties :
#
#
# Convention : Reuss Voigt Hill
#
# Bulk Modulus (GPa) = 40.91379 58.00799 49.46089
# Shear Modulus (GPa) = 29.61697 34.42285 32.01991
#
# Velocity S-wave (km/s) = 3.72630 4.01727 3.87451
# Velocity P-wave (km/s) = 6.13965 6.97952 6.57301
#
# Compressibility (1/GPa) = 0.02444164
#
# Stress axis : x y z
#
# Youngs Moduli (GPa) = 130.13144 44.33738 125.15788
#
# Poissons Ratio (x) = 0.13207 0.28134
# Poissons Ratio (y) = 0.38763 0.20862
# Poissons Ratio (z) = 0.29252 0.07391
#
# Static dielectric constant tensor:
#      x y z
#    x 3.987070 0.000000 0.000000 
#    y 0.000000 3.695610 0.000000 
#    z 0.000000 0.000000 3.987800 
# 
# 
# High freq. dielectric constant tensor:
#      x y z
#    x 1.841400 0.000000 0.000000 
#    y 0.000000 1.827690 0.000000 
#    z 0.000000 0.000000 1.850680 
# 
# From -- ./inp_files/36319.got.cif
#   From: 2010.03.12/outbox.cif.g09.slc.cpg/sg70_19_cif.got.tgz:36319.got - 2010.04.16 13:46:32.
