data_PCOD8286830
_publ_section_title
;
Structure prediction by ZEFSAII (Michael W. Deem and Ramdas Pophale) SiO2 
 PCOD8286830
Probable space group: F D D D
;
_chemical_formula_sum "Si O2"
_cell_formula_units_Z 112
_cell_length_a 10.619368
_cell_length_b 36.091323
_cell_length_c 15.533899
_cell_angle_alpha 90.000000
_cell_angle_beta 90.000000
_cell_angle_gamma 90.000000
_cell_volume 5953.631498
_symmetry_space_group_name_H-M "F D D D"
_symmetry_group_IT_number 70
_space_group.IT_coordinate_system_code '2'
_symmetry_cell_setting 'orthorhombic'
loop_
_space_group_symop_operation_xyz
x,y,z
1/4-x,1/4-y,z
x,1/4-y,1/4-z
1/4-x,y,1/4-z
-x,-y,-z
3/4+x,3/4+y,-z
-x,3/4+y,3/4+z
3/4+x,-y,3/4+z
x,1/2+y,1/2+z
1/4-x,3/4-y,1/2+z
x,3/4-y,3/4-z
1/4-x,1/2+y,3/4-z
-x,1/2-y,1/2-z
3/4+x,1/4+y,1/2-z
-x,1/4+y,1/4+z
3/4+x,1/2-y,1/4+z
1/2+x,y,1/2+z
3/4-x,1/4-y,1/2+z
1/2+x,1/4-y,3/4-z
3/4-x,y,3/4-z
1/2-x,-y,1/2-z
1/4+x,3/4+y,1/2-z
1/2-x,3/4+y,1/4+z
1/4+x,-y,1/4+z
1/2+x,1/2+y,z
3/4-x,3/4-y,z
1/2+x,3/4-y,1/4-z
3/4-x,1/2+y,1/4-z
1/2-x,1/2-y,-z
1/4+x,1/4+y,-z
1/2-x,1/4+y,3/4+z
1/4+x,1/2-y,3/4+z
loop_
_atom_site_type_symbol
_atom_site_label
_atom_site_fract_x
_atom_site_fract_y
_atom_site_fract_z
Si Si1 0.563323 0.037096 0.532403
Si Si2 0.999821 0.076061 0.331957
Si Si3 0.138025 0.398409 0.726507
Si Si4 0.375000 0.375000 0.215515
O O1 0.625000 0.032020 0.625000
O O2 0.679644 0.044321 0.469337
O O3 0.459328 0.069991 0.530396
O O4 0.500000 0.000000 0.500000
O O5 0.089867 0.089800 0.407639
O O6 0.875000 0.058768 0.375000
O O7 0.967991 0.110494 0.268350
O O8 0.125000 0.409074 0.625000
O O9 0.998785 0.389567 0.767776
#
# Coordination Sequence:
#
# PCOD8286830 Si02
#       4
#    32  32  32  16
#     4  12  24  36  56  87 119 159 198 246 291 352
#     4   9  17  34  60  85 111 149 194 236 293 348
#     4   9  16  33  60  90 110 144 194 239 295 351
#     4   8  14  30  65  85 108 144 186 246 284 358
#
# _framework density 18.812048000000001
#
# number of rings (size 3 to 8) (size 9 to 14) (size 15 to 20)
#    0.000    2.857    5.714    0.857    0.000    2.286 
#    0.000    1.429    0.000    6.857    0.000    0.000 
#    0.000    0.000    0.000    0.000    0.000    0.000 
#
# Total GULP energy -346872.799785 kJ/mol
# GULP energy per Si atom -12388.314278 kJ/mol
# Density = 1.876923 g / cm^3
# Si number density = 18.812048 Si / 1000 Ang^3
#
#
#
# Elastic Constant Matrix: (Units=GPa)
#
#
# Indices 1 2 3 4 5 6 
#
# 1 166.0678 77.8163 46.8958 0.0000 0.0000 0.0000
# 2 77.8163 115.6123 47.8919 0.0000 0.0000 0.0000
# 3 46.8958 47.8919 71.3263 0.0000 0.0000 0.0000
# 4 0.0000 0.0000 0.0000 25.8321 0.0000 0.0000
# 5 0.0000 0.0000 0.0000 0.0000 32.9899 0.0000
# 6 0.0000 0.0000 0.0000 0.0000 0.0000 33.6171
#
#
#
# Elastic Compliance Matrix: (Units=1/GPa)
#
#
# Indices 1 2 3 4 5 6 
#
# 1 0.009131 -0.005069 -0.002600 0.000000 0.000000 0.000000
# 2 -0.005069 0.014796 -0.006602 0.000000 0.000000 0.000000
# 3 -0.002600 -0.006602 0.020163 0.000000 0.000000 0.000000
# 4 0.000000 0.000000 0.000000 0.038712 0.000000 0.000000
# 5 0.000000 0.000000 0.000000 0.000000 0.030312 0.000000
# 6 0.000000 0.000000 0.000000 0.000000 0.000000 0.029747
#
#
# Mechanical properties :
#
#
# Convention : Reuss Voigt Hill
#
# Bulk Modulus (GPa) = 64.31833 77.57941 70.94887
# Shear Modulus (GPa) = 28.31491 30.51465 29.41478
#
# Velocity S-wave (km/s) = 3.88383 4.03188 3.95855
# Velocity P-wave (km/s) = 7.37404 7.93747 7.66093
#
# Compressibility (1/GPa) = 0.01554767
#
# Stress axis : x y z
#
# Youngs Moduli (GPa) = 109.51664 67.58441 49.59670
#
# Poissons Ratio (x) = 0.34258 0.12895
# Poissons Ratio (y) = 0.55513 0.32745
# Poissons Ratio (z) = 0.28475 0.44621
#
# Static dielectric constant tensor:
#      x y z
#    x 4.794740 0.000000 0.000000 
#    y 0.000000 3.178200 0.000000 
#    z 0.000000 0.000000 3.024150 
# 
# 
# High freq. dielectric constant tensor:
#      x y z
#    x 1.764510 0.000000 0.000000 
#    y 0.000000 1.700720 0.000000 
#    z 0.000000 0.000000 1.683790 
# 
# From -- ./inp_files/24437.got.cif
#   From: 2010.03.12/outbox.cif.g09.slc.cpg/sg70_13_cif.got.tgz:24437.got - 2010.04.16 13:46:32.
