data_PCOD8286600
_publ_section_title
;
Structure prediction by ZEFSAII (Michael W. Deem and Ramdas Pophale) SiO2 
 PCOD8286600
Probable space group: F D D D
;
_chemical_formula_sum "Si O2"
_cell_formula_units_Z 168
_cell_length_a 11.066383
_cell_length_b 24.135352
_cell_length_c 33.024895
_cell_angle_alpha 90.000000
_cell_angle_beta 90.000000
_cell_angle_gamma 90.000000
_cell_volume 8820.653851
_symmetry_space_group_name_H-M "F D D D"
_symmetry_group_IT_number 70
_space_group.IT_coordinate_system_code '2'
_symmetry_cell_setting 'orthorhombic'
loop_
_space_group_symop_operation_xyz
x,y,z
1/4-x,1/4-y,z
x,1/4-y,1/4-z
1/4-x,y,1/4-z
-x,-y,-z
3/4+x,3/4+y,-z
-x,3/4+y,3/4+z
3/4+x,-y,3/4+z
x,1/2+y,1/2+z
1/4-x,3/4-y,1/2+z
x,3/4-y,3/4-z
1/4-x,1/2+y,3/4-z
-x,1/2-y,1/2-z
3/4+x,1/4+y,1/2-z
-x,1/4+y,1/4+z
3/4+x,1/2-y,1/4+z
1/2+x,y,1/2+z
3/4-x,1/4-y,1/2+z
1/2+x,1/4-y,3/4-z
3/4-x,y,3/4-z
1/2-x,-y,1/2-z
1/4+x,3/4+y,1/2-z
1/2-x,3/4+y,1/4+z
1/4+x,-y,1/4+z
1/2+x,1/2+y,z
3/4-x,3/4-y,z
1/2+x,3/4-y,1/4-z
3/4-x,1/2+y,1/4-z
1/2-x,1/2-y,-z
1/4+x,1/4+y,-z
1/2-x,1/4+y,3/4+z
1/4+x,1/2-y,3/4+z
loop_
_atom_site_type_symbol
_atom_site_label
_atom_site_fract_x
_atom_site_fract_y
_atom_site_fract_z
Si Si1 0.135299 0.998299 0.950351
Si Si2 0.005813 0.402243 0.232855
Si Si3 0.490744 0.559815 0.626315
Si Si4 0.465036 0.046080 0.681557
Si Si5 0.125000 0.625000 0.625000
Si Si6 0.886847 0.205847 0.290227
O O1 0.176201 0.953222 0.918440
O O2 0.235348 0.046790 0.952301
O O3 0.116639 0.970315 0.993298
O O4 0.005172 0.021394 0.936856
O O5 0.875000 0.375000 0.241970
O O6 0.056743 0.424175 0.275516
O O7 0.102194 0.361340 0.210612
O O8 0.497302 0.625000 0.625000
O O9 0.625000 0.533957 0.625000
O O10 0.414939 0.535265 0.588747
O O11 0.543213 0.086019 0.653001
O O12 0.524043 0.984512 0.687093
#
# Coordination Sequence:
#
# PCOD8286600 Si02
#       6
#    32  32  32  32   8  32
#     4   9  18  33  55  81 114 150 183 232 283 344
#     4   9  17  33  55  81 119 152 183 226 296 348
#     4  11  23  37  54  77 115 155 192 232 295 347
#     4  11  20  31  54  88 115 141 187 250 281 335
#     4  12  20  28  54  92 120 128 180 246 302 312
#     4   9  18  31  55  86 111 143 189 230 290 338
#
# _framework density 19.046206999999999
#
# number of rings (size 3 to 8) (size 9 to 14) (size 15 to 20)
#    0.000    2.095    1.905    3.429    0.000    0.000 
#    0.000    3.810   14.667    2.286    0.000    0.000 
#    0.000    0.000    0.000    0.000    0.000    0.000 
#
# Total GULP energy -520526.428448 kJ/mol
# GULP energy per Si atom -12393.486392 kJ/mol
# Density = 1.900286 g / cm^3
# Si number density = 19.046207 Si / 1000 Ang^3
#
#
#
# Elastic Constant Matrix: (Units=GPa)
#
#
# Indices 1 2 3 4 5 6 
#
# 1 107.5048 37.8553 50.3379 0.0000 0.0000 0.0000
# 2 37.8553 92.3550 32.4121 0.0000 0.0000 0.0000
# 3 50.3379 32.4121 76.2727 0.0000 0.0000 0.0000
# 4 0.0000 0.0000 0.0000 33.6857 0.0000 0.0000
# 5 0.0000 0.0000 0.0000 0.0000 22.0132 0.0000
# 6 0.0000 0.0000 0.0000 0.0000 0.0000 19.4787
#
#
#
# Elastic Compliance Matrix: (Units=1/GPa)
#
#
# Indices 1 2 3 4 5 6 
#
# 1 0.014118 -0.002958 -0.008060 0.000000 0.000000 0.000000
# 2 -0.002958 0.013345 -0.003719 0.000000 0.000000 0.000000
# 3 -0.008060 -0.003719 0.020011 0.000000 0.000000 0.000000
# 4 0.000000 0.000000 0.000000 0.029686 0.000000 0.000000
# 5 0.000000 0.000000 0.000000 0.000000 0.045427 0.000000
# 6 0.000000 0.000000 0.000000 0.000000 0.000000 0.051338
#
#
# Mechanical properties :
#
#
# Convention : Reuss Voigt Hill
#
# Bulk Modulus (GPa) = 55.55723 57.48257 56.51990
# Shear Modulus (GPa) = 23.87779 25.40399 24.64089
#
# Velocity S-wave (km/s) = 3.54457 3.65610 3.60077
# Velocity P-wave (km/s) = 6.78123 6.93317 6.85762
#
# Compressibility (1/GPa) = 0.01799946
#
# Stress axis : x y z
#
# Youngs Moduli (GPa) = 70.83365 74.93229 49.97302
#
# Poissons Ratio (x) = 0.22164 0.40280
# Poissons Ratio (y) = 0.20952 0.18585
# Poissons Ratio (z) = 0.57094 0.27867
#
# Static dielectric constant tensor:
#      x y z
#    x 3.653180 0.000000 0.000000 
#    y 0.000000 3.751690 0.000000 
#    z 0.000000 0.000000 3.327080 
# 
# 
# High freq. dielectric constant tensor:
#      x y z
#    x 1.719530 0.000000 0.000000 
#    y 0.000000 1.735770 0.000000 
#    z 0.000000 0.000000 1.728580 
# 
# From -- ./inp_files/54991.got.cif
#   From: 2010.03.12/outbox.cif.g09.slc.cpg/sg70_28_cif.got.tgz:54991.got - 2010.04.16 13:46:32.
