data_PCOD8286057
_publ_section_title
;
Structure prediction by ZEFSAII (Michael W. Deem and Ramdas Pophale) SiO2 
 PCOD8286057
Probable space group: F D D D
;
_chemical_formula_sum "Si O2"
_cell_formula_units_Z 160
_cell_length_a 19.246630
_cell_length_b 27.378862
_cell_length_c 16.052462
_cell_angle_alpha 90.000000
_cell_angle_beta 90.000000
_cell_angle_gamma 90.000000
_cell_volume 8458.858122
_symmetry_space_group_name_H-M "F D D D"
_symmetry_group_IT_number 70
_space_group.IT_coordinate_system_code '2'
_symmetry_cell_setting 'orthorhombic'
loop_
_space_group_symop_operation_xyz
x,y,z
1/4-x,1/4-y,z
x,1/4-y,1/4-z
1/4-x,y,1/4-z
-x,-y,-z
3/4+x,3/4+y,-z
-x,3/4+y,3/4+z
3/4+x,-y,3/4+z
x,1/2+y,1/2+z
1/4-x,3/4-y,1/2+z
x,3/4-y,3/4-z
1/4-x,1/2+y,3/4-z
-x,1/2-y,1/2-z
3/4+x,1/4+y,1/2-z
-x,1/4+y,1/4+z
3/4+x,1/2-y,1/4+z
1/2+x,y,1/2+z
3/4-x,1/4-y,1/2+z
1/2+x,1/4-y,3/4-z
3/4-x,y,3/4-z
1/2-x,-y,1/2-z
1/4+x,3/4+y,1/2-z
1/2-x,3/4+y,1/4+z
1/4+x,-y,1/4+z
1/2+x,1/2+y,z
3/4-x,3/4-y,z
1/2+x,3/4-y,1/4-z
3/4-x,1/2+y,1/4-z
1/2-x,1/2-y,-z
1/4+x,1/4+y,-z
1/2-x,1/4+y,3/4+z
1/4+x,1/2-y,3/4+z
loop_
_atom_site_type_symbol
_atom_site_label
_atom_site_fract_x
_atom_site_fract_y
_atom_site_fract_z
Si Si1 0.009948 0.125000 0.625000
Si Si2 0.875000 0.875000 0.248576
Si Si3 0.461279 0.125000 0.625000
Si Si4 0.601554 0.448054 0.306866
Si Si5 0.512762 0.621677 0.952559
Si Si6 0.875656 0.942959 0.106384
Si Si7 0.375000 0.081473 0.375000
O O1 0.059097 0.143509 0.698863
O O2 0.965322 0.170776 0.593024
O O3 0.899137 0.923547 0.197492
O O4 0.418657 0.170208 0.660650
O O5 0.506640 0.141899 0.546654
O O6 0.607337 0.500855 0.348150
O O7 0.601320 0.450862 0.205293
O O8 0.554206 0.663868 0.906395
O O9 0.559975 0.572046 0.954261
O O10 0.439100 0.615080 0.905389
#
# Coordination Sequence:
#
# PCOD8286057 Si02
#       7
#    16  16  16  32  32  32  16
#     4  10  20  39  60  81 112 152 184 228 282 328
#     4   9  20  38  58  81 114 146 188 231 274 332
#     4   9  20  34  50  78 108 143 190 228 268 336
#     4  10  21  35  57  83 111 145 187 231 280 332
#     4   9  20  36  54  76 110 147 181 227 279 329
#     4  10  21  36  56  83 112 144 183 231 281 330
#     4  10  20  38  58  79 112 149 184 230 280 334
#
# _framework density 18.915082999999999
#
# number of rings (size 3 to 8) (size 9 to 14) (size 15 to 20)
#    0.000    2.600    0.000    2.400    0.000   10.400 
#    0.000    2.000    0.000    0.000    0.000    0.000 
#    0.000    0.000    0.000    0.000    0.000    0.000 
#
# Total GULP energy -495600.989967 kJ/mol
# GULP energy per Si atom -12390.024749 kJ/mol
# Density = 1.887203 g / cm^3
# Si number density = 18.915083 Si / 1000 Ang^3
#
#
#
# Elastic Constant Matrix: (Units=GPa)
#
#
# Indices 1 2 3 4 5 6 
#
# 1 99.1881 27.2643 41.8471 0.0000 0.0000 0.0000
# 2 27.2643 114.4778 42.6150 0.0000 0.0000 0.0000
# 3 41.8471 42.6150 139.6830 0.0000 0.0000 0.0000
# 4 0.0000 0.0000 0.0000 9.1994 0.0000 0.0000
# 5 0.0000 0.0000 0.0000 0.0000 25.4741 0.0000
# 6 0.0000 0.0000 0.0000 0.0000 0.0000 -2.1186
#
#
#
# Elastic Compliance Matrix: (Units=1/GPa)
#
#
# Indices 1 2 3 4 5 6 
#
# 1 0.011823 -0.001689 -0.003027 0.000000 0.000000 0.000000
# 2 -0.001689 0.010096 -0.002574 0.000000 0.000000 0.000000
# 3 -0.003027 -0.002574 0.008851 0.000000 0.000000 0.000000
# 4 0.000000 0.000000 0.000000 0.108703 0.000000 0.000000
# 5 0.000000 0.000000 0.000000 0.000000 0.039256 0.000000
# 6 0.000000 0.000000 0.000000 0.000000 0.000000 -0.472019
#
#
# Mechanical properties :
#
#
# Convention : Reuss Voigt Hill
#
# Bulk Modulus (GPa) = 61.76530 64.08907 62.92719
# Shear Modulus (GPa) = -18.29394 22.61916 2.16261
#
# Velocity S-wave (km/s) = -3.11330 3.46182 1.07042
# Velocity P-wave (km/s) = 4.44988 7.06647 5.90493
#
# Compressibility (1/GPa) = 0.01619032
#
# Stress axis : x y z
#
# Youngs Moduli (GPa) = 84.58011 99.05115 112.97998
#
# Poissons Ratio (x) = 0.16731 0.34196
# Poissons Ratio (y) = 0.14286 0.29081
# Poissons Ratio (z) = 0.25600 0.25496
#
# Static dielectric constant tensor:
#      x y z
#    x 3.652680 0.000000 0.000000 
#    y 0.000000 3.137950 0.000000 
#    z 0.000000 0.000000 4.202870 
# 
# 
# High freq. dielectric constant tensor:
#      x y z
#    x 1.751620 0.000000 0.000000 
#    y 0.000000 1.699260 0.000000 
#    z 0.000000 0.000000 1.749600 
# 
# From -- ./inp_files/35208.got.cif
#   From: 2010.03.12/outbox.cif.g09.slc.cpg/sg70_18_cif.got.tgz:35208.got - 2010.04.16 13:46:32.
