data_PCOD8286543
_publ_section_title
;
Structure prediction by ZEFSAII (Michael W. Deem and Ramdas Pophale) SiO2 
 PCOD8286543
Probable space group: F D D D
;
_chemical_formula_sum "Si O2"
_cell_formula_units_Z 112
_cell_length_a 25.832721
_cell_length_b 19.959411
_cell_length_c 9.431432
_cell_angle_alpha 90.000000
_cell_angle_beta 90.000000
_cell_angle_gamma 90.000000
_cell_volume 4862.901944
_symmetry_space_group_name_H-M "F D D D"
_symmetry_group_IT_number 70
_space_group.IT_coordinate_system_code '2'
_symmetry_cell_setting 'orthorhombic'
loop_
_space_group_symop_operation_xyz
x,y,z
1/4-x,1/4-y,z
x,1/4-y,1/4-z
1/4-x,y,1/4-z
-x,-y,-z
3/4+x,3/4+y,-z
-x,3/4+y,3/4+z
3/4+x,-y,3/4+z
x,1/2+y,1/2+z
1/4-x,3/4-y,1/2+z
x,3/4-y,3/4-z
1/4-x,1/2+y,3/4-z
-x,1/2-y,1/2-z
3/4+x,1/4+y,1/2-z
-x,1/4+y,1/4+z
3/4+x,1/2-y,1/4+z
1/2+x,y,1/2+z
3/4-x,1/4-y,1/2+z
1/2+x,1/4-y,3/4-z
3/4-x,y,3/4-z
1/2-x,-y,1/2-z
1/4+x,3/4+y,1/2-z
1/2-x,3/4+y,1/4+z
1/4+x,-y,1/4+z
1/2+x,1/2+y,z
3/4-x,3/4-y,z
1/2+x,3/4-y,1/4-z
3/4-x,1/2+y,1/4-z
1/2-x,1/2-y,-z
1/4+x,1/4+y,-z
1/2-x,1/4+y,3/4+z
1/4+x,1/2-y,3/4+z
loop_
_atom_site_type_symbol
_atom_site_label
_atom_site_fract_x
_atom_site_fract_y
_atom_site_fract_z
Si Si1 0.361012 0.772084 0.666516
Si Si2 0.875000 0.705638 0.875000
Si Si3 0.202078 0.400729 0.026558
Si Si4 0.456088 0.855840 0.722082
O O1 0.381438 0.751799 0.511983
O O2 0.339589 0.709249 0.754112
O O3 0.410612 0.801640 0.750145
O O4 0.316746 0.827999 0.646274
O O5 0.824035 0.660157 0.888751
O O6 0.249925 0.425925 0.121789
O O7 0.222949 0.375000 0.875000
O O8 0.479606 0.875000 0.875000
#
# Coordination Sequence:
#
# PCOD8286543 Si02
#       4
#    32  16  32  32
#     4  10  24  45  70 103 145 175 241 288 344 430
#     4  10  24  43  70 105 132 188 226 292 356 404
#     4  10  25  45  70 102 141 180 236 287 352 420
#     4  11  26  44  71 103 138 190 229 291 355 405
#
# _framework density 23.031514000000001
#
# number of rings (size 3 to 8) (size 9 to 14) (size 15 to 20)
#    0.000    1.714    0.000    1.714   12.000    8.000 
#    0.000    0.000    0.000    0.000    0.000    0.000 
#    0.000    0.000    0.000    0.000    0.000    0.000 
#
# Total GULP energy -347373.199617 kJ/mol
# GULP energy per Si atom -12406.185701 kJ/mol
# Density = 2.297909 g / cm^3
# Si number density = 23.031514 Si / 1000 Ang^3
#
#
#
# Elastic Constant Matrix: (Units=GPa)
#
#
# Indices 1 2 3 4 5 6 
#
# 1 91.4893 20.3903 72.8279 0.0000 0.0000 0.0000
# 2 20.3903 93.4998 56.6709 0.0001 0.0000 0.0000
# 3 72.8279 56.6709 151.6949 0.0001 -0.0001 -0.0001
# 4 0.0000 0.0001 0.0001 40.5610 0.0000 -0.0001
# 5 0.0000 0.0000 -0.0001 0.0000 46.7992 0.0000
# 6 0.0000 0.0000 -0.0001 -0.0001 0.0000 19.3739
#
#
#
# Elastic Compliance Matrix: (Units=1/GPa)
#
#
# Indices 1 2 3 4 5 6 
#
# 1 0.017895 0.001687 -0.009221 0.000000 0.000000 0.000000
# 2 0.001687 0.013985 -0.006034 0.000000 0.000000 0.000000
# 3 -0.009221 -0.006034 0.013274 0.000000 0.000000 0.000000
# 4 0.000000 0.000000 0.000000 0.024654 0.000000 0.000000
# 5 0.000000 0.000000 0.000000 0.000000 0.021368 0.000000
# 6 0.000000 0.000000 0.000000 0.000000 0.000000 0.051616
#
#
# Mechanical properties :
#
#
# Convention : Reuss Voigt Hill
#
# Bulk Modulus (GPa) = 55.50836 70.71804 63.11320
# Shear Modulus (GPa) = 28.41976 33.79980 31.10978
#
# Velocity S-wave (km/s) = 3.51657 3.83501 3.67924
# Velocity P-wave (km/s) = 6.37509 7.09798 6.74622
#
# Compressibility (1/GPa) = 0.01801530
#
# Stress axis : x y z
#
# Youngs Moduli (GPa) = 55.88241 71.50627 75.33774
#
# Poissons Ratio (x) = -0.12060 0.69471
# Poissons Ratio (y) = -0.09425 0.45461
# Poissons Ratio (z) = 0.51531 0.43149
#
# Static dielectric constant tensor:
#      x y z
#    x 3.874660 0.000000 0.000000 
#    y 0.000000 4.233710 0.000000 
#    z 0.000000 0.000000 4.148520 
# 
# 
# High freq. dielectric constant tensor:
#      x y z
#    x 1.897760 0.000000 0.000000 
#    y 0.000000 1.915790 0.000000 
#    z 0.000000 0.000000 1.921950 
# 
# From -- ./inp_files/10675.got.cif
#   From: 2010.03.12/outbox.cif.g09.slc.cpg/sg70_6_cif.got.tgz:10675.got - 2010.04.16 13:46:32.
