data_PCOD8286147
_publ_section_title
;
Structure prediction by ZEFSAII (Michael W. Deem and Ramdas Pophale) SiO2 
 PCOD8286147
Probable space group: F D D D
;
_chemical_formula_sum "Si O2"
_cell_formula_units_Z 240
_cell_length_a 30.958071
_cell_length_b 18.323478
_cell_length_c 21.811806
_cell_angle_alpha 90.000000
_cell_angle_beta 90.000000
_cell_angle_gamma 90.000000
_cell_volume 12372.954883
_symmetry_space_group_name_H-M "F D D D"
_symmetry_group_IT_number 70
_space_group.IT_coordinate_system_code '2'
_symmetry_cell_setting 'orthorhombic'
loop_
_space_group_symop_operation_xyz
x,y,z
1/4-x,1/4-y,z
x,1/4-y,1/4-z
1/4-x,y,1/4-z
-x,-y,-z
3/4+x,3/4+y,-z
-x,3/4+y,3/4+z
3/4+x,-y,3/4+z
x,1/2+y,1/2+z
1/4-x,3/4-y,1/2+z
x,3/4-y,3/4-z
1/4-x,1/2+y,3/4-z
-x,1/2-y,1/2-z
3/4+x,1/4+y,1/2-z
-x,1/4+y,1/4+z
3/4+x,1/2-y,1/4+z
1/2+x,y,1/2+z
3/4-x,1/4-y,1/2+z
1/2+x,1/4-y,3/4-z
3/4-x,y,3/4-z
1/2-x,-y,1/2-z
1/4+x,3/4+y,1/2-z
1/2-x,3/4+y,1/4+z
1/4+x,-y,1/4+z
1/2+x,1/2+y,z
3/4-x,3/4-y,z
1/2+x,3/4-y,1/4-z
3/4-x,1/2+y,1/4-z
1/2-x,1/2-y,-z
1/4+x,1/4+y,-z
1/2-x,1/4+y,3/4+z
1/4+x,1/2-y,3/4+z
loop_
_atom_site_type_symbol
_atom_site_label
_atom_site_fract_x
_atom_site_fract_y
_atom_site_fract_z
Si Si1 0.606273 0.051299 0.693585
Si Si2 0.250151 0.992212 0.678958
Si Si3 0.492950 0.940312 0.328855
Si Si4 0.400002 0.595936 0.752010
Si Si5 0.473827 0.150398 0.893749
Si Si6 0.062623 0.825857 0.026334
Si Si7 0.803916 0.125000 0.125000
Si Si8 0.424765 0.293623 0.385637
O O1 0.625000 0.125000 0.722366
O O2 0.625000 0.037859 0.625000
O O3 0.555174 0.063185 0.696644
O O4 0.620034 0.984724 0.737506
O O5 0.275910 0.053556 0.641798
O O6 0.199060 0.995259 0.664379
O O7 0.250000 0.000000 0.750000
O O8 0.261935 0.909384 0.658281
O O9 0.501162 0.875000 0.375000
O O10 0.528407 0.925059 0.277602
O O11 0.497476 0.020949 0.359189
O O12 0.437516 0.604334 0.802745
O O13 0.361266 0.653975 0.756709
O O14 0.417857 0.603077 0.683302
O O15 0.451906 0.133457 0.828394
O O16 0.063632 0.741105 0.048583
O O17 0.442062 0.375000 0.375000
O O18 0.375000 0.287088 0.375000
#
# Coordination Sequence:
#
# PCOD8286147 Si02
#       8
#    32  32  32  32  32  32  16  32
#     4  10  20  41  69  93 118 163 222 267 309 383
#     4  11  22  39  65  91 127 167 216 262 318 389
#     4  11  24  41  65  98 130 161 212 274 326 377
#     4  11  23  42  65  89 134 171 216 258 328 395
#     4  10  23  41  69  93 121 171 220 267 314 393
#     4  11  24  40  65  95 131 167 214 266 329 383
#     4  12  26  40  63  94 132 176 215 264 334 388
#     4  10  22  38  62  93 125 163 213 265 314 370
#
# _framework density 19.397145999999999
#
# number of rings (size 3 to 8) (size 9 to 14) (size 15 to 20)
#    0.000    1.333    3.333    3.600   10.267    0.533 
#    0.000    0.000    0.000    0.000    0.000    0.000 
#    0.000    0.000    0.000    0.000    0.000    0.000 
#
# Total GULP energy -743359.688147 kJ/mol
# GULP energy per Si atom -12389.328136 kJ/mol
# Density = 1.935300 g / cm^3
# Si number density = 19.397146 Si / 1000 Ang^3
#
#
#
# Elastic Constant Matrix: (Units=GPa)
#
#
# Indices 1 2 3 4 5 6 
#
# 1 71.5456 49.6919 47.3344 0.0000 0.0000 0.0000
# 2 49.6919 186.9265 62.5382 0.0000 0.0000 0.0000
# 3 47.3344 62.5382 102.3055 0.0000 0.0000 0.0000
# 4 0.0000 0.0000 0.0000 29.8857 0.0000 0.0000
# 5 0.0000 0.0000 0.0000 0.0000 31.0245 0.0000
# 6 0.0000 0.0000 0.0000 0.0000 0.0000 -1.2231
#
#
#
# Elastic Compliance Matrix: (Units=1/GPa)
#
#
# Indices 1 2 3 4 5 6 
#
# 1 0.021391 -0.002986 -0.008072 0.000000 0.000000 0.000000
# 2 -0.002986 0.007142 -0.002984 0.000000 0.000000 0.000000
# 3 -0.008072 -0.002984 0.015334 0.000000 0.000000 0.000000
# 4 0.000000 0.000000 0.000000 0.033461 0.000000 0.000000
# 5 0.000000 0.000000 0.000000 0.000000 0.032233 0.000000
# 6 0.000000 0.000000 0.000000 0.000000 0.000000 -0.817581
#
#
# Mechanical properties :
#
#
# Convention : Reuss Voigt Hill
#
# Bulk Modulus (GPa) = 63.36144 75.54517 69.45330
# Shear Modulus (GPa) = -7.41097 25.35162 8.97032
#
# Velocity S-wave (km/s) = -1.95677 3.61914 2.15281
# Velocity P-wave (km/s) = 5.25652 7.51633 6.48561
#
# Compressibility (1/GPa) = 0.01578247
#
# Stress axis : x y z
#
# Youngs Moduli (GPa) = 46.74758 140.01894 65.21646
#
# Poissons Ratio (x) = 0.41811 0.52643
# Poissons Ratio (y) = 0.13959 0.19462
# Poissons Ratio (z) = 0.37735 0.41784
#
# Static dielectric constant tensor:
#      x y z
#    x 3.506250 0.000000 0.000000 
#    y 0.000000 4.260150 0.000000 
#    z 0.000000 0.000000 3.404540 
# 
# 
# High freq. dielectric constant tensor:
#      x y z
#    x 1.746230 0.000000 0.000000 
#    y 0.000000 1.782540 0.000000 
#    z 0.000000 0.000000 1.739980 
# 
# From -- ./inp_files/47812.got.cif
#   From: 2010.03.12/outbox.cif.g09.slc.cpg/sg70_24_cif.got.tgz:47812.got - 2010.04.16 13:46:32.
