data_PCOD8286377
_publ_section_title
;
Structure prediction by ZEFSAII (Michael W. Deem and Ramdas Pophale) SiO2 
 PCOD8286377
Probable space group: F D D D
;
_chemical_formula_sum "Si O2"
_cell_formula_units_Z 72
_cell_length_a 5.449036
_cell_length_b 23.688964
_cell_length_c 19.609850
_cell_angle_alpha 90.000000
_cell_angle_beta 90.000000
_cell_angle_gamma 90.000000
_cell_volume 2531.279004
_symmetry_space_group_name_H-M "F D D D"
_symmetry_group_IT_number 70
_space_group.IT_coordinate_system_code '2'
_symmetry_cell_setting 'orthorhombic'
loop_
_space_group_symop_operation_xyz
x,y,z
1/4-x,1/4-y,z
x,1/4-y,1/4-z
1/4-x,y,1/4-z
-x,-y,-z
3/4+x,3/4+y,-z
-x,3/4+y,3/4+z
3/4+x,-y,3/4+z
x,1/2+y,1/2+z
1/4-x,3/4-y,1/2+z
x,3/4-y,3/4-z
1/4-x,1/2+y,3/4-z
-x,1/2-y,1/2-z
3/4+x,1/4+y,1/2-z
-x,1/4+y,1/4+z
3/4+x,1/2-y,1/4+z
1/2+x,y,1/2+z
3/4-x,1/4-y,1/2+z
1/2+x,1/4-y,3/4-z
3/4-x,y,3/4-z
1/2-x,-y,1/2-z
1/4+x,3/4+y,1/2-z
1/2-x,3/4+y,1/4+z
1/4+x,-y,1/4+z
1/2+x,1/2+y,z
3/4-x,3/4-y,z
1/2+x,3/4-y,1/4-z
3/4-x,1/2+y,1/4-z
1/2-x,1/2-y,-z
1/4+x,1/4+y,-z
1/2-x,1/4+y,3/4+z
1/4+x,1/2-y,3/4+z
loop_
_atom_site_type_symbol
_atom_site_label
_atom_site_fract_x
_atom_site_fract_y
_atom_site_fract_z
Si Si1 0.625000 0.125000 0.625000
Si Si2 0.220575 0.302257 0.551010
Si Si3 0.278812 0.683100 0.500977
O O1 0.807787 0.163816 0.579445
O O2 0.125000 0.282100 0.625000
O O3 0.250000 0.250000 0.500000
O O4 0.488425 0.333283 0.548488
O O5 0.995473 0.341510 0.522928
O O6 0.250000 0.750000 0.500000
#
# Coordination Sequence:
#
# PCOD8286377 Si02
#       3
#     8  32  32
#     4  12  28  50  80 122 164 226 274 338 428 492
#     4  10  22  40  72 110 156 205 261 331 409 481
#     4  10  25  42  74 111 158 206 268 332 402 492
#
# _framework density 28.444119000000001
#
# number of rings (size 3 to 8) (size 9 to 14) (size 15 to 20)
#    0.000    1.778    0.000    1.333   24.889    3.556 
#    0.000    4.444    0.000    0.000    0.000    0.000 
#    0.000    0.000    0.000    0.000    0.000    0.000 
#
# Total GULP energy -223069.187231 kJ/mol
# GULP energy per Si atom -12392.732624 kJ/mol
# Density = 2.837938 g / cm^3
# Si number density = 28.444119 Si / 1000 Ang^3
#
#
#
# Elastic Constant Matrix: (Units=GPa)
#
#
# Indices 1 2 3 4 5 6 
#
# 1 332.6924 95.6420 106.2621 0.0000 0.0000 0.0000
# 2 95.6420 124.5091 66.9533 0.0000 0.0000 0.0000
# 3 106.2621 66.9533 250.9536 0.0000 0.0000 0.0000
# 4 0.0000 0.0000 0.0000 63.2367 0.0000 0.0000
# 5 0.0000 0.0000 0.0000 0.0000 68.8748 0.0000
# 6 0.0000 0.0000 0.0000 0.0000 0.0000 58.8038
#
#
#
# Elastic Compliance Matrix: (Units=1/GPa)
#
#
# Indices 1 2 3 4 5 6 
#
# 1 0.004078 -0.002573 -0.001040 0.000000 0.000000 0.000000
# 2 -0.002573 0.011000 -0.001845 0.000000 0.000000 0.000000
# 3 -0.001040 -0.001845 0.004918 0.000000 0.000000 0.000000
# 4 0.000000 0.000000 0.000000 0.015814 0.000000 0.000000
# 5 0.000000 0.000000 0.000000 0.000000 0.014519 0.000000
# 6 0.000000 0.000000 0.000000 0.000000 0.000000 0.017006
#
#
# Mechanical properties :
#
#
# Convention : Reuss Voigt Hill
#
# Bulk Modulus (GPa) = 110.14932 138.42999 124.28965
# Shear Modulus (GPa) = 61.51799 67.46958 64.49378
#
# Velocity S-wave (km/s) = 4.65560 4.87561 4.76687
# Velocity P-wave (km/s) = 8.22851 8.97042 8.60746
#
# Compressibility (1/GPa) = 0.00907859
#
# Stress axis : x y z
#
# Youngs Moduli (GPa) = 245.23770 90.90693 203.35217
#
# Poissons Ratio (x) = 0.23390 0.21152
# Poissons Ratio (y) = 0.63098 0.37526
# Poissons Ratio (z) = 0.25509 0.16776
#
# Static dielectric constant tensor:
#      x y z
#    x 6.027770 0.000000 0.000000 
#    y 0.000000 3.952810 0.000000 
#    z 0.000000 0.000000 5.112970 
# 
# 
# High freq. dielectric constant tensor:
#      x y z
#    x 2.197900 0.000000 0.000000 
#    y 0.000000 2.230070 0.000000 
#    z 0.000000 0.000000 2.121450 
# 
# From -- ./inp_files/1814.got.cif
#   From: 2010.03.12/outbox.cif.g09.slc.cpg/sg70_1_cif.got.tgz:1814.got - 2010.04.16 13:46:32.
