data_PCOD8286233
_publ_section_title
;
Structure prediction by ZEFSAII (Michael W. Deem and Ramdas Pophale) SiO2 
 PCOD8286233
Probable space group: F D D D
;
_chemical_formula_sum "Si O2"
_cell_formula_units_Z 128
_cell_length_a 25.023504
_cell_length_b 9.779152
_cell_length_c 27.687387
_cell_angle_alpha 90.000000
_cell_angle_beta 90.000000
_cell_angle_gamma 90.000000
_cell_volume 6775.343072
_symmetry_space_group_name_H-M "F D D D"
_symmetry_group_IT_number 70
_space_group.IT_coordinate_system_code '2'
_symmetry_cell_setting 'orthorhombic'
loop_
_space_group_symop_operation_xyz
x,y,z
1/4-x,1/4-y,z
x,1/4-y,1/4-z
1/4-x,y,1/4-z
-x,-y,-z
3/4+x,3/4+y,-z
-x,3/4+y,3/4+z
3/4+x,-y,3/4+z
x,1/2+y,1/2+z
1/4-x,3/4-y,1/2+z
x,3/4-y,3/4-z
1/4-x,1/2+y,3/4-z
-x,1/2-y,1/2-z
3/4+x,1/4+y,1/2-z
-x,1/4+y,1/4+z
3/4+x,1/2-y,1/4+z
1/2+x,y,1/2+z
3/4-x,1/4-y,1/2+z
1/2+x,1/4-y,3/4-z
3/4-x,y,3/4-z
1/2-x,-y,1/2-z
1/4+x,3/4+y,1/2-z
1/2-x,3/4+y,1/4+z
1/4+x,-y,1/4+z
1/2+x,1/2+y,z
3/4-x,3/4-y,z
1/2+x,3/4-y,1/4-z
3/4-x,1/2+y,1/4-z
1/2-x,1/2-y,-z
1/4+x,1/4+y,-z
1/2-x,1/4+y,3/4+z
1/4+x,1/2-y,3/4+z
loop_
_atom_site_type_symbol
_atom_site_label
_atom_site_fract_x
_atom_site_fract_y
_atom_site_fract_z
Si Si1 0.870906 0.216383 0.318584
Si Si2 0.704278 0.360476 0.495841
Si Si3 0.971416 0.605467 0.252433
Si Si4 0.134921 0.965634 0.922435
O O1 0.875000 0.194749 0.375000
O O2 0.875000 0.375000 0.303060
O O3 0.920211 0.137985 0.294841
O O4 0.815749 0.152091 0.299815
O O5 0.750000 0.250000 0.500000
O O6 0.728836 0.507914 0.489384
O O7 0.667708 0.333859 0.449675
O O8 0.937244 0.560208 0.205503
O O9 0.000000 0.750000 0.250000
O O10 0.142748 0.875000 0.875000
O O11 0.125000 0.125000 0.909530
#
# Coordination Sequence:
#
# PCOD8286233 Si02
#       4
#    32  32  32  32
#     4  10  21  38  63  92 117 153 207 249 297 368
#     4  11  20  41  65  84 122 164 198 250 310 361
#     4  11  24  41  61  92 126 159 203 254 308 362
#     4  11  25  41  62  94 126 160 211 257 306 373
#
# _framework density 18.892033000000001
#
# number of rings (size 3 to 8) (size 9 to 14) (size 15 to 20)
#    0.000    1.250    5.000    1.500    3.500    7.000 
#    0.000    1.250    0.000    0.000    0.000    0.000 
#    0.000    0.000    0.000    0.000    0.000    0.000 
#
# Total GULP energy -396818.500213 kJ/mol
# GULP energy per Si atom -12400.578132 kJ/mol
# Density = 1.884903 g / cm^3
# Si number density = 18.892033 Si / 1000 Ang^3
#
#
#
# Elastic Constant Matrix: (Units=GPa)
#
#
# Indices 1 2 3 4 5 6 
#
# 1 132.4503 68.7802 52.1631 0.0000 0.0000 0.0000
# 2 68.7802 156.5829 46.2884 0.0000 0.0000 0.0000
# 3 52.1631 46.2884 117.4894 0.0000 0.0000 0.0000
# 4 0.0000 0.0000 0.0000 24.4001 0.0000 0.0000
# 5 0.0000 0.0000 0.0000 0.0000 16.9981 0.0000
# 6 0.0000 0.0000 0.0000 0.0000 0.0000 43.0440
#
#
#
# Elastic Compliance Matrix: (Units=1/GPa)
#
#
# Indices 1 2 3 4 5 6 
#
# 1 0.010813 -0.003770 -0.003316 0.000000 0.000000 0.000000
# 2 -0.003770 0.008542 -0.001692 0.000000 0.000000 0.000000
# 3 -0.003316 -0.001692 0.010650 0.000000 0.000000 0.000000
# 4 0.000000 0.000000 0.000000 0.040983 0.000000 0.000000
# 5 0.000000 0.000000 0.000000 0.000000 0.058830 0.000000
# 6 0.000000 0.000000 0.000000 0.000000 0.000000 0.023232
#
#
# Mechanical properties :
#
#
# Convention : Reuss Voigt Hill
#
# Bulk Modulus (GPa) = 80.31301 82.33179 81.32240
# Shear Modulus (GPa) = 28.61121 32.84116 30.72619
#
# Velocity S-wave (km/s) = 3.89583 4.17389 4.03725
# Velocity P-wave (km/s) = 7.92720 8.17944 8.05431
#
# Compressibility (1/GPa) = 0.01245128
#
# Stress axis : x y z
#
# Youngs Moduli (GPa) = 92.47760 117.06324 93.89575
#
# Poissons Ratio (x) = 0.44129 0.31134
# Poissons Ratio (y) = 0.34861 0.15886
# Poissons Ratio (z) = 0.30664 0.19805
#
# Static dielectric constant tensor:
#      x y z
#    x 3.635780 0.000000 0.000000 
#    y 0.000000 3.542280 0.000000 
#    z 0.000000 0.000000 3.488860 
# 
# 
# High freq. dielectric constant tensor:
#      x y z
#    x 1.752420 0.000000 0.000000 
#    y 0.000000 1.737750 0.000000 
#    z 0.000000 0.000000 1.734050 
# 
# From -- ./inp_files/60944.got.cif
#   From: 2010.03.12/outbox.cif.g09.slc.cpg/sg70_31_cif.got.tgz:60944.got - 2010.04.16 13:46:32.
