data_PCOD8286058
_publ_section_title
;
Structure prediction by ZEFSAII (Michael W. Deem and Ramdas Pophale) SiO2 
 PCOD8286058
Probable space group: F D D D
;
_chemical_formula_sum "Si O2"
_cell_formula_units_Z 208
_cell_length_a 20.701305
_cell_length_b 18.320649
_cell_length_c 26.914561
_cell_angle_alpha 90.000000
_cell_angle_beta 90.000000
_cell_angle_gamma 90.000000
_cell_volume 10207.652544
_symmetry_space_group_name_H-M "F D D D"
_symmetry_group_IT_number 70
_space_group.IT_coordinate_system_code '2'
_symmetry_cell_setting 'orthorhombic'
loop_
_space_group_symop_operation_xyz
x,y,z
1/4-x,1/4-y,z
x,1/4-y,1/4-z
1/4-x,y,1/4-z
-x,-y,-z
3/4+x,3/4+y,-z
-x,3/4+y,3/4+z
3/4+x,-y,3/4+z
x,1/2+y,1/2+z
1/4-x,3/4-y,1/2+z
x,3/4-y,3/4-z
1/4-x,1/2+y,3/4-z
-x,1/2-y,1/2-z
3/4+x,1/4+y,1/2-z
-x,1/4+y,1/4+z
3/4+x,1/2-y,1/4+z
1/2+x,y,1/2+z
3/4-x,1/4-y,1/2+z
1/2+x,1/4-y,3/4-z
3/4-x,y,3/4-z
1/2-x,-y,1/2-z
1/4+x,3/4+y,1/2-z
1/2-x,3/4+y,1/4+z
1/4+x,-y,1/4+z
1/2+x,1/2+y,z
3/4-x,3/4-y,z
1/2+x,3/4-y,1/4-z
3/4-x,1/2+y,1/4-z
1/2-x,1/2-y,-z
1/4+x,1/4+y,-z
1/2-x,1/4+y,3/4+z
1/4+x,1/2-y,3/4+z
loop_
_atom_site_type_symbol
_atom_site_label
_atom_site_fract_x
_atom_site_fract_y
_atom_site_fract_z
Si Si1 0.905665 0.948175 0.626777
Si Si2 0.023743 0.990158 0.890891
Si Si3 0.930119 0.198293 0.708843
Si Si4 0.728139 0.888037 0.066668
Si Si5 0.375000 0.726912 0.875000
Si Si6 0.791822 0.101857 0.549421
Si Si7 0.927876 0.436301 0.958625
O O1 0.875000 0.875000 0.602144
O O2 0.957156 0.929665 0.668704
O O3 0.848042 0.991655 0.653045
O O4 0.941685 0.994118 0.585029
O O5 0.007988 0.919984 0.923964
O O6 0.018001 0.970100 0.831271
O O7 0.977967 0.056290 0.909309
O O8 0.870502 0.144140 0.697642
O O9 0.912784 0.244526 0.757128
O O10 0.998619 0.155613 0.715915
O O11 0.664530 0.926618 0.087187
O O12 0.729961 0.894028 0.007280
O O13 0.327351 0.781971 0.903348
O O14 0.875000 0.375000 0.970308
#
# Coordination Sequence:
#
# PCOD8286058 Si02
#       7
#    32  32  32  32  16  32  32
#     4   9  18  35  60  85 114 153 204 250 300 366
#     4   9  21  39  64  90 117 160 206 263 309 371
#     4  10  20  38  58  86 120 162 204 252 299 377
#     4  11  21  39  61  88 126 160 205 258 315 379
#     4  12  23  40  54  91 128 164 200 256 320 373
#     4  10  20  40  63  91 120 157 212 258 317 369
#     4  11  23  38  57  86 126 164 203 250 310 368
#
# _framework density 20.376868999999999
#
# number of rings (size 3 to 8) (size 9 to 14) (size 15 to 20)
#    0.000    1.846    3.077    1.154    0.000    1.231 
#    8.308    0.000    0.000    0.923    0.000    0.000 
#    0.000    0.000    0.000    0.000    0.000    0.000 
#
# Total GULP energy -644379.173735 kJ/mol
# GULP energy per Si atom -12391.907187 kJ/mol
# Density = 2.033049 g / cm^3
# Si number density = 20.376869 Si / 1000 Ang^3
#
#
#
# Elastic Constant Matrix: (Units=GPa)
#
#
# Indices 1 2 3 4 5 6 
#
# 1 77.5593 29.8144 26.8204 0.0000 0.0000 0.0000
# 2 29.8144 68.5401 33.0665 0.0000 0.0000 0.0000
# 3 26.8204 33.0665 126.3399 0.0000 0.0000 0.0000
# 4 0.0000 0.0000 0.0000 29.3012 0.0000 0.0000
# 5 0.0000 0.0000 0.0000 0.0000 26.6248 0.0000
# 6 0.0000 0.0000 0.0000 0.0000 0.0000 30.1001
#
#
#
# Elastic Compliance Matrix: (Units=1/GPa)
#
#
# Indices 1 2 3 4 5 6 
#
# 1 0.015826 -0.006024 -0.001783 0.000000 0.000000 0.000000
# 2 -0.006024 0.018991 -0.003692 0.000000 0.000000 0.000000
# 3 -0.001783 -0.003692 0.009260 0.000000 0.000000 0.000000
# 4 0.000000 0.000000 0.000000 0.034128 0.000000 0.000000
# 5 0.000000 0.000000 0.000000 0.000000 0.037559 0.000000
# 6 0.000000 0.000000 0.000000 0.000000 0.000000 0.033222
#
#
# Mechanical properties :
#
#
# Convention : Reuss Voigt Hill
#
# Bulk Modulus (GPa) = 47.43899 50.20464 48.82181
# Shear Modulus (GPa) = 27.93137 29.38775 28.65956
#
# Velocity S-wave (km/s) = 3.70637 3.80177 3.75437
# Velocity P-wave (km/s) = 6.45349 6.63044 6.54257
#
# Compressibility (1/GPa) = 0.02107971
#
# Stress axis : x y z
#
# Youngs Moduli (GPa) = 63.18907 52.65549 107.99263
#
# Poissons Ratio (x) = 0.31719 0.19255
# Poissons Ratio (y) = 0.38064 0.39868
# Poissons Ratio (z) = 0.11266 0.19439
#
# Static dielectric constant tensor:
#      x y z
#    x 3.537870 0.000000 0.000000 
#    y 0.000000 3.708970 0.000000 
#    z 0.000000 0.000000 3.816730 
# 
# 
# High freq. dielectric constant tensor:
#      x y z
#    x 1.785160 0.000000 0.000000 
#    y 0.000000 1.787620 0.000000 
#    z 0.000000 0.000000 1.801230 
# 
# From -- ./inp_files/46931.got.cif
#   From: 2010.03.12/outbox.cif.g09.slc.cpg/sg70_24_cif.got.tgz:46931.got - 2010.04.16 13:46:32.
