data_PCOD8286707
_publ_section_title
;
Structure prediction by ZEFSAII (Michael W. Deem and Ramdas Pophale) SiO2 
 PCOD8286707
Probable space group: F D D D
;
_chemical_formula_sum "Si O2"
_cell_formula_units_Z 192
_cell_length_a 27.896452
_cell_length_b 12.294608
_cell_length_c 24.639895
_cell_angle_alpha 90.000000
_cell_angle_beta 90.000000
_cell_angle_gamma 90.000000
_cell_volume 8450.891197
_symmetry_space_group_name_H-M "F D D D"
_symmetry_group_IT_number 70
_space_group.IT_coordinate_system_code '2'
_symmetry_cell_setting 'orthorhombic'
loop_
_space_group_symop_operation_xyz
x,y,z
1/4-x,1/4-y,z
x,1/4-y,1/4-z
1/4-x,y,1/4-z
-x,-y,-z
3/4+x,3/4+y,-z
-x,3/4+y,3/4+z
3/4+x,-y,3/4+z
x,1/2+y,1/2+z
1/4-x,3/4-y,1/2+z
x,3/4-y,3/4-z
1/4-x,1/2+y,3/4-z
-x,1/2-y,1/2-z
3/4+x,1/4+y,1/2-z
-x,1/4+y,1/4+z
3/4+x,1/2-y,1/4+z
1/2+x,y,1/2+z
3/4-x,1/4-y,1/2+z
1/2+x,1/4-y,3/4-z
3/4-x,y,3/4-z
1/2-x,-y,1/2-z
1/4+x,3/4+y,1/2-z
1/2-x,3/4+y,1/4+z
1/4+x,-y,1/4+z
1/2+x,1/2+y,z
3/4-x,3/4-y,z
1/2+x,3/4-y,1/4-z
3/4-x,1/2+y,1/4-z
1/2-x,1/2-y,-z
1/4+x,1/4+y,-z
1/2-x,1/4+y,3/4+z
1/4+x,1/2-y,3/4+z
loop_
_atom_site_type_symbol
_atom_site_label
_atom_site_fract_x
_atom_site_fract_y
_atom_site_fract_z
Si Si1 0.896421 0.492720 0.997847
Si Si2 0.875000 0.375000 0.583083
Si Si3 0.557293 0.744101 0.638206
Si Si4 0.753775 0.625000 0.125000
Si Si5 0.304122 0.510317 0.145670
Si Si6 0.924743 0.215080 0.346178
Si Si7 0.576479 0.929813 0.473349
O O1 0.875000 0.375000 0.987878
O O2 0.939191 0.494993 0.040808
O O3 0.853791 0.568116 0.017876
O O4 0.923345 0.536924 0.945235
O O5 0.920761 0.343890 0.618884
O O6 0.887773 0.480958 0.549668
O O7 0.578447 0.625000 0.625000
O O8 0.500948 0.743037 0.631712
O O9 0.576047 0.833340 0.596148
O O10 0.718071 0.729619 0.130772
O O11 0.784449 0.647284 0.069769
O O12 0.326447 0.625000 0.125000
O O13 0.875000 0.257095 0.375000
O O14 0.935927 0.235743 0.281935
#
# Coordination Sequence:
#
# PCOD8286707 Si02
#       7
#    32  16  32  16  32  32  32
#     4  12  24  42  75 104 147 189 240 298 372 433
#     4  12  24  46  77 104 149 188 246 312 366 442
#     4  11  26  46  70 105 146 189 248 300 364 436
#     4  12  29  50  76 112 148 194 252 311 370 446
#     4  11  23  44  68 107 141 184 241 303 360 434
#     4  12  27  51  76 107 151 200 245 303 378 449
#     4  12  27  48  76 110 148 194 251 306 374 439
#
# _framework density 22.719498000000002
#
# number of rings (size 3 to 8) (size 9 to 14) (size 15 to 20)
#    0.000    0.333    4.167    4.250    4.667    0.000 
#    6.000    0.000    0.000    0.000    0.000    0.000 
#    0.000    0.000    0.000    0.000    0.000    0.000 
#
# Total GULP energy -594763.316949 kJ/mol
# GULP energy per Si atom -12390.902436 kJ/mol
# Density = 2.266779 g / cm^3
# Si number density = 22.719498 Si / 1000 Ang^3
#
#
#
# Elastic Constant Matrix: (Units=GPa)
#
#
# Indices 1 2 3 4 5 6 
#
# 1 106.2277 46.7020 58.1143 0.0000 0.0000 0.0000
# 2 46.7020 115.1207 20.2624 0.0000 0.0000 0.0000
# 3 58.1143 20.2624 143.8839 0.0000 0.0000 0.0000
# 4 0.0000 0.0000 0.0000 16.0753 0.0000 0.0000
# 5 0.0000 0.0000 0.0000 0.0000 31.8507 0.0000
# 6 0.0000 0.0000 0.0000 0.0000 0.0000 5.0659
#
#
#
# Elastic Compliance Matrix: (Units=1/GPa)
#
#
# Indices 1 2 3 4 5 6 
#
# 1 0.014380 -0.004934 -0.005113 0.000000 0.000000 0.000000
# 2 -0.004934 0.010600 0.000500 0.000000 0.000000 0.000000
# 3 -0.005113 0.000500 0.008945 0.000000 0.000000 0.000000
# 4 0.000000 0.000000 0.000000 0.062207 0.000000 0.000000
# 5 0.000000 0.000000 0.000000 0.000000 0.031396 0.000000
# 6 0.000000 0.000000 0.000000 0.000000 0.000000 0.197399
#
#
# Mechanical properties :
#
#
# Convention : Reuss Voigt Hill
#
# Bulk Modulus (GPa) = 67.42656 68.37664 67.90160
# Shear Modulus (GPa) = 14.32805 26.60862 20.46834
#
# Velocity S-wave (km/s) = 2.51400 3.42596 3.00478
# Velocity P-wave (km/s) = 6.17812 6.76838 6.47998
#
# Compressibility (1/GPa) = 0.01483095
#
# Stress axis : x y z
#
# Youngs Moduli (GPa) = 69.54029 94.33928 111.79566
#
# Poissons Ratio (x) = 0.46544 0.57165
# Poissons Ratio (y) = 0.34309 -0.05589
# Poissons Ratio (z) = 0.35558 -0.04717
#
# Static dielectric constant tensor:
#      x y z
#    x 4.053460 0.000000 0.000000 
#    y 0.000000 4.395200 0.000000 
#    z 0.000000 0.000000 3.647360 
# 
# 
# High freq. dielectric constant tensor:
#      x y z
#    x 1.904240 0.000000 0.000000 
#    y 0.000000 1.909170 0.000000 
#    z 0.000000 0.000000 1.905500 
# 
# From -- ./inp_files/62246.got.cif
#   From: 2010.03.12/outbox.cif.g09.slc.cpg/sg70_32_cif.got.tgz:62246.got - 2010.04.16 13:46:32.
