data_PCOD8286390
_publ_section_title
;
Structure prediction by ZEFSAII (Michael W. Deem and Ramdas Pophale) SiO2 
 PCOD8286390
Probable space group: F D D D
;
_chemical_formula_sum "Si O2"
_cell_formula_units_Z 192
_cell_length_a 19.502039
_cell_length_b 28.693104
_cell_length_c 16.550634
_cell_angle_alpha 90.000000
_cell_angle_beta 90.000000
_cell_angle_gamma 90.000000
_cell_volume 9261.305020
_symmetry_space_group_name_H-M "F D D D"
_symmetry_group_IT_number 70
_space_group.IT_coordinate_system_code '2'
_symmetry_cell_setting 'orthorhombic'
loop_
_space_group_symop_operation_xyz
x,y,z
1/4-x,1/4-y,z
x,1/4-y,1/4-z
1/4-x,y,1/4-z
-x,-y,-z
3/4+x,3/4+y,-z
-x,3/4+y,3/4+z
3/4+x,-y,3/4+z
x,1/2+y,1/2+z
1/4-x,3/4-y,1/2+z
x,3/4-y,3/4-z
1/4-x,1/2+y,3/4-z
-x,1/2-y,1/2-z
3/4+x,1/4+y,1/2-z
-x,1/4+y,1/4+z
3/4+x,1/2-y,1/4+z
1/2+x,y,1/2+z
3/4-x,1/4-y,1/2+z
1/2+x,1/4-y,3/4-z
3/4-x,y,3/4-z
1/2-x,-y,1/2-z
1/4+x,3/4+y,1/2-z
1/2-x,3/4+y,1/4+z
1/4+x,-y,1/4+z
1/2+x,1/2+y,z
3/4-x,3/4-y,z
1/2+x,3/4-y,1/4-z
3/4-x,1/2+y,1/4-z
1/2-x,1/2-y,-z
1/4+x,1/4+y,-z
1/2-x,1/4+y,3/4+z
1/4+x,1/2-y,3/4+z
loop_
_atom_site_type_symbol
_atom_site_label
_atom_site_fract_x
_atom_site_fract_y
_atom_site_fract_z
Si Si1 0.678678 0.411821 0.699282
Si Si2 0.895818 0.668179 0.725444
Si Si3 0.830455 0.827925 0.615142
Si Si4 0.962720 0.958690 0.785584
Si Si5 0.375000 0.219503 0.875000
Si Si6 0.993102 0.375000 0.375000
Si Si7 0.383639 0.230169 0.567117
O O1 0.625000 0.412283 0.625000
O O2 0.668278 0.365737 0.755181
O O3 0.756614 0.411047 0.671082
O O4 0.670282 0.457187 0.755774
O O5 0.919870 0.690433 0.810731
O O6 0.878487 0.705978 0.655903
O O7 0.959087 0.635208 0.702220
O O8 0.875000 0.875000 0.611372
O O9 0.821800 0.809884 0.705480
O O10 0.868662 0.785404 0.569374
O O11 0.947825 0.919594 0.853842
O O12 0.042502 0.970766 0.777154
O O13 0.926958 0.004452 0.817257
#
# Coordination Sequence:
#
# PCOD8286390 Si02
#       7
#    32  32  32  32  16  16  32
#     4  12  22  45  74  98 133 188 231 278 351 419
#     4  11  21  40  68  99 130 179 228 272 330 423
#     4  12  28  43  69 106 137 175 236 301 339 407
#     4  11  25  43  65  99 142 183 221 284 346 413
#     4  12  26  37  64 104 140 182 219 278 342 420
#     4  10  22  41  66  94 129 184 224 274 338 402
#     4  11  24  47  69  98 139 182 228 282 351 413
#
# _framework density 20.73142
#
# number of rings (size 3 to 8) (size 9 to 14) (size 15 to 20)
#    0.000    0.667    7.500    0.500    4.667    2.667 
#    0.000    0.000    0.000    0.000    0.000    0.000 
#    0.000    0.000    0.000    0.000    0.000    0.000 
#
# Total GULP energy -595004.690871 kJ/mol
# GULP energy per Si atom -12395.931060 kJ/mol
# Density = 2.068423 g / cm^3
# Si number density = 20.731420 Si / 1000 Ang^3
#
#
#
# Elastic Constant Matrix: (Units=GPa)
#
#
# Indices 1 2 3 4 5 6 
#
# 1 87.2870 49.2402 35.5675 0.0000 0.0000 0.0000
# 2 49.2402 146.2555 46.5124 0.0000 0.0000 0.0000
# 3 35.5675 46.5124 103.7318 0.0000 0.0000 0.0000
# 4 0.0000 0.0000 0.0000 44.9944 0.0000 0.0000
# 5 0.0000 0.0000 0.0000 0.0000 29.1855 0.0000
# 6 0.0000 0.0000 0.0000 0.0000 0.0000 -54.6014
#
#
#
# Elastic Compliance Matrix: (Units=1/GPa)
#
#
# Indices 1 2 3 4 5 6 
#
# 1 0.015094 -0.004007 -0.003379 0.000000 0.000000 0.000000
# 2 -0.004007 0.009038 -0.002679 0.000000 0.000000 0.000000
# 3 -0.003379 -0.002679 0.012000 0.000000 0.000000 0.000000
# 4 0.000000 0.000000 0.000000 0.022225 0.000000 0.000000
# 5 0.000000 0.000000 0.000000 0.000000 0.034264 0.000000
# 6 0.000000 0.000000 0.000000 0.000000 0.000000 -0.018315
#
#
# Mechanical properties :
#
#
# Convention : Reuss Voigt Hill
#
# Bulk Modulus (GPa) = 62.48855 66.65716 64.57286
# Shear Modulus (GPa) = 50.11579 17.64599 33.88089
#
# Velocity S-wave (km/s) = 4.92202 2.92065 4.04701
# Velocity P-wave (km/s) = 7.90627 6.60274 7.28372
#
# Compressibility (1/GPa) = 0.01600293
#
# Stress axis : x y z
#
# Youngs Moduli (GPa) = 66.25300 110.63963 83.33477
#
# Poissons Ratio (x) = 0.44335 0.28155
# Poissons Ratio (y) = 0.26549 0.22323
# Poissons Ratio (z) = 0.22384 0.29637
#
# Static dielectric constant tensor:
#      x y z
#    x 3.612970 0.000000 0.000000 
#    y 0.000000 4.109720 0.000000 
#    z 0.000000 0.000000 3.890100 
# 
# 
# High freq. dielectric constant tensor:
#      x y z
#    x 1.793520 0.000000 0.000000 
#    y 0.000000 1.832990 0.000000 
#    z 0.000000 0.000000 1.819230 
# 
# From -- ./inp_files/35505.got.cif
#   From: 2010.03.12/outbox.cif.g09.slc.cpg/sg70_18_cif.got.tgz:35505.got - 2010.04.16 13:46:32.
