data_PCOD8286606
_publ_section_title
;
Structure prediction by ZEFSAII (Michael W. Deem and Ramdas Pophale) SiO2 
 PCOD8286606
Probable space group: F D D D
;
_chemical_formula_sum "Si O2"
_cell_formula_units_Z 160
_cell_length_a 13.549024
_cell_length_b 29.911356
_cell_length_c 17.745774
_cell_angle_alpha 90.000000
_cell_angle_beta 90.000000
_cell_angle_gamma 90.000000
_cell_volume 7191.824156
_symmetry_space_group_name_H-M "F D D D"
_symmetry_group_IT_number 70
_space_group.IT_coordinate_system_code '2'
_symmetry_cell_setting 'orthorhombic'
loop_
_space_group_symop_operation_xyz
x,y,z
1/4-x,1/4-y,z
x,1/4-y,1/4-z
1/4-x,y,1/4-z
-x,-y,-z
3/4+x,3/4+y,-z
-x,3/4+y,3/4+z
3/4+x,-y,3/4+z
x,1/2+y,1/2+z
1/4-x,3/4-y,1/2+z
x,3/4-y,3/4-z
1/4-x,1/2+y,3/4-z
-x,1/2-y,1/2-z
3/4+x,1/4+y,1/2-z
-x,1/4+y,1/4+z
3/4+x,1/2-y,1/4+z
1/2+x,y,1/2+z
3/4-x,1/4-y,1/2+z
1/2+x,1/4-y,3/4-z
3/4-x,y,3/4-z
1/2-x,-y,1/2-z
1/4+x,3/4+y,1/2-z
1/2-x,3/4+y,1/4+z
1/4+x,-y,1/4+z
1/2+x,1/2+y,z
3/4-x,3/4-y,z
1/2+x,3/4-y,1/4-z
3/4-x,1/2+y,1/4-z
1/2-x,1/2-y,-z
1/4+x,1/4+y,-z
1/2-x,1/4+y,3/4+z
1/4+x,1/2-y,3/4+z
loop_
_atom_site_type_symbol
_atom_site_label
_atom_site_fract_x
_atom_site_fract_y
_atom_site_fract_z
Si Si1 0.028766 0.839320 0.663719
Si Si2 0.994319 0.583673 0.071615
Si Si3 0.935037 0.683316 0.481401
Si Si4 0.625000 0.508042 0.625000
Si Si5 0.887786 0.822208 0.790247
Si Si6 0.625000 0.125000 0.946529
O O1 0.125000 0.814994 0.625000
O O2 0.063769 0.889728 0.679365
O O3 0.989126 0.813862 0.740807
O O4 0.938857 0.841136 0.604670
O O5 0.015060 0.625000 0.125000
O O6 0.029480 0.539044 0.113687
O O7 0.877691 0.579042 0.056056
O O8 0.054588 0.592490 0.994712
O O9 0.882575 0.726199 0.446633
O O10 0.045712 0.699333 0.497620
O O11 0.875000 0.802726 0.875000
O O12 0.875000 0.875000 0.792644
#
# Coordination Sequence:
#
# PCOD8286606 Si02
#       6
#    32  32  32  16  32  16
#     4  11  20  34  63  99 127 172 226 282 326 391
#     4  12  25  41  65  96 132 172 225 274 332 403
#     4  11  22  37  67  92 130 173 216 271 336 398
#     4  12  23  44  58 102 134 176 210 272 348 402
#     4   9  20  37  60  96 128 167 224 277 327 403
#     4  12  19  38  59  88 132 158 214 276 323 378
#
# _framework density 22.247485000000001
#
# number of rings (size 3 to 8) (size 9 to 14) (size 15 to 20)
#    0.000    1.000    8.000    0.600    5.600    0.000 
#    0.000    0.000    0.000    4.800    0.000    0.000 
#    0.000    0.000    0.000    0.000    0.000    0.000 
#
# Total GULP energy -495673.678078 kJ/mol
# GULP energy per Si atom -12391.841952 kJ/mol
# Density = 2.219685 g / cm^3
# Si number density = 22.247485 Si / 1000 Ang^3
#
#
#
# Elastic Constant Matrix: (Units=GPa)
#
#
# Indices 1 2 3 4 5 6 
#
# 1 142.3900 14.8103 59.6496 0.0000 0.0000 0.0000
# 2 14.8103 68.7661 19.6998 0.0000 0.0000 0.0000
# 3 59.6496 19.6998 125.6281 0.0000 0.0000 0.0000
# 4 0.0000 0.0000 0.0000 8.0096 0.0000 0.0000
# 5 0.0000 0.0000 0.0000 0.0000 37.2196 0.0000
# 6 0.0000 0.0000 0.0000 0.0000 0.0000 -6.8883
#
#
#
# Elastic Compliance Matrix: (Units=1/GPa)
#
#
# Indices 1 2 3 4 5 6 
#
# 1 0.008802 -0.000731 -0.004064 0.000000 0.000000 0.000000
# 2 -0.000731 0.015287 -0.002050 0.000000 0.000000 0.000000
# 3 -0.004064 -0.002050 0.010211 0.000000 0.000000 0.000000
# 4 0.000000 0.000000 0.000000 0.124850 0.000000 0.000000
# 5 0.000000 0.000000 0.000000 0.000000 0.026868 0.000000
# 6 0.000000 0.000000 0.000000 0.000000 0.000000 -0.145173
#
#
# Mechanical properties :
#
#
# Convention : Reuss Voigt Hill
#
# Bulk Modulus (GPa) = 48.52368 58.34484 53.43426
# Shear Modulus (GPa) = 81.42591 23.84314 52.63452
#
# Velocity S-wave (km/s) = 6.05636 3.27727 4.86929
# Velocity P-wave (km/s) = 8.41215 6.37205 7.46214
#
# Compressibility (1/GPa) = 0.02060850
#
# Stress axis : x y z
#
# Youngs Moduli (GPa) = 113.61437 65.41590 97.93073
#
# Poissons Ratio (x) = 0.04784 0.39804
# Poissons Ratio (y) = 0.08308 0.20075
# Poissons Ratio (z) = 0.46178 0.13410
#
# Static dielectric constant tensor:
#      x y z
#    x 4.425470 0.000000 0.000000 
#    y 0.000000 3.406170 0.000000 
#    z 0.000000 0.000000 4.336760 
# 
# 
# High freq. dielectric constant tensor:
#      x y z
#    x 1.887480 0.000000 0.000000 
#    y 0.000000 1.823350 0.000000 
#    z 0.000000 0.000000 1.884070 
# 
# From -- ./inp_files/34023.got.cif
#   From: 2010.03.12/outbox.cif.g09.slc.cpg/sg70_18_cif.got.tgz:34023.got - 2010.04.16 13:46:32.
