data_PCOD8286905
_publ_section_title
;
Structure prediction by ZEFSAII (Michael W. Deem and Ramdas Pophale) SiO2 
 PCOD8286905
Probable space group: I M M M
;
_chemical_formula_sum "Si O2"
_cell_formula_units_Z 88
_cell_length_a 10.340391
_cell_length_b 26.287165
_cell_length_c 19.792125
_cell_angle_alpha 90.000000
_cell_angle_beta 90.000000
_cell_angle_gamma 90.000000
_cell_volume 5379.886796
_symmetry_space_group_name_H-M "I M M M"
_symmetry_group_IT_number 71
_symmetry_cell_setting 'orthorhombic'
loop_
_space_group_symop_operation_xyz
x,y,z
-x,-y,z
x,-y,-z
-x,y,-z
-x,-y,-z
x,y,-z
-x,y,z
x,-y,z
1/2+x,1/2+y,1/2+z
1/2-x,1/2-y,1/2+z
1/2+x,1/2-y,1/2-z
1/2-x,1/2+y,1/2-z
1/2-x,1/2-y,1/2-z
1/2+x,1/2+y,1/2-z
1/2-x,1/2+y,1/2+z
1/2+x,1/2-y,1/2+z
loop_
_atom_site_type_symbol
_atom_site_label
_atom_site_fract_x
_atom_site_fract_y
_atom_site_fract_z
Si Si1 0.500000 0.156964 0.806895
Si Si2 0.500000 0.058594 0.729955
Si Si3 0.238159 0.202939 0.160045
Si Si4 0.850936 0.559796 0.000000
Si Si5 0.703863 0.107641 0.635251
Si Si6 0.000000 0.687129 0.847424
Si Si7 0.500000 0.707798 0.579606
Si Si8 0.146393 0.807817 0.309655
O O1 0.500000 0.095852 0.794682
O O2 0.627278 0.172398 0.849019
O O3 0.500000 0.186329 0.734715
O O4 0.629389 0.069487 0.686134
O O5 0.500000 0.000000 0.753405
O O6 0.174781 0.189010 0.230859
O O7 0.263722 0.264053 0.155972
O O8 0.137051 0.182578 0.102152
O O9 0.772564 0.579106 0.065024
O O10 0.848637 0.500000 0.000000
O O11 0.000000 0.579214 0.000000
O O12 0.621973 0.158263 0.622554
O O13 0.834458 0.133772 0.663438
O O14 0.000000 0.743403 0.872934
O O15 0.500000 0.717421 0.500000
O O16 0.000000 0.791454 0.323685
#
# Coordination Sequence:
#
# PCOD8286905 Si02
#       8
#     8   8  16   8  16   8   8  16
#     4  10  18  34  54  81 103 141 172 214 273 304
#     4  10  18  30  50  78 105 125 166 228 276 300
#     4  11  19  32  52  77 106 138 176 214 262 323
#     4  11  20  30  49  71  97 141 190 231 269 300
#     4  10  19  29  46  73 101 136 177 223 262 297
#     4  10  16  27  45  74 100 131 170 218 252 293
#     4  12  24  32  48  75 112 145 172 205 258 315
#     4  11  19  30  52  76 100 135 184 224 258 314
#
# _framework density 16.357220999999999
#
# number of rings (size 3 to 8) (size 9 to 14) (size 15 to 20)
#    0.000    1.545    9.091    1.636    1.273    0.000 
#    0.000    0.909    0.000    2.727    0.000    0.000 
#    0.000    2.182    0.000    0.000    0.000    0.000 
#
# Total GULP energy -545117.164743 kJ/mol
# GULP energy per Si atom -12389.026471 kJ/mol
# Density = 1.631999 g / cm^3
# Si number density = 16.357221 Si / 1000 Ang^3
#
#
#
# Elastic Constant Matrix: (Units=GPa)
#
#
# Indices 1 2 3 4 5 6 
#
# 1 97.0738 22.9289 38.3397 0.0000 0.0000 0.0000
# 2 22.9289 81.4237 23.3979 0.0000 0.0000 0.0000
# 3 38.3397 23.3979 46.6497 0.0000 0.0000 0.0000
# 4 0.0000 0.0000 0.0000 18.1296 0.0000 0.0000
# 5 0.0000 0.0000 0.0000 0.0000 15.1973 0.0000
# 6 0.0000 0.0000 0.0000 0.0000 0.0000 21.1007
#
#
#
# Elastic Compliance Matrix: (Units=1/GPa)
#
#
# Indices 1 2 3 4 5 6 
#
# 1 0.015298 -0.000812 -0.012166 0.000000 0.000000 0.000000
# 2 -0.000812 0.014393 -0.006552 0.000000 0.000000 0.000000
# 3 -0.012166 -0.006552 0.034721 0.000000 0.000000 0.000000
# 4 0.000000 0.000000 0.000000 0.055158 0.000000 0.000000
# 5 0.000000 0.000000 0.000000 0.000000 0.065801 0.000000
# 6 0.000000 0.000000 0.000000 0.000000 0.000000 0.047392
#
#
# Mechanical properties :
#
#
# Convention : Reuss Voigt Hill
#
# Bulk Modulus (GPa) = 39.44262 43.83115 41.63688
# Shear Modulus (GPa) = 17.83976 20.25090 19.04533
#
# Velocity S-wave (km/s) = 3.30606 3.52240 3.41594
# Velocity P-wave (km/s) = 6.22407 6.58767 6.40845
#
# Compressibility (1/GPa) = 0.02535329
#
# Stress axis : x y z
#
# Youngs Moduli (GPa) = 65.36752 69.47937 28.80107
#
# Poissons Ratio (x) = 0.05642 0.35038
# Poissons Ratio (y) = 0.05308 0.18869
# Poissons Ratio (z) = 0.79524 0.45520
#
# Static dielectric constant tensor:
#      x y z
#    x 3.316720 0.000000 0.000000 
#    y 0.000000 2.969480 0.000000 
#    z 0.000000 0.000000 2.840890 
# 
# 
# High freq. dielectric constant tensor:
#      x y z
#    x 1.631850 0.000000 0.000000 
#    y 0.000000 1.604860 0.000000 
#    z 0.000000 0.000000 1.587950 
# 
# From -- ./inp_files/43959.got.cif
#   From: 2010.06.25/outbox.cif.g09.slc.cpg/sg71_22_cif.got.tgz:43959.got - 2010.06.28 04:59:45.
