data_PCOD8286054
_publ_section_title
;
Structure prediction by ZEFSAII (Michael W. Deem and Ramdas Pophale) SiO2 
 PCOD8286054
Probable space group: F D D D
;
_chemical_formula_sum "Si O2"
_cell_formula_units_Z 176
_cell_length_a 24.373801
_cell_length_b 26.172196
_cell_length_c 12.753954
_cell_angle_alpha 90.000000
_cell_angle_beta 90.000000
_cell_angle_gamma 90.000000
_cell_volume 8135.950007
_symmetry_space_group_name_H-M "F D D D"
_symmetry_group_IT_number 70
_space_group.IT_coordinate_system_code '2'
_symmetry_cell_setting 'orthorhombic'
loop_
_space_group_symop_operation_xyz
x,y,z
1/4-x,1/4-y,z
x,1/4-y,1/4-z
1/4-x,y,1/4-z
-x,-y,-z
3/4+x,3/4+y,-z
-x,3/4+y,3/4+z
3/4+x,-y,3/4+z
x,1/2+y,1/2+z
1/4-x,3/4-y,1/2+z
x,3/4-y,3/4-z
1/4-x,1/2+y,3/4-z
-x,1/2-y,1/2-z
3/4+x,1/4+y,1/2-z
-x,1/4+y,1/4+z
3/4+x,1/2-y,1/4+z
1/2+x,y,1/2+z
3/4-x,1/4-y,1/2+z
1/2+x,1/4-y,3/4-z
3/4-x,y,3/4-z
1/2-x,-y,1/2-z
1/4+x,3/4+y,1/2-z
1/2-x,3/4+y,1/4+z
1/4+x,-y,1/4+z
1/2+x,1/2+y,z
3/4-x,3/4-y,z
1/2+x,3/4-y,1/4-z
3/4-x,1/2+y,1/4-z
1/2-x,1/2-y,-z
1/4+x,1/4+y,-z
1/2-x,1/4+y,3/4+z
1/4+x,1/2-y,3/4+z
loop_
_atom_site_type_symbol
_atom_site_label
_atom_site_fract_x
_atom_site_fract_y
_atom_site_fract_z
Si Si1 0.084712 0.029321 0.040361
Si Si2 0.804182 0.125000 0.125000
Si Si3 0.625000 0.539558 0.625000
Si Si4 0.371610 0.057306 0.989628
Si Si5 0.875000 0.875000 0.663944
Si Si6 0.037689 0.164382 0.486848
Si Si7 0.972027 0.727391 0.614348
O O1 0.125000 0.004430 0.125000
O O2 0.028628 0.048669 0.098001
O O3 0.119169 0.075268 0.986679
O O4 0.069792 0.983415 0.962089
O O5 0.841647 0.170378 0.081714
O O6 0.768558 0.109937 0.024748
O O7 0.609684 0.502312 0.526219
O O8 0.676279 0.574002 0.591137
O O9 0.307810 0.058184 0.027945
O O10 0.375000 0.085385 0.875000
O O11 0.928881 0.874985 0.588359
O O12 0.019018 0.215118 0.426522
#
# Coordination Sequence:
#
# PCOD8286054 Si02
#       7
#    32  16  16  32  16  32  32
#     4  10  21  38  63  90 120 172 214 257 315 376
#     4  12  24  37  64 104 123 166 206 262 332 362
#     4   8  18  43  64  82 128 170 208 254 308 373
#     4   9  22  44  59  89 129 169 208 256 319 380
#     4  10  21  39  58  96 132 152 209 273 318 352
#     4  10  20  37  64  94 124 164 211 264 313 374
#     4   9  21  43  61  88 126 171 215 256 312 384
#
# _framework density 21.632384999999999
#
# number of rings (size 3 to 8) (size 9 to 14) (size 15 to 20)
#    0.545    1.818    0.000    1.364    2.545    2.182 
#   13.091    0.000    0.000    0.000    0.000    0.000 
#    0.000    0.000    0.000    0.000    0.000    0.000 
#
# Total GULP energy -545175.702070 kJ/mol
# GULP energy per Si atom -12390.356865 kJ/mol
# Density = 2.158315 g / cm^3
# Si number density = 21.632385 Si / 1000 Ang^3
#
#
#
# Elastic Constant Matrix: (Units=GPa)
#
#
# Indices 1 2 3 4 5 6 
#
# 1 109.0098 46.1418 63.6032 0.0000 0.0000 0.0000
# 2 46.1418 53.6043 23.6414 0.0000 0.0000 0.0000
# 3 63.6032 23.6414 112.8536 0.0000 0.0000 0.0000
# 4 0.0000 0.0000 0.0000 20.3922 0.0000 0.0000
# 5 0.0000 0.0000 0.0000 0.0000 47.2255 0.0000
# 6 0.0000 0.0000 0.0000 0.0000 0.0000 24.0124
#
#
#
# Elastic Compliance Matrix: (Units=1/GPa)
#
#
# Indices 1 2 3 4 5 6 
#
# 1 0.019598 -0.013219 -0.008276 0.000000 0.000000 0.000000
# 2 -0.013219 0.029471 0.001276 0.000000 0.000000 0.000000
# 3 -0.008276 0.001276 0.013258 0.000000 0.000000 0.000000
# 4 0.000000 0.000000 0.000000 0.049038 0.000000 0.000000
# 5 0.000000 0.000000 0.000000 0.000000 0.021175 0.000000
# 6 0.000000 0.000000 0.000000 0.000000 0.000000 0.041645
#
#
# Mechanical properties :
#
#
# Convention : Reuss Voigt Hill
#
# Bulk Modulus (GPa) = 45.68433 60.24896 52.96664
# Shear Modulus (GPa) = 22.53073 27.79810 25.16441
#
# Velocity S-wave (km/s) = 3.23077 3.58861 3.41438
# Velocity P-wave (km/s) = 5.92297 6.71436 6.33104
#
# Compressibility (1/GPa) = 0.02188934
#
# Stress axis : x y z
#
# Youngs Moduli (GPa) = 51.02665 33.93122 75.42762
#
# Poissons Ratio (x) = 0.44855 0.62422
# Poissons Ratio (y) = 0.67454 -0.09628
# Poissons Ratio (z) = 0.42228 -0.04331
#
# Static dielectric constant tensor:
#      x y z
#    x 3.772570 0.000000 0.000000 
#    y 0.000000 3.470700 0.000000 
#    z 0.000000 0.000000 4.178670 
# 
# 
# High freq. dielectric constant tensor:
#      x y z
#    x 1.840950 0.000000 0.000000 
#    y 0.000000 1.813400 0.000000 
#    z 0.000000 0.000000 1.867870 
# 
# From -- ./inp_files/28798.got.cif
#   From: 2010.03.12/outbox.cif.g09.slc.cpg/sg70_15_cif.got.tgz:28798.got - 2010.04.16 13:46:32.
