data_PCOD8286584
_publ_section_title
;
Structure prediction by ZEFSAII (Michael W. Deem and Ramdas Pophale) SiO2 
 PCOD8286584
Probable space group: F D D D
;
_chemical_formula_sum "Si O2"
_cell_formula_units_Z 176
_cell_length_a 28.708542
_cell_length_b 12.262428
_cell_length_c 22.647525
_cell_angle_alpha 90.000000
_cell_angle_beta 90.000000
_cell_angle_gamma 90.000000
_cell_volume 7972.753833
_symmetry_space_group_name_H-M "F D D D"
_symmetry_group_IT_number 70
_space_group.IT_coordinate_system_code '2'
_symmetry_cell_setting 'orthorhombic'
loop_
_space_group_symop_operation_xyz
x,y,z
1/4-x,1/4-y,z
x,1/4-y,1/4-z
1/4-x,y,1/4-z
-x,-y,-z
3/4+x,3/4+y,-z
-x,3/4+y,3/4+z
3/4+x,-y,3/4+z
x,1/2+y,1/2+z
1/4-x,3/4-y,1/2+z
x,3/4-y,3/4-z
1/4-x,1/2+y,3/4-z
-x,1/2-y,1/2-z
3/4+x,1/4+y,1/2-z
-x,1/4+y,1/4+z
3/4+x,1/2-y,1/4+z
1/2+x,y,1/2+z
3/4-x,1/4-y,1/2+z
1/2+x,1/4-y,3/4-z
3/4-x,y,3/4-z
1/2-x,-y,1/2-z
1/4+x,3/4+y,1/2-z
1/2-x,3/4+y,1/4+z
1/4+x,-y,1/4+z
1/2+x,1/2+y,z
3/4-x,3/4-y,z
1/2+x,3/4-y,1/4-z
3/4-x,1/2+y,1/4-z
1/2-x,1/2-y,-z
1/4+x,1/4+y,-z
1/2-x,1/4+y,3/4+z
1/4+x,1/2-y,3/4+z
loop_
_atom_site_type_symbol
_atom_site_label
_atom_site_fract_x
_atom_site_fract_y
_atom_site_fract_z
Si Si1 0.183307 0.815350 0.483514
Si Si2 0.139623 0.509339 0.252055
Si Si3 0.993997 0.125000 0.125000
Si Si4 0.125000 0.125000 0.935888
Si Si5 0.699797 0.752401 0.391925
Si Si6 0.719192 0.409310 0.144310
Si Si7 0.625000 0.454292 0.625000
O O1 0.147693 0.916090 0.485277
O O2 0.211434 0.825910 0.424170
O O3 0.155824 0.700575 0.479280
O O4 0.222344 0.815925 0.535424
O O5 0.125000 0.625000 0.278647
O O6 0.187619 0.488327 0.287836
O O7 0.144257 0.523539 0.180896
O O8 0.024890 0.229576 0.105883
O O9 0.156551 0.046248 0.894992
O O10 0.745595 0.681201 0.379777
O O11 0.712220 0.875000 0.375000
O O12 0.666235 0.375099 0.141215
#
# Coordination Sequence:
#
# PCOD8286584 Si02
#       7
#    32  32  16  16  32  32  16
#     4  11  24  43  69 105 143 183 229 307 358 432
#     4  11  22  41  69  96 137 181 233 283 360 431
#     4  12  22  41  70  98 140 180 228 291 360 416
#     4  12  22  42  74 104 142 180 238 290 374 430
#     4  12  24  41  72 109 133 179 242 297 352 435
#     4  11  27  44  68 102 140 181 243 290 371 430
#     4  10  27  47  62  94 140 197 231 298 364 432
#
# _framework density 22.075184
#
# number of rings (size 3 to 8) (size 9 to 14) (size 15 to 20)
#    0.000    0.727    4.545    3.000    0.000    8.364 
#    0.000    0.000    0.000    0.000    0.000    0.000 
#    0.000    0.000    0.000    0.000    0.000    0.000 
#
# Total GULP energy -545226.018048 kJ/mol
# GULP energy per Si atom -12391.500410 kJ/mol
# Density = 2.202494 g / cm^3
# Si number density = 22.075184 Si / 1000 Ang^3
#
#
#
# Elastic Constant Matrix: (Units=GPa)
#
#
# Indices 1 2 3 4 5 6 
#
# 1 97.5275 47.6474 45.3998 0.0000 0.0000 0.0000
# 2 47.6474 179.0295 39.2525 0.0000 0.0000 0.0000
# 3 45.3998 39.2525 108.7515 0.0000 0.0000 0.0000
# 4 0.0000 0.0000 0.0000 23.5861 0.0000 0.0000
# 5 0.0000 0.0000 0.0000 0.0000 24.5815 0.0000
# 6 0.0000 0.0000 0.0000 0.0000 0.0000 -86.8600
#
#
#
# Elastic Compliance Matrix: (Units=1/GPa)
#
#
# Indices 1 2 3 4 5 6 
#
# 1 0.013765 -0.002610 -0.004804 0.000000 0.000000 0.000000
# 2 -0.002610 0.006561 -0.001278 0.000000 0.000000 0.000000
# 3 -0.004804 -0.001278 0.011662 0.000000 0.000000 0.000000
# 4 0.000000 0.000000 0.000000 0.042398 0.000000 0.000000
# 5 0.000000 0.000000 0.000000 0.000000 0.040681 0.000000
# 6 0.000000 0.000000 0.000000 0.000000 0.000000 -0.011513
#
#
# Mechanical properties :
#
#
# Convention : Reuss Voigt Hill
#
# Bulk Modulus (GPa) = 68.48171 72.21200 70.34686
# Shear Modulus (GPa) = 39.74331 9.12878 24.43605
#
# Velocity S-wave (km/s) = 4.24767 2.03575 3.33069
# Velocity P-wave (km/s) = 7.42606 6.18939 6.83575
#
# Compressibility (1/GPa) = 0.01460244
#
# Stress axis : x y z
#
# Youngs Moduli (GPa) = 72.64705 152.42464 85.74619
#
# Poissons Ratio (x) = 0.39785 0.41196
# Poissons Ratio (y) = 0.18962 0.10961
# Poissons Ratio (z) = 0.34902 0.19485
#
# Static dielectric constant tensor:
#      x y z
#    x 3.934560 0.000000 0.000000 
#    y 0.000000 4.965580 0.000000 
#    z 0.000000 0.000000 4.453970 
# 
# 
# High freq. dielectric constant tensor:
#      x y z
#    x 1.864450 0.000000 0.000000 
#    y 0.000000 1.887610 0.000000 
#    z 0.000000 0.000000 1.872180 
# 
# From -- ./inp_files/55000.got.cif
#   From: 2010.03.12/outbox.cif.g09.slc.cpg/sg70_28_cif.got.tgz:55000.got - 2010.04.16 13:46:32.
