data_PCOD8286056
_publ_section_title
;
Structure prediction by ZEFSAII (Michael W. Deem and Ramdas Pophale) SiO2 
 PCOD8286056
Probable space group: F D D D
;
_chemical_formula_sum "Si O2"
_cell_formula_units_Z 216
_cell_length_a 26.473518
_cell_length_b 12.175570
_cell_length_c 31.738845
_cell_angle_alpha 90.000000
_cell_angle_beta 90.000000
_cell_angle_gamma 90.000000
_cell_volume 10230.387354
_symmetry_space_group_name_H-M "F D D D"
_symmetry_group_IT_number 70
_space_group.IT_coordinate_system_code '2'
_symmetry_cell_setting 'orthorhombic'
loop_
_space_group_symop_operation_xyz
x,y,z
1/4-x,1/4-y,z
x,1/4-y,1/4-z
1/4-x,y,1/4-z
-x,-y,-z
3/4+x,3/4+y,-z
-x,3/4+y,3/4+z
3/4+x,-y,3/4+z
x,1/2+y,1/2+z
1/4-x,3/4-y,1/2+z
x,3/4-y,3/4-z
1/4-x,1/2+y,3/4-z
-x,1/2-y,1/2-z
3/4+x,1/4+y,1/2-z
-x,1/4+y,1/4+z
3/4+x,1/2-y,1/4+z
1/2+x,y,1/2+z
3/4-x,1/4-y,1/2+z
1/2+x,1/4-y,3/4-z
3/4-x,y,3/4-z
1/2-x,-y,1/2-z
1/4+x,3/4+y,1/2-z
1/2-x,3/4+y,1/4+z
1/4+x,-y,1/4+z
1/2+x,1/2+y,z
3/4-x,3/4-y,z
1/2+x,3/4-y,1/4-z
3/4-x,1/2+y,1/4-z
1/2-x,1/2-y,-z
1/4+x,1/4+y,-z
1/2-x,1/4+y,3/4+z
1/4+x,1/2-y,3/4+z
loop_
_atom_site_type_symbol
_atom_site_label
_atom_site_fract_x
_atom_site_fract_y
_atom_site_fract_z
Si Si1 0.258127 0.181935 0.326161
Si Si2 0.296178 0.625000 0.125000
Si Si3 0.131169 0.997755 0.427336
Si Si4 0.011684 0.990225 0.858496
Si Si5 0.823321 0.838744 0.017974
Si Si6 0.072924 0.245317 0.054331
Si Si7 0.625000 0.125000 0.625000
Si Si8 0.404989 0.639480 0.987080
O O1 0.241570 0.293668 0.349643
O O2 0.221333 0.154706 0.288319
O O3 0.312426 0.190320 0.301899
O O4 0.253293 0.081937 0.357934
O O5 0.331604 0.686132 0.090797
O O6 0.179147 0.969485 0.398488
O O7 0.140131 0.976319 0.477063
O O8 0.125000 0.125000 0.421489
O O9 0.989179 0.875000 0.875000
O O10 0.985741 0.026581 0.813860
O O11 0.875000 0.875000 0.042458
O O12 0.815990 0.707765 0.013210
O O13 0.826895 0.882230 0.970746
O O14 0.093490 0.214967 0.099754
O O15 0.102494 0.344400 0.032017
#
# Coordination Sequence:
#
# PCOD8286056 Si02
#       8
#    32  16  32  32  32  32   8  32
#     4  12  25  42  67  98 137 180 234 272 345 411
#     4  12  26  47  70 101 144 185 237 290 338 418
#     4  12  26  46  69 101 134 182 234 289 354 418
#     4  12  23  39  71 105 135 170 230 298 352 408
#     4  10  20  37  66  99 130 170 211 287 353 403
#     4  11  21  38  64 102 135 171 214 284 355 399
#     4  12  16  34  60  96 146 152 210 268 344 396
#     4  11  23  43  65  96 138 182 223 280 348 424
#
# _framework density 21.113569999999999
#
# number of rings (size 3 to 8) (size 9 to 14) (size 15 to 20)
#    0.000    0.593    5.185    5.778    2.074    0.000 
#    2.667    1.481    0.000    0.000    0.000    0.000 
#    0.000    0.000    0.000    0.000    0.000    0.000 
#
# Total GULP energy -669110.077594 kJ/mol
# GULP energy per Si atom -12390.927363 kJ/mol
# Density = 2.106551 g / cm^3
# Si number density = 21.113570 Si / 1000 Ang^3
#
#
#
# Elastic Constant Matrix: (Units=GPa)
#
#
# Indices 1 2 3 4 5 6 
#
# 1 71.7393 36.6256 31.7644 0.0000 0.0000 0.0000
# 2 36.6256 110.6916 42.3092 0.0000 0.0000 0.0000
# 3 31.7644 42.3092 82.2871 0.0000 0.0000 0.0000
# 4 0.0000 0.0000 0.0000 44.2220 0.0000 0.0000
# 5 0.0000 0.0000 0.0000 0.0000 92.1088 0.0000
# 6 0.0000 0.0000 0.0000 0.0000 0.0000 11.4027
#
#
#
# Elastic Compliance Matrix: (Units=1/GPa)
#
#
# Indices 1 2 3 4 5 6 
#
# 1 0.018232 -0.004160 -0.004899 0.000000 0.000000 0.000000
# 2 -0.004160 0.012193 -0.004663 0.000000 0.000000 0.000000
# 3 -0.004899 -0.004663 0.016441 0.000000 0.000000 0.000000
# 4 0.000000 0.000000 0.000000 0.022613 0.000000 0.000000
# 5 0.000000 0.000000 0.000000 0.000000 0.010857 0.000000
# 6 0.000000 0.000000 0.000000 0.000000 0.000000 0.087698
#
#
# Mechanical properties :
#
#
# Convention : Reuss Voigt Hill
#
# Bulk Modulus (GPa) = 51.48855 54.01292 52.75074
# Shear Modulus (GPa) = 24.75809 39.81462 32.28636
#
# Velocity S-wave (km/s) = 3.42806 4.34722 3.91471
# Velocity P-wave (km/s) = 6.33311 7.12989 6.74328
#
# Compressibility (1/GPa) = 0.01942179
#
# Stress axis : x y z
#
# Youngs Moduli (GPa) = 54.84720 82.01368 60.82197
#
# Poissons Ratio (x) = 0.34119 0.29797
# Poissons Ratio (y) = 0.22818 0.28363
# Poissons Ratio (z) = 0.26870 0.38246
#
# Static dielectric constant tensor:
#      x y z
#    x 3.292770 0.000000 0.000000 
#    y 0.000000 3.649030 0.000000 
#    z 0.000000 0.000000 4.068560 
# 
# 
# High freq. dielectric constant tensor:
#      x y z
#    x 1.835990 0.000000 0.000000 
#    y 0.000000 1.807060 0.000000 
#    z 0.000000 0.000000 1.835350 
# 
# From -- ./inp_files/69024.got.cif
#   From: 2010.03.12/outbox.cif.g09.slc.cpg/sg70_35_cif.got.tgz:69024.got - 2010.04.16 13:46:32.
