data_PCOD8286977
_publ_section_title
;
Structure prediction by ZEFSAII (Michael W. Deem and Ramdas Pophale) SiO2 
 PCOD8286977
Probable space group: I M M M
;
_chemical_formula_sum "Si O2"
_cell_formula_units_Z 120
_cell_length_a 13.106640
_cell_length_b 30.898819
_cell_length_c 19.369428
_cell_angle_alpha 90.000000
_cell_angle_beta 90.000000
_cell_angle_gamma 90.000000
_cell_volume 7844.225084
_symmetry_space_group_name_H-M "I M M M"
_symmetry_group_IT_number 71
_symmetry_cell_setting 'orthorhombic'
loop_
_space_group_symop_operation_xyz
x,y,z
-x,-y,z
x,-y,-z
-x,y,-z
-x,-y,-z
x,y,-z
-x,y,z
x,-y,z
1/2+x,1/2+y,1/2+z
1/2-x,1/2-y,1/2+z
1/2+x,1/2-y,1/2-z
1/2-x,1/2+y,1/2-z
1/2-x,1/2-y,1/2-z
1/2+x,1/2+y,1/2-z
1/2-x,1/2+y,1/2+z
1/2+x,1/2-y,1/2+z
loop_
_atom_site_type_symbol
_atom_site_label
_atom_site_fract_x
_atom_site_fract_y
_atom_site_fract_z
Si Si1 0.611107 0.000000 0.418514
Si Si2 0.620093 0.673665 0.577788
Si Si3 0.117548 0.786160 0.716688
Si Si4 0.620091 0.373745 0.710934
Si Si5 0.385959 0.158749 0.579152
Si Si6 0.250574 0.921605 0.419104
Si Si7 0.311224 0.243142 0.646690
Si Si8 0.120702 0.048840 0.699892
O O1 0.669153 0.042607 0.394595
O O2 0.500000 0.000000 0.383295
O O3 0.599874 0.000000 0.500000
O O4 0.643436 0.657463 0.500000
O O5 0.500000 0.682967 0.588374
O O6 0.658284 0.637252 0.632854
O O7 0.680521 0.718261 0.591164
O O8 0.150054 0.835028 0.736943
O O9 0.191565 0.768873 0.656239
O O10 0.133139 0.756117 0.782936
O O11 0.000000 0.783645 0.691575
O O12 0.500000 0.377930 0.708684
O O13 0.664632 0.419461 0.739425
O O14 0.370403 0.171380 0.500000
O O15 0.500000 0.139863 0.591371
O O16 0.300991 0.123930 0.600473
O O17 0.373013 0.201686 0.622691
O O18 0.222116 0.925088 0.500000
O O19 0.149881 0.930399 0.374132
O O20 0.000000 0.047640 0.701727
O O21 0.164067 0.000000 0.710128
#
# Coordination Sequence:
#
# PCOD8286977 Si02
#       8
#     8  16  16  16  16  16  16  16
#     4   9  16  28  43  55  73 103 137 172 208 248
#     4   9  16  27  45  66  86 109 141 183 224 263
#     4   9  17  28  42  61  87 119 148 173 206 252
#     4   8  15  28  43  60  83 111 143 173 211 262
#     4  10  19  29  42  61  84 108 138 179 220 252
#     4  10  19  30  42  59  82 111 145 177 210 251
#     4  10  17  26  43  64  87 115 145 178 213 250
#     4  10  19  30  45  63  84 111 142 180 217 253
#
# _framework density 15.297879
#
# number of rings (size 3 to 8) (size 9 to 14) (size 15 to 20)
#    0.000    2.600    0.667    3.600    0.000    2.933 
#    0.000    0.667    0.000    2.800    0.000    2.800 
#    0.000    0.000    0.000    0.000    0.000    0.667 
#
# Total GULP energy -743625.035829 kJ/mol
# GULP energy per Si atom -12393.750597 kJ/mol
# Density = 1.526306 g / cm^3
# Si number density = 15.297879 Si / 1000 Ang^3
#
#
#
# Elastic Constant Matrix: (Units=GPa)
#
#
# Indices 1 2 3 4 5 6 
#
# 1 40.8854 20.1036 24.8657 0.0000 0.0000 0.0000
# 2 20.1036 112.0064 50.3463 0.0000 0.0000 0.0000
# 3 24.8657 50.3463 73.0948 0.0003 -0.0001 0.0000
# 4 0.0000 0.0000 0.0003 22.0633 0.0000 0.0000
# 5 0.0000 0.0000 -0.0001 0.0000 17.1619 0.0000
# 6 0.0000 0.0000 0.0000 0.0000 0.0000 18.6388
#
#
#
# Elastic Compliance Matrix: (Units=1/GPa)
#
#
# Indices 1 2 3 4 5 6 
#
# 1 0.030948 -0.001191 -0.009708 0.000000 0.000000 0.000000
# 2 -0.001191 0.012978 -0.008534 0.000000 0.000000 0.000000
# 3 -0.009708 -0.008534 0.022861 0.000000 0.000000 0.000000
# 4 0.000000 0.000000 0.000000 0.045324 0.000000 0.000000
# 5 0.000000 0.000000 0.000000 0.000000 0.058269 0.000000
# 6 0.000000 0.000000 0.000000 0.000000 0.000000 0.053652
#
#
# Mechanical properties :
#
#
# Convention : Reuss Voigt Hill
#
# Bulk Modulus (GPa) = 35.81386 46.29087 41.05236
# Shear Modulus (GPa) = 18.36862 20.28420 19.32641
#
# Velocity S-wave (km/s) = 3.46891 3.64531 3.55820
# Velocity P-wave (km/s) = 6.28540 6.93131 6.61624
#
# Compressibility (1/GPa) = 0.02792215
#
# Stress axis : x y z
#
# Youngs Moduli (GPa) = 32.31197 77.05550 43.74274
#
# Poissons Ratio (x) = 0.09180 0.42464
# Poissons Ratio (y) = 0.03849 0.37328
# Poissons Ratio (z) = 0.31367 0.65755
#
# Static dielectric constant tensor:
#      x y z
#    x 2.862220 0.000000 0.000000 
#    y 0.000000 3.221310 0.000000 
#    z 0.000000 0.000000 2.898820 
# 
# 
# High freq. dielectric constant tensor:
#      x y z
#    x 1.565380 0.000000 0.000000 
#    y 0.000000 1.589800 0.000000 
#    z 0.000000 0.000000 1.565470 
# 
# From -- ./inp_files/52482.got.cif
#   From: 2010.06.25/outbox.cif.g09.slc.cpg/sg71_27_cif.got.tgz:52482.got - 2010.06.28 04:59:45.
