data_PCOD8286799
_publ_section_title
;
Structure prediction by ZEFSAII (Michael W. Deem and Ramdas Pophale) SiO2 
 PCOD8286799
Probable space group: F D D D
;
_chemical_formula_sum "Si O2"
_cell_formula_units_Z 192
_cell_length_a 12.455992
_cell_length_b 27.616710
_cell_length_c 26.234314
_cell_angle_alpha 90.000000
_cell_angle_beta 90.000000
_cell_angle_gamma 90.000000
_cell_volume 9024.433987
_symmetry_space_group_name_H-M "F D D D"
_symmetry_group_IT_number 70
_space_group.IT_coordinate_system_code '2'
_symmetry_cell_setting 'orthorhombic'
loop_
_space_group_symop_operation_xyz
x,y,z
1/4-x,1/4-y,z
x,1/4-y,1/4-z
1/4-x,y,1/4-z
-x,-y,-z
3/4+x,3/4+y,-z
-x,3/4+y,3/4+z
3/4+x,-y,3/4+z
x,1/2+y,1/2+z
1/4-x,3/4-y,1/2+z
x,3/4-y,3/4-z
1/4-x,1/2+y,3/4-z
-x,1/2-y,1/2-z
3/4+x,1/4+y,1/2-z
-x,1/4+y,1/4+z
3/4+x,1/2-y,1/4+z
1/2+x,y,1/2+z
3/4-x,1/4-y,1/2+z
1/2+x,1/4-y,3/4-z
3/4-x,y,3/4-z
1/2-x,-y,1/2-z
1/4+x,3/4+y,1/2-z
1/2-x,3/4+y,1/4+z
1/4+x,-y,1/4+z
1/2+x,1/2+y,z
3/4-x,3/4-y,z
1/2+x,3/4-y,1/4-z
3/4-x,1/2+y,1/4-z
1/2-x,1/2-y,-z
1/4+x,1/4+y,-z
1/2-x,1/4+y,3/4+z
1/4+x,1/2-y,3/4+z
loop_
_atom_site_type_symbol
_atom_site_label
_atom_site_fract_x
_atom_site_fract_y
_atom_site_fract_z
Si Si1 0.000585 0.373307 0.159954
Si Si2 0.431122 0.038789 0.776187
Si Si3 0.625000 0.285461 0.625000
Si Si4 0.669687 0.262706 0.337493
Si Si5 0.125000 0.625000 0.219965
Si Si6 0.725781 0.069459 0.310361
Si Si7 0.518685 0.544270 0.656672
O O1 0.875000 0.375000 0.170241
O O2 0.021484 0.392233 0.101784
O O3 0.045443 0.407265 0.204428
O O4 0.058607 0.320616 0.164272
O O5 0.431552 0.039800 0.715805
O O6 0.311384 0.027766 0.797247
O O7 0.505041 0.997085 0.800680
O O8 0.541098 0.246180 0.604101
O O9 0.625637 0.207705 0.334212
O O10 0.591098 0.295506 0.373187
O O11 0.197754 0.592470 0.256148
O O12 0.042226 0.595305 0.184262
O O13 0.625000 0.530105 0.625000
#
# Coordination Sequence:
#
# PCOD8286799 Si02
#       7
#    32  32  16  32  16  32  32
#     4  12  22  40  69 103 134 174 234 296 341 411
#     4  12  23  39  67  95 133 180 222 288 359 402
#     4  12  24  44  70  98 139 183 234 280 344 422
#     4  12  25  44  67  98 142 186 227 288 360 425
#     4  12  25  36  66 102 136 176 226 283 350 420
#     4  12  20  40  67  98 132 168 225 295 343 406
#     4  12  23  42  62 100 141 174 223 289 354 412
#
# _framework density 21.275573000000001
#
# number of rings (size 3 to 8) (size 9 to 14) (size 15 to 20)
#    0.000    0.000    9.167    1.750    0.000    0.000 
#    0.000    5.000    0.000    0.000    0.000    0.000 
#    0.000    0.000    0.000    0.000    0.000    0.000 
#
# Total GULP energy -594771.447036 kJ/mol
# GULP energy per Si atom -12391.071813 kJ/mol
# Density = 2.122715 g / cm^3
# Si number density = 21.275573 Si / 1000 Ang^3
#
#
#
# Elastic Constant Matrix: (Units=GPa)
#
#
# Indices 1 2 3 4 5 6 
#
# 1 125.9396 26.7619 51.8389 0.0000 0.0000 0.0000
# 2 26.7619 54.4971 34.6356 0.0000 0.0000 0.0000
# 3 51.8389 34.6356 126.5431 0.0000 0.0000 0.0000
# 4 0.0000 0.0000 0.0000 23.3220 0.0000 0.0000
# 5 0.0000 0.0000 0.0000 0.0000 30.1843 0.0000
# 6 0.0000 0.0000 0.0000 0.0000 0.0000 23.6292
#
#
#
# Elastic Compliance Matrix: (Units=1/GPa)
#
#
# Indices 1 2 3 4 5 6 
#
# 1 0.009882 -0.002760 -0.003293 0.000000 0.000000 0.000000
# 2 -0.002760 0.022985 -0.005160 0.000000 0.000000 0.000000
# 3 -0.003293 -0.005160 0.010664 0.000000 0.000000 0.000000
# 4 0.000000 0.000000 0.000000 0.042878 0.000000 0.000000
# 5 0.000000 0.000000 0.000000 0.000000 0.033130 0.000000
# 6 0.000000 0.000000 0.000000 0.000000 0.000000 0.042321
#
#
# Mechanical properties :
#
#
# Convention : Reuss Voigt Hill
#
# Bulk Modulus (GPa) = 47.38417 59.27250 53.32833
# Shear Modulus (GPa) = 26.13419 28.34333 27.23876
#
# Velocity S-wave (km/s) = 3.50861 3.65389 3.58199
# Velocity P-wave (km/s) = 6.22364 6.76174 6.49826
#
# Compressibility (1/GPa) = 0.02110410
#
# Stress axis : x y z
#
# Youngs Moduli (GPa) = 101.19188 43.50728 93.77533
#
# Poissons Ratio (x) = 0.12008 0.30879
# Poissons Ratio (y) = 0.27930 0.48391
# Poissons Ratio (z) = 0.33321 0.22451
#
# Static dielectric constant tensor:
#      x y z
#    x 4.128510 0.000000 0.000000 
#    y 0.000000 3.668030 0.000000 
#    z 0.000000 0.000000 3.856410 
# 
# 
# High freq. dielectric constant tensor:
#      x y z
#    x 1.837810 0.000000 0.000000 
#    y 0.000000 1.820350 0.000000 
#    z 0.000000 0.000000 1.824550 
# 
# From -- ./inp_files/51449.got.cif
#   From: 2010.03.12/outbox.cif.g09.slc.cpg/sg70_26_cif.got.tgz:51449.got - 2010.04.16 13:46:32.
