data_PCOD8286839
_publ_section_title
;
Structure prediction by ZEFSAII (Michael W. Deem and Ramdas Pophale) SiO2 
 PCOD8286839
Probable space group: F D D D
;
_chemical_formula_sum "Si O2"
_cell_formula_units_Z 80
_cell_length_a 11.487674
_cell_length_b 33.130103
_cell_length_c 8.865953
_cell_angle_alpha 90.000000
_cell_angle_beta 90.000000
_cell_angle_gamma 90.000000
_cell_volume 3374.273750
_symmetry_space_group_name_H-M "F D D D"
_symmetry_group_IT_number 70
_space_group.IT_coordinate_system_code '2'
_symmetry_cell_setting 'orthorhombic'
loop_
_space_group_symop_operation_xyz
x,y,z
1/4-x,1/4-y,z
x,1/4-y,1/4-z
1/4-x,y,1/4-z
-x,-y,-z
3/4+x,3/4+y,-z
-x,3/4+y,3/4+z
3/4+x,-y,3/4+z
x,1/2+y,1/2+z
1/4-x,3/4-y,1/2+z
x,3/4-y,3/4-z
1/4-x,1/2+y,3/4-z
-x,1/2-y,1/2-z
3/4+x,1/4+y,1/2-z
-x,1/4+y,1/4+z
3/4+x,1/2-y,1/4+z
1/2+x,y,1/2+z
3/4-x,1/4-y,1/2+z
1/2+x,1/4-y,3/4-z
3/4-x,y,3/4-z
1/2-x,-y,1/2-z
1/4+x,3/4+y,1/2-z
1/2-x,3/4+y,1/4+z
1/4+x,-y,1/4+z
1/2+x,1/2+y,z
3/4-x,3/4-y,z
1/2+x,3/4-y,1/4-z
3/4-x,1/2+y,1/4-z
1/2-x,1/2-y,-z
1/4+x,1/4+y,-z
1/2-x,1/4+y,3/4+z
1/4+x,1/2-y,3/4+z
loop_
_atom_site_type_symbol
_atom_site_label
_atom_site_fract_x
_atom_site_fract_y
_atom_site_fract_z
Si Si1 0.438084 0.164055 0.216545
Si Si2 0.748203 0.971010 0.887439
Si Si3 0.875000 0.473570 0.875000
O O1 0.481105 0.125000 0.125000
O O2 0.375000 0.153935 0.375000
O O3 0.342676 0.185254 0.110893
O O4 0.548078 0.194702 0.236020
O O5 0.875000 0.950584 0.875000
O O6 0.750000 0.000000 0.750000
O O7 0.714532 0.997334 0.036082
#
# Coordination Sequence:
#
# PCOD8286839 Si02
#       3
#    32  32  16
#     4  12  28  49  73 109 153 195 242 305 376 437
#     4  12  24  45  80 106 140 192 251 301 361 441
#     4  12  25  52  76 106 150 194 246 312 364 432
#
# _framework density 23.708804000000001
#
# number of rings (size 3 to 8) (size 9 to 14) (size 15 to 20)
#    0.000    0.000    6.000    4.200    5.600    0.800 
#    7.200    0.000    0.000    0.000    0.000    0.000 
#    0.000    0.000    0.000    0.000    0.000    0.000 
#
# Total GULP energy -247808.349698 kJ/mol
# GULP energy per Si atom -12390.417485 kJ/mol
# Density = 2.365484 g / cm^3
# Si number density = 23.708804 Si / 1000 Ang^3
#
#
#
# Elastic Constant Matrix: (Units=GPa)
#
#
# Indices 1 2 3 4 5 6 
#
# 1 142.0504 35.2383 8.9832 0.0000 0.0000 0.0000
# 2 35.2383 109.0567 22.9728 0.0000 0.0000 0.0000
# 3 8.9832 22.9728 93.9238 0.0000 0.0000 0.0000
# 4 0.0000 0.0000 0.0000 35.9564 0.0000 0.0000
# 5 0.0000 0.0000 0.0000 0.0000 43.2427 0.0000
# 6 0.0000 0.0000 0.0000 0.0000 0.0000 41.3398
#
#
#
# Elastic Compliance Matrix: (Units=1/GPa)
#
#
# Indices 1 2 3 4 5 6 
#
# 1 0.007655 -0.002445 -0.000134 0.000000 0.000000 0.000000
# 2 -0.002445 0.010449 -0.002322 0.000000 0.000000 0.000000
# 3 -0.000134 -0.002322 0.011228 0.000000 0.000000 0.000000
# 4 0.000000 0.000000 0.000000 0.027811 0.000000 0.000000
# 5 0.000000 0.000000 0.000000 0.000000 0.023125 0.000000
# 6 0.000000 0.000000 0.000000 0.000000 0.000000 0.024190
#
#
# Mechanical properties :
#
#
# Convention : Reuss Voigt Hill
#
# Bulk Modulus (GPa) = 51.20564 53.26885 52.23725
# Shear Modulus (GPa) = 41.40123 42.63024 42.01574
#
# Velocity S-wave (km/s) = 4.18334 4.24497 4.21427
# Velocity P-wave (km/s) = 6.70659 6.82225 6.76467
#
# Compressibility (1/GPa) = 0.01952910
#
# Stress axis : x y z
#
# Youngs Moduli (GPa) = 130.63693 95.70566 89.06594
#
# Poissons Ratio (x) = 0.23402 0.01194
# Poissons Ratio (y) = 0.31943 0.20679
# Poissons Ratio (z) = 0.01751 0.22221
#
# Static dielectric constant tensor:
#      x y z
#    x 3.653040 0.000000 0.000000 
#    y 0.000000 3.978450 0.000000 
#    z 0.000000 0.000000 3.999190 
# 
# 
# High freq. dielectric constant tensor:
#      x y z
#    x 1.962710 0.000000 0.000000 
#    y 0.000000 1.931240 0.000000 
#    z 0.000000 0.000000 1.929940 
# 
# From -- ./inp_files/13847.got.cif
#   From: 2010.03.12/outbox.cif.g09.slc.cpg/sg70_7_cif.got.tgz:13847.got - 2010.04.16 13:46:32.
