data_PCOD8286986
_publ_section_title
;
Structure prediction by ZEFSAII (Michael W. Deem and Ramdas Pophale) SiO2 
 PCOD8286986
Probable space group: I M M M
;
_chemical_formula_sum "Si O2"
_cell_formula_units_Z 104
_cell_length_a 22.391045
_cell_length_b 13.052715
_cell_length_c 23.249925
_cell_angle_alpha 90.000000
_cell_angle_beta 90.000000
_cell_angle_gamma 90.000000
_cell_volume 6795.114428
_symmetry_space_group_name_H-M "I M M M"
_symmetry_group_IT_number 71
_symmetry_cell_setting 'orthorhombic'
loop_
_space_group_symop_operation_xyz
x,y,z
-x,-y,z
x,-y,-z
-x,y,-z
-x,-y,-z
x,y,-z
-x,y,z
x,-y,z
1/2+x,1/2+y,1/2+z
1/2-x,1/2-y,1/2+z
1/2+x,1/2-y,1/2-z
1/2-x,1/2+y,1/2-z
1/2-x,1/2-y,1/2-z
1/2+x,1/2+y,1/2-z
1/2-x,1/2+y,1/2+z
1/2+x,1/2-y,1/2+z
loop_
_atom_site_type_symbol
_atom_site_label
_atom_site_fract_x
_atom_site_fract_y
_atom_site_fract_z
Si Si1 0.750876 0.884877 0.763717
Si Si2 0.145643 0.253154 0.754577
Si Si3 0.569718 0.618581 0.831240
Si Si4 0.258880 0.884501 0.372458
Si Si5 0.500000 0.878626 0.564532
Si Si6 0.389405 0.122274 0.358711
Si Si7 0.353556 0.378546 0.936495
O O1 0.808413 0.823879 0.788348
O O2 0.688179 0.831622 0.781705
O O3 0.756721 0.879034 0.694713
O O4 0.751426 0.000000 0.787493
O O5 0.101737 0.190137 0.714589
O O6 0.104112 0.317085 0.798584
O O7 0.500000 0.638977 0.827386
O O8 0.585838 0.500000 0.817712
O O9 0.591104 0.649296 0.895194
O O10 0.325581 0.843061 0.385460
O O11 0.207227 0.828739 0.409553
O O12 0.258552 0.000000 0.393809
O O13 0.500000 0.832111 0.500000
O O14 0.441199 0.841179 0.598250
O O15 0.500000 0.000000 0.560939
O O16 0.391692 0.000000 0.346321
O O17 0.347665 0.500000 0.940467
O O18 0.364619 0.331754 0.000000
#
# Coordination Sequence:
#
# PCOD8286986 Si02
#       7
#    16  16  16  16   8  16  16
#     4   9  16  27  44  66  90 116 143 177 225 276
#     4  10  17  26  46  65  89 123 147 176 228 268
#     4  10  20  31  42  60  91 125 155 188 220 263
#     4   8  13  24  39  57  83 110 139 177 216 253
#     4   9  18  32  46  60  89 131 158 177 215 265
#     4   9  18  29  43  66  94 120 150 183 215 262
#     4   9  16  26  41  59  82 115 149 180 218 263
#
# _framework density 15.305115000000001
#
# number of rings (size 3 to 8) (size 9 to 14) (size 15 to 20)
#    0.000    2.846    1.538    1.846    1.077    0.923 
#    0.000    4.615    0.000    0.000    0.000    0.000 
#    0.000    8.615    0.000    5.538    0.000    0.615 
#
# Total GULP energy -644207.776807 kJ/mol
# GULP energy per Si atom -12388.611092 kJ/mol
# Density = 1.527028 g / cm^3
# Si number density = 15.305115 Si / 1000 Ang^3
#
#
#
# Elastic Constant Matrix: (Units=GPa)
#
#
# Indices 1 2 3 4 5 6 
#
# 1 101.9333 33.8868 55.0005 0.0000 0.0000 0.0000
# 2 33.8868 61.7834 25.9133 0.0000 0.0000 0.0000
# 3 55.0005 25.9133 82.4705 0.0000 0.0000 0.0000
# 4 0.0000 0.0000 0.0000 13.4077 0.0000 0.0000
# 5 0.0000 0.0000 0.0000 0.0000 23.4208 0.0000
# 6 0.0000 0.0000 0.0000 0.0000 0.0000 21.3693
#
#
#
# Elastic Compliance Matrix: (Units=1/GPa)
#
#
# Indices 1 2 3 4 5 6 
#
# 1 0.016635 -0.005150 -0.009476 0.000000 0.000000 0.000000
# 2 -0.005150 0.020237 -0.002924 0.000000 0.000000 0.000000
# 3 -0.009476 -0.002924 0.019364 0.000000 0.000000 0.000000
# 4 0.000000 0.000000 0.000000 0.074584 0.000000 0.000000
# 5 0.000000 0.000000 0.000000 0.000000 0.042697 0.000000
# 6 0.000000 0.000000 0.000000 0.000000 0.000000 0.046796
#
#
# Mechanical properties :
#
#
# Convention : Reuss Voigt Hill
#
# Bulk Modulus (GPa) = 47.31284 52.86537 50.08910
# Shear Modulus (GPa) = 19.05058 20.39866 19.72462
#
# Velocity S-wave (km/s) = 3.53189 3.65471 3.59383
# Velocity P-wave (km/s) = 6.90018 7.24053 7.07240
#
# Compressibility (1/GPa) = 0.02113591
#
# Stress axis : x y z
#
# Youngs Moduli (GPa) = 60.11273 49.41559 51.64166
#
# Poissons Ratio (x) = 0.25447 0.48937
# Poissons Ratio (y) = 0.30956 0.15101
# Poissons Ratio (z) = 0.56964 0.14450
#
# Static dielectric constant tensor:
#      x y z
#    x 3.131490 0.000000 0.000000 
#    y 0.000000 2.809400 0.000000 
#    z 0.000000 0.000000 2.918780 
# 
# 
# High freq. dielectric constant tensor:
#      x y z
#    x 1.599880 0.000000 0.000000 
#    y 0.000000 1.547480 0.000000 
#    z 0.000000 0.000000 1.556310 
# 
# From -- ./inp_files/53475.got.cif
#   From: 2010.06.25/outbox.cif.g09.slc.cpg/sg71_27_cif.got.tgz:53475.got - 2010.06.28 04:59:45.
