data_PCOD8286934
_publ_section_title
;
Structure prediction by ZEFSAII (Michael W. Deem and Ramdas Pophale) SiO2 
 PCOD8286934
Probable space group: I M M M
;
_chemical_formula_sum "Si O2"
_cell_formula_units_Z 96
_cell_length_a 16.077936
_cell_length_b 12.914365
_cell_length_c 28.983021
_cell_angle_alpha 90.000000
_cell_angle_beta 90.000000
_cell_angle_gamma 90.000000
_cell_volume 6017.928227
_symmetry_space_group_name_H-M "I M M M"
_symmetry_group_IT_number 71
_symmetry_cell_setting 'orthorhombic'
loop_
_space_group_symop_operation_xyz
x,y,z
-x,-y,z
x,-y,-z
-x,y,-z
-x,-y,-z
x,y,-z
-x,y,z
x,-y,z
1/2+x,1/2+y,1/2+z
1/2-x,1/2-y,1/2+z
1/2+x,1/2-y,1/2-z
1/2-x,1/2+y,1/2-z
1/2-x,1/2-y,1/2-z
1/2+x,1/2+y,1/2-z
1/2-x,1/2+y,1/2+z
1/2+x,1/2-y,1/2+z
loop_
_atom_site_type_symbol
_atom_site_label
_atom_site_fract_x
_atom_site_fract_y
_atom_site_fract_z
Si Si1 0.829527 0.116227 0.243983
Si Si2 0.664595 0.189112 0.195349
Si Si3 0.500000 0.376017 0.402463
Si Si4 0.338429 0.620018 0.550030
Si Si5 0.329232 0.879080 0.094639
Si Si6 0.597441 0.884134 0.000000
Si Si7 0.500000 0.116658 0.754874
Si Si8 0.000000 0.816322 0.800278
O O1 0.750805 0.133621 0.209866
O O2 0.828426 0.192217 0.287986
O O3 0.916686 0.127910 0.217525
O O4 0.823470 0.000000 0.263381
O O5 0.648931 0.185745 0.140289
O O6 0.583957 0.133194 0.216044
O O7 0.500000 0.500000 0.395325
O O8 0.422156 0.331032 0.430438
O O9 0.500000 0.318775 0.354447
O O10 0.315078 0.668970 0.500000
O O11 0.355022 0.500000 0.542820
O O12 0.268111 0.638107 0.587745
O O13 0.353290 0.000000 0.101937
O O14 0.373550 0.832383 0.048357
O O15 0.500000 0.887444 0.000000
O O16 0.637278 0.000000 0.000000
O O17 0.500000 0.195345 0.712409
O O18 0.500000 0.000000 0.735610
#
# Coordination Sequence:
#
# PCOD8286934 Si02
#       8
#    16  16   8  16  16   8   8   8
#     4  10  19  34  49  67  96 122 152 194 229 265
#     4  10  21  31  48  72  91 123 160 184 226 279
#     4  10  17  24  40  62  86 115 147 178 209 257
#     4   9  16  26  38  57  86 117 143 173 216 261
#     4  10  17  28  43  61  89 117 146 181 220 269
#     4   9  18  28  40  59  84 116 146 179 223 266
#     4  10  20  34  47  66  96 122 148 189 229 266
#     4  10  20  31  48  70  90 120 158 184 222 273
#
# _framework density 15.952334
#
# number of rings (size 3 to 8) (size 9 to 14) (size 15 to 20)
#    0.000    2.250    0.833    3.500    1.167    2.333 
#    0.000    0.000    0.000    0.000    0.000    0.583 
#    0.000    3.333    0.000    0.000    0.000    0.000 
#
# Total GULP energy -594842.566515 kJ/mol
# GULP energy per Si atom -12392.553469 kJ/mol
# Density = 1.591603 g / cm^3
# Si number density = 15.952334 Si / 1000 Ang^3
#
#
#
# Elastic Constant Matrix: (Units=GPa)
#
#
# Indices 1 2 3 4 5 6 
#
# 1 94.4428 18.7936 20.2879 0.0000 0.0000 0.0000
# 2 18.7936 74.7233 31.2906 0.0000 0.0000 0.0000
# 3 20.2879 31.2906 109.8866 0.0000 0.0000 0.0000
# 4 0.0000 0.0000 0.0000 17.8201 0.0000 0.0000
# 5 0.0000 0.0000 0.0000 0.0000 11.2054 0.0000
# 6 0.0000 0.0000 0.0000 0.0000 0.0000 2.8019
#
#
#
# Elastic Compliance Matrix: (Units=1/GPa)
#
#
# Indices 1 2 3 4 5 6 
#
# 1 0.011348 -0.002244 -0.001456 0.000000 0.000000 0.000000
# 2 -0.002244 0.015638 -0.004039 0.000000 0.000000 0.000000
# 3 -0.001456 -0.004039 0.010519 0.000000 0.000000 0.000000
# 4 0.000000 0.000000 0.000000 0.056116 0.000000 0.000000
# 5 0.000000 0.000000 0.000000 0.000000 0.089243 0.000000
# 6 0.000000 0.000000 0.000000 0.000000 0.000000 0.356904
#
#
# Mechanical properties :
#
#
# Convention : Reuss Voigt Hill
#
# Bulk Modulus (GPa) = 45.39850 46.64411 46.02131
# Shear Modulus (GPa) = 8.88748 20.27751 14.58249
#
# Velocity S-wave (km/s) = 2.36291 3.56916 3.02674
# Velocity P-wave (km/s) = 5.99709 6.80356 6.41301
#
# Compressibility (1/GPa) = 0.02202716
#
# Stress axis : x y z
#
# Youngs Moduli (GPa) = 88.12271 63.94512 95.06477
#
# Poissons Ratio (x) = 0.14352 0.13841
# Poissons Ratio (y) = 0.19778 0.38394
# Poissons Ratio (z) = 0.12831 0.25826
#
# Static dielectric constant tensor:
#      x y z
#    x 3.406620 0.000000 0.000000 
#    y 0.000000 2.663140 0.000000 
#    z 0.000000 0.000000 3.087080 
# 
# 
# High freq. dielectric constant tensor:
#      x y z
#    x 1.639640 0.000000 0.000000 
#    y 0.000000 1.552480 0.000000 
#    z 0.000000 0.000000 1.614660 
# 
# From -- ./inp_files/69923.got.cif
#   From: 2010.06.25/outbox.cif.g09.slc.cpg/sg71_35_cif.got.tgz:69923.got - 2010.06.28 04:59:45.
