data_PCOD8286811
_publ_section_title
;
Structure prediction by ZEFSAII (Michael W. Deem and Ramdas Pophale) SiO2 
 PCOD8286811
Probable space group: F D D D
;
_chemical_formula_sum "Si O2"
_cell_formula_units_Z 176
_cell_length_a 14.467998
_cell_length_b 18.844880
_cell_length_c 28.356998
_cell_angle_alpha 90.000000
_cell_angle_beta 90.000000
_cell_angle_gamma 90.000000
_cell_volume 7731.469891
_symmetry_space_group_name_H-M "F D D D"
_symmetry_group_IT_number 70
_space_group.IT_coordinate_system_code '2'
_symmetry_cell_setting 'orthorhombic'
loop_
_space_group_symop_operation_xyz
x,y,z
1/4-x,1/4-y,z
x,1/4-y,1/4-z
1/4-x,y,1/4-z
-x,-y,-z
3/4+x,3/4+y,-z
-x,3/4+y,3/4+z
3/4+x,-y,3/4+z
x,1/2+y,1/2+z
1/4-x,3/4-y,1/2+z
x,3/4-y,3/4-z
1/4-x,1/2+y,3/4-z
-x,1/2-y,1/2-z
3/4+x,1/4+y,1/2-z
-x,1/4+y,1/4+z
3/4+x,1/2-y,1/4+z
1/2+x,y,1/2+z
3/4-x,1/4-y,1/2+z
1/2+x,1/4-y,3/4-z
3/4-x,y,3/4-z
1/2-x,-y,1/2-z
1/4+x,3/4+y,1/2-z
1/2-x,3/4+y,1/4+z
1/4+x,-y,1/4+z
1/2+x,1/2+y,z
3/4-x,3/4-y,z
1/2+x,3/4-y,1/4-z
3/4-x,1/2+y,1/4-z
1/2-x,1/2-y,-z
1/4+x,1/4+y,-z
1/2-x,1/4+y,3/4+z
1/4+x,1/2-y,3/4+z
loop_
_atom_site_type_symbol
_atom_site_label
_atom_site_fract_x
_atom_site_fract_y
_atom_site_fract_z
Si Si1 0.996726 0.025599 0.053305
Si Si2 0.373233 0.656957 0.325670
Si Si3 0.419810 0.452056 0.196346
Si Si4 0.125000 0.125000 0.013625
Si Si5 0.976390 0.534402 0.785356
Si Si6 0.322703 0.043526 0.614205
O O1 0.049842 0.099507 0.051165
O O2 0.898897 0.045279 0.073819
O O3 0.048711 0.966912 0.083977
O O4 0.000000 0.000000 0.000000
O O5 0.375000 0.614892 0.375000
O O6 0.276810 0.694997 0.316371
O O7 0.405317 0.600720 0.286734
O O8 0.375000 0.375000 0.197298
O O9 0.423012 0.483518 0.248988
O O10 0.360165 0.501700 0.160536
O O11 0.172160 0.063688 0.981020
O O12 0.988625 0.496821 0.836878
O O13 0.293806 0.125000 0.625000
#
# Coordination Sequence:
#
# PCOD8286811 Si02
#       6
#    32  32  32  16  32  32
#     4  12  22  39  70 104 144 182 232 301 379 437
#     4  12  24  44  71 105 139 186 246 295 362 442
#     4  12  28  48  75 105 145 196 249 305 369 443
#     4  12  22  38  73 106 140 182 228 298 389 436
#     4  12  26  47  73 103 148 195 238 303 369 437
#     4  12  27  47  74 110 151 191 245 310 372 442
#
# _framework density 22.764106000000002
#
# number of rings (size 3 to 8) (size 9 to 14) (size 15 to 20)
#    0.000    0.000    7.273    2.182    3.818    0.727 
#    3.273    0.000    0.000    0.000    0.000    0.000 
#    0.000    0.000    0.000    0.000    0.000    0.000 
#
# Total GULP energy -545143.636661 kJ/mol
# GULP energy per Si atom -12389.628106 kJ/mol
# Density = 2.271229 g / cm^3
# Si number density = 22.764106 Si / 1000 Ang^3
#
#
#
# Elastic Constant Matrix: (Units=GPa)
#
#
# Indices 1 2 3 4 5 6 
#
# 1 26.1266 12.1359 20.7755 0.0000 0.0000 0.0000
# 2 12.1359 126.0320 38.1001 0.0000 0.0000 0.0000
# 3 20.7755 38.1001 107.8360 0.0000 0.0000 0.0000
# 4 0.0000 0.0000 0.0000 41.9568 0.0000 0.0000
# 5 0.0000 0.0000 0.0000 0.0000 34.3346 0.0000
# 6 0.0000 0.0000 0.0000 0.0000 0.0000 39.7925
#
#
#
# Elastic Compliance Matrix: (Units=1/GPa)
#
#
# Indices 1 2 3 4 5 6 
#
# 1 0.045621 -0.001944 -0.008103 0.000000 0.000000 0.000000
# 2 -0.001944 0.008966 -0.002793 0.000000 0.000000 0.000000
# 3 -0.008103 -0.002793 0.011821 0.000000 0.000000 0.000000
# 4 0.000000 0.000000 0.000000 0.023834 0.000000 0.000000
# 5 0.000000 0.000000 0.000000 0.000000 0.029125 0.000000
# 6 0.000000 0.000000 0.000000 0.000000 0.000000 0.025130
#
#
# Mechanical properties :
#
#
# Convention : Reuss Voigt Hill
#
# Bulk Modulus (GPa) = 24.55231 44.66864 34.61047
# Shear Modulus (GPa) = 27.21036 35.81565 31.51301
#
# Velocity S-wave (km/s) = 3.46109 3.97084 3.72469
# Velocity P-wave (km/s) = 5.17505 6.37875 5.80816
#
# Compressibility (1/GPa) = 0.04072937
#
# Stress axis : x y z
#
# Youngs Moduli (GPa) = 21.91973 111.53117 84.59276
#
# Poissons Ratio (x) = 0.21676 0.68542
# Poissons Ratio (y) = 0.04260 0.23630
# Poissons Ratio (z) = 0.17761 0.31155
#
# Static dielectric constant tensor:
#      x y z
#    x 4.223810 0.000000 0.000000 
#    y 0.000000 4.026070 0.000000 
#    z 0.000000 0.000000 4.091700 
# 
# 
# High freq. dielectric constant tensor:
#      x y z
#    x 1.886500 0.000000 0.000000 
#    y 0.000000 1.909600 0.000000 
#    z 0.000000 0.000000 1.903200 
# 
# From -- ./inp_files/35253.got.cif
#   From: 2010.03.12/outbox.cif.g09.slc.cpg/sg70_18_cif.got.tgz:35253.got - 2010.04.16 13:46:32.
