data_PCOD8286884
_publ_section_title
;
Structure prediction by ZEFSAII (Michael W. Deem and Ramdas Pophale) SiO2 
 PCOD8286884
Probable space group: I M M M
;
_chemical_formula_sum "Si O2"
_cell_formula_units_Z 104
_cell_length_a 8.621434
_cell_length_b 23.744242
_cell_length_c 37.195117
_cell_angle_alpha 90.000000
_cell_angle_beta 90.000000
_cell_angle_gamma 90.000000
_cell_volume 7614.190652
_symmetry_space_group_name_H-M "I M M M"
_symmetry_group_IT_number 71
_symmetry_cell_setting 'orthorhombic'
loop_
_space_group_symop_operation_xyz
x,y,z
-x,-y,z
x,-y,-z
-x,y,-z
-x,-y,-z
x,y,-z
-x,y,z
x,-y,z
1/2+x,1/2+y,1/2+z
1/2-x,1/2-y,1/2+z
1/2+x,1/2-y,1/2-z
1/2-x,1/2+y,1/2-z
1/2-x,1/2-y,1/2-z
1/2+x,1/2+y,1/2-z
1/2-x,1/2+y,1/2+z
1/2+x,1/2-y,1/2+z
loop_
_atom_site_type_symbol
_atom_site_label
_atom_site_fract_x
_atom_site_fract_y
_atom_site_fract_z
Si Si1 0.829553 0.000000 0.457453
Si Si2 0.818504 0.385069 0.039722
Si Si3 0.182729 0.629717 0.782698
Si Si4 0.816037 0.199812 0.774338
Si Si5 0.317493 0.729817 0.829572
Si Si6 0.180933 0.064608 0.342306
Si Si7 0.318271 0.164024 0.387793
O O1 0.743984 0.056086 0.444709
O O2 0.838920 0.000000 0.500000
O O3 0.000000 0.000000 0.439797
O O4 0.777525 0.337787 0.069513
O O5 0.000000 0.392459 0.036066
O O6 0.749051 0.369566 0.000000
O O7 0.256611 0.641023 0.743036
O O8 0.225343 0.681534 0.808463
O O9 0.255199 0.574452 0.801556
O O10 0.000000 0.623093 0.778572
O O11 0.750000 0.250000 0.750000
O O12 0.745912 0.209997 0.814577
O O13 0.000000 0.200934 0.775469
O O14 0.500000 0.725235 0.823024
O O15 0.273990 0.717947 0.871273
O O16 0.269175 0.104739 0.370154
O O17 0.000000 0.079839 0.343047
O O18 0.211606 0.000000 0.353214
O O19 0.500000 0.172737 0.381382
#
# Coordination Sequence:
#
# PCOD8286884 Si02
#       7
#     8  16  16  16  16  16  16
#     4   9  17  27  39  53  65  77  99 133 169 205
#     4   9  18  31  43  53  66  85 109 138 173 214
#     4  10  17  26  39  54  70  88 112 137 163 198
#     4  10  16  24  38  54  72  90 109 131 159 195
#     4  10  17  26  38  53  72  89 107 132 165 202
#     4  10  20  31  40  51  69  92 115 142 175 210
#     4  10  19  29  41  54  68  87 112 140 174 215
#
# _framework density 13.658707
#
# number of rings (size 3 to 8) (size 9 to 14) (size 15 to 20)
#    0.000    2.231    0.000    9.000    1.077    3.385 
#    0.000    0.000    0.000    0.000    0.000    0.000 
#    0.000    0.000    0.000    0.000    0.000    0.000 
#
# Total GULP energy -644278.776187 kJ/mol
# GULP energy per Si atom -12389.976465 kJ/mol
# Density = 1.362762 g / cm^3
# Si number density = 13.658707 Si / 1000 Ang^3
#
#
#
# Elastic Constant Matrix: (Units=GPa)
#
#
# Indices 1 2 3 4 5 6 
#
# 1 53.5858 7.3695 22.6537 0.0000 0.0000 0.0000
# 2 7.3695 11.3793 21.0046 0.0000 0.0000 0.0000
# 3 22.6537 21.0046 75.1467 0.0000 0.0000 0.0000
# 4 0.0000 0.0000 0.0000 18.6538 0.0000 0.0000
# 5 0.0000 0.0000 0.0000 0.0000 15.5336 0.0000
# 6 0.0000 0.0000 0.0000 0.0000 0.0000 15.3854
#
#
#
# Elastic Compliance Matrix: (Units=1/GPa)
#
#
# Indices 1 2 3 4 5 6 
#
# 1 0.021477 -0.004045 -0.005344 0.000000 0.000000 0.000000
# 2 -0.004045 0.182310 -0.049739 0.000000 0.000000 0.000000
# 3 -0.005344 -0.049739 0.028821 0.000000 0.000000 0.000000
# 4 0.000000 0.000000 0.000000 0.053608 0.000000 0.000000
# 5 0.000000 0.000000 0.000000 0.000000 0.064376 0.000000
# 6 0.000000 0.000000 0.000000 0.000000 0.000000 0.064997
#
#
# Mechanical properties :
#
#
# Convention : Reuss Voigt Hill
#
# Bulk Modulus (GPa) = 8.74489 26.90749 17.82619
# Shear Modulus (GPa) = 8.74182 15.85350 12.29766
#
# Velocity S-wave (km/s) = 2.53260 3.41058 3.00384
# Velocity P-wave (km/s) = 3.86891 5.93735 5.01101
#
# Compressibility (1/GPa) = 0.11435246
#
# Stress axis : x y z
#
# Youngs Moduli (GPa) = 46.56119 5.48516 34.69688
#
# Poissons Ratio (x) = 0.02219 0.18541
# Poissons Ratio (y) = 0.18835 1.72579
# Poissons Ratio (z) = 0.24881 0.27283
#
# Static dielectric constant tensor:
#      x y z
#    x 2.825680 0.000000 0.000000 
#    y 0.000000 2.833620 0.000000 
#    z 0.000000 0.000000 3.382600 
# 
# 
# High freq. dielectric constant tensor:
#      x y z
#    x 1.541320 0.000000 0.000000 
#    y 0.000000 1.456340 0.000000 
#    z 0.000000 0.000000 1.509130 
# 
# From -- ./inp_files/63909.got.cif
#   From: 2010.06.25/outbox.cif.g09.slc.cpg/sg71_32_cif.got.tgz:63909.got - 2010.06.28 04:59:45.
