data_PCOD8286070
_publ_section_title
;
Structure prediction by ZEFSAII (Michael W. Deem and Ramdas Pophale) SiO2 
 PCOD8286070
Probable space group: F D D D
;
_chemical_formula_sum "Si O2"
_cell_formula_units_Z 176
_cell_length_a 26.521123
_cell_length_b 20.220600
_cell_length_c 15.807244
_cell_angle_alpha 90.000000
_cell_angle_beta 90.000000
_cell_angle_gamma 90.000000
_cell_volume 8476.998474
_symmetry_space_group_name_H-M "F D D D"
_symmetry_group_IT_number 70
_space_group.IT_coordinate_system_code '2'
_symmetry_cell_setting 'orthorhombic'
loop_
_space_group_symop_operation_xyz
x,y,z
1/4-x,1/4-y,z
x,1/4-y,1/4-z
1/4-x,y,1/4-z
-x,-y,-z
3/4+x,3/4+y,-z
-x,3/4+y,3/4+z
3/4+x,-y,3/4+z
x,1/2+y,1/2+z
1/4-x,3/4-y,1/2+z
x,3/4-y,3/4-z
1/4-x,1/2+y,3/4-z
-x,1/2-y,1/2-z
3/4+x,1/4+y,1/2-z
-x,1/4+y,1/4+z
3/4+x,1/2-y,1/4+z
1/2+x,y,1/2+z
3/4-x,1/4-y,1/2+z
1/2+x,1/4-y,3/4-z
3/4-x,y,3/4-z
1/2-x,-y,1/2-z
1/4+x,3/4+y,1/2-z
1/2-x,3/4+y,1/4+z
1/4+x,-y,1/4+z
1/2+x,1/2+y,z
3/4-x,3/4-y,z
1/2+x,3/4-y,1/4-z
3/4-x,1/2+y,1/4-z
1/2-x,1/2-y,-z
1/4+x,1/4+y,-z
1/2-x,1/4+y,3/4+z
1/4+x,1/2-y,3/4+z
loop_
_atom_site_type_symbol
_atom_site_label
_atom_site_fract_x
_atom_site_fract_y
_atom_site_fract_z
Si Si1 0.675044 0.366566 0.734631
Si Si2 0.819342 0.060404 0.708519
Si Si3 0.474206 0.055641 0.711485
Si Si4 0.319838 0.995474 0.372229
Si Si5 0.253886 0.875000 0.875000
Si Si6 0.932045 0.750575 0.364941
O O1 0.622520 0.348429 0.780273
O O2 0.678216 0.322181 0.651136
O O3 0.719560 0.347865 0.798881
O O4 0.680913 0.442816 0.705770
O O5 0.776190 0.115462 0.721173
O O6 0.814138 0.031615 0.613275
O O7 0.806932 0.000375 0.772547
O O8 0.531654 0.041881 0.683299
O O9 0.457701 0.021502 0.797638
O O10 0.375000 0.961453 0.375000
O O11 0.287058 0.815206 0.914156
O O12 0.875000 0.774290 0.375000
#
# Coordination Sequence:
#
# PCOD8286070 Si02
#       6
#    32  32  32  32  16  32
#     4  11  21  40  62  88 118 165 218 253 302 387
#     4  10  21  38  65  89 118 164 214 259 303 383
#     4  11  20  37  63  91 120 159 209 256 320 369
#     4  10  20  38  62  91 122 156 207 263 313 371
#     4  12  25  38  60  90 124 166 207 258 330 372
#     4  12  23  41  60  90 130 163 208 268 317 380
#
# _framework density 20.762065
#
# number of rings (size 3 to 8) (size 9 to 14) (size 15 to 20)
#    0.000    1.091    5.455    3.000    0.000    0.000 
#    0.000    1.818    0.000    0.000    0.000    0.000 
#    0.000    0.000    0.000    0.000    0.000    0.000 
#
# Total GULP energy -545262.331507 kJ/mol
# GULP energy per Si atom -12392.325716 kJ/mol
# Density = 2.071481 g / cm^3
# Si number density = 20.762065 Si / 1000 Ang^3
#
#
#
# Elastic Constant Matrix: (Units=GPa)
#
#
# Indices 1 2 3 4 5 6 
#
# 1 145.7352 32.6685 33.2457 0.0000 0.0000 0.0000
# 2 32.6685 46.2165 -11.4760 0.0000 0.0000 0.0000
# 3 33.2457 -11.4760 76.1973 0.0000 0.0000 0.0000
# 4 0.0000 0.0000 0.0000 26.9811 0.0000 0.0000
# 5 0.0000 0.0000 0.0000 0.0000 35.3062 0.0000
# 6 0.0000 0.0000 0.0000 0.0000 0.0000 12.6924
#
#
#
# Elastic Compliance Matrix: (Units=1/GPa)
#
#
# Indices 1 2 3 4 5 6 
#
# 1 0.010068 -0.008526 -0.005677 0.000000 0.000000 0.000000
# 2 -0.008526 0.029699 0.008193 0.000000 0.000000 0.000000
# 3 -0.005677 0.008193 0.016835 0.000000 0.000000 0.000000
# 4 0.000000 0.000000 0.000000 0.037063 0.000000 0.000000
# 5 0.000000 0.000000 0.000000 0.000000 0.028324 0.000000
# 6 0.000000 0.000000 0.000000 0.000000 0.000000 0.078787
#
#
# Mechanical properties :
#
#
# Convention : Reuss Voigt Hill
#
# Bulk Modulus (GPa) = 22.43120 41.89172 32.16146
# Shear Modulus (GPa) = 21.96294 29.24333 25.60313
#
# Velocity S-wave (km/s) = 3.25597 3.75707 3.51546
# Velocity P-wave (km/s) = 4.99625 6.24833 5.65704
#
# Compressibility (1/GPa) = 0.04458076
#
# Stress axis : x y z
#
# Youngs Moduli (GPa) = 99.32350 33.67161 59.40120
#
# Poissons Ratio (x) = 0.28710 0.33722
# Poissons Ratio (y) = 0.84687 -0.48667
# Poissons Ratio (z) = 0.56386 -0.27587
#
# Static dielectric constant tensor:
#      x y z
#    x 3.890580 0.000000 0.000000 
#    y 0.000000 3.547220 0.000000 
#    z 0.000000 0.000000 3.939600 
# 
# 
# High freq. dielectric constant tensor:
#      x y z
#    x 1.820820 0.000000 0.000000 
#    y 0.000000 1.787120 0.000000 
#    z 0.000000 0.000000 1.821180 
# 
# From -- ./inp_files/38541.got.cif
#   From: 2010.03.12/outbox.cif.g09.slc.cpg/sg70_20_cif.got.tgz:38541.got - 2010.04.16 13:46:32.
