data_PCOD8286817
_publ_section_title
;
Structure prediction by ZEFSAII (Michael W. Deem and Ramdas Pophale) SiO2 
 PCOD8286817
Probable space group: F D D D
;
_chemical_formula_sum "Si O2"
_cell_formula_units_Z 96
_cell_length_a 30.603045
_cell_length_b 19.737683
_cell_length_c 7.139383
_cell_angle_alpha 90.000000
_cell_angle_beta 90.000000
_cell_angle_gamma 90.000000
_cell_volume 4312.424367
_symmetry_space_group_name_H-M "F D D D"
_symmetry_group_IT_number 70
_space_group.IT_coordinate_system_code '2'
_symmetry_cell_setting 'orthorhombic'
loop_
_space_group_symop_operation_xyz
x,y,z
1/4-x,1/4-y,z
x,1/4-y,1/4-z
1/4-x,y,1/4-z
-x,-y,-z
3/4+x,3/4+y,-z
-x,3/4+y,3/4+z
3/4+x,-y,3/4+z
x,1/2+y,1/2+z
1/4-x,3/4-y,1/2+z
x,3/4-y,3/4-z
1/4-x,1/2+y,3/4-z
-x,1/2-y,1/2-z
3/4+x,1/4+y,1/2-z
-x,1/4+y,1/4+z
3/4+x,1/2-y,1/4+z
1/2+x,y,1/2+z
3/4-x,1/4-y,1/2+z
1/2+x,1/4-y,3/4-z
3/4-x,y,3/4-z
1/2-x,-y,1/2-z
1/4+x,3/4+y,1/2-z
1/2-x,3/4+y,1/4+z
1/4+x,-y,1/4+z
1/2+x,1/2+y,z
3/4-x,3/4-y,z
1/2+x,3/4-y,1/4-z
3/4-x,1/2+y,1/4-z
1/2-x,1/2-y,-z
1/4+x,1/4+y,-z
1/2-x,1/4+y,3/4+z
1/4+x,1/2-y,3/4+z
loop_
_atom_site_type_symbol
_atom_site_label
_atom_site_fract_x
_atom_site_fract_y
_atom_site_fract_z
Si Si1 0.165844 0.012395 0.247402
Si Si2 0.625000 0.970749 0.125000
Si Si3 0.952758 0.627075 0.327995
Si Si4 0.769084 0.375000 0.375000
O O1 0.203166 0.068305 0.229739
O O2 0.148672 0.013199 0.461545
O O3 0.185743 0.941685 0.175928
O O4 0.125000 0.035283 0.125000
O O5 0.661743 0.924455 0.218034
O O6 0.988174 0.660158 0.468045
O O7 0.976013 0.625000 0.125000
#
# Coordination Sequence:
#
# PCOD8286817 Si02
#       4
#    32  16  32  16
#     4  12  25  47  73 105 146 189 236 296 359 426
#     4  12  22  44  79  99 132 196 250 282 346 436
#     4  12  23  43  75 104 137 191 245 288 348 429
#     4  12  29  44  68 112 156 174 234 316 357 404
#
# _framework density 22.261261000000001
#
# number of rings (size 3 to 8) (size 9 to 14) (size 15 to 20)
#    0.000    0.000    8.333    1.500    0.000    4.000 
#    0.000    1.667    0.000    0.000    0.000    0.000 
#    0.000    0.000    0.000    0.000    0.000    0.000 
#
# Total GULP energy -297520.926664 kJ/mol
# GULP energy per Si atom -12396.705278 kJ/mol
# Density = 2.221059 g / cm^3
# Si number density = 22.261261 Si / 1000 Ang^3
#
#
#
# Elastic Constant Matrix: (Units=GPa)
#
#
# Indices 1 2 3 4 5 6 
#
# 1 122.2942 47.8844 68.5551 0.0002 0.0000 0.0000
# 2 47.8844 65.3620 39.2540 -0.0007 0.0001 -0.0001
# 3 68.5551 39.2540 214.0192 -0.0016 0.0002 -0.0005
# 4 0.0002 -0.0007 -0.0016 24.7242 0.0002 -0.0002
# 5 0.0000 0.0001 0.0002 0.0002 46.8933 0.0004
# 6 0.0000 -0.0001 -0.0005 -0.0002 0.0004 21.6235
#
#
#
# Elastic Compliance Matrix: (Units=1/GPa)
#
#
# Indices 1 2 3 4 5 6 
#
# 1 0.012675 -0.007695 -0.002649 -0.000001 0.000000 0.000000
# 2 -0.007695 0.021865 -0.001545 0.000001 0.000000 0.000000
# 3 -0.002649 -0.001545 0.005804 0.000000 0.000000 0.000000
# 4 -0.000001 0.000001 0.000000 0.040446 0.000000 0.000000
# 5 0.000000 0.000000 0.000000 0.000000 0.021325 0.000000
# 6 0.000000 0.000000 0.000000 0.000000 0.000000 0.046246
#
#
# Mechanical properties :
#
#
# Convention : Reuss Voigt Hill
#
# Bulk Modulus (GPa) = 60.36476 79.22916 69.79696
# Shear Modulus (GPa) = 28.14350 35.04700 31.59525
#
# Velocity S-wave (km/s) = 3.55947 3.97211 3.77144
# Velocity P-wave (km/s) = 6.63841 7.53026 7.09835
#
# Compressibility (1/GPa) = 0.01656596
#
# Stress axis : x y z
#
# Youngs Moduli (GPa) = 78.89734 45.73554 172.28431
#
# Poissons Ratio (x) = 0.35193 0.45632
# Poissons Ratio (y) = 0.60710 0.26626
# Poissons Ratio (z) = 0.20897 0.07068
#
# Static dielectric constant tensor:
#      x y z
#    x 4.405780 0.000000 0.000000 
#    y 0.000000 3.629020 0.000000 
#    z 0.000000 0.000000 4.226090 
# 
# 
# High freq. dielectric constant tensor:
#      x y z
#    x 1.895530 0.000000 0.000000 
#    y 0.000000 1.839100 0.000000 
#    z 0.000000 0.000000 1.900310 
# 
# From -- ./inp_files/9150.got.cif
#   From: 2010.03.12/outbox.cif.g09.slc.cpg/sg70_5_cif.got.tgz:9150.got - 2010.04.16 13:46:32.
