data_PCOD8286430
_publ_section_title
;
Structure prediction by ZEFSAII (Michael W. Deem and Ramdas Pophale) SiO2 
 PCOD8286430
Probable space group: F D D D
;
_chemical_formula_sum "Si O2"
_cell_formula_units_Z 80
_cell_length_a 6.888669
_cell_length_b 16.087571
_cell_length_c 26.077765
_cell_angle_alpha 90.000000
_cell_angle_beta 90.000000
_cell_angle_gamma 90.000000
_cell_volume 2889.988812
_symmetry_space_group_name_H-M "F D D D"
_symmetry_group_IT_number 70
_space_group.IT_coordinate_system_code '2'
_symmetry_cell_setting 'orthorhombic'
loop_
_space_group_symop_operation_xyz
x,y,z
1/4-x,1/4-y,z
x,1/4-y,1/4-z
1/4-x,y,1/4-z
-x,-y,-z
3/4+x,3/4+y,-z
-x,3/4+y,3/4+z
3/4+x,-y,3/4+z
x,1/2+y,1/2+z
1/4-x,3/4-y,1/2+z
x,3/4-y,3/4-z
1/4-x,1/2+y,3/4-z
-x,1/2-y,1/2-z
3/4+x,1/4+y,1/2-z
-x,1/4+y,1/4+z
3/4+x,1/2-y,1/4+z
1/2+x,y,1/2+z
3/4-x,1/4-y,1/2+z
1/2+x,1/4-y,3/4-z
3/4-x,y,3/4-z
1/2-x,-y,1/2-z
1/4+x,3/4+y,1/2-z
1/2-x,3/4+y,1/4+z
1/4+x,-y,1/4+z
1/2+x,1/2+y,z
3/4-x,3/4-y,z
1/2+x,3/4-y,1/4-z
3/4-x,1/2+y,1/4-z
1/2-x,1/2-y,-z
1/4+x,1/4+y,-z
1/2-x,1/4+y,3/4+z
1/4+x,1/2-y,3/4+z
loop_
_atom_site_type_symbol
_atom_site_label
_atom_site_fract_x
_atom_site_fract_y
_atom_site_fract_z
Si Si1 0.625000 0.982498 0.125000
Si Si2 0.348781 0.612424 0.960035
Si Si3 0.769551 0.688637 0.183565
O O1 0.800075 0.039521 0.146434
O O2 0.538596 0.922793 0.170018
O O3 0.373838 0.514736 0.949268
O O4 0.125000 0.625000 0.949171
O O5 0.402190 0.641790 0.016300
O O6 0.625000 0.625000 0.154760
#
# Coordination Sequence:
#
# PCOD8286430 Si02
#       3
#    16  32  32
#     4  10  22  44  72 112 160 202 250 308 377 464
#     4  10  22  46  76 109 153 200 245 316 392 458
#     4  11  24  47  79 115 153 199 252 315 386 458
#
# _framework density 27.681767000000001
#
# number of rings (size 3 to 8) (size 9 to 14) (size 15 to 20)
#    0.000    1.600    0.000    6.000    0.000    4.800 
#    0.000   38.000    0.000    0.000    0.000    2.800 
#    0.000    0.000    0.000    0.000    0.000    0.000 
#
# Total GULP energy -247789.795676 kJ/mol
# GULP energy per Si atom -12389.489784 kJ/mol
# Density = 2.761876 g / cm^3
# Si number density = 27.681767 Si / 1000 Ang^3
#
#
#
# Elastic Constant Matrix: (Units=GPa)
#
#
# Indices 1 2 3 4 5 6 
#
# 1 128.6745 108.2265 71.0851 0.0000 0.0000 0.0000
# 2 108.2265 242.4474 85.4760 0.0000 0.0000 0.0000
# 3 71.0851 85.4760 201.5363 0.0000 0.0000 0.0000
# 4 0.0000 0.0000 0.0000 69.8674 0.0000 0.0000
# 5 0.0000 0.0000 0.0000 0.0000 12.3601 0.0000
# 6 0.0000 0.0000 0.0000 0.0000 0.0000 50.5767
#
#
#
# Elastic Compliance Matrix: (Units=1/GPa)
#
#
# Indices 1 2 3 4 5 6 
#
# 1 0.013507 -0.005114 -0.002595 0.000000 0.000000 0.000000
# 2 -0.005114 0.006786 -0.001074 0.000000 0.000000 0.000000
# 3 -0.002595 -0.001074 0.006333 0.000000 0.000000 0.000000
# 4 0.000000 0.000000 0.000000 0.014313 0.000000 0.000000
# 5 0.000000 0.000000 0.000000 0.000000 0.080906 0.000000
# 6 0.000000 0.000000 0.000000 0.000000 0.000000 0.019772
#
#
# Mechanical properties :
#
#
# Convention : Reuss Voigt Hill
#
# Bulk Modulus (GPa) = 110.39202 122.47037 116.43120
# Shear Modulus (GPa) = 30.82551 47.08553 38.95552
#
# Velocity S-wave (km/s) = 3.34064 4.12874 3.75542
# Velocity P-wave (km/s) = 7.40576 8.18944 7.80744
#
# Compressibility (1/GPa) = 0.00905863
#
# Stress axis : x y z
#
# Youngs Moduli (GPa) = 74.03675 147.35301 157.90831
#
# Poissons Ratio (x) = 0.75363 0.40976
# Poissons Ratio (y) = 0.37866 0.16964
# Poissons Ratio (z) = 0.19212 0.15830
#
# Static dielectric constant tensor:
#      x y z
#    x 5.703800 0.000000 0.000000 
#    y 0.000000 7.038290 0.000000 
#    z 0.000000 0.000000 5.069410 
# 
# 
# High freq. dielectric constant tensor:
#      x y z
#    x 2.113760 0.000000 0.000000 
#    y 0.000000 2.138350 0.000000 
#    z 0.000000 0.000000 2.156990 
# 
# From -- ./inp_files/39141.got.cif
#   From: 2010.03.12/outbox.cif.g09.slc.cpg/sg70_20_cif.got.tgz:39141.got - 2010.04.16 13:46:32.
