data_PCOD8286071
_publ_section_title
;
Structure prediction by ZEFSAII (Michael W. Deem and Ramdas Pophale) SiO2 
 PCOD8286071
Probable space group: F D D D
;
_chemical_formula_sum "Si O2"
_cell_formula_units_Z 192
_cell_length_a 27.439857
_cell_length_b 10.469457
_cell_length_c 29.421867
_cell_angle_alpha 90.000000
_cell_angle_beta 90.000000
_cell_angle_gamma 90.000000
_cell_volume 8452.325807
_symmetry_space_group_name_H-M "F D D D"
_symmetry_group_IT_number 70
_space_group.IT_coordinate_system_code '2'
_symmetry_cell_setting 'orthorhombic'
loop_
_space_group_symop_operation_xyz
x,y,z
1/4-x,1/4-y,z
x,1/4-y,1/4-z
1/4-x,y,1/4-z
-x,-y,-z
3/4+x,3/4+y,-z
-x,3/4+y,3/4+z
3/4+x,-y,3/4+z
x,1/2+y,1/2+z
1/4-x,3/4-y,1/2+z
x,3/4-y,3/4-z
1/4-x,1/2+y,3/4-z
-x,1/2-y,1/2-z
3/4+x,1/4+y,1/2-z
-x,1/4+y,1/4+z
3/4+x,1/2-y,1/4+z
1/2+x,y,1/2+z
3/4-x,1/4-y,1/2+z
1/2+x,1/4-y,3/4-z
3/4-x,y,3/4-z
1/2-x,-y,1/2-z
1/4+x,3/4+y,1/2-z
1/2-x,3/4+y,1/4+z
1/4+x,-y,1/4+z
1/2+x,1/2+y,z
3/4-x,3/4-y,z
1/2+x,3/4-y,1/4-z
3/4-x,1/2+y,1/4-z
1/2-x,1/2-y,-z
1/4+x,1/4+y,-z
1/2-x,1/4+y,3/4+z
1/4+x,1/2-y,3/4+z
loop_
_atom_site_type_symbol
_atom_site_label
_atom_site_fract_x
_atom_site_fract_y
_atom_site_fract_z
Si Si1 0.729782 0.904889 0.786300
Si Si2 0.026695 0.955161 0.271255
Si Si3 0.374207 0.674187 0.729754
Si Si4 0.125000 0.625000 0.053607
Si Si5 0.625000 0.125000 0.344743
Si Si6 0.775054 0.287080 0.913789
Si Si7 0.525437 0.149850 0.855262
O O1 0.751195 0.764026 0.774337
O O2 0.671364 0.911327 0.783919
O O3 0.750000 0.000000 0.750000
O O4 0.742753 0.961052 0.836545
O O5 0.080777 0.915214 0.255587
O O6 0.997867 0.826477 0.287422
O O7 0.026807 0.055103 0.312290
O O8 0.355454 0.760890 0.771723
O O9 0.391627 0.756874 0.686583
O O10 0.167186 0.686097 0.084708
O O11 0.579559 0.084971 0.375291
O O12 0.750853 0.375000 0.875000
O O13 0.761267 0.144528 0.896039
#
# Coordination Sequence:
#
# PCOD8286071 Si02
#       7
#    32  32  32  16  16  32  32
#     4  10  22  40  61  89 130 172 219 271 342 408
#     4  10  20  39  62  90 129 171 219 269 336 408
#     4  11  23  37  61  93 128 172 216 276 341 402
#     4  11  23  38  61  94 128 168 222 272 330 399
#     4  11  22  36  59  98 129 160 224 285 334 403
#     4  10  20  38  62  91 124 169 221 273 330 389
#     4  10  21  36  62  92 129 169 217 281 339 390
#
# _framework density 22.71564
#
# number of rings (size 3 to 8) (size 9 to 14) (size 15 to 20)
#    0.000    1.667    3.333    1.250    0.000    6.000 
#    0.000    0.000    0.000    0.000    0.000    0.000 
#    0.000    0.000    0.000    0.000    0.000    0.000 
#
# Total GULP energy -594800.958466 kJ/mol
# GULP energy per Si atom -12391.686635 kJ/mol
# Density = 2.266394 g / cm^3
# Si number density = 22.715640 Si / 1000 Ang^3
#
#
#
# Elastic Constant Matrix: (Units=GPa)
#
#
# Indices 1 2 3 4 5 6 
#
# 1 142.2234 59.2460 45.1063 0.0000 0.0000 0.0000
# 2 59.2460 79.9182 69.7443 0.0000 0.0000 0.0000
# 3 45.1063 69.7443 103.8216 0.0000 0.0000 0.0000
# 4 0.0000 0.0000 0.0000 55.5458 0.0000 0.0000
# 5 0.0000 0.0000 0.0000 0.0000 34.3008 0.0000
# 6 0.0000 0.0000 0.0000 0.0000 0.0000 36.9790
#
#
#
# Elastic Compliance Matrix: (Units=1/GPa)
#
#
# Indices 1 2 3 4 5 6 
#
# 1 0.010279 -0.008998 0.001579 0.000000 0.000000 0.000000
# 2 -0.008998 0.038119 -0.021698 0.000000 0.000000 0.000000
# 3 0.001579 -0.021698 0.023522 0.000000 0.000000 0.000000
# 4 0.000000 0.000000 0.000000 0.018003 0.000000 0.000000
# 5 0.000000 0.000000 0.000000 0.000000 0.029154 0.000000
# 6 0.000000 0.000000 0.000000 0.000000 0.000000 0.027042
#
#
# Mechanical properties :
#
#
# Convention : Reuss Voigt Hill
#
# Bulk Modulus (GPa) = 73.06897 74.90625 73.98761
# Shear Modulus (GPa) = 23.93325 35.48956 29.71141
#
# Velocity S-wave (km/s) = 3.24945 3.95693 3.62051
# Velocity P-wave (km/s) = 6.80553 7.34327 7.07951
#
# Compressibility (1/GPa) = 0.01368570
#
# Stress axis : x y z
#
# Youngs Moduli (GPa) = 97.28914 26.23387 42.51326
#
# Poissons Ratio (x) = 0.23604 -0.06711
# Poissons Ratio (y) = 0.87537 0.92245
# Poissons Ratio (z) = -0.15359 0.56922
#
# Static dielectric constant tensor:
#      x y z
#    x 3.760940 0.000000 0.000000 
#    y 0.000000 4.497230 0.000000 
#    z 0.000000 0.000000 4.440190 
# 
# 
# High freq. dielectric constant tensor:
#      x y z
#    x 1.884960 0.000000 0.000000 
#    y 0.000000 1.888650 0.000000 
#    z 0.000000 0.000000 1.902900 
# 
# From -- ./inp_files/68410.got.cif
#   From: 2010.03.12/outbox.cif.g09.slc.cpg/sg70_35_cif.got.tgz:68410.got - 2010.04.16 13:46:32.
