data_PCOD8286644
_publ_section_title
;
Structure prediction by ZEFSAII (Michael W. Deem and Ramdas Pophale) SiO2 
 PCOD8286644
Probable space group: F D D D
;
_chemical_formula_sum "Si O2"
_cell_formula_units_Z 128
_cell_length_a 26.436426
_cell_length_b 29.297696
_cell_length_c 8.312251
_cell_angle_alpha 90.000000
_cell_angle_beta 90.000000
_cell_angle_gamma 90.000000
_cell_volume 6438.057612
_symmetry_space_group_name_H-M "F D D D"
_symmetry_group_IT_number 70
_space_group.IT_coordinate_system_code '2'
_symmetry_cell_setting 'orthorhombic'
loop_
_space_group_symop_operation_xyz
x,y,z
1/4-x,1/4-y,z
x,1/4-y,1/4-z
1/4-x,y,1/4-z
-x,-y,-z
3/4+x,3/4+y,-z
-x,3/4+y,3/4+z
3/4+x,-y,3/4+z
x,1/2+y,1/2+z
1/4-x,3/4-y,1/2+z
x,3/4-y,3/4-z
1/4-x,1/2+y,3/4-z
-x,1/2-y,1/2-z
3/4+x,1/4+y,1/2-z
-x,1/4+y,1/4+z
3/4+x,1/2-y,1/4+z
1/2+x,y,1/2+z
3/4-x,1/4-y,1/2+z
1/2+x,1/4-y,3/4-z
3/4-x,y,3/4-z
1/2-x,-y,1/2-z
1/4+x,3/4+y,1/2-z
1/2-x,3/4+y,1/4+z
1/4+x,-y,1/4+z
1/2+x,1/2+y,z
3/4-x,3/4-y,z
1/2+x,3/4-y,1/4-z
3/4-x,1/2+y,1/4-z
1/2-x,1/2-y,-z
1/4+x,1/4+y,-z
1/2-x,1/4+y,3/4+z
1/4+x,1/2-y,3/4+z
loop_
_atom_site_type_symbol
_atom_site_label
_atom_site_fract_x
_atom_site_fract_y
_atom_site_fract_z
Si Si1 0.197945 0.074644 0.569243
Si Si2 0.899080 0.309643 0.614575
Si Si3 0.481802 0.048175 0.435190
Si Si4 0.875000 0.231332 0.375000
Si Si5 0.209134 0.125000 0.125000
O O1 0.210902 0.125000 0.625000
O O2 0.155209 0.077430 0.428850
O O3 0.182029 0.046986 0.728259
O O4 0.247923 0.051678 0.497450
O O5 0.893315 0.262604 0.521235
O O6 0.923720 0.347856 0.499898
O O7 0.503736 0.089617 0.538300
O O8 0.500000 0.000000 0.500000
O O9 0.420965 0.050725 0.433028
#
# Coordination Sequence:
#
# PCOD8286644 Si02
#       5
#    32  32  32  16  16
#     4  11  23  38  67 106 132 163 224 291 346 400
#     4  11  22  37  71 102 127 169 224 292 340 401
#     4  12  25  46  68 100 137 181 229 281 353 419
#     4  12  26  45  68  96 140 180 228 284 343 426
#     4  12  24  43  70  98 136 184 226 285 348 418
#
# _framework density 19.881772000000002
#
# number of rings (size 3 to 8) (size 9 to 14) (size 15 to 20)
#    0.000    0.500    7.500    1.500    3.500    2.000 
#    2.250    0.000    0.000    0.000    0.000    0.000 
#    0.000    0.000    0.000    0.000    0.000    0.000 
#
# Total GULP energy -396772.937744 kJ/mol
# GULP energy per Si atom -12399.154304 kJ/mol
# Density = 1.983652 g / cm^3
# Si number density = 19.881772 Si / 1000 Ang^3
#
#
#
# Elastic Constant Matrix: (Units=GPa)
#
#
# Indices 1 2 3 4 5 6 
#
# 1 133.4700 56.3051 50.7577 -0.3070 0.3561 0.3220
# 2 56.3051 87.4833 44.6066 -0.1447 0.1929 0.2110
# 3 50.7577 44.6066 116.3362 -0.2912 0.4010 0.2914
# 4 -0.3070 -0.1447 -0.2912 40.6702 0.2131 0.2284
# 5 0.3561 0.1929 0.4010 0.2131 33.1374 -0.2267
# 6 0.3220 0.2110 0.2914 0.2284 -0.2267 34.8816
#
#
#
# Elastic Compliance Matrix: (Units=1/GPa)
#
#
# Indices 1 2 3 4 5 6 
#
# 1 0.010865 -0.005688 -0.002559 0.000044 -0.000053 -0.000045
# 2 -0.005688 0.017186 -0.004108 -0.000011 0.000011 -0.000017
# 3 -0.002559 -0.004108 0.011288 0.000048 -0.000086 -0.000047
# 4 0.000044 -0.000011 0.000048 0.024590 -0.000160 -0.000163
# 5 -0.000053 0.000011 -0.000086 -0.000160 0.030181 0.000198
# 6 -0.000045 -0.000017 -0.000047 -0.000163 0.000198 0.028672
#
#
# Mechanical properties :
#
#
# Convention : Reuss Voigt Hill
#
# Bulk Modulus (GPa) = 68.35631 71.18090 69.76861
# Shear Modulus (GPa) = 32.81490 34.11252 33.46371
#
# Velocity S-wave (km/s) = 4.06704 4.14668 4.10705
# Velocity P-wave (km/s) = 7.51735 7.66853 7.59332
#
# Compressibility (1/GPa) = 0.01462923
#
# Stress axis : x y z
#
# Youngs Moduli (GPa) = 92.03528 58.18644 88.58889
#
# Poissons Ratio (x) = 0.33095 0.22673
# Poissons Ratio (y) = 0.52348 0.36393
# Poissons Ratio (z) = 0.23555 0.23903
#
# Static dielectric constant tensor:
#      x y z
#    x 3.818090 -0.000010 0.000160 
#    y -0.000010 3.541310 -0.000180 
#    z 0.000160 -0.000180 4.423030 
# 
# 
# High freq. dielectric constant tensor:
#      x y z
#    x 1.768050 0.000000 0.000010 
#    y 0.000000 1.758410 -0.000010 
#    z 0.000010 -0.000010 1.799310 
# 
# From -- ./inp_files/11065.got.cif
#   From: 2010.03.12/outbox.cif.g09.slc.cpg/sg70_6_cif.got.tgz:11065.got - 2010.04.16 13:46:32.
