data_PCOD8286629
_publ_section_title
;
Structure prediction by ZEFSAII (Michael W. Deem and Ramdas Pophale) SiO2 
 PCOD8286629
Probable space group: F D D D
;
_chemical_formula_sum "Si O2"
_cell_formula_units_Z 160
_cell_length_a 23.658315
_cell_length_b 23.181087
_cell_length_c 13.873612
_cell_angle_alpha 90.000000
_cell_angle_beta 90.000000
_cell_angle_gamma 90.000000
_cell_volume 7608.642019
_symmetry_space_group_name_H-M "F D D D"
_symmetry_group_IT_number 70
_space_group.IT_coordinate_system_code '2'
_symmetry_cell_setting 'orthorhombic'
loop_
_space_group_symop_operation_xyz
x,y,z
1/4-x,1/4-y,z
x,1/4-y,1/4-z
1/4-x,y,1/4-z
-x,-y,-z
3/4+x,3/4+y,-z
-x,3/4+y,3/4+z
3/4+x,-y,3/4+z
x,1/2+y,1/2+z
1/4-x,3/4-y,1/2+z
x,3/4-y,3/4-z
1/4-x,1/2+y,3/4-z
-x,1/2-y,1/2-z
3/4+x,1/4+y,1/2-z
-x,1/4+y,1/4+z
3/4+x,1/2-y,1/4+z
1/2+x,y,1/2+z
3/4-x,1/4-y,1/2+z
1/2+x,1/4-y,3/4-z
3/4-x,y,3/4-z
1/2-x,-y,1/2-z
1/4+x,3/4+y,1/2-z
1/2-x,3/4+y,1/4+z
1/4+x,-y,1/4+z
1/2+x,1/2+y,z
3/4-x,3/4-y,z
1/2+x,3/4-y,1/4-z
3/4-x,1/2+y,1/4-z
1/2-x,1/2-y,-z
1/4+x,1/4+y,-z
1/2-x,1/4+y,3/4+z
1/4+x,1/2-y,3/4+z
loop_
_atom_site_type_symbol
_atom_site_label
_atom_site_fract_x
_atom_site_fract_y
_atom_site_fract_z
Si Si1 0.980488 0.620568 0.919008
Si Si2 0.851047 0.705357 0.539172
Si Si3 0.830409 0.926210 0.281256
Si Si4 0.755161 0.529765 0.557599
Si Si5 0.220177 0.340915 0.784367
O O1 0.971407 0.634112 0.806150
O O2 0.037785 0.585291 0.943271
O O3 0.928382 0.582766 0.956958
O O4 0.984476 0.682869 0.963961
O O5 0.866891 0.767338 0.494165
O O6 0.811720 0.714878 0.630589
O O7 0.908153 0.674773 0.573095
O O8 0.875000 0.875000 0.297907
O O9 0.954476 0.941244 0.370408
O O10 0.748230 0.465842 0.514466
O O11 0.250111 0.375000 0.875000
#
# Coordination Sequence:
#
# PCOD8286629 Si02
#       5
#    32  32  32  32  32
#     4  11  22  39  63  93 131 167 212 276 330 392
#     4  11  21  40  65  97 132 168 216 276 345 396
#     4  11  21  38  66 101 129 162 211 280 345 382
#     4  11  23  42  63  98 135 170 222 281 331 398
#     4  12  25  41  63  93 130 182 222 267 332 399
#
# _framework density 21.028718999999999
#
# number of rings (size 3 to 8) (size 9 to 14) (size 15 to 20)
#    0.000    0.800    4.000    6.600    0.000    5.600 
#    0.000    0.000    0.000    0.600    0.000    0.000 
#    0.000    0.000    0.000    0.000    0.000    0.000 
#
# Total GULP energy -495590.109314 kJ/mol
# GULP energy per Si atom -12389.752733 kJ/mol
# Density = 2.098086 g / cm^3
# Si number density = 21.028719 Si / 1000 Ang^3
#
#
#
# Elastic Constant Matrix: (Units=GPa)
#
#
# Indices 1 2 3 4 5 6 
#
# 1 39.3563 -2.2510 21.0341 0.0000 0.0000 0.0000
# 2 -2.2510 72.9918 49.4371 0.0000 0.0000 0.0000
# 3 21.0341 49.4371 160.0194 0.0000 0.0000 0.0000
# 4 0.0000 0.0000 0.0000 42.1375 0.0000 0.0000
# 5 0.0000 0.0000 0.0000 0.0000 28.4573 0.0000
# 6 0.0000 0.0000 0.0000 0.0000 0.0000 27.3565
#
#
#
# Elastic Compliance Matrix: (Units=1/GPa)
#
#
# Indices 1 2 3 4 5 6 
#
# 1 0.028357 0.004298 -0.005055 0.000000 0.000000 0.000000
# 2 0.004298 0.017977 -0.006119 0.000000 0.000000 0.000000
# 3 -0.005055 -0.006119 0.008804 0.000000 0.000000 0.000000
# 4 0.000000 0.000000 0.000000 0.023732 0.000000 0.000000
# 5 0.000000 0.000000 0.000000 0.000000 0.035140 0.000000
# 6 0.000000 0.000000 0.000000 0.000000 0.000000 0.036554
#
#
# Mechanical properties :
#
#
# Convention : Reuss Voigt Hill
#
# Bulk Modulus (GPa) = 24.16265 45.42309 34.79287
# Shear Modulus (GPa) = 28.07231 33.20008 30.63620
#
# Velocity S-wave (km/s) = 3.65766 3.97772 3.82104
# Velocity P-wave (km/s) = 5.41786 6.53787 6.00404
#
# Compressibility (1/GPa) = 0.04138619
#
# Stress axis : x y z
#
# Youngs Moduli (GPa) = 35.26515 55.62641 113.58255
#
# Poissons Ratio (x) = -0.23911 0.57420
# Poissons Ratio (y) = -0.15159 0.69500
# Poissons Ratio (z) = 0.17828 0.34037
#
# Static dielectric constant tensor:
#      x y z
#    x 3.862940 0.000000 0.000000 
#    y 0.000000 4.069050 0.000000 
#    z 0.000000 0.000000 4.020110 
# 
# 
# High freq. dielectric constant tensor:
#      x y z
#    x 1.807840 0.000000 0.000000 
#    y 0.000000 1.837090 0.000000 
#    z 0.000000 0.000000 1.818540 
# 
# From -- ./inp_files/28659.got.cif
#   From: 2010.03.12/outbox.cif.g09.slc.cpg/sg70_15_cif.got.tgz:28659.got - 2010.04.16 13:46:32.
