data_PCOD8286519
_publ_section_title
;
Structure prediction by ZEFSAII (Michael W. Deem and Ramdas Pophale) SiO2 
 PCOD8286519
Probable space group: F D D D
;
_chemical_formula_sum "Si O2"
_cell_formula_units_Z 112
_cell_length_a 12.479098
_cell_length_b 16.893575
_cell_length_c 24.319575
_cell_angle_alpha 90.000000
_cell_angle_beta 90.000000
_cell_angle_gamma 90.000000
_cell_volume 5126.969580
_symmetry_space_group_name_H-M "F D D D"
_symmetry_group_IT_number 70
_space_group.IT_coordinate_system_code '2'
_symmetry_cell_setting 'orthorhombic'
loop_
_space_group_symop_operation_xyz
x,y,z
1/4-x,1/4-y,z
x,1/4-y,1/4-z
1/4-x,y,1/4-z
-x,-y,-z
3/4+x,3/4+y,-z
-x,3/4+y,3/4+z
3/4+x,-y,3/4+z
x,1/2+y,1/2+z
1/4-x,3/4-y,1/2+z
x,3/4-y,3/4-z
1/4-x,1/2+y,3/4-z
-x,1/2-y,1/2-z
3/4+x,1/4+y,1/2-z
-x,1/4+y,1/4+z
3/4+x,1/2-y,1/4+z
1/2+x,y,1/2+z
3/4-x,1/4-y,1/2+z
1/2+x,1/4-y,3/4-z
3/4-x,y,3/4-z
1/2-x,-y,1/2-z
1/4+x,3/4+y,1/2-z
1/2-x,3/4+y,1/4+z
1/4+x,-y,1/4+z
1/2+x,1/2+y,z
3/4-x,3/4-y,z
1/2+x,3/4-y,1/4-z
3/4-x,1/2+y,1/4-z
1/2-x,1/2-y,-z
1/4+x,1/4+y,-z
1/2-x,1/4+y,3/4+z
1/4+x,1/2-y,3/4+z
loop_
_atom_site_type_symbol
_atom_site_label
_atom_site_fract_x
_atom_site_fract_y
_atom_site_fract_z
Si Si1 0.125000 0.311108 0.625000
Si Si2 0.240829 0.090223 0.464254
Si Si3 0.550646 0.946946 0.831982
Si Si4 0.757990 0.282404 0.366774
O O1 0.196486 0.361412 0.582763
O O2 0.202049 0.256408 0.661791
O O3 0.125000 0.125000 0.476124
O O4 0.305107 0.089822 0.521169
O O5 0.224357 0.999236 0.443529
O O6 0.541631 0.875000 0.875000
O O7 0.663346 0.994421 0.841275
O O8 0.768926 0.375000 0.375000
O O9 0.875000 0.242825 0.375000
#
# Coordination Sequence:
#
# PCOD8286519 Si02
#       4
#    16  32  32  32
#     4  12  25  44  73 108 134 186 238 282 357 416
#     4  12  25  45  72 103 145 181 233 298 341 419
#     4  11  26  44  71 105 139 182 232 290 357 408
#     4  10  23  46  67  99 141 184 230 278 349 418
#
# _framework density 21.845264
#
# number of rings (size 3 to 8) (size 9 to 14) (size 15 to 20)
#    0.000    0.857    4.286    2.143    8.000    3.429 
#    0.000    0.000    0.000    0.000    0.000    0.000 
#    0.000    0.000    0.000    0.000    0.000    0.000 
#
# Total GULP energy -346871.402851 kJ/mol
# GULP energy per Si atom -12388.264388 kJ/mol
# Density = 2.179554 g / cm^3
# Si number density = 21.845264 Si / 1000 Ang^3
#
#
#
# Elastic Constant Matrix: (Units=GPa)
#
#
# Indices 1 2 3 4 5 6 
#
# 1 165.4415 19.3647 49.4362 0.0000 0.0000 0.0000
# 2 19.3647 75.2839 43.0508 0.0000 0.0000 0.0000
# 3 49.4362 43.0508 164.3443 0.0000 0.0000 0.0000
# 4 0.0000 0.0000 0.0000 35.6025 0.0000 0.0000
# 5 0.0000 0.0000 0.0000 0.0000 28.5969 0.0000
# 6 0.0000 0.0000 0.0000 0.0000 0.0000 16.8300
#
#
#
# Elastic Compliance Matrix: (Units=1/GPa)
#
#
# Indices 1 2 3 4 5 6 
#
# 1 0.006670 -0.000668 -0.001831 0.000000 0.000000 0.000000
# 2 -0.000668 0.015690 -0.003909 0.000000 0.000000 0.000000
# 3 -0.001831 -0.003909 0.007660 0.000000 0.000000 0.000000
# 4 0.000000 0.000000 0.000000 0.028088 0.000000 0.000000
# 5 0.000000 0.000000 0.000000 0.000000 0.034969 0.000000
# 6 0.000000 0.000000 0.000000 0.000000 0.000000 0.059418
#
#
# Mechanical properties :
#
#
# Convention : Reuss Voigt Hill
#
# Bulk Modulus (GPa) = 58.13171 69.86370 63.99771
# Shear Modulus (GPa) = 29.23185 35.75373 32.49279
#
# Velocity S-wave (km/s) = 3.66202 4.04998 3.86088
# Velocity P-wave (km/s) = 6.67450 7.34305 7.01674
#
# Compressibility (1/GPa) = 0.01720232
#
# Stress axis : x y z
#
# Youngs Moduli (GPa) = 149.92774 63.73323 130.55419
#
# Poissons Ratio (x) = 0.04260 0.23908
# Poissons Ratio (y) = 0.10022 0.51035
# Poissons Ratio (z) = 0.27456 0.24914
#
# Static dielectric constant tensor:
#      x y z
#    x 5.159400 0.000000 0.000000 
#    y 0.000000 4.019700 0.000000 
#    z 0.000000 0.000000 3.818860 
# 
# 
# High freq. dielectric constant tensor:
#      x y z
#    x 1.888960 0.000000 0.000000 
#    y 0.000000 1.860880 0.000000 
#    z 0.000000 0.000000 1.845520 
# 
# From -- ./inp_files/16285.got.cif
#   From: 2010.03.12/outbox.cif.g09.slc.cpg/sg70_9_cif.got.tgz:16285.got - 2010.04.16 13:46:32.
