data_PCOD8286118
_publ_section_title
;
Structure prediction by ZEFSAII (Michael W. Deem and Ramdas Pophale) SiO2 
 PCOD8286118
Probable space group: F D D D
;
_chemical_formula_sum "Si O2"
_cell_formula_units_Z 192
_cell_length_a 34.054018
_cell_length_b 23.793804
_cell_length_c 10.541815
_cell_angle_alpha 90.000000
_cell_angle_beta 90.000000
_cell_angle_gamma 90.000000
_cell_volume 8541.765246
_symmetry_space_group_name_H-M "F D D D"
_symmetry_group_IT_number 70
_space_group.IT_coordinate_system_code '2'
_symmetry_cell_setting 'orthorhombic'
loop_
_space_group_symop_operation_xyz
x,y,z
1/4-x,1/4-y,z
x,1/4-y,1/4-z
1/4-x,y,1/4-z
-x,-y,-z
3/4+x,3/4+y,-z
-x,3/4+y,3/4+z
3/4+x,-y,3/4+z
x,1/2+y,1/2+z
1/4-x,3/4-y,1/2+z
x,3/4-y,3/4-z
1/4-x,1/2+y,3/4-z
-x,1/2-y,1/2-z
3/4+x,1/4+y,1/2-z
-x,1/4+y,1/4+z
3/4+x,1/2-y,1/4+z
1/2+x,y,1/2+z
3/4-x,1/4-y,1/2+z
1/2+x,1/4-y,3/4-z
3/4-x,y,3/4-z
1/2-x,-y,1/2-z
1/4+x,3/4+y,1/2-z
1/2-x,3/4+y,1/4+z
1/4+x,-y,1/4+z
1/2+x,1/2+y,z
3/4-x,3/4-y,z
1/2+x,3/4-y,1/4-z
3/4-x,1/2+y,1/4-z
1/2-x,1/2-y,-z
1/4+x,1/4+y,-z
1/2-x,1/4+y,3/4+z
1/4+x,1/2-y,3/4+z
loop_
_atom_site_type_symbol
_atom_site_label
_atom_site_fract_x
_atom_site_fract_y
_atom_site_fract_z
Si Si1 0.125000 0.931519 0.625000
Si Si2 0.991651 0.740068 0.898488
Si Si3 0.678564 0.903550 0.505680
Si Si4 0.682163 0.682901 0.820588
Si Si5 0.309780 0.427131 0.041079
Si Si6 0.125000 0.125000 0.125000
Si Si7 0.625000 0.125000 0.125000
Si Si8 0.368455 0.242741 0.627915
O O1 0.086019 0.894654 0.600279
O O2 0.134083 0.970342 0.505785
O O3 0.000000 0.750000 0.750000
O O4 0.031800 0.722589 0.970999
O O5 0.960742 0.690145 0.921376
O O6 0.976605 0.798271 0.960943
O O7 0.694913 0.875000 0.375000
O O8 0.639959 0.941593 0.473701
O O9 0.702933 0.629477 0.887719
O O10 0.653384 0.664470 0.707467
O O11 0.654481 0.716450 0.922201
O O12 0.326997 0.473437 0.139866
O O13 0.347400 0.416162 0.954259
#
# Coordination Sequence:
#
# PCOD8286118 Si02
#       8
#    16  32  32  32  32   8   8  32
#     4  10  21  39  67  94 135 180 231 291 342 428
#     4  11  27  42  67 103 147 188 237 298 380 431
#     4   9  22  42  65  99 140 188 233 291 365 438
#     4  12  24  44  69 107 142 186 238 311 350 436
#     4  11  23  42  69 103 138 181 240 295 359 432
#     4  12  18  38  76  90 134 182 232 296 344 418
#     4  12  24  44  76 106 142 194 258 298 358 432
#     4  10  20  39  67  98 129 181 240 279 351 420
#
# _framework density 22.477789000000001
#
# number of rings (size 3 to 8) (size 9 to 14) (size 15 to 20)
#    0.000    1.333    3.333    1.500    3.500    2.667 
#    0.000    0.833    0.000    0.000    0.000    0.000 
#    0.000    0.000    0.000    0.000    0.000    0.000 
#
# Total GULP energy -594926.523914 kJ/mol
# GULP energy per Si atom -12394.302582 kJ/mol
# Density = 2.242663 g / cm^3
# Si number density = 22.477789 Si / 1000 Ang^3
#
#
#
# Elastic Constant Matrix: (Units=GPa)
#
#
# Indices 1 2 3 4 5 6 
#
# 1 136.6441 59.6809 59.7224 0.0002 0.0000 0.0000
# 2 59.6809 123.7921 51.8814 0.0008 -0.0002 0.0000
# 3 59.7224 51.8814 107.6173 0.0023 -0.0001 -0.0002
# 4 0.0002 0.0008 0.0023 18.8927 -0.0002 -0.0001
# 5 0.0000 -0.0002 -0.0001 -0.0002 29.5596 0.0000
# 6 0.0000 0.0000 -0.0002 -0.0001 0.0000 49.8799
#
#
#
# Elastic Compliance Matrix: (Units=1/GPa)
#
#
# Indices 1 2 3 4 5 6 
#
# 1 0.010656 -0.003332 -0.004307 0.000001 0.000000 0.000000
# 2 -0.003332 0.011165 -0.003534 0.000000 0.000000 0.000000
# 3 -0.004307 -0.003534 0.013386 -0.000001 0.000000 0.000000
# 4 0.000001 0.000000 -0.000001 0.052930 0.000000 0.000000
# 5 0.000000 0.000000 0.000000 0.000000 0.033830 0.000000
# 6 0.000000 0.000000 0.000000 0.000000 0.000000 0.020048
#
#
# Mechanical properties :
#
#
# Convention : Reuss Voigt Hill
#
# Bulk Modulus (GPa) = 77.75075 78.95810 78.35443
# Shear Modulus (GPa) = 29.64728 32.78436 31.21582
#
# Velocity S-wave (km/s) = 3.63569 3.82320 3.73062
# Velocity P-wave (km/s) = 7.23114 7.39544 7.31376
#
# Compressibility (1/GPa) = 0.01286161
#
# Stress axis : x y z
#
# Youngs Moduli (GPa) = 93.84180 89.56175 74.70503
#
# Poissons Ratio (x) = 0.29844 0.32177
# Poissons Ratio (y) = 0.31271 0.26397
# Poissons Ratio (z) = 0.40420 0.31647
#
# Static dielectric constant tensor:
#      x y z
#    x 3.926620 0.000000 0.000000 
#    y 0.000000 4.604450 0.000000 
#    z 0.000000 0.000000 3.915970 
# 
# 
# High freq. dielectric constant tensor:
#      x y z
#    x 1.869920 0.000000 0.000000 
#    y 0.000000 1.913890 0.000000 
#    z 0.000000 0.000000 1.867980 
# 
# From -- ./inp_files/22511.got.cif
#   From: 2010.03.12/outbox.cif.g09.slc.cpg/sg70_12_cif.got.tgz:22511.got - 2010.04.16 13:46:32.
