data_PCOD8286536
_publ_section_title
;
Structure prediction by ZEFSAII (Michael W. Deem and Ramdas Pophale) SiO2 
 PCOD8286536
Probable space group: F D D D
;
_chemical_formula_sum "Si O2"
_cell_formula_units_Z 176
_cell_length_a 28.700650
_cell_length_b 20.818198
_cell_length_c 14.044175
_cell_angle_alpha 90.000000
_cell_angle_beta 90.000000
_cell_angle_gamma 90.000000
_cell_volume 8391.335780
_symmetry_space_group_name_H-M "F D D D"
_symmetry_group_IT_number 70
_space_group.IT_coordinate_system_code '2'
_symmetry_cell_setting 'orthorhombic'
loop_
_space_group_symop_operation_xyz
x,y,z
1/4-x,1/4-y,z
x,1/4-y,1/4-z
1/4-x,y,1/4-z
-x,-y,-z
3/4+x,3/4+y,-z
-x,3/4+y,3/4+z
3/4+x,-y,3/4+z
x,1/2+y,1/2+z
1/4-x,3/4-y,1/2+z
x,3/4-y,3/4-z
1/4-x,1/2+y,3/4-z
-x,1/2-y,1/2-z
3/4+x,1/4+y,1/2-z
-x,1/4+y,1/4+z
3/4+x,1/2-y,1/4+z
1/2+x,y,1/2+z
3/4-x,1/4-y,1/2+z
1/2+x,1/4-y,3/4-z
3/4-x,y,3/4-z
1/2-x,-y,1/2-z
1/4+x,3/4+y,1/2-z
1/2-x,3/4+y,1/4+z
1/4+x,-y,1/4+z
1/2+x,1/2+y,z
3/4-x,3/4-y,z
1/2+x,3/4-y,1/4-z
3/4-x,1/2+y,1/4-z
1/2-x,1/2-y,-z
1/4+x,1/4+y,-z
1/2-x,1/4+y,3/4+z
1/4+x,1/2-y,3/4+z
loop_
_atom_site_type_symbol
_atom_site_label
_atom_site_fract_x
_atom_site_fract_y
_atom_site_fract_z
Si Si1 0.526969 0.124178 0.484202
Si Si2 0.138214 0.759611 0.327686
Si Si3 0.464384 0.642839 0.425575
Si Si4 0.745085 0.976952 0.867283
Si Si5 0.625000 0.125000 0.839591
Si Si6 0.375000 0.182363 0.375000
Si Si7 0.072633 0.375000 0.875000
O O1 0.507625 0.141862 0.378538
O O2 0.508847 0.050724 0.510394
O O3 0.505992 0.169017 0.562641
O O4 0.582196 0.123192 0.483166
O O5 0.190228 0.759460 0.370609
O O6 0.119529 0.687872 0.344631
O O7 0.134330 0.772184 0.215148
O O8 0.105986 0.812465 0.380585
O O9 0.470538 0.718233 0.406720
O O10 0.417352 0.616639 0.380598
O O11 0.463166 0.625762 0.536970
#
# Coordination Sequence:
#
# PCOD8286536 Si02
#       7
#    32  32  32  32  16  16  16
#     4  11  24  41  66 100 132 179 214 273 341 410
#     4  11  23  44  66 100 132 175 220 282 333 399
#     4  11  22  42  66  97 124 174 221 278 322 399
#     4  11  23  41  68  96 137 169 220 276 340 398
#     4  12  26  42  64  98 146 170 220 281 347 388
#     4  10  24  43  72  91 124 178 238 262 328 409
#     4  10  24  42  68  95 128 175 234 268 320 414
#
# _framework density 20.974014
#
# number of rings (size 3 to 8) (size 9 to 14) (size 15 to 20)
#    0.000    1.091    3.636    2.727    2.545    3.273 
#    3.273    2.727    0.000    0.000    0.000    0.000 
#    0.000    0.000    0.000    0.000    0.000    0.000 
#
# Total GULP energy -545437.703572 kJ/mol
# GULP energy per Si atom -12396.311445 kJ/mol
# Density = 2.092628 g / cm^3
# Si number density = 20.974014 Si / 1000 Ang^3
#
#
#
# Elastic Constant Matrix: (Units=GPa)
#
#
# Indices 1 2 3 4 5 6 
#
# 1 124.4513 45.6752 51.7728 0.0000 0.0000 0.0000
# 2 45.6752 125.3485 25.8604 0.0000 0.0000 0.0000
# 3 51.7728 25.8604 103.9871 0.0000 0.0000 0.0000
# 4 0.0000 0.0000 0.0000 13.9215 0.0000 0.0000
# 5 0.0000 0.0000 0.0000 0.0000 9.0853 0.0000
# 6 0.0000 0.0000 0.0000 0.0000 0.0000 44.5026
#
#
#
# Elastic Compliance Matrix: (Units=1/GPa)
#
#
# Indices 1 2 3 4 5 6 
#
# 1 0.011157 -0.003077 -0.004790 0.000000 0.000000 0.000000
# 2 -0.003077 0.009258 -0.000770 0.000000 0.000000 0.000000
# 3 -0.004790 -0.000770 0.012193 0.000000 0.000000 0.000000
# 4 0.000000 0.000000 0.000000 0.071831 0.000000 0.000000
# 5 0.000000 0.000000 0.000000 0.000000 0.110068 0.000000
# 6 0.000000 0.000000 0.000000 0.000000 0.000000 0.022471
#
#
# Mechanical properties :
#
#
# Convention : Reuss Voigt Hill
#
# Bulk Modulus (GPa) = 65.21635 66.71154 65.96395
# Shear Modulus (GPa) = 19.27796 28.86711 24.07254
#
# Velocity S-wave (km/s) = 3.03501 3.71391 3.39149
# Velocity P-wave (km/s) = 6.59114 7.08990 6.84506
#
# Compressibility (1/GPa) = 0.01533358
#
# Stress axis : x y z
#
# Youngs Moduli (GPa) = 89.62786 108.01452 82.01583
#
# Poissons Ratio (x) = 0.33240 0.39283
# Poissons Ratio (y) = 0.27582 0.06317
# Poissons Ratio (z) = 0.42928 0.08319
#
# Static dielectric constant tensor:
#      x y z
#    x 3.765360 0.000000 0.000000 
#    y 0.000000 4.092680 0.000000 
#    z 0.000000 0.000000 4.072590 
# 
# 
# High freq. dielectric constant tensor:
#      x y z
#    x 1.821770 0.000000 0.000000 
#    y 0.000000 1.839890 0.000000 
#    z 0.000000 0.000000 1.835820 
# 
# From -- ./inp_files/28814.got.cif
#   From: 2010.03.12/outbox.cif.g09.slc.cpg/sg70_15_cif.got.tgz:28814.got - 2010.04.16 13:46:32.
