data_PCOD8286176
_publ_section_title
;
Structure prediction by ZEFSAII (Michael W. Deem and Ramdas Pophale) SiO2 
 PCOD8286176
Probable space group: F D D D
;
_chemical_formula_sum "Si O2"
_cell_formula_units_Z 144
_cell_length_a 15.163816
_cell_length_b 24.361635
_cell_length_c 18.323551
_cell_angle_alpha 90.000000
_cell_angle_beta 90.000000
_cell_angle_gamma 90.000000
_cell_volume 6769.001017
_symmetry_space_group_name_H-M "F D D D"
_symmetry_group_IT_number 70
_space_group.IT_coordinate_system_code '2'
_symmetry_cell_setting 'orthorhombic'
loop_
_space_group_symop_operation_xyz
x,y,z
1/4-x,1/4-y,z
x,1/4-y,1/4-z
1/4-x,y,1/4-z
-x,-y,-z
3/4+x,3/4+y,-z
-x,3/4+y,3/4+z
3/4+x,-y,3/4+z
x,1/2+y,1/2+z
1/4-x,3/4-y,1/2+z
x,3/4-y,3/4-z
1/4-x,1/2+y,3/4-z
-x,1/2-y,1/2-z
3/4+x,1/4+y,1/2-z
-x,1/4+y,1/4+z
3/4+x,1/2-y,1/4+z
1/2+x,y,1/2+z
3/4-x,1/4-y,1/2+z
1/2+x,1/4-y,3/4-z
3/4-x,y,3/4-z
1/2-x,-y,1/2-z
1/4+x,3/4+y,1/2-z
1/2-x,3/4+y,1/4+z
1/4+x,-y,1/4+z
1/2+x,1/2+y,z
3/4-x,3/4-y,z
1/2+x,3/4-y,1/4-z
3/4-x,1/2+y,1/4-z
1/2-x,1/2-y,-z
1/4+x,1/4+y,-z
1/2-x,1/4+y,3/4+z
1/4+x,1/2-y,3/4+z
loop_
_atom_site_type_symbol
_atom_site_label
_atom_site_fract_x
_atom_site_fract_y
_atom_site_fract_z
Si Si1 0.640636 0.875000 0.875000
Si Si2 0.045780 0.193435 0.175861
Si Si3 0.875000 0.108070 0.375000
Si Si4 0.973493 0.940765 0.089165
Si Si5 0.967368 0.187941 0.742373
Si Si6 0.625000 0.125000 0.950362
O O1 0.706549 0.907566 0.821651
O O2 0.582216 0.829499 0.832325
O O3 0.125000 0.169836 0.125000
O O4 0.022028 0.252571 0.142768
O O5 0.075516 0.195006 0.260480
O O6 0.795179 0.143253 0.406468
O O7 0.902151 0.068628 0.440235
O O8 0.899770 0.927445 0.149722
O O9 0.000000 0.250000 0.750000
O O10 0.046774 0.144379 0.747548
#
# Coordination Sequence:
#
# PCOD8286176 Si02
#       6
#    16  32  16  32  32  16
#     4  12  25  41  64 102 134 170 228 285 335 402
#     4  11  23  37  66  97 134 164 214 275 344 396
#     4  10  20  44  64  90 134 174 222 274 338 398
#     4  10  21  40  61  95 125 176 211 268 331 405
#     4  11  25  44  67  98 133 183 229 283 337 406
#     4  10  24  41  65  88 130 176 226 266 332 399
#
# _framework density 21.27345
#
# number of rings (size 3 to 8) (size 9 to 14) (size 15 to 20)
#    0.000    1.333    3.333    1.667    3.111    2.222 
#    0.000    0.000    0.000    0.000    0.000    0.000 
#    0.000    0.000    0.000    0.000    0.000    0.000 
#
# Total GULP energy -446298.430846 kJ/mol
# GULP energy per Si atom -12397.178635 kJ/mol
# Density = 2.122503 g / cm^3
# Si number density = 21.273450 Si / 1000 Ang^3
#
#
#
# Elastic Constant Matrix: (Units=GPa)
#
#
# Indices 1 2 3 4 5 6 
#
# 1 90.9485 16.9022 32.9893 0.0000 0.0000 0.0000
# 2 16.9022 107.6937 22.2935 0.0000 0.0000 0.0000
# 3 32.9893 22.2935 74.8264 0.0000 0.0000 0.0000
# 4 0.0000 0.0000 0.0000 29.8561 0.0000 0.0000
# 5 0.0000 0.0000 0.0000 0.0000 26.2041 0.0000
# 6 0.0000 0.0000 0.0000 0.0000 0.0000 26.6875
#
#
#
# Elastic Compliance Matrix: (Units=1/GPa)
#
#
# Indices 1 2 3 4 5 6 
#
# 1 0.013174 -0.000922 -0.005533 0.000000 0.000000 0.000000
# 2 -0.000922 0.009960 -0.002561 0.000000 0.000000 0.000000
# 3 -0.005533 -0.002561 0.016567 0.000000 0.000000 0.000000
# 4 0.000000 0.000000 0.000000 0.033494 0.000000 0.000000
# 5 0.000000 0.000000 0.000000 0.000000 0.038162 0.000000
# 6 0.000000 0.000000 0.000000 0.000000 0.000000 0.037471
#
#
# Mechanical properties :
#
#
# Convention : Reuss Voigt Hill
#
# Bulk Modulus (GPa) = 46.15084 46.42652 46.28868
# Shear Modulus (GPa) = 28.72190 29.96843 29.34517
#
# Velocity S-wave (km/s) = 3.67840 3.75737 3.71809
# Velocity P-wave (km/s) = 6.30730 6.37925 6.34338
#
# Compressibility (1/GPa) = 0.02166808
#
# Stress axis : x y z
#
# Youngs Moduli (GPa) = 75.90905 100.39676 60.36179
#
# Poissons Ratio (x) = 0.09258 0.33400
# Poissons Ratio (y) = 0.07000 0.15459
# Poissons Ratio (z) = 0.42002 0.25712
#
# Static dielectric constant tensor:
#      x y z
#    x 4.029770 0.000000 0.000000 
#    y 0.000000 3.800990 0.000000 
#    z 0.000000 0.000000 3.748670 
# 
# 
# High freq. dielectric constant tensor:
#      x y z
#    x 1.838020 0.000000 0.000000 
#    y 0.000000 1.840540 0.000000 
#    z 0.000000 0.000000 1.828870 
# 
# From -- ./inp_files/35047.got.cif
#   From: 2010.03.12/outbox.cif.g09.slc.cpg/sg70_18_cif.got.tgz:35047.got - 2010.04.16 13:46:32.
