data_PCOD8286187
_publ_section_title
;
Structure prediction by ZEFSAII (Michael W. Deem and Ramdas Pophale) SiO2 
 PCOD8286187
Probable space group: F D D D
;
_chemical_formula_sum "Si O2"
_cell_formula_units_Z 192
_cell_length_a 16.131606
_cell_length_b 26.994036
_cell_length_c 22.071047
_cell_angle_alpha 90.000000
_cell_angle_beta 90.000000
_cell_angle_gamma 90.000000
_cell_volume 9610.995293
_symmetry_space_group_name_H-M "F D D D"
_symmetry_group_IT_number 70
_space_group.IT_coordinate_system_code '2'
_symmetry_cell_setting 'orthorhombic'
loop_
_space_group_symop_operation_xyz
x,y,z
1/4-x,1/4-y,z
x,1/4-y,1/4-z
1/4-x,y,1/4-z
-x,-y,-z
3/4+x,3/4+y,-z
-x,3/4+y,3/4+z
3/4+x,-y,3/4+z
x,1/2+y,1/2+z
1/4-x,3/4-y,1/2+z
x,3/4-y,3/4-z
1/4-x,1/2+y,3/4-z
-x,1/2-y,1/2-z
3/4+x,1/4+y,1/2-z
-x,1/4+y,1/4+z
3/4+x,1/2-y,1/4+z
1/2+x,y,1/2+z
3/4-x,1/4-y,1/2+z
1/2+x,1/4-y,3/4-z
3/4-x,y,3/4-z
1/2-x,-y,1/2-z
1/4+x,3/4+y,1/2-z
1/2-x,3/4+y,1/4+z
1/4+x,-y,1/4+z
1/2+x,1/2+y,z
3/4-x,3/4-y,z
1/2+x,3/4-y,1/4-z
3/4-x,1/2+y,1/4-z
1/2-x,1/2-y,-z
1/4+x,1/4+y,-z
1/2-x,1/4+y,3/4+z
1/4+x,1/2-y,3/4+z
loop_
_atom_site_type_symbol
_atom_site_label
_atom_site_fract_x
_atom_site_fract_y
_atom_site_fract_z
Si Si1 0.217094 0.415001 0.140748
Si Si2 0.571881 0.503818 0.783007
Si Si3 0.313568 0.419538 0.638107
Si Si4 0.566746 0.014549 0.809839
Si Si5 0.582239 0.427767 0.393573
Si Si6 0.191493 0.581309 0.235180
O O1 0.125000 0.431898 0.125000
O O2 0.230125 0.362880 0.102531
O O3 0.274496 0.459465 0.117657
O O4 0.240056 0.409304 0.211710
O O5 0.546354 0.541805 0.834964
O O6 0.488088 0.486434 0.749739
O O7 0.607368 0.452734 0.808057
O O8 0.641611 0.529340 0.740882
O O9 0.375000 0.375000 0.615269
O O10 0.348895 0.450871 0.696493
O O11 0.582131 0.958604 0.830835
O O12 0.619623 0.375000 0.375000
O O13 0.490493 0.421310 0.421831
O O14 0.125000 0.625000 0.232326
#
# Coordination Sequence:
#
# PCOD8286187 Si02
#       6
#    32  32  32  32  32  32
#     4  11  20  34  56  81 103 144 193 233 277 327
#     4  11  19  35  57  77 112 149 184 226 280 343
#     4   9  17  37  54  78 108 143 181 235 271 323
#     4  10  21  34  54  79 113 149 185 219 283 340
#     4  11  24  33  47  82 122 148 182 223 272 347
#     4  12  20  36  52  76 116 149 179 227 285 336
#
# _framework density 19.977118999999998
#
# number of rings (size 3 to 8) (size 9 to 14) (size 15 to 20)
#    0.000    1.333    6.667    2.500    2.333    1.667 
#    0.000    0.000    0.000    1.000   13.000    0.000 
#    0.000    0.000    0.000    0.000    0.000    0.000 
#
# Total GULP energy -594699.865710 kJ/mol
# GULP energy per Si atom -12389.580536 kJ/mol
# Density = 1.993165 g / cm^3
# Si number density = 19.977119 Si / 1000 Ang^3
#
#
#
# Elastic Constant Matrix: (Units=GPa)
#
#
# Indices 1 2 3 4 5 6 
#
# 1 23.9403 13.2934 11.8232 0.0000 0.0000 0.0000
# 2 13.2934 140.0900 26.8395 0.0000 0.0000 0.0000
# 3 11.8232 26.8395 44.4146 0.0000 0.0000 0.0000
# 4 0.0000 0.0000 0.0000 18.3894 0.0000 0.0000
# 5 0.0000 0.0000 0.0000 0.0000 22.0726 0.0000
# 6 0.0000 0.0000 0.0000 0.0000 0.0000 20.6272
#
#
#
# Elastic Compliance Matrix: (Units=1/GPa)
#
#
# Indices 1 2 3 4 5 6 
#
# 1 0.048810 -0.002423 -0.011529 0.000000 0.000000 0.000000
# 2 -0.002423 0.008193 -0.004306 0.000000 0.000000 0.000000
# 3 -0.011529 -0.004306 0.028186 0.000000 0.000000 0.000000
# 4 0.000000 0.000000 0.000000 0.054379 0.000000 0.000000
# 5 0.000000 0.000000 0.000000 0.000000 0.045305 0.000000
# 6 0.000000 0.000000 0.000000 0.000000 0.000000 0.048480
#
#
# Mechanical properties :
#
#
# Convention : Reuss Voigt Hill
#
# Bulk Modulus (GPa) = 20.54521 34.70635 27.62578
# Shear Modulus (GPa) = 17.47679 22.65042 20.06360
#
# Velocity S-wave (km/s) = 2.96098 3.37087 3.17255
# Velocity P-wave (km/s) = 4.69005 5.70624 5.22292
#
# Compressibility (1/GPa) = 0.04867314
#
# Stress axis : x y z
#
# Youngs Moduli (GPa) = 20.48769 122.05283 35.47818
#
# Poissons Ratio (x) = 0.29571 0.40903
# Poissons Ratio (y) = 0.04964 0.15277
# Poissons Ratio (z) = 0.23621 0.52558
#
# Static dielectric constant tensor:
#      x y z
#    x 3.695610 0.000000 0.000000 
#    y 0.000000 4.000120 0.000000 
#    z 0.000000 0.000000 3.287180 
# 
# 
# High freq. dielectric constant tensor:
#      x y z
#    x 1.751080 0.000000 0.000000 
#    y 0.000000 1.801070 0.000000 
#    z 0.000000 0.000000 1.741690 
# 
# From -- ./inp_files/44953.got.cif
#   From: 2010.03.12/outbox.cif.g09.slc.cpg/sg70_23_cif.got.tgz:44953.got - 2010.04.16 13:46:32.
