data_PCOD8286042
_publ_section_title
;
Structure prediction by ZEFSAII (Michael W. Deem and Ramdas Pophale) SiO2 
 PCOD8286042
Probable space group: F D D D
;
_chemical_formula_sum "Si O2"
_cell_formula_units_Z 176
_cell_length_a 31.905381
_cell_length_b 10.943038
_cell_length_c 24.160157
_cell_angle_alpha 90.000000
_cell_angle_beta 90.000000
_cell_angle_gamma 90.000000
_cell_volume 8435.320623
_symmetry_space_group_name_H-M "F D D D"
_symmetry_group_IT_number 70
_space_group.IT_coordinate_system_code '2'
_symmetry_cell_setting 'orthorhombic'
loop_
_space_group_symop_operation_xyz
x,y,z
1/4-x,1/4-y,z
x,1/4-y,1/4-z
1/4-x,y,1/4-z
-x,-y,-z
3/4+x,3/4+y,-z
-x,3/4+y,3/4+z
3/4+x,-y,3/4+z
x,1/2+y,1/2+z
1/4-x,3/4-y,1/2+z
x,3/4-y,3/4-z
1/4-x,1/2+y,3/4-z
-x,1/2-y,1/2-z
3/4+x,1/4+y,1/2-z
-x,1/4+y,1/4+z
3/4+x,1/2-y,1/4+z
1/2+x,y,1/2+z
3/4-x,1/4-y,1/2+z
1/2+x,1/4-y,3/4-z
3/4-x,y,3/4-z
1/2-x,-y,1/2-z
1/4+x,3/4+y,1/2-z
1/2-x,3/4+y,1/4+z
1/4+x,-y,1/4+z
1/2+x,1/2+y,z
3/4-x,3/4-y,z
1/2+x,3/4-y,1/4-z
3/4-x,1/2+y,1/4-z
1/2-x,1/2-y,-z
1/4+x,1/4+y,-z
1/2-x,1/4+y,3/4+z
1/4+x,1/2-y,3/4+z
loop_
_atom_site_type_symbol
_atom_site_label
_atom_site_fract_x
_atom_site_fract_y
_atom_site_fract_z
Si Si1 0.637261 0.869999 0.440211
Si Si2 0.558167 0.558422 0.682254
Si Si3 0.125000 0.625000 0.989088
Si Si4 0.815414 0.186936 0.488638
Si Si5 0.479124 0.630616 0.510626
Si Si6 0.763118 0.894341 0.939758
O O1 0.636398 0.875000 0.375000
O O2 0.616548 0.739473 0.450813
O O3 0.606975 0.963434 0.473892
O O4 0.683944 0.877689 0.462462
O O5 0.568241 0.625000 0.625000
O O6 0.583178 0.646165 0.724586
O O7 0.574296 0.417952 0.691225
O O8 0.508614 0.554609 0.693795
O O9 0.802736 0.312898 0.459093
O O10 0.779090 0.145735 0.530169
O O11 0.500000 0.500000 0.500000
O O12 0.477836 0.713112 0.454660
O O13 0.756409 0.875000 0.875000
#
# Coordination Sequence:
#
# PCOD8286042 Si02
#       6
#    32  32  16  32  32  32
#     4  11  23  41  63  91 125 170 209 270 326 379
#     4  10  20  37  62  87 119 163 203 262 318 375
#     4  10  21  38  58  88 124 152 211 262 314 386
#     4   9  22  41  62  94 126 165 225 259 317 405
#     4  11  23  40  61  93 128 158 217 266 309 389
#     4  10  22  42  66  91 130 176 208 268 331 388
#
# _framework density 20.864649
#
# number of rings (size 3 to 8) (size 9 to 14) (size 15 to 20)
#    0.000    1.818    1.818    1.364    2.545    2.182 
#    3.273    1.818    0.000    0.000    0.000    0.000 
#    0.000    0.000    0.000    0.000    0.000    0.000 
#
# Total GULP energy -545253.665107 kJ/mol
# GULP energy per Si atom -12392.128752 kJ/mol
# Density = 2.081716 g / cm^3
# Si number density = 20.864649 Si / 1000 Ang^3
#
#
#
# Elastic Constant Matrix: (Units=GPa)
#
#
# Indices 1 2 3 4 5 6 
#
# 1 123.8981 23.4743 43.3866 0.0000 0.0000 0.0000
# 2 23.4743 111.5870 61.8871 0.0000 0.0000 0.0000
# 3 43.3866 61.8871 150.9312 0.0000 0.0000 0.0000
# 4 0.0000 0.0000 0.0000 17.6003 0.0000 0.0000
# 5 0.0000 0.0000 0.0000 0.0000 24.2802 0.0000
# 6 0.0000 0.0000 0.0000 0.0000 0.0000 27.8021
#
#
#
# Elastic Compliance Matrix: (Units=1/GPa)
#
#
# Indices 1 2 3 4 5 6 
#
# 1 0.009005 -0.000594 -0.002345 0.000000 0.000000 0.000000
# 2 -0.000594 0.011639 -0.004602 0.000000 0.000000 0.000000
# 3 -0.002345 -0.004602 0.009186 0.000000 0.000000 0.000000
# 4 0.000000 0.000000 0.000000 0.056817 0.000000 0.000000
# 5 0.000000 0.000000 0.000000 0.000000 0.041186 0.000000
# 6 0.000000 0.000000 0.000000 0.000000 0.000000 0.035969
#
#
# Mechanical properties :
#
#
# Convention : Reuss Voigt Hill
#
# Bulk Modulus (GPa) = 67.80051 71.54580 69.67315
# Shear Modulus (GPa) = 27.20369 31.11439 29.15904
#
# Velocity S-wave (km/s) = 3.61476 3.86586 3.74242
# Velocity P-wave (km/s) = 7.07021 7.36827 7.22078
#
# Compressibility (1/GPa) = 0.01474915
#
# Stress axis : x y z
#
# Youngs Moduli (GPa) = 111.05140 85.92117 108.85593
#
# Poissons Ratio (x) = 0.05101 0.25528
# Poissons Ratio (y) = 0.06593 0.50091
# Poissons Ratio (z) = 0.26042 0.39537
#
# Static dielectric constant tensor:
#      x y z
#    x 4.066530 0.000000 0.000000 
#    y 0.000000 3.957700 0.000000 
#    z 0.000000 0.000000 3.748690 
# 
# 
# High freq. dielectric constant tensor:
#      x y z
#    x 1.830070 0.000000 0.000000 
#    y 0.000000 1.813050 0.000000 
#    z 0.000000 0.000000 1.805660 
# 
# From -- ./inp_files/54980.got.cif
#   From: 2010.03.12/outbox.cif.g09.slc.cpg/sg70_28_cif.got.tgz:54980.got - 2010.04.16 13:46:32.
