data_PCOD8286357
_publ_section_title
;
Structure prediction by ZEFSAII (Michael W. Deem and Ramdas Pophale) SiO2 
 PCOD8286357
Probable space group: F D D D
;
_chemical_formula_sum "Si O2"
_cell_formula_units_Z 136
_cell_length_a 16.469939
_cell_length_b 21.757442
_cell_length_c 18.406377
_cell_angle_alpha 90.000000
_cell_angle_beta 90.000000
_cell_angle_gamma 90.000000
_cell_volume 6595.810021
_symmetry_space_group_name_H-M "F D D D"
_symmetry_group_IT_number 70
_space_group.IT_coordinate_system_code '2'
_symmetry_cell_setting 'orthorhombic'
loop_
_space_group_symop_operation_xyz
x,y,z
1/4-x,1/4-y,z
x,1/4-y,1/4-z
1/4-x,y,1/4-z
-x,-y,-z
3/4+x,3/4+y,-z
-x,3/4+y,3/4+z
3/4+x,-y,3/4+z
x,1/2+y,1/2+z
1/4-x,3/4-y,1/2+z
x,3/4-y,3/4-z
1/4-x,1/2+y,3/4-z
-x,1/2-y,1/2-z
3/4+x,1/4+y,1/2-z
-x,1/4+y,1/4+z
3/4+x,1/2-y,1/4+z
1/2+x,y,1/2+z
3/4-x,1/4-y,1/2+z
1/2+x,1/4-y,3/4-z
3/4-x,y,3/4-z
1/2-x,-y,1/2-z
1/4+x,3/4+y,1/2-z
1/2-x,3/4+y,1/4+z
1/4+x,-y,1/4+z
1/2+x,1/2+y,z
3/4-x,3/4-y,z
1/2+x,3/4-y,1/4-z
3/4-x,1/2+y,1/4-z
1/2-x,1/2-y,-z
1/4+x,1/4+y,-z
1/2-x,1/4+y,3/4+z
1/4+x,1/2-y,3/4+z
loop_
_atom_site_type_symbol
_atom_site_label
_atom_site_fract_x
_atom_site_fract_y
_atom_site_fract_z
Si Si1 0.037423 0.952192 0.649047
Si Si2 0.730727 0.950985 0.935339
Si Si3 0.924398 0.566605 0.157974
Si Si4 0.875000 0.375000 0.375000
Si Si5 0.801752 0.672324 0.823371
O O1 0.125000 0.978076 0.625000
O O2 0.969540 0.003816 0.637401
O O3 0.045633 0.933401 0.733189
O O4 0.235927 0.892696 0.649890
O O5 0.664925 0.930539 0.876914
O O6 0.817877 0.918626 0.923706
O O7 0.734613 0.024626 0.924770
O O8 0.973807 0.625000 0.125000
O O9 0.912754 0.579476 0.242488
O O10 0.875000 0.691318 0.875000
#
# Coordination Sequence:
#
# PCOD8286357 Si02
#       5
#    32  32  32   8  32
#     4  10  24  43  62  93 132 170 223 273 320 386
#     4  11  24  41  65  98 131 173 213 268 336 395
#     4  11  23  40  65  94 125 177 219 268 331 383
#     4  12  24  40  64 104 134 164 208 268 324 408
#     4  10  22  40  62  92 130 169 213 271 327 385
#
# _framework density 20.619150999999999
#
# number of rings (size 3 to 8) (size 9 to 14) (size 15 to 20)
#    0.000    1.412    2.353    2.824    0.000    9.882 
#    0.000    4.706    0.000    0.000    0.000    0.000 
#    0.000    0.000    0.000    0.000    0.000    0.000 
#
# Total GULP energy -421460.714428 kJ/mol
# GULP energy per Si atom -12395.903366 kJ/mol
# Density = 2.057222 g / cm^3
# Si number density = 20.619151 Si / 1000 Ang^3
#
#
#
# Elastic Constant Matrix: (Units=GPa)
#
#
# Indices 1 2 3 4 5 6 
#
# 1 95.0691 57.8353 67.9938 0.0000 0.0000 0.0000
# 2 57.8353 148.3862 68.4686 0.0000 0.0000 0.0000
# 3 67.9938 68.4686 170.4565 0.0000 0.0000 0.0000
# 4 0.0000 0.0000 0.0000 50.0634 0.0000 0.0000
# 5 0.0000 0.0000 0.0000 0.0000 23.9108 0.0000
# 6 0.0000 0.0000 0.0000 0.0000 0.0000 68.7422
#
#
#
# Elastic Compliance Matrix: (Units=1/GPa)
#
#
# Indices 1 2 3 4 5 6 
#
# 1 0.016600 -0.004192 -0.004938 0.000000 0.000000 0.000000
# 2 -0.004192 0.009331 -0.002076 0.000000 0.000000 0.000000
# 3 -0.004938 -0.002076 0.008670 0.000000 0.000000 0.000000
# 4 0.000000 0.000000 0.000000 0.019975 0.000000 0.000000
# 5 0.000000 0.000000 0.000000 0.000000 0.041822 0.000000
# 6 0.000000 0.000000 0.000000 0.000000 0.000000 0.014547
#
#
# Mechanical properties :
#
#
# Convention : Reuss Voigt Hill
#
# Bulk Modulus (GPa) = 82.03419 89.16746 85.60083
# Shear Modulus (GPa) = 36.38477 43.18422 39.78449
#
# Velocity S-wave (km/s) = 4.20528 4.58140 4.39736
# Velocity P-wave (km/s) = 7.96562 8.44538 8.20900
#
# Compressibility (1/GPa) = 0.01219004
#
# Stress axis : x y z
#
# Youngs Moduli (GPa) = 60.23953 107.17172 115.33735
#
# Poissons Ratio (x) = 0.44923 0.56954
# Poissons Ratio (y) = 0.25250 0.23943
# Poissons Ratio (z) = 0.29747 0.22248
#
# Static dielectric constant tensor:
#      x y z
#    x 3.438030 0.000000 0.000000 
#    y 0.000000 4.139010 0.000000 
#    z 0.000000 0.000000 3.815400 
# 
# 
# High freq. dielectric constant tensor:
#      x y z
#    x 1.785970 0.000000 0.000000 
#    y 0.000000 1.832420 0.000000 
#    z 0.000000 0.000000 1.818950 
# 
# From -- ./inp_files/17672.got.cif
#   From: 2010.03.12/outbox.cif.g09.slc.cpg/sg70_9_cif.got.tgz:17672.got - 2010.04.16 13:46:32.
