data_PCOD8286796
_publ_section_title
;
Structure prediction by ZEFSAII (Michael W. Deem and Ramdas Pophale) SiO2 
 PCOD8286796
Probable space group: F D D D
;
_chemical_formula_sum "Si O2"
_cell_formula_units_Z 80
_cell_length_a 5.065050
_cell_length_b 28.100654
_cell_length_c 23.789716
_cell_angle_alpha 90.000000
_cell_angle_beta 90.000000
_cell_angle_gamma 90.000000
_cell_volume 3386.019243
_symmetry_space_group_name_H-M "F D D D"
_symmetry_group_IT_number 70
_space_group.IT_coordinate_system_code '2'
_symmetry_cell_setting 'orthorhombic'
loop_
_space_group_symop_operation_xyz
x,y,z
1/4-x,1/4-y,z
x,1/4-y,1/4-z
1/4-x,y,1/4-z
-x,-y,-z
3/4+x,3/4+y,-z
-x,3/4+y,3/4+z
3/4+x,-y,3/4+z
x,1/2+y,1/2+z
1/4-x,3/4-y,1/2+z
x,3/4-y,3/4-z
1/4-x,1/2+y,3/4-z
-x,1/2-y,1/2-z
3/4+x,1/4+y,1/2-z
-x,1/4+y,1/4+z
3/4+x,1/2-y,1/4+z
1/2+x,y,1/2+z
3/4-x,1/4-y,1/2+z
1/2+x,1/4-y,3/4-z
3/4-x,y,3/4-z
1/2-x,-y,1/2-z
1/4+x,3/4+y,1/2-z
1/2-x,3/4+y,1/4+z
1/4+x,-y,1/4+z
1/2+x,1/2+y,z
3/4-x,3/4-y,z
1/2+x,3/4-y,1/4-z
3/4-x,1/2+y,1/4-z
1/2-x,1/2-y,-z
1/4+x,1/4+y,-z
1/2-x,1/4+y,3/4+z
1/4+x,1/2-y,3/4+z
loop_
_atom_site_type_symbol
_atom_site_label
_atom_site_fract_x
_atom_site_fract_y
_atom_site_fract_z
Si Si1 0.767647 0.074563 0.760776
Si Si2 0.875000 0.375000 0.662824
Si Si3 0.124904 0.492500 0.413579
O O1 0.625000 0.125000 0.755061
O O2 0.838805 0.055887 0.699123
O O3 0.034718 0.081251 0.797696
O O4 0.584010 0.036600 0.793518
O O5 0.625000 0.392064 0.625000
O O6 0.375000 0.485054 0.375000
O O7 0.875000 0.502515 0.375000
#
# Coordination Sequence:
#
# PCOD8286796 Si02
#       3
#    32  16  32
#     4  11  28  48  77 112 146 196 258 300 368 450
#     4  12  26  42  77 110 137 186 250 310 358 428
#     4  11  29  49  74 110 156 194 241 313 376 437
#
# _framework density 23.626562
#
# number of rings (size 3 to 8) (size 9 to 14) (size 15 to 20)
#    0.000    0.800    2.000    1.200   16.800    4.000 
#    0.000    0.000    0.000    0.000    0.000    0.000 
#    0.000    0.000    0.000    0.000    0.000    0.000 
#
# Total GULP energy -248017.074298 kJ/mol
# GULP energy per Si atom -12400.853715 kJ/mol
# Density = 2.357279 g / cm^3
# Si number density = 23.626562 Si / 1000 Ang^3
#
#
#
# Elastic Constant Matrix: (Units=GPa)
#
#
# Indices 1 2 3 4 5 6 
#
# 1 144.1355 49.2835 64.9939 0.0000 0.0000 0.0000
# 2 49.2835 164.7471 79.6671 0.0000 0.0000 0.0000
# 3 64.9939 79.6671 153.3530 0.0000 0.0000 0.0000
# 4 0.0000 0.0000 0.0000 44.5011 0.0000 0.0000
# 5 0.0000 0.0000 0.0000 0.0000 40.3286 0.0000
# 6 0.0000 0.0000 0.0000 0.0000 0.0000 29.8930
#
#
#
# Elastic Compliance Matrix: (Units=1/GPa)
#
#
# Indices 1 2 3 4 5 6 
#
# 1 0.008723 -0.001097 -0.003127 0.000000 0.000000 0.000000
# 2 -0.001097 0.008244 -0.003818 0.000000 0.000000 0.000000
# 3 -0.003127 -0.003818 0.009830 0.000000 0.000000 0.000000
# 4 0.000000 0.000000 0.000000 0.022471 0.000000 0.000000
# 5 0.000000 0.000000 0.000000 0.000000 0.024796 0.000000
# 6 0.000000 0.000000 0.000000 0.000000 0.000000 0.033453
#
#
# Mechanical properties :
#
#
# Convention : Reuss Voigt Hill
#
# Bulk Modulus (GPa) = 93.34736 94.45830 93.90283
# Shear Modulus (GPa) = 39.31657 40.83059 40.07358
#
# Velocity S-wave (km/s) = 4.08374 4.16163 4.12287
# Velocity P-wave (km/s) = 7.86328 7.94725 7.90538
#
# Compressibility (1/GPa) = 0.01071268
#
# Stress axis : x y z
#
# Youngs Moduli (GPa) = 114.63746 121.29420 101.73397
#
# Poissons Ratio (x) = 0.13311 0.31812
# Poissons Ratio (y) = 0.12580 0.38841
# Poissons Ratio (z) = 0.35846 0.46309
#
# Static dielectric constant tensor:
#      x y z
#    x 4.266820 0.000000 0.000000 
#    y 0.000000 4.297060 0.000000 
#    z 0.000000 0.000000 4.621930 
# 
# 
# High freq. dielectric constant tensor:
#      x y z
#    x 1.936740 0.000000 0.000000 
#    y 0.000000 1.937760 0.000000 
#    z 0.000000 0.000000 1.949120 
# 
# From -- ./inp_files/55743.got.cif
#   From: 2010.03.12/outbox.cif.g09.slc.cpg/sg70_28_cif.got.tgz:55743.got - 2010.04.16 13:46:32.
