data_PCOD8286544
_publ_section_title
;
Structure prediction by ZEFSAII (Michael W. Deem and Ramdas Pophale) SiO2 
 PCOD8286544
Probable space group: F D D D
;
_chemical_formula_sum "Si O2"
_cell_formula_units_Z 192
_cell_length_a 10.943423
_cell_length_b 33.471779
_cell_length_c 23.401471
_cell_angle_alpha 90.000000
_cell_angle_beta 90.000000
_cell_angle_gamma 90.000000
_cell_volume 8571.861387
_symmetry_space_group_name_H-M "F D D D"
_symmetry_group_IT_number 70
_space_group.IT_coordinate_system_code '2'
_symmetry_cell_setting 'orthorhombic'
loop_
_space_group_symop_operation_xyz
x,y,z
1/4-x,1/4-y,z
x,1/4-y,1/4-z
1/4-x,y,1/4-z
-x,-y,-z
3/4+x,3/4+y,-z
-x,3/4+y,3/4+z
3/4+x,-y,3/4+z
x,1/2+y,1/2+z
1/4-x,3/4-y,1/2+z
x,3/4-y,3/4-z
1/4-x,1/2+y,3/4-z
-x,1/2-y,1/2-z
3/4+x,1/4+y,1/2-z
-x,1/4+y,1/4+z
3/4+x,1/2-y,1/4+z
1/2+x,y,1/2+z
3/4-x,1/4-y,1/2+z
1/2+x,1/4-y,3/4-z
3/4-x,y,3/4-z
1/2-x,-y,1/2-z
1/4+x,3/4+y,1/2-z
1/2-x,3/4+y,1/4+z
1/4+x,-y,1/4+z
1/2+x,1/2+y,z
3/4-x,3/4-y,z
1/2+x,3/4-y,1/4-z
3/4-x,1/2+y,1/4-z
1/2-x,1/2-y,-z
1/4+x,1/4+y,-z
1/2-x,1/4+y,3/4+z
1/4+x,1/2-y,3/4+z
loop_
_atom_site_type_symbol
_atom_site_label
_atom_site_fract_x
_atom_site_fract_y
_atom_site_fract_z
Si Si1 0.106518 0.370400 0.740995
Si Si2 0.080227 0.230070 0.021387
Si Si3 0.125000 0.248424 0.625000
Si Si4 0.163484 0.451314 0.326913
Si Si5 0.625000 0.125000 0.920788
Si Si6 0.221742 0.681282 0.828706
Si Si7 0.324382 0.551391 0.701778
O O1 0.072911 0.338015 0.789033
O O2 0.178704 0.351635 0.687728
O O3 0.186674 0.405657 0.767888
O O4 0.984521 0.387059 0.712314
O O5 0.195053 0.220422 0.062916
O O6 0.948457 0.228066 0.052196
O O7 0.106133 0.193212 0.976822
O O8 0.092889 0.273210 0.992199
O O9 0.204767 0.223647 0.578193
O O10 0.218213 0.275996 0.659011
O O11 0.139984 0.439856 0.392243
O O12 0.644907 0.164363 0.881615
#
# Coordination Sequence:
#
# PCOD8286544 Si02
#       7
#    32  32  16  32  16  32  32
#     4  11  26  41  67 101 137 183 231 287 362 415
#     4  10  24  43  73  99 134 181 238 282 358 417
#     4  12  24  44  69  94 142 184 230 286 350 421
#     4  11  26  45  68  98 142 186 231 288 351 434
#     4  12  24  40  69  98 137 176 236 286 354 416
#     4  11  23  46  65  99 133 181 228 290 343 423
#     4  11  23  44  67 104 136 177 230 298 347 422
#
# _framework density 22.398868
#
# number of rings (size 3 to 8) (size 9 to 14) (size 15 to 20)
#    0.000    1.000    3.333    2.000    4.667    4.667 
#    0.000    5.000    0.000    0.000    0.000    0.000 
#    0.000    0.000    0.000    0.000    0.000    0.000 
#
# Total GULP energy -595012.843517 kJ/mol
# GULP energy per Si atom -12396.100907 kJ/mol
# Density = 2.234789 g / cm^3
# Si number density = 22.398868 Si / 1000 Ang^3
#
#
#
# Elastic Constant Matrix: (Units=GPa)
#
#
# Indices 1 2 3 4 5 6 
#
# 1 108.1324 58.4014 36.2271 0.0000 0.0000 0.0000
# 2 58.4014 123.0154 51.3109 0.0000 0.0000 0.0000
# 3 36.2271 51.3109 92.8792 0.0000 0.0000 0.0000
# 4 0.0000 0.0000 0.0000 33.2995 0.0000 0.0000
# 5 0.0000 0.0000 0.0000 0.0000 35.3183 0.0000
# 6 0.0000 0.0000 0.0000 0.0000 0.0000 37.5150
#
#
#
# Elastic Compliance Matrix: (Units=1/GPa)
#
#
# Indices 1 2 3 4 5 6 
#
# 1 0.012749 -0.005170 -0.002117 0.000000 0.000000 0.000000
# 2 -0.005170 0.012659 -0.004977 0.000000 0.000000 0.000000
# 3 -0.002117 -0.004977 0.014342 0.000000 0.000000 0.000000
# 4 0.000000 0.000000 0.000000 0.030031 0.000000 0.000000
# 5 0.000000 0.000000 0.000000 0.000000 0.028314 0.000000
# 6 0.000000 0.000000 0.000000 0.000000 0.000000 0.026656
#
#
# Mechanical properties :
#
#
# Convention : Reuss Voigt Hill
#
# Bulk Modulus (GPa) = 65.68951 68.43399 67.06175
# Shear Modulus (GPa) = 32.39328 33.09906 32.74617
#
# Velocity S-wave (km/s) = 3.80702 3.84827 3.82770
# Velocity P-wave (km/s) = 6.97964 7.09678 7.03846
#
# Compressibility (1/GPa) = 0.01522313
#
# Stress axis : x y z
#
# Youngs Moduli (GPa) = 78.43611 78.99232 69.72539
#
# Poissons Ratio (x) = 0.40837 0.14759
# Poissons Ratio (y) = 0.40550 0.34704
# Poissons Ratio (z) = 0.16603 0.39316
#
# Static dielectric constant tensor:
#      x y z
#    x 4.190710 0.000000 0.000000 
#    y 0.000000 3.904790 0.000000 
#    z 0.000000 0.000000 4.051920 
# 
# 
# High freq. dielectric constant tensor:
#      x y z
#    x 1.886250 0.000000 0.000000 
#    y 0.000000 1.879950 0.000000 
#    z 0.000000 0.000000 1.889430 
# 
# From -- ./inp_files/57838.got.cif
#   From: 2010.03.12/outbox.cif.g09.slc.cpg/sg70_29_cif.got.tgz:57838.got - 2010.04.16 13:46:32.
