data_PCOD8286681
_publ_section_title
;
Structure prediction by ZEFSAII (Michael W. Deem and Ramdas Pophale) SiO2 
 PCOD8286681
Probable space group: F D D D
;
_chemical_formula_sum "Si O2"
_cell_formula_units_Z 128
_cell_length_a 27.046789
_cell_length_b 24.847294
_cell_length_c 9.580506
_cell_angle_alpha 90.000000
_cell_angle_beta 90.000000
_cell_angle_gamma 90.000000
_cell_volume 6438.478635
_symmetry_space_group_name_H-M "F D D D"
_symmetry_group_IT_number 70
_space_group.IT_coordinate_system_code '2'
_symmetry_cell_setting 'orthorhombic'
loop_
_space_group_symop_operation_xyz
x,y,z
1/4-x,1/4-y,z
x,1/4-y,1/4-z
1/4-x,y,1/4-z
-x,-y,-z
3/4+x,3/4+y,-z
-x,3/4+y,3/4+z
3/4+x,-y,3/4+z
x,1/2+y,1/2+z
1/4-x,3/4-y,1/2+z
x,3/4-y,3/4-z
1/4-x,1/2+y,3/4-z
-x,1/2-y,1/2-z
3/4+x,1/4+y,1/2-z
-x,1/4+y,1/4+z
3/4+x,1/2-y,1/4+z
1/2+x,y,1/2+z
3/4-x,1/4-y,1/2+z
1/2+x,1/4-y,3/4-z
3/4-x,y,3/4-z
1/2-x,-y,1/2-z
1/4+x,3/4+y,1/2-z
1/2-x,3/4+y,1/4+z
1/4+x,-y,1/4+z
1/2+x,1/2+y,z
3/4-x,3/4-y,z
1/2+x,3/4-y,1/4-z
3/4-x,1/2+y,1/4-z
1/2-x,1/2-y,-z
1/4+x,1/4+y,-z
1/2-x,1/4+y,3/4+z
1/4+x,1/2-y,3/4+z
loop_
_atom_site_type_symbol
_atom_site_label
_atom_site_fract_x
_atom_site_fract_y
_atom_site_fract_z
Si Si1 0.384827 0.462514 0.606488
Si Si2 0.451562 0.885158 0.711057
Si Si3 0.200741 0.866661 0.534560
Si Si4 0.125000 0.777987 0.625000
Si Si5 0.875000 0.704771 0.375000
O O1 0.424940 0.416083 0.602489
O O2 0.330447 0.438656 0.571532
O O3 0.393663 0.488004 0.756716
O O4 0.397146 0.508943 0.497085
O O5 0.503718 0.891764 0.637195
O O6 0.458659 0.875000 0.875000
O O7 0.218179 0.875000 0.375000
O O8 0.167528 0.813851 0.554834
O O9 0.170563 0.919392 0.574300
#
# Coordination Sequence:
#
# PCOD8286681 Si02
#       5
#    32  32  32  16  16
#     4  11  23  45  66  91 128 170 213 259 313 379
#     4  11  25  42  66  96 128 166 215 262 314 378
#     4  11  26  42  63  97 131 162 213 266 314 377
#     4  11  26  43  66  94 128 171 210 261 320 372
#     4  11  22  45  66  84 130 171 206 259 316 372
#
# _framework density 19.880474
#
# number of rings (size 3 to 8) (size 9 to 14) (size 15 to 20)
#    0.000    1.000    5.000    0.750    7.000    5.000 
#    0.000    0.000    0.000    0.000    0.000    0.000 
#    0.000    0.000    0.000    0.000    0.000    0.000 
#
# Total GULP energy -396862.346432 kJ/mol
# GULP energy per Si atom -12401.948326 kJ/mol
# Density = 1.983522 g / cm^3
# Si number density = 19.880474 Si / 1000 Ang^3
#
#
#
# Elastic Constant Matrix: (Units=GPa)
#
#
# Indices 1 2 3 4 5 6 
#
# 1 66.2882 15.0672 0.0006 0.0018 -0.0008 -0.0005
# 2 15.0672 103.6321 40.0471 0.0004 -0.0006 -0.0007
# 3 0.0006 40.0471 132.7663 0.0032 -0.0027 -0.0027
# 4 0.0018 0.0004 0.0032 38.5061 -0.0011 -0.0013
# 5 -0.0008 -0.0006 -0.0027 -0.0011 38.0998 0.0003
# 6 -0.0005 -0.0007 -0.0027 -0.0013 0.0003 18.6979
#
#
#
# Elastic Compliance Matrix: (Units=1/GPa)
#
#
# Indices 1 2 3 4 5 6 
#
# 1 0.015672 -0.002579 0.000778 -0.000001 0.000000 0.000000
# 2 -0.002579 0.011347 -0.003423 0.000000 0.000000 0.000000
# 3 0.000778 -0.003423 0.008564 -0.000001 0.000001 0.000001
# 4 -0.000001 0.000000 -0.000001 0.025970 0.000001 0.000002
# 5 0.000000 0.000000 0.000001 0.000001 0.026247 0.000000
# 6 0.000000 0.000000 0.000001 0.000002 0.000000 0.053482
#
#
# Mechanical properties :
#
#
# Convention : Reuss Voigt Hill
#
# Bulk Modulus (GPa) = 39.78432 45.87960 42.83196
# Shear Modulus (GPa) = 31.22882 35.56555 33.39719
#
# Velocity S-wave (km/s) = 3.96767 4.23421 4.10310
# Velocity P-wave (km/s) = 6.40664 6.85803 6.63617
#
# Compressibility (1/GPa) = 0.02513553
#
# Stress axis : x y z
#
# Youngs Moduli (GPa) = 63.80861 88.12772 116.76185
#
# Poissons Ratio (x) = 0.22730 -0.09083
# Poissons Ratio (y) = 0.16457 0.39964
# Poissons Ratio (z) = -0.04964 0.30164
#
# Static dielectric constant tensor:
#      x y z
#    x 3.499480 0.000000 0.000000 
#    y 0.000000 3.867610 0.000000 
#    z 0.000000 0.000000 3.621620 
# 
# 
# High freq. dielectric constant tensor:
#      x y z
#    x 1.763830 0.000000 0.000000 
#    y 0.000000 1.796740 0.000000 
#    z 0.000000 0.000000 1.795130 
# 
# From -- ./inp_files/12020.got.cif
#   From: 2010.03.12/outbox.cif.g09.slc.cpg/sg70_7_cif.got.tgz:12020.got - 2010.04.16 13:46:32.
