data_PCOD8286213
_publ_section_title
;
Structure prediction by ZEFSAII (Michael W. Deem and Ramdas Pophale) SiO2 
 PCOD8286213
Probable space group: F D D D
;
_chemical_formula_sum "Si O2"
_cell_formula_units_Z 184
_cell_length_a 15.722512
_cell_length_b 23.219202
_cell_length_c 23.367077
_cell_angle_alpha 90.000000
_cell_angle_beta 90.000000
_cell_angle_gamma 90.000000
_cell_volume 8530.482852
_symmetry_space_group_name_H-M "F D D D"
_symmetry_group_IT_number 70
_space_group.IT_coordinate_system_code '2'
_symmetry_cell_setting 'orthorhombic'
loop_
_space_group_symop_operation_xyz
x,y,z
1/4-x,1/4-y,z
x,1/4-y,1/4-z
1/4-x,y,1/4-z
-x,-y,-z
3/4+x,3/4+y,-z
-x,3/4+y,3/4+z
3/4+x,-y,3/4+z
x,1/2+y,1/2+z
1/4-x,3/4-y,1/2+z
x,3/4-y,3/4-z
1/4-x,1/2+y,3/4-z
-x,1/2-y,1/2-z
3/4+x,1/4+y,1/2-z
-x,1/4+y,1/4+z
3/4+x,1/2-y,1/4+z
1/2+x,y,1/2+z
3/4-x,1/4-y,1/2+z
1/2+x,1/4-y,3/4-z
3/4-x,y,3/4-z
1/2-x,-y,1/2-z
1/4+x,3/4+y,1/2-z
1/2-x,3/4+y,1/4+z
1/4+x,-y,1/4+z
1/2+x,1/2+y,z
3/4-x,3/4-y,z
1/2+x,3/4-y,1/4-z
3/4-x,1/2+y,1/4-z
1/2-x,1/2-y,-z
1/4+x,1/4+y,-z
1/2-x,1/4+y,3/4+z
1/4+x,1/2-y,3/4+z
loop_
_atom_site_type_symbol
_atom_site_label
_atom_site_fract_x
_atom_site_fract_y
_atom_site_fract_z
Si Si1 0.125000 0.735557 0.125000
Si Si2 0.304878 0.771829 0.306218
Si Si3 0.447166 0.749661 0.159778
Si Si4 0.602989 0.943020 0.237358
Si Si5 0.625000 0.625000 0.125000
Si Si6 0.803419 0.187768 0.103643
Si Si7 0.051116 0.933663 0.015445
O O1 0.116484 0.774337 0.181245
O O2 0.205783 0.693742 0.121496
O O3 0.263222 0.738366 0.359186
O O4 0.235488 0.778471 0.256310
O O5 0.322451 0.835268 0.331051
O O6 0.383780 0.735070 0.283557
O O7 0.352565 0.740101 0.135726
O O8 0.468042 0.691990 0.197813
O O9 0.461579 0.805546 0.200674
O O10 0.676253 0.944790 0.286143
O O11 0.589686 0.877191 0.219288
O O12 0.834920 0.125000 0.125000
#
# Coordination Sequence:
#
# PCOD8286213 Si02
#       7
#    16  32  32  32   8  32  32
#     4  12  27  47  66 102 127 179 242 292 330 398
#     4  11  23  38  61  96 130 176 216 262 325 413
#     4  10  21  37  64  94 129 168 217 259 327 408
#     4  11  26  42  71  94 140 177 223 284 347 392
#     4  12  20  34  60 100 130 174 224 244 324 432
#     4  11  23  47  72  94 131 183 234 281 335 411
#     4  11  21  39  63 100 139 169 205 275 337 403
#
# _framework density 21.569704999999999
#
# number of rings (size 3 to 8) (size 9 to 14) (size 15 to 20)
#    0.000    1.043    3.478    2.870    7.304    0.000 
#    0.000    0.000    0.000    0.000    0.000    0.000 
#    0.000    0.000    0.000    0.000    0.000    0.000 
#
# Total GULP energy -569983.035882 kJ/mol
# GULP energy per Si atom -12390.935563 kJ/mol
# Density = 2.152061 g / cm^3
# Si number density = 21.569705 Si / 1000 Ang^3
#
#
#
# Elastic Constant Matrix: (Units=GPa)
#
#
# Indices 1 2 3 4 5 6 
#
# 1 94.2413 22.6462 33.2785 0.0000 0.0000 0.0000
# 2 22.6462 75.3813 27.6502 0.0000 0.0000 0.0000
# 3 33.2785 27.6502 124.8660 0.0000 0.0000 0.0000
# 4 0.0000 0.0000 0.0000 25.4282 0.0000 0.0000
# 5 0.0000 0.0000 0.0000 0.0000 18.8597 0.0000
# 6 0.0000 0.0000 0.0000 0.0000 0.0000 84.9534
#
#
#
# Elastic Compliance Matrix: (Units=1/GPa)
#
#
# Indices 1 2 3 4 5 6 
#
# 1 0.012195 -0.002690 -0.002654 0.000000 0.000000 0.000000
# 2 -0.002690 0.015032 -0.002612 0.000000 0.000000 0.000000
# 3 -0.002654 -0.002612 0.009294 0.000000 0.000000 0.000000
# 4 0.000000 0.000000 0.000000 0.039326 0.000000 0.000000
# 5 0.000000 0.000000 0.000000 0.000000 0.053023 0.000000
# 6 0.000000 0.000000 0.000000 0.000000 0.000000 0.011771
#
#
# Mechanical properties :
#
#
# Convention : Reuss Voigt Hill
#
# Bulk Modulus (GPa) = 48.52266 51.29316 49.90791
# Shear Modulus (GPa) = 30.59532 39.90918 35.25225
#
# Velocity S-wave (km/s) = 3.77030 4.30611 4.04708
# Velocity P-wave (km/s) = 6.44191 6.96816 6.71019
#
# Compressibility (1/GPa) = 0.02060893
#
# Stress axis : x y z
#
# Youngs Moduli (GPa) = 82.00227 66.52473 107.59197
#
# Poissons Ratio (x) = 0.17895 0.28560
# Poissons Ratio (y) = 0.22058 0.28101
# Poissons Ratio (z) = 0.21767 0.17375
#
# Static dielectric constant tensor:
#      x y z
#    x 3.801180 0.000000 0.000000 
#    y 0.000000 3.588550 0.000000 
#    z 0.000000 0.000000 4.169310 
# 
# 
# High freq. dielectric constant tensor:
#      x y z
#    x 1.845040 0.000000 0.000000 
#    y 0.000000 1.821930 0.000000 
#    z 0.000000 0.000000 1.866900 
# 
# From -- ./inp_files/37618.got.cif
#   From: 2010.03.12/outbox.cif.g09.slc.cpg/sg70_19_cif.got.tgz:37618.got - 2010.04.16 13:46:32.
