data_PCOD8286434
_publ_section_title
;
Structure prediction by ZEFSAII (Michael W. Deem and Ramdas Pophale) SiO2 
 PCOD8286434
Probable space group: F D D D
;
_chemical_formula_sum "Si O2"
_cell_formula_units_Z 168
_cell_length_a 13.314974
_cell_length_b 25.894424
_cell_length_c 20.801234
_cell_angle_alpha 90.000000
_cell_angle_beta 90.000000
_cell_angle_gamma 90.000000
_cell_volume 7171.923975
_symmetry_space_group_name_H-M "F D D D"
_symmetry_group_IT_number 70
_space_group.IT_coordinate_system_code '2'
_symmetry_cell_setting 'orthorhombic'
loop_
_space_group_symop_operation_xyz
x,y,z
1/4-x,1/4-y,z
x,1/4-y,1/4-z
1/4-x,y,1/4-z
-x,-y,-z
3/4+x,3/4+y,-z
-x,3/4+y,3/4+z
3/4+x,-y,3/4+z
x,1/2+y,1/2+z
1/4-x,3/4-y,1/2+z
x,3/4-y,3/4-z
1/4-x,1/2+y,3/4-z
-x,1/2-y,1/2-z
3/4+x,1/4+y,1/2-z
-x,1/4+y,1/4+z
3/4+x,1/2-y,1/4+z
1/2+x,y,1/2+z
3/4-x,1/4-y,1/2+z
1/2+x,1/4-y,3/4-z
3/4-x,y,3/4-z
1/2-x,-y,1/2-z
1/4+x,3/4+y,1/2-z
1/2-x,3/4+y,1/4+z
1/4+x,-y,1/4+z
1/2+x,1/2+y,z
3/4-x,3/4-y,z
1/2+x,3/4-y,1/4-z
3/4-x,1/2+y,1/4-z
1/2-x,1/2-y,-z
1/4+x,1/4+y,-z
1/2-x,1/4+y,3/4+z
1/4+x,1/2-y,3/4+z
loop_
_atom_site_type_symbol
_atom_site_label
_atom_site_fract_x
_atom_site_fract_y
_atom_site_fract_z
Si Si1 0.625000 0.125000 0.625000
Si Si2 0.799564 0.716600 0.664050
Si Si3 0.863347 0.795131 0.237971
Si Si4 0.027426 0.334613 0.271631
Si Si5 0.652819 0.566456 0.348898
Si Si6 0.325025 0.569550 0.226096
O O1 0.692939 0.091555 0.673441
O O2 0.708014 0.691156 0.702613
O O3 0.902000 0.709652 0.702295
O O4 0.803083 0.779171 0.655800
O O5 0.802416 0.683936 0.599287
O O6 0.804914 0.805852 0.170909
O O7 0.883162 0.734824 0.250345
O O8 0.966349 0.829112 0.239475
O O9 0.092753 0.386742 0.258556
O O10 0.985520 0.309188 0.206313
O O11 0.625000 0.625000 0.338895
#
# Coordination Sequence:
#
# PCOD8286434 Si02
#       6
#     8  32  32  32  32  32
#     4  12  24  44  72  90 132 184 230 276 352 418
#     4  11  23  43  70 105 132 183 240 289 344 421
#     4  10  24  42  68 100 144 178 227 294 352 418
#     4  12  24  43  70  98 132 183 236 285 340 417
#     4  11  25  43  64 100 142 182 226 283 356 411
#     4  10  22  45  69 100 136 188 233 280 357 420
#
# _framework density 23.424676000000002
#
# number of rings (size 3 to 8) (size 9 to 14) (size 15 to 20)
#    0.000    1.143    2.857    2.286    2.667    0.762 
#    0.000    3.810    0.000    0.000    0.000    0.000 
#    0.000    0.000    0.000    0.000    0.000    0.000 
#
# Total GULP energy -520434.623470 kJ/mol
# GULP energy per Si atom -12391.300559 kJ/mol
# Density = 2.337136 g / cm^3
# Si number density = 23.424676 Si / 1000 Ang^3
#
#
#
# Elastic Constant Matrix: (Units=GPa)
#
#
# Indices 1 2 3 4 5 6 
#
# 1 89.8699 10.3707 34.1191 0.0000 0.0000 0.0000
# 2 10.3707 53.2511 2.1774 0.0000 0.0000 0.0000
# 3 34.1191 2.1774 116.7045 0.0000 0.0000 0.0000
# 4 0.0000 0.0000 0.0000 30.8278 0.0000 0.0000
# 5 0.0000 0.0000 0.0000 0.0000 41.2947 0.0000
# 6 0.0000 0.0000 0.0000 0.0000 0.0000 25.4524
#
#
#
# Elastic Compliance Matrix: (Units=1/GPa)
#
#
# Indices 1 2 3 4 5 6 
#
# 1 0.012802 -0.002342 -0.003699 0.000000 0.000000 0.000000
# 2 -0.002342 0.019222 0.000326 0.000000 0.000000 0.000000
# 3 -0.003699 0.000326 0.009644 0.000000 0.000000 0.000000
# 4 0.000000 0.000000 0.000000 0.032438 0.000000 0.000000
# 5 0.000000 0.000000 0.000000 0.000000 0.024216 0.000000
# 6 0.000000 0.000000 0.000000 0.000000 0.000000 0.039289
#
#
# Mechanical properties :
#
#
# Convention : Reuss Voigt Hill
#
# Bulk Modulus (GPa) = 33.07118 39.23997 36.15558
# Shear Modulus (GPa) = 31.42288 33.72554 32.57421
#
# Velocity S-wave (km/s) = 3.66655 3.79851 3.73311
# Velocity P-wave (km/s) = 5.66335 6.00218 5.83522
#
# Compressibility (1/GPa) = 0.03023781
#
# Stress axis : x y z
#
# Youngs Moduli (GPa) = 78.11426 52.02448 103.69171
#
# Poissons Ratio (x) = 0.12184 0.38355
# Poissons Ratio (y) = 0.18294 -0.03381
# Poissons Ratio (z) = 0.28894 -0.01696
#
# Static dielectric constant tensor:
#      x y z
#    x 4.210570 0.000000 0.000000 
#    y 0.000000 4.180210 0.000000 
#    z 0.000000 0.000000 4.542190 
# 
# 
# High freq. dielectric constant tensor:
#      x y z
#    x 1.912550 0.000000 0.000000 
#    y 0.000000 1.934890 0.000000 
#    z 0.000000 0.000000 1.939240 
# 
# From -- ./inp_files/42833.got.cif
#   From: 2010.03.12/outbox.cif.g09.slc.cpg/sg70_22_cif.got.tgz:42833.got - 2010.04.16 13:46:32.
