data_PCOD8286216
_publ_section_title
;
Structure prediction by ZEFSAII (Michael W. Deem and Ramdas Pophale) SiO2 
 PCOD8286216
Probable space group: F D D D
;
_chemical_formula_sum "Si O2"
_cell_formula_units_Z 160
_cell_length_a 18.195644
_cell_length_b 27.837209
_cell_length_c 17.075657
_cell_angle_alpha 90.000000
_cell_angle_beta 90.000000
_cell_angle_gamma 90.000000
_cell_volume 8649.092540
_symmetry_space_group_name_H-M "F D D D"
_symmetry_group_IT_number 70
_space_group.IT_coordinate_system_code '2'
_symmetry_cell_setting 'orthorhombic'
loop_
_space_group_symop_operation_xyz
x,y,z
1/4-x,1/4-y,z
x,1/4-y,1/4-z
1/4-x,y,1/4-z
-x,-y,-z
3/4+x,3/4+y,-z
-x,3/4+y,3/4+z
3/4+x,-y,3/4+z
x,1/2+y,1/2+z
1/4-x,3/4-y,1/2+z
x,3/4-y,3/4-z
1/4-x,1/2+y,3/4-z
-x,1/2-y,1/2-z
3/4+x,1/4+y,1/2-z
-x,1/4+y,1/4+z
3/4+x,1/2-y,1/4+z
1/2+x,y,1/2+z
3/4-x,1/4-y,1/2+z
1/2+x,1/4-y,3/4-z
3/4-x,y,3/4-z
1/2-x,-y,1/2-z
1/4+x,3/4+y,1/2-z
1/2-x,3/4+y,1/4+z
1/4+x,-y,1/4+z
1/2+x,1/2+y,z
3/4-x,3/4-y,z
1/2+x,3/4-y,1/4-z
3/4-x,1/2+y,1/4-z
1/2-x,1/2-y,-z
1/4+x,1/4+y,-z
1/2-x,1/4+y,3/4+z
1/4+x,1/2-y,3/4+z
loop_
_atom_site_type_symbol
_atom_site_label
_atom_site_fract_x
_atom_site_fract_y
_atom_site_fract_z
Si Si1 0.374944 0.617381 0.750455
Si Si2 0.348472 0.699967 0.112794
Si Si3 0.060146 0.573959 0.080480
Si Si4 0.750725 0.626881 0.876780
Si Si5 0.365052 0.941216 0.658370
O O1 0.390926 0.568790 0.701454
O O2 0.360927 0.662898 0.694587
O O3 0.446736 0.629581 0.801562
O O4 0.301181 0.609479 0.799586
O O5 0.263634 0.705943 0.088770
O O6 0.380557 0.752710 0.101272
O O7 0.048203 0.625000 0.125000
O O8 0.125000 0.545153 0.125000
O O9 0.087026 0.578546 0.991884
O O10 0.702089 0.578871 0.895936
O O11 0.693929 0.669751 0.862207
#
# Coordination Sequence:
#
# PCOD8286216 Si02
#       5
#    32  32  32  32  32
#     4  10  21  38  58  79 117 152 192 240 294 354
#     4  11  21  37  56  86 115 151 197 242 298 352
#     4  11  19  32  57  86 121 148 176 236 310 367
#     4  10  21  38  56  81 114 154 189 238 294 353
#     4  11  22  36  57  85 117 150 198 239 297 356
#
# _framework density 18.49905
#
# number of rings (size 3 to 8) (size 9 to 14) (size 15 to 20)
#    0.000    1.400    4.000    4.200    0.000    4.000 
#    0.000    0.000    0.000    9.600    0.000    0.000 
#    0.000    0.000    0.000    0.000    0.000    0.000 
#
# Total GULP energy -495721.919227 kJ/mol
# GULP energy per Si atom -12393.047981 kJ/mol
# Density = 1.845695 g / cm^3
# Si number density = 18.499050 Si / 1000 Ang^3
#
#
#
# Elastic Constant Matrix: (Units=GPa)
#
#
# Indices 1 2 3 4 5 6 
#
# 1 124.8685 34.4785 44.8931 0.0000 0.0000 0.0000
# 2 34.4785 124.4219 33.5825 0.0000 0.0000 0.0000
# 3 44.8931 33.5825 81.5556 0.0000 0.0000 0.0000
# 4 0.0000 0.0000 0.0000 14.6454 0.0000 0.0000
# 5 0.0000 0.0000 0.0000 0.0000 29.8077 0.0000
# 6 0.0000 0.0000 0.0000 0.0000 0.0000 16.1263
#
#
#
# Elastic Compliance Matrix: (Units=1/GPa)
#
#
# Indices 1 2 3 4 5 6 
#
# 1 0.010220 -0.001478 -0.005017 0.000000 0.000000 0.000000
# 2 -0.001478 0.009256 -0.002998 0.000000 0.000000 0.000000
# 3 -0.005017 -0.002998 0.016258 0.000000 0.000000 0.000000
# 4 0.000000 0.000000 0.000000 0.068281 0.000000 0.000000
# 5 0.000000 0.000000 0.000000 0.000000 0.033548 0.000000
# 6 0.000000 0.000000 0.000000 0.000000 0.000000 0.062011
#
#
# Mechanical properties :
#
#
# Convention : Reuss Voigt Hill
#
# Bulk Modulus (GPa) = 59.70884 61.86161 60.78523
# Shear Modulus (GPa) = 22.30721 26.64199 24.47460
#
# Velocity S-wave (km/s) = 3.47631 3.79909 3.64128
# Velocity P-wave (km/s) = 6.96131 7.26341 7.11396
#
# Compressibility (1/GPa) = 0.01674794
#
# Stress axis : x y z
#
# Youngs Moduli (GPa) = 97.84400 108.03986 61.50890
#
# Poissons Ratio (x) = 0.15968 0.30861
# Poissons Ratio (y) = 0.14461 0.18439
# Poissons Ratio (z) = 0.49091 0.32388
#
# Static dielectric constant tensor:
#      x y z
#    x 3.643390 0.000000 0.000000 
#    y 0.000000 3.182160 0.000000 
#    z 0.000000 0.000000 3.435090 
# 
# 
# High freq. dielectric constant tensor:
#      x y z
#    x 1.727180 0.000000 0.000000 
#    y 0.000000 1.701700 0.000000 
#    z 0.000000 0.000000 1.709960 
# 
# From -- ./inp_files/35390.got.cif
#   From: 2010.03.12/outbox.cif.g09.slc.cpg/sg70_18_cif.got.tgz:35390.got - 2010.04.16 13:46:32.
