data_PCOD8286634
_publ_section_title
;
Structure prediction by ZEFSAII (Michael W. Deem and Ramdas Pophale) SiO2 
 PCOD8286634
Probable space group: F D D D
;
_chemical_formula_sum "Si O2"
_cell_formula_units_Z 160
_cell_length_a 21.769013
_cell_length_b 23.857960
_cell_length_c 13.663877
_cell_angle_alpha 90.000000
_cell_angle_beta 90.000000
_cell_angle_gamma 90.000000
_cell_volume 7096.529113
_symmetry_space_group_name_H-M "F D D D"
_symmetry_group_IT_number 70
_space_group.IT_coordinate_system_code '2'
_symmetry_cell_setting 'orthorhombic'
loop_
_space_group_symop_operation_xyz
x,y,z
1/4-x,1/4-y,z
x,1/4-y,1/4-z
1/4-x,y,1/4-z
-x,-y,-z
3/4+x,3/4+y,-z
-x,3/4+y,3/4+z
3/4+x,-y,3/4+z
x,1/2+y,1/2+z
1/4-x,3/4-y,1/2+z
x,3/4-y,3/4-z
1/4-x,1/2+y,3/4-z
-x,1/2-y,1/2-z
3/4+x,1/4+y,1/2-z
-x,1/4+y,1/4+z
3/4+x,1/2-y,1/4+z
1/2+x,y,1/2+z
3/4-x,1/4-y,1/2+z
1/2+x,1/4-y,3/4-z
3/4-x,y,3/4-z
1/2-x,-y,1/2-z
1/4+x,3/4+y,1/2-z
1/2-x,3/4+y,1/4+z
1/4+x,-y,1/4+z
1/2+x,1/2+y,z
3/4-x,3/4-y,z
1/2+x,3/4-y,1/4-z
3/4-x,1/2+y,1/4-z
1/2-x,1/2-y,-z
1/4+x,1/4+y,-z
1/2-x,1/4+y,3/4+z
1/4+x,1/2-y,3/4+z
loop_
_atom_site_type_symbol
_atom_site_label
_atom_site_fract_x
_atom_site_fract_y
_atom_site_fract_z
Si Si1 0.806604 0.137257 0.867093
Si Si2 0.181912 0.513703 0.070277
Si Si3 0.727107 0.583477 0.207300
Si Si4 0.919145 0.500620 0.593186
Si Si5 0.196307 0.825844 0.805516
O O1 0.875000 0.112862 0.875000
O O2 0.807570 0.203902 0.872555
O O3 0.774383 0.121400 0.766965
O O4 0.776096 0.104394 0.957359
O O5 0.125000 0.543624 0.125000
O O6 0.244308 0.545100 0.097340
O O7 0.161042 0.512579 0.957179
O O8 0.697793 0.625000 0.125000
O O9 0.674905 0.556048 0.276962
O O10 0.766504 0.533808 0.159135
O O11 0.860851 0.533035 0.547085
O O12 0.171896 0.875000 0.875000
#
# Coordination Sequence:
#
# PCOD8286634 Si02
#       5
#    32  32  32  32  32
#     4  11  21  40  71  98 138 187 239 288 360 434
#     4  11  25  43  69 104 138 182 241 303 356 434
#     4  11  21  40  70 104 145 186 236 295 361 422
#     4  11  23  41  71 102 142 186 242 298 355 437
#     4  12  25  44  71 100 138 192 239 296 365 433
#
# _framework density 22.546233999999998
#
# number of rings (size 3 to 8) (size 9 to 14) (size 15 to 20)
#    0.000    0.800    6.000    3.000    0.000    3.600 
#    0.000    1.000    4.400    0.000    0.000    0.000 
#    0.000    0.000    0.000    0.000    0.000    0.000 
#
# Total GULP energy -495820.656916 kJ/mol
# GULP energy per Si atom -12395.516423 kJ/mol
# Density = 2.249492 g / cm^3
# Si number density = 22.546234 Si / 1000 Ang^3
#
#
#
# Elastic Constant Matrix: (Units=GPa)
#
#
# Indices 1 2 3 4 5 6 
#
# 1 106.9758 55.1753 35.3090 0.0000 0.0000 0.0000
# 2 55.1753 99.4105 44.2531 0.0000 0.0000 0.0000
# 3 35.3090 44.2531 121.1769 0.0000 0.0000 0.0000
# 4 0.0000 0.0000 0.0000 51.9865 0.0000 0.0000
# 5 0.0000 0.0000 0.0000 0.0000 29.7530 0.0000
# 6 0.0000 0.0000 0.0000 0.0000 0.0000 -188.1375
#
#
#
# Elastic Compliance Matrix: (Units=1/GPa)
#
#
# Indices 1 2 3 4 5 6 
#
# 1 0.013295 -0.006752 -0.001408 0.000000 0.000000 0.000000
# 2 -0.006752 0.015442 -0.003672 0.000000 0.000000 0.000000
# 3 -0.001408 -0.003672 0.010004 0.000000 0.000000 0.000000
# 4 0.000000 0.000000 0.000000 0.019236 0.000000 0.000000
# 5 0.000000 0.000000 0.000000 0.000000 0.033610 0.000000
# 6 0.000000 0.000000 0.000000 0.000000 0.000000 -0.005315
#
#
# Mechanical properties :
#
#
# Convention : Reuss Voigt Hill
#
# Bulk Modulus (GPa) = 66.32996 66.33757 66.33377
# Shear Modulus (GPa) = 43.49311 -8.42454 17.53429
#
# Velocity S-wave (km/s) = 4.39688 -1.93512 2.79176
# Velocity P-wave (km/s) = 7.43371 4.94913 6.31482
#
# Compressibility (1/GPa) = 0.01507614
#
# Stress axis : x y z
#
# Youngs Moduli (GPa) = 75.21392 64.76053 99.96451
#
# Poissons Ratio (x) = 0.43729 0.14076
# Poissons Ratio (y) = 0.50788 0.36703
# Poissons Ratio (z) = 0.10591 0.23777
#
# Static dielectric constant tensor:
#      x y z
#    x 3.949180 0.000000 0.000000 
#    y 0.000000 4.045080 0.000000 
#    z 0.000000 0.000000 4.253200 
# 
# 
# High freq. dielectric constant tensor:
#      x y z
#    x 1.877680 0.000000 0.000000 
#    y 0.000000 1.886410 0.000000 
#    z 0.000000 0.000000 1.897310 
# 
# From -- ./inp_files/28665.got.cif
#   From: 2010.03.12/outbox.cif.g09.slc.cpg/sg70_15_cif.got.tgz:28665.got - 2010.04.16 13:46:32.
