data_PCOD8286406
_publ_section_title
;
Structure prediction by ZEFSAII (Michael W. Deem and Ramdas Pophale) SiO2 
 PCOD8286406
Probable space group: F D D D
;
_chemical_formula_sum "Si O2"
_cell_formula_units_Z 192
_cell_length_a 16.763600
_cell_length_b 32.362404
_cell_length_c 16.287199
_cell_angle_alpha 90.000000
_cell_angle_beta 90.000000
_cell_angle_gamma 90.000000
_cell_volume 8835.974774
_symmetry_space_group_name_H-M "F D D D"
_symmetry_group_IT_number 70
_space_group.IT_coordinate_system_code '2'
_symmetry_cell_setting 'orthorhombic'
loop_
_space_group_symop_operation_xyz
x,y,z
1/4-x,1/4-y,z
x,1/4-y,1/4-z
1/4-x,y,1/4-z
-x,-y,-z
3/4+x,3/4+y,-z
-x,3/4+y,3/4+z
3/4+x,-y,3/4+z
x,1/2+y,1/2+z
1/4-x,3/4-y,1/2+z
x,3/4-y,3/4-z
1/4-x,1/2+y,3/4-z
-x,1/2-y,1/2-z
3/4+x,1/4+y,1/2-z
-x,1/4+y,1/4+z
3/4+x,1/2-y,1/4+z
1/2+x,y,1/2+z
3/4-x,1/4-y,1/2+z
1/2+x,1/4-y,3/4-z
3/4-x,y,3/4-z
1/2-x,-y,1/2-z
1/4+x,3/4+y,1/2-z
1/2-x,3/4+y,1/4+z
1/4+x,-y,1/4+z
1/2+x,1/2+y,z
3/4-x,3/4-y,z
1/2+x,3/4-y,1/4-z
3/4-x,1/2+y,1/4-z
1/2-x,1/2-y,-z
1/4+x,1/4+y,-z
1/2-x,1/4+y,3/4+z
1/4+x,1/2-y,3/4+z
loop_
_atom_site_type_symbol
_atom_site_label
_atom_site_fract_x
_atom_site_fract_y
_atom_site_fract_z
Si Si1 0.695163 0.656436 0.021013
Si Si2 0.375000 0.773446 0.375000
Si Si3 0.087955 0.875000 0.875000
Si Si4 0.757418 0.224486 0.894030
Si Si5 0.853258 0.419149 0.089085
Si Si6 0.841936 0.704426 0.548309
Si Si7 0.230556 0.243094 0.781768
O O1 0.625000 0.625000 0.047082
O O2 0.679662 0.699878 0.064730
O O3 0.781171 0.639732 0.050232
O O4 0.695995 0.662297 0.923312
O O5 0.318513 0.744614 0.319758
O O6 0.147761 0.840756 0.912465
O O7 0.684461 0.192957 0.894631
O O8 0.737788 0.271700 0.922140
O O9 0.780941 0.230608 0.800395
O O10 0.829478 0.204861 0.948602
O O11 0.875000 0.375000 0.048668
O O12 0.796333 0.445090 0.027331
O O13 0.915703 0.731440 0.585041
#
# Coordination Sequence:
#
# PCOD8286406 Si02
#       7
#    32  16  16  32  32  32  32
#     4  11  19  35  59  94 136 172 205 265 344 404
#     4  12  19  34  66  94 126 176 212 262 336 409
#     4  12  21  36  66 102 133 170 220 278 338 416
#     4  10  22  43  63  86 128 175 225 274 321 392
#     4  10  24  40  63  92 131 172 218 275 336 395
#     4  10  23  39  64  93 123 174 227 270 324 394
#     4  11  22  40  63  92 129 175 218 271 334 399
#
# _framework density 21.729351000000001
#
# number of rings (size 3 to 8) (size 9 to 14) (size 15 to 20)
#    0.000    1.333    5.000    0.500    2.333    3.333 
#    0.000    0.000    0.000    9.000    0.000    0.000 
#    0.000    0.000    0.000    0.000    0.000    0.000 
#
# Total GULP energy -594781.226547 kJ/mol
# GULP energy per Si atom -12391.275553 kJ/mol
# Density = 2.167989 g / cm^3
# Si number density = 21.729351 Si / 1000 Ang^3
#
#
#
# Elastic Constant Matrix: (Units=GPa)
#
#
# Indices 1 2 3 4 5 6 
#
# 1 92.1635 58.3193 45.3175 0.0000 0.0000 0.0000
# 2 58.3193 161.6014 37.5002 0.0000 0.0000 0.0000
# 3 45.3175 37.5002 55.9479 0.0000 0.0000 0.0000
# 4 0.0000 0.0000 0.0000 18.1268 0.0000 0.0000
# 5 0.0000 0.0000 0.0000 0.0000 12.9452 0.0000
# 6 0.0000 0.0000 0.0000 0.0000 0.0000 34.6957
#
#
#
# Elastic Compliance Matrix: (Units=1/GPa)
#
#
# Indices 1 2 3 4 5 6 
#
# 1 0.020107 -0.004117 -0.013527 0.000000 0.000000 0.000000
# 2 -0.004117 0.008171 -0.002142 0.000000 0.000000 0.000000
# 3 -0.013527 -0.002142 0.030266 0.000000 0.000000 0.000000
# 4 0.000000 0.000000 0.000000 0.055167 0.000000 0.000000
# 5 0.000000 0.000000 0.000000 0.000000 0.077249 0.000000
# 6 0.000000 0.000000 0.000000 0.000000 0.000000 0.028822
#
#
# Mechanical properties :
#
#
# Convention : Reuss Voigt Hill
#
# Bulk Modulus (GPa) = 52.70891 65.77632 59.24262
# Shear Modulus (GPa) = 18.81986 24.39194 21.60590
#
# Velocity S-wave (km/s) = 2.94616 3.35406 3.15670
# Velocity P-wave (km/s) = 5.99022 6.73321 6.37255
#
# Compressibility (1/GPa) = 0.01897212
#
# Stress axis : x y z
#
# Youngs Moduli (GPa) = 49.73435 122.38517 33.04048
#
# Poissons Ratio (x) = 0.50390 0.44693
# Poissons Ratio (y) = 0.20477 0.07076
# Poissons Ratio (z) = 0.67274 0.26212
#
# Static dielectric constant tensor:
#      x y z
#    x 3.879250 0.000000 0.000000 
#    y 0.000000 3.966790 0.000000 
#    z 0.000000 0.000000 3.908650 
# 
# 
# High freq. dielectric constant tensor:
#      x y z
#    x 1.849600 0.000000 0.000000 
#    y 0.000000 1.846910 0.000000 
#    z 0.000000 0.000000 1.841290 
# 
# From -- ./inp_files/35501.got.cif
#   From: 2010.03.12/outbox.cif.g09.slc.cpg/sg70_18_cif.got.tgz:35501.got - 2010.04.16 13:46:32.
