data_PCOD8286504
_publ_section_title
;
Structure prediction by ZEFSAII (Michael W. Deem and Ramdas Pophale) SiO2 
 PCOD8286504
Probable space group: F D D D
;
_chemical_formula_sum "Si O2"
_cell_formula_units_Z 168
_cell_length_a 26.313161
_cell_length_b 13.530944
_cell_length_c 21.767348
_cell_angle_alpha 90.000000
_cell_angle_beta 90.000000
_cell_angle_gamma 90.000000
_cell_volume 7750.088113
_symmetry_space_group_name_H-M "F D D D"
_symmetry_group_IT_number 70
_space_group.IT_coordinate_system_code '2'
_symmetry_cell_setting 'orthorhombic'
loop_
_space_group_symop_operation_xyz
x,y,z
1/4-x,1/4-y,z
x,1/4-y,1/4-z
1/4-x,y,1/4-z
-x,-y,-z
3/4+x,3/4+y,-z
-x,3/4+y,3/4+z
3/4+x,-y,3/4+z
x,1/2+y,1/2+z
1/4-x,3/4-y,1/2+z
x,3/4-y,3/4-z
1/4-x,1/2+y,3/4-z
-x,1/2-y,1/2-z
3/4+x,1/4+y,1/2-z
-x,1/4+y,1/4+z
3/4+x,1/2-y,1/4+z
1/2+x,y,1/2+z
3/4-x,1/4-y,1/2+z
1/2+x,1/4-y,3/4-z
3/4-x,y,3/4-z
1/2-x,-y,1/2-z
1/4+x,3/4+y,1/2-z
1/2-x,3/4+y,1/4+z
1/4+x,-y,1/4+z
1/2+x,1/2+y,z
3/4-x,3/4-y,z
1/2+x,3/4-y,1/4-z
3/4-x,1/2+y,1/4-z
1/2-x,1/2-y,-z
1/4+x,1/4+y,-z
1/2-x,1/4+y,3/4+z
1/4+x,1/2-y,3/4+z
loop_
_atom_site_type_symbol
_atom_site_label
_atom_site_fract_x
_atom_site_fract_y
_atom_site_fract_z
Si Si1 0.304242 0.026812 0.666570
Si Si2 0.306232 0.723223 0.520025
Si Si3 0.926226 0.220462 0.362943
Si Si4 0.012406 0.875000 0.875000
Si Si5 0.375000 0.875000 0.156239
Si Si6 0.625000 0.625000 0.625000
Si Si7 0.940590 0.032885 0.441543
O O1 0.303972 0.125000 0.625000
O O2 0.319981 0.052638 0.736324
O O3 0.342816 0.948257 0.636663
O O4 0.249001 0.978583 0.671686
O O5 0.250000 0.750000 0.500000
O O6 0.330708 0.685372 0.457485
O O7 0.300818 0.632326 0.567600
O O8 0.336349 0.814851 0.550004
O O9 0.875000 0.285279 0.375000
O O10 0.977379 0.278527 0.380012
O O11 0.920596 0.126978 0.405977
O O12 0.660070 0.687177 0.579415
#
# Coordination Sequence:
#
# PCOD8286504 Si02
#       7
#    32  32  32  16  16   8  32
#     4  11  26  46  70 102 139 190 236 294 350 420
#     4  10  25  44  67 101 138 186 228 288 353 414
#     4  11  24  40  68 103 132 174 229 286 352 415
#     4  10  23  44  65  96 142 181 222 285 350 418
#     4  12  27  46  71 105 147 186 240 292 354 431
#     4  12  22  48  70  98 142 190 236 294 344 426
#     4  11  25  46  70 104 139 187 241 292 353 412
#
# _framework density 21.677173
#
# number of rings (size 3 to 8) (size 9 to 14) (size 15 to 20)
#    0.000    1.143    1.905    3.143    9.333    1.524 
#    3.429    0.000    0.000    0.000    0.000    0.000 
#    0.000    0.000    0.000    0.000    0.000    0.000 
#
# Total GULP energy -520445.595618 kJ/mol
# GULP energy per Si atom -12391.561800 kJ/mol
# Density = 2.162783 g / cm^3
# Si number density = 21.677173 Si / 1000 Ang^3
#
#
#
# Elastic Constant Matrix: (Units=GPa)
#
#
# Indices 1 2 3 4 5 6 
#
# 1 107.8093 39.2052 73.3227 0.0000 0.0000 0.0000
# 2 39.2052 107.3073 79.4902 0.0000 0.0000 0.0000
# 3 73.3227 79.4902 209.8750 0.0000 0.0000 0.0000
# 4 0.0000 0.0000 0.0000 30.8987 0.0000 0.0000
# 5 0.0000 0.0000 0.0000 0.0000 -9.2367 0.0000
# 6 0.0000 0.0000 0.0000 0.0000 0.0000 50.2576
#
#
#
# Elastic Compliance Matrix: (Units=1/GPa)
#
#
# Indices 1 2 3 4 5 6 
#
# 1 0.012422 -0.001840 -0.003643 0.000000 0.000000 0.000000
# 2 -0.001840 0.013226 -0.004366 0.000000 0.000000 0.000000
# 3 -0.003643 -0.004366 0.007691 0.000000 0.000000 0.000000
# 4 0.000000 0.000000 0.000000 0.032364 0.000000 0.000000
# 5 0.000000 0.000000 0.000000 0.000000 -0.108264 0.000000
# 6 0.000000 0.000000 0.000000 0.000000 0.000000 0.019897
#
#
# Mechanical properties :
#
#
# Convention : Reuss Voigt Hill
#
# Bulk Modulus (GPa) = 73.31043 89.89196 81.60120
# Shear Modulus (GPa) = 3158.64108 29.91550 1594.27829
#
# Velocity S-wave (km/s) = 38.21376 3.71893 27.14886
# Velocity P-wave (km/s) = 44.50784 7.74591 31.94485
#
# Compressibility (1/GPa) = 0.01364062
#
# Stress axis : x y z
#
# Youngs Moduli (GPa) = 80.49956 75.60976 130.01696
#
# Poissons Ratio (x) = 0.13911 0.47366
# Poissons Ratio (y) = 0.14811 0.56772
# Poissons Ratio (z) = 0.29327 0.33015
#
# Static dielectric constant tensor:
#      x y z
#    x 4.337700 0.000000 0.000000 
#    y 0.000000 3.691960 0.000000 
#    z 0.000000 0.000000 5.272510 
# 
# 
# High freq. dielectric constant tensor:
#      x y z
#    x 1.880210 0.000000 0.000000 
#    y 0.000000 1.839180 0.000000 
#    z 0.000000 0.000000 1.874350 
# 
# From -- ./inp_files/46799.got.cif
#   From: 2010.03.12/outbox.cif.g09.slc.cpg/sg70_24_cif.got.tgz:46799.got - 2010.04.16 13:46:32.
