data_PCOD8286482
_publ_section_title
;
Structure prediction by ZEFSAII (Michael W. Deem and Ramdas Pophale) SiO2 
 PCOD8286482
Probable space group: F D D D
;
_chemical_formula_sum "Si O2"
_cell_formula_units_Z 160
_cell_length_a 16.650556
_cell_length_b 24.015000
_cell_length_c 19.145027
_cell_angle_alpha 90.000000
_cell_angle_beta 90.000000
_cell_angle_gamma 90.000000
_cell_volume 7655.389891
_symmetry_space_group_name_H-M "F D D D"
_symmetry_group_IT_number 70
_space_group.IT_coordinate_system_code '2'
_symmetry_cell_setting 'orthorhombic'
loop_
_space_group_symop_operation_xyz
x,y,z
1/4-x,1/4-y,z
x,1/4-y,1/4-z
1/4-x,y,1/4-z
-x,-y,-z
3/4+x,3/4+y,-z
-x,3/4+y,3/4+z
3/4+x,-y,3/4+z
x,1/2+y,1/2+z
1/4-x,3/4-y,1/2+z
x,3/4-y,3/4-z
1/4-x,1/2+y,3/4-z
-x,1/2-y,1/2-z
3/4+x,1/4+y,1/2-z
-x,1/4+y,1/4+z
3/4+x,1/2-y,1/4+z
1/2+x,y,1/2+z
3/4-x,1/4-y,1/2+z
1/2+x,1/4-y,3/4-z
3/4-x,y,3/4-z
1/2-x,-y,1/2-z
1/4+x,3/4+y,1/2-z
1/2-x,3/4+y,1/4+z
1/4+x,-y,1/4+z
1/2+x,1/2+y,z
3/4-x,3/4-y,z
1/2+x,3/4-y,1/4-z
3/4-x,1/2+y,1/4-z
1/2-x,1/2-y,-z
1/4+x,1/4+y,-z
1/2-x,1/4+y,3/4+z
1/4+x,1/2-y,3/4+z
loop_
_atom_site_type_symbol
_atom_site_label
_atom_site_fract_x
_atom_site_fract_y
_atom_site_fract_z
Si Si1 0.549189 0.478036 0.739908
Si Si2 0.332196 0.635366 0.047203
Si Si3 0.548224 0.597778 0.362531
Si Si4 0.806859 0.193980 0.323915
Si Si5 0.561204 0.700737 0.741613
O O1 0.609914 0.432176 0.767437
O O2 0.491115 0.451702 0.682280
O O3 0.499429 0.503849 0.804473
O O4 0.605450 0.527470 0.706188
O O5 0.362165 0.625000 0.125000
O O6 0.341450 0.580633 0.999068
O O7 0.237260 0.652776 0.049696
O O8 0.625000 0.625000 0.322185
O O9 0.483283 0.644269 0.381876
O O10 0.585925 0.570843 0.431865
O O11 0.875000 0.218365 0.375000
O O12 0.500000 0.750000 0.750000
#
# Coordination Sequence:
#
# PCOD8286482 Si02
#       5
#    32  32  32  32  32
#     4  11  23  42  69  91 129 180 224 272 339 405
#     4  10  23  42  63  99 137 166 217 289 331 407
#     4  11  22  43  65  94 134 175 219 282 336 411
#     4  11  23  44  68  96 134 175 226 275 339 401
#     4   9  21  38  63  94 123 163 218 269 343 392
#
# _framework density 20.900307999999999
#
# number of rings (size 3 to 8) (size 9 to 14) (size 15 to 20)
#    0.000    1.600    4.000    0.000    5.600    0.000 
#    3.600    3.000    0.000    0.000    0.000    0.000 
#    0.000    0.000    0.000    0.000    0.000    0.000 
#
# Total GULP energy -495696.846772 kJ/mol
# GULP energy per Si atom -12392.421169 kJ/mol
# Density = 2.085274 g / cm^3
# Si number density = 20.900308 Si / 1000 Ang^3
#
#
#
# Elastic Constant Matrix: (Units=GPa)
#
#
# Indices 1 2 3 4 5 6 
#
# 1 92.6821 29.4713 23.7207 0.0000 0.0000 0.0000
# 2 29.4713 56.9745 12.7825 0.0000 0.0000 0.0000
# 3 23.7207 12.7825 64.7586 0.0000 0.0000 0.0000
# 4 0.0000 0.0000 0.0000 41.1272 0.0000 0.0000
# 5 0.0000 0.0000 0.0000 0.0000 33.1357 0.0000
# 6 0.0000 0.0000 0.0000 0.0000 0.0000 28.3084
#
#
#
# Elastic Compliance Matrix: (Units=1/GPa)
#
#
# Indices 1 2 3 4 5 6 
#
# 1 0.013754 -0.006261 -0.003802 0.000000 0.000000 0.000000
# 2 -0.006261 0.021216 -0.001894 0.000000 0.000000 0.000000
# 3 -0.003802 -0.001894 0.017208 0.000000 0.000000 0.000000
# 4 0.000000 0.000000 0.000000 0.024315 0.000000 0.000000
# 5 0.000000 0.000000 0.000000 0.000000 0.030179 0.000000
# 6 0.000000 0.000000 0.000000 0.000000 0.000000 0.035325
#
#
# Mechanical properties :
#
#
# Convention : Reuss Voigt Hill
#
# Bulk Modulus (GPa) = 35.38242 38.48491 36.93366
# Shear Modulus (GPa) = 28.51725 30.41030 29.46378
#
# Velocity S-wave (km/s) = 3.69784 3.81861 3.75871
# Velocity P-wave (km/s) = 5.93278 6.15596 6.04540
#
# Compressibility (1/GPa) = 0.02826262
#
# Stress axis : x y z
#
# Youngs Moduli (GPa) = 72.70799 47.13528 58.11091
#
# Poissons Ratio (x) = 0.29513 0.22094
# Poissons Ratio (y) = 0.45525 0.11007
# Poissons Ratio (z) = 0.27643 0.08928
#
# Static dielectric constant tensor:
#      x y z
#    x 3.994320 0.000000 0.000000 
#    y 0.000000 3.814930 0.000000 
#    z 0.000000 0.000000 3.698780 
# 
# 
# High freq. dielectric constant tensor:
#      x y z
#    x 1.824700 0.000000 0.000000 
#    y 0.000000 1.820510 0.000000 
#    z 0.000000 0.000000 1.789170 
# 
# From -- ./inp_files/35143.got.cif
#   From: 2010.03.12/outbox.cif.g09.slc.cpg/sg70_18_cif.got.tgz:35143.got - 2010.04.16 13:46:32.
