data_PCOD8286371
_publ_section_title
;
Structure prediction by ZEFSAII (Michael W. Deem and Ramdas Pophale) SiO2 
 PCOD8286371
Probable space group: F D D D
;
_chemical_formula_sum "Si O2"
_cell_formula_units_Z 176
_cell_length_a 12.549175
_cell_length_b 31.204581
_cell_length_c 21.084258
_cell_angle_alpha 90.000000
_cell_angle_beta 90.000000
_cell_angle_gamma 90.000000
_cell_volume 8256.421441
_symmetry_space_group_name_H-M "F D D D"
_symmetry_group_IT_number 70
_space_group.IT_coordinate_system_code '2'
_symmetry_cell_setting 'orthorhombic'
loop_
_space_group_symop_operation_xyz
x,y,z
1/4-x,1/4-y,z
x,1/4-y,1/4-z
1/4-x,y,1/4-z
-x,-y,-z
3/4+x,3/4+y,-z
-x,3/4+y,3/4+z
3/4+x,-y,3/4+z
x,1/2+y,1/2+z
1/4-x,3/4-y,1/2+z
x,3/4-y,3/4-z
1/4-x,1/2+y,3/4-z
-x,1/2-y,1/2-z
3/4+x,1/4+y,1/2-z
-x,1/4+y,1/4+z
3/4+x,1/2-y,1/4+z
1/2+x,y,1/2+z
3/4-x,1/4-y,1/2+z
1/2+x,1/4-y,3/4-z
3/4-x,y,3/4-z
1/2-x,-y,1/2-z
1/4+x,3/4+y,1/2-z
1/2-x,3/4+y,1/4+z
1/4+x,-y,1/4+z
1/2+x,1/2+y,z
3/4-x,3/4-y,z
1/2+x,3/4-y,1/4-z
3/4-x,1/2+y,1/4-z
1/2-x,1/2-y,-z
1/4+x,1/4+y,-z
1/2-x,1/4+y,3/4+z
1/4+x,1/2-y,3/4+z
loop_
_atom_site_type_symbol
_atom_site_label
_atom_site_fract_x
_atom_site_fract_y
_atom_site_fract_z
Si Si1 0.483850 0.889890 0.484337
Si Si2 0.959825 0.599328 0.184971
Si Si3 0.431491 0.271995 0.812712
Si Si4 0.875000 0.875000 0.538862
Si Si5 0.496270 0.082107 0.855827
Si Si6 0.091597 0.496121 0.807517
O O1 0.375000 0.875000 0.448043
O O2 0.594030 0.878804 0.448691
O O3 0.473780 0.941204 0.485786
O O4 0.481483 0.868866 0.553916
O O5 0.007968 0.625000 0.125000
O O6 0.954024 0.549056 0.167476
O O7 0.035199 0.603252 0.245692
O O8 0.375000 0.290037 0.875000
O O9 0.348893 0.244587 0.770049
O O10 0.537744 0.246470 0.833984
O O11 0.820418 0.839053 0.582857
O O12 0.375000 0.085685 0.875000
O O13 0.516132 0.034561 0.829301
#
# Coordination Sequence:
#
# PCOD8286371 Si02
#       6
#    32  32  32  16  32  32
#     4  11  22  41  70 102 138 174 229 283 347 409
#     4  11  27  46  68  96 141 187 228 277 348 413
#     4  10  22  40  67 102 141 174 216 284 351 401
#     4  12  25  46  72  98 135 188 220 288 344 414
#     4  12  24  45  71 102 136 178 235 288 345 413
#     4  10  24  44  63 104 134 174 227 281 332 413
#
# _framework density 21.316742000000001
#
# number of rings (size 3 to 8) (size 9 to 14) (size 15 to 20)
#    0.000    1.091    4.545    0.273    7.636    1.455 
#    0.000    1.818    0.000    0.000    0.000    0.000 
#    0.000    0.000    0.000    0.000    0.000    0.000 
#
# Total GULP energy -545239.550824 kJ/mol
# GULP energy per Si atom -12391.807973 kJ/mol
# Density = 2.126822 g / cm^3
# Si number density = 21.316742 Si / 1000 Ang^3
#
#
#
# Elastic Constant Matrix: (Units=GPa)
#
#
# Indices 1 2 3 4 5 6 
#
# 1 116.7226 34.1131 40.8991 0.0000 0.0000 0.0000
# 2 34.1131 96.3057 60.9561 0.0000 0.0000 0.0000
# 3 40.8991 60.9561 121.7724 0.0000 0.0000 0.0000
# 4 0.0000 0.0000 0.0000 23.8626 0.0000 0.0000
# 5 0.0000 0.0000 0.0000 0.0000 27.0092 0.0000
# 6 0.0000 0.0000 0.0000 0.0000 0.0000 25.1797
#
#
#
# Elastic Compliance Matrix: (Units=1/GPa)
#
#
# Indices 1 2 3 4 5 6 
#
# 1 0.009984 -0.002070 -0.002317 0.000000 0.000000 0.000000
# 2 -0.002070 0.015628 -0.007128 0.000000 0.000000 0.000000
# 3 -0.002317 -0.007128 0.012558 0.000000 0.000000 0.000000
# 4 0.000000 0.000000 0.000000 0.041907 0.000000 0.000000
# 5 0.000000 0.000000 0.000000 0.000000 0.037024 0.000000
# 6 0.000000 0.000000 0.000000 0.000000 0.000000 0.039715
#
#
# Mechanical properties :
#
#
# Convention : Reuss Voigt Hill
#
# Bulk Modulus (GPa) = 66.04656 67.41526 66.73091
# Shear Modulus (GPa) = 27.04255 28.46577 27.75416
#
# Velocity S-wave (km/s) = 3.56561 3.65824 3.61222
# Velocity P-wave (km/s) = 6.92836 7.03831 6.98355
#
# Compressibility (1/GPa) = 0.01514083
#
# Stress axis : x y z
#
# Youngs Moduli (GPa) = 100.15813 63.98602 79.62805
#
# Poissons Ratio (x) = 0.13245 0.18451
# Poissons Ratio (y) = 0.20732 0.56759
# Poissons Ratio (z) = 0.23209 0.45609
#
# Static dielectric constant tensor:
#      x y z
#    x 4.086070 0.000000 0.000000 
#    y 0.000000 3.712340 0.000000 
#    z 0.000000 0.000000 3.702390 
# 
# 
# High freq. dielectric constant tensor:
#      x y z
#    x 1.847800 0.000000 0.000000 
#    y 0.000000 1.829440 0.000000 
#    z 0.000000 0.000000 1.826220 
# 
# From -- ./inp_files/50400.got.cif
#   From: 2010.03.12/outbox.cif.g09.slc.cpg/sg70_26_cif.got.tgz:50400.got - 2010.04.16 13:46:32.
