data_PCOD8286759
_publ_section_title
;
Structure prediction by ZEFSAII (Michael W. Deem and Ramdas Pophale) SiO2 
 PCOD8286759
Probable space group: F D D D
;
_chemical_formula_sum "Si O2"
_cell_formula_units_Z 160
_cell_length_a 18.024777
_cell_length_b 15.072838
_cell_length_c 25.298358
_cell_angle_alpha 90.000000
_cell_angle_beta 90.000000
_cell_angle_gamma 90.000000
_cell_volume 6873.172850
_symmetry_space_group_name_H-M "F D D D"
_symmetry_group_IT_number 70
_space_group.IT_coordinate_system_code '2'
_symmetry_cell_setting 'orthorhombic'
loop_
_space_group_symop_operation_xyz
x,y,z
1/4-x,1/4-y,z
x,1/4-y,1/4-z
1/4-x,y,1/4-z
-x,-y,-z
3/4+x,3/4+y,-z
-x,3/4+y,3/4+z
3/4+x,-y,3/4+z
x,1/2+y,1/2+z
1/4-x,3/4-y,1/2+z
x,3/4-y,3/4-z
1/4-x,1/2+y,3/4-z
-x,1/2-y,1/2-z
3/4+x,1/4+y,1/2-z
-x,1/4+y,1/4+z
3/4+x,1/2-y,1/4+z
1/2+x,y,1/2+z
3/4-x,1/4-y,1/2+z
1/2+x,1/4-y,3/4-z
3/4-x,y,3/4-z
1/2-x,-y,1/2-z
1/4+x,3/4+y,1/2-z
1/2-x,3/4+y,1/4+z
1/4+x,-y,1/4+z
1/2+x,1/2+y,z
3/4-x,3/4-y,z
1/2+x,3/4-y,1/4-z
3/4-x,1/2+y,1/4-z
1/2-x,1/2-y,-z
1/4+x,1/4+y,-z
1/2-x,1/4+y,3/4+z
1/4+x,1/2-y,3/4+z
loop_
_atom_site_type_symbol
_atom_site_label
_atom_site_fract_x
_atom_site_fract_y
_atom_site_fract_z
Si Si1 0.125000 0.388396 0.625000
Si Si2 0.125000 0.125000 0.709980
Si Si3 0.625000 0.625000 0.001399
Si Si4 0.355748 0.211400 0.689582
Si Si5 0.525681 0.044534 0.586767
Si Si6 0.994821 0.875000 0.375000
Si Si7 0.922283 0.546767 0.983727
O O1 0.057998 0.451120 0.605868
O O2 0.090237 0.328746 0.672488
O O3 0.195723 0.097774 0.674798
O O4 0.137643 0.215565 0.743297
O O5 0.561870 0.570054 0.031260
O O6 0.668329 0.552173 0.967328
O O7 0.438292 0.216299 0.667562
O O8 0.299117 0.206104 0.640409
O O9 0.345707 0.127078 0.727740
O O10 0.547675 0.125000 0.625000
O O11 0.000000 0.500000 0.000000
#
# Coordination Sequence:
#
# PCOD8286759 Si02
#       7
#    16  16  16  32  32  16  32
#     4  12  25  47  80 110 150 206 256 316 406 452
#     4  11  26  46  75  96 149 207 251 320 380 467
#     4  12  25  46  71 108 147 199 249 319 394 464
#     4  12  27  45  73 109 151 191 257 319 387 463
#     4  12  23  46  72 110 147 192 249 318 383 475
#     4  11  24  48  66 107 148 198 256 311 386 474
#     4  12  27  49  75 110 148 201 261 317 383 474
#
# _framework density 23.278912999999999
#
# number of rings (size 3 to 8) (size 9 to 14) (size 15 to 20)
#    0.000    0.200    7.000    1.800    2.800    3.200 
#    0.000    0.000    0.000    0.000    0.000    0.000 
#    0.000    0.000    0.000    0.000    0.000    0.000 
#
# Total GULP energy -495647.074890 kJ/mol
# GULP energy per Si atom -12391.176872 kJ/mol
# Density = 2.322593 g / cm^3
# Si number density = 23.278913 Si / 1000 Ang^3
#
#
#
# Elastic Constant Matrix: (Units=GPa)
#
#
# Indices 1 2 3 4 5 6 
#
# 1 142.0360 47.7257 45.6011 0.0000 0.0000 0.0000
# 2 47.7257 199.9522 58.5037 0.0000 0.0000 0.0000
# 3 45.6011 58.5037 85.0220 0.0000 0.0000 0.0000
# 4 0.0000 0.0000 0.0000 33.2239 0.0000 0.0000
# 5 0.0000 0.0000 0.0000 0.0000 -257.0432 0.0000
# 6 0.0000 0.0000 0.0000 0.0000 0.0000 24.4642
#
#
#
# Elastic Compliance Matrix: (Units=1/GPa)
#
#
# Indices 1 2 3 4 5 6 
#
# 1 0.008628 -0.000883 -0.004020 0.000000 0.000000 0.000000
# 2 -0.000883 0.006352 -0.003897 0.000000 0.000000 0.000000
# 3 -0.004020 -0.003897 0.016599 0.000000 0.000000 0.000000
# 4 0.000000 0.000000 0.000000 0.030099 0.000000 0.000000
# 5 0.000000 0.000000 0.000000 0.000000 -0.003890 0.000000
# 6 0.000000 0.000000 0.000000 0.000000 0.000000 0.040876
#
#
# Mechanical properties :
#
#
# Convention : Reuss Voigt Hill
#
# Bulk Modulus (GPa) = 71.53613 81.18567 76.36090
# Shear Modulus (GPa) = 41.34826 -21.52569 9.91128
#
# Velocity S-wave (km/s) = 4.21908 -3.04416 2.06564
# Velocity P-wave (km/s) = 7.38451 4.75342 6.20991
#
# Compressibility (1/GPa) = 0.01397895
#
# Stress axis : x y z
#
# Youngs Moduli (GPa) = 115.90464 157.42287 60.24318
#
# Poissons Ratio (x) = 0.13904 0.24216
# Poissons Ratio (y) = 0.10237 0.23479
# Poissons Ratio (z) = 0.46591 0.61353
#
# Static dielectric constant tensor:
#      x y z
#    x 4.321100 0.000000 0.000000 
#    y 0.000000 4.326020 0.000000 
#    z 0.000000 0.000000 4.515510 
# 
# 
# High freq. dielectric constant tensor:
#      x y z
#    x 1.925630 0.000000 0.000000 
#    y 0.000000 1.944890 0.000000 
#    z 0.000000 0.000000 1.919230 
# 
# From -- ./inp_files/65744.got.cif
#   From: 2010.03.12/outbox.cif.g09.slc.cpg/sg70_33_cif.got.tgz:65744.got - 2010.04.16 13:46:32.
