data_PCOD8286898
_publ_section_title
;
Structure prediction by ZEFSAII (Michael W. Deem and Ramdas Pophale) SiO2 
 PCOD8286898
Probable space group: I M M M
;
_chemical_formula_sum "Si O2"
_cell_formula_units_Z 104
_cell_length_a 19.056400
_cell_length_b 19.042287
_cell_length_c 16.411509
_cell_angle_alpha 90.000000
_cell_angle_beta 90.000000
_cell_angle_gamma 90.000000
_cell_volume 5955.366339
_symmetry_space_group_name_H-M "I M M M"
_symmetry_group_IT_number 71
_symmetry_cell_setting 'orthorhombic'
loop_
_space_group_symop_operation_xyz
x,y,z
-x,-y,z
x,-y,-z
-x,y,-z
-x,-y,-z
x,y,-z
-x,y,z
x,-y,z
1/2+x,1/2+y,1/2+z
1/2-x,1/2-y,1/2+z
1/2+x,1/2-y,1/2-z
1/2-x,1/2+y,1/2-z
1/2-x,1/2-y,1/2-z
1/2+x,1/2+y,1/2-z
1/2-x,1/2+y,1/2+z
1/2+x,1/2-y,1/2+z
loop_
_atom_site_type_symbol
_atom_site_label
_atom_site_fract_x
_atom_site_fract_y
_atom_site_fract_z
Si Si1 0.000000 0.179482 0.252009
Si Si2 0.286766 0.719008 0.088249
Si Si3 0.355818 0.136646 0.908828
Si Si4 0.150705 0.836768 0.256079
Si Si5 0.216238 0.421085 0.733265
Si Si6 0.000000 0.288316 0.595682
Si Si7 0.500000 0.776185 0.404053
Si Si8 0.353866 0.192995 0.342870
O O1 0.071069 0.132515 0.254749
O O2 0.000000 0.213467 0.161373
O O3 0.000000 0.229603 0.332881
O O4 0.302552 0.799621 0.107353
O O5 0.324552 0.667545 0.150780
O O6 0.202845 0.710086 0.087799
O O7 0.317127 0.698697 0.000000
O O8 0.329735 0.075385 0.849268
O O9 0.433757 0.162415 0.888420
O O10 0.351505 0.107088 0.000000
O O11 0.206850 0.887736 0.213100
O O12 0.147134 0.758192 0.219850
O O13 0.226562 0.500000 0.766207
O O14 0.170456 0.377104 0.797281
O O15 0.000000 0.259868 0.500000
O O16 0.500000 0.752224 0.500000
O O17 0.570662 0.820588 0.385032
#
# Coordination Sequence:
#
# PCOD8286898 Si02
#       8
#     8  16  16  16  16   8   8  16
#     4  10  18  30  51  78 113 132 160 212 272 308
#     4  10  16  26  50  76 101 127 161 202 255 305
#     4  10  18  30  49  76 107 135 163 202 251 312
#     4  10  18  33  51  75 100 131 167 213 257 303
#     4  11  21  35  52  72 100 141 180 212 252 303
#     4  10  18  30  52  85 112 135 163 203 258 323
#     4  10  20  32  52  79 106 131 171 221 268 307
#     4  10  18  34  51  73 102 130 170 217 261 295
#
# _framework density 17.463242000000001
#
# number of rings (size 3 to 8) (size 9 to 14) (size 15 to 20)
#    0.000    1.846    4.615    2.308    0.000    0.308 
#    0.000    1.923    0.000   13.385    0.000    0.000 
#    0.000    9.846    0.000    0.000    0.000    0.000 
#
# Total GULP energy -644192.982727 kJ/mol
# GULP energy per Si atom -12388.326591 kJ/mol
# Density = 1.742349 g / cm^3
# Si number density = 17.463242 Si / 1000 Ang^3
#
#
#
# Elastic Constant Matrix: (Units=GPa)
#
#
# Indices 1 2 3 4 5 6 
#
# 1 155.4436 36.1033 35.3420 0.0000 0.0000 0.0000
# 2 36.1033 65.3675 19.3518 0.0000 0.0000 0.0000
# 3 35.3420 19.3518 86.1093 0.0000 0.0000 0.0000
# 4 0.0000 0.0000 0.0000 9.7921 0.0000 0.0000
# 5 0.0000 0.0000 0.0000 0.0000 72.9768 0.0000
# 6 0.0000 0.0000 0.0000 0.0000 0.0000 7.6856
#
#
#
# Elastic Compliance Matrix: (Units=1/GPa)
#
#
# Indices 1 2 3 4 5 6 
#
# 1 0.007816 -0.003607 -0.002397 0.000000 0.000000 0.000000
# 2 -0.003607 0.018053 -0.002577 0.000000 0.000000 0.000000
# 3 -0.002397 -0.002577 0.013176 0.000000 0.000000 0.000000
# 4 0.000000 0.000000 0.000000 0.102123 0.000000 0.000000
# 5 0.000000 0.000000 0.000000 0.000000 0.013703 0.000000
# 6 0.000000 0.000000 0.000000 0.000000 0.000000 0.130114
#
#
# Mechanical properties :
#
#
# Convention : Reuss Voigt Hill
#
# Bulk Modulus (GPa) = 45.69744 54.27942 49.98843
# Shear Modulus (GPa) = 16.15813 32.49912 24.32863
#
# Velocity S-wave (km/s) = 3.04512 4.31861 3.73652
# Velocity P-wave (km/s) = 6.21194 7.48444 6.87768
#
# Compressibility (1/GPa) = 0.02188306
#
# Stress axis : x y z
#
# Youngs Moduli (GPa) = 127.94161 55.39172 75.89474
#
# Poissons Ratio (x) = 0.19981 0.18194
# Poissons Ratio (y) = 0.46151 0.19556
# Poissons Ratio (z) = 0.30671 0.14273
#
# Static dielectric constant tensor:
#      x y z
#    x 3.821610 0.000000 0.000000 
#    y 0.000000 2.679540 0.000000 
#    z 0.000000 0.000000 3.363810 
# 
# 
# High freq. dielectric constant tensor:
#      x y z
#    x 1.699950 0.000000 0.000000 
#    y 0.000000 1.604390 0.000000 
#    z 0.000000 0.000000 1.682050 
# 
# From -- ./inp_files/46200.got.cif
#   From: 2010.06.25/outbox.cif.g09.slc.cpg/sg71_24_cif.got.tgz:46200.got - 2010.06.28 04:59:45.
