data_PCOD8286173
_publ_section_title
;
Structure prediction by ZEFSAII (Michael W. Deem and Ramdas Pophale) SiO2 
 PCOD8286173
Probable space group: F D D D
;
_chemical_formula_sum "Si O2"
_cell_formula_units_Z 192
_cell_length_a 22.984192
_cell_length_b 12.934479
_cell_length_c 28.428742
_cell_angle_alpha 90.000000
_cell_angle_beta 90.000000
_cell_angle_gamma 90.000000
_cell_volume 8451.539452
_symmetry_space_group_name_H-M "F D D D"
_symmetry_group_IT_number 70
_space_group.IT_coordinate_system_code '2'
_symmetry_cell_setting 'orthorhombic'
loop_
_space_group_symop_operation_xyz
x,y,z
1/4-x,1/4-y,z
x,1/4-y,1/4-z
1/4-x,y,1/4-z
-x,-y,-z
3/4+x,3/4+y,-z
-x,3/4+y,3/4+z
3/4+x,-y,3/4+z
x,1/2+y,1/2+z
1/4-x,3/4-y,1/2+z
x,3/4-y,3/4-z
1/4-x,1/2+y,3/4-z
-x,1/2-y,1/2-z
3/4+x,1/4+y,1/2-z
-x,1/4+y,1/4+z
3/4+x,1/2-y,1/4+z
1/2+x,y,1/2+z
3/4-x,1/4-y,1/2+z
1/2+x,1/4-y,3/4-z
3/4-x,y,3/4-z
1/2-x,-y,1/2-z
1/4+x,3/4+y,1/2-z
1/2-x,3/4+y,1/4+z
1/4+x,-y,1/4+z
1/2+x,1/2+y,z
3/4-x,3/4-y,z
1/2+x,3/4-y,1/4-z
3/4-x,1/2+y,1/4-z
1/2-x,1/2-y,-z
1/4+x,1/4+y,-z
1/2-x,1/4+y,3/4+z
1/4+x,1/2-y,3/4+z
loop_
_atom_site_type_symbol
_atom_site_label
_atom_site_fract_x
_atom_site_fract_y
_atom_site_fract_z
Si Si1 0.774796 0.742046 0.427052
Si Si2 0.375000 0.135148 0.875000
Si Si3 0.757031 0.327571 0.250581
Si Si4 0.182009 0.375000 0.375000
Si Si5 0.634753 0.007269 0.454601
Si Si6 0.440390 0.864773 0.009510
Si Si7 0.441515 0.740392 0.293921
O O1 0.824387 0.687073 0.395851
O O2 0.724434 0.787510 0.394626
O O3 0.805875 0.830990 0.458223
O O4 0.741723 0.658693 0.458441
O O5 0.398614 0.215059 0.836145
O O6 0.804357 0.247036 0.231954
O O7 0.699971 0.258991 0.259865
O O8 0.743972 0.407996 0.207821
O O9 0.783261 0.391680 0.295809
O O10 0.137525 0.323772 0.337909
O O11 0.625000 0.125000 0.436987
O O12 0.586752 0.973792 0.492247
O O13 0.375000 0.875000 0.029700
#
# Coordination Sequence:
#
# PCOD8286173 Si02
#       7
#    32  16  32  16  32  32  32
#     4  11  27  42  68 107 141 182 244 301 359 439
#     4  12  24  43  73 112 142 184 246 302 362 430
#     4  10  20  43  69  94 133 189 224 281 355 430
#     4  12  24  41  66  98 144 182 245 294 366 442
#     4  10  22  43  68  93 135 187 231 291 357 430
#     4  11  24  44  72  99 142 186 241 302 368 424
#     4  10  23  41  71 100 137 183 234 283 354 429
#
# _framework density 22.717755
#
# number of rings (size 3 to 8) (size 9 to 14) (size 15 to 20)
#    0.000    1.333    1.667    3.000    7.000    0.667 
#    0.000   10.417    7.333    0.000    0.000    0.000 
#    0.000    0.000    0.000    0.000    0.000    0.000 
#
# Total GULP energy -594923.790378 kJ/mol
# GULP energy per Si atom -12394.245633 kJ/mol
# Density = 2.266605 g / cm^3
# Si number density = 22.717755 Si / 1000 Ang^3
#
#
#
# Elastic Constant Matrix: (Units=GPa)
#
#
# Indices 1 2 3 4 5 6 
#
# 1 106.8958 44.2328 41.3945 0.0000 0.0000 0.0000
# 2 44.2328 130.0529 59.3031 0.0000 0.0000 0.0000
# 3 41.3945 59.3031 107.2652 0.0000 0.0000 0.0000
# 4 0.0000 0.0000 0.0000 25.9494 0.0000 0.0000
# 5 0.0000 0.0000 0.0000 0.0000 37.1908 0.0000
# 6 0.0000 0.0000 0.0000 0.0000 0.0000 46.0129
#
#
#
# Elastic Compliance Matrix: (Units=1/GPa)
#
#
# Indices 1 2 3 4 5 6 
#
# 1 0.011596 -0.002545 -0.003068 0.000000 0.000000 0.000000
# 2 -0.002545 0.010840 -0.005011 0.000000 0.000000 0.000000
# 3 -0.003068 -0.005011 0.013277 0.000000 0.000000 0.000000
# 4 0.000000 0.000000 0.000000 0.038537 0.000000 0.000000
# 5 0.000000 0.000000 0.000000 0.000000 0.026888 0.000000
# 6 0.000000 0.000000 0.000000 0.000000 0.000000 0.021733
#
#
# Mechanical properties :
#
#
# Convention : Reuss Voigt Hill
#
# Bulk Modulus (GPa) = 69.13145 70.45276 69.79211
# Shear Modulus (GPa) = 33.57067 35.11620 34.34343
#
# Velocity S-wave (km/s) = 3.84829 3.93588 3.89233
# Velocity P-wave (km/s) = 7.08819 7.19266 7.14062
#
# Compressibility (1/GPa) = 0.01446520
#
# Stress axis : x y z
#
# Youngs Moduli (GPa) = 86.23621 92.25421 75.31890
#
# Poissons Ratio (x) = 0.23479 0.23108
# Poissons Ratio (y) = 0.21947 0.37740
# Poissons Ratio (z) = 0.26457 0.46226
#
# Static dielectric constant tensor:
#      x y z
#    x 4.268430 0.000000 0.000000 
#    y 0.000000 4.161840 0.000000 
#    z 0.000000 0.000000 3.966490 
# 
# 
# High freq. dielectric constant tensor:
#      x y z
#    x 1.916000 0.000000 0.000000 
#    y 0.000000 1.910230 0.000000 
#    z 0.000000 0.000000 1.864920 
# 
# From -- ./inp_files/67944.got.cif
#   From: 2010.03.12/outbox.cif.g09.slc.cpg/sg70_34_cif.got.tgz:67944.got - 2010.04.16 13:46:32.
