data_PCOD8286813
_publ_section_title
;
Structure prediction by ZEFSAII (Michael W. Deem and Ramdas Pophale) SiO2 
 PCOD8286813
Probable space group: F D D D
;
_chemical_formula_sum "Si O2"
_cell_formula_units_Z 112
_cell_length_a 26.548438
_cell_length_b 14.699317
_cell_length_c 12.256640
_cell_angle_alpha 90.000000
_cell_angle_beta 90.000000
_cell_angle_gamma 90.000000
_cell_volume 4783.079068
_symmetry_space_group_name_H-M "F D D D"
_symmetry_group_IT_number 70
_space_group.IT_coordinate_system_code '2'
_symmetry_cell_setting 'orthorhombic'
loop_
_space_group_symop_operation_xyz
x,y,z
1/4-x,1/4-y,z
x,1/4-y,1/4-z
1/4-x,y,1/4-z
-x,-y,-z
3/4+x,3/4+y,-z
-x,3/4+y,3/4+z
3/4+x,-y,3/4+z
x,1/2+y,1/2+z
1/4-x,3/4-y,1/2+z
x,3/4-y,3/4-z
1/4-x,1/2+y,3/4-z
-x,1/2-y,1/2-z
3/4+x,1/4+y,1/2-z
-x,1/4+y,1/4+z
3/4+x,1/2-y,1/4+z
1/2+x,y,1/2+z
3/4-x,1/4-y,1/2+z
1/2+x,1/4-y,3/4-z
3/4-x,y,3/4-z
1/2-x,-y,1/2-z
1/4+x,3/4+y,1/2-z
1/2-x,3/4+y,1/4+z
1/4+x,-y,1/4+z
1/2+x,1/2+y,z
3/4-x,3/4-y,z
1/2+x,3/4-y,1/4-z
3/4-x,1/2+y,1/4-z
1/2-x,1/2-y,-z
1/4+x,1/4+y,-z
1/2-x,1/4+y,3/4+z
1/4+x,1/2-y,3/4+z
loop_
_atom_site_type_symbol
_atom_site_label
_atom_site_fract_x
_atom_site_fract_y
_atom_site_fract_z
Si Si1 0.893948 0.775832 0.575263
Si Si2 0.548605 0.179874 0.721707
Si Si3 0.067537 0.375000 0.875000
Si Si4 0.498466 0.498301 0.768184
O O1 0.875000 0.875000 0.542076
O O2 0.910662 0.771197 0.702524
O O3 0.851288 0.699575 0.561573
O O4 0.941835 0.756930 0.497787
O O5 0.578223 0.125000 0.625000
O O6 0.510028 0.247971 0.653393
O O7 0.518681 0.097808 0.785221
O O8 0.032084 0.419147 0.783822
#
# Coordination Sequence:
#
# PCOD8286813 Si02
#       4
#    32  32  16  32
#     4  12  22  41  69  99 135 181 237 284 347 418
#     4   8  19  42  68  94 126 172 241 296 324 378
#     4  12  24  42  69 102 138 185 226 286 362 406
#     4   9  22  40  67  98 136 174 229 295 339 403
#
# _framework density 23.415880000000001
#
# number of rings (size 3 to 8) (size 9 to 14) (size 15 to 20)
#    1.714    0.000    2.857    2.571    0.000    5.143 
#    0.000    0.714    0.000    0.000    0.000    0.000 
#    0.000    0.000    0.000    0.000    0.000    0.000 
#
# Total GULP energy -346913.149390 kJ/mol
# GULP energy per Si atom -12389.755335 kJ/mol
# Density = 2.336258 g / cm^3
# Si number density = 23.415880 Si / 1000 Ang^3
#
#
#
# Elastic Constant Matrix: (Units=GPa)
#
#
# Indices 1 2 3 4 5 6 
#
# 1 131.6229 61.5664 41.4904 0.0000 0.0000 0.0000
# 2 61.5664 153.1764 35.8132 0.0000 0.0000 0.0000
# 3 41.4904 35.8132 44.7241 0.0000 0.0000 0.0000
# 4 0.0000 0.0000 0.0000 39.3228 0.0000 0.0000
# 5 0.0000 0.0000 0.0000 0.0000 27.2109 0.0000
# 6 0.0000 0.0000 0.0000 0.0000 0.0000 50.0514
#
#
#
# Elastic Compliance Matrix: (Units=1/GPa)
#
#
# Indices 1 2 3 4 5 6 
#
# 1 0.011537 -0.002626 -0.008599 0.000000 0.000000 0.000000
# 2 -0.002626 0.008630 -0.004474 0.000000 0.000000 0.000000
# 3 -0.008599 -0.004474 0.033920 0.000000 0.000000 0.000000
# 4 0.000000 0.000000 0.000000 0.025431 0.000000 0.000000
# 5 0.000000 0.000000 0.000000 0.000000 0.036750 0.000000
# 6 0.000000 0.000000 0.000000 0.000000 0.000000 0.019979
#
#
# Mechanical properties :
#
#
# Convention : Reuss Voigt Hill
#
# Bulk Modulus (GPa) = 44.07901 67.47370 55.77635
# Shear Modulus (GPa) = 28.53742 36.02725 32.28233
#
# Velocity S-wave (km/s) = 3.49481 3.92673 3.71705
# Velocity P-wave (km/s) = 5.92876 7.03114 6.50335
#
# Compressibility (1/GPa) = 0.02268653
#
# Stress axis : x y z
#
# Youngs Moduli (GPa) = 86.68013 115.87330 29.48142
#
# Poissons Ratio (x) = 0.30433 0.25352
# Poissons Ratio (y) = 0.22765 0.13190
# Poissons Ratio (z) = 0.74540 0.51844
#
# Static dielectric constant tensor:
#      x y z
#    x 4.092320 0.000000 0.000000 
#    y 0.000000 4.555800 0.000000 
#    z 0.000000 0.000000 3.759780 
# 
# 
# High freq. dielectric constant tensor:
#      x y z
#    x 1.932120 0.000000 0.000000 
#    y 0.000000 1.939730 0.000000 
#    z 0.000000 0.000000 1.889420 
# 
# From -- ./inp_files/29565.got.cif
#   From: 2010.03.12/outbox.cif.g09.slc.cpg/sg70_15_cif.got.tgz:29565.got - 2010.04.16 13:46:32.
