data_PCOD8286726
_publ_section_title
;
Structure prediction by ZEFSAII (Michael W. Deem and Ramdas Pophale) SiO2 
 PCOD8286726
Probable space group: F D D D
;
_chemical_formula_sum "Si O2"
_cell_formula_units_Z 176
_cell_length_a 24.446858
_cell_length_b 16.954646
_cell_length_c 17.696564
_cell_angle_alpha 90.000000
_cell_angle_beta 90.000000
_cell_angle_gamma 90.000000
_cell_volume 7335.010291
_symmetry_space_group_name_H-M "F D D D"
_symmetry_group_IT_number 70
_space_group.IT_coordinate_system_code '2'
_symmetry_cell_setting 'orthorhombic'
loop_
_space_group_symop_operation_xyz
x,y,z
1/4-x,1/4-y,z
x,1/4-y,1/4-z
1/4-x,y,1/4-z
-x,-y,-z
3/4+x,3/4+y,-z
-x,3/4+y,3/4+z
3/4+x,-y,3/4+z
x,1/2+y,1/2+z
1/4-x,3/4-y,1/2+z
x,3/4-y,3/4-z
1/4-x,1/2+y,3/4-z
-x,1/2-y,1/2-z
3/4+x,1/4+y,1/2-z
-x,1/4+y,1/4+z
3/4+x,1/2-y,1/4+z
1/2+x,y,1/2+z
3/4-x,1/4-y,1/2+z
1/2+x,1/4-y,3/4-z
3/4-x,y,3/4-z
1/2-x,-y,1/2-z
1/4+x,3/4+y,1/2-z
1/2-x,3/4+y,1/4+z
1/4+x,-y,1/4+z
1/2+x,1/2+y,z
3/4-x,3/4-y,z
1/2+x,3/4-y,1/4-z
3/4-x,1/2+y,1/4-z
1/2-x,1/2-y,-z
1/4+x,1/4+y,-z
1/2-x,1/4+y,3/4+z
1/4+x,1/2-y,3/4+z
loop_
_atom_site_type_symbol
_atom_site_label
_atom_site_fract_x
_atom_site_fract_y
_atom_site_fract_z
Si Si1 0.227626 0.375000 0.875000
Si Si2 0.898522 0.457102 0.227259
Si Si3 0.657978 0.895041 0.741598
Si Si4 0.832104 0.738622 0.441066
Si Si5 0.720980 0.969555 0.607105
Si Si6 0.535694 0.075846 0.922390
O O1 0.195290 0.346300 0.800226
O O2 0.261611 0.451612 0.848062
O O3 0.875000 0.375000 0.259622
O O4 0.851843 0.522532 0.213718
O O5 0.934546 0.499828 0.289415
O O6 0.929748 0.441188 0.151191
O O7 0.603743 0.843209 0.727172
O O8 0.687107 0.911108 0.661729
O O9 0.875000 0.766687 0.375000
O O10 0.770143 0.724501 0.412955
O O11 0.824237 0.804874 0.505945
O O12 0.771809 0.919048 0.574227
#
# Coordination Sequence:
#
# PCOD8286726 Si02
#       6
#    16  32  32  32  32  32
#     4  12  26  40  75 106 146 188 249 302 396 444
#     4  12  25  45  74 106 146 188 252 314 383 463
#     4  12  23  46  72 104 147 195 243 312 380 459
#     4  11  23  48  78 103 146 203 247 309 390 458
#     4  12  24  46  72 110 147 193 245 316 379 468
#     4  11  25  46  76 109 148 192 256 312 382 461
#
# _framework density 23.994513000000001
#
# number of rings (size 3 to 8) (size 9 to 14) (size 15 to 20)
#    0.000    0.364    3.636    5.455    0.000    0.727 
#    0.000    0.000    4.000    0.000    0.000    0.000 
#    0.000    0.000    0.000    0.000    0.000    0.000 
#
# Total GULP energy -545442.809708 kJ/mol
# GULP energy per Si atom -12396.427493 kJ/mol
# Density = 2.393990 g / cm^3
# Si number density = 23.994513 Si / 1000 Ang^3
#
#
#
# Elastic Constant Matrix: (Units=GPa)
#
#
# Indices 1 2 3 4 5 6 
#
# 1 80.4183 43.4917 47.8319 0.0000 0.0000 0.0000
# 2 43.4917 140.6217 50.3872 0.0000 0.0000 0.0000
# 3 47.8319 50.3872 140.9186 0.0000 0.0000 0.0000
# 4 0.0000 0.0000 0.0000 32.4341 0.0000 0.0000
# 5 0.0000 0.0000 0.0000 0.0000 64.1076 0.0000
# 6 0.0000 0.0000 0.0000 0.0000 0.0000 51.7765
#
#
#
# Elastic Compliance Matrix: (Units=1/GPa)
#
#
# Indices 1 2 3 4 5 6 
#
# 1 0.017093 -0.003679 -0.004486 0.000000 0.000000 0.000000
# 2 -0.003679 0.008948 -0.001951 0.000000 0.000000 0.000000
# 3 -0.004486 -0.001951 0.009317 0.000000 0.000000 0.000000
# 4 0.000000 0.000000 0.000000 0.030832 0.000000 0.000000
# 5 0.000000 0.000000 0.000000 0.000000 0.015599 0.000000
# 6 0.000000 0.000000 0.000000 0.000000 0.000000 0.019314
#
#
# Mechanical properties :
#
#
# Convention : Reuss Voigt Hill
#
# Bulk Modulus (GPa) = 66.11356 71.70893 68.91124
# Shear Modulus (GPa) = 39.56435 44.34684 41.95560
#
# Velocity S-wave (km/s) = 4.06506 4.30374 4.18610
# Velocity P-wave (km/s) = 7.04602 7.39234 7.22126
#
# Compressibility (1/GPa) = 0.01512549
#
# Stress axis : x y z
#
# Youngs Moduli (GPa) = 58.50298 111.75536 107.33491
#
# Poissons Ratio (x) = 0.41115 0.48155
# Poissons Ratio (y) = 0.21523 0.20938
# Poissons Ratio (z) = 0.26247 0.21801
#
# Static dielectric constant tensor:
#      x y z
#    x 4.795440 0.000000 0.000000 
#    y 0.000000 5.173020 0.000000 
#    z 0.000000 0.000000 4.174340 
# 
# 
# High freq. dielectric constant tensor:
#      x y z
#    x 1.959880 0.000000 0.000000 
#    y 0.000000 1.959330 0.000000 
#    z 0.000000 0.000000 1.953760 
# 
# From -- ./inp_files/38531.got.cif
#   From: 2010.03.12/outbox.cif.g09.slc.cpg/sg70_20_cif.got.tgz:38531.got - 2010.04.16 13:46:32.
