data_PCOD8286665
_publ_section_title
;
Structure prediction by ZEFSAII (Michael W. Deem and Ramdas Pophale) SiO2 
 PCOD8286665
Probable space group: F D D D
;
_chemical_formula_sum "Si O2"
_cell_formula_units_Z 80
_cell_length_a 4.854748
_cell_length_b 24.912496
_cell_length_c 28.749148
_cell_angle_alpha 90.000000
_cell_angle_beta 90.000000
_cell_angle_gamma 90.000000
_cell_volume 3477.033797
_symmetry_space_group_name_H-M "F D D D"
_symmetry_group_IT_number 70
_space_group.IT_coordinate_system_code '2'
_symmetry_cell_setting 'orthorhombic'
loop_
_space_group_symop_operation_xyz
x,y,z
1/4-x,1/4-y,z
x,1/4-y,1/4-z
1/4-x,y,1/4-z
-x,-y,-z
3/4+x,3/4+y,-z
-x,3/4+y,3/4+z
3/4+x,-y,3/4+z
x,1/2+y,1/2+z
1/4-x,3/4-y,1/2+z
x,3/4-y,3/4-z
1/4-x,1/2+y,3/4-z
-x,1/2-y,1/2-z
3/4+x,1/4+y,1/2-z
-x,1/4+y,1/4+z
3/4+x,1/2-y,1/4+z
1/2+x,y,1/2+z
3/4-x,1/4-y,1/2+z
1/2+x,1/4-y,3/4-z
3/4-x,y,3/4-z
1/2-x,-y,1/2-z
1/4+x,3/4+y,1/2-z
1/2-x,3/4+y,1/4+z
1/4+x,-y,1/4+z
1/2+x,1/2+y,z
3/4-x,3/4-y,z
1/2+x,3/4-y,1/4-z
3/4-x,1/2+y,1/4-z
1/2-x,1/2-y,-z
1/4+x,1/4+y,-z
1/2-x,1/4+y,3/4+z
1/4+x,1/2-y,3/4+z
loop_
_atom_site_type_symbol
_atom_site_label
_atom_site_fract_x
_atom_site_fract_y
_atom_site_fract_z
Si Si1 0.430739 0.316736 0.928613
Si Si2 0.375000 0.585383 0.375000
Si Si3 0.329462 0.995491 0.952487
O O1 0.375000 0.314946 0.875000
O O2 0.375000 0.375000 0.950872
O O3 0.752501 0.302426 0.928420
O O4 0.238663 0.274069 0.957038
O O5 0.625000 0.625000 0.383695
O O6 0.337060 0.549475 0.421450
O O7 0.500000 0.000000 0.000000
#
# Coordination Sequence:
#
# PCOD8286665 Si02
#       3
#    32  16  32
#     4  11  22  42  71  99 132 172 224 289 357 408
#     4  12  26  46  69  96 145 194 232 290 362 426
#     4  12  25  44  69 101 139 183 237 288 347 428
#
# _framework density 23.008118
#
# number of rings (size 3 to 8) (size 9 to 14) (size 15 to 20)
#    0.000    0.400    4.000    4.800    0.000    8.000 
#    0.000    0.000    0.000    0.000    0.000    0.000 
#    0.000    0.000    0.000    0.000    0.000    0.000 
#
# Total GULP energy -247785.977846 kJ/mol
# GULP energy per Si atom -12389.298892 kJ/mol
# Density = 2.295575 g / cm^3
# Si number density = 23.008118 Si / 1000 Ang^3
#
#
#
# Elastic Constant Matrix: (Units=GPa)
#
#
# Indices 1 2 3 4 5 6 
#
# 1 86.5397 12.2168 -28.3980 0.0000 0.0000 0.0000
# 2 12.2168 119.6558 9.7897 0.0000 0.0000 0.0000
# 3 -28.3980 9.7897 79.6710 0.0000 0.0000 0.0000
# 4 0.0000 0.0000 0.0000 10.7027 0.0000 0.0000
# 5 0.0000 0.0000 0.0000 0.0000 25.4174 0.0000
# 6 0.0000 0.0000 0.0000 0.0000 0.0000 44.3652
#
#
#
# Elastic Compliance Matrix: (Units=1/GPa)
#
#
# Indices 1 2 3 4 5 6 
#
# 1 0.013453 -0.001784 0.005014 0.000000 0.000000 0.000000
# 2 -0.001784 0.008679 -0.001702 0.000000 0.000000 0.000000
# 3 0.005014 -0.001702 0.014548 0.000000 0.000000 0.000000
# 4 0.000000 0.000000 0.000000 0.093434 0.000000 0.000000
# 5 0.000000 0.000000 0.000000 0.000000 0.039343 0.000000
# 6 0.000000 0.000000 0.000000 0.000000 0.000000 0.022540
#
#
# Mechanical properties :
#
#
# Convention : Reuss Voigt Hill
#
# Bulk Modulus (GPa) = 25.16614 30.34261 27.75438
# Shear Modulus (GPa) = 24.72977 35.58094 30.15535
#
# Velocity S-wave (km/s) = 3.28201 3.93676 3.62420
# Velocity P-wave (km/s) = 5.03228 5.82070 5.44079
#
# Compressibility (1/GPa) = 0.03973593
#
# Stress axis : x y z
#
# Youngs Moduli (GPa) = 74.33499 115.22475 68.73772
#
# Poissons Ratio (x) = 0.20553 -0.34467
# Poissons Ratio (y) = 0.13259 0.11701
# Poissons Ratio (z) = -0.37273 0.19614
#
# Static dielectric constant tensor:
#      x y z
#    x 3.576510 0.000000 0.000000 
#    y 0.000000 6.164660 0.000000 
#    z 0.000000 0.000000 4.018800 
# 
# 
# High freq. dielectric constant tensor:
#      x y z
#    x 1.935280 0.000000 0.000000 
#    y 0.000000 1.912140 0.000000 
#    z 0.000000 0.000000 1.910800 
# 
# From -- ./inp_files/2422.got.cif
#   From: 2010.03.12/outbox.cif.g09.slc.cpg/sg70_2_cif.got.tgz:2422.got - 2010.04.16 13:46:32.
