data_PCOD8286450
_publ_section_title
;
Structure prediction by ZEFSAII (Michael W. Deem and Ramdas Pophale) SiO2 
 PCOD8286450
Probable space group: F D D D
;
_chemical_formula_sum "Si O2"
_cell_formula_units_Z 112
_cell_length_a 27.713209
_cell_length_b 23.871471
_cell_length_c 7.695828
_cell_angle_alpha 90.000000
_cell_angle_beta 90.000000
_cell_angle_gamma 90.000000
_cell_volume 5091.213992
_symmetry_space_group_name_H-M "F D D D"
_symmetry_group_IT_number 70
_space_group.IT_coordinate_system_code '2'
_symmetry_cell_setting 'orthorhombic'
loop_
_space_group_symop_operation_xyz
x,y,z
1/4-x,1/4-y,z
x,1/4-y,1/4-z
1/4-x,y,1/4-z
-x,-y,-z
3/4+x,3/4+y,-z
-x,3/4+y,3/4+z
3/4+x,-y,3/4+z
x,1/2+y,1/2+z
1/4-x,3/4-y,1/2+z
x,3/4-y,3/4-z
1/4-x,1/2+y,3/4-z
-x,1/2-y,1/2-z
3/4+x,1/4+y,1/2-z
-x,1/4+y,1/4+z
3/4+x,1/2-y,1/4+z
1/2+x,y,1/2+z
3/4-x,1/4-y,1/2+z
1/2+x,1/4-y,3/4-z
3/4-x,y,3/4-z
1/2-x,-y,1/2-z
1/4+x,3/4+y,1/2-z
1/2-x,3/4+y,1/4+z
1/4+x,-y,1/4+z
1/2+x,1/2+y,z
3/4-x,3/4-y,z
1/2+x,3/4-y,1/4-z
3/4-x,1/2+y,1/4-z
1/2-x,1/2-y,-z
1/4+x,1/4+y,-z
1/2-x,1/4+y,3/4+z
1/4+x,1/2-y,3/4+z
loop_
_atom_site_type_symbol
_atom_site_label
_atom_site_fract_x
_atom_site_fract_y
_atom_site_fract_z
Si Si1 0.578859 0.653579 0.937313
Si Si2 0.159761 0.875000 0.375000
Si Si3 0.526689 0.349581 0.193078
Si Si4 0.152413 0.766453 0.960735
O O1 0.625000 0.625000 0.843450
O O2 0.530199 0.643896 0.831790
O O3 0.589377 0.720527 0.941221
O O4 0.573059 0.625000 0.125000
O O5 0.193986 0.867980 0.542657
O O6 0.127306 0.819485 0.362217
O O7 0.541666 0.375000 0.375000
O O8 0.545734 0.285722 0.209020
O O9 0.125000 0.738574 0.125000
#
# Coordination Sequence:
#
# PCOD8286450 Si02
#       4
#    32  16  32  32
#     4  11  26  46  65 101 145 188 232 284 355 424
#     4  10  22  48  71 108 135 180 244 296 344 416
#     4  11  23  42  74 101 139 183 237 292 353 414
#     4  10  23  44  74 103 141 184 236 296 353 416
#
# _framework density 21.998683
#
# number of rings (size 3 to 8) (size 9 to 14) (size 15 to 20)
#    0.000    1.429    2.857    0.857    4.000    4.571 
#    0.000    2.857    0.000    0.000    0.000    0.000 
#    0.000    0.000    0.000    0.000    0.000    0.000 
#
# Total GULP energy -346871.615366 kJ/mol
# GULP energy per Si atom -12388.271977 kJ/mol
# Density = 2.194861 g / cm^3
# Si number density = 21.998683 Si / 1000 Ang^3
#
#
#
# Elastic Constant Matrix: (Units=GPa)
#
#
# Indices 1 2 3 4 5 6 
#
# 1 175.3891 46.2654 52.1465 0.0211 -0.0230 0.0678
# 2 46.2654 117.2265 62.6920 0.0378 -0.0539 0.1544
# 3 52.1465 62.6920 143.9456 0.0721 -0.0774 0.1949
# 4 0.0211 0.0378 0.0721 42.0870 -0.0801 0.3041
# 5 -0.0230 -0.0539 -0.0774 -0.0801 4.1708 -0.2834
# 6 0.0678 0.1544 0.1949 0.3041 -0.2834 32.3406
#
#
#
# Elastic Compliance Matrix: (Units=1/GPa)
#
#
# Indices 1 2 3 4 5 6 
#
# 1 0.006652 -0.001742 -0.001651 0.000001 -0.000016 0.000004
# 2 -0.001742 0.011577 -0.004411 -0.000002 0.000056 -0.000025
# 3 -0.001651 -0.004411 0.009466 -0.000011 0.000107 -0.000031
# 4 0.000001 -0.000002 -0.000011 0.023763 0.000441 -0.000220
# 5 -0.000016 0.000056 0.000107 0.000441 0.239915 0.002098
# 6 0.000004 -0.000025 -0.000031 -0.000220 0.002098 0.030942
#
#
# Mechanical properties :
#
#
# Convention : Reuss Voigt Hill
#
# Bulk Modulus (GPa) = 82.73339 84.30767 83.52053
# Shear Modulus (GPa) = 14.62191 34.08349 24.35270
#
# Velocity S-wave (km/s) = 2.58092 3.94044 3.33078
# Velocity P-wave (km/s) = 6.82433 7.68830 7.26916
#
# Compressibility (1/GPa) = 0.01208702
#
# Stress axis : x y z
#
# Youngs Moduli (GPa) = 150.32839 86.37720 105.63798
#
# Poissons Ratio (x) = 0.15051 0.17440
# Poissons Ratio (y) = 0.26194 0.46595
# Poissons Ratio (z) = 0.24819 0.38100
#
# Static dielectric constant tensor:
#      x y z
#    x 4.394490 0.000040 0.000100 
#    y 0.000040 3.839190 -0.000110 
#    z 0.000100 -0.000110 3.928280 
# 
# 
# High freq. dielectric constant tensor:
#      x y z
#    x 1.890510 0.000010 0.000010 
#    y 0.000010 1.850210 -0.000010 
#    z 0.000010 -0.000010 1.859930 
# 
# From -- ./inp_files/10707.got.cif
#   From: 2010.03.12/outbox.cif.g09.slc.cpg/sg70_6_cif.got.tgz:10707.got - 2010.04.16 13:46:32.
