data_PCOD8286454
_publ_section_title
;
Structure prediction by ZEFSAII (Michael W. Deem and Ramdas Pophale) SiO2 
 PCOD8286454
Probable space group: F D D D
;
_chemical_formula_sum "Si O2"
_cell_formula_units_Z 200
_cell_length_a 18.651311
_cell_length_b 26.865163
_cell_length_c 19.033796
_cell_angle_alpha 90.000000
_cell_angle_beta 90.000000
_cell_angle_gamma 90.000000
_cell_volume 9537.273872
_symmetry_space_group_name_H-M "F D D D"
_symmetry_group_IT_number 70
_space_group.IT_coordinate_system_code '2'
_symmetry_cell_setting 'orthorhombic'
loop_
_space_group_symop_operation_xyz
x,y,z
1/4-x,1/4-y,z
x,1/4-y,1/4-z
1/4-x,y,1/4-z
-x,-y,-z
3/4+x,3/4+y,-z
-x,3/4+y,3/4+z
3/4+x,-y,3/4+z
x,1/2+y,1/2+z
1/4-x,3/4-y,1/2+z
x,3/4-y,3/4-z
1/4-x,1/2+y,3/4-z
-x,1/2-y,1/2-z
3/4+x,1/4+y,1/2-z
-x,1/4+y,1/4+z
3/4+x,1/2-y,1/4+z
1/2+x,y,1/2+z
3/4-x,1/4-y,1/2+z
1/2+x,1/4-y,3/4-z
3/4-x,y,3/4-z
1/2-x,-y,1/2-z
1/4+x,3/4+y,1/2-z
1/2-x,3/4+y,1/4+z
1/4+x,-y,1/4+z
1/2+x,1/2+y,z
3/4-x,3/4-y,z
1/2+x,3/4-y,1/4-z
3/4-x,1/2+y,1/4-z
1/2-x,1/2-y,-z
1/4+x,1/4+y,-z
1/2-x,1/4+y,3/4+z
1/4+x,1/2-y,3/4+z
loop_
_atom_site_type_symbol
_atom_site_label
_atom_site_fract_x
_atom_site_fract_y
_atom_site_fract_z
Si Si1 0.154579 0.951759 0.731565
Si Si2 0.737646 0.288183 0.615159
Si Si3 0.124535 0.068839 0.971104
Si Si4 0.773077 0.795488 0.411518
Si Si5 0.007098 0.247744 0.517053
Si Si6 0.875000 0.118779 0.875000
Si Si7 0.125000 0.625000 0.125000
Si Si8 0.625000 0.544748 0.125000
O O1 0.196146 0.943180 0.804407
O O2 0.157281 0.901426 0.687507
O O3 0.194270 0.993884 0.687322
O O4 0.073526 0.966075 0.747852
O O5 0.807652 0.290132 0.565211
O O6 0.749925 0.287309 0.699032
O O7 0.689140 0.335330 0.594310
O O8 0.694185 0.237607 0.602689
O O9 0.125000 0.125000 0.938378
O O10 0.192500 0.033427 0.956707
O O11 0.129788 0.077652 0.055245
O O12 0.767310 0.792518 0.327791
O O13 0.826784 0.841024 0.427055
#
# Coordination Sequence:
#
# PCOD8286454 Si02
#       8
#    32  32  32  32  32  16   8  16
#     4  11  22  41  63  85 130 175 206 270 335 382
#     4  10  23  38  62  93 125 171 212 272 327 396
#     4  11  22  38  66  96 121 162 225 268 319 392
#     4  11  24  39  64  89 127 173 209 266 326 387
#     4  11  21  43  59  92 132 169 214 265 336 390
#     4  11  21  40  61  93 129 171 224 275 329 398
#     4  12  22  44  62 100 128 162 230 272 308 400
#     4   9  21  42  64  80 132 164 204 271 335 376
#
# _framework density 20.970351999999998
#
# number of rings (size 3 to 8) (size 9 to 14) (size 15 to 20)
#    0.000    1.280    3.200    2.640    2.240    0.000 
#    1.440    0.000    7.040    0.000    0.000    0.000 
#    0.000    0.000    0.000    0.000    0.000    0.000 
#
# Total GULP energy -619632.929261 kJ/mol
# GULP energy per Si atom -12392.658585 kJ/mol
# Density = 2.092262 g / cm^3
# Si number density = 20.970352 Si / 1000 Ang^3
#
#
#
# Elastic Constant Matrix: (Units=GPa)
#
#
# Indices 1 2 3 4 5 6 
#
# 1 156.6813 41.9907 36.2966 0.0000 0.0000 0.0000
# 2 41.9907 95.6008 26.3118 0.0000 0.0000 0.0000
# 3 36.2966 26.3118 66.4779 0.0000 0.0000 0.0000
# 4 0.0000 0.0000 0.0000 55.3768 0.0000 0.0000
# 5 0.0000 0.0000 0.0000 0.0000 37.1066 0.0000
# 6 0.0000 0.0000 0.0000 0.0000 0.0000 8.9814
#
#
#
# Elastic Compliance Matrix: (Units=1/GPa)
#
#
# Indices 1 2 3 4 5 6 
#
# 1 0.007818 -0.002535 -0.003265 0.000000 0.000000 0.000000
# 2 -0.002535 0.012561 -0.003587 0.000000 0.000000 0.000000
# 3 -0.003265 -0.003587 0.018245 0.000000 0.000000 0.000000
# 4 0.000000 0.000000 0.000000 0.018058 0.000000 0.000000
# 5 0.000000 0.000000 0.000000 0.000000 0.026949 0.000000
# 6 0.000000 0.000000 0.000000 0.000000 0.000000 0.111341
#
#
# Mechanical properties :
#
#
# Convention : Reuss Voigt Hill
#
# Bulk Modulus (GPa) = 50.38107 58.66201 54.52154
# Shear Modulus (GPa) = 22.68958 34.57035 28.62997
#
# Velocity S-wave (km/s) = 3.29292 4.06462 3.69895
# Velocity P-wave (km/s) = 6.20764 7.07550 6.65573
#
# Compressibility (1/GPa) = 0.01984872
#
# Stress axis : x y z
#
# Youngs Moduli (GPa) = 127.90530 79.61089 54.80873
#
# Poissons Ratio (x) = 0.20184 0.17897
# Poissons Ratio (y) = 0.32428 0.19662
# Poissons Ratio (z) = 0.41764 0.28559
#
# Static dielectric constant tensor:
#      x y z
#    x 4.091150 0.000000 0.000000 
#    y 0.000000 3.671960 0.000000 
#    z 0.000000 0.000000 3.802200 
# 
# 
# High freq. dielectric constant tensor:
#      x y z
#    x 1.831360 0.000000 0.000000 
#    y 0.000000 1.824250 0.000000 
#    z 0.000000 0.000000 1.815240 
# 
# From -- ./inp_files/43982.got.cif
#   From: 2010.03.12/outbox.cif.g09.slc.cpg/sg70_22_cif.got.tgz:43982.got - 2010.04.16 13:46:32.
