data_PCOD8286554
_publ_section_title
;
Structure prediction by ZEFSAII (Michael W. Deem and Ramdas Pophale) SiO2 
 PCOD8286554
Probable space group: F D D D
;
_chemical_formula_sum "Si O2"
_cell_formula_units_Z 144
_cell_length_a 11.395143
_cell_length_b 24.456068
_cell_length_c 25.201965
_cell_angle_alpha 90.000000
_cell_angle_beta 90.000000
_cell_angle_gamma 90.000000
_cell_volume 7023.293487
_symmetry_space_group_name_H-M "F D D D"
_symmetry_group_IT_number 70
_space_group.IT_coordinate_system_code '2'
_symmetry_cell_setting 'orthorhombic'
loop_
_space_group_symop_operation_xyz
x,y,z
1/4-x,1/4-y,z
x,1/4-y,1/4-z
1/4-x,y,1/4-z
-x,-y,-z
3/4+x,3/4+y,-z
-x,3/4+y,3/4+z
3/4+x,-y,3/4+z
x,1/2+y,1/2+z
1/4-x,3/4-y,1/2+z
x,3/4-y,3/4-z
1/4-x,1/2+y,3/4-z
-x,1/2-y,1/2-z
3/4+x,1/4+y,1/2-z
-x,1/4+y,1/4+z
3/4+x,1/2-y,1/4+z
1/2+x,y,1/2+z
3/4-x,1/4-y,1/2+z
1/2+x,1/4-y,3/4-z
3/4-x,y,3/4-z
1/2-x,-y,1/2-z
1/4+x,3/4+y,1/2-z
1/2-x,3/4+y,1/4+z
1/4+x,-y,1/4+z
1/2+x,1/2+y,z
3/4-x,3/4-y,z
1/2+x,3/4-y,1/4-z
3/4-x,1/2+y,1/4-z
1/2-x,1/2-y,-z
1/4+x,1/4+y,-z
1/2-x,1/4+y,3/4+z
1/4+x,1/2-y,3/4+z
loop_
_atom_site_type_symbol
_atom_site_label
_atom_site_fract_x
_atom_site_fract_y
_atom_site_fract_z
Si Si1 0.625000 0.125000 0.852168
Si Si2 0.077181 0.971073 0.755070
Si Si3 0.510788 0.933584 0.365143
Si Si4 0.205848 0.077627 0.795225
Si Si5 0.336419 0.482906 0.702132
O O1 0.712877 0.159144 0.891322
O O2 0.690032 0.080372 0.814626
O O3 0.017897 0.940388 0.802870
O O4 0.161144 0.927009 0.725628
O O5 0.972949 0.990531 0.716711
O O6 0.146226 0.020829 0.780991
O O7 0.571022 0.875000 0.375000
O O8 0.375000 0.932918 0.375000
O O9 0.570704 0.979874 0.400481
O O10 0.125000 0.125000 0.767654
O O11 0.250000 0.500000 0.750000
#
# Coordination Sequence:
#
# PCOD8286554 Si02
#       5
#    16  32  32  32  32
#     4  10  24  46  66 101 137 186 240 288 354 432
#     4  11  23  43  69 100 136 174 235 289 346 423
#     4  11  24  43  65 100 142 178 225 285 350 424
#     4   9  22  46  68  96 136 179 227 292 350 418
#     4  12  26  42  70 103 135 185 235 287 358 420
#
# _framework density 20.503202000000002
#
# number of rings (size 3 to 8) (size 9 to 14) (size 15 to 20)
#    0.667    0.667    4.444    0.000    6.222    0.889 
#    8.000    0.000    0.000    0.000    0.000    0.000 
#    0.000    0.000    0.000    0.000    0.000    0.000 
#
# Total GULP energy -446043.350373 kJ/mol
# GULP energy per Si atom -12390.093066 kJ/mol
# Density = 2.045654 g / cm^3
# Si number density = 20.503202 Si / 1000 Ang^3
#
#
#
# Elastic Constant Matrix: (Units=GPa)
#
#
# Indices 1 2 3 4 5 6 
#
# 1 113.2429 32.7490 45.2146 0.0000 0.0000 0.0000
# 2 32.7490 132.8205 50.8857 0.0000 0.0000 0.0000
# 3 45.2146 50.8857 117.1451 0.0000 0.0000 0.0000
# 4 0.0000 0.0000 0.0000 37.7419 0.0000 0.0000
# 5 0.0000 0.0000 0.0000 0.0000 25.8140 0.0000
# 6 0.0000 0.0000 0.0000 0.0000 0.0000 34.8791
#
#
#
# Elastic Compliance Matrix: (Units=1/GPa)
#
#
# Indices 1 2 3 4 5 6 
#
# 1 0.010611 -0.001256 -0.003550 0.000000 0.000000 0.000000
# 2 -0.001256 0.009181 -0.003503 0.000000 0.000000 0.000000
# 3 -0.003550 -0.003503 0.011428 0.000000 0.000000 0.000000
# 4 0.000000 0.000000 0.000000 0.026496 0.000000 0.000000
# 5 0.000000 0.000000 0.000000 0.000000 0.038739 0.000000
# 6 0.000000 0.000000 0.000000 0.000000 0.000000 0.028670
#
#
# Mechanical properties :
#
#
# Convention : Reuss Voigt Hill
#
# Bulk Modulus (GPa) = 68.48521 68.98969 68.73745
# Shear Modulus (GPa) = 34.10384 35.31095 34.70740
#
# Velocity S-wave (km/s) = 4.08283 4.15446 4.11880
# Velocity P-wave (km/s) = 7.46329 7.53220 7.49783
#
# Compressibility (1/GPa) = 0.01460169
#
# Stress axis : x y z
#
# Youngs Moduli (GPa) = 94.23936 108.92283 87.50249
#
# Poissons Ratio (x) = 0.13685 0.31063
# Poissons Ratio (y) = 0.11840 0.30653
# Poissons Ratio (z) = 0.33454 0.38156
#
# Static dielectric constant tensor:
#      x y z
#    x 3.611150 0.000000 0.000000 
#    y 0.000000 3.619530 0.000000 
#    z 0.000000 0.000000 3.799530 
# 
# 
# High freq. dielectric constant tensor:
#      x y z
#    x 1.788910 0.000000 0.000000 
#    y 0.000000 1.813270 0.000000 
#    z 0.000000 0.000000 1.810750 
# 
# From -- ./inp_files/19201.got.cif
#   From: 2010.03.12/outbox.cif.g09.slc.cpg/sg70_10_cif.got.tgz:19201.got - 2010.04.16 13:46:32.
