data_PCOD8286953
_publ_section_title
;
Structure prediction by ZEFSAII (Michael W. Deem and Ramdas Pophale) SiO2 
 PCOD8286953
Probable space group: I M M M
;
_chemical_formula_sum "Si O2"
_cell_formula_units_Z 104
_cell_length_a 23.293909
_cell_length_b 16.826011
_cell_length_c 20.613353
_cell_angle_alpha 90.000000
_cell_angle_beta 90.000000
_cell_angle_gamma 90.000000
_cell_volume 8079.271145
_symmetry_space_group_name_H-M "I M M M"
_symmetry_group_IT_number 71
_symmetry_cell_setting 'orthorhombic'
loop_
_space_group_symop_operation_xyz
x,y,z
-x,-y,z
x,-y,-z
-x,y,-z
-x,-y,-z
x,y,-z
-x,y,z
x,-y,z
1/2+x,1/2+y,1/2+z
1/2-x,1/2-y,1/2+z
1/2+x,1/2-y,1/2-z
1/2-x,1/2+y,1/2-z
1/2-x,1/2-y,1/2-z
1/2+x,1/2+y,1/2-z
1/2-x,1/2+y,1/2+z
1/2+x,1/2-y,1/2+z
loop_
_atom_site_type_symbol
_atom_site_label
_atom_site_fract_x
_atom_site_fract_y
_atom_site_fract_z
Si Si1 0.748207 0.909237 0.074612
Si Si2 0.935102 0.094936 0.000000
Si Si3 0.373092 0.842456 0.076001
Si Si4 0.568043 0.411922 0.000000
Si Si5 0.067352 0.189523 0.621528
Si Si6 0.131515 0.905867 0.124107
Si Si7 0.935501 0.500000 0.577054
Si Si8 0.933647 0.091767 0.749579
O O1 0.694885 0.851212 0.088085
O O2 0.801589 0.881067 0.118889
O O3 0.729953 0.000000 0.090272
O O4 0.768103 0.903896 0.000000
O O5 0.904014 0.130011 0.936180
O O6 0.000000 0.126268 0.000000
O O7 0.932878 0.000000 0.000000
O O8 0.396844 0.770575 0.118910
O O9 0.403791 0.921557 0.102476
O O10 0.386859 0.828135 0.000000
O O11 0.589429 0.366407 0.936338
O O12 0.595213 0.500000 0.000000
O O13 0.500000 0.418335 0.000000
O O14 0.081474 0.145159 0.688009
O O15 0.000000 0.208957 0.614275
O O16 0.105014 0.875037 0.191546
O O17 0.125740 0.000000 0.121253
O O18 0.933793 0.500000 0.500000
O O19 0.000000 0.500000 0.604132
O O20 0.000000 0.100475 0.769644
O O21 0.919700 0.000000 0.732899
#
# Coordination Sequence:
#
# PCOD8286953 Si02
#       8
#    16   8  16   8  16  16   8  16
#     4   9  15  25  39  55  77 101 129 152 185 225
#     4   9  14  20  33  56  78  94 119 157 189 219
#     4  10  17  26  38  56  76 100 127 161 195 231
#     4   9  16  26  39  53  69  93 128 166 197 221
#     4  10  18  27  39  55  75  99 130 164 198 230
#     4   9  15  24  38  56  75 101 128 156 184 225
#     4   9  16  24  36  54  76  98 120 155 199 239
#     4   9  17  28  40  55  77 104 130 157 194 232
#
# _framework density 12.872448
#
# number of rings (size 3 to 8) (size 9 to 14) (size 15 to 20)
#    0.000    2.692    2.308    1.385    0.000    4.308 
#    0.000    0.769    0.000    0.000    0.000    0.000 
#    0.000    0.000    0.000    0.000    0.000    0.385 
#
# Total GULP energy -644685.195301 kJ/mol
# GULP energy per Si atom -12397.792217 kJ/mol
# Density = 1.284315 g / cm^3
# Si number density = 12.872448 Si / 1000 Ang^3
#
#
#
# Elastic Constant Matrix: (Units=GPa)
#
#
# Indices 1 2 3 4 5 6 
#
# 1 75.0146 36.6096 47.5576 0.0000 0.0000 0.0000
# 2 36.6096 69.0919 39.0221 0.0000 0.0000 0.0000
# 3 47.5576 39.0221 84.4836 0.0000 0.0000 0.0000
# 4 0.0000 0.0000 0.0000 7.5796 0.0000 0.0000
# 5 0.0000 0.0000 0.0000 0.0000 16.7103 0.0000
# 6 0.0000 0.0000 0.0000 0.0000 0.0000 11.7521
#
#
#
# Elastic Compliance Matrix: (Units=1/GPa)
#
#
# Indices 1 2 3 4 5 6 
#
# 1 0.022704 -0.006510 -0.009774 0.000000 0.000000 0.000000
# 2 -0.006510 0.021448 -0.006242 0.000000 0.000000 0.000000
# 3 -0.009774 -0.006242 0.020222 0.000000 0.000000 0.000000
# 4 0.000000 0.000000 0.000000 0.131934 0.000000 0.000000
# 5 0.000000 0.000000 0.000000 0.000000 0.059843 0.000000
# 6 0.000000 0.000000 0.000000 0.000000 0.000000 0.085091
#
#
# Mechanical properties :
#
#
# Convention : Reuss Voigt Hill
#
# Bulk Modulus (GPa) = 51.75366 52.77429 52.26398
# Shear Modulus (GPa) = 12.73123 14.23513 13.48318
#
# Velocity S-wave (km/s) = 3.14830 3.32906 3.23994
# Velocity P-wave (km/s) = 7.31491 7.47420 7.39499
#
# Compressibility (1/GPa) = 0.01932231
#
# Stress axis : x y z
#
# Youngs Moduli (GPa) = 44.04464 46.62339 49.45217
#
# Poissons Ratio (x) = 0.30353 0.48333
# Poissons Ratio (y) = 0.28674 0.30868
# Poissons Ratio (z) = 0.43048 0.29103
#
# Static dielectric constant tensor:
#      x y z
#    x 2.589090 0.000000 0.000000 
#    y 0.000000 2.382380 0.000000 
#    z 0.000000 0.000000 2.514140 
# 
# 
# High freq. dielectric constant tensor:
#      x y z
#    x 1.485190 0.000000 0.000000 
#    y 0.000000 1.456430 0.000000 
#    z 0.000000 0.000000 1.471160 
# 
# From -- ./inp_files/48271.got.cif
#   From: 2010.06.25/outbox.cif.g09.slc.cpg/sg71_25_cif.got.tgz:48271.got - 2010.06.28 04:59:45.
