data_PCOD8286275
_publ_section_title
;
Structure prediction by ZEFSAII (Michael W. Deem and Ramdas Pophale) SiO2 
 PCOD8286275
Probable space group: F D D D
;
_chemical_formula_sum "Si O2"
_cell_formula_units_Z 160
_cell_length_a 21.906312
_cell_length_b 13.028428
_cell_length_c 28.139402
_cell_angle_alpha 90.000000
_cell_angle_beta 90.000000
_cell_angle_gamma 90.000000
_cell_volume 8031.120643
_symmetry_space_group_name_H-M "F D D D"
_symmetry_group_IT_number 70
_space_group.IT_coordinate_system_code '2'
_symmetry_cell_setting 'orthorhombic'
loop_
_space_group_symop_operation_xyz
x,y,z
1/4-x,1/4-y,z
x,1/4-y,1/4-z
1/4-x,y,1/4-z
-x,-y,-z
3/4+x,3/4+y,-z
-x,3/4+y,3/4+z
3/4+x,-y,3/4+z
x,1/2+y,1/2+z
1/4-x,3/4-y,1/2+z
x,3/4-y,3/4-z
1/4-x,1/2+y,3/4-z
-x,1/2-y,1/2-z
3/4+x,1/4+y,1/2-z
-x,1/4+y,1/4+z
3/4+x,1/2-y,1/4+z
1/2+x,y,1/2+z
3/4-x,1/4-y,1/2+z
1/2+x,1/4-y,3/4-z
3/4-x,y,3/4-z
1/2-x,-y,1/2-z
1/4+x,3/4+y,1/2-z
1/2-x,3/4+y,1/4+z
1/4+x,-y,1/4+z
1/2+x,1/2+y,z
3/4-x,3/4-y,z
1/2+x,3/4-y,1/4-z
3/4-x,1/2+y,1/4-z
1/2-x,1/2-y,-z
1/4+x,1/4+y,-z
1/2-x,1/4+y,3/4+z
1/4+x,1/2-y,3/4+z
loop_
_atom_site_type_symbol
_atom_site_label
_atom_site_fract_x
_atom_site_fract_y
_atom_site_fract_z
Si Si1 0.517587 0.059189 0.046349
Si Si2 0.052725 0.474978 0.242906
Si Si3 0.353951 0.637000 0.925736
Si Si4 0.114602 0.865212 0.320960
Si Si5 0.417345 0.968950 0.252937
O O1 0.455364 0.077049 0.075270
O O2 0.562564 0.989804 0.078372
O O3 0.552370 0.159885 0.027765
O O4 0.500000 0.000000 0.000000
O O5 0.084735 0.405029 0.204402
O O6 0.090820 0.464181 0.292667
O O7 0.985158 0.427070 0.244039
O O8 0.375000 0.597301 0.875000
O O9 0.319505 0.546302 0.953292
O O10 0.139655 0.875000 0.375000
O O11 0.112501 0.974018 0.292818
O O12 0.375000 0.875000 0.268227
#
# Coordination Sequence:
#
# PCOD8286275 Si02
#       5
#    32  32  32  32  32
#     4  11  20  39  62  89 127 157 198 257 316 370
#     4  10  21  41  65  85 128 163 198 256 319 359
#     4  11  24  38  63  96 119 162 212 250 310 369
#     4  10  23  41  61  98 123 159 210 254 312 371
#     4  10  23  46  61  86 128 169 204 257 302 364
#
# _framework density 19.922499999999999
#
# number of rings (size 3 to 8) (size 9 to 14) (size 15 to 20)
#    0.000    1.600    6.000    0.600    5.600    4.400 
#   10.800    0.000    0.000    0.000    0.000    0.000 
#    0.000    0.000    0.000    0.000    0.000    0.000 
#
# Total GULP energy -495753.826246 kJ/mol
# GULP energy per Si atom -12393.845656 kJ/mol
# Density = 1.987716 g / cm^3
# Si number density = 19.922500 Si / 1000 Ang^3
#
#
#
# Elastic Constant Matrix: (Units=GPa)
#
#
# Indices 1 2 3 4 5 6 
#
# 1 105.3267 37.6250 9.0001 0.0000 0.0000 0.0000
# 2 37.6250 71.8225 13.6668 0.0000 0.0000 0.0000
# 3 9.0001 13.6668 117.3689 0.0000 0.0000 0.0000
# 4 0.0000 0.0000 0.0000 6.5643 0.0000 0.0000
# 5 0.0000 0.0000 0.0000 0.0000 17.8502 0.0000
# 6 0.0000 0.0000 0.0000 0.0000 0.0000 28.4214
#
#
#
# Elastic Compliance Matrix: (Units=1/GPa)
#
#
# Indices 1 2 3 4 5 6 
#
# 1 0.011684 -0.006085 -0.000187 0.000000 0.000000 0.000000
# 2 -0.006085 0.017408 -0.001560 0.000000 0.000000 0.000000
# 3 -0.000187 -0.001560 0.008716 0.000000 0.000000 0.000000
# 4 0.000000 0.000000 0.000000 0.152339 0.000000 0.000000
# 5 0.000000 0.000000 0.000000 0.000000 0.056022 0.000000
# 6 0.000000 0.000000 0.000000 0.000000 0.000000 0.035185
#
#
# Mechanical properties :
#
#
# Convention : Reuss Voigt Hill
#
# Bulk Modulus (GPa) = 45.16251 46.12245 45.64248
# Shear Modulus (GPa) = 16.42571 26.18225 21.30398
#
# Velocity S-wave (km/s) = 2.87449 3.62913 3.27363
# Velocity P-wave (km/s) = 5.80821 6.38451 6.10316
#
# Compressibility (1/GPa) = 0.02214226
#
# Stress axis : x y z
#
# Youngs Moduli (GPa) = 85.58691 57.44517 114.72869
#
# Poissons Ratio (x) = 0.34956 0.02150
# Poissons Ratio (y) = 0.52081 0.17902
# Poissons Ratio (z) = 0.01604 0.08964
#
# Static dielectric constant tensor:
#      x y z
#    x 2.922220 0.000000 0.000000 
#    y 0.000000 1.703990 0.000000 
#    z 0.000000 0.000000 3.239940 
# 
# 
# High freq. dielectric constant tensor:
#      x y z
#    x 1.788800 0.000000 0.000000 
#    y 0.000000 1.763250 0.000000 
#    z 0.000000 0.000000 1.766320 
# 
# From -- ./inp_files/50312.got.cif
#   From: 2010.03.12/outbox.cif.g09.slc.cpg/sg70_26_cif.got.tgz:50312.got - 2010.04.16 13:46:32.
