data_PCOD8286128
_publ_section_title
;
Structure prediction by ZEFSAII (Michael W. Deem and Ramdas Pophale) SiO2 
 PCOD8286128
Probable space group: F D D D
;
_chemical_formula_sum "Si O2"
_cell_formula_units_Z 128
_cell_length_a 9.805231
_cell_length_b 25.917303
_cell_length_c 20.464536
_cell_angle_alpha 90.000000
_cell_angle_beta 90.000000
_cell_angle_gamma 90.000000
_cell_volume 5200.553134
_symmetry_space_group_name_H-M "F D D D"
_symmetry_group_IT_number 70
_space_group.IT_coordinate_system_code '2'
_symmetry_cell_setting 'orthorhombic'
loop_
_space_group_symop_operation_xyz
x,y,z
1/4-x,1/4-y,z
x,1/4-y,1/4-z
1/4-x,y,1/4-z
-x,-y,-z
3/4+x,3/4+y,-z
-x,3/4+y,3/4+z
3/4+x,-y,3/4+z
x,1/2+y,1/2+z
1/4-x,3/4-y,1/2+z
x,3/4-y,3/4-z
1/4-x,1/2+y,3/4-z
-x,1/2-y,1/2-z
3/4+x,1/4+y,1/2-z
-x,1/4+y,1/4+z
3/4+x,1/2-y,1/4+z
1/2+x,y,1/2+z
3/4-x,1/4-y,1/2+z
1/2+x,1/4-y,3/4-z
3/4-x,y,3/4-z
1/2-x,-y,1/2-z
1/4+x,3/4+y,1/2-z
1/2-x,3/4+y,1/4+z
1/4+x,-y,1/4+z
1/2+x,1/2+y,z
3/4-x,3/4-y,z
1/2+x,3/4-y,1/4-z
3/4-x,1/2+y,1/4-z
1/2-x,1/2-y,-z
1/4+x,1/4+y,-z
1/2-x,1/4+y,3/4+z
1/4+x,1/2-y,3/4+z
loop_
_atom_site_type_symbol
_atom_site_label
_atom_site_fract_x
_atom_site_fract_y
_atom_site_fract_z
Si Si1 0.372305 0.433596 0.122406
Si Si2 0.747382 0.594282 0.057435
Si Si3 0.292146 0.327454 0.479810
Si Si4 0.125000 0.496955 0.125000
Si Si5 0.625000 0.500288 0.125000
O O1 0.375000 0.375000 0.098036
O O2 0.356897 0.436444 0.200780
O O3 0.240986 0.461737 0.090918
O O4 0.507259 0.462810 0.097032
O O5 0.625000 0.625000 0.020066
O O6 0.778517 0.625000 0.125000
O O7 0.693535 0.536202 0.069759
O O8 0.883074 0.593041 0.013703
O O9 0.375000 0.375000 0.448704
O O10 0.303784 0.279367 0.431670
#
# Coordination Sequence:
#
# PCOD8286128 Si02
#       5
#    32  32  32  16  16
#     4  11  25  43  63  90 132 174 215 261 318 390
#     4   9  19  36  65  97 126 160 204 276 332 368
#     4  11  23  40  68 100 125 164 219 272 321 385
#     4  12  22  40  70  92 126 172 214 270 322 384
#     4  10  20  40  64  86 132 166 206 260 322 378
#
# _framework density 24.612767000000002
#
# number of rings (size 3 to 8) (size 9 to 14) (size 15 to 20)
#    0.000    1.750    2.500    3.375    3.500    0.000 
#    0.000    7.500    0.000    0.000    0.000    0.000 
#    0.000    0.000    0.000    0.000    0.000    0.000 
#
# Total GULP energy -396765.940066 kJ/mol
# GULP energy per Si atom -12398.935627 kJ/mol
# Density = 2.455675 g / cm^3
# Si number density = 24.612767 Si / 1000 Ang^3
#
#
#
# Elastic Constant Matrix: (Units=GPa)
#
#
# Indices 1 2 3 4 5 6 
#
# 1 207.1752 81.6960 5.1090 0.0000 0.0000 0.0000
# 2 81.6960 176.5858 2.0531 0.0000 0.0000 0.0000
# 3 5.1090 2.0531 57.9512 0.0000 0.0000 0.0000
# 4 0.0000 0.0000 0.0000 -17.5280 0.0000 0.0000
# 5 0.0000 0.0000 0.0000 0.0000 12.3157 0.0000
# 6 0.0000 0.0000 0.0000 0.0000 0.0000 56.4977
#
#
#
# Elastic Compliance Matrix: (Units=1/GPa)
#
#
# Indices 1 2 3 4 5 6 
#
# 1 0.005914 -0.002731 -0.000425 0.000000 0.000000 0.000000
# 2 -0.002731 0.006927 -0.000005 0.000000 0.000000 0.000000
# 3 -0.000425 -0.000005 0.017294 0.000000 0.000000 0.000000
# 4 0.000000 0.000000 0.000000 -0.057052 0.000000 0.000000
# 5 0.000000 0.000000 0.000000 0.000000 0.081197 0.000000
# 6 0.000000 0.000000 0.000000 0.000000 0.000000 0.017700
#
#
# Mechanical properties :
#
#
# Convention : Reuss Voigt Hill
#
# Bulk Modulus (GPa) = 41.99316 68.82537 55.40927
# Shear Modulus (GPa) = 57.97874 33.78070 45.87972
#
# Velocity S-wave (km/s) = 4.85876 3.70873 4.32216
# Velocity P-wave (km/s) = 6.96959 6.80908 6.88980
#
# Compressibility (1/GPa) = 0.02381340
#
# Stress axis : x y z
#
# Youngs Moduli (GPa) = 169.08061 144.37040 57.82518
#
# Poissons Ratio (x) = 0.39432 0.02456
# Poissons Ratio (y) = 0.46181 0.00027
# Poissons Ratio (z) = 0.07180 0.00066
#
# Static dielectric constant tensor:
#      x y z
#    x 4.758280 0.000000 0.000000 
#    y 0.000000 4.894670 0.000000 
#    z 0.000000 0.000000 3.811360 
# 
# 
# High freq. dielectric constant tensor:
#      x y z
#    x 1.995620 0.000000 0.000000 
#    y 0.000000 2.002280 0.000000 
#    z 0.000000 0.000000 1.946230 
# 
# From -- ./inp_files/63784.got.cif
#   From: 2010.03.12/outbox.cif.g09.slc.cpg/sg70_32_cif.got.tgz:63784.got - 2010.04.16 13:46:32.
