data_PCOD8286353
_publ_section_title
;
Structure prediction by ZEFSAII (Michael W. Deem and Ramdas Pophale) SiO2 
 PCOD8286353
Probable space group: F D D D
;
_chemical_formula_sum "Si O2"
_cell_formula_units_Z 160
_cell_length_a 13.700813
_cell_length_b 20.590121
_cell_length_c 24.483001
_cell_angle_alpha 90.000000
_cell_angle_beta 90.000000
_cell_angle_gamma 90.000000
_cell_volume 6906.688796
_symmetry_space_group_name_H-M "F D D D"
_symmetry_group_IT_number 70
_space_group.IT_coordinate_system_code '2'
_symmetry_cell_setting 'orthorhombic'
loop_
_space_group_symop_operation_xyz
x,y,z
1/4-x,1/4-y,z
x,1/4-y,1/4-z
1/4-x,y,1/4-z
-x,-y,-z
3/4+x,3/4+y,-z
-x,3/4+y,3/4+z
3/4+x,-y,3/4+z
x,1/2+y,1/2+z
1/4-x,3/4-y,1/2+z
x,3/4-y,3/4-z
1/4-x,1/2+y,3/4-z
-x,1/2-y,1/2-z
3/4+x,1/4+y,1/2-z
-x,1/4+y,1/4+z
3/4+x,1/2-y,1/4+z
1/2+x,y,1/2+z
3/4-x,1/4-y,1/2+z
1/2+x,1/4-y,3/4-z
3/4-x,y,3/4-z
1/2-x,-y,1/2-z
1/4+x,3/4+y,1/2-z
1/2-x,3/4+y,1/4+z
1/4+x,-y,1/4+z
1/2+x,1/2+y,z
3/4-x,3/4-y,z
1/2+x,3/4-y,1/4-z
3/4-x,1/2+y,1/4-z
1/2-x,1/2-y,-z
1/4+x,1/4+y,-z
1/2-x,1/4+y,3/4+z
1/4+x,1/2-y,3/4+z
loop_
_atom_site_type_symbol
_atom_site_label
_atom_site_fract_x
_atom_site_fract_y
_atom_site_fract_z
Si Si1 0.663739 0.037085 0.064522
Si Si2 0.875000 0.375000 0.470513
Si Si3 0.638532 0.026382 0.438900
Si Si4 0.831893 0.633004 0.064882
Si Si5 0.375000 0.375000 0.154674
Si Si6 0.747479 0.088802 0.245534
O O1 0.625000 0.042420 0.125000
O O2 0.713689 0.103633 0.045749
O O3 0.566860 0.025081 0.024880
O O4 0.742928 0.979408 0.060648
O O5 0.899533 0.435174 0.509144
O O6 0.780439 0.390066 0.433906
O O7 0.604237 0.062263 0.383002
O O8 0.585079 0.958855 0.447200
O O9 0.878382 0.625000 0.125000
O O10 0.887331 0.588073 0.018885
O O11 0.279848 0.390442 0.192623
#
# Coordination Sequence:
#
# PCOD8286353 Si02
#       6
#    32  16  32  32  16  32
#     4   9  16  31  57  85 115 149 186 239 302 357
#     4  11  25  44  61  84 119 166 211 251 302 360
#     4  10  22  40  61  88 124 159 201 250 298 363
#     4  11  23  41  64  90 119 158 207 259 305 359
#     4   9  20  38  60  90 124 162 200 237 304 380
#     4   9  18  35  58  88 121 152 191 249 309 362
#
# _framework density 23.165949000000001
#
# number of rings (size 3 to 8) (size 9 to 14) (size 15 to 20)
#    0.000    2.400    0.000    4.500    0.000    6.400 
#    0.000   11.000    0.000    0.000    0.000    0.000 
#    0.000    0.000    0.000    0.000    0.000    0.000 
#
# Total GULP energy -495697.815920 kJ/mol
# GULP energy per Si atom -12392.445398 kJ/mol
# Density = 2.311322 g / cm^3
# Si number density = 23.165949 Si / 1000 Ang^3
#
#
#
# Elastic Constant Matrix: (Units=GPa)
#
#
# Indices 1 2 3 4 5 6 
#
# 1 121.8513 0.7986 26.9878 0.0000 0.0000 0.0000
# 2 0.7986 48.5751 8.0056 0.0000 0.0000 0.0000
# 3 26.9878 8.0056 97.4178 0.0000 0.0000 0.0000
# 4 0.0000 0.0000 0.0000 16.3251 0.0000 0.0000
# 5 0.0000 0.0000 0.0000 0.0000 33.9387 0.0000
# 6 0.0000 0.0000 0.0000 0.0000 0.0000 21.2164
#
#
#
# Elastic Compliance Matrix: (Units=1/GPa)
#
#
# Indices 1 2 3 4 5 6 
#
# 1 0.008746 0.000259 -0.002444 0.000000 0.000000 0.000000
# 2 0.000259 0.020877 -0.001787 0.000000 0.000000 0.000000
# 3 -0.002444 -0.001787 0.011089 0.000000 0.000000 0.000000
# 4 0.000000 0.000000 0.000000 0.061255 0.000000 0.000000
# 5 0.000000 0.000000 0.000000 0.000000 0.029465 0.000000
# 6 0.000000 0.000000 0.000000 0.000000 0.000000 0.047133
#
#
# Mechanical properties :
#
#
# Convention : Reuss Voigt Hill
#
# Bulk Modulus (GPa) = 30.51834 37.71425 34.11629
# Shear Modulus (GPa) = 25.32495 29.76619 27.54557
#
# Velocity S-wave (km/s) = 3.30994 3.58845 3.45201
# Velocity P-wave (km/s) = 5.27352 5.78660 5.53601
#
# Compressibility (1/GPa) = 0.03276718
#
# Stress axis : x y z
#
# Youngs Moduli (GPa) = 114.33280 47.89958 90.17866
#
# Poissons Ratio (x) = -0.01241 0.22043
# Poissons Ratio (y) = -0.02962 0.16118
# Poissons Ratio (z) = 0.27947 0.08562
#
# Static dielectric constant tensor:
#      x y z
#    x 4.947890 0.000000 0.000000 
#    y 0.000000 4.179100 0.000000 
#    z 0.000000 0.000000 4.037400 
# 
# 
# High freq. dielectric constant tensor:
#      x y z
#    x 1.918790 0.000000 0.000000 
#    y 0.000000 1.910300 0.000000 
#    z 0.000000 0.000000 1.918280 
# 
# From -- ./inp_files/58551.got.cif
#   From: 2010.03.12/outbox.cif.g09.slc.cpg/sg70_30_cif.got.tgz:58551.got - 2010.04.16 13:46:32.
