data_PCOD8286532
_publ_section_title
;
Structure prediction by ZEFSAII (Michael W. Deem and Ramdas Pophale) SiO2 
 PCOD8286532
Probable space group: F D D D
;
_chemical_formula_sum "Si O2"
_cell_formula_units_Z 160
_cell_length_a 9.856993
_cell_length_b 33.676127
_cell_length_c 23.412824
_cell_angle_alpha 90.000000
_cell_angle_beta 90.000000
_cell_angle_gamma 90.000000
_cell_volume 7771.778013
_symmetry_space_group_name_H-M "F D D D"
_symmetry_group_IT_number 70
_space_group.IT_coordinate_system_code '2'
_symmetry_cell_setting 'orthorhombic'
loop_
_space_group_symop_operation_xyz
x,y,z
1/4-x,1/4-y,z
x,1/4-y,1/4-z
1/4-x,y,1/4-z
-x,-y,-z
3/4+x,3/4+y,-z
-x,3/4+y,3/4+z
3/4+x,-y,3/4+z
x,1/2+y,1/2+z
1/4-x,3/4-y,1/2+z
x,3/4-y,3/4-z
1/4-x,1/2+y,3/4-z
-x,1/2-y,1/2-z
3/4+x,1/4+y,1/2-z
-x,1/4+y,1/4+z
3/4+x,1/2-y,1/4+z
1/2+x,y,1/2+z
3/4-x,1/4-y,1/2+z
1/2+x,1/4-y,3/4-z
3/4-x,y,3/4-z
1/2-x,-y,1/2-z
1/4+x,3/4+y,1/2-z
1/2-x,3/4+y,1/4+z
1/4+x,-y,1/4+z
1/2+x,1/2+y,z
3/4-x,3/4-y,z
1/2+x,3/4-y,1/4-z
3/4-x,1/2+y,1/4-z
1/2-x,1/2-y,-z
1/4+x,1/4+y,-z
1/2-x,1/4+y,3/4+z
1/4+x,1/2-y,3/4+z
loop_
_atom_site_type_symbol
_atom_site_label
_atom_site_fract_x
_atom_site_fract_y
_atom_site_fract_z
Si Si1 0.016118 0.770496 0.842323
Si Si2 0.125000 0.334476 0.625000
Si Si3 0.976407 0.669350 0.146569
Si Si4 0.861889 0.293704 0.519933
Si Si5 0.625000 0.625000 0.927016
Si Si6 0.666330 0.459397 0.741703
O O1 0.875000 0.766585 0.875000
O O2 0.999832 0.785238 0.777597
O O3 0.116589 0.799867 0.873855
O O4 0.084978 0.727486 0.831709
O O5 0.248029 0.363716 0.638171
O O6 0.077146 0.306624 0.677173
O O7 0.939598 0.625000 0.125000
O O8 0.125000 0.681379 0.125000
O O9 0.972244 0.674886 0.215389
O O10 0.843005 0.339845 0.529998
O O11 0.008936 0.281603 0.494791
O O12 0.750000 0.500000 0.750000
#
# Coordination Sequence:
#
# PCOD8286532 Si02
#       6
#    32  16  32  32  16  32
#     4  11  23  42  68  97 134 174 222 278 344 404
#     4  10  26  44  68 100 131 190 219 286 344 398
#     4  11  26  44  68 104 137 176 231 288 355 412
#     4  10  24  41  65 101 131 178 220 277 337 412
#     4  10  24  44  65  94 137 166 232 266 340 404
#     4  11  24  44  71  99 139 182 235 282 344 416
#
# _framework density 20.587309000000001
#
# number of rings (size 3 to 8) (size 9 to 14) (size 15 to 20)
#    0.000    1.400    2.000    1.200   14.000    2.000 
#    3.600    0.000    0.000    0.000    0.000    0.000 
#    0.000    0.000    0.000    0.000    0.000    0.000 
#
# Total GULP energy -495831.067644 kJ/mol
# GULP energy per Si atom -12395.776691 kJ/mol
# Density = 2.054045 g / cm^3
# Si number density = 20.587309 Si / 1000 Ang^3
#
#
#
# Elastic Constant Matrix: (Units=GPa)
#
#
# Indices 1 2 3 4 5 6 
#
# 1 108.9160 48.2938 42.4118 0.0000 0.0000 0.0000
# 2 48.2938 145.7439 58.2051 0.0000 0.0000 0.0000
# 3 42.4118 58.2051 132.4940 0.0000 0.0000 0.0000
# 4 0.0000 0.0000 0.0000 27.2205 0.0000 0.0000
# 5 0.0000 0.0000 0.0000 0.0000 29.1364 0.0000
# 6 0.0000 0.0000 0.0000 0.0000 0.0000 22.8478
#
#
#
# Elastic Compliance Matrix: (Units=1/GPa)
#
#
# Indices 1 2 3 4 5 6 
#
# 1 0.011361 -0.002804 -0.002405 0.000000 0.000000 0.000000
# 2 -0.002804 0.009013 -0.003062 0.000000 0.000000 0.000000
# 3 -0.002405 -0.003062 0.009662 0.000000 0.000000 0.000000
# 4 0.000000 0.000000 0.000000 0.036737 0.000000 0.000000
# 5 0.000000 0.000000 0.000000 0.000000 0.034321 0.000000
# 6 0.000000 0.000000 0.000000 0.000000 0.000000 0.043768
#
#
# Mechanical properties :
#
#
# Convention : Reuss Voigt Hill
#
# Bulk Modulus (GPa) = 74.10180 76.10836 75.10508
# Shear Modulus (GPa) = 30.13793 31.72382 30.93087
#
# Velocity S-wave (km/s) = 3.83026 3.92974 3.88032
# Velocity P-wave (km/s) = 7.45877 7.59206 7.52571
#
# Compressibility (1/GPa) = 0.01349495
#
# Stress axis : x y z
#
# Youngs Moduli (GPa) = 88.01841 110.94575 103.49339
#
# Poissons Ratio (x) = 0.31112 0.24889
# Poissons Ratio (y) = 0.24683 0.31689
# Poissons Ratio (z) = 0.21167 0.33971
#
# Static dielectric constant tensor:
#      x y z
#    x 4.013840 0.000000 0.000000 
#    y 0.000000 3.769940 0.000000 
#    z 0.000000 0.000000 3.955580 
# 
# 
# High freq. dielectric constant tensor:
#      x y z
#    x 1.816400 0.000000 0.000000 
#    y 0.000000 1.807620 0.000000 
#    z 0.000000 0.000000 1.817870 
# 
# From -- ./inp_files/50337.got.cif
#   From: 2010.03.12/outbox.cif.g09.slc.cpg/sg70_26_cif.got.tgz:50337.got - 2010.04.16 13:46:32.
