data_PCOD8286686
_publ_section_title
;
Structure prediction by ZEFSAII (Michael W. Deem and Ramdas Pophale) SiO2 
 PCOD8286686
Probable space group: F D D D
;
_chemical_formula_sum "Si O2"
_cell_formula_units_Z 104
_cell_length_a 15.241785
_cell_length_b 26.498492
_cell_length_c 11.844047
_cell_angle_alpha 90.000000
_cell_angle_beta 90.000000
_cell_angle_gamma 90.000000
_cell_volume 4783.624844
_symmetry_space_group_name_H-M "F D D D"
_symmetry_group_IT_number 70
_space_group.IT_coordinate_system_code '2'
_symmetry_cell_setting 'orthorhombic'
loop_
_space_group_symop_operation_xyz
x,y,z
1/4-x,1/4-y,z
x,1/4-y,1/4-z
1/4-x,y,1/4-z
-x,-y,-z
3/4+x,3/4+y,-z
-x,3/4+y,3/4+z
3/4+x,-y,3/4+z
x,1/2+y,1/2+z
1/4-x,3/4-y,1/2+z
x,3/4-y,3/4-z
1/4-x,1/2+y,3/4-z
-x,1/2-y,1/2-z
3/4+x,1/4+y,1/2-z
-x,1/4+y,1/4+z
3/4+x,1/2-y,1/4+z
1/2+x,y,1/2+z
3/4-x,1/4-y,1/2+z
1/2+x,1/4-y,3/4-z
3/4-x,y,3/4-z
1/2-x,-y,1/2-z
1/4+x,3/4+y,1/2-z
1/2-x,3/4+y,1/4+z
1/4+x,-y,1/4+z
1/2+x,1/2+y,z
3/4-x,3/4-y,z
1/2+x,3/4-y,1/4-z
3/4-x,1/2+y,1/4-z
1/2-x,1/2-y,-z
1/4+x,1/4+y,-z
1/2-x,1/4+y,3/4+z
1/4+x,1/2-y,3/4+z
loop_
_atom_site_type_symbol
_atom_site_label
_atom_site_fract_x
_atom_site_fract_y
_atom_site_fract_z
Si Si1 0.953398 0.151857 0.517111
Si Si2 0.281137 0.993228 0.876991
Si Si3 0.375000 0.375000 0.875000
Si Si4 0.271060 0.646578 0.791340
O O1 0.997199 0.125000 0.625000
O O2 0.005612 0.134225 0.405019
O O3 0.850890 0.135931 0.511080
O O4 0.963746 0.211770 0.542994
O O5 0.375000 0.964767 0.875000
O O6 0.250000 0.000000 0.750000
O O7 0.301034 0.047312 0.931942
O O8 0.310681 0.344447 0.792353
#
# Coordination Sequence:
#
# PCOD8286686 Si02
#       4
#    32  32   8  32
#     4  11  22  46  74 103 150 193 243 318 368 437
#     4  12  25  45  77 111 145 198 256 310 385 453
#     4  12  28  44  70 100 154 204 240 302 396 428
#     4  11  25  47  70 110 155 192 248 319 370 456
#
# _framework density 21.740835000000001
#
# number of rings (size 3 to 8) (size 9 to 14) (size 15 to 20)
#    0.000    0.615    7.692    0.000    4.308    3.077 
#    0.000    3.077    0.000    0.000    0.000    0.000 
#    0.000    0.000    0.000    0.000    0.000    0.000 
#
# Total GULP energy -322096.731246 kJ/mol
# GULP energy per Si atom -12388.335817 kJ/mol
# Density = 2.169135 g / cm^3
# Si number density = 21.740835 Si / 1000 Ang^3
#
#
#
# Elastic Constant Matrix: (Units=GPa)
#
#
# Indices 1 2 3 4 5 6 
#
# 1 131.9895 54.1359 60.1932 0.0000 0.0000 0.0000
# 2 54.1359 140.8269 51.9016 0.0000 0.0000 0.0000
# 3 60.1932 51.9016 161.5037 0.0000 0.0000 0.0000
# 4 0.0000 0.0000 0.0000 36.4522 0.0000 0.0000
# 5 0.0000 0.0000 0.0000 0.0000 50.5960 0.0000
# 6 0.0000 0.0000 0.0000 0.0000 0.0000 28.7468
#
#
#
# Elastic Compliance Matrix: (Units=1/GPa)
#
#
# Indices 1 2 3 4 5 6 
#
# 1 0.010020 -0.002808 -0.002832 0.000000 0.000000 0.000000
# 2 -0.002808 0.008842 -0.001795 0.000000 0.000000 0.000000
# 3 -0.002832 -0.001795 0.007824 0.000000 0.000000 0.000000
# 4 0.000000 0.000000 0.000000 0.027433 0.000000 0.000000
# 5 0.000000 0.000000 0.000000 0.000000 0.019764 0.000000
# 6 0.000000 0.000000 0.000000 0.000000 0.000000 0.034786
#
#
# Mechanical properties :
#
#
# Convention : Reuss Voigt Hill
#
# Bulk Modulus (GPa) = 84.63200 85.19793 84.91496
# Shear Modulus (GPa) = 39.22252 41.03165 40.12709
#
# Velocity S-wave (km/s) = 4.25207 4.34903 4.30082
# Velocity P-wave (km/s) = 7.94475 8.03068 7.98783
#
# Compressibility (1/GPa) = 0.01181586
#
# Stress axis : x y z
#
# Youngs Moduli (GPa) = 99.80488 113.09855 127.80993
#
# Poissons Ratio (x) = 0.31757 0.36195
# Poissons Ratio (y) = 0.28025 0.22941
# Poissons Ratio (z) = 0.28264 0.20300
#
# Static dielectric constant tensor:
#      x y z
#    x 4.471410 0.000000 0.000000 
#    y 0.000000 3.873520 0.000000 
#    z 0.000000 0.000000 4.479880 
# 
# 
# High freq. dielectric constant tensor:
#      x y z
#    x 1.848880 0.000000 0.000000 
#    y 0.000000 1.836090 0.000000 
#    z 0.000000 0.000000 1.877640 
# 
# From -- ./inp_files/16135.got.cif
#   From: 2010.03.12/outbox.cif.g09.slc.cpg/sg70_9_cif.got.tgz:16135.got - 2010.04.16 13:46:32.
