data_PCOD8286115
_publ_section_title
;
Structure prediction by ZEFSAII (Michael W. Deem and Ramdas Pophale) SiO2 
 PCOD8286115
Probable space group: F D D D
;
_chemical_formula_sum "Si O2"
_cell_formula_units_Z 160
_cell_length_a 19.490876
_cell_length_b 21.815582
_cell_length_c 17.325053
_cell_angle_alpha 90.000000
_cell_angle_beta 90.000000
_cell_angle_gamma 90.000000
_cell_volume 7366.695759
_symmetry_space_group_name_H-M "F D D D"
_symmetry_group_IT_number 70
_space_group.IT_coordinate_system_code '2'
_symmetry_cell_setting 'orthorhombic'
loop_
_space_group_symop_operation_xyz
x,y,z
1/4-x,1/4-y,z
x,1/4-y,1/4-z
1/4-x,y,1/4-z
-x,-y,-z
3/4+x,3/4+y,-z
-x,3/4+y,3/4+z
3/4+x,-y,3/4+z
x,1/2+y,1/2+z
1/4-x,3/4-y,1/2+z
x,3/4-y,3/4-z
1/4-x,1/2+y,3/4-z
-x,1/2-y,1/2-z
3/4+x,1/4+y,1/2-z
-x,1/4+y,1/4+z
3/4+x,1/2-y,1/4+z
1/2+x,y,1/2+z
3/4-x,1/4-y,1/2+z
1/2+x,1/4-y,3/4-z
3/4-x,y,3/4-z
1/2-x,-y,1/2-z
1/4+x,3/4+y,1/2-z
1/2-x,3/4+y,1/4+z
1/4+x,-y,1/4+z
1/2+x,1/2+y,z
3/4-x,3/4-y,z
1/2+x,3/4-y,1/4-z
3/4-x,1/2+y,1/4-z
1/2-x,1/2-y,-z
1/4+x,1/4+y,-z
1/2-x,1/4+y,3/4+z
1/4+x,1/2-y,3/4+z
loop_
_atom_site_type_symbol
_atom_site_label
_atom_site_fract_x
_atom_site_fract_y
_atom_site_fract_z
Si Si1 0.875000 0.270596 0.375000
Si Si2 0.625000 0.125000 0.824446
Si Si3 0.425577 0.693037 0.804218
Si Si4 0.513217 0.681641 0.219487
Si Si5 0.860737 0.679361 0.733386
Si Si6 0.072565 0.010355 0.404421
O O1 0.943178 0.312259 0.360464
O O2 0.862607 0.232242 0.297740
O O3 0.556515 0.136258 0.774560
O O4 0.629585 0.184627 0.877389
O O5 0.375000 0.690484 0.875000
O O6 0.434646 0.625618 0.767483
O O7 0.398990 0.738350 0.737177
O O8 0.495968 0.716213 0.838788
O O9 0.500000 0.750000 0.250000
O O10 0.436878 0.653675 0.210637
O O11 0.824618 0.704802 0.656775
#
# Coordination Sequence:
#
# PCOD8286115 Si02
#       6
#    16  16  32  32  32  32
#     4  10  20  39  66 102 142 171 232 278 358 454
#     4  12  22  43  65  98 146 184 220 310 359 433
#     4  11  25  46  68  97 129 187 246 290 349 425
#     4  10  22  41  63 105 142 179 231 276 367 440
#     4  11  22  46  70  99 143 187 228 300 362 435
#     4  11  26  43  66 101 135 177 242 288 356 418
#
# _framework density 21.719370999999999
#
# number of rings (size 3 to 8) (size 9 to 14) (size 15 to 20)
#    0.000    1.200    5.000    1.800    2.800    3.600 
#    7.200    2.500    0.000    0.000    0.000    0.000 
#    0.000    0.000    0.000    0.000    0.000    0.000 
#
# Total GULP energy -495903.951798 kJ/mol
# GULP energy per Si atom -12397.598795 kJ/mol
# Density = 2.166994 g / cm^3
# Si number density = 21.719371 Si / 1000 Ang^3
#
#
#
# Elastic Constant Matrix: (Units=GPa)
#
#
# Indices 1 2 3 4 5 6 
#
# 1 101.1115 48.0216 62.2200 0.0000 0.0000 0.0000
# 2 48.0216 96.1793 48.7129 0.0000 0.0000 0.0000
# 3 62.2200 48.7129 126.7621 0.0000 0.0000 0.0000
# 4 0.0000 0.0000 0.0000 21.4037 0.0000 0.0000
# 5 0.0000 0.0000 0.0000 0.0000 42.2726 0.0000
# 6 0.0000 0.0000 0.0000 0.0000 0.0000 146.9066
#
#
#
# Elastic Compliance Matrix: (Units=1/GPa)
#
#
# Indices 1 2 3 4 5 6 
#
# 1 0.015856 -0.004936 -0.005886 0.000000 0.000000 0.000000
# 2 -0.004936 0.014446 -0.003129 0.000000 0.000000 0.000000
# 3 -0.005886 -0.003129 0.011980 0.000000 0.000000 0.000000
# 4 0.000000 0.000000 0.000000 0.046721 0.000000 0.000000
# 5 0.000000 0.000000 0.000000 0.000000 0.023656 0.000000
# 6 0.000000 0.000000 0.000000 0.000000 0.000000 0.006807
#
#
# Mechanical properties :
#
#
# Convention : Reuss Voigt Hill
#
# Bulk Modulus (GPa) = 69.53403 71.32911 70.43157
# Shear Modulus (GPa) = 32.85964 53.12314 42.99139
#
# Velocity S-wave (km/s) = 3.89384 4.95096 4.45387
# Velocity P-wave (km/s) = 7.23189 8.09908 7.67774
#
# Compressibility (1/GPa) = 0.01438145
#
# Stress axis : x y z
#
# Youngs Moduli (GPa) = 63.06616 69.22181 83.46984
#
# Poissons Ratio (x) = 0.34166 0.49132
# Poissons Ratio (y) = 0.31128 0.26117
# Poissons Ratio (z) = 0.37122 0.21659
#
# Static dielectric constant tensor:
#      x y z
#    x 3.342010 0.000000 0.000000 
#    y 0.000000 4.031740 0.000000 
#    z 0.000000 0.000000 4.204370 
# 
# 
# High freq. dielectric constant tensor:
#      x y z
#    x 1.846270 0.000000 0.000000 
#    y 0.000000 1.860510 0.000000 
#    z 0.000000 0.000000 1.863390 
# 
# From -- ./inp_files/36374.got.cif
#   From: 2010.03.12/outbox.cif.g09.slc.cpg/sg70_19_cif.got.tgz:36374.got - 2010.04.16 13:46:32.
