data_PCOD8286911
_publ_section_title
;
Structure prediction by ZEFSAII (Michael W. Deem and Ramdas Pophale) SiO2 
 PCOD8286911
Probable space group: I M M M
;
_chemical_formula_sum "Si O2"
_cell_formula_units_Z 80
_cell_length_a 8.917180
_cell_length_b 26.178023
_cell_length_c 23.942207
_cell_angle_alpha 90.000000
_cell_angle_beta 90.000000
_cell_angle_gamma 90.000000
_cell_volume 5588.928576
_symmetry_space_group_name_H-M "I M M M"
_symmetry_group_IT_number 71
_symmetry_cell_setting 'orthorhombic'
loop_
_space_group_symop_operation_xyz
x,y,z
-x,-y,z
x,-y,-z
-x,y,-z
-x,-y,-z
x,y,-z
-x,y,z
x,-y,z
1/2+x,1/2+y,1/2+z
1/2-x,1/2-y,1/2+z
1/2+x,1/2-y,1/2-z
1/2-x,1/2+y,1/2-z
1/2-x,1/2-y,1/2-z
1/2+x,1/2+y,1/2-z
1/2-x,1/2+y,1/2+z
1/2+x,1/2-y,1/2+z
loop_
_atom_site_type_symbol
_atom_site_label
_atom_site_fract_x
_atom_site_fract_y
_atom_site_fract_z
Si Si1 0.678774 0.215623 0.000000
Si Si2 0.675345 0.854491 0.188263
Si Si3 0.672871 0.058544 0.105578
Si Si4 0.823776 0.201185 0.721959
Si Si5 0.676643 0.394883 0.500000
Si Si6 0.323885 0.241815 0.118577
O O1 0.739859 0.245376 0.055251
O O2 0.500000 0.212697 0.000000
O O3 0.738328 0.158431 0.000000
O O4 0.500000 0.848576 0.198909
O O5 0.716412 0.908403 0.160145
O O6 0.754922 0.849610 0.249344
O O7 0.738948 0.809513 0.148158
O O8 0.500000 0.069059 0.088622
O O9 0.699403 0.000000 0.122124
O O10 0.777928 0.072732 0.054081
O O11 0.750000 0.250000 0.750000
O O12 0.786304 0.207280 0.655314
O O13 0.000000 0.202020 0.732187
O O14 0.500000 0.385567 0.500000
O O15 0.500000 0.234325 0.114481
#
# Coordination Sequence:
#
# PCOD8286911 Si02
#       6
#     8  16  16  16   8  16
#     4  10  16  29  47  58  76 109 141 171 198 230
#     4   9  16  28  43  60  76  97 132 169 204 241
#     4  10  20  34  49  59  72 103 145 179 207 245
#     4   9  16  26  39  59  80 101 128 160 198 241
#     4  12  23  31  40  59  84 106 134 175 217 249
#     4   8  14  24  41  59  75  98 132 165 191 230
#
# _framework density 14.314014
#
# number of rings (size 3 to 8) (size 9 to 14) (size 15 to 20)
#    0.000    2.600    2.000    3.000    0.000    2.400 
#    0.000    1.000    0.000    0.000    0.000    0.000 
#    0.000    0.000    0.000    0.900    0.000   20.200 
#
# Total GULP energy -495574.023644 kJ/mol
# GULP energy per Si atom -12389.350591 kJ/mol
# Density = 1.428143 g / cm^3
# Si number density = 14.314014 Si / 1000 Ang^3
#
#
#
# Elastic Constant Matrix: (Units=GPa)
#
#
# Indices 1 2 3 4 5 6 
#
# 1 38.6808 20.9176 30.4728 0.0000 0.0000 0.0000
# 2 20.9176 59.2215 61.7806 0.0000 0.0000 0.0000
# 3 30.4728 61.7806 123.6906 0.0000 0.0000 0.0000
# 4 0.0000 0.0000 0.0000 14.7241 0.0000 0.0000
# 5 0.0000 0.0000 0.0000 0.0000 18.1531 0.0000
# 6 0.0000 0.0000 0.0000 0.0000 0.0000 13.6081
#
#
#
# Elastic Compliance Matrix: (Units=1/GPa)
#
#
# Indices 1 2 3 4 5 6 
#
# 1 0.033301 -0.006689 -0.004863 0.000000 0.000000 0.000000
# 2 -0.006689 0.036600 -0.016633 0.000000 0.000000 0.000000
# 3 -0.004863 -0.016633 0.017591 0.000000 0.000000 0.000000
# 4 0.000000 0.000000 0.000000 0.067916 0.000000 0.000000
# 5 0.000000 0.000000 0.000000 0.000000 0.055087 0.000000
# 6 0.000000 0.000000 0.000000 0.000000 0.000000 0.073486
#
#
# Mechanical properties :
#
#
# Convention : Reuss Voigt Hill
#
# Bulk Modulus (GPa) = 32.13210 49.77056 40.95133
# Shear Modulus (GPa) = 14.25620 16.52517 15.39069
#
# Velocity S-wave (km/s) = 3.15931 3.40144 3.28261
# Velocity P-wave (km/s) = 5.98373 7.09030 6.56039
#
# Compressibility (1/GPa) = 0.03112153
#
# Stress axis : x y z
#
# Youngs Moduli (GPa) = 30.02912 27.32235 56.84846
#
# Poissons Ratio (x) = 0.18276 0.27647
# Poissons Ratio (y) = 0.20086 0.94556
# Poissons Ratio (z) = 0.14604 0.45445
#
# Static dielectric constant tensor:
#      x y z
#    x 2.750770 0.000000 0.000000 
#    y 0.000000 2.641870 0.000000 
#    z 0.000000 0.000000 3.350080 
# 
# 
# High freq. dielectric constant tensor:
#      x y z
#    x 1.536190 0.000000 0.000000 
#    y 0.000000 1.502930 0.000000 
#    z 0.000000 0.000000 1.544960 
# 
# From -- ./inp_files/12770.got.cif
#   From: 2010.06.25/outbox.cif.g09.slc.cpg/sg71_7_cif.got.tgz:12770.got - 2010.06.28 04:59:45.
