data_PCOD8286578
_publ_section_title
;
Structure prediction by ZEFSAII (Michael W. Deem and Ramdas Pophale) SiO2 
 PCOD8286578
Probable space group: F D D D
;
_chemical_formula_sum "Si O2"
_cell_formula_units_Z 88
_cell_length_a 20.023679
_cell_length_b 6.781081
_cell_length_c 30.380915
_cell_angle_alpha 90.000000
_cell_angle_beta 90.000000
_cell_angle_gamma 90.000000
_cell_volume 4125.187149
_symmetry_space_group_name_H-M "F D D D"
_symmetry_group_IT_number 70
_space_group.IT_coordinate_system_code '2'
_symmetry_cell_setting 'orthorhombic'
loop_
_space_group_symop_operation_xyz
x,y,z
1/4-x,1/4-y,z
x,1/4-y,1/4-z
1/4-x,y,1/4-z
-x,-y,-z
3/4+x,3/4+y,-z
-x,3/4+y,3/4+z
3/4+x,-y,3/4+z
x,1/2+y,1/2+z
1/4-x,3/4-y,1/2+z
x,3/4-y,3/4-z
1/4-x,1/2+y,3/4-z
-x,1/2-y,1/2-z
3/4+x,1/4+y,1/2-z
-x,1/4+y,1/4+z
3/4+x,1/2-y,1/4+z
1/2+x,y,1/2+z
3/4-x,1/4-y,1/2+z
1/2+x,1/4-y,3/4-z
3/4-x,y,3/4-z
1/2-x,-y,1/2-z
1/4+x,3/4+y,1/2-z
1/2-x,3/4+y,1/4+z
1/4+x,-y,1/4+z
1/2+x,1/2+y,z
3/4-x,3/4-y,z
1/2+x,3/4-y,1/4-z
3/4-x,1/2+y,1/4-z
1/2-x,1/2-y,-z
1/4+x,1/4+y,-z
1/2-x,1/4+y,3/4+z
1/4+x,1/2-y,3/4+z
loop_
_atom_site_type_symbol
_atom_site_label
_atom_site_fract_x
_atom_site_fract_y
_atom_site_fract_z
Si Si1 0.831448 0.059467 0.078226
Si Si2 0.570092 0.471657 0.678183
Si Si3 0.875000 0.875000 0.238034
Si Si4 0.625000 0.125000 0.625000
O O1 0.863093 0.125000 0.125000
O O2 0.831737 0.232827 0.042507
O O3 0.875000 0.875000 0.060818
O O4 0.754355 0.016229 0.086552
O O5 0.625000 0.625000 0.658133
O O6 0.576684 0.487140 0.731551
O O7 0.581676 0.255306 0.658494
#
# Coordination Sequence:
#
# PCOD8286578 Si02
#       4
#    32  32  16   8
#     4  12  25  44  70 104 140 183 232 289 356 412
#     4  10  26  45  71  99 141 181 236 288 347 418
#     4  10  26  47  69 102 140 184 231 293 340 422
#     4  12  22  44  74 102 132 188 234 284 352 414
#
# _framework density 21.332364999999999
#
# number of rings (size 3 to 8) (size 9 to 14) (size 15 to 20)
#    1.091    0.000    1.818    3.818    5.091    4.364 
#    0.000    0.000    0.000    0.000    0.000    0.000 
#    0.000    0.000    0.000    0.000    0.000    0.000 
#
# Total GULP energy -272624.447714 kJ/mol
# GULP energy per Si atom -12392.020351 kJ/mol
# Density = 2.128381 g / cm^3
# Si number density = 21.332365 Si / 1000 Ang^3
#
#
#
# Elastic Constant Matrix: (Units=GPa)
#
#
# Indices 1 2 3 4 5 6 
#
# 1 129.4196 64.0174 18.3577 0.0003 -0.0002 0.0010
# 2 64.0174 152.9590 73.2877 0.0006 -0.0003 0.0012
# 3 18.3577 73.2877 156.6846 0.0001 0.0000 0.0001
# 4 0.0003 0.0006 0.0001 48.3493 0.0001 -0.0003
# 5 -0.0002 -0.0003 0.0000 0.0001 22.2558 0.0002
# 6 0.0010 0.0012 0.0001 -0.0003 0.0002 31.2564
#
#
#
# Elastic Compliance Matrix: (Units=1/GPa)
#
#
# Indices 1 2 3 4 5 6 
#
# 1 0.009864 -0.004607 0.000999 0.000000 0.000000 0.000000
# 2 -0.004607 0.010578 -0.004408 0.000000 0.000000 0.000000
# 3 0.000999 -0.004408 0.008327 0.000000 0.000000 0.000000
# 4 0.000000 0.000000 0.000000 0.020683 0.000000 0.000000
# 5 0.000000 0.000000 0.000000 0.000000 0.044932 0.000000
# 6 0.000000 0.000000 0.000000 0.000000 0.000000 0.031993
#
#
# Mechanical properties :
#
#
# Convention : Reuss Voigt Hill
#
# Bulk Modulus (GPa) = 78.51014 83.37654 80.94334
# Shear Modulus (GPa) = 34.09376 39.26568 36.67972
#
# Velocity S-wave (km/s) = 4.00211 4.29495 4.15111
# Velocity P-wave (km/s) = 7.63145 7.98529 7.81037
#
# Compressibility (1/GPa) = 0.01273721
#
# Stress axis : x y z
#
# Youngs Moduli (GPa) = 101.37911 94.53701 120.09229
#
# Poissons Ratio (x) = 0.43554 -0.12000
# Poissons Ratio (y) = 0.46706 0.52936
# Poissons Ratio (z) = -0.10130 0.41671
#
# Static dielectric constant tensor:
#      x y z
#    x 3.463780 0.000000 0.000000 
#    y 0.000000 3.874690 0.000000 
#    z 0.000000 0.000000 3.959300 
# 
# 
# High freq. dielectric constant tensor:
#      x y z
#    x 1.821330 0.000000 0.000000 
#    y 0.000000 1.832760 0.000000 
#    z 0.000000 0.000000 1.861150 
# 
# From -- ./inp_files/3803.got.cif
#   From: 2010.03.12/outbox.cif.g09.slc.cpg/sg70_2_cif.got.tgz:3803.got - 2010.04.16 13:46:32.
