data_PCOD8286927
_publ_section_title
;
Structure prediction by ZEFSAII (Michael W. Deem and Ramdas Pophale) SiO2 
 PCOD8286927
Probable space group: I M M M
;
_chemical_formula_sum "Si O2"
_cell_formula_units_Z 80
_cell_length_a 23.020786
_cell_length_b 28.995102
_cell_length_c 9.163998
_cell_angle_alpha 90.000000
_cell_angle_beta 90.000000
_cell_angle_gamma 90.000000
_cell_volume 6116.877375
_symmetry_space_group_name_H-M "I M M M"
_symmetry_group_IT_number 71
_symmetry_cell_setting 'orthorhombic'
loop_
_space_group_symop_operation_xyz
x,y,z
-x,-y,z
x,-y,-z
-x,y,-z
-x,-y,-z
x,y,-z
-x,y,z
x,-y,z
1/2+x,1/2+y,1/2+z
1/2-x,1/2-y,1/2+z
1/2+x,1/2-y,1/2-z
1/2-x,1/2+y,1/2-z
1/2-x,1/2-y,1/2-z
1/2+x,1/2+y,1/2-z
1/2-x,1/2+y,1/2+z
1/2+x,1/2-y,1/2+z
loop_
_atom_site_type_symbol
_atom_site_label
_atom_site_fract_x
_atom_site_fract_y
_atom_site_fract_z
Si Si1 0.829679 0.222334 0.161440
Si Si2 0.765026 0.319494 0.837095
Si Si3 0.132251 0.639486 0.673701
Si Si4 0.933490 0.719547 0.170233
Si Si5 0.435170 0.949116 0.826936
O O1 0.795041 0.270100 0.161223
O O2 0.799650 0.185698 0.269531
O O3 0.895600 0.234783 0.209878
O O4 0.828759 0.200422 0.000000
O O5 0.803634 0.354083 0.740391
O O6 0.758881 0.339566 0.000000
O O7 0.136069 0.643975 0.500000
O O8 0.086508 0.676832 0.732034
O O9 0.109733 0.589565 0.727724
O O10 0.000000 0.731273 0.205124
O O11 0.923620 0.706744 0.000000
O O12 0.500000 0.938713 0.766063
O O13 0.414710 0.000000 0.773406
O O14 0.437648 0.948007 0.000000
#
# Coordination Sequence:
#
# PCOD8286927 Si02
#       5
#    16  16  16  16  16
#     4   8  14  24  36  49  65  86 112 138 164 199
#     4   9  16  25  36  49  66  87 109 138 175 206
#     4  10  17  24  37  54  68  85 114 148 176 205
#     4   9  17  27  37  50  70  93 113 138 174 208
#     4   8  14  24  36  50  68  88 111 142 178 210
#
# _framework density 13.078569
#
# number of rings (size 3 to 8) (size 9 to 14) (size 15 to 20)
#    0.000    3.200    0.000    3.600    0.000    6.000 
#    0.000    0.000    0.000    2.400    0.000    7.000 
#    0.000    0.000    0.000    0.000    0.000    1.000 
#
# Total GULP energy -495688.972405 kJ/mol
# GULP energy per Si atom -12392.224310 kJ/mol
# Density = 1.304880 g / cm^3
# Si number density = 13.078569 Si / 1000 Ang^3
#
#
#
# Elastic Constant Matrix: (Units=GPa)
#
#
# Indices 1 2 3 4 5 6 
#
# 1 97.2987 52.2156 43.1725 0.0000 0.0000 0.0000
# 2 52.2156 57.3727 32.0928 0.0000 0.0000 0.0000
# 3 43.1725 32.0928 65.4690 0.0000 0.0000 0.0000
# 4 0.0000 0.0000 0.0000 9.3256 0.0000 0.0000
# 5 0.0000 0.0000 0.0000 0.0000 17.4905 0.0000
# 6 0.0000 0.0000 0.0000 0.0000 0.0000 20.0787
#
#
#
# Elastic Compliance Matrix: (Units=1/GPa)
#
#
# Indices 1 2 3 4 5 6 
#
# 1 0.021895 -0.016328 -0.006435 0.000000 0.000000 0.000000
# 2 -0.016328 0.036191 -0.006974 0.000000 0.000000 0.000000
# 3 -0.006435 -0.006974 0.022936 0.000000 0.000000 0.000000
# 4 0.000000 0.000000 0.000000 0.107232 0.000000 0.000000
# 5 0.000000 0.000000 0.000000 0.000000 0.057174 0.000000
# 6 0.000000 0.000000 0.000000 0.000000 0.000000 0.049804
#
#
# Mechanical properties :
#
#
# Convention : Reuss Voigt Hill
#
# Bulk Modulus (GPa) = 46.40334 52.78912 49.59623
# Shear Modulus (GPa) = 13.81651 15.55627 14.68639
#
# Velocity S-wave (km/s) = 3.25379 3.45258 3.35466
# Velocity P-wave (km/s) = 7.04796 7.50629 7.28073
#
# Compressibility (1/GPa) = 0.02155017
#
# Stress axis : x y z
#
# Youngs Moduli (GPa) = 45.67267 27.63143 43.59947
#
# Poissons Ratio (x) = 0.45115 0.28054
# Poissons Ratio (y) = 0.74572 0.30405
# Poissons Ratio (z) = 0.29388 0.19269
#
# Static dielectric constant tensor:
#      x y z
#    x 2.795960 0.000000 0.000000 
#    y 0.000000 2.479240 0.000000 
#    z 0.000000 0.000000 2.660330 
# 
# 
# High freq. dielectric constant tensor:
#      x y z
#    x 1.488900 0.000000 0.000000 
#    y 0.000000 1.448940 0.000000 
#    z 0.000000 0.000000 1.496370 
# 
# From -- ./inp_files/11240.got.cif
#   From: 2010.06.25/outbox.cif.g09.slc.cpg/sg71_6_cif.got.tgz:11240.got - 2010.06.28 04:59:45.
