data_PCOD8286529
_publ_section_title
;
Structure prediction by ZEFSAII (Michael W. Deem and Ramdas Pophale) SiO2 
 PCOD8286529
Probable space group: F D D D
;
_chemical_formula_sum "Si O2"
_cell_formula_units_Z 80
_cell_length_a 8.760788
_cell_length_b 20.141938
_cell_length_c 19.381271
_cell_angle_alpha 90.000000
_cell_angle_beta 90.000000
_cell_angle_gamma 90.000000
_cell_volume 3420.004520
_symmetry_space_group_name_H-M "F D D D"
_symmetry_group_IT_number 70
_space_group.IT_coordinate_system_code '2'
_symmetry_cell_setting 'orthorhombic'
loop_
_space_group_symop_operation_xyz
x,y,z
1/4-x,1/4-y,z
x,1/4-y,1/4-z
1/4-x,y,1/4-z
-x,-y,-z
3/4+x,3/4+y,-z
-x,3/4+y,3/4+z
3/4+x,-y,3/4+z
x,1/2+y,1/2+z
1/4-x,3/4-y,1/2+z
x,3/4-y,3/4-z
1/4-x,1/2+y,3/4-z
-x,1/2-y,1/2-z
3/4+x,1/4+y,1/2-z
-x,1/4+y,1/4+z
3/4+x,1/2-y,1/4+z
1/2+x,y,1/2+z
3/4-x,1/4-y,1/2+z
1/2+x,1/4-y,3/4-z
3/4-x,y,3/4-z
1/2-x,-y,1/2-z
1/4+x,3/4+y,1/2-z
1/2-x,3/4+y,1/4+z
1/4+x,-y,1/4+z
1/2+x,1/2+y,z
3/4-x,3/4-y,z
1/2+x,3/4-y,1/4-z
3/4-x,1/2+y,1/4-z
1/2-x,1/2-y,-z
1/4+x,1/4+y,-z
1/2-x,1/4+y,3/4+z
1/4+x,1/2-y,3/4+z
loop_
_atom_site_type_symbol
_atom_site_label
_atom_site_fract_x
_atom_site_fract_y
_atom_site_fract_z
Si Si1 0.625000 0.343585 0.125000
Si Si2 0.793962 0.533507 0.630634
Si Si3 0.054262 0.869414 0.771022
O O1 0.472483 0.296751 0.132300
O O2 0.642813 0.389609 0.191941
O O3 0.625000 0.565167 0.625000
O O4 0.889856 0.555362 0.563379
O O5 0.874096 0.562064 0.699227
O O6 0.875000 0.875000 0.778150
#
# Coordination Sequence:
#
# PCOD8286529 Si02
#       3
#    16  32  32
#     4  10  24  39  64  94 126 174 205 248 326 378
#     4   9  21  41  65  83 131 173 197 251 324 371
#     4  11  21  39  64  93 124 163 216 263 299 370
#
# _framework density 23.391781000000002
#
# number of rings (size 3 to 8) (size 9 to 14) (size 15 to 20)
#    1.200    0.800    0.000    6.000    0.000    4.800 
#    0.000    0.000    0.000    0.000    0.000    0.000 
#    0.000    0.000    0.000    0.000    0.000    0.000 
#
# Total GULP energy -247888.171550 kJ/mol
# GULP energy per Si atom -12394.408577 kJ/mol
# Density = 2.333854 g / cm^3
# Si number density = 23.391781 Si / 1000 Ang^3
#
#
#
# Elastic Constant Matrix: (Units=GPa)
#
#
# Indices 1 2 3 4 5 6 
#
# 1 156.4790 5.8542 64.5523 0.0000 0.0000 0.0000
# 2 5.8542 16.5782 -2.7739 0.0000 0.0000 0.0000
# 3 64.5523 -2.7739 176.1273 0.0000 0.0000 0.0000
# 4 0.0000 0.0000 0.0000 21.7122 0.0000 0.0000
# 5 0.0000 0.0000 0.0000 0.0000 33.9974 0.0000
# 6 0.0000 0.0000 0.0000 0.0000 0.0000 -7.4414
#
#
#
# Elastic Compliance Matrix: (Units=1/GPa)
#
#
# Indices 1 2 3 4 5 6 
#
# 1 0.007694 -0.003197 -0.002870 0.000000 0.000000 0.000000
# 2 -0.003197 0.061808 0.002145 0.000000 0.000000 0.000000
# 3 -0.002870 0.002145 0.006764 0.000000 0.000000 0.000000
# 4 0.000000 0.000000 0.000000 0.046057 0.000000 0.000000
# 5 0.000000 0.000000 0.000000 0.000000 0.029414 0.000000
# 6 0.000000 0.000000 0.000000 0.000000 0.000000 -0.134382
#
#
# Mechanical properties :
#
#
# Convention : Reuss Voigt Hill
#
# Bulk Modulus (GPa) = 14.61534 53.82775 34.22155
# Shear Modulus (GPa) = 104.15139 28.42375 66.28757
#
# Velocity S-wave (km/s) = 6.67993 3.48963 5.32912
# Velocity P-wave (km/s) = 8.10906 6.26882 7.24758
#
# Compressibility (1/GPa) = 0.06842127
#
# Stress axis : x y z
#
# Youngs Moduli (GPa) = 129.96478 16.17905 147.85159
#
# Poissons Ratio (x) = 0.05173 0.42440
# Poissons Ratio (y) = 0.41555 -0.31719
# Poissons Ratio (z) = 0.37305 -0.03471
#
# Static dielectric constant tensor:
#      x y z
#    x 4.169900 0.000000 0.000000 
#    y 0.000000 3.688060 0.000000 
#    z 0.000000 0.000000 4.145760 
# 
# 
# High freq. dielectric constant tensor:
#      x y z
#    x 1.929490 0.000000 0.000000 
#    y 0.000000 1.894540 0.000000 
#    z 0.000000 0.000000 1.929730 
# 
# From -- ./inp_files/6864.got.cif
#   From: 2010.03.12/outbox.cif.g09.slc.cpg/sg70_4_cif.got.tgz:6864.got - 2010.04.16 13:46:32.
