data_PCOD8286720
_publ_section_title
;
Structure prediction by ZEFSAII (Michael W. Deem and Ramdas Pophale) SiO2 
 PCOD8286720
Probable space group: F D D D
;
_chemical_formula_sum "Si O2"
_cell_formula_units_Z 80
_cell_length_a 7.670031
_cell_length_b 20.858259
_cell_length_c 19.275777
_cell_angle_alpha 90.000000
_cell_angle_beta 90.000000
_cell_angle_gamma 90.000000
_cell_volume 3083.806137
_symmetry_space_group_name_H-M "F D D D"
_symmetry_group_IT_number 70
_space_group.IT_coordinate_system_code '2'
_symmetry_cell_setting 'orthorhombic'
loop_
_space_group_symop_operation_xyz
x,y,z
1/4-x,1/4-y,z
x,1/4-y,1/4-z
1/4-x,y,1/4-z
-x,-y,-z
3/4+x,3/4+y,-z
-x,3/4+y,3/4+z
3/4+x,-y,3/4+z
x,1/2+y,1/2+z
1/4-x,3/4-y,1/2+z
x,3/4-y,3/4-z
1/4-x,1/2+y,3/4-z
-x,1/2-y,1/2-z
3/4+x,1/4+y,1/2-z
-x,1/4+y,1/4+z
3/4+x,1/2-y,1/4+z
1/2+x,y,1/2+z
3/4-x,1/4-y,1/2+z
1/2+x,1/4-y,3/4-z
3/4-x,y,3/4-z
1/2-x,-y,1/2-z
1/4+x,3/4+y,1/2-z
1/2-x,3/4+y,1/4+z
1/4+x,-y,1/4+z
1/2+x,1/2+y,z
3/4-x,3/4-y,z
1/2+x,3/4-y,1/4-z
3/4-x,1/2+y,1/4-z
1/2-x,1/2-y,-z
1/4+x,1/4+y,-z
1/2-x,1/4+y,3/4+z
1/4+x,1/2-y,3/4+z
loop_
_atom_site_type_symbol
_atom_site_label
_atom_site_fract_x
_atom_site_fract_y
_atom_site_fract_z
Si Si1 0.169312 0.877982 0.978873
Si Si2 0.625000 0.420090 0.625000
Si Si3 0.180191 0.269448 0.876217
O O1 0.375000 0.875000 0.971222
O O2 0.108109 0.946527 0.949663
O O3 0.084796 0.820464 0.935772
O O4 0.102050 0.874322 0.057648
O O5 0.797424 0.461940 0.637643
O O6 0.375000 0.241228 0.875000
#
# Coordination Sequence:
#
# PCOD8286720 Si02
#       3
#    32  16  32
#     4  11  23  46  73 102 148 190 237 304 357 425
#     4  12  26  47  74 108 146 192 245 298 360 434
#     4  11  24  48  75 101 148 194 236 298 369 423
#
# _framework density 25.941969
#
# number of rings (size 3 to 8) (size 9 to 14) (size 15 to 20)
#    0.000    0.800    4.000    4.800    0.000    4.800 
#   10.800    0.000    4.400    0.000    0.000    0.000 
#    0.000    0.000    0.000    0.000    0.000    0.000 
#
# Total GULP energy -248189.549005 kJ/mol
# GULP energy per Si atom -12409.477450 kJ/mol
# Density = 2.588292 g / cm^3
# Si number density = 25.941969 Si / 1000 Ang^3
#
#
#
# Elastic Constant Matrix: (Units=GPa)
#
#
# Indices 1 2 3 4 5 6 
#
# 1 168.3319 -2.1650 -2.1449 0.0000 0.0000 0.0000
# 2 -2.1650 46.9834 41.9887 0.0000 0.0000 0.0000
# 3 -2.1449 41.9887 184.5376 0.0000 0.0000 0.0000
# 4 0.0000 0.0000 0.0000 -12.0502 0.0000 0.0000
# 5 0.0000 0.0000 0.0000 0.0000 24.4500 0.0000
# 6 0.0000 0.0000 0.0000 0.0000 0.0000 -12.0439
#
#
#
# Elastic Compliance Matrix: (Units=1/GPa)
#
#
# Indices 1 2 3 4 5 6 
#
# 1 0.005944 0.000266 0.000008 0.000000 0.000000 0.000000
# 2 0.000266 0.026729 -0.006079 0.000000 0.000000 0.000000
# 3 0.000008 -0.006079 0.006802 0.000000 0.000000 0.000000
# 4 0.000000 0.000000 0.000000 -0.082986 0.000000 0.000000
# 5 0.000000 0.000000 0.000000 0.000000 0.040900 0.000000
# 6 0.000000 0.000000 0.000000 0.000000 0.000000 -0.083030
#
#
# Mechanical properties :
#
#
# Convention : Reuss Voigt Hill
#
# Bulk Modulus (GPa) = 35.88411 52.80116 44.34264
# Shear Modulus (GPa) = -77.22693 24.21613 -26.50540
#
# Velocity S-wave (km/s) = -5.46203 3.05859 -3.19990
# Velocity P-wave (km/s) = 5.09076 5.73333 1.86484
#
# Compressibility (1/GPa) = 0.02786749
#
# Stress axis : x y z
#
# Youngs Moduli (GPa) = 168.23185 37.41284 147.01234
#
# Poissons Ratio (x) = -0.00996 -0.00125
# Poissons Ratio (y) = -0.04480 0.89363
# Poissons Ratio (z) = -0.00143 0.22742
#
# Static dielectric constant tensor:
#      x y z
#    x 4.444680 0.000000 0.000000 
#    y 0.000000 4.553300 0.000000 
#    z 0.000000 0.000000 5.012330 
# 
# 
# High freq. dielectric constant tensor:
#      x y z
#    x 2.052800 0.000000 0.000000 
#    y 0.000000 2.036960 0.000000 
#    z 0.000000 0.000000 2.050640 
# 
# From -- ./inp_files/6826.got.cif
#   From: 2010.03.12/outbox.cif.g09.slc.cpg/sg70_4_cif.got.tgz:6826.got - 2010.04.16 13:46:32.
