data_PCOD8286838
_publ_section_title
;
Structure prediction by ZEFSAII (Michael W. Deem and Ramdas Pophale) SiO2 
 PCOD8286838
Probable space group: F D D D
;
_chemical_formula_sum "Si O2"
_cell_formula_units_Z 128
_cell_length_a 26.168298
_cell_length_b 15.384951
_cell_length_c 12.978832
_cell_angle_alpha 90.000000
_cell_angle_beta 90.000000
_cell_angle_gamma 90.000000
_cell_volume 5225.251578
_symmetry_space_group_name_H-M "F D D D"
_symmetry_group_IT_number 70
_space_group.IT_coordinate_system_code '2'
_symmetry_cell_setting 'orthorhombic'
loop_
_space_group_symop_operation_xyz
x,y,z
1/4-x,1/4-y,z
x,1/4-y,1/4-z
1/4-x,y,1/4-z
-x,-y,-z
3/4+x,3/4+y,-z
-x,3/4+y,3/4+z
3/4+x,-y,3/4+z
x,1/2+y,1/2+z
1/4-x,3/4-y,1/2+z
x,3/4-y,3/4-z
1/4-x,1/2+y,3/4-z
-x,1/2-y,1/2-z
3/4+x,1/4+y,1/2-z
-x,1/4+y,1/4+z
3/4+x,1/2-y,1/4+z
1/2+x,y,1/2+z
3/4-x,1/4-y,1/2+z
1/2+x,1/4-y,3/4-z
3/4-x,y,3/4-z
1/2-x,-y,1/2-z
1/4+x,3/4+y,1/2-z
1/2-x,3/4+y,1/4+z
1/4+x,-y,1/4+z
1/2+x,1/2+y,z
3/4-x,3/4-y,z
1/2+x,3/4-y,1/4-z
3/4-x,1/2+y,1/4-z
1/2-x,1/2-y,-z
1/4+x,1/4+y,-z
1/2-x,1/4+y,3/4+z
1/4+x,1/2-y,3/4+z
loop_
_atom_site_type_symbol
_atom_site_label
_atom_site_fract_x
_atom_site_fract_y
_atom_site_fract_z
Si Si1 0.535407 0.625000 0.625000
Si Si2 0.219687 0.875000 0.375000
Si Si3 0.336666 0.452343 0.194507
Si Si4 0.466725 0.748292 0.507852
Si Si5 0.623167 0.379429 0.010879
O O1 0.569070 0.555206 0.563190
O O2 0.503281 0.668432 0.534444
O O3 0.257570 0.799222 0.336355
O O4 0.183846 0.843941 0.471346
O O5 0.375000 0.375000 0.167067
O O6 0.290421 0.444108 0.111955
O O7 0.360262 0.550263 0.183320
O O8 0.410345 0.712875 0.480887
O O9 0.625000 0.339138 0.125000
#
# Coordination Sequence:
#
# PCOD8286838 Si02
#       5
#    16  16  32  32  32
#     4  12  24  44  76 107 142 207 272 335 393 474
#     4  12  27  50  77 119 154 211 261 333 412 476
#     4  12  24  46  75 109 151 203 270 333 393 476
#     4  12  27  47  76 112 157 206 265 329 415 487
#     4  12  26  51  76 110 161 203 265 334 397 488
#
# _framework density 24.496428000000002
#
# number of rings (size 3 to 8) (size 9 to 14) (size 15 to 20)
#    0.000    0.000    5.000    5.625    3.500    3.000 
#    0.000    0.000    0.000    0.000    0.000    0.000 
#    0.000    0.000    0.000    0.000    0.000    0.000 
#
# Total GULP energy -396693.044736 kJ/mol
# GULP energy per Si atom -12396.657648 kJ/mol
# Density = 2.444067 g / cm^3
# Si number density = 24.496428 Si / 1000 Ang^3
#
#
#
# Elastic Constant Matrix: (Units=GPa)
#
#
# Indices 1 2 3 4 5 6 
#
# 1 128.6361 68.6394 48.8318 0.0000 0.0000 0.0000
# 2 68.6394 130.8243 41.9688 0.0000 0.0000 0.0000
# 3 48.8318 41.9688 109.2974 0.0000 0.0000 0.0000
# 4 0.0000 0.0000 0.0000 47.7800 0.0000 0.0000
# 5 0.0000 0.0000 0.0000 0.0000 120.7587 0.0000
# 6 0.0000 0.0000 0.0000 0.0000 0.0000 125.6596
#
#
#
# Elastic Compliance Matrix: (Units=1/GPa)
#
#
# Indices 1 2 3 4 5 6 
#
# 1 0.011748 -0.005109 -0.003287 0.000000 0.000000 0.000000
# 2 -0.005109 0.010940 -0.001918 0.000000 0.000000 0.000000
# 3 -0.003287 -0.001918 0.011354 0.000000 0.000000 0.000000
# 4 0.000000 0.000000 0.000000 0.020929 0.000000 0.000000
# 5 0.000000 0.000000 0.000000 0.000000 0.008281 0.000000
# 6 0.000000 0.000000 0.000000 0.000000 0.000000 0.007958
#
#
# Mechanical properties :
#
#
# Convention : Reuss Voigt Hill
#
# Bulk Modulus (GPa) = 74.55030 76.40419 75.47725
# Shear Modulus (GPa) = 51.91579 72.79420 62.35499
#
# Velocity S-wave (km/s) = 4.60860 5.45718 5.05074
# Velocity P-wave (km/s) = 7.66930 8.42409 8.05554
#
# Compressibility (1/GPa) = 0.01341376
#
# Stress axis : x y z
#
# Youngs Moduli (GPa) = 85.12173 91.40890 88.07222
#
# Poissons Ratio (x) = 0.46704 0.28947
# Poissons Ratio (y) = 0.43492 0.16892
# Poissons Ratio (z) = 0.27978 0.17532
#
# Static dielectric constant tensor:
#      x y z
#    x 4.504670 0.000000 0.000000 
#    y 0.000000 4.568090 0.000000 
#    z 0.000000 0.000000 4.594340 
# 
# 
# High freq. dielectric constant tensor:
#      x y z
#    x 1.975960 0.000000 0.000000 
#    y 0.000000 1.957760 0.000000 
#    z 0.000000 0.000000 1.990110 
# 
# From -- ./inp_files/29664.got.cif
#   From: 2010.03.12/outbox.cif.g09.slc.cpg/sg70_15_cif.got.tgz:29664.got - 2010.04.16 13:46:32.
