data_PCOD8286833
_publ_section_title
;
Structure prediction by ZEFSAII (Michael W. Deem and Ramdas Pophale) SiO2 
 PCOD8286833
Probable space group: F D D D
;
_chemical_formula_sum "Si O2"
_cell_formula_units_Z 104
_cell_length_a 14.264386
_cell_length_b 28.978963
_cell_length_c 10.556470
_cell_angle_alpha 90.000000
_cell_angle_beta 90.000000
_cell_angle_gamma 90.000000
_cell_volume 4363.697539
_symmetry_space_group_name_H-M "F D D D"
_symmetry_group_IT_number 70
_space_group.IT_coordinate_system_code '2'
_symmetry_cell_setting 'orthorhombic'
loop_
_space_group_symop_operation_xyz
x,y,z
1/4-x,1/4-y,z
x,1/4-y,1/4-z
1/4-x,y,1/4-z
-x,-y,-z
3/4+x,3/4+y,-z
-x,3/4+y,3/4+z
3/4+x,-y,3/4+z
x,1/2+y,1/2+z
1/4-x,3/4-y,1/2+z
x,3/4-y,3/4-z
1/4-x,1/2+y,3/4-z
-x,1/2-y,1/2-z
3/4+x,1/4+y,1/2-z
-x,1/4+y,1/4+z
3/4+x,1/2-y,1/4+z
1/2+x,y,1/2+z
3/4-x,1/4-y,1/2+z
1/2+x,1/4-y,3/4-z
3/4-x,y,3/4-z
1/2-x,-y,1/2-z
1/4+x,3/4+y,1/2-z
1/2-x,3/4+y,1/4+z
1/4+x,-y,1/4+z
1/2+x,1/2+y,z
3/4-x,3/4-y,z
1/2+x,3/4-y,1/4-z
3/4-x,1/2+y,1/4-z
1/2-x,1/2-y,-z
1/4+x,1/4+y,-z
1/2-x,1/4+y,3/4+z
1/4+x,1/2-y,3/4+z
loop_
_atom_site_type_symbol
_atom_site_label
_atom_site_fract_x
_atom_site_fract_y
_atom_site_fract_z
Si Si1 0.811447 0.625000 0.125000
Si Si2 0.547188 0.212517 0.529163
Si Si3 0.625000 0.125000 0.125000
Si Si4 0.940334 0.449923 0.687169
Si Si5 0.125000 0.408930 0.625000
O O1 0.743878 0.582477 0.094982
O O2 0.880633 0.620322 0.245585
O O3 0.625000 0.233325 0.625000
O O4 0.595101 0.200853 0.394223
O O5 0.464009 0.249724 0.503313
O O6 0.686738 0.159655 0.209128
O O7 0.030908 0.438447 0.601983
#
# Coordination Sequence:
#
# PCOD8286833 Si02
#       5
#    16  32   8  32  16
#     4  12  26  42  75 107 154 198 258 309 389 446
#     4  12  24  46  76 109 143 201 251 318 371 460
#     4  12  30  50  68 112 156 198 244 328 382 458
#     4  12  26  46  74 104 151 191 256 310 383 444
#     4  12  24  43  66 107 140 197 248 311 368 458
#
# _framework density 23.832998
#
# number of rings (size 3 to 8) (size 9 to 14) (size 15 to 20)
#    0.000    0.000    4.615    6.000    0.000    2.462 
#    0.000    0.000    0.000    0.000    0.000    0.000 
#    0.000    0.000    0.000    0.000    0.000    0.000 
#
# Total GULP energy -322272.757475 kJ/mol
# GULP energy per Si atom -12395.106057 kJ/mol
# Density = 2.377875 g / cm^3
# Si number density = 23.832998 Si / 1000 Ang^3
#
#
#
# Elastic Constant Matrix: (Units=GPa)
#
#
# Indices 1 2 3 4 5 6 
#
# 1 89.6506 55.3789 54.0393 0.0000 0.0000 0.0000
# 2 55.3789 182.4841 65.2385 0.0000 0.0000 0.0000
# 3 54.0393 65.2385 159.8947 0.0000 0.0000 0.0000
# 4 0.0000 0.0000 0.0000 16.7767 0.0000 0.0000
# 5 0.0000 0.0000 0.0000 0.0000 33.2090 0.0000
# 6 0.0000 0.0000 0.0000 0.0000 0.0000 23.2803
#
#
#
# Elastic Compliance Matrix: (Units=1/GPa)
#
#
# Indices 1 2 3 4 5 6 
#
# 1 0.015562 -0.003328 -0.003902 0.000000 0.000000 0.000000
# 2 -0.003328 0.007127 -0.001783 0.000000 0.000000 0.000000
# 3 -0.003902 -0.001783 0.008300 0.000000 0.000000 0.000000
# 4 0.000000 0.000000 0.000000 0.059606 0.000000 0.000000
# 5 0.000000 0.000000 0.000000 0.000000 0.030112 0.000000
# 6 0.000000 0.000000 0.000000 0.000000 0.000000 0.042955
#
#
# Mechanical properties :
#
#
# Convention : Reuss Voigt Hill
#
# Bulk Modulus (GPa) = 77.13622 86.81585 81.97604
# Shear Modulus (GPa) = 26.88027 31.81138 29.34583
#
# Velocity S-wave (km/s) = 3.36201 3.65740 3.51281
# Velocity P-wave (km/s) = 6.89248 7.37165 7.13609
#
# Compressibility (1/GPa) = 0.01296408
#
# Stress axis : x y z
#
# Youngs Moduli (GPa) = 64.25965 140.30430 120.47644
#
# Poissons Ratio (x) = 0.46690 0.47006
# Poissons Ratio (y) = 0.21384 0.21485
# Poissons Ratio (z) = 0.25072 0.25021
#
# Static dielectric constant tensor:
#      x y z
#    x 4.183940 0.000000 0.000000 
#    y 0.000000 4.336160 0.000000 
#    z 0.000000 0.000000 4.205540 
# 
# 
# High freq. dielectric constant tensor:
#      x y z
#    x 1.943260 0.000000 0.000000 
#    y 0.000000 1.953630 0.000000 
#    z 0.000000 0.000000 1.941210 
# 
# From -- ./inp_files/15098.got.cif
#   From: 2010.03.12/outbox.cif.g09.slc.cpg/sg70_8_cif.got.tgz:15098.got - 2010.04.16 13:46:32.
