data_PCOD8286471
_publ_section_title
;
Structure prediction by ZEFSAII (Michael W. Deem and Ramdas Pophale) SiO2 
 PCOD8286471
Probable space group: F D D D
;
_chemical_formula_sum "Si O2"
_cell_formula_units_Z 160
_cell_length_a 13.153453
_cell_length_b 21.710932
_cell_length_c 26.002687
_cell_angle_alpha 90.000000
_cell_angle_beta 90.000000
_cell_angle_gamma 90.000000
_cell_volume 7425.684151
_symmetry_space_group_name_H-M "F D D D"
_symmetry_group_IT_number 70
_space_group.IT_coordinate_system_code '2'
_symmetry_cell_setting 'orthorhombic'
loop_
_space_group_symop_operation_xyz
x,y,z
1/4-x,1/4-y,z
x,1/4-y,1/4-z
1/4-x,y,1/4-z
-x,-y,-z
3/4+x,3/4+y,-z
-x,3/4+y,3/4+z
3/4+x,-y,3/4+z
x,1/2+y,1/2+z
1/4-x,3/4-y,1/2+z
x,3/4-y,3/4-z
1/4-x,1/2+y,3/4-z
-x,1/2-y,1/2-z
3/4+x,1/4+y,1/2-z
-x,1/4+y,1/4+z
3/4+x,1/2-y,1/4+z
1/2+x,y,1/2+z
3/4-x,1/4-y,1/2+z
1/2+x,1/4-y,3/4-z
3/4-x,y,3/4-z
1/2-x,-y,1/2-z
1/4+x,3/4+y,1/2-z
1/2-x,3/4+y,1/4+z
1/4+x,-y,1/4+z
1/2+x,1/2+y,z
3/4-x,3/4-y,z
1/2+x,3/4-y,1/4-z
3/4-x,1/2+y,1/4-z
1/2-x,1/2-y,-z
1/4+x,1/4+y,-z
1/2-x,1/4+y,3/4+z
1/4+x,1/2-y,3/4+z
loop_
_atom_site_type_symbol
_atom_site_label
_atom_site_fract_x
_atom_site_fract_y
_atom_site_fract_z
Si Si1 0.404423 0.737444 0.815771
Si Si2 0.765707 0.900539 0.257644
Si Si3 0.884520 0.446197 0.293185
Si Si4 0.687979 0.974671 0.454596
Si Si5 0.961059 0.695848 0.625489
O O1 0.375000 0.731106 0.875000
O O2 0.462213 0.678018 0.793355
O O3 0.471566 0.798214 0.802801
O O4 0.296054 0.743058 0.788370
O O5 0.875000 0.875000 0.240177
O O6 0.694417 0.847565 0.281015
O O7 0.875000 0.375000 0.276420
O O8 0.865776 0.489861 0.244532
O O9 0.798308 0.460912 0.333837
O O10 0.995367 0.463336 0.319129
O O11 0.640106 0.981319 0.396630
O O12 0.933166 0.625000 0.625000
#
# Coordination Sequence:
#
# PCOD8286471 Si02
#       5
#    32  32  32  32  32
#     4  10  23  41  61  92 124 162 217 263 317 386
#     4   9  22  42  63  87 128 167 207 270 323 382
#     4   9  20  40  57  91 127 162 210 260 319 383
#     4  11  22  35  66  92 118 170 209 266 319 378
#     4   9  20  36  61  87 122 164 211 257 311 385
#
# _framework density 21.546835999999999
#
# number of rings (size 3 to 8) (size 9 to 14) (size 15 to 20)
#    0.000    2.400    0.000    1.800    8.400    6.000 
#    3.600    1.000    0.000    0.000    0.000    0.000 
#    0.000    0.000    0.000    0.000    0.000    0.000 
#
# Total GULP energy -495646.237330 kJ/mol
# GULP energy per Si atom -12391.155933 kJ/mol
# Density = 2.149779 g / cm^3
# Si number density = 21.546836 Si / 1000 Ang^3
#
#
#
# Elastic Constant Matrix: (Units=GPa)
#
#
# Indices 1 2 3 4 5 6 
#
# 1 63.5049 44.9390 32.4388 0.0000 0.0000 0.0000
# 2 44.9390 76.0782 46.1392 0.0000 0.0000 0.0000
# 3 32.4388 46.1392 123.7620 0.0000 0.0000 0.0000
# 4 0.0000 0.0000 0.0000 29.0067 0.0000 0.0000
# 5 0.0000 0.0000 0.0000 0.0000 38.1586 0.0000
# 6 0.0000 0.0000 0.0000 0.0000 0.0000 26.2512
#
#
#
# Elastic Compliance Matrix: (Units=1/GPa)
#
#
# Indices 1 2 3 4 5 6 
#
# 1 0.027263 -0.015209 -0.001476 0.000000 0.000000 0.000000
# 2 -0.015209 0.025469 -0.005509 0.000000 0.000000 0.000000
# 3 -0.001476 -0.005509 0.010520 0.000000 0.000000 0.000000
# 4 0.000000 0.000000 0.000000 0.034475 0.000000 0.000000
# 5 0.000000 0.000000 0.000000 0.000000 0.026206 0.000000
# 6 0.000000 0.000000 0.000000 0.000000 0.000000 0.038094
#
#
# Mechanical properties :
#
#
# Convention : Reuss Voigt Hill
#
# Bulk Modulus (GPa) = 53.00628 56.70878 54.85753
# Shear Modulus (GPa) = 23.50683 28.00516 25.75599
#
# Velocity S-wave (km/s) = 3.30656 3.60909 3.46113
# Velocity P-wave (km/s) = 6.26352 6.61388 6.44108
#
# Compressibility (1/GPa) = 0.01886569
#
# Stress axis : x y z
#
# Youngs Moduli (GPa) = 36.67908 39.26300 95.05270
#
# Poissons Ratio (x) = 0.59717 0.14028
# Poissons Ratio (y) = 0.55787 0.52361
# Poissons Ratio (z) = 0.05413 0.21628
#
# Static dielectric constant tensor:
#      x y z
#    x 4.184720 0.000000 0.000000 
#    y 0.000000 3.654080 0.000000 
#    z 0.000000 0.000000 3.958300 
# 
# 
# High freq. dielectric constant tensor:
#      x y z
#    x 1.861720 0.000000 0.000000 
#    y 0.000000 1.819070 0.000000 
#    z 0.000000 0.000000 1.838360 
# 
# From -- ./inp_files/58526.got.cif
#   From: 2010.03.12/outbox.cif.g09.slc.cpg/sg70_30_cif.got.tgz:58526.got - 2010.04.16 13:46:32.
