data_PCOD8286876
_publ_section_title
;
Structure prediction by ZEFSAII (Michael W. Deem and Ramdas Pophale) SiO2 
 PCOD8286876
Probable space group: I M M M
;
_chemical_formula_sum "Si O2"
_cell_formula_units_Z 88
_cell_length_a 27.973852
_cell_length_b 8.739786
_cell_length_c 25.793049
_cell_angle_alpha 90.000000
_cell_angle_beta 90.000000
_cell_angle_gamma 90.000000
_cell_volume 6306.025967
_symmetry_space_group_name_H-M "I M M M"
_symmetry_group_IT_number 71
_symmetry_cell_setting 'orthorhombic'
loop_
_space_group_symop_operation_xyz
x,y,z
-x,-y,z
x,-y,-z
-x,y,-z
-x,-y,-z
x,y,-z
-x,y,z
x,-y,z
1/2+x,1/2+y,1/2+z
1/2-x,1/2-y,1/2+z
1/2+x,1/2-y,1/2-z
1/2-x,1/2+y,1/2-z
1/2-x,1/2-y,1/2-z
1/2+x,1/2+y,1/2-z
1/2-x,1/2+y,1/2+z
1/2+x,1/2-y,1/2+z
loop_
_atom_site_type_symbol
_atom_site_label
_atom_site_fract_x
_atom_site_fract_y
_atom_site_fract_z
Si Si1 0.227573 0.680370 0.802425
Si Si2 0.311786 0.823474 0.158126
Si Si3 0.946010 0.822301 0.700106
Si Si4 0.597027 0.825375 0.900585
Si Si5 0.946595 0.820623 0.500000
Si Si6 0.143928 0.823708 0.242791
O O1 0.233089 0.500000 0.805537
O O2 0.250000 0.750000 0.750000
O O3 0.257330 0.759901 0.849987
O O4 0.171060 0.726224 0.802257
O O5 0.345481 0.806718 0.107649
O O6 0.333947 0.714193 0.201517
O O7 0.310730 0.000000 0.176944
O O8 0.932030 0.723151 0.650326
O O9 0.912545 0.784290 0.750350
O O10 0.000000 0.783030 0.716548
O O11 0.939972 0.000000 0.684736
O O12 0.583938 0.000000 0.912428
O O13 0.582408 0.726143 0.949380
O O14 0.000000 0.747865 0.500000
O O15 0.951259 0.000000 0.500000
O O16 0.152169 0.000000 0.229217
#
# Coordination Sequence:
#
# PCOD8286876 Si02
#       6
#    16  16  16  16   8  16
#     4  10  16  22  34  51  70  89 109 133 164 203
#     4   9  16  26  38  52  69  86 106 134 171 212
#     4   9  17  28  40  53  70  93 120 148 179 215
#     4  10  20  31  43  57  70  86 112 148 186 222
#     4  11  23  35  45  55  69  91 117 147 184 225
#     4   9  15  23  35  50  69  91 113 138 168 202
#
# _framework density 13.954907
#
# number of rings (size 3 to 8) (size 9 to 14) (size 15 to 20)
#    0.000    2.455    0.000    6.273    0.000    6.182 
#    0.000    0.000    0.000    0.000    0.000    0.000 
#    0.000    0.000    0.000    0.000    0.000    0.000 
#
# Total GULP energy -545077.207057 kJ/mol
# GULP energy per Si atom -12388.118342 kJ/mol
# Density = 1.392314 g / cm^3
# Si number density = 13.954907 Si / 1000 Ang^3
#
#
#
# Elastic Constant Matrix: (Units=GPa)
#
#
# Indices 1 2 3 4 5 6 
#
# 1 111.1466 38.4263 41.0009 0.0000 0.0000 0.0000
# 2 38.4263 68.4600 18.9401 0.0000 0.0000 0.0000
# 3 41.0009 18.9401 27.6591 0.0000 0.0000 0.0000
# 4 0.0000 0.0000 0.0000 4.5629 0.0000 0.0000
# 5 0.0000 0.0000 0.0000 0.0000 16.3870 0.0000
# 6 0.0000 0.0000 0.0000 0.0000 0.0000 20.0163
#
#
#
# Elastic Compliance Matrix: (Units=1/GPa)
#
#
# Indices 1 2 3 4 5 6 
#
# 1 0.020645 -0.003851 -0.027967 0.000000 0.000000 0.000000
# 2 -0.003851 0.018739 -0.007124 0.000000 0.000000 0.000000
# 3 -0.027967 -0.007124 0.082489 0.000000 0.000000 0.000000
# 4 0.000000 0.000000 0.000000 0.219160 0.000000 0.000000
# 5 0.000000 0.000000 0.000000 0.000000 0.061024 0.000000
# 6 0.000000 0.000000 0.000000 0.000000 0.000000 0.049959
#
#
# Mechanical properties :
#
#
# Convention : Reuss Voigt Hill
#
# Bulk Modulus (GPa) = 22.73179 44.88894 33.81036
# Shear Modulus (GPa) = 9.18167 15.45313 12.31740
#
# Velocity S-wave (km/s) = 2.56784 3.33131 2.97418
# Velocity P-wave (km/s) = 5.01164 6.85812 6.00626
#
# Compressibility (1/GPa) = 0.04399126
#
# Stress axis : x y z
#
# Youngs Moduli (GPa) = 48.43777 53.36360 12.12279
#
# Poissons Ratio (x) = 0.20549 0.33903
# Poissons Ratio (y) = 0.18652 0.08636
# Poissons Ratio (z) = 1.35464 0.38015
#
# Static dielectric constant tensor:
#      x y z
#    x 3.659920 0.000000 0.000000 
#    y 0.000000 2.860040 0.000000 
#    z 0.000000 0.000000 2.433880 
# 
# 
# High freq. dielectric constant tensor:
#      x y z
#    x 1.541120 0.000000 0.000000 
#    y 0.000000 1.551630 0.000000 
#    z 0.000000 0.000000 1.455090 
# 
# From -- ./inp_files/15714.got.cif
#   From: 2010.06.25/outbox.cif.g09.slc.cpg/sg71_8_cif.got.tgz:15714.got - 2010.06.28 04:59:45.
