data_PCOD8286607
_publ_section_title
;
Structure prediction by ZEFSAII (Michael W. Deem and Ramdas Pophale) SiO2 
 PCOD8286607
Probable space group: F D D D
;
_chemical_formula_sum "Si O2"
_cell_formula_units_Z 168
_cell_length_a 20.731706
_cell_length_b 20.731704
_cell_length_c 18.160893
_cell_angle_alpha 90.000000
_cell_angle_beta 90.000000
_cell_angle_gamma 90.000000
_cell_volume 7805.617049
_symmetry_space_group_name_H-M "F D D D"
_symmetry_group_IT_number 70
_space_group.IT_coordinate_system_code '2'
_symmetry_cell_setting 'orthorhombic'
loop_
_space_group_symop_operation_xyz
x,y,z
1/4-x,1/4-y,z
x,1/4-y,1/4-z
1/4-x,y,1/4-z
-x,-y,-z
3/4+x,3/4+y,-z
-x,3/4+y,3/4+z
3/4+x,-y,3/4+z
x,1/2+y,1/2+z
1/4-x,3/4-y,1/2+z
x,3/4-y,3/4-z
1/4-x,1/2+y,3/4-z
-x,1/2-y,1/2-z
3/4+x,1/4+y,1/2-z
-x,1/4+y,1/4+z
3/4+x,1/2-y,1/4+z
1/2+x,y,1/2+z
3/4-x,1/4-y,1/2+z
1/2+x,1/4-y,3/4-z
3/4-x,y,3/4-z
1/2-x,-y,1/2-z
1/4+x,3/4+y,1/2-z
1/2-x,3/4+y,1/4+z
1/4+x,-y,1/4+z
1/2+x,1/2+y,z
3/4-x,3/4-y,z
1/2+x,3/4-y,1/4-z
3/4-x,1/2+y,1/4-z
1/2-x,1/2-y,-z
1/4+x,1/4+y,-z
1/2-x,1/4+y,3/4+z
1/4+x,1/2-y,3/4+z
loop_
_atom_site_type_symbol
_atom_site_label
_atom_site_fract_x
_atom_site_fract_y
_atom_site_fract_z
Si Si1 0.375000 0.973061 0.875000
Si Si2 0.776940 0.875000 0.375000
Si Si3 0.959794 0.607993 0.268644
Si Si4 0.875000 0.875000 0.875000
Si Si5 0.679725 0.070275 0.359001
Si Si6 0.286513 0.286513 0.776546
Si Si7 0.357993 0.540206 0.518644
O O1 0.429466 0.929466 0.914355
O O2 0.408834 0.011921 0.811026
O O3 0.738079 0.841166 0.311026
O O4 0.947842 0.537187 0.301908
O O5 0.893045 0.643045 0.250000
O O6 0.005995 0.652548 0.318849
O O7 0.918645 0.918645 0.824034
O O8 0.625000 0.125000 0.357827
O O9 0.699107 0.050893 0.441172
O O10 0.652548 0.005995 0.318849
O O11 0.212813 0.302158 0.801908
#
# Coordination Sequence:
#
# PCOD8286607 Si02
#       7
#    16  16  32   8  32  32  32
#     4  11  20  37  66 105 150 183 210 268 356 433
#     4  11  20  37  66 105 150 183 210 268 356 433
#     4  12  25  43  71 112 149 182 229 287 358 433
#     4  12  32  56  72  88 132 202 260 320 328 372
#     4  12  23  47  74 106 146 189 224 291 360 429
#     4  12  28  51  74  99 137 188 251 292 356 417
#     4  12  25  43  71 112 149 182 229 287 358 433
#
# _framework density 21.522962
#
# number of rings (size 3 to 8) (size 9 to 14) (size 15 to 20)
#    0.000    0.190    6.667    2.857    0.000    4.571 
#    0.000    2.857    0.000    0.000    0.000    0.000 
#    0.000    0.000    0.000    0.000    0.000    0.000 
#
# Total GULP energy -520591.490296 kJ/mol
# GULP energy per Si atom -12395.035483 kJ/mol
# Density = 2.147398 g / cm^3
# Si number density = 21.522962 Si / 1000 Ang^3
#
#
#
# Elastic Constant Matrix: (Units=GPa)
#
#
# Indices 1 2 3 4 5 6 
#
# 1 147.5023 98.5751 43.6821 0.0000 0.0000 0.0000
# 2 98.5751 147.5018 43.6821 0.0000 0.0000 0.0000
# 3 43.6821 43.6821 109.6537 0.0000 0.0000 0.0000
# 4 0.0000 0.0000 0.0000 41.7693 0.0000 0.0000
# 5 0.0000 0.0000 0.0000 0.0000 41.7621 0.0000
# 6 0.0000 0.0000 0.0000 0.0000 0.0000 39.8043
#
#
#
# Elastic Compliance Matrix: (Units=1/GPa)
#
#
# Indices 1 2 3 4 5 6 
#
# 1 0.012586 -0.007853 -0.001886 0.000000 0.000000 0.000000
# 2 -0.007853 0.012586 -0.001886 0.000000 0.000000 0.000000
# 3 -0.001886 -0.001886 0.010622 0.000000 0.000000 0.000000
# 4 0.000000 0.000000 0.000000 0.023941 0.000000 0.000000
# 5 0.000000 0.000000 0.000000 0.000000 0.023945 0.000000
# 6 0.000000 0.000000 0.000000 0.000000 0.000000 0.025123
#
#
# Mechanical properties :
#
#
# Convention : Reuss Voigt Hill
#
# Bulk Modulus (GPa) = 79.70593 86.28182 82.99387
# Shear Modulus (GPa) = 36.70200 39.24839 37.97520
#
# Velocity S-wave (km/s) = 4.13395 4.27495 4.20504
# Velocity P-wave (km/s) = 7.73947 8.03382 7.88802
#
# Compressibility (1/GPa) = 0.01254612
#
# Stress axis : x y z
#
# Youngs Moduli (GPa) = 79.45412 79.45385 94.14535
#
# Poissons Ratio (x) = 0.62393 0.17751
# Poissons Ratio (y) = 0.62393 0.17751
# Poissons Ratio (z) = 0.14981 0.14981
#
# Static dielectric constant tensor:
#      x y z
#    x 3.757150 0.000000 0.000000 
#    y 0.000000 3.757170 0.000000 
#    z 0.000000 0.000000 3.783300 
# 
# 
# High freq. dielectric constant tensor:
#      x y z
#    x 1.854100 0.000000 0.000000 
#    y 0.000000 1.854100 0.000000 
#    z 0.000000 0.000000 1.838610 
# 
# From -- ./inp_files/43815.got.cif
#   From: 2010.03.12/outbox.cif.g09.slc.cpg/sg70_22_cif.got.tgz:43815.got - 2010.04.16 13:46:32.
