data_PCOD8286483
_publ_section_title
;
Structure prediction by ZEFSAII (Michael W. Deem and Ramdas Pophale) SiO2 
 PCOD8286483
Probable space group: F D D D
;
_chemical_formula_sum "Si O2"
_cell_formula_units_Z 192
_cell_length_a 28.312126
_cell_length_b 16.898521
_cell_length_c 18.102476
_cell_angle_alpha 90.000000
_cell_angle_beta 90.000000
_cell_angle_gamma 90.000000
_cell_volume 8660.822910
_symmetry_space_group_name_H-M "F D D D"
_symmetry_group_IT_number 70
_space_group.IT_coordinate_system_code '2'
_symmetry_cell_setting 'orthorhombic'
loop_
_space_group_symop_operation_xyz
x,y,z
1/4-x,1/4-y,z
x,1/4-y,1/4-z
1/4-x,y,1/4-z
-x,-y,-z
3/4+x,3/4+y,-z
-x,3/4+y,3/4+z
3/4+x,-y,3/4+z
x,1/2+y,1/2+z
1/4-x,3/4-y,1/2+z
x,3/4-y,3/4-z
1/4-x,1/2+y,3/4-z
-x,1/2-y,1/2-z
3/4+x,1/4+y,1/2-z
-x,1/4+y,1/4+z
3/4+x,1/2-y,1/4+z
1/2+x,y,1/2+z
3/4-x,1/4-y,1/2+z
1/2+x,1/4-y,3/4-z
3/4-x,y,3/4-z
1/2-x,-y,1/2-z
1/4+x,3/4+y,1/2-z
1/2-x,3/4+y,1/4+z
1/4+x,-y,1/4+z
1/2+x,1/2+y,z
3/4-x,3/4-y,z
1/2+x,3/4-y,1/4-z
3/4-x,1/2+y,1/4-z
1/2-x,1/2-y,-z
1/4+x,1/4+y,-z
1/2-x,1/4+y,3/4+z
1/4+x,1/2-y,3/4+z
loop_
_atom_site_type_symbol
_atom_site_label
_atom_site_fract_x
_atom_site_fract_y
_atom_site_fract_z
Si Si1 0.375000 0.258636 0.875000
Si Si2 0.483372 0.468828 0.380595
Si Si3 0.931565 0.233269 0.733896
Si Si4 0.215359 0.455181 0.973638
Si Si5 0.143025 0.542634 0.888673
Si Si6 0.122851 0.411469 0.482516
Si Si7 0.042704 0.625000 0.625000
O O1 0.362835 0.205100 0.806416
O O2 0.421429 0.306781 0.848100
O O3 0.484528 0.375000 0.375000
O O4 0.439125 0.497105 0.429880
O O5 0.526711 0.504670 0.427415
O O6 0.482175 0.507074 0.300022
O O7 0.887548 0.288495 0.713168
O O8 0.918671 0.142049 0.719504
O O9 0.197061 0.525679 0.917301
O O10 0.174530 0.390734 0.987989
O O11 0.260132 0.408226 0.940733
O O12 0.125000 0.625000 0.850965
O O13 0.130475 0.471875 0.834282
#
# Coordination Sequence:
#
# PCOD8286483 Si02
#       7
#    16  32  32  32  32  32  16
#     4  11  28  42  70 100 137 180 246 292 353 420
#     4  11  23  39  68 105 135 176 223 291 345 420
#     4  10  23  42  64 100 136 176 229 275 355 416
#     4  11  23  47  70  98 144 183 232 287 363 422
#     4  11  23  41  68  97 135 181 231 288 345 419
#     4  11  23  47  68  96 134 195 224 291 354 427
#     4  11  26  48  64 106 138 184 240 298 348 427
#
# _framework density 22.168793999999998
#
# number of rings (size 3 to 8) (size 9 to 14) (size 15 to 20)
#    0.000    1.167    1.667    4.500    7.000    2.667 
#    3.000    4.167    0.000    0.000    0.000    0.000 
#    0.000    0.000    0.000    0.000    0.000    0.000 
#
# Total GULP energy -594792.984827 kJ/mol
# GULP energy per Si atom -12391.520517 kJ/mol
# Density = 2.211834 g / cm^3
# Si number density = 22.168794 Si / 1000 Ang^3
#
#
#
# Elastic Constant Matrix: (Units=GPa)
#
#
# Indices 1 2 3 4 5 6 
#
# 1 92.7142 27.1562 25.7354 0.0000 0.0000 0.0000
# 2 27.1562 99.8123 21.8351 0.0000 0.0000 0.0000
# 3 25.7354 21.8351 111.8514 0.0000 0.0000 0.0000
# 4 0.0000 0.0000 0.0000 34.2439 0.0000 0.0000
# 5 0.0000 0.0000 0.0000 0.0000 35.9074 0.0000
# 6 0.0000 0.0000 0.0000 0.0000 0.0000 20.6171
#
#
#
# Elastic Compliance Matrix: (Units=1/GPa)
#
#
# Indices 1 2 3 4 5 6 
#
# 1 0.012245 -0.002836 -0.002264 0.000000 0.000000 0.000000
# 2 -0.002836 0.011123 -0.001519 0.000000 0.000000 0.000000
# 3 -0.002264 -0.001519 0.009758 0.000000 0.000000 0.000000
# 4 0.000000 0.000000 0.000000 0.029202 0.000000 0.000000
# 5 0.000000 0.000000 0.000000 0.000000 0.027849 0.000000
# 6 0.000000 0.000000 0.000000 0.000000 0.000000 0.048503
#
#
# Mechanical properties :
#
#
# Convention : Reuss Voigt Hill
#
# Bulk Modulus (GPa) = 50.28166 50.42569 50.35367
# Shear Modulus (GPa) = 31.53633 33.46376 32.50005
#
# Velocity S-wave (km/s) = 3.77577 3.88944 3.83303
# Velocity P-wave (km/s) = 6.46058 6.55484 6.50788
#
# Compressibility (1/GPa) = 0.01988797
#
# Stress axis : x y z
#
# Youngs Moduli (GPa) = 81.66636 89.90603 102.48257
#
# Poissons Ratio (x) = 0.25500 0.23199
# Poissons Ratio (y) = 0.23163 0.15564
# Poissons Ratio (z) = 0.18487 0.13654
#
# Static dielectric constant tensor:
#      x y z
#    x 4.197840 0.000000 0.000000 
#    y 0.000000 4.330240 0.000000 
#    z 0.000000 0.000000 3.715500 
# 
# 
# High freq. dielectric constant tensor:
#      x y z
#    x 1.876470 0.000000 0.000000 
#    y 0.000000 1.879990 0.000000 
#    z 0.000000 0.000000 1.876420 
# 
# From -- ./inp_files/39739.got.cif
#   From: 2010.03.12/outbox.cif.g09.slc.cpg/sg70_20_cif.got.tgz:39739.got - 2010.04.16 13:46:32.
