data_PCOD8286658
_publ_section_title
;
Structure prediction by ZEFSAII (Michael W. Deem and Ramdas Pophale) SiO2 
 PCOD8286658
Probable space group: F D D D
;
_chemical_formula_sum "Si O2"
_cell_formula_units_Z 192
_cell_length_a 26.642612
_cell_length_b 30.903696
_cell_length_c 10.317697
_cell_angle_alpha 90.000000
_cell_angle_beta 90.000000
_cell_angle_gamma 90.000000
_cell_volume 8495.129290
_symmetry_space_group_name_H-M "F D D D"
_symmetry_group_IT_number 70
_space_group.IT_coordinate_system_code '2'
_symmetry_cell_setting 'orthorhombic'
loop_
_space_group_symop_operation_xyz
x,y,z
1/4-x,1/4-y,z
x,1/4-y,1/4-z
1/4-x,y,1/4-z
-x,-y,-z
3/4+x,3/4+y,-z
-x,3/4+y,3/4+z
3/4+x,-y,3/4+z
x,1/2+y,1/2+z
1/4-x,3/4-y,1/2+z
x,3/4-y,3/4-z
1/4-x,1/2+y,3/4-z
-x,1/2-y,1/2-z
3/4+x,1/4+y,1/2-z
-x,1/4+y,1/4+z
3/4+x,1/2-y,1/4+z
1/2+x,y,1/2+z
3/4-x,1/4-y,1/2+z
1/2+x,1/4-y,3/4-z
3/4-x,y,3/4-z
1/2-x,-y,1/2-z
1/4+x,3/4+y,1/2-z
1/2-x,3/4+y,1/4+z
1/4+x,-y,1/4+z
1/2+x,1/2+y,z
3/4-x,3/4-y,z
1/2+x,3/4-y,1/4-z
3/4-x,1/2+y,1/4-z
1/2-x,1/2-y,-z
1/4+x,1/4+y,-z
1/2-x,1/4+y,3/4+z
1/4+x,1/2-y,3/4+z
loop_
_atom_site_type_symbol
_atom_site_label
_atom_site_fract_x
_atom_site_fract_y
_atom_site_fract_z
Si Si1 0.640618 0.778322 0.921089
Si Si2 0.686411 0.331895 0.999422
Si Si3 0.125000 0.844501 0.625000
Si Si4 0.125000 0.625000 0.125000
Si Si5 0.875000 0.375000 0.375000
Si Si6 0.279325 0.523393 0.468332
Si Si7 0.671433 0.696206 0.300978
Si Si8 0.706449 0.066895 0.161398
O O1 0.599279 0.799180 0.826672
O O2 0.692286 0.767160 0.851597
O O3 0.620972 0.732361 0.972600
O O4 0.656409 0.812057 0.033459
O O5 0.660405 0.378188 0.027418
O O6 0.696571 0.313320 0.141712
O O7 0.738811 0.339156 0.923107
O O8 0.167750 0.592238 0.061732
O O9 0.840080 0.346070 0.282922
O O10 0.222091 0.532292 0.501994
O O11 0.284714 0.481921 0.377727
O O12 0.677054 0.682016 0.451042
#
# Coordination Sequence:
#
# PCOD8286658 Si02
#       8
#    32  32  16   8   8  32  32  32
#     4  12  23  44  69 100 143 180 236 287 353 430
#     4  11  22  41  70  97 137 179 232 297 354 408
#     4  12  27  37  64 109 140 185 222 291 359 420
#     4  12  26  34  64 104 142 176 234 310 364 416
#     4  12  28  48  68  96 154 192 234 278 366 442
#     4  11  22  42  76 101 129 184 247 294 353 419
#     4  11  24  46  69  97 138 193 231 294 357 433
#     4  11  23  43  67 102 132 181 243 297 358 415
#
# _framework density 22.601186999999999
#
# number of rings (size 3 to 8) (size 9 to 14) (size 15 to 20)
#    0.000    0.667    5.000    3.500    2.333    2.667 
#    0.000    5.000    0.000    0.000    0.000    0.000 
#    0.000    0.000    0.000    0.000    0.000    0.000 
#
# Total GULP energy -594792.248165 kJ/mol
# GULP energy per Si atom -12391.505170 kJ/mol
# Density = 2.254975 g / cm^3
# Si number density = 22.601187 Si / 1000 Ang^3
#
#
#
# Elastic Constant Matrix: (Units=GPa)
#
#
# Indices 1 2 3 4 5 6 
#
# 1 120.9189 40.2516 33.7941 0.0010 -0.0022 -0.0007
# 2 40.2516 139.9233 47.1235 0.0002 -0.0009 -0.0003
# 3 33.7941 47.1235 79.3462 -0.0024 -0.0013 -0.0009
# 4 0.0010 0.0002 -0.0024 41.1838 0.0001 -0.0002
# 5 -0.0022 -0.0009 -0.0013 0.0001 13.2790 0.0001
# 6 -0.0007 -0.0003 -0.0009 -0.0002 0.0001 35.3747
#
#
#
# Elastic Compliance Matrix: (Units=1/GPa)
#
#
# Indices 1 2 3 4 5 6 
#
# 1 0.009719 -0.001752 -0.003099 0.000000 0.000001 0.000000
# 2 -0.001752 0.009250 -0.004747 0.000000 0.000000 0.000000
# 3 -0.003099 -0.004747 0.016742 0.000001 0.000001 0.000000
# 4 0.000000 0.000000 0.000001 0.024281 0.000000 0.000000
# 5 0.000001 0.000000 0.000001 0.000000 0.075307 0.000000
# 6 0.000000 0.000000 0.000000 0.000000 0.000000 0.028269
#
#
# Mechanical properties :
#
#
# Convention : Reuss Voigt Hill
#
# Bulk Modulus (GPa) = 60.55217 64.72520 62.63868
# Shear Modulus (GPa) = 26.55771 32.56879 29.56325
#
# Velocity S-wave (km/s) = 3.43163 3.80020 3.62061
# Velocity P-wave (km/s) = 6.52313 6.92499 6.72706
#
# Compressibility (1/GPa) = 0.01651468
#
# Stress axis : x y z
#
# Youngs Moduli (GPa) = 102.88725 108.11347 59.72998
#
# Poissons Ratio (x) = 0.18945 0.18509
# Poissons Ratio (y) = 0.18029 0.28353
# Poissons Ratio (z) = 0.31883 0.51321
#
# Static dielectric constant tensor:
#      x y z
#    x 4.210570 0.000000 -0.000020 
#    y 0.000000 4.299450 -0.000010 
#    z -0.000020 -0.000010 3.837670 
# 
# 
# High freq. dielectric constant tensor:
#      x y z
#    x 1.895930 0.000000 0.000000 
#    y 0.000000 1.914210 0.000000 
#    z 0.000000 0.000000 1.868390 
# 
# From -- ./inp_files/21256.got.cif
#   From: 2010.03.12/outbox.cif.g09.slc.cpg/sg70_11_cif.got.tgz:21256.got - 2010.04.16 13:46:32.
