data_PCOD8286035
_publ_section_title
;
Structure prediction by ZEFSAII (Michael W. Deem and Ramdas Pophale) SiO2 
 PCOD8286035
Probable space group: F D D D
;
_chemical_formula_sum "Si O2"
_cell_formula_units_Z 216
_cell_length_a 19.149284
_cell_length_b 21.370822
_cell_length_c 25.565870
_cell_angle_alpha 90.000000
_cell_angle_beta 90.000000
_cell_angle_gamma 90.000000
_cell_volume 10462.472836
_symmetry_space_group_name_H-M "F D D D"
_symmetry_group_IT_number 70
_space_group.IT_coordinate_system_code '2'
_symmetry_cell_setting 'orthorhombic'
loop_
_space_group_symop_operation_xyz
x,y,z
1/4-x,1/4-y,z
x,1/4-y,1/4-z
1/4-x,y,1/4-z
-x,-y,-z
3/4+x,3/4+y,-z
-x,3/4+y,3/4+z
3/4+x,-y,3/4+z
x,1/2+y,1/2+z
1/4-x,3/4-y,1/2+z
x,3/4-y,3/4-z
1/4-x,1/2+y,3/4-z
-x,1/2-y,1/2-z
3/4+x,1/4+y,1/2-z
-x,1/4+y,1/4+z
3/4+x,1/2-y,1/4+z
1/2+x,y,1/2+z
3/4-x,1/4-y,1/2+z
1/2+x,1/4-y,3/4-z
3/4-x,y,3/4-z
1/2-x,-y,1/2-z
1/4+x,3/4+y,1/2-z
1/2-x,3/4+y,1/4+z
1/4+x,-y,1/4+z
1/2+x,1/2+y,z
3/4-x,3/4-y,z
1/2+x,3/4-y,1/4-z
3/4-x,1/2+y,1/4-z
1/2-x,1/2-y,-z
1/4+x,1/4+y,-z
1/2-x,1/4+y,3/4+z
1/4+x,1/2-y,3/4+z
loop_
_atom_site_type_symbol
_atom_site_label
_atom_site_fract_x
_atom_site_fract_y
_atom_site_fract_z
Si Si1 0.440125 0.032891 0.906136
Si Si2 0.553628 0.026236 0.553940
Si Si3 0.625000 0.125000 0.868992
Si Si4 0.370558 0.084347 0.003115
Si Si5 0.842039 0.746353 0.598329
Si Si6 0.522021 0.363400 0.671426
Si Si7 0.625000 0.125000 0.625000
Si Si8 0.144477 0.784890 0.462926
O O1 0.375000 0.000301 0.875000
O O2 0.424123 0.046299 0.966838
O O3 0.452513 0.100968 0.880548
O O4 0.507902 0.987505 0.904611
O O5 0.575832 0.080234 0.592319
O O6 0.477731 0.049396 0.534918
O O7 0.550659 0.957428 0.580925
O O8 0.610409 0.020868 0.506097
O O9 0.639352 0.181133 0.909777
O O10 0.561625 0.138566 0.829153
O O11 0.298010 0.095288 0.971410
O O12 0.364348 0.044747 0.056935
O O13 0.397958 0.153313 0.019008
O O14 0.866249 0.732493 0.656888
#
# Coordination Sequence:
#
# PCOD8286035 Si02
#       8
#    32  32  16  32  32  32   8  32
#     4   9  20  39  62  90 117 161 209 260 321 372
#     4  10  23  42  57  93 131 170 213 259 306 385
#     4  10  20  37  60  92 120 166 207 268 312 384
#     4  10  21  37  65  90 118 166 210 261 322 381
#     4  11  21  38  64  89 124 162 212 261 318 387
#     4   9  19  39  66  85 130 167 209 260 318 386
#     4  12  28  38  68  96 140 176 212 270 322 376
#     4  10  22  41  63  86 127 168 210 261 317 376
#
# _framework density 20.645216000000001
#
# number of rings (size 3 to 8) (size 9 to 14) (size 15 to 20)
#    0.000    2.074    1.481    0.889    7.259    0.593 
#    8.000    8.889    0.000    1.778    0.000    1.037 
#    0.000    0.000    0.000    0.000    0.000    0.000 
#
# Total GULP energy -669032.210599 kJ/mol
# GULP energy per Si atom -12389.485381 kJ/mol
# Density = 2.059823 g / cm^3
# Si number density = 20.645216 Si / 1000 Ang^3
#
#
#
# Elastic Constant Matrix: (Units=GPa)
#
#
# Indices 1 2 3 4 5 6 
#
# 1 92.7935 29.4630 30.7702 0.0000 0.0000 0.0000
# 2 29.4630 94.9077 48.9067 0.0000 0.0000 0.0000
# 3 30.7702 48.9067 114.6415 0.0000 0.0000 0.0000
# 4 0.0000 0.0000 0.0000 179.1842 0.0000 0.0000
# 5 0.0000 0.0000 0.0000 0.0000 26.3070 0.0000
# 6 0.0000 0.0000 0.0000 0.0000 0.0000 20.1775
#
#
#
# Elastic Compliance Matrix: (Units=1/GPa)
#
#
# Indices 1 2 3 4 5 6 
#
# 1 0.012356 -0.002726 -0.002153 0.000000 0.000000 0.000000
# 2 -0.002726 0.014107 -0.005286 0.000000 0.000000 0.000000
# 3 -0.002153 -0.005286 0.011556 0.000000 0.000000 0.000000
# 4 0.000000 0.000000 0.000000 0.005581 0.000000 0.000000
# 5 0.000000 0.000000 0.000000 0.000000 0.038013 0.000000
# 6 0.000000 0.000000 0.000000 0.000000 0.000000 0.049560
#
#
# Mechanical properties :
#
#
# Convention : Reuss Voigt Hill
#
# Bulk Modulus (GPa) = 56.53793 57.84695 57.19244
# Shear Modulus (GPa) = 31.76601 58.01392 44.88997
#
# Velocity S-wave (km/s) = 3.92683 5.30673 4.66805
# Velocity P-wave (km/s) = 6.92856 8.10117 7.53770
#
# Compressibility (1/GPa) = 0.01768724
#
# Stress axis : x y z
#
# Youngs Moduli (GPa) = 80.93045 70.88686 86.53476
#
# Poissons Ratio (x) = 0.19325 0.18635
# Poissons Ratio (y) = 0.22063 0.45746
# Poissons Ratio (z) = 0.17428 0.37474
#
# Static dielectric constant tensor:
#      x y z
#    x 3.787960 0.000000 0.000000 
#    y 0.000000 3.796620 0.000000 
#    z 0.000000 0.000000 3.881630 
# 
# 
# High freq. dielectric constant tensor:
#      x y z
#    x 1.793270 0.000000 0.000000 
#    y 0.000000 1.797920 0.000000 
#    z 0.000000 0.000000 1.812830 
# 
# From -- ./inp_files/60530.got.cif
#   From: 2010.03.12/outbox.cif.g09.slc.cpg/sg70_31_cif.got.tgz:60530.got - 2010.04.16 13:46:32.
