data_PCOD8286480
_publ_section_title
;
Structure prediction by ZEFSAII (Michael W. Deem and Ramdas Pophale) SiO2 
 PCOD8286480
Probable space group: F D D D
;
_chemical_formula_sum "Si O2"
_cell_formula_units_Z 240
_cell_length_a 19.295792
_cell_length_b 25.500382
_cell_length_c 22.427065
_cell_angle_alpha 90.000000
_cell_angle_beta 90.000000
_cell_angle_gamma 90.000000
_cell_volume 11035.238836
_symmetry_space_group_name_H-M "F D D D"
_symmetry_group_IT_number 70
_space_group.IT_coordinate_system_code '2'
_symmetry_cell_setting 'orthorhombic'
loop_
_space_group_symop_operation_xyz
x,y,z
1/4-x,1/4-y,z
x,1/4-y,1/4-z
1/4-x,y,1/4-z
-x,-y,-z
3/4+x,3/4+y,-z
-x,3/4+y,3/4+z
3/4+x,-y,3/4+z
x,1/2+y,1/2+z
1/4-x,3/4-y,1/2+z
x,3/4-y,3/4-z
1/4-x,1/2+y,3/4-z
-x,1/2-y,1/2-z
3/4+x,1/4+y,1/2-z
-x,1/4+y,1/4+z
3/4+x,1/2-y,1/4+z
1/2+x,y,1/2+z
3/4-x,1/4-y,1/2+z
1/2+x,1/4-y,3/4-z
3/4-x,y,3/4-z
1/2-x,-y,1/2-z
1/4+x,3/4+y,1/2-z
1/2-x,3/4+y,1/4+z
1/4+x,-y,1/4+z
1/2+x,1/2+y,z
3/4-x,3/4-y,z
1/2+x,3/4-y,1/4-z
3/4-x,1/2+y,1/4-z
1/2-x,1/2-y,-z
1/4+x,1/4+y,-z
1/2-x,1/4+y,3/4+z
1/4+x,1/2-y,3/4+z
loop_
_atom_site_type_symbol
_atom_site_label
_atom_site_fract_x
_atom_site_fract_y
_atom_site_fract_z
Si Si1 0.225941 0.967415 0.132426
Si Si2 0.517043 0.191625 0.994488
Si Si3 0.972003 0.080221 0.468940
Si Si4 0.904672 0.996159 0.547974
Si Si5 0.915728 0.424439 0.534876
Si Si6 0.242357 0.829178 0.423570
Si Si7 0.125000 0.364536 0.125000
Si Si8 0.855002 0.726646 0.683289
O O1 0.222142 0.961274 0.061451
O O2 0.298044 0.946398 0.156337
O O3 0.170784 0.927523 0.163139
O O4 0.216944 0.028099 0.149169
O O5 0.516652 0.128263 0.996110
O O6 0.594083 0.216718 0.990525
O O7 0.473680 0.207867 0.053888
O O8 0.922341 0.098574 0.415538
O O9 0.027619 0.039245 0.444675
O O10 0.923043 0.051490 0.516942
O O11 0.881077 0.009488 0.614216
O O12 0.875000 0.375000 0.558905
O O13 0.866184 0.474192 0.520944
O O14 0.963995 0.404464 0.481407
O O15 0.245126 0.875000 0.375000
O O16 0.163677 0.817896 0.445103
#
# Coordination Sequence:
#
# PCOD8286480 Si02
#       8
#    32  32  32  32  32  32  16  32
#     4  10  23  42  62  97 135 179 230 283 332 421
#     4  11  24  42  73  98 137 188 226 296 357 421
#     4  10  26  42  70 104 135 183 238 296 356 424
#     4  11  24  48  69 103 142 179 241 299 355 427
#     4  11  26  41  65  99 137 182 229 283 345 428
#     4  11  26  44  65  99 148 183 227 290 349 427
#     4  10  24  38  73  96 135 180 236 280 350 416
#     4  11  26  43  71  97 139 183 238 281 360 426
#
# _framework density 21.748508999999999
#
# number of rings (size 3 to 8) (size 9 to 14) (size 15 to 20)
#    0.000    1.333    2.667    2.000   16.800    0.267 
#    0.000    0.000    0.000    1.600    0.000    0.000 
#    0.000    0.000    0.000    0.000    0.000    0.000 
#
# Total GULP energy -743395.759504 kJ/mol
# GULP energy per Si atom -12389.929325 kJ/mol
# Density = 2.169901 g / cm^3
# Si number density = 21.748509 Si / 1000 Ang^3
#
#
#
# Elastic Constant Matrix: (Units=GPa)
#
#
# Indices 1 2 3 4 5 6 
#
# 1 88.5163 52.5183 34.4301 0.0000 0.0000 0.0000
# 2 52.5183 139.5346 42.5722 0.0000 0.0000 0.0000
# 3 34.4301 42.5722 71.6252 0.0000 0.0000 0.0000
# 4 0.0000 0.0000 0.0000 -1.5199 0.0000 0.0000
# 5 0.0000 0.0000 0.0000 0.0000 20.0323 0.0000
# 6 0.0000 0.0000 0.0000 0.0000 0.0000 38.5003
#
#
#
# Elastic Compliance Matrix: (Units=1/GPa)
#
#
# Indices 1 2 3 4 5 6 
#
# 1 0.015880 -0.004456 -0.004985 0.000000 0.000000 0.000000
# 2 -0.004456 0.010005 -0.003804 0.000000 0.000000 0.000000
# 3 -0.004985 -0.003804 0.018619 0.000000 0.000000 0.000000
# 4 0.000000 0.000000 0.000000 -0.657923 0.000000 0.000000
# 5 0.000000 0.000000 0.000000 0.000000 0.049919 0.000000
# 6 0.000000 0.000000 0.000000 0.000000 0.000000 0.025974
#
#
# Mechanical properties :
#
#
# Convention : Reuss Voigt Hill
#
# Bulk Modulus (GPa) = 55.51590 62.07971 58.79781
# Shear Modulus (GPa) = -9.90039 22.74625 6.42293
#
# Velocity S-wave (km/s) = -2.13591 3.23751 1.72037
# Velocity P-wave (km/s) = 4.41576 6.52546 5.57138
#
# Compressibility (1/GPa) = 0.01801286
#
# Stress axis : x y z
#
# Youngs Moduli (GPa) = 62.97131 99.95380 53.70826
#
# Poissons Ratio (x) = 0.44540 0.26774
# Poissons Ratio (y) = 0.28061 0.20433
# Poissons Ratio (z) = 0.31391 0.38027
#
# Static dielectric constant tensor:
#      x y z
#    x 4.602320 0.000000 0.000000 
#    y 0.000000 4.293050 0.000000 
#    z 0.000000 0.000000 3.598090 
# 
# 
# High freq. dielectric constant tensor:
#      x y z
#    x 1.863440 0.000000 0.000000 
#    y 0.000000 1.866600 0.000000 
#    z 0.000000 0.000000 1.835600 
# 
# From -- ./inp_files/45216.got.cif
#   From: 2010.03.12/outbox.cif.g09.slc.cpg/sg70_23_cif.got.tgz:45216.got - 2010.04.16 13:46:32.
