data_PCOD8286083
_publ_section_title
;
Structure prediction by ZEFSAII (Michael W. Deem and Ramdas Pophale) SiO2 
 PCOD8286083
Probable space group: F D D D
;
_chemical_formula_sum "Si O2"
_cell_formula_units_Z 192
_cell_length_a 16.476353
_cell_length_b 27.065183
_cell_length_c 21.301466
_cell_angle_alpha 90.000000
_cell_angle_beta 90.000000
_cell_angle_gamma 90.000000
_cell_volume 9499.080086
_symmetry_space_group_name_H-M "F D D D"
_symmetry_group_IT_number 70
_space_group.IT_coordinate_system_code '2'
_symmetry_cell_setting 'orthorhombic'
loop_
_space_group_symop_operation_xyz
x,y,z
1/4-x,1/4-y,z
x,1/4-y,1/4-z
1/4-x,y,1/4-z
-x,-y,-z
3/4+x,3/4+y,-z
-x,3/4+y,3/4+z
3/4+x,-y,3/4+z
x,1/2+y,1/2+z
1/4-x,3/4-y,1/2+z
x,3/4-y,3/4-z
1/4-x,1/2+y,3/4-z
-x,1/2-y,1/2-z
3/4+x,1/4+y,1/2-z
-x,1/4+y,1/4+z
3/4+x,1/2-y,1/4+z
1/2+x,y,1/2+z
3/4-x,1/4-y,1/2+z
1/2+x,1/4-y,3/4-z
3/4-x,y,3/4-z
1/2-x,-y,1/2-z
1/4+x,3/4+y,1/2-z
1/2-x,3/4+y,1/4+z
1/4+x,-y,1/4+z
1/2+x,1/2+y,z
3/4-x,3/4-y,z
1/2+x,3/4-y,1/4-z
3/4-x,1/2+y,1/4-z
1/2-x,1/2-y,-z
1/4+x,1/4+y,-z
1/2-x,1/4+y,3/4+z
1/4+x,1/2-y,3/4+z
loop_
_atom_site_type_symbol
_atom_site_label
_atom_site_fract_x
_atom_site_fract_y
_atom_site_fract_z
Si Si1 0.167242 0.912679 0.214495
Si Si2 0.914535 0.424887 0.598404
Si Si3 0.008815 0.230897 0.936080
Si Si4 0.408746 0.174736 0.095958
Si Si5 0.125000 0.829791 0.125000
Si Si6 0.963116 0.234628 0.076070
Si Si7 0.875000 0.502514 0.375000
O O1 0.263418 0.909189 0.199303
O O2 0.151666 0.913037 0.288393
O O3 0.118640 0.865941 0.185308
O O4 0.133439 0.963840 0.187058
O O5 0.875000 0.375000 0.626053
O O6 0.848163 0.456669 0.560284
O O7 0.948055 0.457469 0.656402
O O8 0.017268 0.289254 0.922153
O O9 0.954611 0.204751 0.882049
O O10 0.964420 0.225557 0.002193
O O11 0.446489 0.125000 0.125000
O O12 0.357899 0.200169 0.150647
O O13 0.046801 0.218632 0.111028
#
# Coordination Sequence:
#
# PCOD8286083 Si02
#       7
#    32  32  32  32  16  32  16
#     4  10  20  38  64  89 124 163 205 257 322 372
#     4  10  21  38  64  93 122 163 210 260 311 388
#     4  11  23  41  63  89 129 162 216 259 307 380
#     4  11  24  40  59  91 131 165 206 264 316 371
#     4  11  22  40  67  88 116 170 213 254 307 372
#     4  10  22  38  61  94 126 162 206 255 320 376
#     4   9  18  34  63  90 118 164 195 246 321 378
#
# _framework density 20.212482999999999
#
# number of rings (size 3 to 8) (size 9 to 14) (size 15 to 20)
#    0.000    1.667    3.333    1.000    2.333    2.000 
#    0.000   10.000    0.000    0.000    0.000    0.000 
#    0.000    0.000    0.000    0.000    0.000    0.000 
#
# Total GULP energy -595158.141973 kJ/mol
# GULP energy per Si atom -12399.127958 kJ/mol
# Density = 2.016648 g / cm^3
# Si number density = 20.212483 Si / 1000 Ang^3
#
#
#
# Elastic Constant Matrix: (Units=GPa)
#
#
# Indices 1 2 3 4 5 6 
#
# 1 74.5550 22.5150 37.3047 0.0000 0.0000 0.0000
# 2 22.5150 90.8070 34.2039 0.0000 0.0000 0.0000
# 3 37.3047 34.2039 100.2057 0.0000 0.0000 0.0000
# 4 0.0000 0.0000 0.0000 23.1632 0.0000 0.0000
# 5 0.0000 0.0000 0.0000 0.0000 22.9918 0.0000
# 6 0.0000 0.0000 0.0000 0.0000 0.0000 26.4434
#
#
#
# Elastic Compliance Matrix: (Units=1/GPa)
#
#
# Indices 1 2 3 4 5 6 
#
# 1 0.016819 -0.002079 -0.005552 0.000000 0.000000 0.000000
# 2 -0.002079 0.012894 -0.003627 0.000000 0.000000 0.000000
# 3 -0.005552 -0.003627 0.013284 0.000000 0.000000 0.000000
# 4 0.000000 0.000000 0.000000 0.043172 0.000000 0.000000
# 5 0.000000 0.000000 0.000000 0.000000 0.043494 0.000000
# 6 0.000000 0.000000 0.000000 0.000000 0.000000 0.037817
#
#
# Mechanical properties :
#
#
# Convention : Reuss Voigt Hill
#
# Bulk Modulus (GPa) = 48.82492 50.40165 49.61328
# Shear Modulus (GPa) = 25.40365 25.95596 25.67981
#
# Velocity S-wave (km/s) = 3.54903 3.58740 3.56826
# Velocity P-wave (km/s) = 6.40331 6.49225 6.44793
#
# Compressibility (1/GPa) = 0.02048134
#
# Stress axis : x y z
#
# Youngs Moduli (GPa) = 59.45810 77.55481 75.27652
#
# Poissons Ratio (x) = 0.16123 0.41791
# Poissons Ratio (y) = 0.12361 0.27305
# Poissons Ratio (z) = 0.33009 0.28131
#
# Static dielectric constant tensor:
#      x y z
#    x 3.677850 0.000000 0.000000 
#    y 0.000000 3.880810 0.000000 
#    z 0.000000 0.000000 3.439760 
# 
# 
# High freq. dielectric constant tensor:
#      x y z
#    x 1.779080 0.000000 0.000000 
#    y 0.000000 1.793180 0.000000 
#    z 0.000000 0.000000 1.771020 
# 
# From -- ./inp_files/35532.got.cif
#   From: 2010.03.12/outbox.cif.g09.slc.cpg/sg70_18_cif.got.tgz:35532.got - 2010.04.16 13:46:32.
