data_PCOD8286561
_publ_section_title
;
Structure prediction by ZEFSAII (Michael W. Deem and Ramdas Pophale) SiO2 
 PCOD8286561
Probable space group: F D D D
;
_chemical_formula_sum "Si O2"
_cell_formula_units_Z 208
_cell_length_a 24.961081
_cell_length_b 19.161719
_cell_length_c 19.451694
_cell_angle_alpha 90.000000
_cell_angle_beta 90.000000
_cell_angle_gamma 90.000000
_cell_volume 9303.691166
_symmetry_space_group_name_H-M "F D D D"
_symmetry_group_IT_number 70
_space_group.IT_coordinate_system_code '2'
_symmetry_cell_setting 'orthorhombic'
loop_
_space_group_symop_operation_xyz
x,y,z
1/4-x,1/4-y,z
x,1/4-y,1/4-z
1/4-x,y,1/4-z
-x,-y,-z
3/4+x,3/4+y,-z
-x,3/4+y,3/4+z
3/4+x,-y,3/4+z
x,1/2+y,1/2+z
1/4-x,3/4-y,1/2+z
x,3/4-y,3/4-z
1/4-x,1/2+y,3/4-z
-x,1/2-y,1/2-z
3/4+x,1/4+y,1/2-z
-x,1/4+y,1/4+z
3/4+x,1/2-y,1/4+z
1/2+x,y,1/2+z
3/4-x,1/4-y,1/2+z
1/2+x,1/4-y,3/4-z
3/4-x,y,3/4-z
1/2-x,-y,1/2-z
1/4+x,3/4+y,1/2-z
1/2-x,3/4+y,1/4+z
1/4+x,-y,1/4+z
1/2+x,1/2+y,z
3/4-x,3/4-y,z
1/2+x,3/4-y,1/4-z
3/4-x,1/2+y,1/4-z
1/2-x,1/2-y,-z
1/4+x,1/4+y,-z
1/2-x,1/4+y,3/4+z
1/4+x,1/2-y,3/4+z
loop_
_atom_site_type_symbol
_atom_site_label
_atom_site_fract_x
_atom_site_fract_y
_atom_site_fract_z
Si Si1 0.169465 0.683472 0.001211
Si Si2 0.625000 0.324921 0.625000
Si Si3 0.147016 0.319616 0.739487
Si Si4 0.503235 0.751001 0.963305
Si Si5 0.260891 0.735673 0.371475
Si Si6 0.437750 0.861294 0.608442
Si Si7 0.232077 0.625000 0.125000
Si Si8 0.546437 0.875000 0.375000
O O1 0.125000 0.625000 0.998867
O O2 0.146637 0.760996 0.993925
O O3 0.198947 0.674150 0.073300
O O4 0.205449 0.670004 0.933045
O O5 0.631633 0.372186 0.692891
O O6 0.676700 0.276264 0.612667
O O7 0.195638 0.284423 0.696180
O O8 0.166695 0.353512 0.810841
O O9 0.549940 0.695567 0.950056
O O10 0.516277 0.820239 0.919111
O O11 0.500782 0.773862 0.041304
O O12 0.222716 0.679539 0.409059
O O13 0.242563 0.811693 0.397529
O O14 0.375000 0.875000 0.604574
#
# Coordination Sequence:
#
# PCOD8286561 Si02
#       8
#    32  16  32  32  32  32  16  16
#     4  11  21  36  67 101 139 180 218 262 344 424
#     4  12  26  43  71 100 144 174 234 292 350 399
#     4  11  23  43  67 101 138 187 222 282 347 414
#     4  11  23  42  66 101 138 177 230 278 340 418
#     4  11  25  48  66 102 134 177 236 292 342 411
#     4  11  23  45  69  96 137 182 226 287 341 412
#     4  12  21  36  71 104 146 180 209 273 344 430
#     4  10  24  47  71  90 142 184 242 286 350 402
#
# _framework density 22.356718000000001
#
# number of rings (size 3 to 8) (size 9 to 14) (size 15 to 20)
#    0.000    0.923    4.615    3.923    0.000    5.231 
#    5.538    0.769    0.000    0.000    0.000    0.000 
#    0.000    0.000    0.000    0.000    0.000    0.000 
#
# Total GULP energy -644800.211615 kJ/mol
# GULP energy per Si atom -12400.004070 kJ/mol
# Density = 2.230583 g / cm^3
# Si number density = 22.356718 Si / 1000 Ang^3
#
#
#
# Elastic Constant Matrix: (Units=GPa)
#
#
# Indices 1 2 3 4 5 6 
#
# 1 98.2417 54.1138 7.4790 0.0000 0.0000 0.0000
# 2 54.1138 170.4716 39.1805 0.0000 0.0000 0.0000
# 3 7.4790 39.1805 49.7909 0.0000 0.0000 0.0000
# 4 0.0000 0.0000 0.0000 40.8154 0.0000 0.0000
# 5 0.0000 0.0000 0.0000 0.0000 22.1354 0.0000
# 6 0.0000 0.0000 0.0000 0.0000 0.0000 35.8955
#
#
#
# Elastic Compliance Matrix: (Units=1/GPa)
#
#
# Indices 1 2 3 4 5 6 
#
# 1 0.012428 -0.004292 0.001511 0.000000 0.000000 0.000000
# 2 -0.004292 0.008644 -0.006157 0.000000 0.000000 0.000000
# 3 0.001511 -0.006157 0.024702 0.000000 0.000000 0.000000
# 4 0.000000 0.000000 0.000000 0.024501 0.000000 0.000000
# 5 0.000000 0.000000 0.000000 0.000000 0.045176 0.000000
# 6 0.000000 0.000000 0.000000 0.000000 0.000000 0.027859
#
#
# Mechanical properties :
#
#
# Convention : Reuss Voigt Hill
#
# Bulk Modulus (GPa) = 35.84618 57.78342 46.81480
# Shear Modulus (GPa) = 29.32792 34.28464 31.80628
#
# Velocity S-wave (km/s) = 3.62583 3.92028 3.77592
# Velocity P-wave (km/s) = 5.79633 6.81129 6.32420
#
# Compressibility (1/GPa) = 0.02789697
#
# Stress axis : x y z
#
# Youngs Moduli (GPa) = 80.46125 115.69021 40.48250
#
# Poissons Ratio (x) = 0.49660 -0.06117
# Poissons Ratio (y) = 0.34538 0.24925
# Poissons Ratio (z) = -0.12157 0.71231
#
# Static dielectric constant tensor:
#      x y z
#    x 1.862230 0.000000 0.000000 
#    y 0.000000 4.194750 0.000000 
#    z 0.000000 0.000000 4.525080 
# 
# 
# High freq. dielectric constant tensor:
#      x y z
#    x 1.862510 0.000000 0.000000 
#    y 0.000000 1.894820 0.000000 
#    z 0.000000 0.000000 1.879700 
# 
# From -- ./inp_files/38769.got.cif
#   From: 2010.03.12/outbox.cif.g09.slc.cpg/sg70_20_cif.got.tgz:38769.got - 2010.04.16 13:46:32.
