data_PCOD8286557
_publ_section_title
;
Structure prediction by ZEFSAII (Michael W. Deem and Ramdas Pophale) SiO2 
 PCOD8286557
Probable space group: F D D D
;
_chemical_formula_sum "Si O2"
_cell_formula_units_Z 176
_cell_length_a 12.381851
_cell_length_b 20.684137
_cell_length_c 31.920202
_cell_angle_alpha 90.000000
_cell_angle_beta 90.000000
_cell_angle_gamma 90.000000
_cell_volume 8175.015978
_symmetry_space_group_name_H-M "F D D D"
_symmetry_group_IT_number 70
_space_group.IT_coordinate_system_code '2'
_symmetry_cell_setting 'orthorhombic'
loop_
_space_group_symop_operation_xyz
x,y,z
1/4-x,1/4-y,z
x,1/4-y,1/4-z
1/4-x,y,1/4-z
-x,-y,-z
3/4+x,3/4+y,-z
-x,3/4+y,3/4+z
3/4+x,-y,3/4+z
x,1/2+y,1/2+z
1/4-x,3/4-y,1/2+z
x,3/4-y,3/4-z
1/4-x,1/2+y,3/4-z
-x,1/2-y,1/2-z
3/4+x,1/4+y,1/2-z
-x,1/4+y,1/4+z
3/4+x,1/2-y,1/4+z
1/2+x,y,1/2+z
3/4-x,1/4-y,1/2+z
1/2+x,1/4-y,3/4-z
3/4-x,y,3/4-z
1/2-x,-y,1/2-z
1/4+x,3/4+y,1/2-z
1/2-x,3/4+y,1/4+z
1/4+x,-y,1/4+z
1/2+x,1/2+y,z
3/4-x,3/4-y,z
1/2+x,3/4-y,1/4-z
3/4-x,1/2+y,1/4-z
1/2-x,1/2-y,-z
1/4+x,1/4+y,-z
1/2-x,1/4+y,3/4+z
1/4+x,1/2-y,3/4+z
loop_
_atom_site_type_symbol
_atom_site_label
_atom_site_fract_x
_atom_site_fract_y
_atom_site_fract_z
Si Si1 0.049952 0.293142 0.787360
Si Si2 0.330859 0.439870 0.828106
Si Si3 0.375000 0.375000 0.581102
Si Si4 0.508618 0.266117 0.130143
Si Si5 0.918156 0.188823 0.554120
Si Si6 0.233393 0.777130 0.715760
O O1 0.041914 0.370133 0.785344
O O2 0.175224 0.276207 0.791904
O O3 0.000000 0.250000 0.750000
O O4 0.983657 0.277056 0.828684
O O5 0.375000 0.436578 0.875000
O O6 0.375000 0.375000 0.804894
O O7 0.202459 0.440408 0.822347
O O8 0.378125 0.506657 0.810253
O O9 0.419036 0.428834 0.613005
O O10 0.280766 0.403634 0.550589
O O11 0.625000 0.299964 0.125000
O O12 0.488224 0.218189 0.091477
O O13 0.941354 0.230736 0.513145
#
# Coordination Sequence:
#
# PCOD8286557 Si02
#       6
#    32  32  16  32  32  32
#     4  11  23  42  66  94 134 182 225 281 352 423
#     4  11  23  42  69  95 132 179 230 281 345 420
#     4  10  24  46  70  92 143 194 231 280 370 428
#     4  11  25  42  65 101 133 175 231 292 349 422
#     4  12  24  41  69 102 134 178 232 291 350 418
#     4  11  23  43  64  96 132 179 229 279 348 420
#
# _framework density 21.529011000000001
#
# number of rings (size 3 to 8) (size 9 to 14) (size 15 to 20)
#    0.000    0.909    1.818    6.545    2.545    5.091 
#    1.636    0.000    0.000    0.000    0.000    0.000 
#    0.000    0.000    0.000    0.000    0.000    0.000 
#
# Total GULP energy -545134.204324 kJ/mol
# GULP energy per Si atom -12389.413735 kJ/mol
# Density = 2.148001 g / cm^3
# Si number density = 21.529011 Si / 1000 Ang^3
#
#
#
# Elastic Constant Matrix: (Units=GPa)
#
#
# Indices 1 2 3 4 5 6 
#
# 1 117.0997 35.1219 44.6125 0.0000 0.0000 0.0000
# 2 35.1219 93.5647 52.7768 0.0000 0.0000 0.0000
# 3 44.6125 52.7768 147.0225 0.0000 0.0000 0.0000
# 4 0.0000 0.0000 0.0000 18.7472 0.0000 0.0000
# 5 0.0000 0.0000 0.0000 0.0000 41.4509 0.0000
# 6 0.0000 0.0000 0.0000 0.0000 0.0000 28.6369
#
#
#
# Elastic Compliance Matrix: (Units=1/GPa)
#
#
# Indices 1 2 3 4 5 6 
#
# 1 0.010135 -0.002595 -0.002144 0.000000 0.000000 0.000000
# 2 -0.002595 0.014066 -0.004262 0.000000 0.000000 0.000000
# 3 -0.002144 -0.004262 0.008982 0.000000 0.000000 0.000000
# 4 0.000000 0.000000 0.000000 0.053341 0.000000 0.000000
# 5 0.000000 0.000000 0.000000 0.000000 0.024125 0.000000
# 6 0.000000 0.000000 0.000000 0.000000 0.000000 0.034920
#
#
# Mechanical properties :
#
#
# Convention : Reuss Voigt Hill
#
# Bulk Modulus (GPa) = 65.86998 69.18991 67.52995
# Shear Modulus (GPa) = 29.65061 32.77872 31.21466
#
# Velocity S-wave (km/s) = 3.71514 3.90620 3.81187
# Velocity P-wave (km/s) = 7.00467 7.24930 7.12803
#
# Compressibility (1/GPa) = 0.01518142
#
# Stress axis : x y z
#
# Youngs Moduli (GPa) = 98.66979 71.09414 111.33351
#
# Poissons Ratio (x) = 0.18450 0.23867
# Poissons Ratio (y) = 0.25606 0.47448
# Poissons Ratio (z) = 0.21152 0.30299
#
# Static dielectric constant tensor:
#      x y z
#    x 3.989240 0.000000 0.000000 
#    y 0.000000 4.802950 0.000000 
#    z 0.000000 0.000000 3.863430 
# 
# 
# High freq. dielectric constant tensor:
#      x y z
#    x 1.853440 0.000000 0.000000 
#    y 0.000000 1.845570 0.000000 
#    z 0.000000 0.000000 1.850670 
# 
# From -- ./inp_files/64765.got.cif
#   From: 2010.03.12/outbox.cif.g09.slc.cpg/sg70_33_cif.got.tgz:64765.got - 2010.04.16 13:46:32.
