data_PCOD8286699
_publ_section_title
;
Structure prediction by ZEFSAII (Michael W. Deem and Ramdas Pophale) SiO2 
 PCOD8286699
Probable space group: F D D D
;
_chemical_formula_sum "Si O2"
_cell_formula_units_Z 136
_cell_length_a 19.637415
_cell_length_b 24.442516
_cell_length_c 12.017792
_cell_angle_alpha 90.000000
_cell_angle_beta 90.000000
_cell_angle_gamma 90.000000
_cell_volume 5768.393908
_symmetry_space_group_name_H-M "F D D D"
_symmetry_group_IT_number 70
_space_group.IT_coordinate_system_code '2'
_symmetry_cell_setting 'orthorhombic'
loop_
_space_group_symop_operation_xyz
x,y,z
1/4-x,1/4-y,z
x,1/4-y,1/4-z
1/4-x,y,1/4-z
-x,-y,-z
3/4+x,3/4+y,-z
-x,3/4+y,3/4+z
3/4+x,-y,3/4+z
x,1/2+y,1/2+z
1/4-x,3/4-y,1/2+z
x,3/4-y,3/4-z
1/4-x,1/2+y,3/4-z
-x,1/2-y,1/2-z
3/4+x,1/4+y,1/2-z
-x,1/4+y,1/4+z
3/4+x,1/2-y,1/4+z
1/2+x,y,1/2+z
3/4-x,1/4-y,1/2+z
1/2+x,1/4-y,3/4-z
3/4-x,y,3/4-z
1/2-x,-y,1/2-z
1/4+x,3/4+y,1/2-z
1/2-x,3/4+y,1/4+z
1/4+x,-y,1/4+z
1/2+x,1/2+y,z
3/4-x,3/4-y,z
1/2+x,3/4-y,1/4-z
3/4-x,1/2+y,1/4-z
1/2-x,1/2-y,-z
1/4+x,1/4+y,-z
1/2-x,1/4+y,3/4+z
1/4+x,1/2-y,3/4+z
loop_
_atom_site_type_symbol
_atom_site_label
_atom_site_fract_x
_atom_site_fract_y
_atom_site_fract_z
Si Si1 0.564787 0.787646 0.546228
Si Si2 0.992159 0.825268 0.459589
Si Si3 0.354860 0.183557 0.069991
Si Si4 0.516888 0.603486 0.950875
Si Si5 0.625000 0.125000 0.625000
O O1 0.625000 0.810625 0.625000
O O2 0.539804 0.729371 0.593988
O O3 0.592842 0.774449 0.421780
O O4 0.504466 0.832365 0.544198
O O5 0.981513 0.875000 0.375000
O O6 0.957157 0.840782 0.576650
O O7 0.071125 0.811701 0.483567
O O8 0.344360 0.125000 0.125000
O O9 0.296247 0.187584 0.976517
O O10 0.576397 0.590292 0.041317
#
# Coordination Sequence:
#
# PCOD8286699 Si02
#       5
#    32  32  32  32   8
#     4  11  23  42  69 100 142 187 232 284 345 415
#     4  11  25  41  70 106 137 188 233 283 351 415
#     4   9  19  43  67  96 131 183 237 274 347 411
#     4  11  23  47  69  99 142 182 227 295 343 422
#     4  12  24  44  74 104 140 172 226 290 360 400
#
# _framework density 23.576753
#
# number of rings (size 3 to 8) (size 9 to 14) (size 15 to 20)
#    0.000    1.412    3.529    4.941    0.000    8.941 
#    4.235    0.000    0.000    0.000    0.000    0.000 
#    0.000    0.000    0.000    0.000    0.000    0.000 
#
# Total GULP energy -421448.333518 kJ/mol
# GULP energy per Si atom -12395.539221 kJ/mol
# Density = 2.352309 g / cm^3
# Si number density = 23.576753 Si / 1000 Ang^3
#
#
#
# Elastic Constant Matrix: (Units=GPa)
#
#
# Indices 1 2 3 4 5 6 
#
# 1 90.9289 30.6978 34.6352 0.0000 0.0000 0.0000
# 2 30.6978 93.7227 19.6336 0.0000 0.0000 0.0000
# 3 34.6352 19.6336 139.3870 0.0000 0.0000 0.0000
# 4 0.0000 0.0000 0.0000 22.9002 0.0000 0.0000
# 5 0.0000 0.0000 0.0000 0.0000 42.3378 0.0000
# 6 0.0000 0.0000 0.0000 0.0000 0.0000 18.8120
#
#
#
# Elastic Compliance Matrix: (Units=1/GPa)
#
#
# Indices 1 2 3 4 5 6 
#
# 1 0.013334 -0.003785 -0.002780 0.000000 0.000000 0.000000
# 2 -0.003785 0.012069 -0.000759 0.000000 0.000000 0.000000
# 3 -0.002780 -0.000759 0.007972 0.000000 0.000000 0.000000
# 4 0.000000 0.000000 0.000000 0.043668 0.000000 0.000000
# 5 0.000000 0.000000 0.000000 0.000000 0.023620 0.000000
# 6 0.000000 0.000000 0.000000 0.000000 0.000000 0.053157
#
#
# Mechanical properties :
#
#
# Convention : Reuss Voigt Hill
#
# Bulk Modulus (GPa) = 53.40268 54.88576 54.14422
# Shear Modulus (GPa) = 28.61863 32.74815 30.68339
#
# Velocity S-wave (km/s) = 3.48781 3.73097 3.61144
# Velocity P-wave (km/s) = 6.23855 6.47228 6.35649
#
# Compressibility (1/GPa) = 0.01872565
#
# Stress axis : x y z
#
# Youngs Moduli (GPa) = 74.99367 82.85944 125.43791
#
# Poissons Ratio (x) = 0.31363 0.34874
# Poissons Ratio (y) = 0.28386 0.09526
# Poissons Ratio (z) = 0.20850 0.06292
#
# Static dielectric constant tensor:
#      x y z
#    x 4.275930 0.000000 0.000000 
#    y 0.000000 3.962030 0.000000 
#    z 0.000000 0.000000 4.496060 
# 
# 
# High freq. dielectric constant tensor:
#      x y z
#    x 1.925660 0.000000 0.000000 
#    y 0.000000 1.904680 0.000000 
#    z 0.000000 0.000000 1.944610 
# 
# From -- ./inp_files/17652.got.cif
#   From: 2010.03.12/outbox.cif.g09.slc.cpg/sg70_9_cif.got.tgz:17652.got - 2010.04.16 13:46:32.
