data_PCOD8286407
_publ_section_title
;
Structure prediction by ZEFSAII (Michael W. Deem and Ramdas Pophale) SiO2 
 PCOD8286407
Probable space group: F D D D
;
_chemical_formula_sum "Si O2"
_cell_formula_units_Z 216
_cell_length_a 19.575031
_cell_length_b 23.660747
_cell_length_c 24.147688
_cell_angle_alpha 90.000000
_cell_angle_beta 90.000000
_cell_angle_gamma 90.000000
_cell_volume 11184.239697
_symmetry_space_group_name_H-M "F D D D"
_symmetry_group_IT_number 70
_space_group.IT_coordinate_system_code '2'
_symmetry_cell_setting 'orthorhombic'
loop_
_space_group_symop_operation_xyz
x,y,z
1/4-x,1/4-y,z
x,1/4-y,1/4-z
1/4-x,y,1/4-z
-x,-y,-z
3/4+x,3/4+y,-z
-x,3/4+y,3/4+z
3/4+x,-y,3/4+z
x,1/2+y,1/2+z
1/4-x,3/4-y,1/2+z
x,3/4-y,3/4-z
1/4-x,1/2+y,3/4-z
-x,1/2-y,1/2-z
3/4+x,1/4+y,1/2-z
-x,1/4+y,1/4+z
3/4+x,1/2-y,1/4+z
1/2+x,y,1/2+z
3/4-x,1/4-y,1/2+z
1/2+x,1/4-y,3/4-z
3/4-x,y,3/4-z
1/2-x,-y,1/2-z
1/4+x,3/4+y,1/2-z
1/2-x,3/4+y,1/4+z
1/4+x,-y,1/4+z
1/2+x,1/2+y,z
3/4-x,3/4-y,z
1/2+x,3/4-y,1/4-z
3/4-x,1/2+y,1/4-z
1/2-x,1/2-y,-z
1/4+x,1/4+y,-z
1/2-x,1/4+y,3/4+z
1/4+x,1/2-y,3/4+z
loop_
_atom_site_type_symbol
_atom_site_label
_atom_site_fract_x
_atom_site_fract_y
_atom_site_fract_z
Si Si1 0.011406 0.884842 0.123843
Si Si2 0.125000 0.625000 0.934938
Si Si3 0.805516 0.308446 0.777141
Si Si4 0.676929 0.489930 0.174434
Si Si5 0.046052 0.112538 0.064451
Si Si6 0.413503 0.155186 0.982995
Si Si7 0.125000 0.125000 0.625000
Si Si8 0.050434 0.324399 0.516385
O O1 0.937844 0.863210 0.144158
O O2 0.013234 0.948608 0.098739
O O3 0.064567 0.882339 0.173466
O O4 0.038184 0.841637 0.079138
O O5 0.144993 0.574308 0.976128
O O6 0.728422 0.331548 0.771026
O O7 0.830791 0.333245 0.835903
O O8 0.806552 0.241992 0.770730
O O9 0.625000 0.508022 0.125000
O O10 0.714243 0.545709 0.198618
O O11 0.634549 0.460125 0.224092
O O12 0.125000 0.125000 0.061324
O O13 0.015165 0.125000 0.125000
O O14 0.011998 0.154664 0.020921
O O15 0.368737 0.104009 0.008860
#
# Coordination Sequence:
#
# PCOD8286407 Si02
#       8
#    32  16  32  32  32  32   8  32
#     4   9  20  36  62  86 114 156 208 245 304 363
#     4   9  20  41  58  88 115 154 199 258 308 360
#     4  10  22  43  65  86 126 156 205 258 314 372
#     4   9  16  34  58  78 119 161 191 241 288 358
#     4  11  22  34  54  87 126 167 202 235 303 367
#     4   9  20  40  61  88 118 162 201 250 310 364
#     4  10  24  44  68  92 120 160 204 260 316 372
#     4  11  23  38  62  92 121 162 206 255 303 371
#
# _framework density 19.312891
#
# number of rings (size 3 to 8) (size 9 to 14) (size 15 to 20)
#    0.000    2.222    1.481    2.222    7.259    2.370 
#    6.667    2.222    0.000    0.000    0.000    0.000 
#    0.000    0.000    0.000    0.000    0.000    0.000 
#
# Total GULP energy -669244.147896 kJ/mol
# GULP energy per Si atom -12393.410146 kJ/mol
# Density = 1.926893 g / cm^3
# Si number density = 19.312891 Si / 1000 Ang^3
#
#
#
# Elastic Constant Matrix: (Units=GPa)
#
#
# Indices 1 2 3 4 5 6 
#
# 1 96.1139 64.9118 43.0967 0.0000 0.0000 0.0000
# 2 64.9118 157.0445 46.5877 0.0000 0.0000 0.0000
# 3 43.0967 46.5877 67.3178 0.0000 0.0000 0.0000
# 4 0.0000 0.0000 0.0000 21.2389 0.0000 0.0000
# 5 0.0000 0.0000 0.0000 0.0000 21.0771 0.0000
# 6 0.0000 0.0000 0.0000 0.0000 0.0000 27.7309
#
#
#
# Elastic Compliance Matrix: (Units=1/GPa)
#
#
# Indices 1 2 3 4 5 6 
#
# 1 0.017048 -0.004793 -0.007597 0.000000 0.000000 0.000000
# 2 -0.004793 0.009360 -0.003409 0.000000 0.000000 0.000000
# 3 -0.007597 -0.003409 0.022078 0.000000 0.000000 0.000000
# 4 0.000000 0.000000 0.000000 0.047084 0.000000 0.000000
# 5 0.000000 0.000000 0.000000 0.000000 0.047445 0.000000
# 6 0.000000 0.000000 0.000000 0.000000 0.000000 0.036061
#
#
# Mechanical properties :
#
#
# Convention : Reuss Voigt Hill
#
# Bulk Modulus (GPa) = 59.21574 69.96319 64.58946
# Shear Modulus (GPa) = 23.11583 25.06804 24.09194
#
# Velocity S-wave (km/s) = 3.46340 3.60668 3.53576
# Velocity P-wave (km/s) = 6.83530 7.32455 7.08415
#
# Compressibility (1/GPa) = 0.01688740
#
# Stress axis : x y z
#
# Youngs Moduli (GPa) = 58.65949 106.83768 45.29399
#
# Poissons Ratio (x) = 0.51204 0.34410
# Poissons Ratio (y) = 0.28113 0.15442
# Poissons Ratio (z) = 0.44564 0.36425
#
# Static dielectric constant tensor:
#      x y z
#    x 3.859180 0.000000 0.000000 
#    y 0.000000 3.673490 0.000000 
#    z 0.000000 0.000000 3.577540 
# 
# 
# High freq. dielectric constant tensor:
#      x y z
#    x 1.748320 0.000000 0.000000 
#    y 0.000000 1.753100 0.000000 
#    z 0.000000 0.000000 1.744020 
# 
# From -- ./inp_files/60597.got.cif
#   From: 2010.03.12/outbox.cif.g09.slc.cpg/sg70_31_cif.got.tgz:60597.got - 2010.04.16 13:46:32.
