data_PCOD8286079
_publ_section_title
;
Structure prediction by ZEFSAII (Michael W. Deem and Ramdas Pophale) SiO2 
 PCOD8286079
Probable space group: F D D D
;
_chemical_formula_sum "Si O2"
_cell_formula_units_Z 160
_cell_length_a 17.102567
_cell_length_b 24.665976
_cell_length_c 16.766707
_cell_angle_alpha 90.000000
_cell_angle_beta 90.000000
_cell_angle_gamma 90.000000
_cell_volume 7073.060618
_symmetry_space_group_name_H-M "F D D D"
_symmetry_group_IT_number 70
_space_group.IT_coordinate_system_code '2'
_symmetry_cell_setting 'orthorhombic'
loop_
_space_group_symop_operation_xyz
x,y,z
1/4-x,1/4-y,z
x,1/4-y,1/4-z
1/4-x,y,1/4-z
-x,-y,-z
3/4+x,3/4+y,-z
-x,3/4+y,3/4+z
3/4+x,-y,3/4+z
x,1/2+y,1/2+z
1/4-x,3/4-y,1/2+z
x,3/4-y,3/4-z
1/4-x,1/2+y,3/4-z
-x,1/2-y,1/2-z
3/4+x,1/4+y,1/2-z
-x,1/4+y,1/4+z
3/4+x,1/2-y,1/4+z
1/2+x,y,1/2+z
3/4-x,1/4-y,1/2+z
1/2+x,1/4-y,3/4-z
3/4-x,y,3/4-z
1/2-x,-y,1/2-z
1/4+x,3/4+y,1/2-z
1/2-x,3/4+y,1/4+z
1/4+x,-y,1/4+z
1/2+x,1/2+y,z
3/4-x,3/4-y,z
1/2+x,3/4-y,1/4-z
3/4-x,1/2+y,1/4-z
1/2-x,1/2-y,-z
1/4+x,1/4+y,-z
1/2-x,1/4+y,3/4+z
1/4+x,1/2-y,3/4+z
loop_
_atom_site_type_symbol
_atom_site_label
_atom_site_fract_x
_atom_site_fract_y
_atom_site_fract_z
Si Si1 0.004742 0.534893 0.774628
Si Si2 0.927713 0.311057 0.227733
Si Si3 0.798916 0.198300 0.598172
Si Si4 0.289019 0.124901 0.865902
Si Si5 0.210349 0.340310 0.305847
O O1 0.084503 0.571423 0.766480
O O2 0.012611 0.472235 0.799618
O O3 0.958171 0.537697 0.691405
O O4 0.956996 0.564660 0.845369
O O5 0.931720 0.248168 0.208355
O O6 0.968093 0.326272 0.312587
O O7 0.970886 0.340423 0.155432
O O8 0.868449 0.156829 0.578745
O O9 0.375000 0.152619 0.875000
O O10 0.270386 0.124782 0.772455
O O11 0.254482 0.375000 0.375000
#
# Coordination Sequence:
#
# PCOD8286079 Si02
#       5
#    32  32  32  32  32
#     4  11  24  40  68 101 132 176 234 283 337 416
#     4  10  21  37  66  98 140 176 217 280 344 406
#     4  10  20  38  64 103 136 173 218 278 347 412
#     4  12  23  42  67  95 138 181 225 278 345 406
#     4  11  24  43  66  94 133 183 230 279 341 401
#
# _framework density 22.621041000000002
#
# number of rings (size 3 to 8) (size 9 to 14) (size 15 to 20)
#    0.000    1.200    4.000    2.400    0.000    0.800 
#    0.000    2.000    0.000    0.000    0.000    0.000 
#    0.000    0.000    0.000    0.000    0.000    0.000 
#
# Total GULP energy -495630.525306 kJ/mol
# GULP energy per Si atom -12390.763133 kJ/mol
# Density = 2.256955 g / cm^3
# Si number density = 22.621041 Si / 1000 Ang^3
#
#
#
# Elastic Constant Matrix: (Units=GPa)
#
#
# Indices 1 2 3 4 5 6 
#
# 1 51.6951 18.2267 14.6159 0.0000 0.0000 0.0000
# 2 18.2267 67.9917 60.8281 0.0000 0.0000 0.0000
# 3 14.6159 60.8281 177.3181 0.0000 0.0000 0.0000
# 4 0.0000 0.0000 0.0000 37.5672 0.0000 0.0000
# 5 0.0000 0.0000 0.0000 0.0000 27.2342 0.0000
# 6 0.0000 0.0000 0.0000 0.0000 0.0000 11.5230
#
#
#
# Elastic Compliance Matrix: (Units=1/GPa)
#
#
# Indices 1 2 3 4 5 6 
#
# 1 0.021374 -0.005993 0.000294 0.000000 0.000000 0.000000
# 2 -0.005993 0.022900 -0.007362 0.000000 0.000000 0.000000
# 3 0.000294 -0.007362 0.008141 0.000000 0.000000 0.000000
# 4 0.000000 0.000000 0.000000 0.026619 0.000000 0.000000
# 5 0.000000 0.000000 0.000000 0.000000 0.036719 0.000000
# 6 0.000000 0.000000 0.000000 0.000000 0.000000 0.086783
#
#
# Mechanical properties :
#
#
# Convention : Reuss Voigt Hill
#
# Bulk Modulus (GPa) = 38.03171 53.81624 45.92398
# Shear Modulus (GPa) = 21.05958 28.82050 24.94004
#
# Velocity S-wave (km/s) = 3.05450 3.57327 3.32402
# Velocity P-wave (km/s) = 5.41193 6.39268 5.92264
#
# Compressibility (1/GPa) = 0.02629385
#
# Stress axis : x y z
#
# Youngs Moduli (GPa) = 46.78573 43.66732 122.83785
#
# Poissons Ratio (x) = 0.26169 -0.03611
# Poissons Ratio (y) = 0.28038 0.90432
# Poissons Ratio (z) = -0.01375 0.32147
#
# Static dielectric constant tensor:
#      x y z
#    x 4.222840 0.000000 0.000000 
#    y 0.000000 4.209200 0.000000 
#    z 0.000000 0.000000 4.380990 
# 
# 
# High freq. dielectric constant tensor:
#      x y z
#    x 1.873090 0.000000 0.000000 
#    y 0.000000 1.902470 0.000000 
#    z 0.000000 0.000000 1.897820 
# 
# From -- ./inp_files/35096.got.cif
#   From: 2010.03.12/outbox.cif.g09.slc.cpg/sg70_18_cif.got.tgz:35096.got - 2010.04.16 13:46:32.
