data_PCOD8286152
_publ_section_title
;
Structure prediction by ZEFSAII (Michael W. Deem and Ramdas Pophale) SiO2 
 PCOD8286152
Probable space group: F D D D
;
_chemical_formula_sum "Si O2"
_cell_formula_units_Z 200
_cell_length_a 27.728320
_cell_length_b 12.151780
_cell_length_c 26.661689
_cell_angle_alpha 90.000000
_cell_angle_beta 90.000000
_cell_angle_gamma 90.000000
_cell_volume 8983.614634
_symmetry_space_group_name_H-M "F D D D"
_symmetry_group_IT_number 70
_space_group.IT_coordinate_system_code '2'
_symmetry_cell_setting 'orthorhombic'
loop_
_space_group_symop_operation_xyz
x,y,z
1/4-x,1/4-y,z
x,1/4-y,1/4-z
1/4-x,y,1/4-z
-x,-y,-z
3/4+x,3/4+y,-z
-x,3/4+y,3/4+z
3/4+x,-y,3/4+z
x,1/2+y,1/2+z
1/4-x,3/4-y,1/2+z
x,3/4-y,3/4-z
1/4-x,1/2+y,3/4-z
-x,1/2-y,1/2-z
3/4+x,1/4+y,1/2-z
-x,1/4+y,1/4+z
3/4+x,1/2-y,1/4+z
1/2+x,y,1/2+z
3/4-x,1/4-y,1/2+z
1/2+x,1/4-y,3/4-z
3/4-x,y,3/4-z
1/2-x,-y,1/2-z
1/4+x,3/4+y,1/2-z
1/2-x,3/4+y,1/4+z
1/4+x,-y,1/4+z
1/2+x,1/2+y,z
3/4-x,3/4-y,z
1/2+x,3/4-y,1/4-z
3/4-x,1/2+y,1/4-z
1/2-x,1/2-y,-z
1/4+x,1/4+y,-z
1/2-x,1/4+y,3/4+z
1/4+x,1/2-y,3/4+z
loop_
_atom_site_type_symbol
_atom_site_label
_atom_site_fract_x
_atom_site_fract_y
_atom_site_fract_z
Si Si1 0.906519 0.224063 0.792536
Si Si2 0.693249 0.403407 0.204434
Si Si3 0.321375 0.998216 0.118525
Si Si4 0.537586 0.607388 0.239932
Si Si5 0.279952 0.058236 0.406083
Si Si6 0.125000 0.125000 0.951700
Si Si7 0.125000 0.625000 0.125000
Si Si8 0.875000 0.875000 0.212712
O O1 0.854899 0.164687 0.783656
O O2 0.950838 0.140162 0.800206
O O3 0.909051 0.297563 0.842280
O O4 0.914405 0.310055 0.746823
O O5 0.696811 0.515174 0.235810
O O6 0.740590 0.336664 0.224526
O O7 0.689463 0.431059 0.144914
O O8 0.307106 0.125000 0.125000
O O9 0.274516 0.921017 0.111719
O O10 0.348559 0.966373 0.168772
O O11 0.353286 0.973665 0.070061
O O12 0.530955 0.560676 0.183630
O O13 0.585265 0.556377 0.266178
#
# Coordination Sequence:
#
# PCOD8286152 Si02
#       8
#    32  32  32  32  32  16   8  16
#     4  11  23  41  70  94 138 176 236 280 350 417
#     4  11  22  42  65 103 141 184 225 289 359 419
#     4  11  25  46  72  95 142 185 233 293 355 419
#     4  11  24  37  69 103 143 181 234 288 356 423
#     4  12  23  41  70 106 137 181 232 292 354 420
#     4  11  24  43  65  99 135 181 233 280 355 424
#     4  10  20  42  60  90 120 188 202 284 338 414
#     4  10  26  45  70  99 131 196 239 284 348 424
#
# _framework density 22.262754000000001
#
# number of rings (size 3 to 8) (size 9 to 14) (size 15 to 20)
#    0.000    0.960    3.200    3.360    6.720    0.640 
#    0.000    4.000    8.800    0.000    0.000    0.000 
#    0.000    0.000    0.000    0.000    0.000    0.000 
#
# Total GULP energy -619632.076556 kJ/mol
# GULP energy per Si atom -12392.641531 kJ/mol
# Density = 2.221208 g / cm^3
# Si number density = 22.262754 Si / 1000 Ang^3
#
#
#
# Elastic Constant Matrix: (Units=GPa)
#
#
# Indices 1 2 3 4 5 6 
#
# 1 113.4293 31.9045 31.8093 0.0000 0.0000 0.0000
# 2 31.9045 75.2555 24.9041 0.0000 0.0000 0.0000
# 3 31.8093 24.9041 125.1609 0.0000 0.0000 0.0000
# 4 0.0000 0.0000 0.0000 0.4290 0.0000 0.0000
# 5 0.0000 0.0000 0.0000 0.0000 37.3686 0.0000
# 6 0.0000 0.0000 0.0000 0.0000 0.0000 24.8996
#
#
#
# Elastic Compliance Matrix: (Units=1/GPa)
#
#
# Indices 1 2 3 4 5 6 
#
# 1 0.010412 -0.003788 -0.001893 0.000000 0.000000 0.000000
# 2 -0.003788 0.015603 -0.002142 0.000000 0.000000 0.000000
# 3 -0.001893 -0.002142 0.008897 0.000000 0.000000 0.000000
# 4 0.000000 0.000000 0.000000 2.331171 0.000000 0.000000
# 5 0.000000 0.000000 0.000000 0.000000 0.026760 0.000000
# 6 0.000000 0.000000 0.000000 0.000000 0.000000 0.040161
#
#
# Mechanical properties :
#
#
# Convention : Reuss Voigt Hill
#
# Bulk Modulus (GPa) = 51.90184 54.56461 53.23323
# Shear Modulus (GPa) = 2.03660 27.55461 14.79560
#
# Velocity S-wave (km/s) = 0.95749 3.52191 2.58076
# Velocity P-wave (km/s) = 4.95846 6.41101 5.73094
#
# Compressibility (1/GPa) = 0.01926714
#
# Stress axis : x y z
#
# Youngs Moduli (GPa) = 96.04084 64.09109 112.39891
#
# Poissons Ratio (x) = 0.24278 0.21272
# Poissons Ratio (y) = 0.36380 0.24075
# Poissons Ratio (z) = 0.18176 0.13728
#
# Static dielectric constant tensor:
#      x y z
#    x 3.987960 0.000000 0.000000 
#    y 0.000000 3.955190 0.000000 
#    z 0.000000 0.000000 4.244950 
# 
# 
# High freq. dielectric constant tensor:
#      x y z
#    x 1.864560 0.000000 0.000000 
#    y 0.000000 1.862230 0.000000 
#    z 0.000000 0.000000 1.898980 
# 
# From -- ./inp_files/61788.got.cif
#   From: 2010.03.12/outbox.cif.g09.slc.cpg/sg70_31_cif.got.tgz:61788.got - 2010.04.16 13:46:32.
