data_PCOD8286110
_publ_section_title
;
Structure prediction by ZEFSAII (Michael W. Deem and Ramdas Pophale) SiO2 
 PCOD8286110
Probable space group: F D D D
;
_chemical_formula_sum "Si O2"
_cell_formula_units_Z 176
_cell_length_a 17.146735
_cell_length_b 19.818957
_cell_length_c 25.578265
_cell_angle_alpha 90.000000
_cell_angle_beta 90.000000
_cell_angle_gamma 90.000000
_cell_volume 8692.272120
_symmetry_space_group_name_H-M "F D D D"
_symmetry_group_IT_number 70
_space_group.IT_coordinate_system_code '2'
_symmetry_cell_setting 'orthorhombic'
loop_
_space_group_symop_operation_xyz
x,y,z
1/4-x,1/4-y,z
x,1/4-y,1/4-z
1/4-x,y,1/4-z
-x,-y,-z
3/4+x,3/4+y,-z
-x,3/4+y,3/4+z
3/4+x,-y,3/4+z
x,1/2+y,1/2+z
1/4-x,3/4-y,1/2+z
x,3/4-y,3/4-z
1/4-x,1/2+y,3/4-z
-x,1/2-y,1/2-z
3/4+x,1/4+y,1/2-z
-x,1/4+y,1/4+z
3/4+x,1/2-y,1/4+z
1/2+x,y,1/2+z
3/4-x,1/4-y,1/2+z
1/2+x,1/4-y,3/4-z
3/4-x,y,3/4-z
1/2-x,-y,1/2-z
1/4+x,3/4+y,1/2-z
1/2-x,3/4+y,1/4+z
1/4+x,-y,1/4+z
1/2+x,1/2+y,z
3/4-x,3/4-y,z
1/2+x,3/4-y,1/4-z
3/4-x,1/2+y,1/4-z
1/2-x,1/2-y,-z
1/4+x,1/4+y,-z
1/2-x,1/4+y,3/4+z
1/4+x,1/2-y,3/4+z
loop_
_atom_site_type_symbol
_atom_site_label
_atom_site_fract_x
_atom_site_fract_y
_atom_site_fract_z
Si Si1 0.188235 0.375000 0.875000
Si Si2 0.875000 0.875000 0.748519
Si Si3 0.625000 0.975110 0.125000
Si Si4 0.146861 0.932976 0.779882
Si Si5 0.425521 0.440046 0.470169
Si Si6 0.461351 0.125162 0.443394
Si Si7 0.788025 0.271599 0.445238
O O1 0.132452 0.329835 0.838485
O O2 0.238670 0.322088 0.908781
O O3 0.799986 0.864124 0.712175
O O4 0.866544 0.939197 0.787598
O O5 0.556487 0.929733 0.149301
O O6 0.578640 0.019812 0.083907
O O7 0.236979 0.914121 0.770877
O O8 0.096288 0.885458 0.742188
O O9 0.141122 0.012702 0.766374
O O10 0.375000 0.375000 0.466663
O O11 0.446869 0.050606 0.417697
O O12 0.750000 0.250000 0.500000
#
# Coordination Sequence:
#
# PCOD8286110 Si02
#       7
#    16  16  16  32  32  32  32
#     4  12  22  41  67  98 128 178 218 264 337 385
#     4  10  20  39  64  88 134 174 216 261 328 382
#     4  10  23  40  66  99 124 170 220 270 334 391
#     4  10  23  43  64  94 131 162 218 272 323 394
#     4  10  23  44  66  95 125 167 218 269 332 393
#     4  10  22  44  62  93 134 170 207 278 324 384
#     4  10  22  41  61  95 129 172 220 262 323 397
#
# _framework density 20.247869999999999
#
# number of rings (size 3 to 8) (size 9 to 14) (size 15 to 20)
#    0.000    1.818    3.636    0.273    2.545    7.636 
#    9.818    0.000    0.000    0.000    0.000    0.000 
#    0.000    0.000    0.000    0.000    0.000    0.000 
#
# Total GULP energy -545289.767945 kJ/mol
# GULP energy per Si atom -12392.949271 kJ/mol
# Density = 2.020178 g / cm^3
# Si number density = 20.247870 Si / 1000 Ang^3
#
#
#
# Elastic Constant Matrix: (Units=GPa)
#
#
# Indices 1 2 3 4 5 6 
#
# 1 130.0101 80.4730 54.1294 0.0000 0.0000 0.0000
# 2 80.4730 160.5804 66.6702 0.0000 0.0000 0.0000
# 3 54.1294 66.6702 114.1398 0.0000 0.0000 0.0000
# 4 0.0000 0.0000 0.0000 25.2810 0.0000 0.0000
# 5 0.0000 0.0000 0.0000 0.0000 31.7124 0.0000
# 6 0.0000 0.0000 0.0000 0.0000 0.0000 30.5861
#
#
#
# Elastic Compliance Matrix: (Units=1/GPa)
#
#
# Indices 1 2 3 4 5 6 
#
# 1 0.011804 -0.004741 -0.002829 0.000000 0.000000 0.000000
# 2 -0.004741 0.010125 -0.003666 0.000000 0.000000 0.000000
# 3 -0.002829 -0.003666 0.012244 0.000000 0.000000 0.000000
# 4 0.000000 0.000000 0.000000 0.039555 0.000000 0.000000
# 5 0.000000 0.000000 0.000000 0.000000 0.031533 0.000000
# 6 0.000000 0.000000 0.000000 0.000000 0.000000 0.032695
#
#
# Mechanical properties :
#
#
# Convention : Reuss Voigt Hill
#
# Bulk Modulus (GPa) = 85.45479 89.69728 87.57604
# Shear Modulus (GPa) = 30.42687 31.07976 30.75331
#
# Velocity S-wave (km/s) = 3.88070 3.92211 3.90146
# Velocity P-wave (km/s) = 7.89783 8.05645 7.97753
#
# Compressibility (1/GPa) = 0.01170209
#
# Stress axis : x y z
#
# Youngs Moduli (GPa) = 84.71719 98.76187 81.67311
#
# Poissons Ratio (x) = 0.46823 0.23102
# Poissons Ratio (y) = 0.40165 0.29941
# Poissons Ratio (z) = 0.23963 0.36206
#
# Static dielectric constant tensor:
#      x y z
#    x 3.655460 0.000000 0.000000 
#    y 0.000000 4.411230 0.000000 
#    z 0.000000 0.000000 3.756470 
# 
# 
# High freq. dielectric constant tensor:
#      x y z
#    x 1.788710 0.000000 0.000000 
#    y 0.000000 1.806660 0.000000 
#    z 0.000000 0.000000 1.789260 
# 
# From -- ./inp_files/66687.got.cif
#   From: 2010.03.12/outbox.cif.g09.slc.cpg/sg70_34_cif.got.tgz:66687.got - 2010.04.16 13:46:32.
