data_PCOD8286938
_publ_section_title
;
Structure prediction by ZEFSAII (Michael W. Deem and Ramdas Pophale) SiO2 
 PCOD8286938
Probable space group: I M M M
;
_chemical_formula_sum "Si O2"
_cell_formula_units_Z 120
_cell_length_a 32.161716
_cell_length_b 13.832619
_cell_length_c 17.803245
_cell_angle_alpha 90.000000
_cell_angle_beta 90.000000
_cell_angle_gamma 90.000000
_cell_volume 7920.321234
_symmetry_space_group_name_H-M "I M M M"
_symmetry_group_IT_number 71
_symmetry_cell_setting 'orthorhombic'
loop_
_space_group_symop_operation_xyz
x,y,z
-x,-y,z
x,-y,-z
-x,y,-z
-x,-y,-z
x,y,-z
-x,y,z
x,-y,z
1/2+x,1/2+y,1/2+z
1/2-x,1/2-y,1/2+z
1/2+x,1/2-y,1/2-z
1/2-x,1/2+y,1/2-z
1/2-x,1/2-y,1/2-z
1/2+x,1/2+y,1/2-z
1/2-x,1/2+y,1/2+z
1/2+x,1/2-y,1/2+z
loop_
_atom_site_type_symbol
_atom_site_label
_atom_site_fract_x
_atom_site_fract_y
_atom_site_fract_z
Si Si1 0.608493 0.386662 0.085984
Si Si2 0.693023 0.294146 0.910497
Si Si3 0.275446 0.893519 0.588980
Si Si4 0.735315 0.894094 0.088882
Si Si5 0.546433 0.385692 0.787581
Si Si6 0.179177 0.795564 0.911620
Si Si7 0.597269 0.614952 0.356549
Si Si8 0.953891 0.885468 0.000000
O O1 0.617746 0.500000 0.093630
O O2 0.648721 0.331352 0.119182
O O3 0.568772 0.355072 0.134956
O O4 0.598933 0.358111 0.000000
O O5 0.730392 0.361159 0.878990
O O6 0.701292 0.183983 0.882413
O O7 0.693139 0.299457 0.000000
O O8 0.271787 0.896502 0.500000
O O9 0.310989 0.815916 0.610435
O O10 0.286847 0.000000 0.621056
O O11 0.781456 0.860620 0.111059
O O12 0.726153 0.000000 0.124248
O O13 0.732544 0.899567 0.000000
O O14 0.500000 0.340190 0.785961
O O15 0.542640 0.500000 0.781842
O O16 0.573658 0.348489 0.717744
O O17 0.141312 0.831618 0.860886
O O18 0.168755 0.806933 0.000000
O O19 0.604518 0.500000 0.357279
O O20 0.569811 0.650470 0.426358
O O21 0.000000 0.840125 0.000000
O O22 0.956868 0.000000 0.000000
#
# Coordination Sequence:
#
# PCOD8286938 Si02
#       8
#    16  16  16  16  16  16  16   8
#     4   9  16  26  42  61  79 101 132 167 198 233
#     4   8  13  21  35  57  80 103 133 165 195 233
#     4   8  13  21  34  53  80 109 136 170 203 227
#     4   8  13  20  32  52  82 113 137 163 193 227
#     4   9  18  30  41  56  80 107 131 158 199 248
#     4   9  15  22  34  56  81 107 142 171 192 225
#     4  10  17  25  38  55  80 109 134 163 195 235
#     4   9  16  24  36  54  75 103 133 161 196 232
#
# _framework density 15.150900999999999
#
# number of rings (size 3 to 8) (size 9 to 14) (size 15 to 20)
#    0.000    3.267    0.667    2.800    0.000    4.000 
#    0.000    1.333    0.000    3.200    0.000    2.800 
#    0.000    4.267    0.000    5.200    0.000    0.133 
#
# Total GULP energy -743551.210383 kJ/mol
# GULP energy per Si atom -12392.520173 kJ/mol
# Density = 1.511642 g / cm^3
# Si number density = 15.150901 Si / 1000 Ang^3
#
#
#
# Elastic Constant Matrix: (Units=GPa)
#
#
# Indices 1 2 3 4 5 6 
#
# 1 116.2235 42.5067 44.3056 0.0000 0.0000 0.0000
# 2 42.5067 83.9296 18.1623 0.0000 0.0000 0.0000
# 3 44.3056 18.1623 57.3051 0.0000 0.0000 0.0000
# 4 0.0000 0.0000 0.0000 6.3501 0.0000 0.0000
# 5 0.0000 0.0000 0.0000 0.0000 18.2070 0.0000
# 6 0.0000 0.0000 0.0000 0.0000 0.0000 18.5810
#
#
#
# Elastic Compliance Matrix: (Units=1/GPa)
#
#
# Indices 1 2 3 4 5 6 
#
# 1 0.013966 -0.005085 -0.009186 0.000000 0.000000 0.000000
# 2 -0.005085 0.014644 -0.000710 0.000000 0.000000 0.000000
# 3 -0.009186 -0.000710 0.024777 0.000000 0.000000 0.000000
# 4 0.000000 0.000000 0.000000 0.157478 0.000000 0.000000
# 5 0.000000 0.000000 0.000000 0.000000 0.054924 0.000000
# 6 0.000000 0.000000 0.000000 0.000000 0.000000 0.053819
#
#
# Mechanical properties :
#
#
# Convention : Reuss Voigt Hill
#
# Bulk Modulus (GPa) = 42.68844 51.93416 47.31130
# Shear Modulus (GPa) = 13.99080 18.79317 16.39198
#
# Velocity S-wave (km/s) = 3.04210 3.52575 3.29282
# Velocity P-wave (km/s) = 6.36991 7.13631 6.76398
#
# Compressibility (1/GPa) = 0.02342555
#
# Stress axis : x y z
#
# Youngs Moduli (GPa) = 71.60394 68.28857 40.35924
#
# Poissons Ratio (x) = 0.34726 0.37074
# Poissons Ratio (y) = 0.36412 0.02864
# Poissons Ratio (z) = 0.65775 0.04845
#
# Static dielectric constant tensor:
#      x y z
#    x 2.997210 0.000000 0.000000 
#    y 0.000000 3.081090 0.000000 
#    z 0.000000 0.000000 2.634440 
# 
# 
# High freq. dielectric constant tensor:
#      x y z
#    x 1.576300 0.000000 0.000000 
#    y 0.000000 1.546850 0.000000 
#    z 0.000000 0.000000 1.549850 
# 
# From -- ./inp_files/56506.got.cif
#   From: 2010.06.25/outbox.cif.g09.slc.cpg/sg71_29_cif.got.tgz:56506.got - 2010.06.28 04:59:45.
