data_PCOD8286113
_publ_section_title
;
Structure prediction by ZEFSAII (Michael W. Deem and Ramdas Pophale) SiO2 
 PCOD8286113
Probable space group: F D D D
;
_chemical_formula_sum "Si O2"
_cell_formula_units_Z 120
_cell_length_a 13.296611
_cell_length_b 16.216436
_cell_length_c 28.803600
_cell_angle_alpha 90.000000
_cell_angle_beta 90.000000
_cell_angle_gamma 90.000000
_cell_volume 6210.737115
_symmetry_space_group_name_H-M "F D D D"
_symmetry_group_IT_number 70
_space_group.IT_coordinate_system_code '2'
_symmetry_cell_setting 'orthorhombic'
loop_
_space_group_symop_operation_xyz
x,y,z
1/4-x,1/4-y,z
x,1/4-y,1/4-z
1/4-x,y,1/4-z
-x,-y,-z
3/4+x,3/4+y,-z
-x,3/4+y,3/4+z
3/4+x,-y,3/4+z
x,1/2+y,1/2+z
1/4-x,3/4-y,1/2+z
x,3/4-y,3/4-z
1/4-x,1/2+y,3/4-z
-x,1/2-y,1/2-z
3/4+x,1/4+y,1/2-z
-x,1/4+y,1/4+z
3/4+x,1/2-y,1/4+z
1/2+x,y,1/2+z
3/4-x,1/4-y,1/2+z
1/2+x,1/4-y,3/4-z
3/4-x,y,3/4-z
1/2-x,-y,1/2-z
1/4+x,3/4+y,1/2-z
1/2-x,3/4+y,1/4+z
1/4+x,-y,1/4+z
1/2+x,1/2+y,z
3/4-x,3/4-y,z
1/2+x,3/4-y,1/4-z
3/4-x,1/2+y,1/4-z
1/2-x,1/2-y,-z
1/4+x,1/4+y,-z
1/2-x,1/4+y,3/4+z
1/4+x,1/2-y,3/4+z
loop_
_atom_site_type_symbol
_atom_site_label
_atom_site_fract_x
_atom_site_fract_y
_atom_site_fract_z
Si Si1 0.164589 0.359043 0.176371
Si Si2 0.612497 0.221776 0.741692
Si Si3 0.375000 0.875000 0.875000
Si Si4 0.048058 0.737580 0.044405
Si Si5 0.875000 0.875000 0.215478
O O1 0.125000 0.358792 0.125000
O O2 0.153642 0.266961 0.195850
O O3 0.094011 0.421828 0.203728
O O4 0.279827 0.390457 0.181586
O O5 0.625000 0.125000 0.733531
O O6 0.500000 0.250000 0.750000
O O7 0.678948 0.252945 0.785457
O O8 0.441184 0.816069 0.908357
O O9 0.104788 0.701094 0.999696
#
# Coordination Sequence:
#
# PCOD8286113 Si02
#       5
#    32  32   8  32  16
#     4  11  22  39  62  92 125 164 211 266 318 376
#     4  11  23  42  65  88 128 175 213 252 323 402
#     4  10  20  40  64 100 120 148 220 280 316 356
#     4  10  20  39  65  92 124 165 210 266 323 376
#     4   9  22  37  62  90 126 162 212 259 318 385
#
# _framework density 19.321379
#
# number of rings (size 3 to 8) (size 9 to 14) (size 15 to 20)
#    0.000    1.600    4.000    0.800    0.000    2.667 
#    0.000    0.000    0.000    0.000    0.000    0.000 
#    0.000    0.000    0.000    0.000    0.000    0.000 
#
# Total GULP energy -371871.696585 kJ/mol
# GULP energy per Si atom -12395.723220 kJ/mol
# Density = 1.927740 g / cm^3
# Si number density = 19.321379 Si / 1000 Ang^3
#
#
#
# Elastic Constant Matrix: (Units=GPa)
#
#
# Indices 1 2 3 4 5 6 
#
# 1 181.6662 61.5363 76.3023 0.0000 0.0000 0.0000
# 2 61.5363 143.8707 52.0518 0.0000 0.0000 0.0000
# 3 76.3023 52.0518 123.7460 0.0000 0.0000 0.0000
# 4 0.0000 0.0000 0.0000 14.7357 0.0000 0.0000
# 5 0.0000 0.0000 0.0000 0.0000 28.7762 0.0000
# 6 0.0000 0.0000 0.0000 0.0000 0.0000 22.5563
#
#
#
# Elastic Compliance Matrix: (Units=1/GPa)
#
#
# Indices 1 2 3 4 5 6 
#
# 1 0.007842 -0.001893 -0.004039 0.000000 0.000000 0.000000
# 2 -0.001893 0.008655 -0.002474 0.000000 0.000000 0.000000
# 3 -0.004039 -0.002474 0.011612 0.000000 0.000000 0.000000
# 4 0.000000 0.000000 0.000000 0.067862 0.000000 0.000000
# 5 0.000000 0.000000 0.000000 0.000000 0.034751 0.000000
# 6 0.000000 0.000000 0.000000 0.000000 0.000000 0.044334
#
#
# Mechanical properties :
#
#
# Convention : Reuss Voigt Hill
#
# Bulk Modulus (GPa) = 88.50992 92.11821 90.31406
# Shear Modulus (GPa) = 25.55789 30.50648 28.03218
#
# Velocity S-wave (km/s) = 3.64095 3.97784 3.81312
# Velocity P-wave (km/s) = 7.97396 8.29928 8.13825
#
# Compressibility (1/GPa) = 0.01129817
#
# Stress axis : x y z
#
# Youngs Moduli (GPa) = 127.51184 115.53716 86.11592
#
# Poissons Ratio (x) = 0.21870 0.34786
# Poissons Ratio (y) = 0.24137 0.21301
# Poissons Ratio (z) = 0.51508 0.28578
#
# Static dielectric constant tensor:
#      x y z
#    x 3.736410 0.000000 0.000000 
#    y 0.000000 3.992830 0.000000 
#    z 0.000000 0.000000 3.449140 
# 
# 
# High freq. dielectric constant tensor:
#      x y z
#    x 1.759030 0.000000 0.000000 
#    y 0.000000 1.764870 0.000000 
#    z 0.000000 0.000000 1.741960 
# 
# From -- ./inp_files/20262.got.cif
#   From: 2010.03.12/outbox.cif.g09.slc.cpg/sg70_11_cif.got.tgz:20262.got - 2010.04.16 13:46:32.
