data_PCOD8286747
_publ_section_title
;
Structure prediction by ZEFSAII (Michael W. Deem and Ramdas Pophale) SiO2 
 PCOD8286747
Probable space group: F D D D
;
_chemical_formula_sum "Si O2"
_cell_formula_units_Z 168
_cell_length_a 18.169291
_cell_length_b 18.054254
_cell_length_c 23.413488
_cell_angle_alpha 90.000000
_cell_angle_beta 90.000000
_cell_angle_gamma 90.000000
_cell_volume 7680.396585
_symmetry_space_group_name_H-M "F D D D"
_symmetry_group_IT_number 70
_space_group.IT_coordinate_system_code '2'
_symmetry_cell_setting 'orthorhombic'
loop_
_space_group_symop_operation_xyz
x,y,z
1/4-x,1/4-y,z
x,1/4-y,1/4-z
1/4-x,y,1/4-z
-x,-y,-z
3/4+x,3/4+y,-z
-x,3/4+y,3/4+z
3/4+x,-y,3/4+z
x,1/2+y,1/2+z
1/4-x,3/4-y,1/2+z
x,3/4-y,3/4-z
1/4-x,1/2+y,3/4-z
-x,1/2-y,1/2-z
3/4+x,1/4+y,1/2-z
-x,1/4+y,1/4+z
3/4+x,1/2-y,1/4+z
1/2+x,y,1/2+z
3/4-x,1/4-y,1/2+z
1/2+x,1/4-y,3/4-z
3/4-x,y,3/4-z
1/2-x,-y,1/2-z
1/4+x,3/4+y,1/2-z
1/2-x,3/4+y,1/4+z
1/4+x,-y,1/4+z
1/2+x,1/2+y,z
3/4-x,3/4-y,z
1/2+x,3/4-y,1/4-z
3/4-x,1/2+y,1/4-z
1/2-x,1/2-y,-z
1/4+x,1/4+y,-z
1/2-x,1/4+y,3/4+z
1/4+x,1/2-y,3/4+z
loop_
_atom_site_type_symbol
_atom_site_label
_atom_site_fract_x
_atom_site_fract_y
_atom_site_fract_z
Si Si1 0.125000 0.125000 0.125000
Si Si2 0.375000 0.254585 0.375000
Si Si3 0.495380 0.875000 0.875000
Si Si4 0.684072 0.186772 0.394316
Si Si5 0.545226 0.840978 0.535941
Si Si6 0.860583 0.567664 0.535747
Si Si7 0.783946 0.758506 0.803565
O O1 0.176902 0.175612 0.163221
O O2 0.445025 0.304869 0.358069
O O3 0.393126 0.202084 0.428265
O O4 0.545331 0.855777 0.929195
O O5 0.625000 0.125000 0.375739
O O6 0.753723 0.152687 0.426933
O O7 0.643902 0.246680 0.433101
O O8 0.715160 0.225205 0.337472
O O9 0.575406 0.872526 0.475224
O O10 0.487069 0.782250 0.511457
O O11 0.841425 0.553814 0.467694
#
# Coordination Sequence:
#
# PCOD8286747 Si02
#       7
#     8  16  16  32  32  32  32
#     4  12  24  44  64 104 144 160 252 292 332 430
#     4  11  24  45  68  97 143 178 226 290 333 410
#     4  11  24  45  68  97 143 178 226 290 333 410
#     4  12  24  44  66 100 144 173 234 291 338 426
#     4  12  24  43  68  98 135 182 233 284 345 404
#     4  12  24  43  68  98 135 182 233 284 345 404
#     4  12  24  41  68  98 128 189 217 280 365 389
#
# _framework density 21.873871000000001
#
# number of rings (size 3 to 8) (size 9 to 14) (size 15 to 20)
#    0.000    0.190    3.810    6.286    0.000    2.286 
#    0.000    0.000    0.000    0.000    0.000    0.000 
#    0.000    0.000    0.000    0.000    0.000    0.000 
#
# Total GULP energy -520789.933480 kJ/mol
# GULP energy per Si atom -12399.760321 kJ/mol
# Density = 2.182408 g / cm^3
# Si number density = 21.873871 Si / 1000 Ang^3
#
#
#
# Elastic Constant Matrix: (Units=GPa)
#
#
# Indices 1 2 3 4 5 6 
#
# 1 110.0637 49.9463 50.8868 0.0000 0.0000 0.0000
# 2 49.9463 110.4211 51.4683 0.0000 0.0000 0.0000
# 3 50.8868 51.4683 116.4165 0.0000 0.0000 0.0000
# 4 0.0000 0.0000 0.0000 31.8347 0.0000 0.0000
# 5 0.0000 0.0000 0.0000 0.0000 38.8268 0.0000
# 6 0.0000 0.0000 0.0000 0.0000 0.0000 40.3546
#
#
#
# Elastic Compliance Matrix: (Units=1/GPa)
#
#
# Indices 1 2 3 4 5 6 
#
# 1 0.012622 -0.003952 -0.003770 0.000000 0.000000 0.000000
# 2 -0.003952 0.012644 -0.003863 0.000000 0.000000 0.000000
# 3 -0.003770 -0.003863 0.011945 0.000000 0.000000 0.000000
# 4 0.000000 0.000000 0.000000 0.031412 0.000000 0.000000
# 5 0.000000 0.000000 0.000000 0.000000 0.025755 0.000000
# 6 0.000000 0.000000 0.000000 0.000000 0.000000 0.024780
#
#
# Mechanical properties :
#
#
# Convention : Reuss Voigt Hill
#
# Bulk Modulus (GPa) = 71.21277 71.27824 71.24550
# Shear Modulus (GPa) = 34.01132 34.50989 34.26061
#
# Velocity S-wave (km/s) = 3.94748 3.97631 3.96192
# Velocity P-wave (km/s) = 7.30777 7.33063 7.31921
#
# Compressibility (1/GPa) = 0.01404243
#
# Stress axis : x y z
#
# Youngs Moduli (GPa) = 79.22611 79.08738 83.71397
#
# Poissons Ratio (x) = 0.31256 0.31560
# Poissons Ratio (y) = 0.31311 0.32335
# Poissons Ratio (z) = 0.29868 0.30548
#
# Static dielectric constant tensor:
#      x y z
#    x 4.141110 0.000000 0.000000 
#    y 0.000000 4.153200 0.000000 
#    z 0.000000 0.000000 3.743250 
# 
# 
# High freq. dielectric constant tensor:
#      x y z
#    x 1.880880 0.000000 0.000000 
#    y 0.000000 1.881020 0.000000 
#    z 0.000000 0.000000 1.858690 
# 
# From -- ./inp_files/52189.got.cif
#   From: 2010.03.12/outbox.cif.g09.slc.cpg/sg70_27_cif.got.tgz:52189.got - 2010.04.16 13:46:32.
