data_PCOD8286437
_publ_section_title
;
Structure prediction by ZEFSAII (Michael W. Deem and Ramdas Pophale) SiO2 
 PCOD8286437
Probable space group: F D D D
;
_chemical_formula_sum "Si O2"
_cell_formula_units_Z 176
_cell_length_a 13.571894
_cell_length_b 28.407116
_cell_length_c 21.490122
_cell_angle_alpha 90.000000
_cell_angle_beta 90.000000
_cell_angle_gamma 90.000000
_cell_volume 8285.266547
_symmetry_space_group_name_H-M "F D D D"
_symmetry_group_IT_number 70
_space_group.IT_coordinate_system_code '2'
_symmetry_cell_setting 'orthorhombic'
loop_
_space_group_symop_operation_xyz
x,y,z
1/4-x,1/4-y,z
x,1/4-y,1/4-z
1/4-x,y,1/4-z
-x,-y,-z
3/4+x,3/4+y,-z
-x,3/4+y,3/4+z
3/4+x,-y,3/4+z
x,1/2+y,1/2+z
1/4-x,3/4-y,1/2+z
x,3/4-y,3/4-z
1/4-x,1/2+y,3/4-z
-x,1/2-y,1/2-z
3/4+x,1/4+y,1/2-z
-x,1/4+y,1/4+z
3/4+x,1/2-y,1/4+z
1/2+x,y,1/2+z
3/4-x,1/4-y,1/2+z
1/2+x,1/4-y,3/4-z
3/4-x,y,3/4-z
1/2-x,-y,1/2-z
1/4+x,3/4+y,1/2-z
1/2-x,3/4+y,1/4+z
1/4+x,-y,1/4+z
1/2+x,1/2+y,z
3/4-x,3/4-y,z
1/2+x,3/4-y,1/4-z
3/4-x,1/2+y,1/4-z
1/2-x,1/2-y,-z
1/4+x,1/4+y,-z
1/2-x,1/4+y,3/4+z
1/4+x,1/2-y,3/4+z
loop_
_atom_site_type_symbol
_atom_site_label
_atom_site_fract_x
_atom_site_fract_y
_atom_site_fract_z
Si Si1 0.625000 0.522290 0.125000
Si Si2 0.299941 0.290805 0.149892
Si Si3 0.875000 0.875000 0.075229
Si Si4 0.372557 0.125000 0.125000
Si Si5 0.250640 0.922787 0.472704
Si Si6 0.156290 0.012384 0.523047
Si Si7 0.479914 0.721367 0.644643
O O1 0.532960 0.487666 0.111138
O O2 0.658437 0.554229 0.066583
O O3 0.311577 0.340774 0.118247
O O4 0.284993 0.297747 0.225021
O O5 0.397802 0.260065 0.153508
O O6 0.953333 0.846628 0.035272
O O7 0.300251 0.119762 0.065376
O O8 0.441028 0.170600 0.122800
O O9 0.164615 0.960388 0.489758
O O10 0.211076 0.008337 0.587303
O O11 0.045453 0.029535 0.541652
#
# Coordination Sequence:
#
# PCOD8286437 Si02
#       7
#    16  32  16  16  32  32  32
#     4  10  22  45  70  92 138 178 224 271 342 406
#     4  11  24  44  64 102 134 175 219 281 340 402
#     4  12  26  41  68 101 134 174 226 278 346 402
#     4  12  24  40  72 102 128 178 242 272 326 400
#     4  11  23  42  66 102 133 179 222 282 336 411
#     4  10  23  45  68  91 137 179 221 278 341 391
#     4  11  23  44  70  96 129 183 223 276 336 398
#
# _framework density 21.242526999999999
#
# number of rings (size 3 to 8) (size 9 to 14) (size 15 to 20)
#    0.000    1.091    5.455    1.636    0.000    6.545 
#    3.273    0.000    0.000    0.000    0.000    0.000 
#    0.000    0.000    0.000    0.000    0.000    0.000 
#
# Total GULP energy -545081.728157 kJ/mol
# GULP energy per Si atom -12388.221094 kJ/mol
# Density = 2.119418 g / cm^3
# Si number density = 21.242527 Si / 1000 Ang^3
#
#
#
# Elastic Constant Matrix: (Units=GPa)
#
#
# Indices 1 2 3 4 5 6 
#
# 1 97.7396 24.2850 32.8103 0.0000 0.0000 0.0000
# 2 24.2850 95.4557 46.8304 0.0000 0.0000 0.0000
# 3 32.8103 46.8304 117.5548 0.0000 0.0000 0.0000
# 4 0.0000 0.0000 0.0000 39.9392 0.0000 0.0000
# 5 0.0000 0.0000 0.0000 0.0000 18.5578 0.0000
# 6 0.0000 0.0000 0.0000 0.0000 0.0000 43.9852
#
#
#
# Elastic Compliance Matrix: (Units=1/GPa)
#
#
# Indices 1 2 3 4 5 6 
#
# 1 0.011502 -0.001679 -0.002541 0.000000 0.000000 0.000000
# 2 -0.001679 0.013266 -0.004816 0.000000 0.000000 0.000000
# 3 -0.002541 -0.004816 0.011134 0.000000 0.000000 0.000000
# 4 0.000000 0.000000 0.000000 0.025038 0.000000 0.000000
# 5 0.000000 0.000000 0.000000 0.000000 0.053886 0.000000
# 6 0.000000 0.000000 0.000000 0.000000 0.000000 0.022735
#
#
# Mechanical properties :
#
#
# Convention : Reuss Voigt Hill
#
# Bulk Modulus (GPa) = 56.08880 57.62238 56.85559
# Shear Modulus (GPa) = 30.94500 34.28475 32.61488
#
# Velocity S-wave (km/s) = 3.82088 4.02178 3.92261
# Velocity P-wave (km/s) = 6.77693 6.98220 6.88033
#
# Compressibility (1/GPa) = 0.01782887
#
# Stress axis : x y z
#
# Youngs Moduli (GPa) = 86.94456 75.38010 89.81099
#
# Poissons Ratio (x) = 0.12660 0.22822
# Poissons Ratio (y) = 0.14602 0.43254
# Poissons Ratio (z) = 0.22094 0.36304
#
# Static dielectric constant tensor:
#      x y z
#    x 4.204570 0.000000 0.000000 
#    y 0.000000 4.874510 0.000000 
#    z 0.000000 0.000000 4.477460 
# 
# 
# High freq. dielectric constant tensor:
#      x y z
#    x 1.840020 0.000000 0.000000 
#    y 0.000000 1.821060 0.000000 
#    z 0.000000 0.000000 1.849730 
# 
# From -- ./inp_files/51384.got.cif
#   From: 2010.03.12/outbox.cif.g09.slc.cpg/sg70_26_cif.got.tgz:51384.got - 2010.04.16 13:46:32.
