data_PCOD8286698
_publ_section_title
;
Structure prediction by ZEFSAII (Michael W. Deem and Ramdas Pophale) SiO2 
 PCOD8286698
Probable space group: F D D D
;
_chemical_formula_sum "Si O2"
_cell_formula_units_Z 160
_cell_length_a 7.505737
_cell_length_b 26.576060
_cell_length_c 35.200746
_cell_angle_alpha 90.000000
_cell_angle_beta 90.000000
_cell_angle_gamma 90.000000
_cell_volume 7021.595480
_symmetry_space_group_name_H-M "F D D D"
_symmetry_group_IT_number 70
_space_group.IT_coordinate_system_code '2'
_symmetry_cell_setting 'orthorhombic'
loop_
_space_group_symop_operation_xyz
x,y,z
1/4-x,1/4-y,z
x,1/4-y,1/4-z
1/4-x,y,1/4-z
-x,-y,-z
3/4+x,3/4+y,-z
-x,3/4+y,3/4+z
3/4+x,-y,3/4+z
x,1/2+y,1/2+z
1/4-x,3/4-y,1/2+z
x,3/4-y,3/4-z
1/4-x,1/2+y,3/4-z
-x,1/2-y,1/2-z
3/4+x,1/4+y,1/2-z
-x,1/4+y,1/4+z
3/4+x,1/2-y,1/4+z
1/2+x,y,1/2+z
3/4-x,1/4-y,1/2+z
1/2+x,1/4-y,3/4-z
3/4-x,y,3/4-z
1/2-x,-y,1/2-z
1/4+x,3/4+y,1/2-z
1/2-x,3/4+y,1/4+z
1/4+x,-y,1/4+z
1/2+x,1/2+y,z
3/4-x,3/4-y,z
1/2+x,3/4-y,1/4-z
3/4-x,1/2+y,1/4-z
1/2-x,1/2-y,-z
1/4+x,1/4+y,-z
1/2-x,1/4+y,3/4+z
1/4+x,1/2-y,3/4+z
loop_
_atom_site_type_symbol
_atom_site_label
_atom_site_fract_x
_atom_site_fract_y
_atom_site_fract_z
Si Si1 0.797338 0.820468 0.796380
Si Si2 0.933445 0.567150 0.118190
Si Si3 0.348226 0.042809 0.773638
Si Si4 0.625000 0.824707 0.125000
Si Si5 0.176753 0.001290 0.320663
Si Si6 0.625000 0.625000 0.817241
O O1 0.875000 0.875000 0.807839
O O2 0.648945 0.803656 0.827323
O O3 0.706006 0.828205 0.755479
O O4 0.930611 0.771898 0.790608
O O5 0.955782 0.625000 0.125000
O O6 0.815566 0.547799 0.152565
O O7 0.125000 0.540281 0.125000
O O8 0.198344 0.077944 0.792851
O O9 0.250000 0.000000 0.750000
O O10 0.488428 0.017166 0.802704
O O11 0.764708 0.794584 0.099457
O O12 0.534427 0.858943 0.093829
#
# Coordination Sequence:
#
# PCOD8286698 Si02
#       6
#    32  32  32  16  32  16
#     4  12  25  44  72 111 155 197 248 312 385 453
#     4  11  23  41  70 109 148 194 251 311 368 439
#     4  12  30  49  75 109 154 198 249 311 392 458
#     4  12  26  48  79 104 142 195 256 312 364 440
#     4  12  25  45  79 106 148 197 259 305 375 451
#     4  12  30  52  76 108 149 194 256 314 381 450
#
# _framework density 22.786843999999999
#
# number of rings (size 3 to 8) (size 9 to 14) (size 15 to 20)
#    0.000    0.200    4.000    4.200    8.400    1.600 
#    0.000    0.000    0.000    0.000    0.000    0.000 
#    0.000    0.000    0.000    0.000    0.000    0.000 
#
# Total GULP energy -495673.876539 kJ/mol
# GULP energy per Si atom -12391.846913 kJ/mol
# Density = 2.273498 g / cm^3
# Si number density = 22.786844 Si / 1000 Ang^3
#
#
#
# Elastic Constant Matrix: (Units=GPa)
#
#
# Indices 1 2 3 4 5 6 
#
# 1 102.7489 53.9166 53.3676 0.0000 0.0000 0.0000
# 2 53.9166 109.6710 52.4875 0.0000 0.0000 0.0000
# 3 53.3676 52.4875 131.5103 0.0000 0.0000 0.0000
# 4 0.0000 0.0000 0.0000 39.1787 0.0000 0.0000
# 5 0.0000 0.0000 0.0000 0.0000 57.0583 0.0000
# 6 0.0000 0.0000 0.0000 0.0000 0.0000 -223.5895
#
#
#
# Elastic Compliance Matrix: (Units=1/GPa)
#
#
# Indices 1 2 3 4 5 6 
#
# 1 0.014472 -0.005320 -0.003749 0.000000 0.000000 0.000000
# 2 -0.005320 0.013227 -0.003120 0.000000 0.000000 0.000000
# 3 -0.003749 -0.003120 0.010371 0.000000 0.000000 0.000000
# 4 0.000000 0.000000 0.000000 0.025524 0.000000 0.000000
# 5 0.000000 0.000000 0.000000 0.000000 0.017526 0.000000
# 6 0.000000 0.000000 0.000000 0.000000 0.000000 -0.004472
#
#
# Mechanical properties :
#
#
# Convention : Reuss Voigt Hill
#
# Bulk Modulus (GPa) = 73.04537 73.71930 73.38233
# Shear Modulus (GPa) = 47.35337 -13.19326 17.08006
#
# Velocity S-wave (km/s) = 4.56357 -2.40882 2.74078
# Velocity P-wave (km/s) = 7.73910 4.96844 6.50304
#
# Compressibility (1/GPa) = 0.01369012
#
# Stress axis : x y z
#
# Youngs Moduli (GPa) = 69.10117 75.60337 96.42530
#
# Poissons Ratio (x) = 0.40222 0.36153
# Poissons Ratio (y) = 0.36763 0.30086
# Poissons Ratio (z) = 0.25908 0.23589
#
# Static dielectric constant tensor:
#      x y z
#    x 4.252520 0.000000 0.000000 
#    y 0.000000 4.097080 0.000000 
#    z 0.000000 0.000000 4.247800 
# 
# 
# High freq. dielectric constant tensor:
#      x y z
#    x 1.913410 0.000000 0.000000 
#    y 0.000000 1.902560 0.000000 
#    z 0.000000 0.000000 1.911240 
# 
# From -- ./inp_files/63953.got.cif
#   From: 2010.03.12/outbox.cif.g09.slc.cpg/sg70_32_cif.got.tgz:63953.got - 2010.04.16 13:46:32.
