data_PCOD8286892
_publ_section_title
;
Structure prediction by ZEFSAII (Michael W. Deem and Ramdas Pophale) SiO2 
 PCOD8286892
Probable space group: I M M M
;
_chemical_formula_sum "Si O2"
_cell_formula_units_Z 120
_cell_length_a 26.285565
_cell_length_b 13.026069
_cell_length_c 21.731272
_cell_angle_alpha 90.000000
_cell_angle_beta 90.000000
_cell_angle_gamma 90.000000
_cell_volume 7440.735017
_symmetry_space_group_name_H-M "I M M M"
_symmetry_group_IT_number 71
_symmetry_cell_setting 'orthorhombic'
loop_
_space_group_symop_operation_xyz
x,y,z
-x,-y,z
x,-y,-z
-x,y,-z
-x,-y,-z
x,y,-z
-x,y,z
x,-y,z
1/2+x,1/2+y,1/2+z
1/2-x,1/2-y,1/2+z
1/2+x,1/2-y,1/2-z
1/2-x,1/2+y,1/2-z
1/2-x,1/2-y,1/2-z
1/2+x,1/2+y,1/2-z
1/2-x,1/2+y,1/2+z
1/2+x,1/2-y,1/2+z
loop_
_atom_site_type_symbol
_atom_site_label
_atom_site_fract_x
_atom_site_fract_y
_atom_site_fract_z
Si Si1 0.663624 0.387313 0.250199
Si Si2 0.500000 0.122147 0.068106
Si Si3 0.729601 0.120616 0.427758
Si Si4 0.057444 0.379768 0.222440
Si Si5 0.153039 0.699546 0.830350
Si Si6 0.222683 0.389331 0.728399
Si Si7 0.816190 0.766496 0.640621
Si Si8 0.904135 0.620919 0.641860
O O1 0.638728 0.500000 0.259504
O O2 0.652691 0.319927 0.311015
O O3 0.723795 0.396904 0.238213
O O4 0.647626 0.336746 0.185108
O O5 0.450676 0.163693 0.102418
O O6 0.500000 0.000000 0.068861
O O7 0.500000 0.167818 0.000000
O O8 0.721779 0.137556 0.500000
O O9 0.682208 0.178290 0.394505
O O10 0.784682 0.169172 0.409718
O O11 0.729716 0.000000 0.410628
O O12 0.052813 0.500000 0.213923
O O13 0.093525 0.334526 0.168042
O O14 0.084043 0.352146 0.287251
O O15 0.000000 0.332815 0.218737
O O16 0.179631 0.631197 0.778381
O O17 0.209332 0.500000 0.697402
O O18 0.225923 0.297235 0.679519
O O19 0.854925 0.680644 0.614799
O O20 0.895587 0.500000 0.632318
#
# Coordination Sequence:
#
# PCOD8286892 Si02
#       8
#    16   8  16  16  16  16  16  16
#     4  10  18  27  46  73  97 121 153 193 238 286
#     4   9  18  32  46  62  93 137 176 204 234 283
#     4  11  23  36  49  67  96 133 170 203 234 286
#     4  10  18  28  47  77 103 121 151 204 259 302
#     4  11  18  32  50  71  95 128 163 195 244 304
#     4  10  16  25  46  73  96 120 150 189 234 284
#     4  11  18  29  45  71  99 127 160 194 242 284
#     4  10  18  28  47  73 102 131 162 201 245 291
#
# _framework density 16.127438000000001
#
# number of rings (size 3 to 8) (size 9 to 14) (size 15 to 20)
#    0.000    1.667    6.000    2.800    0.000    0.533 
#    0.000    0.000    0.000    4.000    0.000    3.267 
#    0.000    3.200    0.000    1.200    0.000    0.133 
#
# Total GULP energy -743432.845515 kJ/mol
# GULP energy per Si atom -12390.547425 kJ/mol
# Density = 1.609073 g / cm^3
# Si number density = 16.127438 Si / 1000 Ang^3
#
#
#
# Elastic Constant Matrix: (Units=GPa)
#
#
# Indices 1 2 3 4 5 6 
#
# 1 84.4814 21.3321 31.6389 0.0000 0.0000 0.0000
# 2 21.3321 90.1025 29.8880 0.0000 0.0000 0.0000
# 3 31.6389 29.8880 73.3440 0.0000 0.0000 0.0000
# 4 0.0000 0.0000 0.0000 16.5347 0.0000 0.0000
# 5 0.0000 0.0000 0.0000 0.0000 16.5061 0.0000
# 6 0.0000 0.0000 0.0000 0.0000 0.0000 19.1042
#
#
#
# Elastic Compliance Matrix: (Units=1/GPa)
#
#
# Indices 1 2 3 4 5 6 
#
# 1 0.014302 -0.001549 -0.005538 0.000000 0.000000 0.000000
# 2 -0.001549 0.013001 -0.004630 0.000000 0.000000 0.000000
# 3 -0.005538 -0.004630 0.017910 0.000000 0.000000 0.000000
# 4 0.000000 0.000000 0.000000 0.060479 0.000000 0.000000
# 5 0.000000 0.000000 0.000000 0.000000 0.060584 0.000000
# 6 0.000000 0.000000 0.000000 0.000000 0.000000 0.052344
#
#
# Mechanical properties :
#
#
# Convention : Reuss Voigt Hill
#
# Bulk Modulus (GPa) = 45.91567 45.96064 45.93816
# Shear Modulus (GPa) = 20.05503 21.43361 20.74432
#
# Velocity S-wave (km/s) = 3.53020 3.64952 3.59036
# Velocity P-wave (km/s) = 6.71929 6.80580 6.76268
#
# Compressibility (1/GPa) = 0.02177906
#
# Stress axis : x y z
#
# Youngs Moduli (GPa) = 69.91919 76.91753 55.83417
#
# Poissons Ratio (x) = 0.11914 0.30923
# Poissons Ratio (y) = 0.10830 0.25850
# Poissons Ratio (z) = 0.38724 0.35611
#
# Static dielectric constant tensor:
#      x y z
#    x 3.114340 0.000000 0.000000 
#    y 0.000000 3.221790 0.000000 
#    z 0.000000 0.000000 2.841670 
# 
# 
# High freq. dielectric constant tensor:
#      x y z
#    x 1.610480 0.000000 0.000000 
#    y 0.000000 1.616730 0.000000 
#    z 0.000000 0.000000 1.578360 
# 
# From -- ./inp_files/56441.got.cif
#   From: 2010.06.25/outbox.cif.g09.slc.cpg/sg71_29_cif.got.tgz:56441.got - 2010.06.28 04:59:45.
