data_PCOD8286024
_publ_section_title
;
Structure prediction by ZEFSAII (Michael W. Deem and Ramdas Pophale) SiO2 
 PCOD8286024
Probable space group: F D D D
;
_chemical_formula_sum "Si O2"
_cell_formula_units_Z 192
_cell_length_a 18.858276
_cell_length_b 29.197752
_cell_length_c 17.447019
_cell_angle_alpha 90.000000
_cell_angle_beta 90.000000
_cell_angle_gamma 90.000000
_cell_volume 9606.664792
_symmetry_space_group_name_H-M "F D D D"
_symmetry_group_IT_number 70
_space_group.IT_coordinate_system_code '2'
_symmetry_cell_setting 'orthorhombic'
loop_
_space_group_symop_operation_xyz
x,y,z
1/4-x,1/4-y,z
x,1/4-y,1/4-z
1/4-x,y,1/4-z
-x,-y,-z
3/4+x,3/4+y,-z
-x,3/4+y,3/4+z
3/4+x,-y,3/4+z
x,1/2+y,1/2+z
1/4-x,3/4-y,1/2+z
x,3/4-y,3/4-z
1/4-x,1/2+y,3/4-z
-x,1/2-y,1/2-z
3/4+x,1/4+y,1/2-z
-x,1/4+y,1/4+z
3/4+x,1/2-y,1/4+z
1/2+x,y,1/2+z
3/4-x,1/4-y,1/2+z
1/2+x,1/4-y,3/4-z
3/4-x,y,3/4-z
1/2-x,-y,1/2-z
1/4+x,3/4+y,1/2-z
1/2-x,3/4+y,1/4+z
1/4+x,-y,1/4+z
1/2+x,1/2+y,z
3/4-x,3/4-y,z
1/2+x,3/4-y,1/4-z
3/4-x,1/2+y,1/4-z
1/2-x,1/2-y,-z
1/4+x,1/4+y,-z
1/2-x,1/4+y,3/4+z
1/4+x,1/2-y,3/4+z
loop_
_atom_site_type_symbol
_atom_site_label
_atom_site_fract_x
_atom_site_fract_y
_atom_site_fract_z
Si Si1 0.473523 0.743471 0.593863
Si Si2 0.112586 0.179199 0.336030
Si Si3 0.878265 0.694523 0.212347
Si Si4 0.740849 0.018054 0.930413
Si Si5 0.190581 0.698397 0.577751
Si Si6 0.375000 0.526850 0.375000
Si Si7 0.050982 0.375000 0.375000
O O1 0.436175 0.793667 0.601831
O O2 0.442960 0.709261 0.657653
O O3 0.463081 0.722359 0.507657
O O4 0.557448 0.745309 0.607763
O O5 0.125000 0.125000 0.327382
O O6 0.054249 0.187695 0.402876
O O7 0.080628 0.202546 0.260384
O O8 0.812910 0.728187 0.202040
O O9 0.898323 0.692538 0.302019
O O10 0.852011 0.644167 0.191048
O O11 0.790637 0.998679 0.862012
O O12 0.125000 0.677265 0.625000
O O13 0.255848 0.664064 0.584282
#
# Coordination Sequence:
#
# PCOD8286024 Si02
#       7
#    32  32  32  32  32  16  16
#     4  10  20  40  60  83 112 158 196 245 304 353
#     4  11  22  35  58  86 121 156 198 252 296 359
#     4   9  20  37  60  83 115 151 191 250 292 353
#     4   9  20  37  56  84 117 150 198 240 299 362
#     4  11  19  33  60  81 119 159 191 231 296 371
#     4  10  20  36  64  83 104 146 216 238 283 360
#     4  10  21  36  52  91 120 148 188 238 290 353
#
# _framework density 19.986124
#
# number of rings (size 3 to 8) (size 9 to 14) (size 15 to 20)
#    0.000    2.000    1.667    2.250    4.667    0.000 
#    3.000    0.000    1.833    0.000    0.000    0.000 
#    0.000    0.000    0.000    0.000    0.000    0.000 
#
# Total GULP energy -594939.004500 kJ/mol
# GULP energy per Si atom -12394.562594 kJ/mol
# Density = 1.994063 g / cm^3
# Si number density = 19.986124 Si / 1000 Ang^3
#
#
#
# Elastic Constant Matrix: (Units=GPa)
#
#
# Indices 1 2 3 4 5 6 
#
# 1 97.7499 39.2976 46.9593 0.0000 0.0000 0.0000
# 2 39.2976 59.3352 43.8493 0.0000 0.0000 0.0000
# 3 46.9593 43.8493 144.4748 0.0000 0.0000 0.0000
# 4 0.0000 0.0000 0.0000 7.3450 0.0000 0.0000
# 5 0.0000 0.0000 0.0000 0.0000 37.4106 0.0000
# 6 0.0000 0.0000 0.0000 0.0000 0.0000 20.8844
#
#
#
# Elastic Compliance Matrix: (Units=1/GPa)
#
#
# Indices 1 2 3 4 5 6 
#
# 1 0.014523 -0.007902 -0.002322 0.000000 0.000000 0.000000
# 2 -0.007902 0.026027 -0.005331 0.000000 0.000000 0.000000
# 3 -0.002322 -0.005331 0.009294 0.000000 0.000000 0.000000
# 4 0.000000 0.000000 0.000000 0.136148 0.000000 0.000000
# 5 0.000000 0.000000 0.000000 0.000000 0.026730 0.000000
# 6 0.000000 0.000000 0.000000 0.000000 0.000000 0.047883
#
#
# Mechanical properties :
#
#
# Convention : Reuss Voigt Hill
#
# Bulk Modulus (GPa) = 53.38063 62.41913 57.89988
# Shear Modulus (GPa) = 16.78085 24.55825 20.66955
#
# Velocity S-wave (km/s) = 2.90077 3.50918 3.21938
# Velocity P-wave (km/s) = 6.16329 6.90783 6.54615
#
# Compressibility (1/GPa) = 0.01873339
#
# Stress axis : x y z
#
# Youngs Moduli (GPa) = 68.85845 38.42228 107.59349
#
# Poissons Ratio (x) = 0.30363 0.24982
# Poissons Ratio (y) = 0.54414 0.57355
# Poissons Ratio (z) = 0.15988 0.20482
#
# Static dielectric constant tensor:
#      x y z
#    x 3.768950 0.000000 0.000000 
#    y 0.000000 3.225520 0.000000 
#    z 0.000000 0.000000 4.173870 
# 
# 
# High freq. dielectric constant tensor:
#      x y z
#    x 1.784510 0.000000 0.000000 
#    y 0.000000 1.736290 0.000000 
#    z 0.000000 0.000000 1.792360 
# 
# From -- ./inp_files/35517.got.cif
#   From: 2010.03.12/outbox.cif.g09.slc.cpg/sg70_18_cif.got.tgz:35517.got - 2010.04.16 13:46:32.
