data_PCOD8286214
_publ_section_title
;
Structure prediction by ZEFSAII (Michael W. Deem and Ramdas Pophale) SiO2 
 PCOD8286214
Probable space group: F D D D
;
_chemical_formula_sum "Si O2"
_cell_formula_units_Z 144
_cell_length_a 24.767744
_cell_length_b 26.903848
_cell_length_c 9.981525
_cell_angle_alpha 90.000000
_cell_angle_beta 90.000000
_cell_angle_gamma 90.000000
_cell_volume 6651.165427
_symmetry_space_group_name_H-M "F D D D"
_symmetry_group_IT_number 70
_space_group.IT_coordinate_system_code '2'
_symmetry_cell_setting 'orthorhombic'
loop_
_space_group_symop_operation_xyz
x,y,z
1/4-x,1/4-y,z
x,1/4-y,1/4-z
1/4-x,y,1/4-z
-x,-y,-z
3/4+x,3/4+y,-z
-x,3/4+y,3/4+z
3/4+x,-y,3/4+z
x,1/2+y,1/2+z
1/4-x,3/4-y,1/2+z
x,3/4-y,3/4-z
1/4-x,1/2+y,3/4-z
-x,1/2-y,1/2-z
3/4+x,1/4+y,1/2-z
-x,1/4+y,1/4+z
3/4+x,1/2-y,1/4+z
1/2+x,y,1/2+z
3/4-x,1/4-y,1/2+z
1/2+x,1/4-y,3/4-z
3/4-x,y,3/4-z
1/2-x,-y,1/2-z
1/4+x,3/4+y,1/2-z
1/2-x,3/4+y,1/4+z
1/4+x,-y,1/4+z
1/2+x,1/2+y,z
3/4-x,3/4-y,z
1/2+x,3/4-y,1/4-z
3/4-x,1/2+y,1/4-z
1/2-x,1/2-y,-z
1/4+x,1/4+y,-z
1/2-x,1/4+y,3/4+z
1/4+x,1/2-y,3/4+z
loop_
_atom_site_type_symbol
_atom_site_label
_atom_site_fract_x
_atom_site_fract_y
_atom_site_fract_z
Si Si1 0.031285 0.778510 0.483008
Si Si2 0.223758 0.074175 0.267470
Si Si3 0.375000 0.475786 0.875000
Si Si4 0.685585 0.375000 0.875000
Si Si5 0.983336 0.069329 0.265357
Si Si6 0.375000 0.600962 0.375000
O O1 0.090698 0.762892 0.532518
O O2 0.030869 0.823329 0.372331
O O3 0.992163 0.791826 0.607004
O O4 0.007631 0.729312 0.412551
O O5 0.163300 0.059955 0.217326
O O6 0.231203 0.132379 0.308685
O O7 0.264966 0.063686 0.145603
O O8 0.651312 0.365614 0.740625
O O9 0.921056 0.068529 0.306555
#
# Coordination Sequence:
#
# PCOD8286214 Si02
#       6
#    32  32  16  16  32  16
#     4  11  24  40  65  99 136 177 223 280 340 403
#     4  10  21  41  64 104 132 169 226 286 326 414
#     4  10  21  37  71 100 134 175 218 284 346 386
#     4  12  26  42  68  97 138 175 228 280 338 400
#     4  10  22  40  67  92 138 166 227 275 332 405
#     4  12  25  42  69 101 128 180 228 279 342 398
#
# _framework density 21.650341000000001
#
# number of rings (size 3 to 8) (size 9 to 14) (size 15 to 20)
#    0.000    1.333    2.222    4.667    6.222    8.000 
#    0.000    0.000    0.000    0.667    0.000    0.000 
#    0.000    0.000    0.000    0.000    0.000    0.000 
#
# Total GULP energy -446031.109841 kJ/mol
# GULP energy per Si atom -12389.753051 kJ/mol
# Density = 2.160106 g / cm^3
# Si number density = 21.650341 Si / 1000 Ang^3
#
#
#
# Elastic Constant Matrix: (Units=GPa)
#
#
# Indices 1 2 3 4 5 6 
#
# 1 129.9336 60.6008 26.1757 -0.0001 0.0007 0.0012
# 2 60.6008 196.3188 25.3605 -0.0010 0.0004 0.0010
# 3 26.1757 25.3605 59.2628 -0.0053 0.0035 0.0050
# 4 -0.0001 -0.0010 -0.0053 30.4539 0.0019 0.0025
# 5 0.0007 0.0004 0.0035 0.0019 24.7271 -0.0022
# 6 0.0012 0.0010 0.0050 0.0025 -0.0022 14.0990
#
#
#
# Elastic Compliance Matrix: (Units=1/GPa)
#
#
# Indices 1 2 3 4 5 6 
#
# 1 0.009504 -0.002532 -0.003115 -0.000001 0.000000 0.000000
# 2 -0.002532 0.006066 -0.001478 0.000000 0.000000 0.000000
# 3 -0.003115 -0.001478 0.018882 0.000003 -0.000003 -0.000006
# 4 -0.000001 0.000000 0.000003 0.032837 -0.000002 -0.000006
# 5 0.000000 0.000000 -0.000003 -0.000002 0.040442 0.000006
# 6 0.000000 0.000000 -0.000006 -0.000006 0.000006 0.070927
#
#
# Mechanical properties :
#
#
# Convention : Reuss Voigt Hill
#
# Bulk Modulus (GPa) = 49.49337 67.75435 58.62386
# Shear Modulus (GPa) = 25.04505 32.08120 28.56313
#
# Velocity S-wave (km/s) = 3.40486 3.85358 3.63615
# Velocity P-wave (km/s) = 6.19414 7.15282 6.69067
#
# Compressibility (1/GPa) = 0.02020473
#
# Stress axis : x y z
#
# Youngs Moduli (GPa) = 105.21447 164.85072 52.96030
#
# Poissons Ratio (x) = 0.41732 0.16495
# Poissons Ratio (y) = 0.26635 0.07826
# Poissons Ratio (z) = 0.32771 0.24361
#
# Static dielectric constant tensor:
#      x y z
#    x 3.885840 0.000000 0.000000 
#    y 0.000000 4.373660 0.000000 
#    z 0.000000 0.000000 3.745110 
# 
# 
# High freq. dielectric constant tensor:
#      x y z
#    x 1.834660 0.000000 0.000000 
#    y 0.000000 1.872390 0.000000 
#    z 0.000000 0.000000 1.826870 
# 
# From -- ./inp_files/19274.got.cif
#   From: 2010.03.12/outbox.cif.g09.slc.cpg/sg70_10_cif.got.tgz:19274.got - 2010.04.16 13:46:32.
