data_PCOD8286784
_publ_section_title
;
Structure prediction by ZEFSAII (Michael W. Deem and Ramdas Pophale) SiO2 
 PCOD8286784
Probable space group: F D D D
;
_chemical_formula_sum "Si O2"
_cell_formula_units_Z 160
_cell_length_a 15.536483
_cell_length_b 20.863029
_cell_length_c 22.667620
_cell_angle_alpha 90.000000
_cell_angle_beta 90.000000
_cell_angle_gamma 90.000000
_cell_volume 7347.439174
_symmetry_space_group_name_H-M "F D D D"
_symmetry_group_IT_number 70
_space_group.IT_coordinate_system_code '2'
_symmetry_cell_setting 'orthorhombic'
loop_
_space_group_symop_operation_xyz
x,y,z
1/4-x,1/4-y,z
x,1/4-y,1/4-z
1/4-x,y,1/4-z
-x,-y,-z
3/4+x,3/4+y,-z
-x,3/4+y,3/4+z
3/4+x,-y,3/4+z
x,1/2+y,1/2+z
1/4-x,3/4-y,1/2+z
x,3/4-y,3/4-z
1/4-x,1/2+y,3/4-z
-x,1/2-y,1/2-z
3/4+x,1/4+y,1/2-z
-x,1/4+y,1/4+z
3/4+x,1/2-y,1/4+z
1/2+x,y,1/2+z
3/4-x,1/4-y,1/2+z
1/2+x,1/4-y,3/4-z
3/4-x,y,3/4-z
1/2-x,-y,1/2-z
1/4+x,3/4+y,1/2-z
1/2-x,3/4+y,1/4+z
1/4+x,-y,1/4+z
1/2+x,1/2+y,z
3/4-x,3/4-y,z
1/2+x,3/4-y,1/4-z
3/4-x,1/2+y,1/4-z
1/2-x,1/2-y,-z
1/4+x,1/4+y,-z
1/2-x,1/4+y,3/4+z
1/4+x,1/2-y,3/4+z
loop_
_atom_site_type_symbol
_atom_site_label
_atom_site_fract_x
_atom_site_fract_y
_atom_site_fract_z
Si Si1 0.551694 0.216449 0.301473
Si Si2 0.988318 0.818302 0.536487
Si Si3 0.078590 0.759327 0.425723
Si Si4 0.125000 0.479228 0.625000
Si Si5 0.125000 0.125000 0.976724
Si Si6 0.242795 0.078503 0.177873
O O1 0.500000 0.250000 0.250000
O O2 0.655032 0.225215 0.300057
O O3 0.531635 0.142634 0.290439
O O4 0.527126 0.251094 0.363603
O O5 0.015777 0.791855 0.472708
O O6 0.060111 0.812049 0.586535
O O7 0.111256 0.687461 0.437539
O O8 0.158805 0.807781 0.425677
O O9 0.178439 0.518711 0.673344
O O10 0.213921 0.133927 0.013321
O O11 0.221765 0.125000 0.125000
#
# Coordination Sequence:
#
# PCOD8286784 Si02
#       6
#    32  32  32  16  16  32
#     4  11  28  51  68  99 145 190 249 302 347 438
#     4  11  26  46  73 105 143 187 240 301 361 435
#     4  12  27  43  75 104 143 196 238 297 376 433
#     4  12  21  44  72 112 146 179 222 298 376 428
#     4  12  23  42  66 114 148 173 230 302 368 448
#     4  12  23  41  69 109 148 179 227 292 365 445
#
# _framework density 21.776294
#
# number of rings (size 3 to 8) (size 9 to 14) (size 15 to 20)
#    0.000    0.400    6.000    1.800    2.800    2.400 
#    0.000    2.000    0.000    0.000    0.000    0.000 
#    0.000    0.000    0.000    0.000    0.000    0.000 
#
# Total GULP energy -495835.579810 kJ/mol
# GULP energy per Si atom -12395.889495 kJ/mol
# Density = 2.172673 g / cm^3
# Si number density = 21.776294 Si / 1000 Ang^3
#
#
#
# Elastic Constant Matrix: (Units=GPa)
#
#
# Indices 1 2 3 4 5 6 
#
# 1 97.6837 38.1564 59.8431 0.0000 0.0000 0.0000
# 2 38.1564 71.2220 43.8131 0.0000 0.0000 0.0000
# 3 59.8431 43.8131 155.4774 0.0000 0.0000 0.0000
# 4 0.0000 0.0000 0.0000 21.9173 0.0000 0.0000
# 5 0.0000 0.0000 0.0000 0.0000 -504.1831 0.0000
# 6 0.0000 0.0000 0.0000 0.0000 0.0000 32.4839
#
#
#
# Elastic Compliance Matrix: (Units=1/GPa)
#
#
# Indices 1 2 3 4 5 6 
#
# 1 0.014937 -0.005402 -0.004227 0.000000 0.000000 0.000000
# 2 -0.005402 0.018939 -0.003258 0.000000 0.000000 0.000000
# 3 -0.004227 -0.003258 0.008977 0.000000 0.000000 0.000000
# 4 0.000000 0.000000 0.000000 0.045626 0.000000 0.000000
# 5 0.000000 0.000000 0.000000 0.000000 -0.001983 0.000000
# 6 0.000000 0.000000 0.000000 0.000000 0.000000 0.030785
#
#
# Mechanical properties :
#
#
# Convention : Reuss Voigt Hill
#
# Bulk Modulus (GPa) = 58.55111 67.55649 63.05380
# Shear Modulus (GPa) = 33.61456 -77.78502 -22.08523
#
# Velocity S-wave (km/s) = 3.93317 -5.98311 -3.18809
# Velocity P-wave (km/s) = 6.89727 4.07919 3.93272
#
# Compressibility (1/GPa) = 0.01707909
#
# Stress axis : x y z
#
# Youngs Moduli (GPa) = 66.94939 52.80211 111.39936
#
# Poissons Ratio (x) = 0.28523 0.47087
# Poissons Ratio (y) = 0.36166 0.36290
# Poissons Ratio (z) = 0.28299 0.17201
#
# Static dielectric constant tensor:
#      x y z
#    x 4.213560 0.000000 0.000000 
#    y 0.000000 3.874480 0.000000 
#    z 0.000000 0.000000 3.611030 
# 
# 
# High freq. dielectric constant tensor:
#      x y z
#    x 1.856030 0.000000 0.000000 
#    y 0.000000 1.862810 0.000000 
#    z 0.000000 0.000000 1.867430 
# 
# From -- ./inp_files/43698.got.cif
#   From: 2010.03.12/outbox.cif.g09.slc.cpg/sg70_22_cif.got.tgz:43698.got - 2010.04.16 13:46:32.
