data_PCOD8286101
_publ_section_title
;
Structure prediction by ZEFSAII (Michael W. Deem and Ramdas Pophale) SiO2 
 PCOD8286101
Probable space group: F D D D
;
_chemical_formula_sum "Si O2"
_cell_formula_units_Z 160
_cell_length_a 23.253487
_cell_length_b 19.561697
_cell_length_c 17.354173
_cell_angle_alpha 90.000000
_cell_angle_beta 90.000000
_cell_angle_gamma 90.000000
_cell_volume 7894.025725
_symmetry_space_group_name_H-M "F D D D"
_symmetry_group_IT_number 70
_space_group.IT_coordinate_system_code '2'
_symmetry_cell_setting 'orthorhombic'
loop_
_space_group_symop_operation_xyz
x,y,z
1/4-x,1/4-y,z
x,1/4-y,1/4-z
1/4-x,y,1/4-z
-x,-y,-z
3/4+x,3/4+y,-z
-x,3/4+y,3/4+z
3/4+x,-y,3/4+z
x,1/2+y,1/2+z
1/4-x,3/4-y,1/2+z
x,3/4-y,3/4-z
1/4-x,1/2+y,3/4-z
-x,1/2-y,1/2-z
3/4+x,1/4+y,1/2-z
-x,1/4+y,1/4+z
3/4+x,1/2-y,1/4+z
1/2+x,y,1/2+z
3/4-x,1/4-y,1/2+z
1/2+x,1/4-y,3/4-z
3/4-x,y,3/4-z
1/2-x,-y,1/2-z
1/4+x,3/4+y,1/2-z
1/2-x,3/4+y,1/4+z
1/4+x,-y,1/4+z
1/2+x,1/2+y,z
3/4-x,3/4-y,z
1/2+x,3/4-y,1/4-z
3/4-x,1/2+y,1/4-z
1/2-x,1/2-y,-z
1/4+x,1/4+y,-z
1/2-x,1/4+y,3/4+z
1/4+x,1/2-y,3/4+z
loop_
_atom_site_type_symbol
_atom_site_label
_atom_site_fract_x
_atom_site_fract_y
_atom_site_fract_z
Si Si1 0.599759 0.730266 0.412851
Si Si2 0.295933 0.400291 0.107344
Si Si3 0.419264 0.186304 0.437275
Si Si4 0.303430 0.410404 0.794895
Si Si5 0.672918 0.802578 0.984272
O O1 0.663093 0.695646 0.412358
O O2 0.548519 0.677609 0.389810
O O3 0.580295 0.758258 0.494953
O O4 0.604376 0.790742 0.349803
O O5 0.231376 0.429346 0.104321
O O6 0.322758 0.394507 0.020695
O O7 0.375000 0.214953 0.375000
O O8 0.393425 0.114548 0.469374
O O9 0.319923 0.375000 0.875000
O O10 0.332696 0.484640 0.786573
O O11 0.236514 0.420456 0.781556
#
# Coordination Sequence:
#
# PCOD8286101 Si02
#       5
#    32  32  32  32  32
#     4  10  20  39  59  80 119 158 188 238 305 357
#     4   9  21  38  57  81 114 156 195 237 296 363
#     4  11  23  36  57  87 114 150 203 252 292 347
#     4   9  16  30  53  81 113 147 183 226 281 347
#     4   9  18  31  51  80 112 144 180 231 290 338
#
# _framework density 20.268491999999998
#
# number of rings (size 3 to 8) (size 9 to 14) (size 15 to 20)
#    0.000    2.400    0.000    4.200    0.000    4.000 
#    0.000    9.000    0.000    0.000    0.000    0.000 
#    0.000    0.000    0.000    0.000    0.000    0.000 
#
# Total GULP energy -495678.229209 kJ/mol
# GULP energy per Si atom -12391.955730 kJ/mol
# Density = 2.022236 g / cm^3
# Si number density = 20.268492 Si / 1000 Ang^3
#
#
#
# Elastic Constant Matrix: (Units=GPa)
#
#
# Indices 1 2 3 4 5 6 
#
# 1 96.7118 33.9102 40.9779 0.0000 0.0000 0.0000
# 2 33.9102 74.9408 47.6099 0.0000 0.0000 0.0000
# 3 40.9779 47.6099 120.7034 0.0000 0.0000 0.0000
# 4 0.0000 0.0000 0.0000 32.0370 0.0000 0.0000
# 5 0.0000 0.0000 0.0000 0.0000 23.7589 0.0000
# 6 0.0000 0.0000 0.0000 0.0000 0.0000 26.4224
#
#
#
# Elastic Compliance Matrix: (Units=1/GPa)
#
#
# Indices 1 2 3 4 5 6 
#
# 1 0.012955 -0.004094 -0.002783 0.000000 0.000000 0.000000
# 2 -0.004094 0.019099 -0.006144 0.000000 0.000000 0.000000
# 3 -0.002783 -0.006144 0.011653 0.000000 0.000000 0.000000
# 4 0.000000 0.000000 0.000000 0.031214 0.000000 0.000000
# 5 0.000000 0.000000 0.000000 0.000000 0.042090 0.000000
# 6 0.000000 0.000000 0.000000 0.000000 0.000000 0.037847
#
#
# Mechanical properties :
#
#
# Convention : Reuss Voigt Hill
#
# Bulk Modulus (GPa) = 56.60717 59.70576 58.15646
# Shear Modulus (GPa) = 26.76844 27.76752 27.26798
#
# Velocity S-wave (km/s) = 3.63808 3.70535 3.67186
# Velocity P-wave (km/s) = 6.75550 6.91574 6.83609
#
# Compressibility (1/GPa) = 0.01766561
#
# Stress axis : x y z
#
# Youngs Moduli (GPa) = 77.19204 52.35786 85.81482
#
# Poissons Ratio (x) = 0.21434 0.23885
# Poissons Ratio (y) = 0.31600 0.52722
# Poissons Ratio (z) = 0.21485 0.32167
#
# Static dielectric constant tensor:
#      x y z
#    x 3.462840 0.000000 0.000000 
#    y 0.000000 3.860210 0.000000 
#    z 0.000000 0.000000 3.581890 
# 
# 
# High freq. dielectric constant tensor:
#      x y z
#    x 1.776300 0.000000 0.000000 
#    y 0.000000 1.786060 0.000000 
#    z 0.000000 0.000000 1.780100 
# 
# From -- ./inp_files/38469.got.cif
#   From: 2010.03.12/outbox.cif.g09.slc.cpg/sg70_20_cif.got.tgz:38469.got - 2010.04.16 13:46:32.
