data_PCOD8286102
_publ_section_title
;
Structure prediction by ZEFSAII (Michael W. Deem and Ramdas Pophale) SiO2 
 PCOD8286102
Probable space group: F D D D
;
_chemical_formula_sum "Si O2"
_cell_formula_units_Z 64
_cell_length_a 25.819359
_cell_length_b 14.284034
_cell_length_c 7.024594
_cell_angle_alpha 90.000000
_cell_angle_beta 90.000000
_cell_angle_gamma 90.000000
_cell_volume 2590.702593
_symmetry_space_group_name_H-M "F D D D"
_symmetry_group_IT_number 70
_space_group.IT_coordinate_system_code '2'
_symmetry_cell_setting 'orthorhombic'
loop_
_space_group_symop_operation_xyz
x,y,z
1/4-x,1/4-y,z
x,1/4-y,1/4-z
1/4-x,y,1/4-z
-x,-y,-z
3/4+x,3/4+y,-z
-x,3/4+y,3/4+z
3/4+x,-y,3/4+z
x,1/2+y,1/2+z
1/4-x,3/4-y,1/2+z
x,3/4-y,3/4-z
1/4-x,1/2+y,3/4-z
-x,1/2-y,1/2-z
3/4+x,1/4+y,1/2-z
-x,1/4+y,1/4+z
3/4+x,1/2-y,1/4+z
1/2+x,y,1/2+z
3/4-x,1/4-y,1/2+z
1/2+x,1/4-y,3/4-z
3/4-x,y,3/4-z
1/2-x,-y,1/2-z
1/4+x,3/4+y,1/2-z
1/2-x,3/4+y,1/4+z
1/4+x,-y,1/4+z
1/2+x,1/2+y,z
3/4-x,3/4-y,z
1/2+x,3/4-y,1/4-z
3/4-x,1/2+y,1/4-z
1/2-x,1/2-y,-z
1/4+x,1/4+y,-z
1/2-x,1/4+y,3/4+z
1/4+x,1/2-y,3/4+z
loop_
_atom_site_type_symbol
_atom_site_label
_atom_site_fract_x
_atom_site_fract_y
_atom_site_fract_z
Si Si1 0.284846 0.874153 0.595833
Si Si2 0.682789 0.970669 0.126135
O O1 0.298381 0.875000 0.375000
O O2 0.302778 0.775516 0.682028
O O3 0.223373 0.885447 0.641845
O O4 0.315022 0.959340 0.694962
O O5 0.625000 0.928266 0.125000
#
# Coordination Sequence:
#
# PCOD8286102 Si02
#       2
#    32  32
#     4  10  20  39  60  85 122 159 201 249 301 361
#     4  10  22  39  60  89 126 156 199 255 300 357
#
# _framework density 24.703721999999999
#
# number of rings (size 3 to 8) (size 9 to 14) (size 15 to 20)
#    0.000    2.000    0.000    4.500    0.000    4.000 
#   18.000    0.000    0.000    0.000    0.000    0.000 
#    0.000    0.000    0.000    0.000    0.000    0.000 
#
# Total GULP energy -198431.257541 kJ/mol
# GULP energy per Si atom -12401.953596 kJ/mol
# Density = 2.464750 g / cm^3
# Si number density = 24.703722 Si / 1000 Ang^3
#
#
#
# Elastic Constant Matrix: (Units=GPa)
#
#
# Indices 1 2 3 4 5 6 
#
# 1 180.2581 4.6325 10.0587 0.0000 0.0000 0.0000
# 2 4.6325 22.5280 13.1015 0.0000 0.0000 0.0000
# 3 10.0587 13.1015 154.7770 0.0000 0.0000 0.0000
# 4 0.0000 0.0000 0.0000 10.3072 0.0000 0.0000
# 5 0.0000 0.0000 0.0000 0.0000 18.0820 0.0000
# 6 0.0000 0.0000 0.0000 0.0000 0.0000 15.0350
#
#
#
# Elastic Compliance Matrix: (Units=1/GPa)
#
#
# Indices 1 2 3 4 5 6 
#
# 1 0.005589 -0.000987 -0.000280 0.000000 0.000000 0.000000
# 2 -0.000987 0.046862 -0.003903 0.000000 0.000000 0.000000
# 3 -0.000280 -0.003903 0.006809 0.000000 0.000000 0.000000
# 4 0.000000 0.000000 0.000000 0.097020 0.000000 0.000000
# 5 0.000000 0.000000 0.000000 0.000000 0.055304 0.000000
# 6 0.000000 0.000000 0.000000 0.000000 0.000000 0.066511
#
#
# Mechanical properties :
#
#
# Convention : Reuss Voigt Hill
#
# Bulk Modulus (GPa) = 20.44073 45.90539 33.17306
# Shear Modulus (GPa) = 16.40747 30.66955 23.53851
#
# Velocity S-wave (km/s) = 2.57995 3.52731 3.09015
# Velocity P-wave (km/s) = 4.14332 5.93396 5.11757
#
# Compressibility (1/GPa) = 0.04892193
#
# Stress axis : x y z
#
# Youngs Moduli (GPa) = 178.93697 21.33944 146.85516
#
# Poissons Ratio (x) = 0.02105 0.04107
# Poissons Ratio (y) = 0.17653 0.57312
# Poissons Ratio (z) = 0.05005 0.08328
#
# Static dielectric constant tensor:
#      x y z
#    x 4.448950 0.000000 0.000000 
#    y 0.000000 4.125530 0.000000 
#    z 0.000000 0.000000 4.587540 
# 
# 
# High freq. dielectric constant tensor:
#      x y z
#    x 1.978780 0.000000 0.000000 
#    y 0.000000 1.955350 0.000000 
#    z 0.000000 0.000000 1.997180 
# 
# From -- ./inp_files/1563.got.cif
#   From: 2010.03.12/outbox.cif.g09.slc.cpg/sg70_1_cif.got.tgz:1563.got - 2010.04.16 13:46:32.
