data_PCOD8286392
_publ_section_title
;
Structure prediction by ZEFSAII (Michael W. Deem and Ramdas Pophale) SiO2 
 PCOD8286392
Probable space group: F D D D
;
_chemical_formula_sum "Si O2"
_cell_formula_units_Z 208
_cell_length_a 20.522136
_cell_length_b 29.234204
_cell_length_c 17.158423
_cell_angle_alpha 90.000000
_cell_angle_beta 90.000000
_cell_angle_gamma 90.000000
_cell_volume 10294.166887
_symmetry_space_group_name_H-M "F D D D"
_symmetry_group_IT_number 70
_space_group.IT_coordinate_system_code '2'
_symmetry_cell_setting 'orthorhombic'
loop_
_space_group_symop_operation_xyz
x,y,z
1/4-x,1/4-y,z
x,1/4-y,1/4-z
1/4-x,y,1/4-z
-x,-y,-z
3/4+x,3/4+y,-z
-x,3/4+y,3/4+z
3/4+x,-y,3/4+z
x,1/2+y,1/2+z
1/4-x,3/4-y,1/2+z
x,3/4-y,3/4-z
1/4-x,1/2+y,3/4-z
-x,1/2-y,1/2-z
3/4+x,1/4+y,1/2-z
-x,1/4+y,1/4+z
3/4+x,1/2-y,1/4+z
1/2+x,y,1/2+z
3/4-x,1/4-y,1/2+z
1/2+x,1/4-y,3/4-z
3/4-x,y,3/4-z
1/2-x,-y,1/2-z
1/4+x,3/4+y,1/2-z
1/2-x,3/4+y,1/4+z
1/4+x,-y,1/4+z
1/2+x,1/2+y,z
3/4-x,3/4-y,z
1/2+x,3/4-y,1/4-z
3/4-x,1/2+y,1/4-z
1/2-x,1/2-y,-z
1/4+x,1/4+y,-z
1/2-x,1/4+y,3/4+z
1/4+x,1/2-y,3/4+z
loop_
_atom_site_type_symbol
_atom_site_label
_atom_site_fract_x
_atom_site_fract_y
_atom_site_fract_z
Si Si1 0.489113 0.875000 0.375000
Si Si2 0.625000 0.388519 0.125000
Si Si3 0.569194 0.223223 0.825045
Si Si4 0.388837 0.320888 0.221683
Si Si5 0.945425 0.685307 0.745580
Si Si6 0.267124 0.064512 0.867837
Si Si7 0.125000 0.737489 0.125000
Si Si8 0.082765 0.580987 0.747670
O O1 0.530051 0.858774 0.301271
O O2 0.442093 0.914785 0.341207
O O3 0.634872 0.419748 0.201765
O O4 0.687306 0.358070 0.104177
O O5 0.593666 0.202441 0.905906
O O6 0.571390 0.278318 0.822459
O O7 0.497747 0.204528 0.806885
O O8 0.617591 0.210902 0.753661
O O9 0.375000 0.375000 0.227633
O O10 0.464868 0.311928 0.202371
O O11 0.370867 0.295763 0.301166
O O12 0.309984 0.018391 0.871188
O O13 0.229371 0.072467 0.948001
O O14 0.125000 0.625000 0.776301
#
# Coordination Sequence:
#
# PCOD8286392 Si02
#       8
#    16  16  32  32  32  32  16  32
#     4  12  23  36  66  96 128 160 217 264 302 400
#     4  11  20  42  61  90 132 182 205 268 320 383
#     4  10  23  40  61  94 128 169 206 267 316 400
#     4  11  23  45  69  91 129 168 222 262 327 388
#     4  11  24  38  61  95 134 165 215 256 331 375
#     4  10  22  41  68  91 130 168 216 257 331 377
#     4  11  25  42  69  98 122 170 217 290 305 381
#     4  11  20  39  63  95 122 172 207 254 323 387
#
# _framework density 20.205617
#
# number of rings (size 3 to 8) (size 9 to 14) (size 15 to 20)
#    0.000    1.231    3.077    3.692    2.154    2.462 
#    8.308    0.000    0.000    0.000    0.000    0.000 
#    0.000    0.000    0.000    0.000    0.000    0.000 
#
# Total GULP energy -644599.435605 kJ/mol
# GULP energy per Si atom -12396.142992 kJ/mol
# Density = 2.015963 g / cm^3
# Si number density = 20.205617 Si / 1000 Ang^3
#
#
#
# Elastic Constant Matrix: (Units=GPa)
#
#
# Indices 1 2 3 4 5 6 
#
# 1 100.2882 43.9475 29.9645 0.0000 0.0000 0.0000
# 2 43.9475 115.0584 52.0220 0.0000 0.0000 0.0000
# 3 29.9645 52.0220 100.2270 0.0000 0.0000 0.0000
# 4 0.0000 0.0000 0.0000 28.1421 0.0000 0.0000
# 5 0.0000 0.0000 0.0000 0.0000 26.3405 0.0000
# 6 0.0000 0.0000 0.0000 0.0000 0.0000 15.2974
#
#
#
# Elastic Compliance Matrix: (Units=1/GPa)
#
#
# Indices 1 2 3 4 5 6 
#
# 1 0.012169 -0.003924 -0.001601 0.000000 0.000000 0.000000
# 2 -0.003924 0.012622 -0.005378 0.000000 0.000000 0.000000
# 3 -0.001601 -0.005378 0.013248 0.000000 0.000000 0.000000
# 4 0.000000 0.000000 0.000000 0.035534 0.000000 0.000000
# 5 0.000000 0.000000 0.000000 0.000000 0.037964 0.000000
# 6 0.000000 0.000000 0.000000 0.000000 0.000000 0.065371
#
#
# Mechanical properties :
#
#
# Convention : Reuss Voigt Hill
#
# Bulk Modulus (GPa) = 61.60882 63.04906 62.32894
# Shear Modulus (GPa) = 24.49476 26.59862 25.54669
#
# Velocity S-wave (km/s) = 3.48555 3.63216 3.55961
# Velocity P-wave (km/s) = 6.83783 6.99010 6.91438
#
# Compressibility (1/GPa) = 0.01623144
#
# Stress axis : x y z
#
# Youngs Moduli (GPa) = 82.17365 79.22883 75.48576
#
# Poissons Ratio (x) = 0.31090 0.12089
# Poissons Ratio (y) = 0.32246 0.40596
# Poissons Ratio (z) = 0.13160 0.42609
#
# Static dielectric constant tensor:
#      x y z
#    x 3.897780 0.000000 0.000000 
#    y 0.000000 3.894790 0.000000 
#    z 0.000000 0.000000 3.557150 
# 
# 
# High freq. dielectric constant tensor:
#      x y z
#    x 1.795840 0.000000 0.000000 
#    y 0.000000 1.793480 0.000000 
#    z 0.000000 0.000000 1.782500 
# 
# From -- ./inp_files/36915.got.cif
#   From: 2010.03.12/outbox.cif.g09.slc.cpg/sg70_19_cif.got.tgz:36915.got - 2010.04.16 13:46:32.
