data_PCOD8286906
_publ_section_title
;
Structure prediction by ZEFSAII (Michael W. Deem and Ramdas Pophale) SiO2 
 PCOD8286906
Probable space group: I M M M
;
_chemical_formula_sum "Si O2"
_cell_formula_units_Z 96
_cell_length_a 17.936022
_cell_length_b 20.238849
_cell_length_c 16.441021
_cell_angle_alpha 90.000000
_cell_angle_beta 90.000000
_cell_angle_gamma 90.000000
_cell_volume 5968.163636
_symmetry_space_group_name_H-M "I M M M"
_symmetry_group_IT_number 71
_symmetry_cell_setting 'orthorhombic'
loop_
_space_group_symop_operation_xyz
x,y,z
-x,-y,z
x,-y,-z
-x,y,-z
-x,-y,-z
x,y,-z
-x,y,z
x,-y,z
1/2+x,1/2+y,1/2+z
1/2-x,1/2-y,1/2+z
1/2+x,1/2-y,1/2-z
1/2-x,1/2+y,1/2-z
1/2-x,1/2-y,1/2-z
1/2+x,1/2+y,1/2-z
1/2-x,1/2+y,1/2+z
1/2+x,1/2-y,1/2+z
loop_
_atom_site_type_symbol
_atom_site_label
_atom_site_fract_x
_atom_site_fract_y
_atom_site_fract_z
Si Si1 0.086685 0.222630 0.404906
Si Si2 0.085668 0.210427 0.000000
Si Si3 0.418167 0.629053 0.767695
Si Si4 0.189619 0.301157 0.713855
Si Si5 0.148215 0.927393 0.000000
Si Si6 0.917027 0.737573 0.835099
Si Si7 0.284171 0.573274 0.325757
O O1 0.105793 0.215319 0.500000
O O2 0.098128 0.150995 0.361229
O O3 0.144839 0.274624 0.365137
O O4 0.000000 0.245676 0.392383
O O5 0.088185 0.130937 0.000000
O O6 0.122626 0.243329 0.079459
O O7 0.000000 0.229364 0.000000
O O8 0.500000 0.595297 0.760633
O O9 0.417603 0.696532 0.717700
O O10 0.357307 0.579767 0.731202
O O11 0.250000 0.250000 0.750000
O O12 0.132092 0.315965 0.787624
O O13 0.224106 0.371590 0.694445
O O14 0.198598 0.919225 0.920693
O O15 0.108985 0.000000 0.000000
O O16 0.000000 0.709249 0.847327
O O17 0.251581 0.500000 0.308924
#
# Coordination Sequence:
#
# PCOD8286906 Si02
#       7
#    16   8  16  16   8  16  16
#     4   9  18  32  53  78  99 125 166 212 252 291
#     4  10  16  27  46  72  99 121 151 193 233 278
#     4   9  16  31  49  69  98 129 161 198 238 289
#     4  11  18  32  50  73  97 128 164 204 249 290
#     4  10  20  31  40  62 101 137 161 180 218 287
#     4   9  17  29  48  71  96 123 157 199 238 283
#     4  11  22  33  46  70 102 134 166 198 238 289
#
# _framework density 16.085349999999998
#
# number of rings (size 3 to 8) (size 9 to 14) (size 15 to 20)
#    0.000    2.167    5.000    1.500    1.167    0.500 
#    1.500    1.667    0.000    2.500    0.000    3.500 
#    0.000    2.000    0.000    0.000    0.000    0.000 
#
# Total GULP energy -594691.524100 kJ/mol
# GULP energy per Si atom -12389.406752 kJ/mol
# Density = 1.604874 g / cm^3
# Si number density = 16.085350 Si / 1000 Ang^3
#
#
#
# Elastic Constant Matrix: (Units=GPa)
#
#
# Indices 1 2 3 4 5 6 
#
# 1 73.5303 39.9216 48.9860 0.0000 0.0000 0.0000
# 2 39.9216 74.8662 47.9966 0.0000 0.0000 0.0000
# 3 48.9860 47.9966 139.2079 0.0000 0.0000 0.0000
# 4 0.0000 0.0000 0.0000 14.3609 0.0000 0.0000
# 5 0.0000 0.0000 0.0000 0.0000 21.4448 0.0000
# 6 0.0000 0.0000 0.0000 0.0000 0.0000 23.7372
#
#
#
# Elastic Compliance Matrix: (Units=1/GPa)
#
#
# Indices 1 2 3 4 5 6 
#
# 1 0.021188 -0.008368 -0.004571 0.000000 0.000000 0.000000
# 2 -0.008368 0.020452 -0.004107 0.000000 0.000000 0.000000
# 3 -0.004571 -0.004107 0.010208 0.000000 0.000000 0.000000
# 4 0.000000 0.000000 0.000000 0.069633 0.000000 0.000000
# 5 0.000000 0.000000 0.000000 0.000000 0.046631 0.000000
# 6 0.000000 0.000000 0.000000 0.000000 0.000000 0.042128
#
#
# Mechanical properties :
#
#
# Convention : Reuss Voigt Hill
#
# Bulk Modulus (GPa) = 56.31641 62.37921 59.34781
# Shear Modulus (GPa) = 19.97989 21.95525 20.96757
#
# Velocity S-wave (km/s) = 3.52819 3.69849 3.61435
# Velocity P-wave (km/s) = 7.18919 7.55664 7.37521
#
# Compressibility (1/GPa) = 0.01775681
#
# Stress axis : x y z
#
# Youngs Moduli (GPa) = 47.19621 48.89426 97.96312
#
# Poissons Ratio (x) = 0.40915 0.44777
# Poissons Ratio (y) = 0.39494 0.40233
# Poissons Ratio (z) = 0.21572 0.20081
#
# Static dielectric constant tensor:
#      x y z
#    x 3.268040 0.000000 0.000000 
#    y 0.000000 2.803130 0.000000 
#    z 0.000000 0.000000 3.593080 
# 
# 
# High freq. dielectric constant tensor:
#      x y z
#    x 1.611870 0.000000 0.000000 
#    y 0.000000 1.571730 0.000000 
#    z 0.000000 0.000000 1.634800 
# 
# From -- ./inp_files/46316.got.cif
#   From: 2010.06.25/outbox.cif.g09.slc.cpg/sg71_24_cif.got.tgz:46316.got - 2010.06.28 04:59:45.
