data_PCOD8286780
_publ_section_title
;
Structure prediction by ZEFSAII (Michael W. Deem and Ramdas Pophale) SiO2 
 PCOD8286780
Probable space group: F D D D
;
_chemical_formula_sum "Si O2"
_cell_formula_units_Z 112
_cell_length_a 31.733924
_cell_length_b 14.974262
_cell_length_c 10.321744
_cell_angle_alpha 90.000000
_cell_angle_beta 90.000000
_cell_angle_gamma 90.000000
_cell_volume 4904.811127
_symmetry_space_group_name_H-M "F D D D"
_symmetry_group_IT_number 70
_space_group.IT_coordinate_system_code '2'
_symmetry_cell_setting 'orthorhombic'
loop_
_space_group_symop_operation_xyz
x,y,z
1/4-x,1/4-y,z
x,1/4-y,1/4-z
1/4-x,y,1/4-z
-x,-y,-z
3/4+x,3/4+y,-z
-x,3/4+y,3/4+z
3/4+x,-y,3/4+z
x,1/2+y,1/2+z
1/4-x,3/4-y,1/2+z
x,3/4-y,3/4-z
1/4-x,1/2+y,3/4-z
-x,1/2-y,1/2-z
3/4+x,1/4+y,1/2-z
-x,1/4+y,1/4+z
3/4+x,1/2-y,1/4+z
1/2+x,y,1/2+z
3/4-x,1/4-y,1/2+z
1/2+x,1/4-y,3/4-z
3/4-x,y,3/4-z
1/2-x,-y,1/2-z
1/4+x,3/4+y,1/2-z
1/2-x,3/4+y,1/4+z
1/4+x,-y,1/4+z
1/2+x,1/2+y,z
3/4-x,3/4-y,z
1/2+x,3/4-y,1/4-z
3/4-x,1/2+y,1/4-z
1/2-x,1/2-y,-z
1/4+x,1/4+y,-z
1/2-x,1/4+y,3/4+z
1/4+x,1/2-y,3/4+z
loop_
_atom_site_type_symbol
_atom_site_label
_atom_site_fract_x
_atom_site_fract_y
_atom_site_fract_z
Si Si1 0.859579 0.690910 0.012802
Si Si2 0.125000 0.125000 0.870437
Si Si3 0.461655 0.325586 0.500197
Si Si4 0.020303 0.375167 0.237626
O O1 0.876235 0.625000 0.125000
O O2 0.879056 0.788467 0.038103
O O3 0.875000 0.654110 0.875000
O O4 0.808648 0.695069 0.010243
O O5 0.165515 0.135854 0.779009
O O6 0.480632 0.375000 0.375000
O O7 0.491901 0.342204 0.621493
O O8 0.459530 0.221935 0.461362
O O9 0.994601 0.375000 0.375000
#
# Coordination Sequence:
#
# PCOD8286780 Si02
#       4
#    32  16  32  32
#     4  11  26  46  74 106 150 194 247 305 367 439
#     4  12  26  46  72 112 148 198 248 302 370 444
#     4  12  27  46  77 109 150 191 249 305 377 434
#     4  11  25  49  71 110 148 197 238 310 362 454
#
# _framework density 22.834720999999998
#
# number of rings (size 3 to 8) (size 9 to 14) (size 15 to 20)
#    0.000    0.571    5.714    2.571    8.000    1.143 
#    0.000    0.000    0.000    0.000    0.000    0.000 
#    0.000    0.000    0.000    0.000    0.000    0.000 
#
# Total GULP energy -347257.422833 kJ/mol
# GULP energy per Si atom -12402.050815 kJ/mol
# Density = 2.278275 g / cm^3
# Si number density = 22.834721 Si / 1000 Ang^3
#
#
#
# Elastic Constant Matrix: (Units=GPa)
#
#
# Indices 1 2 3 4 5 6 
#
# 1 60.1438 32.2182 1.2772 0.0000 0.0000 0.0000
# 2 32.2182 151.6162 29.0194 0.0000 0.0000 0.0000
# 3 1.2772 29.0194 131.5258 0.0000 0.0000 0.0000
# 4 0.0000 0.0000 0.0000 34.6006 0.0000 0.0000
# 5 0.0000 0.0000 0.0000 0.0000 27.7598 0.0000
# 6 0.0000 0.0000 0.0000 0.0000 0.0000 35.4050
#
#
#
# Elastic Compliance Matrix: (Units=1/GPa)
#
#
# Indices 1 2 3 4 5 6 
#
# 1 0.018830 -0.004141 0.000731 0.000000 0.000000 0.000000
# 2 -0.004141 0.007797 -0.001680 0.000000 0.000000 0.000000
# 3 0.000731 -0.001680 0.007967 0.000000 0.000000 0.000000
# 4 0.000000 0.000000 0.000000 0.028901 0.000000 0.000000
# 5 0.000000 0.000000 0.000000 0.000000 0.036023 0.000000
# 6 0.000000 0.000000 0.000000 0.000000 0.000000 0.028245
#
#
# Mechanical properties :
#
#
# Convention : Reuss Voigt Hill
#
# Bulk Modulus (GPa) = 40.96244 52.03505 46.49875
# Shear Modulus (GPa) = 34.22756 38.27114 36.24935
#
# Velocity S-wave (km/s) = 3.87580 4.09835 3.98862
# Velocity P-wave (km/s) = 6.16496 6.72551 6.45132
#
# Compressibility (1/GPa) = 0.02441261
#
# Stress axis : x y z
#
# Youngs Moduli (GPa) = 53.10776 128.25172 125.52290
#
# Poissons Ratio (x) = 0.53111 -0.09174
# Poissons Ratio (y) = 0.21993 0.21089
# Poissons Ratio (z) = -0.03881 0.21548
#
# Static dielectric constant tensor:
#      x y z
#    x 3.835570 0.000000 0.000000 
#    y 0.000000 4.279190 0.000000 
#    z 0.000000 0.000000 4.403070 
# 
# 
# High freq. dielectric constant tensor:
#      x y z
#    x 1.880300 0.000000 0.000000 
#    y 0.000000 1.917200 0.000000 
#    z 0.000000 0.000000 1.922020 
# 
# From -- ./inp_files/15055.got.cif
#   From: 2010.03.12/outbox.cif.g09.slc.cpg/sg70_8_cif.got.tgz:15055.got - 2010.04.16 13:46:32.
