data_PCOD8286394
_publ_section_title
;
Structure prediction by ZEFSAII (Michael W. Deem and Ramdas Pophale) SiO2 
 PCOD8286394
Probable space group: F D D D
;
_chemical_formula_sum "Si O2"
_cell_formula_units_Z 160
_cell_length_a 10.631764
_cell_length_b 26.436684
_cell_length_c 24.919003
_cell_angle_alpha 90.000000
_cell_angle_beta 90.000000
_cell_angle_gamma 90.000000
_cell_volume 7003.948919
_symmetry_space_group_name_H-M "F D D D"
_symmetry_group_IT_number 70
_space_group.IT_coordinate_system_code '2'
_symmetry_cell_setting 'orthorhombic'
loop_
_space_group_symop_operation_xyz
x,y,z
1/4-x,1/4-y,z
x,1/4-y,1/4-z
1/4-x,y,1/4-z
-x,-y,-z
3/4+x,3/4+y,-z
-x,3/4+y,3/4+z
3/4+x,-y,3/4+z
x,1/2+y,1/2+z
1/4-x,3/4-y,1/2+z
x,3/4-y,3/4-z
1/4-x,1/2+y,3/4-z
-x,1/2-y,1/2-z
3/4+x,1/4+y,1/2-z
-x,1/4+y,1/4+z
3/4+x,1/2-y,1/4+z
1/2+x,y,1/2+z
3/4-x,1/4-y,1/2+z
1/2+x,1/4-y,3/4-z
3/4-x,y,3/4-z
1/2-x,-y,1/2-z
1/4+x,3/4+y,1/2-z
1/2-x,3/4+y,1/4+z
1/4+x,-y,1/4+z
1/2+x,1/2+y,z
3/4-x,3/4-y,z
1/2+x,3/4-y,1/4-z
3/4-x,1/2+y,1/4-z
1/2-x,1/2-y,-z
1/4+x,1/4+y,-z
1/2-x,1/4+y,3/4+z
1/4+x,1/2-y,3/4+z
loop_
_atom_site_type_symbol
_atom_site_label
_atom_site_fract_x
_atom_site_fract_y
_atom_site_fract_z
Si Si1 0.951684 0.691448 0.691980
Si Si2 0.235469 0.666429 0.857217
Si Si3 0.683904 0.218191 0.750628
Si Si4 0.872941 0.513136 0.665901
Si Si5 0.504741 0.389335 0.436350
O O1 0.895708 0.740798 0.718734
O O2 0.946815 0.703170 0.628542
O O3 0.873979 0.641527 0.709572
O O4 0.093643 0.683938 0.712798
O O5 0.125000 0.625000 0.864363
O O6 0.375000 0.646546 0.875000
O O7 0.248770 0.682123 0.794930
O O8 0.196461 0.713771 0.894241
O O9 0.780614 0.249311 0.713486
O O10 0.769819 0.550428 0.692456
O O11 0.488568 0.375000 0.375000
O O12 0.375000 0.375000 0.467115
#
# Coordination Sequence:
#
# PCOD8286394 Si02
#       5
#    32  32  32  32  32
#     4   9  20  38  63 102 137 175 220 290 349 409
#     4  11  28  49  71  98 143 188 237 294 355 422
#     4  10  22  41  68  98 137 181 232 279 349 424
#     4  10  22  41  70  99 136 178 229 288 348 418
#     4   9  19  35  62  94 133 170 220 288 349 404
#
# _framework density 22.844255
#
# number of rings (size 3 to 8) (size 9 to 14) (size 15 to 20)
#    0.000    2.200    0.000    0.600   11.200    5.600 
#    0.000    3.000    0.000    0.000    0.000    0.000 
#    0.000    0.000    0.000    0.000    0.000    0.000 
#
# Total GULP energy -495731.232423 kJ/mol
# GULP energy per Si atom -12393.280811 kJ/mol
# Density = 2.279226 g / cm^3
# Si number density = 22.844255 Si / 1000 Ang^3
#
#
#
# Elastic Constant Matrix: (Units=GPa)
#
#
# Indices 1 2 3 4 5 6 
#
# 1 137.4123 33.1686 49.4675 0.0000 0.0000 0.0000
# 2 33.1686 96.0847 9.2734 0.0000 0.0000 0.0000
# 3 49.4675 9.2734 68.7311 0.0000 0.0000 0.0000
# 4 0.0000 0.0000 0.0000 -6.9324 0.0000 0.0000
# 5 0.0000 0.0000 0.0000 0.0000 18.7466 0.0000
# 6 0.0000 0.0000 0.0000 0.0000 0.0000 28.4293
#
#
#
# Elastic Compliance Matrix: (Units=1/GPa)
#
#
# Indices 1 2 3 4 5 6 
#
# 1 0.010592 -0.002959 -0.007224 0.000000 0.000000 0.000000
# 2 -0.002959 0.011372 0.000596 0.000000 0.000000 0.000000
# 3 -0.007224 0.000596 0.019669 0.000000 0.000000 0.000000
# 4 0.000000 0.000000 0.000000 -0.144251 0.000000 0.000000
# 5 0.000000 0.000000 0.000000 0.000000 0.053343 0.000000
# 6 0.000000 0.000000 0.000000 0.000000 0.000000 0.035175
#
#
# Mechanical properties :
#
#
# Convention : Reuss Voigt Hill
#
# Bulk Modulus (GPa) = 44.53052 54.00524 49.26788
# Shear Modulus (GPa) = 398.04887 22.06994 210.05941
#
# Velocity S-wave (km/s) = 13.21450 3.11159 9.59961
# Velocity P-wave (km/s) = 15.88603 6.04990 12.02013
#
# Compressibility (1/GPa) = 0.02245651
#
# Stress axis : x y z
#
# Youngs Moduli (GPa) = 94.40735 87.93875 50.84237
#
# Poissons Ratio (x) = 0.26023 0.36730
# Poissons Ratio (y) = 0.27938 -0.03028
# Poissons Ratio (z) = 0.68203 -0.05237
#
# Static dielectric constant tensor:
#      x y z
#    x 4.520390 0.000000 0.000000 
#    y 0.000000 3.931220 0.000000 
#    z 0.000000 0.000000 4.252270 
# 
# 
# High freq. dielectric constant tensor:
#      x y z
#    x 1.906280 0.000000 0.000000 
#    y 0.000000 1.892320 0.000000 
#    z 0.000000 0.000000 1.892410 
# 
# From -- ./inp_files/50313.got.cif
#   From: 2010.03.12/outbox.cif.g09.slc.cpg/sg70_26_cif.got.tgz:50313.got - 2010.04.16 13:46:32.
