data_PCOD8286232
_publ_section_title
;
Structure prediction by ZEFSAII (Michael W. Deem and Ramdas Pophale) SiO2 
 PCOD8286232
Probable space group: F D D D
;
_chemical_formula_sum "Si O2"
_cell_formula_units_Z 208
_cell_length_a 18.551563
_cell_length_b 20.491638
_cell_length_c 24.986934
_cell_angle_alpha 90.000000
_cell_angle_beta 90.000000
_cell_angle_gamma 90.000000
_cell_volume 9498.830768
_symmetry_space_group_name_H-M "F D D D"
_symmetry_group_IT_number 70
_space_group.IT_coordinate_system_code '2'
_symmetry_cell_setting 'orthorhombic'
loop_
_space_group_symop_operation_xyz
x,y,z
1/4-x,1/4-y,z
x,1/4-y,1/4-z
1/4-x,y,1/4-z
-x,-y,-z
3/4+x,3/4+y,-z
-x,3/4+y,3/4+z
3/4+x,-y,3/4+z
x,1/2+y,1/2+z
1/4-x,3/4-y,1/2+z
x,3/4-y,3/4-z
1/4-x,1/2+y,3/4-z
-x,1/2-y,1/2-z
3/4+x,1/4+y,1/2-z
-x,1/4+y,1/4+z
3/4+x,1/2-y,1/4+z
1/2+x,y,1/2+z
3/4-x,1/4-y,1/2+z
1/2+x,1/4-y,3/4-z
3/4-x,y,3/4-z
1/2-x,-y,1/2-z
1/4+x,3/4+y,1/2-z
1/2-x,3/4+y,1/4+z
1/4+x,-y,1/4+z
1/2+x,1/2+y,z
3/4-x,3/4-y,z
1/2+x,3/4-y,1/4-z
3/4-x,1/2+y,1/4-z
1/2-x,1/2-y,-z
1/4+x,1/4+y,-z
1/2-x,1/4+y,3/4+z
1/4+x,1/2-y,3/4+z
loop_
_atom_site_type_symbol
_atom_site_label
_atom_site_fract_x
_atom_site_fract_y
_atom_site_fract_z
Si Si1 0.481849 0.132445 0.007102
Si Si2 0.001184 0.538494 0.445116
Si Si3 0.397307 0.598547 0.314957
Si Si4 0.686768 0.875000 0.375000
Si Si5 0.082448 0.261199 0.395534
Si Si6 0.875000 0.375000 0.229762
Si Si7 0.125000 0.625000 0.944324
Si Si8 0.255788 0.781853 0.255494
O O1 0.419791 0.092308 0.975870
O O2 0.557728 0.110506 0.982949
O O3 0.483400 0.117856 0.070712
O O4 0.467481 0.208258 0.996119
O O5 0.013986 0.491659 0.394662
O O6 0.071649 0.584314 0.442451
O O7 0.000000 0.500000 0.500000
O O8 0.927342 0.577646 0.437199
O O9 0.375000 0.579774 0.375000
O O10 0.462124 0.549795 0.298629
O O11 0.641057 0.941408 0.381078
O O12 0.114002 0.189226 0.408165
O O13 0.051583 0.295928 0.447993
O O14 0.825851 0.326876 0.265742
#
# Coordination Sequence:
#
# PCOD8286232 Si02
#       8
#    32  32  32  16  32  16  16  32
#     4  11  24  45  65  99 134 176 231 286 344 407
#     4  11  23  38  64  95 131 173 221 265 339 413
#     4  11  22  41  66  95 130 175 227 283 333 415
#     4  12  24  41  70  99 144 172 220 298 358 393
#     4  11  23  43  68  97 135 182 225 282 343 412
#     4  10  21  38  63  91 129 168 213 263 326 414
#     4  10  25  47  70  93 133 186 245 275 338 420
#     4  10  22  42  63  97 130 173 225 272 343 412
#
# _framework density 21.897431999999998
#
# number of rings (size 3 to 8) (size 9 to 14) (size 15 to 20)
#    0.000    1.231    1.538    5.077    2.154    4.615 
#    5.538    0.769    0.000    0.000    0.000    0.000 
#    0.000    0.000    0.000    0.000    0.000    0.000 
#
# Total GULP energy -644753.844847 kJ/mol
# GULP energy per Si atom -12399.112401 kJ/mol
# Density = 2.184759 g / cm^3
# Si number density = 21.897432 Si / 1000 Ang^3
#
#
#
# Elastic Constant Matrix: (Units=GPa)
#
#
# Indices 1 2 3 4 5 6 
#
# 1 106.0557 18.1784 31.8446 0.0000 0.0000 0.0000
# 2 18.1784 56.2715 16.7726 0.0000 0.0000 0.0000
# 3 31.8446 16.7726 134.1907 0.0000 0.0000 0.0000
# 4 0.0000 0.0000 0.0000 31.6330 0.0000 0.0000
# 5 0.0000 0.0000 0.0000 0.0000 32.5358 0.0000
# 6 0.0000 0.0000 0.0000 0.0000 0.0000 36.5337
#
#
#
# Elastic Compliance Matrix: (Units=1/GPa)
#
#
# Indices 1 2 3 4 5 6 
#
# 1 0.010551 -0.002765 -0.002158 0.000000 0.000000 0.000000
# 2 -0.002765 0.019183 -0.001742 0.000000 0.000000 0.000000
# 3 -0.002158 -0.001742 0.008182 0.000000 0.000000 0.000000
# 4 0.000000 0.000000 0.000000 0.031613 0.000000 0.000000
# 5 0.000000 0.000000 0.000000 0.000000 0.030735 0.000000
# 6 0.000000 0.000000 0.000000 0.000000 0.000000 0.027372
#
#
# Mechanical properties :
#
#
# Convention : Reuss Voigt Hill
#
# Bulk Modulus (GPa) = 40.67293 47.78991 44.23142
# Shear Modulus (GPa) = 33.52069 35.45532 34.48801
#
# Velocity S-wave (km/s) = 3.91679 4.02824 3.97291
# Velocity P-wave (km/s) = 6.25057 6.59601 6.42562
#
# Compressibility (1/GPa) = 0.02458638
#
# Stress axis : x y z
#
# Youngs Moduli (GPa) = 94.77773 52.12851 122.22068
#
# Poissons Ratio (x) = 0.14415 0.26378
# Poissons Ratio (y) = 0.26208 0.21285
# Poissons Ratio (z) = 0.20455 0.09078
#
# Static dielectric constant tensor:
#      x y z
#    x 3.970660 0.000000 0.000000 
#    y 0.000000 3.787700 0.000000 
#    z 0.000000 0.000000 3.967230 
# 
# 
# High freq. dielectric constant tensor:
#      x y z
#    x 1.863390 0.000000 0.000000 
#    y 0.000000 1.854970 0.000000 
#    z 0.000000 0.000000 1.866800 
# 
# From -- ./inp_files/59646.got.cif
#   From: 2010.03.12/outbox.cif.g09.slc.cpg/sg70_30_cif.got.tgz:59646.got - 2010.04.16 13:46:32.
