data_PCOD8286372
_publ_section_title
;
Structure prediction by ZEFSAII (Michael W. Deem and Ramdas Pophale) SiO2 
 PCOD8286372
Probable space group: F D D D
;
_chemical_formula_sum "Si O2"
_cell_formula_units_Z 96
_cell_length_a 7.004065
_cell_length_b 20.190345
_cell_length_c 30.881698
_cell_angle_alpha 90.000000
_cell_angle_beta 90.000000
_cell_angle_gamma 90.000000
_cell_volume 4367.119534
_symmetry_space_group_name_H-M "F D D D"
_symmetry_group_IT_number 70
_space_group.IT_coordinate_system_code '2'
_symmetry_cell_setting 'orthorhombic'
loop_
_space_group_symop_operation_xyz
x,y,z
1/4-x,1/4-y,z
x,1/4-y,1/4-z
1/4-x,y,1/4-z
-x,-y,-z
3/4+x,3/4+y,-z
-x,3/4+y,3/4+z
3/4+x,-y,3/4+z
x,1/2+y,1/2+z
1/4-x,3/4-y,1/2+z
x,3/4-y,3/4-z
1/4-x,1/2+y,3/4-z
-x,1/2-y,1/2-z
3/4+x,1/4+y,1/2-z
-x,1/4+y,1/4+z
3/4+x,1/2-y,1/4+z
1/2+x,y,1/2+z
3/4-x,1/4-y,1/2+z
1/2+x,1/4-y,3/4-z
3/4-x,y,3/4-z
1/2-x,-y,1/2-z
1/4+x,3/4+y,1/2-z
1/2-x,3/4+y,1/4+z
1/4+x,-y,1/4+z
1/2+x,1/2+y,z
3/4-x,3/4-y,z
1/2+x,3/4-y,1/4-z
3/4-x,1/2+y,1/4-z
1/2-x,1/2-y,-z
1/4+x,1/4+y,-z
1/2-x,1/4+y,3/4+z
1/4+x,1/2-y,3/4+z
loop_
_atom_site_type_symbol
_atom_site_label
_atom_site_fract_x
_atom_site_fract_y
_atom_site_fract_z
Si Si1 0.875000 0.532083 0.375000
Si Si2 0.656347 0.389950 0.556199
Si Si3 0.875000 0.375000 0.767759
Si Si4 0.999620 0.722656 0.089009
O O1 0.813000 0.580283 0.415034
O O2 0.713574 0.482615 0.357200
O O3 0.541166 0.403917 0.512378
O O4 0.647998 0.456870 0.583195
O O5 0.875000 0.375000 0.543864
O O6 0.763663 0.319323 0.795194
O O7 0.125000 0.684551 0.125000
#
# Coordination Sequence:
#
# PCOD8286372 Si02
#       4
#    16  32  16  32
#     4  10  22  42  71  93 120 178 232 262 304 394
#     4  10  22  40  67  94 125 173 225 268 317 385
#     4  12  25  38  60 100 142 166 206 278 335 382
#     4  11  23  41  65  94 130 176 218 264 326 386
#
# _framework density 21.982453
#
# number of rings (size 3 to 8) (size 9 to 14) (size 15 to 20)
#    0.000    1.333    1.667    3.500    2.333    8.000 
#    0.000    1.667    0.000    0.000    0.000    0.000 
#    0.000    0.000    0.000    0.000    0.000    0.000 
#
# Total GULP energy -297483.690191 kJ/mol
# GULP energy per Si atom -12395.153758 kJ/mol
# Density = 2.193242 g / cm^3
# Si number density = 21.982453 Si / 1000 Ang^3
#
#
#
# Elastic Constant Matrix: (Units=GPa)
#
#
# Indices 1 2 3 4 5 6 
#
# 1 106.8588 53.7818 86.2958 0.0000 0.0000 0.0000
# 2 53.7818 67.0002 40.0136 0.0000 0.0000 0.0000
# 3 86.2958 40.0136 145.5194 0.0000 0.0000 0.0000
# 4 0.0000 0.0000 0.0000 26.5972 0.0000 0.0000
# 5 0.0000 0.0000 0.0000 0.0000 56.4440 0.0000
# 6 0.0000 0.0000 0.0000 0.0000 0.0000 13.8369
#
#
#
# Elastic Compliance Matrix: (Units=1/GPa)
#
#
# Indices 1 2 3 4 5 6 
#
# 1 0.025281 -0.013568 -0.011261 0.000000 0.000000 0.000000
# 2 -0.013568 0.025140 0.001133 0.000000 0.000000 0.000000
# 3 -0.011261 0.001133 0.013239 0.000000 0.000000 0.000000
# 4 0.000000 0.000000 0.000000 0.037598 0.000000 0.000000
# 5 0.000000 0.000000 0.000000 0.000000 0.017717 0.000000
# 6 0.000000 0.000000 0.000000 0.000000 0.000000 0.072271
#
#
# Mechanical properties :
#
#
# Convention : Reuss Voigt Hill
#
# Bulk Modulus (GPa) = 61.47297 75.50676 68.48986
# Shear Modulus (GPa) = 20.48682 28.66143 24.57412
#
# Velocity S-wave (km/s) = 3.05612 3.61478 3.34712
# Velocity P-wave (km/s) = 6.36226 7.20037 6.79425
#
# Compressibility (1/GPa) = 0.01626731
#
# Stress axis : x y z
#
# Youngs Moduli (GPa) = 39.55489 39.77787 75.53696
#
# Poissons Ratio (x) = 0.53971 0.85066
# Poissons Ratio (y) = 0.53668 -0.08562
# Poissons Ratio (z) = 0.44545 -0.04509
#
# Static dielectric constant tensor:
#      x y z
#    x 3.876580 0.000000 0.000000 
#    y 0.000000 3.768870 0.000000 
#    z 0.000000 0.000000 4.008820 
# 
# 
# High freq. dielectric constant tensor:
#      x y z
#    x 1.866570 0.000000 0.000000 
#    y 0.000000 1.853600 0.000000 
#    z 0.000000 0.000000 1.875940 
# 
# From -- ./inp_files/8118.got.cif
#   From: 2010.03.12/outbox.cif.g09.slc.cpg/sg70_5_cif.got.tgz:8118.got - 2010.04.16 13:46:32.
