data_PCOD8286952
_publ_section_title
;
Structure prediction by ZEFSAII (Michael W. Deem and Ramdas Pophale) SiO2 
 PCOD8286952
Probable space group: I M M M
;
_chemical_formula_sum "Si O2"
_cell_formula_units_Z 88
_cell_length_a 20.002703
_cell_length_b 10.399877
_cell_length_c 33.126840
_cell_angle_alpha 90.000000
_cell_angle_beta 90.000000
_cell_angle_gamma 90.000000
_cell_volume 6891.232452
_symmetry_space_group_name_H-M "I M M M"
_symmetry_group_IT_number 71
_symmetry_cell_setting 'orthorhombic'
loop_
_space_group_symop_operation_xyz
x,y,z
-x,-y,z
x,-y,-z
-x,y,-z
-x,-y,-z
x,y,-z
-x,y,z
x,-y,z
1/2+x,1/2+y,1/2+z
1/2-x,1/2-y,1/2+z
1/2+x,1/2-y,1/2-z
1/2-x,1/2+y,1/2-z
1/2-x,1/2-y,1/2-z
1/2+x,1/2+y,1/2-z
1/2-x,1/2+y,1/2+z
1/2+x,1/2-y,1/2+z
loop_
_atom_site_type_symbol
_atom_site_label
_atom_site_fract_x
_atom_site_fract_y
_atom_site_fract_z
Si Si1 0.765997 0.000000 0.312544
Si Si2 0.722926 0.000000 0.816813
Si Si3 0.078565 0.151545 0.587317
Si Si4 0.577949 0.742248 0.758455
Si Si5 0.850082 0.000000 0.768792
Si Si6 0.337960 0.257597 0.160204
Si Si7 0.861160 0.500000 0.235437
Si Si8 0.077838 0.851082 0.500000
O O1 0.784947 0.873648 0.337877
O O2 0.686668 0.000000 0.303808
O O3 0.805273 0.000000 0.270841
O O4 0.802306 0.000000 0.808000
O O5 0.703544 0.874186 0.842209
O O6 0.684092 0.000000 0.774904
O O7 0.118044 0.233286 0.620131
O O8 0.105236 0.201765 0.543049
O O9 0.000000 0.179265 0.592123
O O10 0.092287 0.000000 0.593262
O O11 0.500000 0.725381 0.766133
O O12 0.604050 0.626583 0.730415
O O13 0.612895 0.739288 0.801783
O O14 0.592374 0.874341 0.734859
O O15 0.000000 0.825030 0.500000
O O16 0.093435 0.000000 0.500000
#
# Coordination Sequence:
#
# PCOD8286952 Si02
#       8
#     8   8  16  16   8  16   8   8
#     4   9  16  26  40  53  65  88 124 154 185 213
#     4   9  18  28  38  49  71  96 120 144 187 225
#     4   9  15  24  38  56  75  94 118 152 188 217
#     4  10  18  26  37  53  71  92 120 155 193 220
#     4   9  17  28  38  50  67  93 120 153 182 218
#     4  10  17  26  38  56  72  92 119 158 189 214
#     4   9  17  28  38  48  69  95 118 149 186 228
#     4   7  12  22  36  53  73  95 117 143 180 220
#
# _framework density 12.769849000000001
#
# number of rings (size 3 to 8) (size 9 to 14) (size 15 to 20)
#    0.000    2.818    0.909    3.273    0.000    4.364 
#    0.000    1.364    0.000    0.545    0.000    1.909 
#    0.000    0.000    0.000    0.000    0.000    0.000 
#
# Total GULP energy -545301.345029 kJ/mol
# GULP energy per Si atom -12393.212387 kJ/mol
# Density = 1.274078 g / cm^3
# Si number density = 12.769849 Si / 1000 Ang^3
#
#
#
# Elastic Constant Matrix: (Units=GPa)
#
#
# Indices 1 2 3 4 5 6 
#
# 1 51.7888 33.5589 33.5671 0.0000 0.0000 0.0000
# 2 33.5589 102.1624 35.6988 0.0000 0.0000 0.0000
# 3 33.5671 35.6988 66.6125 0.0000 0.0000 0.0000
# 4 0.0000 0.0000 0.0000 10.6486 0.0000 0.0000
# 5 0.0000 0.0000 0.0000 0.0000 15.4222 0.0000
# 6 0.0000 0.0000 0.0000 0.0000 0.0000 16.7533
#
#
#
# Elastic Compliance Matrix: (Units=1/GPa)
#
#
# Indices 1 2 3 4 5 6 
#
# 1 0.031295 -0.005868 -0.012625 0.000000 0.000000 0.000000
# 2 -0.005868 0.013144 -0.004087 0.000000 0.000000 0.000000
# 3 -0.012625 -0.004087 0.023564 0.000000 0.000000 0.000000
# 4 0.000000 0.000000 0.000000 0.093909 0.000000 0.000000
# 5 0.000000 0.000000 0.000000 0.000000 0.064841 0.000000
# 6 0.000000 0.000000 0.000000 0.000000 0.000000 0.059690
#
#
# Mechanical properties :
#
#
# Convention : Reuss Voigt Hill
#
# Bulk Modulus (GPa) = 43.77778 47.35706 45.56742
# Shear Modulus (GPa) = 14.73974 16.41407 15.57690
#
# Velocity S-wave (km/s) = 3.40113 3.58910 3.49638
# Velocity P-wave (km/s) = 7.05550 7.37164 7.21530
#
# Compressibility (1/GPa) = 0.02284264
#
# Stress axis : x y z
#
# Youngs Moduli (GPa) = 31.95424 76.07955 42.43679
#
# Poissons Ratio (x) = 0.44646 0.53576
# Poissons Ratio (y) = 0.18752 0.17344
# Poissons Ratio (z) = 0.40342 0.31094
#
# Static dielectric constant tensor:
#      x y z
#    x 2.469670 0.000000 0.000000 
#    y 0.000000 2.666560 0.000000 
#    z 0.000000 0.000000 2.505220 
# 
# 
# High freq. dielectric constant tensor:
#      x y z
#    x 1.464300 0.000000 0.000000 
#    y 0.000000 1.487870 0.000000 
#    z 0.000000 0.000000 1.449420 
# 
# From -- ./inp_files/69416.got.cif
#   From: 2010.06.25/outbox.cif.g09.slc.cpg/sg71_35_cif.got.tgz:69416.got - 2010.06.28 04:59:45.
