data_PCOD8286704
_publ_section_title
;
Structure prediction by ZEFSAII (Michael W. Deem and Ramdas Pophale) SiO2 
 PCOD8286704
Probable space group: F D D D
;
_chemical_formula_sum "Si O2"
_cell_formula_units_Z 104
_cell_length_a 30.099234
_cell_length_b 20.108808
_cell_length_c 7.372031
_cell_angle_alpha 90.000000
_cell_angle_beta 90.000000
_cell_angle_gamma 90.000000
_cell_volume 4461.993400
_symmetry_space_group_name_H-M "F D D D"
_symmetry_group_IT_number 70
_space_group.IT_coordinate_system_code '2'
_symmetry_cell_setting 'orthorhombic'
loop_
_space_group_symop_operation_xyz
x,y,z
1/4-x,1/4-y,z
x,1/4-y,1/4-z
1/4-x,y,1/4-z
-x,-y,-z
3/4+x,3/4+y,-z
-x,3/4+y,3/4+z
3/4+x,-y,3/4+z
x,1/2+y,1/2+z
1/4-x,3/4-y,1/2+z
x,3/4-y,3/4-z
1/4-x,1/2+y,3/4-z
-x,1/2-y,1/2-z
3/4+x,1/4+y,1/2-z
-x,1/4+y,1/4+z
3/4+x,1/2-y,1/4+z
1/2+x,y,1/2+z
3/4-x,1/4-y,1/2+z
1/2+x,1/4-y,3/4-z
3/4-x,y,3/4-z
1/2-x,-y,1/2-z
1/4+x,3/4+y,1/2-z
1/2-x,3/4+y,1/4+z
1/4+x,-y,1/4+z
1/2+x,1/2+y,z
3/4-x,3/4-y,z
1/2+x,3/4-y,1/4-z
3/4-x,1/2+y,1/4-z
1/2-x,1/2-y,-z
1/4+x,1/4+y,-z
1/2-x,1/4+y,3/4+z
1/4+x,1/2-y,3/4+z
loop_
_atom_site_type_symbol
_atom_site_label
_atom_site_fract_x
_atom_site_fract_y
_atom_site_fract_z
Si Si1 0.293497 0.195580 0.589522
Si Si2 0.450098 0.280149 0.487307
Si Si3 0.427353 0.451196 0.879566
Si Si4 0.625000 0.625000 0.625000
O O1 0.318199 0.125000 0.625000
O O2 0.242191 0.183413 0.646135
O O3 0.304581 0.212286 0.379365
O O4 0.308899 0.259898 0.699741
O O5 0.452478 0.262496 0.701043
O O6 0.406739 0.328204 0.494405
O O7 0.444250 0.375000 0.875000
O O8 0.375000 0.455671 0.875000
#
# Coordination Sequence:
#
# PCOD8286704 Si02
#       4
#    32  32  32   8
#     4  11  25  44  65 104 143 179 231 290 367 416
#     4  11  23  42  71  99 137 181 230 294 342 427
#     4  11  24  44  72 102 134 186 243 286 346 433
#     4  12  20  44  78  96 128 190 238 276 342 420
#
# _framework density 23.307967000000001
#
# number of rings (size 3 to 8) (size 9 to 14) (size 15 to 20)
#    0.000    0.923    1.538    6.462    4.308    1.231 
#    8.308    0.000    0.000    0.000    0.000    0.000 
#    0.000    0.000    0.000    0.000    0.000    0.000 
#
# Total GULP energy -322090.641315 kJ/mol
# GULP energy per Si atom -12388.101589 kJ/mol
# Density = 2.325492 g / cm^3
# Si number density = 23.307967 Si / 1000 Ang^3
#
#
#
# Elastic Constant Matrix: (Units=GPa)
#
#
# Indices 1 2 3 4 5 6 
#
# 1 94.0729 26.4068 14.2770 0.0057 0.0000 0.0000
# 2 26.4068 158.9759 48.2254 0.0187 0.0001 0.0001
# 3 14.2770 48.2254 151.2763 0.0265 0.0002 0.0005
# 4 0.0057 0.0187 0.0265 -40.8004 0.0002 0.0001
# 5 0.0000 0.0001 0.0002 0.0002 35.0114 -0.0001
# 6 0.0000 0.0001 0.0005 0.0001 -0.0001 16.7226
#
#
#
# Elastic Compliance Matrix: (Units=1/GPa)
#
#
# Indices 1 2 3 4 5 6 
#
# 1 0.011186 -0.001702 -0.000513 0.000000 0.000000 0.000000
# 2 -0.001702 0.007223 -0.002142 0.000002 0.000000 0.000000
# 3 -0.000513 -0.002142 0.007342 0.000004 0.000000 0.000000
# 4 0.000000 0.000002 0.000004 -0.024510 0.000000 0.000000
# 5 0.000000 0.000000 0.000000 0.000000 0.028562 0.000000
# 6 0.000000 0.000000 0.000000 0.000000 0.000000 0.059799
#
#
# Mechanical properties :
#
#
# Convention : Reuss Voigt Hill
#
# Bulk Modulus (GPa) = 58.70032 64.68260 61.69146
# Shear Modulus (GPa) = 48.07913 23.21443 35.64678
#
# Velocity S-wave (km/s) = 4.54671 3.15935 3.91497
# Velocity P-wave (km/s) = 7.26655 6.41250 6.85284
#
# Compressibility (1/GPa) = 0.01703568
#
# Stress axis : x y z
#
# Youngs Moduli (GPa) = 89.39922 138.45080 136.20924
#
# Poissons Ratio (x) = 0.23570 0.06987
# Poissons Ratio (y) = 0.15219 0.29174
# Poissons Ratio (z) = 0.04586 0.29655
#
# Static dielectric constant tensor:
#      x y z
#    x 4.563960 0.000000 0.000000 
#    y 0.000000 4.185010 0.000000 
#    z 0.000000 0.000000 4.521970 
# 
# 
# High freq. dielectric constant tensor:
#      x y z
#    x 1.912850 0.000000 0.000000 
#    y 0.000000 1.913590 0.000000 
#    z 0.000000 0.000000 1.934070 
# 
# From -- ./inp_files/11701.got.cif
#   From: 2010.03.12/outbox.cif.g09.slc.cpg/sg70_6_cif.got.tgz:11701.got - 2010.04.16 13:46:32.
