data_PCOD8286105
_publ_section_title
;
Structure prediction by ZEFSAII (Michael W. Deem and Ramdas Pophale) SiO2 
 PCOD8286105
Probable space group: F D D D
;
_chemical_formula_sum "Si O2"
_cell_formula_units_Z 240
_cell_length_a 17.663342
_cell_length_b 32.720271
_cell_length_c 21.324441
_cell_angle_alpha 90.000000
_cell_angle_beta 90.000000
_cell_angle_gamma 90.000000
_cell_volume 12324.446538
_symmetry_space_group_name_H-M "F D D D"
_symmetry_group_IT_number 70
_space_group.IT_coordinate_system_code '2'
_symmetry_cell_setting 'orthorhombic'
loop_
_space_group_symop_operation_xyz
x,y,z
1/4-x,1/4-y,z
x,1/4-y,1/4-z
1/4-x,y,1/4-z
-x,-y,-z
3/4+x,3/4+y,-z
-x,3/4+y,3/4+z
3/4+x,-y,3/4+z
x,1/2+y,1/2+z
1/4-x,3/4-y,1/2+z
x,3/4-y,3/4-z
1/4-x,1/2+y,3/4-z
-x,1/2-y,1/2-z
3/4+x,1/4+y,1/2-z
-x,1/4+y,1/4+z
3/4+x,1/2-y,1/4+z
1/2+x,y,1/2+z
3/4-x,1/4-y,1/2+z
1/2+x,1/4-y,3/4-z
3/4-x,y,3/4-z
1/2-x,-y,1/2-z
1/4+x,3/4+y,1/2-z
1/2-x,3/4+y,1/4+z
1/4+x,-y,1/4+z
1/2+x,1/2+y,z
3/4-x,3/4-y,z
1/2+x,3/4-y,1/4-z
3/4-x,1/2+y,1/4-z
1/2-x,1/2-y,-z
1/4+x,1/4+y,-z
1/2-x,1/4+y,3/4+z
1/4+x,1/2-y,3/4+z
loop_
_atom_site_type_symbol
_atom_site_label
_atom_site_fract_x
_atom_site_fract_y
_atom_site_fract_z
Si Si1 0.180585 0.226709 0.812738
Si Si2 0.689376 0.938168 0.474857
Si Si3 0.904797 0.632566 0.308754
Si Si4 0.166343 0.583733 0.484270
Si Si5 0.319361 0.490972 0.704832
Si Si6 0.571908 0.931621 0.283684
Si Si7 0.834597 0.625000 0.625000
Si Si8 0.316213 0.910343 0.658927
O O1 0.240365 0.207656 0.763117
O O2 0.211082 0.229096 0.884940
O O3 0.157304 0.271404 0.791387
O O4 0.102298 0.201446 0.812540
O O5 0.642531 0.909125 0.520778
O O6 0.715028 0.907079 0.417510
O O7 0.631447 0.972683 0.449971
O O8 0.875000 0.619314 0.375000
O O9 0.852926 0.669156 0.284212
O O10 0.990488 0.648577 0.304861
O O11 0.125000 0.625000 0.504183
O O12 0.106575 0.547600 0.488159
O O13 0.231633 0.574935 0.534936
O O14 0.201623 0.585918 0.414661
O O15 0.250000 0.500000 0.750000
O O16 0.610546 0.903392 0.334887
O O17 0.375000 0.875000 0.671994
#
# Coordination Sequence:
#
# PCOD8286105 Si02
#       8
#    32  32  32  32  32  32  16  32
#     4  11  23  41  67  92 131 176 216 273 339 395
#     4  11  23  41  66  93 131 177 222 267 335 410
#     4  11  23  37  66  95 121 166 224 269 327 403
#     4  10  22  37  60  87 125 168 210 269 331 388
#     4  11  25  39  60  97 133 166 219 275 325 396
#     4  11  22  41  63  89 128 174 215 274 339 394
#     4  10  24  42  63  91 134 176 220 274 340 398
#     4  10  20  39  61  93 126 157 214 278 330 382
#
# _framework density 19.473490999999999
#
# number of rings (size 3 to 8) (size 9 to 14) (size 15 to 20)
#    0.000    1.333    5.333    0.000    5.600    0.533 
#    0.000    1.667    0.000    3.200    0.000    0.000 
#    0.000    0.000    0.000    0.000    0.000    0.000 
#
# Total GULP energy -743663.395872 kJ/mol
# GULP energy per Si atom -12394.389931 kJ/mol
# Density = 1.942917 g / cm^3
# Si number density = 19.473491 Si / 1000 Ang^3
#
#
#
# Elastic Constant Matrix: (Units=GPa)
#
#
# Indices 1 2 3 4 5 6 
#
# 1 75.1955 38.6953 23.6820 0.0000 0.0000 0.0000
# 2 38.6953 146.4666 32.8010 0.0000 0.0000 0.0000
# 3 23.6820 32.8010 81.1569 0.0000 0.0000 0.0000
# 4 0.0000 0.0000 0.0000 24.3984 0.0000 0.0000
# 5 0.0000 0.0000 0.0000 0.0000 28.4604 0.0000
# 6 0.0000 0.0000 0.0000 0.0000 0.0000 22.0903
#
#
#
# Elastic Compliance Matrix: (Units=1/GPa)
#
#
# Indices 1 2 3 4 5 6 
#
# 1 0.016150 -0.003531 -0.003286 0.000000 0.000000 0.000000
# 2 -0.003531 0.008279 -0.002316 0.000000 0.000000 0.000000
# 3 -0.003286 -0.002316 0.014217 0.000000 0.000000 0.000000
# 4 0.000000 0.000000 0.000000 0.040986 0.000000 0.000000
# 5 0.000000 0.000000 0.000000 0.000000 0.035136 0.000000
# 6 0.000000 0.000000 0.000000 0.000000 0.000000 0.045269
#
#
# Mechanical properties :
#
#
# Convention : Reuss Voigt Hill
#
# Bulk Modulus (GPa) = 49.06489 54.79729 51.93109
# Shear Modulus (GPa) = 27.01299 28.83253 27.92276
#
# Velocity S-wave (km/s) = 3.72851 3.85204 3.79078
# Velocity P-wave (km/s) = 6.61711 6.92710 6.77388
#
# Compressibility (1/GPa) = 0.02038117
#
# Stress axis : x y z
#
# Youngs Moduli (GPa) = 61.91761 120.78809 70.34064
#
# Poissons Ratio (x) = 0.42650 0.23112
# Poissons Ratio (y) = 0.21863 0.16289
# Poissons Ratio (z) = 0.20344 0.27971
#
# Static dielectric constant tensor:
#      x y z
#    x 4.570810 0.000000 0.000000 
#    y 0.000000 3.876820 0.000000 
#    z 0.000000 0.000000 3.960610 
# 
# 
# High freq. dielectric constant tensor:
#      x y z
#    x 1.742620 0.000000 0.000000 
#    y 0.000000 1.781220 0.000000 
#    z 0.000000 0.000000 1.756170 
# 
# From -- ./inp_files/45283.got.cif
#   From: 2010.03.12/outbox.cif.g09.slc.cpg/sg70_23_cif.got.tgz:45283.got - 2010.04.16 13:46:32.
