data_PCOD8286119
_publ_section_title
;
Structure prediction by ZEFSAII (Michael W. Deem and Ramdas Pophale) SiO2 
 PCOD8286119
Probable space group: F D D D
;
_chemical_formula_sum "Si O2"
_cell_formula_units_Z 128
_cell_length_a 22.023678
_cell_length_b 19.282774
_cell_length_c 13.822519
_cell_angle_alpha 90.000000
_cell_angle_beta 90.000000
_cell_angle_gamma 90.000000
_cell_volume 5870.114271
_symmetry_space_group_name_H-M "F D D D"
_symmetry_group_IT_number 70
_space_group.IT_coordinate_system_code '2'
_symmetry_cell_setting 'orthorhombic'
loop_
_space_group_symop_operation_xyz
x,y,z
1/4-x,1/4-y,z
x,1/4-y,1/4-z
1/4-x,y,1/4-z
-x,-y,-z
3/4+x,3/4+y,-z
-x,3/4+y,3/4+z
3/4+x,-y,3/4+z
x,1/2+y,1/2+z
1/4-x,3/4-y,1/2+z
x,3/4-y,3/4-z
1/4-x,1/2+y,3/4-z
-x,1/2-y,1/2-z
3/4+x,1/4+y,1/2-z
-x,1/4+y,1/4+z
3/4+x,1/2-y,1/4+z
1/2+x,y,1/2+z
3/4-x,1/4-y,1/2+z
1/2+x,1/4-y,3/4-z
3/4-x,y,3/4-z
1/2-x,-y,1/2-z
1/4+x,3/4+y,1/2-z
1/2-x,3/4+y,1/4+z
1/4+x,-y,1/4+z
1/2+x,1/2+y,z
3/4-x,3/4-y,z
1/2+x,3/4-y,1/4-z
3/4-x,1/2+y,1/4-z
1/2-x,1/2-y,-z
1/4+x,1/4+y,-z
1/2-x,1/4+y,3/4+z
1/4+x,1/2-y,3/4+z
loop_
_atom_site_type_symbol
_atom_site_label
_atom_site_fract_x
_atom_site_fract_y
_atom_site_fract_z
Si Si1 0.183132 0.524812 0.275556
Si Si2 0.330757 0.663176 0.725710
Si Si3 0.875000 0.060433 0.875000
Si Si4 0.034059 0.625000 0.125000
Si Si5 0.215783 0.749301 0.773404
O O1 0.250000 0.500000 0.250000
O O2 0.134548 0.466289 0.250579
O O3 0.171716 0.590342 0.205413
O O4 0.182460 0.543410 0.389860
O O5 0.342571 0.625000 0.625000
O O6 0.329832 0.606820 0.810647
O O7 0.267676 0.703680 0.723997
O O8 0.916411 0.012246 0.808562
O O9 0.990695 0.571019 0.181563
#
# Coordination Sequence:
#
# PCOD8286119 Si02
#       5
#    32  32  16  16  32
#     4  10  21  39  66 103 140 175 230 299 359 414
#     4  12  25  44  68  99 143 188 233 294 359 426
#     4  12  22  44  71  97 142 192 234 300 356 428
#     4  10  20  39  68 106 140 166 242 309 348 416
#     4  11  23  40  69 102 139 190 235 285 367 425
#
# _framework density 21.805367
#
# number of rings (size 3 to 8) (size 9 to 14) (size 15 to 20)
#    0.000    1.000    2.500    7.500    1.750    3.000 
#    0.000    0.625    0.000    0.000    0.000    0.000 
#    0.000    0.000    0.000    0.000    0.000    0.000 
#
# Total GULP energy -396814.040186 kJ/mol
# GULP energy per Si atom -12400.438756 kJ/mol
# Density = 2.175574 g / cm^3
# Si number density = 21.805367 Si / 1000 Ang^3
#
#
#
# Elastic Constant Matrix: (Units=GPa)
#
#
# Indices 1 2 3 4 5 6 
#
# 1 121.2448 57.2853 64.9937 0.0000 0.0000 0.0000
# 2 57.2853 97.3232 76.6962 0.0000 0.0000 0.0000
# 3 64.9937 76.6962 190.8485 0.0000 0.0000 0.0000
# 4 0.0000 0.0000 0.0000 56.6690 0.0000 0.0000
# 5 0.0000 0.0000 0.0000 0.0000 40.2252 0.0000
# 6 0.0000 0.0000 0.0000 0.0000 0.0000 14.2262
#
#
#
# Elastic Compliance Matrix: (Units=1/GPa)
#
#
# Indices 1 2 3 4 5 6 
#
# 1 0.011834 -0.005546 -0.001801 0.000000 0.000000 0.000000
# 2 -0.005546 0.017636 -0.005199 0.000000 0.000000 0.000000
# 3 -0.001801 -0.005199 0.007942 0.000000 0.000000 0.000000
# 4 0.000000 0.000000 0.000000 0.017646 0.000000 0.000000
# 5 0.000000 0.000000 0.000000 0.000000 0.024860 0.000000
# 6 0.000000 0.000000 0.000000 0.000000 0.000000 0.070293
#
#
# Mechanical properties :
#
#
# Convention : Reuss Voigt Hill
#
# Bulk Modulus (GPa) = 81.16575 89.70744 85.43659
# Shear Modulus (GPa) = 27.86906 36.25351 32.06129
#
# Velocity S-wave (km/s) = 3.57891 4.08192 3.83866
# Velocity P-wave (km/s) = 7.37440 7.96527 7.67552
#
# Compressibility (1/GPa) = 0.01232047
#
# Stress axis : x y z
#
# Youngs Moduli (GPa) = 84.50488 56.70086 125.90592
#
# Poissons Ratio (x) = 0.31446 0.22678
# Poissons Ratio (y) = 0.46866 0.65457
# Poissons Ratio (z) = 0.15221 0.29478
#
# Static dielectric constant tensor:
#      x y z
#    x 3.831520 0.000000 0.000000 
#    y 0.000000 4.247780 0.000000 
#    z 0.000000 0.000000 4.129950 
# 
# 
# High freq. dielectric constant tensor:
#      x y z
#    x 1.855560 0.000000 0.000000 
#    y 0.000000 1.841880 0.000000 
#    z 0.000000 0.000000 1.878820 
# 
# From -- ./inp_files/29691.got.cif
#   From: 2010.03.12/outbox.cif.g09.slc.cpg/sg70_15_cif.got.tgz:29691.got - 2010.04.16 13:46:32.
