data_PCOD8286190
_publ_section_title
;
Structure prediction by ZEFSAII (Michael W. Deem and Ramdas Pophale) SiO2 
 PCOD8286190
Probable space group: F D D D
;
_chemical_formula_sum "Si O2"
_cell_formula_units_Z 144
_cell_length_a 13.458878
_cell_length_b 23.345169
_cell_length_c 22.726428
_cell_angle_alpha 90.000000
_cell_angle_beta 90.000000
_cell_angle_gamma 90.000000
_cell_volume 7140.638711
_symmetry_space_group_name_H-M "F D D D"
_symmetry_group_IT_number 70
_space_group.IT_coordinate_system_code '2'
_symmetry_cell_setting 'orthorhombic'
loop_
_space_group_symop_operation_xyz
x,y,z
1/4-x,1/4-y,z
x,1/4-y,1/4-z
1/4-x,y,1/4-z
-x,-y,-z
3/4+x,3/4+y,-z
-x,3/4+y,3/4+z
3/4+x,-y,3/4+z
x,1/2+y,1/2+z
1/4-x,3/4-y,1/2+z
x,3/4-y,3/4-z
1/4-x,1/2+y,3/4-z
-x,1/2-y,1/2-z
3/4+x,1/4+y,1/2-z
-x,1/4+y,1/4+z
3/4+x,1/2-y,1/4+z
1/2+x,y,1/2+z
3/4-x,1/4-y,1/2+z
1/2+x,1/4-y,3/4-z
3/4-x,y,3/4-z
1/2-x,-y,1/2-z
1/4+x,3/4+y,1/2-z
1/2-x,3/4+y,1/4+z
1/4+x,-y,1/4+z
1/2+x,1/2+y,z
3/4-x,3/4-y,z
1/2+x,3/4-y,1/4-z
3/4-x,1/2+y,1/4-z
1/2-x,1/2-y,-z
1/4+x,1/4+y,-z
1/2-x,1/4+y,3/4+z
1/4+x,1/2-y,3/4+z
loop_
_atom_site_type_symbol
_atom_site_label
_atom_site_fract_x
_atom_site_fract_y
_atom_site_fract_z
Si Si1 0.875000 0.375000 0.032131
Si Si2 0.636518 0.504117 0.059609
Si Si3 0.555910 0.941923 0.450612
Si Si4 0.397168 0.752637 0.084833
Si Si5 0.714853 0.353772 0.935825
O O1 0.874733 0.430587 0.073654
O O2 0.778306 0.374838 0.990908
O O3 0.625000 0.477667 0.125000
O O4 0.565012 0.560521 0.052563
O O5 0.753016 0.516953 0.049325
O O6 0.594812 0.457237 0.015044
O O7 0.592041 0.991109 0.404521
O O8 0.604034 0.881237 0.435150
O O9 0.303966 0.714617 0.061482
O O10 0.767594 0.375000 0.875000
#
# Coordination Sequence:
#
# PCOD8286190 Si02
#       5
#    16  32  32  32  32
#     4  12  21  38  58  80 123 152 186 242 282 342
#     4   9  17  34  60  83 114 146 184 236 291 332
#     4   9  18  36  59  84 115 147 189 241 284 339
#     4  10  21  35  59  86 114 154 192 231 291 339
#     4  10  21  37  60  83 111 154 197 232 281 348
#
# _framework density 20.166264000000002
#
# number of rings (size 3 to 8) (size 9 to 14) (size 15 to 20)
#    0.000    2.222    2.222    1.000    0.000    0.889 
#    0.000   11.111    0.000    0.000    0.000    0.000 
#    0.000    0.000    0.000    0.000    0.000    0.000 
#
# Total GULP energy -446024.343428 kJ/mol
# GULP energy per Si atom -12389.565095 kJ/mol
# Density = 2.012036 g / cm^3
# Si number density = 20.166264 Si / 1000 Ang^3
#
#
#
# Elastic Constant Matrix: (Units=GPa)
#
#
# Indices 1 2 3 4 5 6 
#
# 1 74.1190 35.3326 18.3524 0.0000 0.0000 0.0000
# 2 35.3326 125.9049 34.0360 0.0000 0.0000 0.0000
# 3 18.3524 34.0360 92.9626 0.0000 0.0000 0.0000
# 4 0.0000 0.0000 0.0000 24.6711 0.0000 0.0000
# 5 0.0000 0.0000 0.0000 0.0000 24.9422 0.0000
# 6 0.0000 0.0000 0.0000 0.0000 0.0000 21.9937
#
#
#
# Elastic Compliance Matrix: (Units=1/GPa)
#
#
# Indices 1 2 3 4 5 6 
#
# 1 0.015803 -0.003986 -0.001660 0.000000 0.000000 0.000000
# 2 -0.003986 0.009820 -0.002809 0.000000 0.000000 0.000000
# 3 -0.001660 -0.002809 0.012113 0.000000 0.000000 0.000000
# 4 0.000000 0.000000 0.000000 0.040533 0.000000 0.000000
# 5 0.000000 0.000000 0.000000 0.000000 0.040093 0.000000
# 6 0.000000 0.000000 0.000000 0.000000 0.000000 0.045468
#
#
# Mechanical properties :
#
#
# Convention : Reuss Voigt Hill
#
# Bulk Modulus (GPa) = 48.01558 52.04761 50.03159
# Shear Modulus (GPa) = 26.64080 28.00577 27.32328
#
# Velocity S-wave (km/s) = 3.63858 3.73063 3.68489
# Velocity P-wave (km/s) = 6.44313 6.66499 6.55500
#
# Compressibility (1/GPa) = 0.02082657
#
# Stress axis : x y z
#
# Youngs Moduli (GPa) = 63.27892 101.82968 82.55522
#
# Poissons Ratio (x) = 0.40589 0.13708
# Poissons Ratio (y) = 0.25223 0.23186
# Poissons Ratio (z) = 0.10507 0.28600
#
# Static dielectric constant tensor:
#      x y z
#    x 3.807780 0.000000 0.000000 
#    y 0.000000 3.334880 0.000000 
#    z 0.000000 0.000000 3.723610 
# 
# 
# High freq. dielectric constant tensor:
#      x y z
#    x 1.789380 0.000000 0.000000 
#    y 0.000000 1.756390 0.000000 
#    z 0.000000 0.000000 1.790700 
# 
# From -- ./inp_files/20634.got.cif
#   From: 2010.03.12/outbox.cif.g09.slc.cpg/sg70_11_cif.got.tgz:20634.got - 2010.04.16 13:46:32.
