data_PCOD8286263
_publ_section_title
;
Structure prediction by ZEFSAII (Michael W. Deem and Ramdas Pophale) SiO2 
 PCOD8286263
Probable space group: F D D D
;
_chemical_formula_sum "Si O2"
_cell_formula_units_Z 160
_cell_length_a 26.323290
_cell_length_b 22.850260
_cell_length_c 12.923013
_cell_angle_alpha 90.000000
_cell_angle_beta 90.000000
_cell_angle_gamma 90.000000
_cell_volume 7773.115047
_symmetry_space_group_name_H-M "F D D D"
_symmetry_group_IT_number 70
_space_group.IT_coordinate_system_code '2'
_symmetry_cell_setting 'orthorhombic'
loop_
_space_group_symop_operation_xyz
x,y,z
1/4-x,1/4-y,z
x,1/4-y,1/4-z
1/4-x,y,1/4-z
-x,-y,-z
3/4+x,3/4+y,-z
-x,3/4+y,3/4+z
3/4+x,-y,3/4+z
x,1/2+y,1/2+z
1/4-x,3/4-y,1/2+z
x,3/4-y,3/4-z
1/4-x,1/2+y,3/4-z
-x,1/2-y,1/2-z
3/4+x,1/4+y,1/2-z
-x,1/4+y,1/4+z
3/4+x,1/2-y,1/4+z
1/2+x,y,1/2+z
3/4-x,1/4-y,1/2+z
1/2+x,1/4-y,3/4-z
3/4-x,y,3/4-z
1/2-x,-y,1/2-z
1/4+x,3/4+y,1/2-z
1/2-x,3/4+y,1/4+z
1/4+x,-y,1/4+z
1/2+x,1/2+y,z
3/4-x,3/4-y,z
1/2+x,3/4-y,1/4-z
3/4-x,1/2+y,1/4-z
1/2-x,1/2-y,-z
1/4+x,1/4+y,-z
1/2-x,1/4+y,3/4+z
1/4+x,1/2-y,3/4+z
loop_
_atom_site_type_symbol
_atom_site_label
_atom_site_fract_x
_atom_site_fract_y
_atom_site_fract_z
Si Si1 0.840358 0.729726 0.072625
Si Si2 0.269115 0.025899 0.995817
Si Si3 0.070536 0.557115 0.602351
Si Si4 0.319603 0.117040 0.342931
Si Si5 0.449396 0.684043 0.558263
O O1 0.820675 0.733139 0.189946
O O2 0.901324 0.725720 0.084208
O O3 0.815672 0.787711 0.017863
O O4 0.821519 0.671543 0.011828
O O5 0.224037 0.033704 0.077702
O O6 0.278922 0.081441 0.923122
O O7 0.251236 0.971743 0.922668
O O8 0.075391 0.625000 0.625000
O O9 0.125000 0.525530 0.625000
O O10 0.375000 0.142050 0.375000
O O11 0.299151 0.078665 0.436486
O O12 0.449151 0.625000 0.625000
#
# Coordination Sequence:
#
# PCOD8286263 Si02
#       5
#    32  32  32  32  32
#     4  11  20  41  63  96 126 166 208 259 319 381
#     4  12  23  37  66  93 124 166 210 261 319 375
#     4  11  21  34  57  97 137 154 190 262 331 377
#     4  10  21  40  64  91 124 165 216 260 305 380
#     4  11  24  42  63  90 127 168 217 263 306 376
#
# _framework density 20.583769
#
# number of rings (size 3 to 8) (size 9 to 14) (size 15 to 20)
#    0.000    1.000    4.000    5.400    2.800    0.800 
#    0.000    0.000    0.000    3.000    0.000    0.000 
#    0.000    0.000    0.000    0.000    0.000    0.000 
#
# Total GULP energy -495664.118267 kJ/mol
# GULP energy per Si atom -12391.602957 kJ/mol
# Density = 2.053692 g / cm^3
# Si number density = 20.583769 Si / 1000 Ang^3
#
#
#
# Elastic Constant Matrix: (Units=GPa)
#
#
# Indices 1 2 3 4 5 6 
#
# 1 90.0855 55.3417 36.9915 0.0000 0.0000 0.0000
# 2 55.3417 111.7241 23.0843 0.0000 0.0000 0.0000
# 3 36.9915 23.0843 39.1964 -0.0001 0.0000 0.0000
# 4 0.0000 0.0000 -0.0001 34.1982 0.0000 0.0000
# 5 0.0000 0.0000 0.0000 0.0000 22.7389 0.0000
# 6 0.0000 0.0000 0.0000 0.0000 0.0000 40.3216
#
#
#
# Elastic Compliance Matrix: (Units=1/GPa)
#
#
# Indices 1 2 3 4 5 6 
#
# 1 0.022883 -0.007825 -0.016988 0.000000 0.000000 0.000000
# 2 -0.007825 0.012867 -0.000193 0.000000 0.000000 0.000000
# 3 -0.016988 -0.000193 0.041658 0.000000 0.000000 0.000000
# 4 0.000000 0.000000 0.000000 0.029241 0.000000 0.000000
# 5 0.000000 0.000000 0.000000 0.000000 0.043978 0.000000
# 6 0.000000 0.000000 0.000000 0.000000 0.000000 0.024801
#
#
# Mechanical properties :
#
#
# Convention : Reuss Voigt Hill
#
# Bulk Modulus (GPa) = 36.50015 52.42678 44.46346
# Shear Modulus (GPa) = 21.31558 27.82431 24.56994
#
# Velocity S-wave (km/s) = 3.22149 3.68062 3.45868
# Velocity P-wave (km/s) = 5.62213 6.60211 6.13173
#
# Compressibility (1/GPa) = 0.02739715
#
# Stress axis : x y z
#
# Youngs Moduli (GPa) = 43.70004 77.72098 24.00502
#
# Poissons Ratio (x) = 0.60818 0.40779
# Poissons Ratio (y) = 0.34196 0.00462
# Poissons Ratio (z) = 0.74236 0.01497
#
# Static dielectric constant tensor:
#      x y z
#    x 3.928760 0.000000 0.000000 
#    y 0.000000 3.868140 0.000000 
#    z 0.000000 0.000000 3.621590 
# 
# 
# High freq. dielectric constant tensor:
#      x y z
#    x 1.807130 0.000000 0.000000 
#    y 0.000000 1.800370 0.000000 
#    z 0.000000 0.000000 1.781140 
# 
# From -- ./inp_files/22193.got.cif
#   From: 2010.03.12/outbox.cif.g09.slc.cpg/sg70_12_cif.got.tgz:22193.got - 2010.04.16 13:46:32.
