data_PCOD8286192
_publ_section_title
;
Structure prediction by ZEFSAII (Michael W. Deem and Ramdas Pophale) SiO2 
 PCOD8286192
Probable space group: F D D D
;
_chemical_formula_sum "Si O2"
_cell_formula_units_Z 128
_cell_length_a 11.776271
_cell_length_b 25.192054
_cell_length_c 21.702336
_cell_angle_alpha 90.000000
_cell_angle_beta 90.000000
_cell_angle_gamma 90.000000
_cell_volume 6438.398490
_symmetry_space_group_name_H-M "F D D D"
_symmetry_group_IT_number 70
_space_group.IT_coordinate_system_code '2'
_symmetry_cell_setting 'orthorhombic'
loop_
_space_group_symop_operation_xyz
x,y,z
1/4-x,1/4-y,z
x,1/4-y,1/4-z
1/4-x,y,1/4-z
-x,-y,-z
3/4+x,3/4+y,-z
-x,3/4+y,3/4+z
3/4+x,-y,3/4+z
x,1/2+y,1/2+z
1/4-x,3/4-y,1/2+z
x,3/4-y,3/4-z
1/4-x,1/2+y,3/4-z
-x,1/2-y,1/2-z
3/4+x,1/4+y,1/2-z
-x,1/4+y,1/4+z
3/4+x,1/2-y,1/4+z
1/2+x,y,1/2+z
3/4-x,1/4-y,1/2+z
1/2+x,1/4-y,3/4-z
3/4-x,y,3/4-z
1/2-x,-y,1/2-z
1/4+x,3/4+y,1/2-z
1/2-x,3/4+y,1/4+z
1/4+x,-y,1/4+z
1/2+x,1/2+y,z
3/4-x,3/4-y,z
1/2+x,3/4-y,1/4-z
3/4-x,1/2+y,1/4-z
1/2-x,1/2-y,-z
1/4+x,1/4+y,-z
1/2-x,1/4+y,3/4+z
1/4+x,1/2-y,3/4+z
loop_
_atom_site_type_symbol
_atom_site_label
_atom_site_fract_x
_atom_site_fract_y
_atom_site_fract_z
Si Si1 0.077328 0.068779 0.056723
Si Si2 0.609497 0.684292 0.731330
Si Si3 0.849166 0.018911 0.038176
Si Si4 0.009426 0.275317 0.653065
O O1 0.125000 0.125000 0.031189
O O2 0.125000 0.059951 0.125000
O O3 0.939557 0.065936 0.053740
O O4 0.114644 0.020243 0.015361
O O5 0.625000 0.625000 0.706827
O O6 0.734423 0.707167 0.738328
O O7 0.544393 0.685069 0.796942
O O8 0.537351 0.717715 0.682211
O O9 0.831904 0.984396 0.099807
O O10 0.125000 0.300902 0.625000
#
# Coordination Sequence:
#
# PCOD8286192 Si02
#       4
#    32  32  32  32
#     4  10  22  38  58  81 109 149 191 235 287 340
#     4  10  21  36  57  84 113 150 188 231 286 340
#     4  10  21  37  56  82 113 144 188 238 282 340
#     4   9  20  37  56  81 116 148 186 235 283 339
#
# _framework density 19.88072
#
# number of rings (size 3 to 8) (size 9 to 14) (size 15 to 20)
#    0.000    2.250    0.000    1.500    0.000   15.500 
#    0.000    3.750    0.000    0.000    0.000    0.000 
#    0.000    0.000    0.000    0.000    0.000    0.000 
#
# Total GULP energy -396709.689047 kJ/mol
# GULP energy per Si atom -12397.177783 kJ/mol
# Density = 1.983547 g / cm^3
# Si number density = 19.880720 Si / 1000 Ang^3
#
#
#
# Elastic Constant Matrix: (Units=GPa)
#
#
# Indices 1 2 3 4 5 6 
#
# 1 85.1242 10.0821 21.0369 0.0000 0.0000 0.0000
# 2 10.0821 67.1340 6.1616 0.0000 0.0000 0.0000
# 3 21.0369 6.1616 72.1827 0.0000 0.0000 0.0000
# 4 0.0000 0.0000 0.0000 15.2501 0.0000 0.0000
# 5 0.0000 0.0000 0.0000 0.0000 32.0044 0.0000
# 6 0.0000 0.0000 0.0000 0.0000 0.0000 24.0528
#
#
#
# Elastic Compliance Matrix: (Units=1/GPa)
#
#
# Indices 1 2 3 4 5 6 
#
# 1 0.012827 -0.001596 -0.003602 0.000000 0.000000 0.000000
# 2 -0.001596 0.015212 -0.000833 0.000000 0.000000 0.000000
# 3 -0.003602 -0.000833 0.014975 0.000000 0.000000 0.000000
# 4 0.000000 0.000000 0.000000 0.065573 0.000000 0.000000
# 5 0.000000 0.000000 0.000000 0.000000 0.031246 0.000000
# 6 0.000000 0.000000 0.000000 0.000000 0.000000 0.041575
#
#
# Mechanical properties :
#
#
# Convention : Reuss Voigt Hill
#
# Bulk Modulus (GPa) = 32.30935 33.22244 32.76589
# Shear Modulus (GPa) = 24.53548 26.73882 25.63715
#
# Velocity S-wave (km/s) = 3.51684 3.67135 3.59492
# Velocity P-wave (km/s) = 5.72518 5.89228 5.80933
#
# Compressibility (1/GPa) = 0.03095079
#
# Stress axis : x y z
#
# Youngs Moduli (GPa) = 77.96239 65.73880 66.77958
#
# Poissons Ratio (x) = 0.10490 0.24054
# Poissons Ratio (y) = 0.12440 0.05566
# Poissons Ratio (z) = 0.28082 0.05479
#
# Static dielectric constant tensor:
#      x y z
#    x 4.157690 0.000000 0.000000 
#    y 0.000000 3.447990 0.000000 
#    z 0.000000 0.000000 3.696800 
# 
# 
# High freq. dielectric constant tensor:
#      x y z
#    x 1.791610 0.000000 0.000000 
#    y 0.000000 1.751510 0.000000 
#    z 0.000000 0.000000 1.786190 
# 
# From -- ./inp_files/18808.got.cif
#   From: 2010.03.12/outbox.cif.g09.slc.cpg/sg70_10_cif.got.tgz:18808.got - 2010.04.16 13:46:32.
