data_PCOD8286143
_publ_section_title
;
Structure prediction by ZEFSAII (Michael W. Deem and Ramdas Pophale) SiO2 
 PCOD8286143
Probable space group: F D D D
;
_chemical_formula_sum "Si O2"
_cell_formula_units_Z 80
_cell_length_a 6.946753
_cell_length_b 16.933462
_cell_length_c 32.290331
_cell_angle_alpha 90.000000
_cell_angle_beta 90.000000
_cell_angle_gamma 90.000000
_cell_volume 3798.394878
_symmetry_space_group_name_H-M "F D D D"
_symmetry_group_IT_number 70
_space_group.IT_coordinate_system_code '2'
_symmetry_cell_setting 'orthorhombic'
loop_
_space_group_symop_operation_xyz
x,y,z
1/4-x,1/4-y,z
x,1/4-y,1/4-z
1/4-x,y,1/4-z
-x,-y,-z
3/4+x,3/4+y,-z
-x,3/4+y,3/4+z
3/4+x,-y,3/4+z
x,1/2+y,1/2+z
1/4-x,3/4-y,1/2+z
x,3/4-y,3/4-z
1/4-x,1/2+y,3/4-z
-x,1/2-y,1/2-z
3/4+x,1/4+y,1/2-z
-x,1/4+y,1/4+z
3/4+x,1/2-y,1/4+z
1/2+x,y,1/2+z
3/4-x,1/4-y,1/2+z
1/2+x,1/4-y,3/4-z
3/4-x,y,3/4-z
1/2-x,-y,1/2-z
1/4+x,3/4+y,1/2-z
1/2-x,3/4+y,1/4+z
1/4+x,-y,1/4+z
1/2+x,1/2+y,z
3/4-x,3/4-y,z
1/2+x,3/4-y,1/4-z
3/4-x,1/2+y,1/4-z
1/2-x,1/2-y,-z
1/4+x,1/4+y,-z
1/2-x,1/4+y,3/4+z
1/4+x,1/2-y,3/4+z
loop_
_atom_site_type_symbol
_atom_site_label
_atom_site_fract_x
_atom_site_fract_y
_atom_site_fract_z
Si Si1 0.155108 0.713959 0.872338
Si Si2 0.375000 0.375000 0.744951
Si Si3 0.626573 0.264898 0.694423
O O1 0.125000 0.625000 0.856259
O O2 0.375000 0.741247 0.875000
O O3 0.042927 0.765327 0.837287
O O4 0.066486 0.718534 0.917990
O O5 0.556587 0.344960 0.717695
O O6 0.311161 0.301652 0.773155
#
# Coordination Sequence:
#
# PCOD8286143 Si02
#       3
#    32  16  32
#     4  11  19  37  62  85 113 165 202 234 289 364
#     4  10  20  41  60  90 122 154 190 260 300 349
#     4  10  21  38  63  85 122 154 201 244 300 353
#
# _framework density 21.061527000000002
#
# number of rings (size 3 to 8) (size 9 to 14) (size 15 to 20)
#    0.000    1.600    6.000    0.000    0.000    3.200 
#    0.000   26.000    0.000    0.000    0.000    0.000 
#    0.000    0.000    0.000    0.000    0.000    0.000 
#
# Total GULP energy -247852.816646 kJ/mol
# GULP energy per Si atom -12392.640832 kJ/mol
# Density = 2.101359 g / cm^3
# Si number density = 21.061527 Si / 1000 Ang^3
#
#
#
# Elastic Constant Matrix: (Units=GPa)
#
#
# Indices 1 2 3 4 5 6 
#
# 1 167.2518 33.5764 73.8959 0.0000 0.0000 0.0000
# 2 33.5764 79.8965 52.3949 0.0000 0.0000 0.0000
# 3 73.8959 52.3949 156.4293 0.0000 0.0000 0.0000
# 4 0.0000 0.0000 0.0000 11.6598 0.0000 0.0000
# 5 0.0000 0.0000 0.0000 0.0000 28.4240 0.0000
# 6 0.0000 0.0000 0.0000 0.0000 0.0000 17.7397
#
#
#
# Elastic Compliance Matrix: (Units=1/GPa)
#
#
# Indices 1 2 3 4 5 6 
#
# 1 0.007628 -0.001080 -0.003242 0.000000 0.000000 0.000000
# 2 -0.001080 0.016192 -0.004913 0.000000 0.000000 0.000000
# 3 -0.003242 -0.004913 0.009570 0.000000 0.000000 0.000000
# 4 0.000000 0.000000 0.000000 0.085765 0.000000 0.000000
# 5 0.000000 0.000000 0.000000 0.000000 0.035182 0.000000
# 6 0.000000 0.000000 0.000000 0.000000 0.000000 0.056371
#
#
# Mechanical properties :
#
#
# Convention : Reuss Voigt Hill
#
# Bulk Modulus (GPa) = 67.02374 80.36800 73.69587
# Shear Modulus (GPa) = 21.35382 27.81206 24.58294
#
# Velocity S-wave (km/s) = 3.18760 3.63783 3.42013
# Velocity P-wave (km/s) = 6.74089 7.47573 7.11780
#
# Compressibility (1/GPa) = 0.01492009
#
# Stress axis : x y z
#
# Youngs Moduli (GPa) = 131.09470 61.75867 104.49616
#
# Poissons Ratio (x) = 0.06669 0.33875
# Poissons Ratio (y) = 0.14155 0.51342
# Poissons Ratio (z) = 0.42498 0.30344
#
# Static dielectric constant tensor:
#      x y z
#    x 3.716710 0.000000 0.000000 
#    y 0.000000 3.709960 0.000000 
#    z 0.000000 0.000000 4.155230 
# 
# 
# High freq. dielectric constant tensor:
#      x y z
#    x 1.808840 0.000000 0.000000 
#    y 0.000000 1.785990 0.000000 
#    z 0.000000 0.000000 1.859210 
# 
# From -- ./inp_files/11509.got.cif
#   From: 2010.03.12/outbox.cif.g09.slc.cpg/sg70_6_cif.got.tgz:11509.got - 2010.04.16 13:46:32.
