data_PCOD8286340
_publ_section_title
;
Structure prediction by ZEFSAII (Michael W. Deem and Ramdas Pophale) SiO2 
 PCOD8286340
Probable space group: F D D D
;
_chemical_formula_sum "Si O2"
_cell_formula_units_Z 168
_cell_length_a 19.343667
_cell_length_b 18.589133
_cell_length_c 24.127850
_cell_angle_alpha 90.000000
_cell_angle_beta 90.000000
_cell_angle_gamma 90.000000
_cell_volume 8675.940524
_symmetry_space_group_name_H-M "F D D D"
_symmetry_group_IT_number 70
_space_group.IT_coordinate_system_code '2'
_symmetry_cell_setting 'orthorhombic'
loop_
_space_group_symop_operation_xyz
x,y,z
1/4-x,1/4-y,z
x,1/4-y,1/4-z
1/4-x,y,1/4-z
-x,-y,-z
3/4+x,3/4+y,-z
-x,3/4+y,3/4+z
3/4+x,-y,3/4+z
x,1/2+y,1/2+z
1/4-x,3/4-y,1/2+z
x,3/4-y,3/4-z
1/4-x,1/2+y,3/4-z
-x,1/2-y,1/2-z
3/4+x,1/4+y,1/2-z
-x,1/4+y,1/4+z
3/4+x,1/2-y,1/4+z
1/2+x,y,1/2+z
3/4-x,1/4-y,1/2+z
1/2+x,1/4-y,3/4-z
3/4-x,y,3/4-z
1/2-x,-y,1/2-z
1/4+x,3/4+y,1/2-z
1/2-x,3/4+y,1/4+z
1/4+x,-y,1/4+z
1/2+x,1/2+y,z
3/4-x,3/4-y,z
1/2+x,3/4-y,1/4-z
3/4-x,1/2+y,1/4-z
1/2-x,1/2-y,-z
1/4+x,1/4+y,-z
1/2-x,1/4+y,3/4+z
1/4+x,1/2-y,3/4+z
loop_
_atom_site_type_symbol
_atom_site_label
_atom_site_fract_x
_atom_site_fract_y
_atom_site_fract_z
Si Si1 0.162540 0.736115 0.206155
Si Si2 0.375000 0.875000 0.875000
Si Si3 0.989600 0.938505 0.138663
Si Si4 0.439119 0.451732 0.018464
Si Si5 0.875000 0.375000 0.040181
Si Si6 0.291090 0.290475 0.768143
Si Si7 0.125000 0.850965 0.125000
O O1 0.176373 0.674419 0.160763
O O2 0.117693 0.699161 0.255079
O O3 0.238187 0.762143 0.222631
O O4 0.119053 0.802116 0.180345
O O5 0.940528 0.951972 0.085468
O O6 0.945665 0.883067 0.175653
O O7 0.058272 0.899833 0.118567
O O8 0.013529 0.011354 0.171859
O O9 0.500000 0.500000 0.000000
O O10 0.367758 0.488255 0.997191
O O11 0.452434 0.376241 0.987359
#
# Coordination Sequence:
#
# PCOD8286340 Si02
#       7
#    32   8  32  32  16  32  16
#     4   9  18  35  56  87 120 156 200 246 304 365
#     4   8  16  32  56  84 122 156 182 248 294 362
#     4  11  22  38  62  90 120 166 208 256 317 383
#     4  11  23  41  63  85 123 164 210 263 318 369
#     4   9  20  37  58  84 124 155 200 253 314 366
#     4  10  22  39  61  89 123 160 206 263 311 376
#     4  11  20  33  62  87 121 160 216 238 313 372
#
# _framework density 19.363894999999999
#
# number of rings (size 3 to 8) (size 9 to 14) (size 15 to 20)
#    0.000    1.905    1.905    2.286    0.000    1.524 
#    0.000    3.810    0.000    0.000    0.000    0.000 
#    0.000    0.000    0.000    0.000    0.000    0.000 
#
# Total GULP energy -520344.775202 kJ/mol
# GULP energy per Si atom -12389.161314 kJ/mol
# Density = 1.931982 g / cm^3
# Si number density = 19.363895 Si / 1000 Ang^3
#
#
#
# Elastic Constant Matrix: (Units=GPa)
#
#
# Indices 1 2 3 4 5 6 
#
# 1 93.0705 29.4870 18.5694 0.0000 0.0000 0.0000
# 2 29.4870 64.9301 32.3047 0.0000 0.0000 0.0000
# 3 18.5694 32.3047 86.2333 0.0000 0.0000 0.0000
# 4 0.0000 0.0000 0.0000 23.9881 0.0000 0.0000
# 5 0.0000 0.0000 0.0000 0.0000 28.1039 0.0000
# 6 0.0000 0.0000 0.0000 0.0000 0.0000 38.2357
#
#
#
# Elastic Compliance Matrix: (Units=1/GPa)
#
#
# Indices 1 2 3 4 5 6 
#
# 1 0.012584 -0.005367 -0.000699 0.000000 0.000000 0.000000
# 2 -0.005367 0.021218 -0.006793 0.000000 0.000000 0.000000
# 3 -0.000699 -0.006793 0.014292 0.000000 0.000000 0.000000
# 4 0.000000 0.000000 0.000000 0.041687 0.000000 0.000000
# 5 0.000000 0.000000 0.000000 0.000000 0.035582 0.000000
# 6 0.000000 0.000000 0.000000 0.000000 0.000000 0.026154
#
#
# Mechanical properties :
#
#
# Convention : Reuss Voigt Hill
#
# Bulk Modulus (GPa) = 44.69131 44.99510 44.84320
# Shear Modulus (GPa) = 27.07162 28.99040 28.03101
#
# Velocity S-wave (km/s) = 3.74310 3.87348 3.80885
# Velocity P-wave (km/s) = 6.46613 6.57968 6.52315
#
# Compressibility (1/GPa) = 0.02237572
#
# Stress axis : x y z
#
# Youngs Moduli (GPa) = 79.46287 47.12913 69.96996
#
# Poissons Ratio (x) = 0.25295 0.04893
# Poissons Ratio (y) = 0.42649 0.47531
# Poissons Ratio (z) = 0.05557 0.32015
#
# Static dielectric constant tensor:
#      x y z
#    x 0.000000 0.000000 0.000000 
#    y 0.000000 0.000000 0.000000 
#    z 0.000000 0.000000 0.000000 
# 
# 
# High freq. dielectric constant tensor:
#      x y z
#    x 1.750620 0.000000 0.000000 
#    y 0.000000 1.751590 0.000000 
#    z 0.000000 0.000000 1.760890 
# 
# From -- ./inp_files/45896.got.cif
#   From: 2010.03.12/outbox.cif.g09.slc.cpg/sg70_23_cif.got.tgz:45896.got - 2010.04.16 13:46:32.
