data_PCOD8286991
_publ_section_title
;
Structure prediction by ZEFSAII (Michael W. Deem and Ramdas Pophale) SiO2 
 PCOD8286991
Probable space group: I M M M
;
_chemical_formula_sum "Si O2"
_cell_formula_units_Z 88
_cell_length_a 16.826262
_cell_length_b 24.844223
_cell_length_c 13.789018
_cell_angle_alpha 90.000000
_cell_angle_beta 90.000000
_cell_angle_gamma 90.000000
_cell_volume 5764.297729
_symmetry_space_group_name_H-M "I M M M"
_symmetry_group_IT_number 71
_symmetry_cell_setting 'orthorhombic'
loop_
_space_group_symop_operation_xyz
x,y,z
-x,-y,z
x,-y,-z
-x,y,-z
-x,-y,-z
x,y,-z
-x,y,z
x,-y,z
1/2+x,1/2+y,1/2+z
1/2-x,1/2-y,1/2+z
1/2+x,1/2-y,1/2-z
1/2-x,1/2+y,1/2-z
1/2-x,1/2-y,1/2-z
1/2+x,1/2+y,1/2-z
1/2-x,1/2+y,1/2+z
1/2+x,1/2-y,1/2+z
loop_
_atom_site_type_symbol
_atom_site_label
_atom_site_fract_x
_atom_site_fract_y
_atom_site_fract_z
Si Si1 0.094058 0.602848 0.269940
Si Si2 0.592846 0.265848 0.391366
Si Si3 0.184483 0.653243 0.888591
Si Si4 0.406307 0.794868 0.107474
Si Si5 0.184537 0.208793 0.282963
Si Si6 0.094421 0.500000 0.609720
O O1 0.137244 0.604941 0.165329
O O2 0.122736 0.656694 0.324663
O O3 0.124591 0.552285 0.332318
O O4 0.000000 0.599920 0.254487
O O5 0.606251 0.288618 0.500000
O O6 0.500000 0.259557 0.367409
O O7 0.631971 0.207236 0.380586
O O8 0.633292 0.306890 0.313604
O O9 0.271248 0.659566 0.837044
O O10 0.197336 0.636472 0.000000
O O11 0.500000 0.791359 0.108574
O O12 0.373319 0.737627 0.140911
O O13 0.374202 0.807054 0.000000
O O14 0.250000 0.250000 0.250000
O O15 0.129198 0.500000 0.500000
O O16 0.000000 0.500000 0.603464
#
# Coordination Sequence:
#
# PCOD8286991 Si02
#       6
#    16  16  16  16  16   8
#     4  10  18  30  45  62  81 108 145 181 217 255
#     4   9  16  26  40  57  79 110 145 176 206 241
#     4  10  19  29  41  59  83 112 144 179 216 251
#     4  10  18  27  41  60  82 111 146 177 205 245
#     4  10  17  27  38  57  84 110 141 177 209 246
#     4   9  18  32  47  63  83 105 135 182 230 259
#
# _framework density 15.266387
#
# number of rings (size 3 to 8) (size 9 to 14) (size 15 to 20)
#    0.000    2.273    3.636    2.182    0.000    4.000 
#    0.000    0.455    0.000    1.636    0.000    0.000 
#    0.000    0.000    0.000    3.273    0.000   21.818 
#
# Total GULP energy -545315.725250 kJ/mol
# GULP energy per Si atom -12393.539210 kJ/mol
# Density = 1.523164 g / cm^3
# Si number density = 15.266387 Si / 1000 Ang^3
#
#
#
# Elastic Constant Matrix: (Units=GPa)
#
#
# Indices 1 2 3 4 5 6 
#
# 1 41.6790 16.6533 48.9511 0.0000 0.0000 0.0000
# 2 16.6533 43.5475 36.8691 0.0000 0.0000 0.0000
# 3 48.9511 36.8691 139.9006 0.0000 0.0000 0.0000
# 4 0.0000 0.0000 0.0000 20.1771 0.0000 0.0000
# 5 0.0000 0.0000 0.0000 0.0000 28.9037 0.0000
# 6 0.0000 0.0000 0.0000 0.0000 0.0000 13.7172
#
#
#
# Elastic Compliance Matrix: (Units=1/GPa)
#
#
# Indices 1 2 3 4 5 6 
#
# 1 0.041434 -0.004596 -0.013286 0.000000 0.000000 0.000000
# 2 -0.004596 0.030068 -0.006316 0.000000 0.000000 0.000000
# 3 -0.013286 -0.006316 0.013461 0.000000 0.000000 0.000000
# 4 0.000000 0.000000 0.000000 0.049561 0.000000 0.000000
# 5 0.000000 0.000000 0.000000 0.000000 0.034598 0.000000
# 6 0.000000 0.000000 0.000000 0.000000 0.000000 0.072901
#
#
# Mechanical properties :
#
#
# Convention : Reuss Voigt Hill
#
# Bulk Modulus (GPa) = 27.34742 47.78601 37.56671
# Shear Modulus (GPa) = 16.52291 20.73650 18.62970
#
# Velocity S-wave (km/s) = 3.29341 3.68953 3.49708
# Velocity P-wave (km/s) = 5.69337 7.03701 6.40055
#
# Compressibility (1/GPa) = 0.03656652
#
# Stress axis : x y z
#
# Youngs Moduli (GPa) = 24.13479 33.25740 74.28687
#
# Poissons Ratio (x) = 0.15286 0.98701
# Poissons Ratio (y) = 0.11093 0.46919
# Poissons Ratio (z) = 0.32066 0.21005
#
# Static dielectric constant tensor:
#      x y z
#    x 2.985600 0.000000 0.000000 
#    y 0.000000 2.523300 0.000000 
#    z 0.000000 0.000000 3.425530 
# 
# 
# High freq. dielectric constant tensor:
#      x y z
#    x 1.571970 0.000000 0.000000 
#    y 0.000000 1.514800 0.000000 
#    z 0.000000 0.000000 1.611720 
# 
# From -- ./inp_files/34709.got.cif
#   From: 2010.06.25/outbox.cif.g09.slc.cpg/sg71_18_cif.got.tgz:34709.got - 2010.06.28 04:59:45.
