data_PCOD8286160
_publ_section_title
;
Structure prediction by ZEFSAII (Michael W. Deem and Ramdas Pophale) SiO2 
 PCOD8286160
Probable space group: F D D D
;
_chemical_formula_sum "Si O2"
_cell_formula_units_Z 160
_cell_length_a 22.917739
_cell_length_b 27.945560
_cell_length_c 10.445710
_cell_angle_alpha 90.000000
_cell_angle_beta 90.000000
_cell_angle_gamma 90.000000
_cell_volume 6689.945049
_symmetry_space_group_name_H-M "F D D D"
_symmetry_group_IT_number 70
_space_group.IT_coordinate_system_code '2'
_symmetry_cell_setting 'orthorhombic'
loop_
_space_group_symop_operation_xyz
x,y,z
1/4-x,1/4-y,z
x,1/4-y,1/4-z
1/4-x,y,1/4-z
-x,-y,-z
3/4+x,3/4+y,-z
-x,3/4+y,3/4+z
3/4+x,-y,3/4+z
x,1/2+y,1/2+z
1/4-x,3/4-y,1/2+z
x,3/4-y,3/4-z
1/4-x,1/2+y,3/4-z
-x,1/2-y,1/2-z
3/4+x,1/4+y,1/2-z
-x,1/4+y,1/4+z
3/4+x,1/2-y,1/4+z
1/2+x,y,1/2+z
3/4-x,1/4-y,1/2+z
1/2+x,1/4-y,3/4-z
3/4-x,y,3/4-z
1/2-x,-y,1/2-z
1/4+x,3/4+y,1/2-z
1/2-x,3/4+y,1/4+z
1/4+x,-y,1/4+z
1/2+x,1/2+y,z
3/4-x,3/4-y,z
1/2+x,3/4-y,1/4-z
3/4-x,1/2+y,1/4-z
1/2-x,1/2-y,-z
1/4+x,1/4+y,-z
1/2-x,1/4+y,3/4+z
1/4+x,1/2-y,3/4+z
loop_
_atom_site_type_symbol
_atom_site_label
_atom_site_fract_x
_atom_site_fract_y
_atom_site_fract_z
Si Si1 0.804221 0.125000 0.125000
Si Si2 0.006280 0.549131 0.576771
Si Si3 0.116628 0.960977 0.855454
Si Si4 0.220631 0.610957 0.899187
Si Si5 0.625000 0.509910 0.125000
Si Si6 0.111464 0.190112 0.767089
O O1 0.844740 0.084061 0.183801
O O2 0.766337 0.148794 0.237704
O O3 0.001542 0.597887 0.488963
O O4 0.069142 0.545176 0.646590
O O5 0.000000 0.500000 0.500000
O O6 0.951620 0.550924 0.676073
O O7 0.144455 0.002941 0.768890
O O8 0.120330 0.974623 0.004693
O O9 0.168112 0.572669 0.900193
O O10 0.195282 0.664575 0.920513
O O11 0.125000 0.170767 0.625000
#
# Coordination Sequence:
#
# PCOD8286160 Si02
#       6
#    16  32  32  32  16  32
#     4  12  24  43  66  97 140 184 220 282 356 404
#     4  10  20  42  68  98 134 174 216 284 333 409
#     4  11  25  43  67 103 136 179 228 281 348 404
#     4  11  21  42  71  97 135 178 226 278 348 397
#     4  10  20  42  75  90 134 178 220 275 336 404
#     4  11  22  44  69 102 132 175 233 288 327 413
#
# _framework density 23.916488999999999
#
# number of rings (size 3 to 8) (size 9 to 14) (size 15 to 20)
#    0.000    1.200    6.000    3.000    0.000    0.800 
#    9.000    1.000    0.000    0.000    0.000    0.000 
#    0.000    0.000    0.000    0.000    0.000    0.000 
#
# Total GULP energy -495810.267908 kJ/mol
# GULP energy per Si atom -12395.256698 kJ/mol
# Density = 2.386205 g / cm^3
# Si number density = 23.916489 Si / 1000 Ang^3
#
#
#
# Elastic Constant Matrix: (Units=GPa)
#
#
# Indices 1 2 3 4 5 6 
#
# 1 145.9021 47.6019 -6.0245 0.0001 -0.0001 -0.0001
# 2 47.6019 134.1206 1.8395 0.0000 0.0000 0.0000
# 3 -6.0245 1.8395 37.7481 0.0003 -0.0004 -0.0002
# 4 0.0001 0.0000 0.0003 28.8369 -0.0001 -0.0001
# 5 -0.0001 0.0000 -0.0004 -0.0001 20.7387 0.0001
# 6 -0.0001 0.0000 -0.0002 -0.0001 0.0001 24.3700
#
#
#
# Elastic Compliance Matrix: (Units=1/GPa)
#
#
# Indices 1 2 3 4 5 6 
#
# 1 0.007823 -0.002796 0.001385 0.000000 0.000000 0.000000
# 2 -0.002796 0.008460 -0.000858 0.000000 0.000000 0.000000
# 3 0.001385 -0.000858 0.026754 0.000000 0.000000 0.000000
# 4 0.000000 0.000000 0.000000 0.034678 0.000000 0.000000
# 5 0.000000 0.000000 0.000000 0.000000 0.048219 0.000000
# 6 0.000000 0.000000 0.000000 0.000000 0.000000 0.041034
#
#
# Mechanical properties :
#
#
# Convention : Reuss Voigt Hill
#
# Bulk Modulus (GPa) = 25.97477 44.95608 35.46542
# Shear Modulus (GPa) = 27.12387 33.07940 30.10163
#
# Velocity S-wave (km/s) = 3.37130 3.72307 3.55154
# Velocity P-wave (km/s) = 5.10279 6.10897 5.62841
#
# Compressibility (1/GPa) = 0.03849890
#
# Stress axis : x y z
#
# Youngs Moduli (GPa) = 127.82533 118.20397 37.37729
#
# Poissons Ratio (x) = 0.33045 -0.05176
# Poissons Ratio (y) = 0.35735 0.03209
# Poissons Ratio (z) = -0.17701 0.10147
#
# Static dielectric constant tensor:
#      x y z
#    x 5.065430 0.000000 0.000000 
#    y 0.000000 4.060710 0.000000 
#    z 0.000000 0.000000 3.929530 
# 
# 
# High freq. dielectric constant tensor:
#      x y z
#    x 1.960860 0.000000 0.000000 
#    y 0.000000 1.944510 0.000000 
#    z 0.000000 0.000000 1.919800 
# 
# From -- ./inp_files/19549.got.cif
#   From: 2010.03.12/outbox.cif.g09.slc.cpg/sg70_10_cif.got.tgz:19549.got - 2010.04.16 13:46:32.
