data_PCOD8286378
_publ_section_title
;
Structure prediction by ZEFSAII (Michael W. Deem and Ramdas Pophale) SiO2 
 PCOD8286378
Probable space group: F D D D
;
_chemical_formula_sum "Si O2"
_cell_formula_units_Z 168
_cell_length_a 27.714248
_cell_length_b 21.601710
_cell_length_c 14.179895
_cell_angle_alpha 90.000000
_cell_angle_beta 90.000000
_cell_angle_gamma 90.000000
_cell_volume 8489.150740
_symmetry_space_group_name_H-M "F D D D"
_symmetry_group_IT_number 70
_space_group.IT_coordinate_system_code '2'
_symmetry_cell_setting 'orthorhombic'
loop_
_space_group_symop_operation_xyz
x,y,z
1/4-x,1/4-y,z
x,1/4-y,1/4-z
1/4-x,y,1/4-z
-x,-y,-z
3/4+x,3/4+y,-z
-x,3/4+y,3/4+z
3/4+x,-y,3/4+z
x,1/2+y,1/2+z
1/4-x,3/4-y,1/2+z
x,3/4-y,3/4-z
1/4-x,1/2+y,3/4-z
-x,1/2-y,1/2-z
3/4+x,1/4+y,1/2-z
-x,1/4+y,1/4+z
3/4+x,1/2-y,1/4+z
1/2+x,y,1/2+z
3/4-x,1/4-y,1/2+z
1/2+x,1/4-y,3/4-z
3/4-x,y,3/4-z
1/2-x,-y,1/2-z
1/4+x,3/4+y,1/2-z
1/2-x,3/4+y,1/4+z
1/4+x,-y,1/4+z
1/2+x,1/2+y,z
3/4-x,3/4-y,z
1/2+x,3/4-y,1/4-z
3/4-x,1/2+y,1/4-z
1/2-x,1/2-y,-z
1/4+x,1/4+y,-z
1/2-x,1/4+y,3/4+z
1/4+x,1/2-y,3/4+z
loop_
_atom_site_type_symbol
_atom_site_label
_atom_site_fract_x
_atom_site_fract_y
_atom_site_fract_z
Si Si1 0.567544 0.132287 0.801349
Si Si2 0.130257 0.446522 0.851501
Si Si3 0.875000 0.875000 0.375000
Si Si4 0.172980 0.741387 0.573853
Si Si5 0.285909 0.003446 0.514694
Si Si6 0.816435 0.794193 0.231650
O O1 0.625000 0.125000 0.802302
O O2 0.551245 0.182298 0.723128
O O3 0.550845 0.156102 0.903175
O O4 0.540920 0.069587 0.777512
O O5 0.136005 0.375000 0.875000
O O6 0.160220 0.458194 0.755720
O O7 0.073672 0.462048 0.833779
O O8 0.151395 0.489000 0.935671
O O9 0.844805 0.828931 0.311784
O O10 0.125000 0.716274 0.625000
O O11 0.206454 0.771433 0.654194
O O12 0.230886 0.019861 0.536564
#
# Coordination Sequence:
#
# PCOD8286378 Si02
#       6
#    32  32   8  32  32  32
#     4  11  18  39  67  91 131 161 203 266 316 379
#     4  10  22  41  59  91 140 160 194 275 330 371
#     4  12  24  52  64  84 126 176 244 254 300 380
#     4   9  18  33  63  94 122 163 200 250 323 391
#     4  11  22  37  66 100 118 165 216 251 329 389
#     4  11  25  43  66  90 123 175 216 269 311 379
#
# _framework density 19.789964999999999
#
# number of rings (size 3 to 8) (size 9 to 14) (size 15 to 20)
#    0.000    1.524    6.667    0.571    1.333    6.095 
#    8.571    1.905    0.000    0.000    0.000    0.000 
#    0.000    0.000    0.000    0.000    0.000    0.000 
#
# Total GULP energy -520701.131517 kJ/mol
# GULP energy per Si atom -12397.645989 kJ/mol
# Density = 1.974492 g / cm^3
# Si number density = 19.789965 Si / 1000 Ang^3
#
#
#
# Elastic Constant Matrix: (Units=GPa)
#
#
# Indices 1 2 3 4 5 6 
#
# 1 126.5161 63.6092 47.8843 0.0000 0.0000 0.0000
# 2 63.6092 150.5450 76.3038 0.0000 0.0000 0.0000
# 3 47.8843 76.3038 103.3514 0.0000 -0.0001 0.0000
# 4 0.0000 0.0000 0.0000 19.7490 0.0000 0.0000
# 5 0.0000 0.0000 -0.0001 0.0000 -269.5798 0.0000
# 6 0.0000 0.0000 0.0000 0.0000 0.0000 51.9095
#
#
#
# Elastic Compliance Matrix: (Units=1/GPa)
#
#
# Indices 1 2 3 4 5 6 
#
# 1 0.010432 -0.003129 -0.002523 0.000000 0.000000 0.000000
# 2 -0.003129 0.011553 -0.007080 0.000000 0.000000 0.000000
# 3 -0.002523 -0.007080 0.016072 0.000000 0.000000 0.000000
# 4 0.000000 0.000000 0.000000 0.050636 0.000000 0.000000
# 5 0.000000 0.000000 0.000000 0.000000 -0.003709 0.000000
# 6 0.000000 0.000000 0.000000 0.000000 0.000000 0.019264
#
#
# Mechanical properties :
#
#
# Convention : Reuss Voigt Hill
#
# Bulk Modulus (GPa) = 79.40996 84.00079 81.70537
# Shear Modulus (GPa) = 37.33861 -26.74326 5.29768
#
# Velocity S-wave (km/s) = 4.34838 -3.68007 1.63791
# Velocity P-wave (km/s) = 8.08855 4.94784 6.70469
#
# Compressibility (1/GPa) = 0.01259288
#
# Stress axis : x y z
#
# Youngs Moduli (GPa) = 95.85562 86.55736 62.22055
#
# Poissons Ratio (x) = 0.27084 0.15701
# Poissons Ratio (y) = 0.29993 0.44051
# Poissons Ratio (z) = 0.24188 0.61281
#
# Static dielectric constant tensor:
#      x y z
#    x 3.598950 0.000000 0.000000 
#    y 0.000000 3.680720 0.000000 
#    z 0.000000 0.000000 3.822440 
# 
# 
# High freq. dielectric constant tensor:
#      x y z
#    x 1.759270 0.000000 0.000000 
#    y 0.000000 1.768090 0.000000 
#    z 0.000000 0.000000 1.773190 
# 
# From -- ./inp_files/27831.got.cif
#   From: 2010.03.12/outbox.cif.g09.slc.cpg/sg70_14_cif.got.tgz:27831.got - 2010.04.16 13:46:32.
