data_PCOD8286848
_publ_section_title
;
Structure prediction by ZEFSAII (Michael W. Deem and Ramdas Pophale) SiO2 
 PCOD8286848
Probable space group: F D D D
;
_chemical_formula_sum "Si O2"
_cell_formula_units_Z 176
_cell_length_a 24.012124
_cell_length_b 25.281253
_cell_length_c 12.295009
_cell_angle_alpha 90.000000
_cell_angle_beta 90.000000
_cell_angle_gamma 90.000000
_cell_volume 7463.766138
_symmetry_space_group_name_H-M "F D D D"
_symmetry_group_IT_number 70
_space_group.IT_coordinate_system_code '2'
_symmetry_cell_setting 'orthorhombic'
loop_
_space_group_symop_operation_xyz
x,y,z
1/4-x,1/4-y,z
x,1/4-y,1/4-z
1/4-x,y,1/4-z
-x,-y,-z
3/4+x,3/4+y,-z
-x,3/4+y,3/4+z
3/4+x,-y,3/4+z
x,1/2+y,1/2+z
1/4-x,3/4-y,1/2+z
x,3/4-y,3/4-z
1/4-x,1/2+y,3/4-z
-x,1/2-y,1/2-z
3/4+x,1/4+y,1/2-z
-x,1/4+y,1/4+z
3/4+x,1/2-y,1/4+z
1/2+x,y,1/2+z
3/4-x,1/4-y,1/2+z
1/2+x,1/4-y,3/4-z
3/4-x,y,3/4-z
1/2-x,-y,1/2-z
1/4+x,3/4+y,1/2-z
1/2-x,3/4+y,1/4+z
1/4+x,-y,1/4+z
1/2+x,1/2+y,z
3/4-x,3/4-y,z
1/2+x,3/4-y,1/4-z
3/4-x,1/2+y,1/4-z
1/2-x,1/2-y,-z
1/4+x,1/4+y,-z
1/2-x,1/4+y,3/4+z
1/4+x,1/2-y,3/4+z
loop_
_atom_site_type_symbol
_atom_site_label
_atom_site_fract_x
_atom_site_fract_y
_atom_site_fract_z
Si Si1 0.257426 0.437727 0.538876
Si Si2 0.626473 0.186159 0.913616
Si Si3 0.701783 0.511757 0.666981
Si Si4 0.819241 0.965150 0.940752
Si Si5 0.761063 0.625000 0.125000
Si Si6 0.437195 0.644530 0.900770
O O1 0.312092 0.451296 0.612830
O O2 0.277724 0.441799 0.413898
O O3 0.207647 0.477629 0.561756
O O4 0.232224 0.379693 0.565236
O O5 0.625000 0.125000 0.946361
O O6 0.667863 0.196267 0.813338
O O7 0.646543 0.219944 0.018271
O O8 0.750000 0.500000 0.750000
O O9 0.690753 0.458045 0.599247
O O10 0.875000 0.967801 0.875000
O O11 0.777906 0.925793 0.880884
O O12 0.800085 0.621549 0.230135
O O13 0.375000 0.625497 0.875000
#
# Coordination Sequence:
#
# PCOD8286848 Si02
#       6
#    32  32  32  32  16  32
#     4  12  26  46  75 111 147 204 256 319 392 466
#     4  12  26  48  77 109 151 204 263 320 390 464
#     4  12  25  50  75 109 157 200 257 326 391 465
#     4  12  25  46  74 112 151 200 260 325 378 468
#     4  12  25  50  78 104 152 204 257 322 396 462
#     4  12  28  49  73 114 156 203 253 322 399 465
#
# _framework density 23.580589
#
# number of rings (size 3 to 8) (size 9 to 14) (size 15 to 20)
#    0.000    0.000    3.636    6.818    0.000    9.455 
#    0.000    0.000    0.000    0.000    0.000    0.000 
#    0.000    0.000    0.000    0.000    0.000    0.000 
#
# Total GULP energy -545795.827585 kJ/mol
# GULP energy per Si atom -12404.450627 kJ/mol
# Density = 2.352692 g / cm^3
# Si number density = 23.580589 Si / 1000 Ang^3
#
#
#
# Elastic Constant Matrix: (Units=GPa)
#
#
# Indices 1 2 3 4 5 6 
#
# 1 154.1617 37.3360 66.7570 0.0000 0.0000 0.0006
# 2 37.3360 109.4905 58.0311 0.0000 0.0000 0.0006
# 3 66.7570 58.0311 136.0565 0.0000 0.0000 0.0019
# 4 0.0000 0.0000 0.0000 38.1195 0.0000 0.0002
# 5 0.0000 0.0000 0.0000 0.0000 48.1570 -0.0010
# 6 0.0006 0.0006 0.0019 0.0002 -0.0010 1764.8262
#
#
#
# Elastic Compliance Matrix: (Units=1/GPa)
#
#
# Indices 1 2 3 4 5 6 
#
# 1 0.008300 -0.000868 -0.003702 0.000000 0.000000 0.000000
# 2 -0.000868 0.011892 -0.004646 0.000000 0.000000 0.000000
# 3 -0.003702 -0.004646 0.011148 0.000000 0.000000 0.000000
# 4 0.000000 0.000000 0.000000 0.026233 0.000000 0.000000
# 5 0.000000 0.000000 0.000000 0.000000 0.020765 0.000000
# 6 0.000000 0.000000 0.000000 0.000000 0.000000 0.000567
#
#
# Mechanical properties :
#
#
# Convention : Reuss Voigt Hill
#
# Bulk Modulus (GPa) = 77.47744 80.43966 78.95855
# Shear Modulus (GPa) = 49.19294 386.05953 217.62624
#
# Velocity S-wave (km/s) = 4.57241 12.80916 9.61721
# Velocity P-wave (km/s) = 7.79767 15.90449 12.52511
#
# Compressibility (1/GPa) = 0.01290698
#
# Stress axis : x y z
#
# Youngs Moduli (GPa) = 120.48003 84.09195 89.70131
#
# Poissons Ratio (x) = 0.07300 0.33210
# Poissons Ratio (y) = 0.10459 0.41677
# Poissons Ratio (z) = 0.44605 0.39070
#
# Static dielectric constant tensor:
#      x y z
#    x 4.709490 0.000000 0.000000 
#    y 0.000000 4.326820 0.000000 
#    z 0.000000 0.000000 4.300650 
# 
# 
# High freq. dielectric constant tensor:
#      x y z
#    x 1.964560 0.000000 0.000000 
#    y 0.000000 1.932830 0.000000 
#    z 0.000000 0.000000 1.933410 
# 
# From -- ./inp_files/20966.got.cif
#   From: 2010.03.12/outbox.cif.g09.slc.cpg/sg70_11_cif.got.tgz:20966.got - 2010.04.16 13:46:32.
