data_PCOD8286420
_publ_section_title
;
Structure prediction by ZEFSAII (Michael W. Deem and Ramdas Pophale) SiO2 
 PCOD8286420
Probable space group: F D D D
;
_chemical_formula_sum "Si O2"
_cell_formula_units_Z 112
_cell_length_a 26.322052
_cell_length_b 22.846636
_cell_length_c 7.879661
_cell_angle_alpha 90.000000
_cell_angle_beta 90.000000
_cell_angle_gamma 90.000000
_cell_volume 4738.594421
_symmetry_space_group_name_H-M "F D D D"
_symmetry_group_IT_number 70
_space_group.IT_coordinate_system_code '2'
_symmetry_cell_setting 'orthorhombic'
loop_
_space_group_symop_operation_xyz
x,y,z
1/4-x,1/4-y,z
x,1/4-y,1/4-z
1/4-x,y,1/4-z
-x,-y,-z
3/4+x,3/4+y,-z
-x,3/4+y,3/4+z
3/4+x,-y,3/4+z
x,1/2+y,1/2+z
1/4-x,3/4-y,1/2+z
x,3/4-y,3/4-z
1/4-x,1/2+y,3/4-z
-x,1/2-y,1/2-z
3/4+x,1/4+y,1/2-z
-x,1/4+y,1/4+z
3/4+x,1/2-y,1/4+z
1/2+x,y,1/2+z
3/4-x,1/4-y,1/2+z
1/2+x,1/4-y,3/4-z
3/4-x,y,3/4-z
1/2-x,-y,1/2-z
1/4+x,3/4+y,1/2-z
1/2-x,3/4+y,1/4+z
1/4+x,-y,1/4+z
1/2+x,1/2+y,z
3/4-x,3/4-y,z
1/2+x,3/4-y,1/4-z
3/4-x,1/2+y,1/4-z
1/2-x,1/2-y,-z
1/4+x,1/4+y,-z
1/2-x,1/4+y,3/4+z
1/4+x,1/2-y,3/4+z
loop_
_atom_site_type_symbol
_atom_site_label
_atom_site_fract_x
_atom_site_fract_y
_atom_site_fract_z
Si Si1 0.995850 0.125000 0.625000
Si Si2 0.065912 0.694184 0.648895
Si Si3 0.820054 0.144443 0.816258
Si Si4 0.474297 0.488675 0.252751
O O1 0.965605 0.138133 0.451119
O O2 0.025912 0.186213 0.643219
O O3 0.056964 0.625000 0.625000
O O4 0.125000 0.711212 0.625000
O O5 0.049980 0.711857 0.835789
O O6 0.029664 0.730778 0.521562
O O7 0.806474 0.125000 0.625000
O O8 0.875000 0.124306 0.875000
O O9 0.814263 0.214006 0.830202
#
# Coordination Sequence:
#
# PCOD8286420 Si02
#       4
#    16  32  32  32
#     4  12  26  46  73 104 148 186 243 304 364 434
#     4  10  22  43  73 104 142 191 239 296 365 430
#     4  12  26  46  73 106 143 191 243 301 365 431
#     4  11  24  43  70 104 145 187 239 299 357 434
#
# _framework density 23.635701999999998
#
# number of rings (size 3 to 8) (size 9 to 14) (size 15 to 20)
#    0.000    0.857    1.429    6.857    4.000    2.286 
#    5.143    0.000    0.000    0.000    0.000    0.000 
#    0.000    0.000    0.000    0.000    0.000    0.000 
#
# Total GULP energy -347127.085598 kJ/mol
# GULP energy per Si atom -12397.395914 kJ/mol
# Density = 2.358191 g / cm^3
# Si number density = 23.635702 Si / 1000 Ang^3
#
#
#
# Elastic Constant Matrix: (Units=GPa)
#
#
# Indices 1 2 3 4 5 6 
#
# 1 104.5723 30.4146 22.1742 -0.0005 -0.0004 0.0000
# 2 30.4146 154.2972 11.5216 -0.0024 0.0062 -0.0036
# 3 22.1742 11.5216 111.4320 -0.0057 0.0127 -0.0134
# 4 -0.0005 -0.0024 -0.0057 46.2984 0.0067 -0.0071
# 5 -0.0004 0.0062 0.0127 0.0067 12.9563 0.0038
# 6 0.0000 -0.0036 -0.0134 -0.0071 0.0038 10.5205
#
#
#
# Elastic Compliance Matrix: (Units=1/GPa)
#
#
# Indices 1 2 3 4 5 6 
#
# 1 0.010527 -0.001934 -0.001895 0.000000 0.000003 -0.000003
# 2 -0.001934 0.006887 -0.000327 0.000000 -0.000003 0.000002
# 3 -0.001895 -0.000327 0.009385 0.000001 -0.000009 0.000012
# 4 0.000000 0.000000 0.000001 0.021599 -0.000011 0.000014
# 5 0.000003 -0.000003 -0.000009 -0.000011 0.077183 -0.000028
# 6 -0.000003 0.000002 0.000012 0.000014 -0.000028 0.095052
#
#
# Mechanical properties :
#
#
# Convention : Reuss Voigt Hill
#
# Bulk Modulus (GPa) = 54.09175 55.39137 54.74156
# Shear Modulus (GPa) = 21.26698 34.36778 27.81738
#
# Velocity S-wave (km/s) = 3.00289 3.81735 3.43435
# Velocity P-wave (km/s) = 5.91257 6.55102 6.23997
#
# Compressibility (1/GPa) = 0.01848711
#
# Stress axis : x y z
#
# Youngs Moduli (GPa) = 94.99444 145.21020 106.55315
#
# Poissons Ratio (x) = 0.28077 0.20190
# Poissons Ratio (y) = 0.18368 0.03487
# Poissons Ratio (z) = 0.18000 0.04752
#
# Static dielectric constant tensor:
#      x y z
#    x 4.260200 0.000000 0.000000 
#    y 0.000000 4.603140 0.000000 
#    z 0.000000 0.000000 4.150730 
# 
# 
# High freq. dielectric constant tensor:
#      x y z
#    x 1.924070 0.000000 0.000000 
#    y 0.000000 1.962910 0.000000 
#    z 0.000000 0.000000 1.937490 
# 
# From -- ./inp_files/10674.got.cif
#   From: 2010.03.12/outbox.cif.g09.slc.cpg/sg70_6_cif.got.tgz:10674.got - 2010.04.16 13:46:32.
