data_PCOD8286989
_publ_section_title
;
Structure prediction by ZEFSAII (Michael W. Deem and Ramdas Pophale) SiO2 
 PCOD8286989
Probable space group: I M M M
;
_chemical_formula_sum "Si O2"
_cell_formula_units_Z 104
_cell_length_a 16.862812
_cell_length_b 21.862151
_cell_length_c 22.015454
_cell_angle_alpha 90.000000
_cell_angle_beta 90.000000
_cell_angle_gamma 90.000000
_cell_volume 8116.158760
_symmetry_space_group_name_H-M "I M M M"
_symmetry_group_IT_number 71
_symmetry_cell_setting 'orthorhombic'
loop_
_space_group_symop_operation_xyz
x,y,z
-x,-y,z
x,-y,-z
-x,y,-z
-x,-y,-z
x,y,-z
-x,y,z
x,-y,z
1/2+x,1/2+y,1/2+z
1/2-x,1/2-y,1/2+z
1/2+x,1/2-y,1/2-z
1/2-x,1/2+y,1/2-z
1/2-x,1/2-y,1/2-z
1/2+x,1/2+y,1/2-z
1/2-x,1/2+y,1/2+z
1/2+x,1/2-y,1/2+z
loop_
_atom_site_type_symbol
_atom_site_label
_atom_site_fract_x
_atom_site_fract_y
_atom_site_fract_z
Si Si1 0.656522 0.364847 0.429196
Si Si2 0.591501 0.233981 0.569490
Si Si3 0.911969 0.427553 0.500000
Si Si4 0.909457 0.428996 0.731322
Si Si5 0.405253 0.000000 0.431305
Si Si6 0.309501 0.927971 0.113516
Si Si7 0.093807 0.616436 0.139982
Si Si8 0.500000 0.431252 0.572194
O O1 0.670730 0.380929 0.500000
O O2 0.646843 0.292535 0.419303
O O3 0.728831 0.389722 0.389323
O O4 0.578134 0.397672 0.403538
O O5 0.598195 0.211587 0.500000
O O6 0.500000 0.250938 0.584005
O O7 0.624946 0.180461 0.612841
O O8 0.918606 0.500000 0.500000
O O9 0.866273 0.405033 0.559639
O O10 0.000000 0.398635 0.500000
O O11 0.902435 0.500000 0.749231
O O12 0.852120 0.411789 0.676345
O O13 0.882295 0.389225 0.789358
O O14 0.000000 0.414083 0.712405
O O15 0.370211 0.940055 0.398036
O O16 0.500000 0.000000 0.428814
O O17 0.374022 0.000000 0.500000
O O18 0.290863 0.000000 0.107536
O O19 0.000000 0.614196 0.132728
O O20 0.500000 0.500000 0.597137
O O21 0.500000 0.428563 0.500000
#
# Coordination Sequence:
#
# PCOD8286989 Si02
#       8
#    16  16   8  16   8  16  16   8
#     4  10  17  27  38  54  77 100 130 163 198 233
#     4   9  16  26  39  55  76 104 130 154 189 232
#     4   9  16  26  38  55  75  95 123 163 204 231
#     4   9  16  27  40  55  76 103 130 156 191 231
#     4   9  14  20  34  58  80  95 121 162 191 217
#     4  10  18  26  39  56  75  99 130 166 198 230
#     4   9  15  24  38  55  76 101 129 156 186 226
#     4   9  16  24  38  54  72  97 125 163 203 234
#
# _framework density 12.813943999999999
#
# number of rings (size 3 to 8) (size 9 to 14) (size 15 to 20)
#    0.000    2.692    2.308    1.385    0.000    4.308 
#    0.000    0.769    0.000    0.000    0.000    0.000 
#    0.000    0.000    0.000    0.000    0.000    0.000 
#
# Total GULP energy -644697.355190 kJ/mol
# GULP energy per Si atom -12398.026061 kJ/mol
# Density = 1.278478 g / cm^3
# Si number density = 12.813944 Si / 1000 Ang^3
#
#
#
# Elastic Constant Matrix: (Units=GPa)
#
#
# Indices 1 2 3 4 5 6 
#
# 1 71.3008 36.0288 41.0353 0.0000 0.0000 0.0000
# 2 36.0288 71.9391 46.4440 0.0000 0.0000 0.0000
# 3 41.0353 46.4440 82.4521 0.0000 0.0000 0.0000
# 4 0.0000 0.0000 0.0000 15.8365 0.0000 0.0000
# 5 0.0000 0.0000 0.0000 0.0000 8.0595 0.0000
# 6 0.0000 0.0000 0.0000 0.0000 0.0000 10.8641
#
#
#
# Elastic Compliance Matrix: (Units=1/GPa)
#
#
# Indices 1 2 3 4 5 6 
#
# 1 0.021171 -0.005972 -0.007172 0.000000 0.000000 0.000000
# 2 -0.005972 0.023529 -0.010281 0.000000 0.000000 0.000000
# 3 -0.007172 -0.010281 0.021489 0.000000 0.000000 0.000000
# 4 0.000000 0.000000 0.000000 0.063145 0.000000 0.000000
# 5 0.000000 0.000000 0.000000 0.000000 0.124076 0.000000
# 6 0.000000 0.000000 0.000000 0.000000 0.000000 0.092046
#
#
# Mechanical properties :
#
#
# Convention : Reuss Voigt Hill
#
# Bulk Modulus (GPa) = 51.71361 52.52314 52.11837
# Shear Modulus (GPa) = 12.53902 13.76429 13.15166
#
# Velocity S-wave (km/s) = 3.13156 3.28100 3.20715
# Velocity P-wave (km/s) = 7.31577 7.44522 7.38078
#
# Compressibility (1/GPa) = 0.01933727
#
# Stress axis : x y z
#
# Youngs Moduli (GPa) = 47.23487 42.49995 46.53516
#
# Poissons Ratio (x) = 0.25383 0.33376
# Poissons Ratio (y) = 0.28211 0.47845
# Poissons Ratio (z) = 0.33878 0.43696
#
# Static dielectric constant tensor:
#      x y z
#    x 2.379000 0.000000 0.000000 
#    y 0.000000 2.552690 0.000000 
#    z 0.000000 0.000000 2.530200 
# 
# 
# High freq. dielectric constant tensor:
#      x y z
#    x 1.454470 0.000000 0.000000 
#    y 0.000000 1.475670 0.000000 
#    z 0.000000 0.000000 1.475680 
# 
# From -- ./inp_files/53399.got.cif
#   From: 2010.06.25/outbox.cif.g09.slc.cpg/sg71_27_cif.got.tgz:53399.got - 2010.06.28 04:59:45.
