data_PCOD8286140
_publ_section_title
;
Structure prediction by ZEFSAII (Michael W. Deem and Ramdas Pophale) SiO2 
 PCOD8286140
Probable space group: F D D D
;
_chemical_formula_sum "Si O2"
_cell_formula_units_Z 176
_cell_length_a 17.881269
_cell_length_b 16.682799
_cell_length_c 27.969198
_cell_angle_alpha 90.000000
_cell_angle_beta 90.000000
_cell_angle_gamma 90.000000
_cell_volume 8343.480732
_symmetry_space_group_name_H-M "F D D D"
_symmetry_group_IT_number 70
_space_group.IT_coordinate_system_code '2'
_symmetry_cell_setting 'orthorhombic'
loop_
_space_group_symop_operation_xyz
x,y,z
1/4-x,1/4-y,z
x,1/4-y,1/4-z
1/4-x,y,1/4-z
-x,-y,-z
3/4+x,3/4+y,-z
-x,3/4+y,3/4+z
3/4+x,-y,3/4+z
x,1/2+y,1/2+z
1/4-x,3/4-y,1/2+z
x,3/4-y,3/4-z
1/4-x,1/2+y,3/4-z
-x,1/2-y,1/2-z
3/4+x,1/4+y,1/2-z
-x,1/4+y,1/4+z
3/4+x,1/2-y,1/4+z
1/2+x,y,1/2+z
3/4-x,1/4-y,1/2+z
1/2+x,1/4-y,3/4-z
3/4-x,y,3/4-z
1/2-x,-y,1/2-z
1/4+x,3/4+y,1/2-z
1/2-x,3/4+y,1/4+z
1/4+x,-y,1/4+z
1/2+x,1/2+y,z
3/4-x,3/4-y,z
1/2+x,3/4-y,1/4-z
3/4-x,1/2+y,1/4-z
1/2-x,1/2-y,-z
1/4+x,1/4+y,-z
1/2-x,1/4+y,3/4+z
1/4+x,1/2-y,3/4+z
loop_
_atom_site_type_symbol
_atom_site_label
_atom_site_fract_x
_atom_site_fract_y
_atom_site_fract_z
Si Si1 0.818901 0.983826 0.689224
Si Si2 0.041180 0.636833 0.717853
Si Si3 0.474491 0.229944 0.014473
Si Si4 0.365173 0.961335 0.928431
Si Si5 0.243873 0.933087 0.710195
Si Si6 0.625000 0.125000 0.356125
O O1 0.789361 0.921239 0.728198
O O2 0.829554 0.938756 0.638783
O O3 0.759103 0.057119 0.683164
O O4 0.895701 0.018794 0.709032
O O5 0.125000 0.625000 0.697009
O O6 0.008906 0.547764 0.724474
O O7 0.533917 0.241497 0.056700
O O8 0.477107 0.149772 0.984874
O O9 0.375000 0.934328 0.875000
O O10 0.375000 0.875000 0.957367
O O11 0.421901 0.035742 0.932140
O O12 0.316869 0.925242 0.676419
O O13 0.250000 0.000000 0.750000
#
# Coordination Sequence:
#
# PCOD8286140 Si02
#       6
#    32  32  32  32  32  16
#     4  10  20  40  71 101 136 177 232 296 348 434
#     4   9  19  38  70 103 133 177 223 279 369 418
#     4  11  20  41  65  95 133 183 225 277 367 418
#     4  11  23  39  60  90 127 170 222 279 332 409
#     4  12  25  43  62  93 137 185 225 292 349 419
#     4  12  24  44  70 106 139 185 258 294 356 444
#
# _framework density 21.094314000000001
#
# number of rings (size 3 to 8) (size 9 to 14) (size 15 to 20)
#    0.000    1.273    4.545    3.273    0.000    0.000 
#    0.000    2.727    0.000    3.273    0.000    0.000 
#    0.000    0.000    0.000    0.000    0.000    0.000 
#
# Total GULP energy -545123.870552 kJ/mol
# GULP energy per Si atom -12389.178876 kJ/mol
# Density = 2.104630 g / cm^3
# Si number density = 21.094314 Si / 1000 Ang^3
#
#
#
# Elastic Constant Matrix: (Units=GPa)
#
#
# Indices 1 2 3 4 5 6 
#
# 1 134.4021 80.2254 46.4994 0.0000 0.0000 0.0000
# 2 80.2254 168.7244 57.9307 0.0000 0.0000 0.0000
# 3 46.4994 57.9307 89.4918 0.0000 0.0000 0.0000
# 4 0.0000 0.0000 0.0000 32.7876 0.0000 0.0000
# 5 0.0000 0.0000 0.0000 0.0000 32.3359 0.0000
# 6 0.0000 0.0000 0.0000 0.0000 0.0000 49.5492
#
#
#
# Elastic Compliance Matrix: (Units=1/GPa)
#
#
# Indices 1 2 3 4 5 6 
#
# 1 0.010978 -0.004193 -0.002989 0.000000 0.000000 0.000000
# 2 -0.004193 0.009222 -0.003791 0.000000 0.000000 0.000000
# 3 -0.002989 -0.003791 0.015182 0.000000 0.000000 0.000000
# 4 0.000000 0.000000 0.000000 0.030499 0.000000 0.000000
# 5 0.000000 0.000000 0.000000 0.000000 0.030925 0.000000
# 6 0.000000 0.000000 0.000000 0.000000 0.000000 0.020182
#
#
# Mechanical properties :
#
#
# Convention : Reuss Voigt Hill
#
# Bulk Modulus (GPa) = 74.43860 84.65879 79.54869
# Shear Modulus (GPa) = 34.86417 36.79874 35.83145
#
# Velocity S-wave (km/s) = 4.06984 4.18124 4.12592
# Velocity P-wave (km/s) = 7.57957 7.97063 7.77756
#
# Compressibility (1/GPa) = 0.01343389
#
# Stress axis : x y z
#
# Youngs Moduli (GPa) = 91.09462 108.43315 65.86917
#
# Poissons Ratio (x) = 0.45468 0.19692
# Poissons Ratio (y) = 0.38198 0.24972
# Poissons Ratio (z) = 0.27233 0.41108
#
# Static dielectric constant tensor:
#      x y z
#    x 4.050340 0.000000 0.000000 
#    y 0.000000 3.986580 0.000000 
#    z 0.000000 0.000000 3.598620 
# 
# 
# High freq. dielectric constant tensor:
#      x y z
#    x 1.831620 0.000000 0.000000 
#    y 0.000000 1.849950 0.000000 
#    z 0.000000 0.000000 1.803880 
# 
# From -- ./inp_files/38521.got.cif
#   From: 2010.03.12/outbox.cif.g09.slc.cpg/sg70_20_cif.got.tgz:38521.got - 2010.04.16 13:46:32.
