data_PCOD8286346
_publ_section_title
;
Structure prediction by ZEFSAII (Michael W. Deem and Ramdas Pophale) SiO2 
 PCOD8286346
Probable space group: F D D D
;
_chemical_formula_sum "Si O2"
_cell_formula_units_Z 144
_cell_length_a 23.497768
_cell_length_b 20.993100
_cell_length_c 13.761045
_cell_angle_alpha 90.000000
_cell_angle_beta 90.000000
_cell_angle_gamma 90.000000
_cell_volume 6788.199558
_symmetry_space_group_name_H-M "F D D D"
_symmetry_group_IT_number 70
_space_group.IT_coordinate_system_code '2'
_symmetry_cell_setting 'orthorhombic'
loop_
_space_group_symop_operation_xyz
x,y,z
1/4-x,1/4-y,z
x,1/4-y,1/4-z
1/4-x,y,1/4-z
-x,-y,-z
3/4+x,3/4+y,-z
-x,3/4+y,3/4+z
3/4+x,-y,3/4+z
x,1/2+y,1/2+z
1/4-x,3/4-y,1/2+z
x,3/4-y,3/4-z
1/4-x,1/2+y,3/4-z
-x,1/2-y,1/2-z
3/4+x,1/4+y,1/2-z
-x,1/4+y,1/4+z
3/4+x,1/2-y,1/4+z
1/2+x,y,1/2+z
3/4-x,1/4-y,1/2+z
1/2+x,1/4-y,3/4-z
3/4-x,y,3/4-z
1/2-x,-y,1/2-z
1/4+x,3/4+y,1/2-z
1/2-x,3/4+y,1/4+z
1/4+x,-y,1/4+z
1/2+x,1/2+y,z
3/4-x,3/4-y,z
1/2+x,3/4-y,1/4-z
3/4-x,1/2+y,1/4-z
1/2-x,1/2-y,-z
1/4+x,1/4+y,-z
1/2-x,1/4+y,3/4+z
1/4+x,1/2-y,3/4+z
loop_
_atom_site_type_symbol
_atom_site_label
_atom_site_fract_x
_atom_site_fract_y
_atom_site_fract_z
Si Si1 0.549173 0.448613 0.877624
Si Si2 0.314689 0.745157 0.416089
Si Si3 0.436274 0.992402 0.826565
Si Si4 0.233635 0.375000 0.375000
Si Si5 0.187944 0.384870 0.169907
O O1 0.568332 0.375000 0.875000
O O2 0.480598 0.450043 0.891867
O O3 0.571949 0.488742 0.786027
O O4 0.576504 0.483258 0.970525
O O5 0.375000 0.766411 0.375000
O O6 0.286583 0.681747 0.367001
O O7 0.375000 0.978112 0.875000
O O8 0.476205 0.932190 0.841375
O O9 0.468877 0.052667 0.876534
O O10 0.191459 0.391242 0.286305
O O11 0.125000 0.387630 0.125000
#
# Coordination Sequence:
#
# PCOD8286346 Si02
#       5
#    32  32  32  16  32
#     4  11  22  41  68  92 130 167 219 275 317 396
#     4  10  22  41  63  94 125 169 215 267 332 380
#     4  11  24  42  64  99 128 173 220 266 332 388
#     4  12  23  44  66  92 140 172 213 278 322 392
#     4  10  22  39  64  95 123 171 222 261 327 386
#
# _framework density 21.213284999999999
#
# number of rings (size 3 to 8) (size 9 to 14) (size 15 to 20)
#    0.000    1.333    4.444    1.000    0.000    7.556 
#    4.000    0.000    4.889    0.000    0.000    0.000 
#    0.000    0.000    0.000    0.000    0.000    0.000 
#
# Total GULP energy -446186.055101 kJ/mol
# GULP energy per Si atom -12394.057086 kJ/mol
# Density = 2.116500 g / cm^3
# Si number density = 21.213285 Si / 1000 Ang^3
#
#
#
# Elastic Constant Matrix: (Units=GPa)
#
#
# Indices 1 2 3 4 5 6 
#
# 1 92.6543 9.4093 51.9071 0.0000 0.0000 0.0000
# 2 9.4093 70.9512 29.7745 0.0000 0.0000 0.0000
# 3 51.9071 29.7745 204.6778 0.0000 0.0000 0.0000
# 4 0.0000 0.0000 0.0000 27.0188 0.0000 0.0000
# 5 0.0000 0.0000 0.0000 0.0000 30.3723 0.0000
# 6 0.0000 0.0000 0.0000 0.0000 0.0000 10.4776
#
#
#
# Elastic Compliance Matrix: (Units=1/GPa)
#
#
# Indices 1 2 3 4 5 6 
#
# 1 0.012588 -0.000351 -0.003141 0.000000 0.000000 0.000000
# 2 -0.000351 0.015020 -0.002096 0.000000 0.000000 0.000000
# 3 -0.003141 -0.002096 0.005987 0.000000 0.000000 0.000000
# 4 0.000000 0.000000 0.000000 0.037011 0.000000 0.000000
# 5 0.000000 0.000000 0.000000 0.000000 0.032925 0.000000
# 6 0.000000 0.000000 0.000000 0.000000 0.000000 0.095442
#
#
# Mechanical properties :
#
#
# Convention : Reuss Voigt Hill
#
# Bulk Modulus (GPa) = 44.60503 61.16278 52.88391
# Shear Modulus (GPa) = 22.97543 32.05322 27.51432
#
# Velocity S-wave (km/s) = 3.29457 3.89137 3.60534
# Velocity P-wave (km/s) = 5.96195 7.00609 6.50500
#
# Compressibility (1/GPa) = 0.02241900
#
# Stress axis : x y z
#
# Youngs Moduli (GPa) = 79.43862 66.57646 167.02053
#
# Poissons Ratio (x) = 0.02338 0.52467
# Poissons Ratio (y) = 0.02790 0.35007
# Poissons Ratio (z) = 0.24955 0.13954
#
# Static dielectric constant tensor:
#      x y z
#    x 3.499360 0.000000 0.000000 
#    y 0.000000 4.508700 0.000000 
#    z 0.000000 0.000000 4.101910 
# 
# 
# High freq. dielectric constant tensor:
#      x y z
#    x 1.808690 0.000000 0.000000 
#    y 0.000000 1.832860 0.000000 
#    z 0.000000 0.000000 1.854440 
# 
# From -- ./inp_files/20655.got.cif
#   From: 2010.03.12/outbox.cif.g09.slc.cpg/sg70_11_cif.got.tgz:20655.got - 2010.04.16 13:46:32.
