data_PCOD8286281
_publ_section_title
;
Structure prediction by ZEFSAII (Michael W. Deem and Ramdas Pophale) SiO2 
 PCOD8286281
Probable space group: F D D D
;
_chemical_formula_sum "Si O2"
_cell_formula_units_Z 216
_cell_length_a 22.902140
_cell_length_b 30.063247
_cell_length_c 13.849213
_cell_angle_alpha 90.000000
_cell_angle_beta 90.000000
_cell_angle_gamma 90.000000
_cell_volume 9535.358920
_symmetry_space_group_name_H-M "F D D D"
_symmetry_group_IT_number 70
_space_group.IT_coordinate_system_code '2'
_symmetry_cell_setting 'orthorhombic'
loop_
_space_group_symop_operation_xyz
x,y,z
1/4-x,1/4-y,z
x,1/4-y,1/4-z
1/4-x,y,1/4-z
-x,-y,-z
3/4+x,3/4+y,-z
-x,3/4+y,3/4+z
3/4+x,-y,3/4+z
x,1/2+y,1/2+z
1/4-x,3/4-y,1/2+z
x,3/4-y,3/4-z
1/4-x,1/2+y,3/4-z
-x,1/2-y,1/2-z
3/4+x,1/4+y,1/2-z
-x,1/4+y,1/4+z
3/4+x,1/2-y,1/4+z
1/2+x,y,1/2+z
3/4-x,1/4-y,1/2+z
1/2+x,1/4-y,3/4-z
3/4-x,y,3/4-z
1/2-x,-y,1/2-z
1/4+x,3/4+y,1/2-z
1/2-x,3/4+y,1/4+z
1/4+x,-y,1/4+z
1/2+x,1/2+y,z
3/4-x,3/4-y,z
1/2+x,3/4-y,1/4-z
3/4-x,1/2+y,1/4-z
1/2-x,1/2-y,-z
1/4+x,1/4+y,-z
1/2-x,1/4+y,3/4+z
1/4+x,1/2-y,3/4+z
loop_
_atom_site_type_symbol
_atom_site_label
_atom_site_fract_x
_atom_site_fract_y
_atom_site_fract_z
Si Si1 0.963829 0.827216 0.246172
Si Si2 0.625000 0.125000 0.125000
Si Si3 0.587043 0.236739 0.406522
Si Si4 0.418467 0.932185 0.461818
Si Si5 0.506388 0.353196 0.656333
Si Si6 0.334643 0.577423 0.175823
Si Si7 0.806309 0.013618 0.894219
Si Si8 0.375000 0.645304 0.875000
O O1 0.909033 0.840798 0.308298
O O2 0.949861 0.784039 0.181275
O O3 0.980331 0.868837 0.179875
O O4 0.015196 0.818209 0.323612
O O5 0.633903 0.200537 0.444082
O O6 0.615168 0.284909 0.375567
O O7 0.545061 0.248817 0.495742
O O8 0.375000 0.915597 0.375000
O O9 0.462405 0.893311 0.500433
O O10 0.459378 0.971592 0.422374
O O11 0.509809 0.301768 0.626355
O O12 0.573211 0.367114 0.675723
O O13 0.349720 0.625000 0.125000
O O14 0.351562 0.575082 0.288205
O O15 0.875000 0.026203 0.875000
#
# Coordination Sequence:
#
# PCOD8286281 Si02
#       8
#    32   8  32  32  32  32  32  16
#     4  11  24  39  64  91 124 178 220 273 331 392
#     4  12  24  42  60  92 126 184 232 248 340 400
#     4  10  21  42  62  95 134 163 219 278 324 403
#     4   9  21  39  66  96 130 179 215 271 337 399
#     4  11  20  42  65  94 133 173 220 274 329 404
#     4  11  23  44  66  93 132 170 219 279 342 392
#     4   9  19  37  68  91 126 173 217 265 335 394
#     4  10  24  39  68  98 126 179 225 272 339 402
#
# _framework density 22.652529000000001
#
# number of rings (size 3 to 8) (size 9 to 14) (size 15 to 20)
#    0.000    2.074    1.481    3.556    2.074    0.593 
#    5.333    8.889    0.000    0.000    0.000    0.000 
#    0.000    0.000    0.000    0.000    0.000    0.000 
#
# Total GULP energy -669045.598741 kJ/mol
# GULP energy per Si atom -12389.733310 kJ/mol
# Density = 2.260097 g / cm^3
# Si number density = 22.652529 Si / 1000 Ang^3
#
#
#
# Elastic Constant Matrix: (Units=GPa)
#
#
# Indices 1 2 3 4 5 6 
#
# 1 92.4551 21.5544 36.5255 0.0000 0.0000 0.0000
# 2 21.5544 80.0856 27.2686 0.0000 0.0000 0.0000
# 3 36.5255 27.2686 95.9619 0.0000 0.0000 0.0000
# 4 0.0000 0.0000 0.0000 24.8747 0.0000 0.0000
# 5 0.0000 0.0000 0.0000 0.0000 30.3938 0.0000
# 6 0.0000 0.0000 0.0000 0.0000 0.0000 11.6374
#
#
#
# Elastic Compliance Matrix: (Units=1/GPa)
#
#
# Indices 1 2 3 4 5 6 
#
# 1 0.013016 -0.002011 -0.004383 0.000000 0.000000 0.000000
# 2 -0.002011 0.014135 -0.003251 0.000000 0.000000 0.000000
# 3 -0.004383 -0.003251 0.013013 0.000000 0.000000 0.000000
# 4 0.000000 0.000000 0.000000 0.040202 0.000000 0.000000
# 5 0.000000 0.000000 0.000000 0.000000 0.032901 0.000000
# 6 0.000000 0.000000 0.000000 0.000000 0.000000 0.085930
#
#
# Mechanical properties :
#
#
# Convention : Reuss Voigt Hill
#
# Bulk Modulus (GPa) = 47.90619 48.79998 48.35308
# Shear Modulus (GPa) = 22.17837 25.59145 23.88491
#
# Velocity S-wave (km/s) = 3.13240 3.36481 3.25068
# Velocity P-wave (km/s) = 5.85464 6.05686 5.95660
#
# Compressibility (1/GPa) = 0.02087413
#
# Stress axis : x y z
#
# Youngs Moduli (GPa) = 76.82610 70.74702 76.84670
#
# Poissons Ratio (x) = 0.14227 0.33682
# Poissons Ratio (y) = 0.15449 0.24984
# Poissons Ratio (z) = 0.33673 0.23001
#
# Static dielectric constant tensor:
#      x y z
#    x 4.013180 0.000000 0.000000 
#    y 0.000000 4.033200 0.000000 
#    z 0.000000 0.000000 4.119500 
# 
# 
# High freq. dielectric constant tensor:
#      x y z
#    x 1.872490 0.000000 0.000000 
#    y 0.000000 1.890760 0.000000 
#    z 0.000000 0.000000 1.902290 
# 
# From -- ./inp_files/29130.got.cif
#   From: 2010.03.12/outbox.cif.g09.slc.cpg/sg70_15_cif.got.tgz:29130.got - 2010.04.16 13:46:32.
