data_PCOD8286239
_publ_section_title
;
Structure prediction by ZEFSAII (Michael W. Deem and Ramdas Pophale) SiO2 
 PCOD8286239
Probable space group: F D D D
;
_chemical_formula_sum "Si O2"
_cell_formula_units_Z 144
_cell_length_a 17.330619
_cell_length_b 13.287529
_cell_length_c 27.814108
_cell_angle_alpha 90.000000
_cell_angle_beta 90.000000
_cell_angle_gamma 90.000000
_cell_volume 6405.063457
_symmetry_space_group_name_H-M "F D D D"
_symmetry_group_IT_number 70
_space_group.IT_coordinate_system_code '2'
_symmetry_cell_setting 'orthorhombic'
loop_
_space_group_symop_operation_xyz
x,y,z
1/4-x,1/4-y,z
x,1/4-y,1/4-z
1/4-x,y,1/4-z
-x,-y,-z
3/4+x,3/4+y,-z
-x,3/4+y,3/4+z
3/4+x,-y,3/4+z
x,1/2+y,1/2+z
1/4-x,3/4-y,1/2+z
x,3/4-y,3/4-z
1/4-x,1/2+y,3/4-z
-x,1/2-y,1/2-z
3/4+x,1/4+y,1/2-z
-x,1/4+y,1/4+z
3/4+x,1/2-y,1/4+z
1/2+x,y,1/2+z
3/4-x,1/4-y,1/2+z
1/2+x,1/4-y,3/4-z
3/4-x,y,3/4-z
1/2-x,-y,1/2-z
1/4+x,3/4+y,1/2-z
1/2-x,3/4+y,1/4+z
1/4+x,-y,1/4+z
1/2+x,1/2+y,z
3/4-x,3/4-y,z
1/2+x,3/4-y,1/4-z
3/4-x,1/2+y,1/4-z
1/2-x,1/2-y,-z
1/4+x,1/4+y,-z
1/2-x,1/4+y,3/4+z
1/4+x,1/2-y,3/4+z
loop_
_atom_site_type_symbol
_atom_site_label
_atom_site_fract_x
_atom_site_fract_y
_atom_site_fract_z
Si Si1 0.823337 0.630361 0.419665
Si Si2 0.706895 0.073637 0.211929
Si Si3 0.756622 0.568235 0.076150
Si Si4 0.141861 0.414802 0.474034
Si Si5 0.875000 0.875000 0.996902
O O1 0.875000 0.597936 0.375000
O O2 0.802368 0.749673 0.415563
O O3 0.751010 0.553114 0.419008
O O4 0.868847 0.617449 0.470147
O O5 0.625000 0.125000 0.227007
O O6 0.769380 0.161866 0.204599
O O7 0.750000 0.000000 0.250000
O O8 0.735885 0.625000 0.125000
O O9 0.843381 0.590698 0.059748
O O10 0.699628 0.608983 0.035605
O O11 0.112336 0.529164 0.468442
#
# Coordination Sequence:
#
# PCOD8286239 Si02
#       5
#    32  32  32  32  16
#     4  10  23  42  71  97 137 182 226 282 352 415
#     4  10  24  43  72 100 139 177 238 282 355 415
#     4  11  22  42  65 105 138 178 231 288 344 415
#     4  10  23  41  70  99 137 179 236 283 345 412
#     4  10  21  38  68  96 138 180 226 284 355 408
#
# _framework density 22.482213000000002
#
# number of rings (size 3 to 8) (size 9 to 14) (size 15 to 20)
#    0.000    1.778    0.000    3.667   18.667    0.444 
#    4.000    0.000    0.000    0.000    0.000    0.000 
#    0.000    0.000    0.000    0.000    0.000    0.000 
#
# Total GULP energy -446060.007668 kJ/mol
# GULP energy per Si atom -12390.555769 kJ/mol
# Density = 2.243104 g / cm^3
# Si number density = 22.482213 Si / 1000 Ang^3
#
#
#
# Elastic Constant Matrix: (Units=GPa)
#
#
# Indices 1 2 3 4 5 6 
#
# 1 153.8894 61.1875 28.4550 0.0000 0.0000 0.0000
# 2 61.1875 151.9889 47.1558 0.0000 0.0000 0.0000
# 3 28.4550 47.1558 56.9739 0.0000 0.0000 0.0000
# 4 0.0000 0.0000 0.0000 25.5988 0.0000 0.0000
# 5 0.0000 0.0000 0.0000 0.0000 21.1857 0.0000
# 6 0.0000 0.0000 0.0000 0.0000 0.0000 34.7434
#
#
#
# Elastic Compliance Matrix: (Units=1/GPa)
#
#
# Indices 1 2 3 4 5 6 
#
# 1 0.007865 -0.002621 -0.001759 0.000000 0.000000 0.000000
# 2 -0.002621 0.009726 -0.006741 0.000000 0.000000 0.000000
# 3 -0.001759 -0.006741 0.024010 0.000000 0.000000 0.000000
# 4 0.000000 0.000000 0.000000 0.039064 0.000000 0.000000
# 5 0.000000 0.000000 0.000000 0.000000 0.047202 0.000000
# 6 0.000000 0.000000 0.000000 0.000000 0.000000 0.028782
#
#
# Mechanical properties :
#
#
# Convention : Reuss Voigt Hill
#
# Bulk Modulus (GPa) = 51.65450 70.71653 61.18551
# Shear Modulus (GPa) = 26.97673 31.37582 29.17628
#
# Velocity S-wave (km/s) = 3.46774 3.73980 3.60634
# Velocity P-wave (km/s) = 6.24973 7.08314 6.67945
#
# Compressibility (1/GPa) = 0.01935940
#
# Stress axis : x y z
#
# Youngs Moduli (GPa) = 127.13820 102.81831 41.64943
#
# Poissons Ratio (x) = 0.26945 0.07327
# Poissons Ratio (y) = 0.33318 0.28076
# Poissons Ratio (z) = 0.22367 0.69310
#
# Static dielectric constant tensor:
#      x y z
#    x 4.157770 0.000000 0.000000 
#    y 0.000000 5.045730 0.000000 
#    z 0.000000 0.000000 3.874030 
# 
# 
# High freq. dielectric constant tensor:
#      x y z
#    x 1.877020 0.000000 0.000000 
#    y 0.000000 1.907360 0.000000 
#    z 0.000000 0.000000 1.856110 
# 
# From -- ./inp_files/66474.got.cif
#   From: 2010.03.12/outbox.cif.g09.slc.cpg/sg70_34_cif.got.tgz:66474.got - 2010.04.16 13:46:32.
