data_PCOD8286456
_publ_section_title
;
Structure prediction by ZEFSAII (Michael W. Deem and Ramdas Pophale) SiO2 
 PCOD8286456
Probable space group: F D D D
;
_chemical_formula_sum "Si O2"
_cell_formula_units_Z 96
_cell_length_a 9.858851
_cell_length_b 15.672653
_cell_length_c 26.400820
_cell_angle_alpha 90.000000
_cell_angle_beta 90.000000
_cell_angle_gamma 90.000000
_cell_volume 4079.305560
_symmetry_space_group_name_H-M "F D D D"
_symmetry_group_IT_number 70
_space_group.IT_coordinate_system_code '2'
_symmetry_cell_setting 'orthorhombic'
loop_
_space_group_symop_operation_xyz
x,y,z
1/4-x,1/4-y,z
x,1/4-y,1/4-z
1/4-x,y,1/4-z
-x,-y,-z
3/4+x,3/4+y,-z
-x,3/4+y,3/4+z
3/4+x,-y,3/4+z
x,1/2+y,1/2+z
1/4-x,3/4-y,1/2+z
x,3/4-y,3/4-z
1/4-x,1/2+y,3/4-z
-x,1/2-y,1/2-z
3/4+x,1/4+y,1/2-z
-x,1/4+y,1/4+z
3/4+x,1/2-y,1/4+z
1/2+x,y,1/2+z
3/4-x,1/4-y,1/2+z
1/2+x,1/4-y,3/4-z
3/4-x,y,3/4-z
1/2-x,-y,1/2-z
1/4+x,3/4+y,1/2-z
1/2-x,3/4+y,1/4+z
1/4+x,-y,1/4+z
1/2+x,1/2+y,z
3/4-x,3/4-y,z
1/2+x,3/4-y,1/4-z
3/4-x,1/2+y,1/4-z
1/2-x,1/2-y,-z
1/4+x,1/4+y,-z
1/2-x,1/4+y,3/4+z
1/4+x,1/2-y,3/4+z
loop_
_atom_site_type_symbol
_atom_site_label
_atom_site_fract_x
_atom_site_fract_y
_atom_site_fract_z
Si Si1 0.625000 0.625000 0.509761
Si Si2 0.141079 0.302545 0.797584
Si Si3 0.625000 0.125000 0.769373
Si Si4 0.281377 0.301342 0.116200
O O1 0.754390 0.641769 0.545922
O O2 0.635628 0.541743 0.475572
O O3 0.253446 0.351614 0.766580
O O4 0.184156 0.288756 0.856551
O O5 0.680419 0.047895 0.806056
O O6 0.375000 0.375000 0.141384
O O7 0.125000 0.326574 0.125000
#
# Coordination Sequence:
#
# PCOD8286456 Si02
#       4
#    16  32  16  32
#     4  10  23  38  73  99 136 181 252 290 372 422
#     4  11  22  46  70 105 142 194 239 313 358 446
#     4  10  25  42  73 101 148 197 237 302 385 428
#     4  10  23  43  69  99 145 194 246 295 377 444
#
# _framework density 23.533418000000001
#
# number of rings (size 3 to 8) (size 9 to 14) (size 15 to 20)
#    1.000    0.667    1.667    2.000    4.667    5.333 
#    0.000    7.500    0.000    0.000    0.000    0.000 
#    0.000    0.000    0.000    0.000    0.000    0.000 
#
# Total GULP energy -297325.454107 kJ/mol
# GULP energy per Si atom -12388.560588 kJ/mol
# Density = 2.347985 g / cm^3
# Si number density = 23.533418 Si / 1000 Ang^3
#
#
#
# Elastic Constant Matrix: (Units=GPa)
#
#
# Indices 1 2 3 4 5 6 
#
# 1 229.2715 61.9333 67.0069 0.0000 0.0000 0.0000
# 2 61.9333 73.9627 43.5974 0.0000 0.0000 0.0000
# 3 67.0069 43.5974 121.5354 0.0000 0.0000 0.0000
# 4 0.0000 0.0000 0.0000 -147.3280 0.0000 0.0000
# 5 0.0000 0.0000 0.0000 0.0000 14.4758 0.0000
# 6 0.0000 0.0000 0.0000 0.0000 0.0000 6.2434
#
#
#
# Elastic Compliance Matrix: (Units=1/GPa)
#
#
# Indices 1 2 3 4 5 6 
#
# 1 0.005963 -0.003874 -0.001898 0.000000 0.000000 0.000000
# 2 -0.003874 0.019663 -0.004918 0.000000 0.000000 0.000000
# 3 -0.001898 -0.004918 0.011038 0.000000 0.000000 0.000000
# 4 0.000000 0.000000 0.000000 -0.006788 0.000000 0.000000
# 5 0.000000 0.000000 0.000000 0.000000 0.069081 0.000000
# 6 0.000000 0.000000 0.000000 0.000000 0.000000 0.160168
#
#
# Mechanical properties :
#
#
# Convention : Reuss Voigt Hill
#
# Bulk Modulus (GPa) = 65.42299 85.53832 75.48065
# Shear Modulus (GPa) = 17.50699 -8.50629 4.50035
#
# Velocity S-wave (km/s) = 2.73045 -1.90326 1.38437
# Velocity P-wave (km/s) = 6.14824 5.62109 5.89056
#
# Compressibility (1/GPa) = 0.01528515
#
# Stress axis : x y z
#
# Youngs Moduli (GPa) = 167.70439 50.85629 90.59328
#
# Poissons Ratio (x) = 0.19704 0.17192
# Poissons Ratio (y) = 0.64976 0.44549
# Poissons Ratio (z) = 0.31825 0.25009
#
# Static dielectric constant tensor:
#      x y z
#    x 4.234320 0.000000 0.000000 
#    y 0.000000 4.065100 0.000000 
#    z 0.000000 0.000000 4.285230 
# 
# 
# High freq. dielectric constant tensor:
#      x y z
#    x 1.942730 0.000000 0.000000 
#    y 0.000000 1.917070 0.000000 
#    z 0.000000 0.000000 1.934120 
# 
# From -- ./inp_files/51843.got.cif
#   From: 2010.03.12/outbox.cif.g09.slc.cpg/sg70_26_cif.got.tgz:51843.got - 2010.04.16 13:46:32.
