data_PCOD8286052
_publ_section_title
;
Structure prediction by ZEFSAII (Michael W. Deem and Ramdas Pophale) SiO2 
 PCOD8286052
Probable space group: F D D D
;
_chemical_formula_sum "Si O2"
_cell_formula_units_Z 160
_cell_length_a 18.830284
_cell_length_b 23.064188
_cell_length_c 15.539269
_cell_angle_alpha 90.000000
_cell_angle_beta 90.000000
_cell_angle_gamma 90.000000
_cell_volume 6748.785490
_symmetry_space_group_name_H-M "F D D D"
_symmetry_group_IT_number 70
_space_group.IT_coordinate_system_code '2'
_symmetry_cell_setting 'orthorhombic'
loop_
_space_group_symop_operation_xyz
x,y,z
1/4-x,1/4-y,z
x,1/4-y,1/4-z
1/4-x,y,1/4-z
-x,-y,-z
3/4+x,3/4+y,-z
-x,3/4+y,3/4+z
3/4+x,-y,3/4+z
x,1/2+y,1/2+z
1/4-x,3/4-y,1/2+z
x,3/4-y,3/4-z
1/4-x,1/2+y,3/4-z
-x,1/2-y,1/2-z
3/4+x,1/4+y,1/2-z
-x,1/4+y,1/4+z
3/4+x,1/2-y,1/4+z
1/2+x,y,1/2+z
3/4-x,1/4-y,1/2+z
1/2+x,1/4-y,3/4-z
3/4-x,y,3/4-z
1/2-x,-y,1/2-z
1/4+x,3/4+y,1/2-z
1/2-x,3/4+y,1/4+z
1/4+x,-y,1/4+z
1/2+x,1/2+y,z
3/4-x,3/4-y,z
1/2+x,3/4-y,1/4-z
3/4-x,1/2+y,1/4-z
1/2-x,1/2-y,-z
1/4+x,1/4+y,-z
1/2-x,1/4+y,3/4+z
1/4+x,1/2-y,3/4+z
loop_
_atom_site_type_symbol
_atom_site_label
_atom_site_fract_x
_atom_site_fract_y
_atom_site_fract_z
Si Si1 0.316175 0.957124 0.245207
Si Si2 0.061488 0.958796 0.740093
Si Si3 0.495840 0.375000 0.875000
Si Si4 0.776437 0.055539 0.301260
Si Si5 0.774195 0.825093 0.178779
Si Si6 0.875000 0.216155 0.375000
O O1 0.303697 0.900937 0.302332
O O2 0.331362 0.934163 0.148789
O O3 0.250000 0.000000 0.250000
O O4 0.380216 0.993630 0.288535
O O5 0.041482 0.924703 0.827386
O O6 0.141578 0.939200 0.723210
O O7 0.015792 0.946462 0.654550
O O8 0.047258 0.027329 0.752405
O O9 0.728453 0.112003 0.274632
O O10 0.750000 0.000000 0.250000
O O11 0.696240 0.821405 0.132243
#
# Coordination Sequence:
#
# PCOD8286052 Si02
#       6
#    32  32  16  32  32  16
#     4  10  21  37  62 103 138 172 214 267 350 414
#     4  11  25  44  72 100 137 178 232 289 339 420
#     4  12  20  41  68 104 138 169 212 280 352 414
#     4  11  27  48  67  96 134 187 239 286 339 405
#     4  11  23  43  70  98 138 184 229 284 346 416
#     4  10  20  37  64 106 144 169 208 276 362 434
#
# _framework density 23.70797
#
# number of rings (size 3 to 8) (size 9 to 14) (size 15 to 20)
#    0.000    1.200    6.000    1.200    2.800    5.200 
#    0.000    4.000    0.000    0.000    0.000    0.000 
#    0.000    0.000    0.000    0.000    0.000    0.000 
#
# Total GULP energy -495622.091279 kJ/mol
# GULP energy per Si atom -12390.552282 kJ/mol
# Density = 2.365401 g / cm^3
# Si number density = 23.707970 Si / 1000 Ang^3
#
#
#
# Elastic Constant Matrix: (Units=GPa)
#
#
# Indices 1 2 3 4 5 6 
#
# 1 13.6831 5.7355 15.0369 0.0000 0.0000 0.0000
# 2 5.7355 171.6607 47.1112 0.0000 0.0000 0.0000
# 3 15.0369 47.1112 93.7560 0.0000 0.0000 0.0000
# 4 0.0000 0.0000 0.0000 48.5610 0.0000 0.0000
# 5 0.0000 0.0000 0.0000 0.0000 32.4584 0.0000
# 6 0.0000 0.0000 0.0000 0.0000 0.0000 30.5869
#
#
#
# Elastic Compliance Matrix: (Units=1/GPa)
#
#
# Indices 1 2 3 4 5 6 
#
# 1 0.088897 0.001093 -0.014807 0.000000 0.000000 0.000000
# 2 0.001093 0.006771 -0.003578 0.000000 0.000000 0.000000
# 3 -0.014807 -0.003578 0.014838 0.000000 0.000000 0.000000
# 4 0.000000 0.000000 0.000000 0.020593 0.000000 0.000000
# 5 0.000000 0.000000 0.000000 0.000000 0.030809 0.000000
# 6 0.000000 0.000000 0.000000 0.000000 0.000000 0.032694
#
#
# Mechanical properties :
#
#
# Convention : Reuss Voigt Hill
#
# Bulk Modulus (GPa) = 13.17110 46.09631 29.63370
# Shear Modulus (GPa) = 19.64704 36.40233 28.02469
#
# Velocity S-wave (km/s) = 2.88186 3.92273 3.44187
# Velocity P-wave (km/s) = 4.07935 6.32477 5.32183
#
# Compressibility (1/GPa) = 0.07592381
#
# Stress axis : x y z
#
# Youngs Moduli (GPa) = 11.24900 147.69395 67.39240
#
# Poissons Ratio (x) = -0.16150 0.99788
# Poissons Ratio (y) = -0.01230 0.24110
# Poissons Ratio (z) = 0.16656 0.52839
#
# Static dielectric constant tensor:
#      x y z
#    x 4.299640 0.000000 0.000000 
#    y 0.000000 4.456910 0.000000 
#    z 0.000000 0.000000 4.482560 
# 
# 
# High freq. dielectric constant tensor:
#      x y z
#    x 1.916350 0.000000 0.000000 
#    y 0.000000 1.956770 0.000000 
#    z 0.000000 0.000000 1.935030 
# 
# From -- ./inp_files/36350.got.cif
#   From: 2010.03.12/outbox.cif.g09.slc.cpg/sg70_19_cif.got.tgz:36350.got - 2010.04.16 13:46:32.
