data_PCOD8286460
_publ_section_title
;
Structure prediction by ZEFSAII (Michael W. Deem and Ramdas Pophale) SiO2 
 PCOD8286460
Probable space group: F D D D
;
_chemical_formula_sum "Si O2"
_cell_formula_units_Z 176
_cell_length_a 10.218747
_cell_length_b 29.795548
_cell_length_c 25.348598
_cell_angle_alpha 90.000000
_cell_angle_beta 90.000000
_cell_angle_gamma 90.000000
_cell_volume 7717.967905
_symmetry_space_group_name_H-M "F D D D"
_symmetry_group_IT_number 70
_space_group.IT_coordinate_system_code '2'
_symmetry_cell_setting 'orthorhombic'
loop_
_space_group_symop_operation_xyz
x,y,z
1/4-x,1/4-y,z
x,1/4-y,1/4-z
1/4-x,y,1/4-z
-x,-y,-z
3/4+x,3/4+y,-z
-x,3/4+y,3/4+z
3/4+x,-y,3/4+z
x,1/2+y,1/2+z
1/4-x,3/4-y,1/2+z
x,3/4-y,3/4-z
1/4-x,1/2+y,3/4-z
-x,1/2-y,1/2-z
3/4+x,1/4+y,1/2-z
-x,1/4+y,1/4+z
3/4+x,1/2-y,1/4+z
1/2+x,y,1/2+z
3/4-x,1/4-y,1/2+z
1/2+x,1/4-y,3/4-z
3/4-x,y,3/4-z
1/2-x,-y,1/2-z
1/4+x,3/4+y,1/2-z
1/2-x,3/4+y,1/4+z
1/4+x,-y,1/4+z
1/2+x,1/2+y,z
3/4-x,3/4-y,z
1/2+x,3/4-y,1/4-z
3/4-x,1/2+y,1/4-z
1/2-x,1/2-y,-z
1/4+x,1/4+y,-z
1/2-x,1/4+y,3/4+z
1/4+x,1/2-y,3/4+z
loop_
_atom_site_type_symbol
_atom_site_label
_atom_site_fract_x
_atom_site_fract_y
_atom_site_fract_z
Si Si1 0.224540 0.915640 0.915669
Si Si2 0.641617 0.744419 0.567414
Si Si3 0.689910 0.404097 0.231798
Si Si4 0.830879 0.232513 0.657059
Si Si5 0.125000 0.303056 0.125000
Si Si6 0.707417 0.692576 0.251815
O O1 0.245168 0.875000 0.875000
O O2 0.362407 0.940370 0.929391
O O3 0.132901 0.953789 0.891367
O O4 0.163098 0.900372 0.970814
O O5 0.625000 0.766835 0.625000
O O6 0.797544 0.749038 0.554400
O O7 0.535231 0.767207 0.529821
O O8 0.623205 0.415924 0.176606
O O9 0.746253 0.354584 0.225770
O O10 0.800347 0.442374 0.242001
O O11 0.756173 0.273847 0.630500
O O12 0.733015 0.200652 0.689870
#
# Coordination Sequence:
#
# PCOD8286460 Si02
#       6
#    32  32  32  32  16  32
#     4  11  22  44  69 103 138 179 232 288 343 409
#     4  10  23  39  67  95 136 182 224 284 341 409
#     4  11  25  43  69  98 139 182 229 285 346 411
#     4  11  23  42  69  99 137 177 233 280 348 413
#     4  12  26  46  69 104 132 186 233 286 348 428
#     4  11  23  44  66  99 139 183 226 283 350 413
#
# _framework density 22.803929
#
# number of rings (size 3 to 8) (size 9 to 14) (size 15 to 20)
#    0.000    1.091    1.818    4.909    1.273    5.455 
#    0.000    1.818    0.000    0.000    0.000    0.000 
#    0.000    0.000    0.000    0.000    0.000    0.000 
#
# Total GULP energy -545361.819093 kJ/mol
# GULP energy per Si atom -12394.586798 kJ/mol
# Density = 2.275203 g / cm^3
# Si number density = 22.803929 Si / 1000 Ang^3
#
#
#
# Elastic Constant Matrix: (Units=GPa)
#
#
# Indices 1 2 3 4 5 6 
#
# 1 91.8057 22.7298 34.8594 0.0000 0.0000 0.0000
# 2 22.7298 96.3153 37.9385 0.0000 0.0000 0.0000
# 3 34.8594 37.9385 109.1791 0.0000 0.0000 0.0000
# 4 0.0000 0.0000 0.0000 37.4218 0.0000 0.0000
# 5 0.0000 0.0000 0.0000 0.0000 31.8305 0.0000
# 6 0.0000 0.0000 0.0000 0.0000 0.0000 27.2895
#
#
#
# Elastic Compliance Matrix: (Units=1/GPa)
#
#
# Indices 1 2 3 4 5 6 
#
# 1 0.012607 -0.001610 -0.003466 0.000000 0.000000 0.000000
# 2 -0.001610 0.012235 -0.003737 0.000000 0.000000 0.000000
# 3 -0.003466 -0.003737 0.011565 0.000000 0.000000 0.000000
# 4 0.000000 0.000000 0.000000 0.026722 0.000000 0.000000
# 5 0.000000 0.000000 0.000000 0.000000 0.031416 0.000000
# 6 0.000000 0.000000 0.000000 0.000000 0.000000 0.036644
#
#
# Mechanical properties :
#
#
# Convention : Reuss Voigt Hill
#
# Bulk Modulus (GPa) = 53.24820 54.26172 53.75496
# Shear Modulus (GPa) = 32.24230 32.75985 32.50108
#
# Velocity S-wave (km/s) = 3.76426 3.79435 3.77933
# Velocity P-wave (km/s) = 6.50338 6.56069 6.53210
#
# Compressibility (1/GPa) = 0.01877998
#
# Stress axis : x y z
#
# Youngs Moduli (GPa) = 79.31982 81.73500 86.47119
#
# Poissons Ratio (x) = 0.13160 0.29970
# Poissons Ratio (y) = 0.12771 0.32317
# Poissons Ratio (z) = 0.27491 0.30547
#
# Static dielectric constant tensor:
#      x y z
#    x 4.514690 0.000000 0.000000 
#    y 0.000000 3.941130 0.000000 
#    z 0.000000 0.000000 4.111290 
# 
# 
# High freq. dielectric constant tensor:
#      x y z
#    x 1.911120 0.000000 0.000000 
#    y 0.000000 1.889580 0.000000 
#    z 0.000000 0.000000 1.907340 
# 
# From -- ./inp_files/57621.got.cif
#   From: 2010.03.12/outbox.cif.g09.slc.cpg/sg70_29_cif.got.tgz:57621.got - 2010.04.16 13:46:32.
