data_PCOD8286432
_publ_section_title
;
Structure prediction by ZEFSAII (Michael W. Deem and Ramdas Pophale) SiO2 
 PCOD8286432
Probable space group: F D D D
;
_chemical_formula_sum "Si O2"
_cell_formula_units_Z 176
_cell_length_a 22.704406
_cell_length_b 22.636258
_cell_length_c 13.722387
_cell_angle_alpha 90.000000
_cell_angle_beta 90.000000
_cell_angle_gamma 90.000000
_cell_volume 7052.521887
_symmetry_space_group_name_H-M "F D D D"
_symmetry_group_IT_number 70
_space_group.IT_coordinate_system_code '2'
_symmetry_cell_setting 'orthorhombic'
loop_
_space_group_symop_operation_xyz
x,y,z
1/4-x,1/4-y,z
x,1/4-y,1/4-z
1/4-x,y,1/4-z
-x,-y,-z
3/4+x,3/4+y,-z
-x,3/4+y,3/4+z
3/4+x,-y,3/4+z
x,1/2+y,1/2+z
1/4-x,3/4-y,1/2+z
x,3/4-y,3/4-z
1/4-x,1/2+y,3/4-z
-x,1/2-y,1/2-z
3/4+x,1/4+y,1/2-z
-x,1/4+y,1/4+z
3/4+x,1/2-y,1/4+z
1/2+x,y,1/2+z
3/4-x,1/4-y,1/2+z
1/2+x,1/4-y,3/4-z
3/4-x,y,3/4-z
1/2-x,-y,1/2-z
1/4+x,3/4+y,1/2-z
1/2-x,3/4+y,1/4+z
1/4+x,-y,1/4+z
1/2+x,1/2+y,z
3/4-x,3/4-y,z
1/2+x,3/4-y,1/4-z
3/4-x,1/2+y,1/4-z
1/2-x,1/2-y,-z
1/4+x,1/4+y,-z
1/2-x,1/4+y,3/4+z
1/4+x,1/2-y,3/4+z
loop_
_atom_site_type_symbol
_atom_site_label
_atom_site_fract_x
_atom_site_fract_y
_atom_site_fract_z
Si Si1 0.189912 0.764129 0.445025
Si Si2 0.264194 0.845491 0.634214
Si Si3 0.625000 0.488253 0.625000
Si Si4 0.432828 0.233011 0.002470
Si Si5 0.806032 0.970459 0.205411
Si Si6 0.466770 0.574887 0.237991
O O1 0.250000 0.750000 0.500000
O O2 0.185383 0.704818 0.376136
O O3 0.137288 0.766521 0.526011
O O4 0.188058 0.820781 0.370051
O O5 0.213896 0.825762 0.711445
O O6 0.295255 0.904409 0.669421
O O7 0.232772 0.858675 0.526783
O O8 0.604432 0.531495 0.539584
O O9 0.572240 0.449463 0.671683
O O10 0.425024 0.234404 0.119812
O O11 0.471408 0.289673 0.973163
O O12 0.750000 0.000000 0.250000
#
# Coordination Sequence:
#
# PCOD8286432 Si02
#       6
#    32  32  16  32  32  32
#     4  11  25  46  70 100 144 190 247 306 354 439
#     4  10  24  45  70 103 137 195 236 292 384 420
#     4  12  20  42  69 104 152 188 228 307 350 432
#     4  10  22  45  66  99 143 182 242 304 354 439
#     4  11  22  43  67 107 152 182 240 300 358 452
#     4  10  23  42  69 105 145 182 243 297 353 450
#
# _framework density 24.955611999999999
#
# number of rings (size 3 to 8) (size 9 to 14) (size 15 to 20)
#    0.000    1.455    5.455    0.000    0.000    8.727 
#    0.000    5.455    0.000    8.727    0.000    0.000 
#    0.000    0.000    0.000    0.000    0.000    0.000 
#
# Total GULP energy -545120.705487 kJ/mol
# GULP energy per Si atom -12389.106943 kJ/mol
# Density = 2.489881 g / cm^3
# Si number density = 24.955612 Si / 1000 Ang^3
#
#
#
# Elastic Constant Matrix: (Units=GPa)
#
#
# Indices 1 2 3 4 5 6 
#
# 1 104.9867 18.0978 9.2391 0.0000 0.0000 0.0000
# 2 18.0978 102.4342 36.4164 0.0000 0.0000 0.0000
# 3 9.2391 36.4164 114.0302 0.0000 0.0000 0.0000
# 4 0.0000 0.0000 0.0000 32.2666 0.0000 0.0000
# 5 0.0000 0.0000 0.0000 0.0000 47.8597 0.0000
# 6 0.0000 0.0000 0.0000 0.0000 0.0000 24.9785
#
#
#
# Elastic Compliance Matrix: (Units=1/GPa)
#
#
# Indices 1 2 3 4 5 6 
#
# 1 0.009832 -0.001640 -0.000273 0.000000 0.000000 0.000000
# 2 -0.001640 0.011286 -0.003471 0.000000 0.000000 0.000000
# 3 -0.000273 -0.003471 0.009900 0.000000 0.000000 0.000000
# 4 0.000000 0.000000 0.000000 0.030992 0.000000 0.000000
# 5 0.000000 0.000000 0.000000 0.000000 0.020894 0.000000
# 6 0.000000 0.000000 0.000000 0.000000 0.000000 0.040034
#
#
# Mechanical properties :
#
#
# Convention : Reuss Voigt Hill
#
# Bulk Modulus (GPa) = 49.38357 49.88418 49.63387
# Shear Modulus (GPa) = 35.59795 38.20082 36.89938
#
# Velocity S-wave (km/s) = 3.78094 3.91673 3.84943
# Velocity P-wave (km/s) = 6.23636 6.36293 6.29996
#
# Compressibility (1/GPa) = 0.02024965
#
# Stress axis : x y z
#
# Youngs Moduli (GPa) = 101.71137 88.60322 101.00651
#
# Poissons Ratio (x) = 0.14531 0.02756
# Poissons Ratio (y) = 0.16681 0.35064
# Poissons Ratio (z) = 0.02775 0.30758
#
# Static dielectric constant tensor:
#      x y z
#    x 3.715580 0.000000 0.000000 
#    y 0.000000 5.359830 0.000000 
#    z 0.000000 0.000000 6.735070 
# 
# 
# High freq. dielectric constant tensor:
#      x y z
#    x 2.003700 0.000000 0.000000 
#    y 0.000000 1.985970 0.000000 
#    z 0.000000 0.000000 2.014390 
# 
# From -- ./inp_files/28734.got.cif
#   From: 2010.03.12/outbox.cif.g09.slc.cpg/sg70_15_cif.got.tgz:28734.got - 2010.04.16 13:46:32.
