data_PCOD8286077
_publ_section_title
;
Structure prediction by ZEFSAII (Michael W. Deem and Ramdas Pophale) SiO2 
 PCOD8286077
Probable space group: F D D D
;
_chemical_formula_sum "Si O2"
_cell_formula_units_Z 176
_cell_length_a 30.155153
_cell_length_b 16.124845
_cell_length_c 17.292937
_cell_angle_alpha 90.000000
_cell_angle_beta 90.000000
_cell_angle_gamma 90.000000
_cell_volume 8408.641644
_symmetry_space_group_name_H-M "F D D D"
_symmetry_group_IT_number 70
_space_group.IT_coordinate_system_code '2'
_symmetry_cell_setting 'orthorhombic'
loop_
_space_group_symop_operation_xyz
x,y,z
1/4-x,1/4-y,z
x,1/4-y,1/4-z
1/4-x,y,1/4-z
-x,-y,-z
3/4+x,3/4+y,-z
-x,3/4+y,3/4+z
3/4+x,-y,3/4+z
x,1/2+y,1/2+z
1/4-x,3/4-y,1/2+z
x,3/4-y,3/4-z
1/4-x,1/2+y,3/4-z
-x,1/2-y,1/2-z
3/4+x,1/4+y,1/2-z
-x,1/4+y,1/4+z
3/4+x,1/2-y,1/4+z
1/2+x,y,1/2+z
3/4-x,1/4-y,1/2+z
1/2+x,1/4-y,3/4-z
3/4-x,y,3/4-z
1/2-x,-y,1/2-z
1/4+x,3/4+y,1/2-z
1/2-x,3/4+y,1/4+z
1/4+x,-y,1/4+z
1/2+x,1/2+y,z
3/4-x,3/4-y,z
1/2+x,3/4-y,1/4-z
3/4-x,1/2+y,1/4-z
1/2-x,1/2-y,-z
1/4+x,1/4+y,-z
1/2-x,1/4+y,3/4+z
1/4+x,1/2-y,3/4+z
loop_
_atom_site_type_symbol
_atom_site_label
_atom_site_fract_x
_atom_site_fract_y
_atom_site_fract_z
Si Si1 0.875000 0.875000 0.541865
Si Si2 0.969658 0.838222 0.959799
Si Si3 0.606041 0.286084 0.210181
Si Si4 0.292586 0.668402 0.342359
Si Si5 0.185279 0.862223 0.490548
Si Si6 0.804086 0.303965 0.597561
O O1 0.847995 0.807273 0.491070
O O2 0.842965 0.927075 0.594980
O O3 0.965952 0.875000 0.875000
O O4 0.946758 0.747868 0.961209
O O5 0.021254 0.829250 0.985901
O O6 0.942059 0.895240 0.018127
O O7 0.625000 0.277119 0.125000
O O8 0.559592 0.336932 0.204153
O O9 0.640489 0.333816 0.267583
O O10 0.317384 0.679188 0.424453
O O11 0.240347 0.669637 0.358324
O O12 0.192026 0.956469 0.326577
#
# Coordination Sequence:
#
# PCOD8286077 Si02
#       6
#    16  32  32  32  32  32
#     4  12  27  42  59  90 128 172 216 278 323 380
#     4  11  18  35  64  94 127 167 202 256 319 400
#     4  10  24  43  66  86 117 168 228 270 316 384
#     4  10  20  39  63  91 121 162 215 261 311 387
#     4  10  20  38  63  91 123 166 207 258 322 391
#     4  11  23  38  60  97 134 166 210 260 336 389
#
# _framework density 20.930848000000001
#
# number of rings (size 3 to 8) (size 9 to 14) (size 15 to 20)
#    0.000    1.455    3.636    2.455    2.545    0.727 
#    0.000    0.455    0.000    0.000    0.000    0.000 
#    0.000    0.000    0.000    0.000    0.000    0.000 
#
# Total GULP energy -545406.788286 kJ/mol
# GULP energy per Si atom -12395.608825 kJ/mol
# Density = 2.088321 g / cm^3
# Si number density = 20.930848 Si / 1000 Ang^3
#
#
#
# Elastic Constant Matrix: (Units=GPa)
#
#
# Indices 1 2 3 4 5 6 
#
# 1 59.7625 42.9207 26.3045 0.0000 0.0000 0.0000
# 2 42.9207 150.7496 50.6412 0.0000 0.0000 0.0000
# 3 26.3045 50.6412 69.7204 0.0000 0.0000 0.0000
# 4 0.0000 0.0000 0.0000 19.3649 0.0000 0.0000
# 5 0.0000 0.0000 0.0000 0.0000 30.6768 0.0000
# 6 0.0000 0.0000 0.0000 0.0000 0.0000 23.4944
#
#
#
# Elastic Compliance Matrix: (Units=1/GPa)
#
#
# Indices 1 2 3 4 5 6 
#
# 1 0.022291 -0.004658 -0.005027 0.000000 0.000000 0.000000
# 2 -0.004658 0.009748 -0.005323 0.000000 0.000000 0.000000
# 3 -0.005027 -0.005323 0.020106 0.000000 0.000000 0.000000
# 4 0.000000 0.000000 0.000000 0.051640 0.000000 0.000000
# 5 0.000000 0.000000 0.000000 0.000000 0.032598 0.000000
# 6 0.000000 0.000000 0.000000 0.000000 0.000000 0.042563
#
#
# Mechanical properties :
#
#
# Convention : Reuss Voigt Hill
#
# Bulk Modulus (GPa) = 45.18912 57.77392 51.48152
# Shear Modulus (GPa) = 23.11212 25.39830 24.25521
#
# Velocity S-wave (km/s) = 3.32658 3.48722 3.40785
# Velocity P-wave (km/s) = 6.03253 6.62393 6.33514
#
# Compressibility (1/GPa) = 0.02212922
#
# Stress axis : x y z
#
# Youngs Moduli (GPa) = 44.86195 102.58706 49.73683
#
# Poissons Ratio (x) = 0.47784 0.25001
# Poissons Ratio (y) = 0.20896 0.26475
# Poissons Ratio (z) = 0.22551 0.54607
#
# Static dielectric constant tensor:
#      x y z
#    x 3.797330 0.000000 0.000000 
#    y 0.000000 4.262590 0.000000 
#    z 0.000000 0.000000 3.951880 
# 
# 
# High freq. dielectric constant tensor:
#      x y z
#    x 1.795820 0.000000 0.000000 
#    y 0.000000 1.823450 0.000000 
#    z 0.000000 0.000000 1.821020 
# 
# From -- ./inp_files/39651.got.cif
#   From: 2010.03.12/outbox.cif.g09.slc.cpg/sg70_20_cif.got.tgz:39651.got - 2010.04.16 13:46:32.
