data_PCOD8286177
_publ_section_title
;
Structure prediction by ZEFSAII (Michael W. Deem and Ramdas Pophale) SiO2 
 PCOD8286177
Probable space group: F D D D
;
_chemical_formula_sum "Si O2"
_cell_formula_units_Z 128
_cell_length_a 9.442324
_cell_length_b 25.077067
_cell_length_c 25.679987
_cell_angle_alpha 90.000000
_cell_angle_beta 90.000000
_cell_angle_gamma 90.000000
_cell_volume 6080.656050
_symmetry_space_group_name_H-M "F D D D"
_symmetry_group_IT_number 70
_space_group.IT_coordinate_system_code '2'
_symmetry_cell_setting 'orthorhombic'
loop_
_space_group_symop_operation_xyz
x,y,z
1/4-x,1/4-y,z
x,1/4-y,1/4-z
1/4-x,y,1/4-z
-x,-y,-z
3/4+x,3/4+y,-z
-x,3/4+y,3/4+z
3/4+x,-y,3/4+z
x,1/2+y,1/2+z
1/4-x,3/4-y,1/2+z
x,3/4-y,3/4-z
1/4-x,1/2+y,3/4-z
-x,1/2-y,1/2-z
3/4+x,1/4+y,1/2-z
-x,1/4+y,1/4+z
3/4+x,1/2-y,1/4+z
1/2+x,y,1/2+z
3/4-x,1/4-y,1/2+z
1/2+x,1/4-y,3/4-z
3/4-x,y,3/4-z
1/2-x,-y,1/2-z
1/4+x,3/4+y,1/2-z
1/2-x,3/4+y,1/4+z
1/4+x,-y,1/4+z
1/2+x,1/2+y,z
3/4-x,3/4-y,z
1/2+x,3/4-y,1/4-z
3/4-x,1/2+y,1/4-z
1/2-x,1/2-y,-z
1/4+x,1/4+y,-z
1/2-x,1/4+y,3/4+z
1/4+x,1/2-y,3/4+z
loop_
_atom_site_type_symbol
_atom_site_label
_atom_site_fract_x
_atom_site_fract_y
_atom_site_fract_z
Si Si1 0.626027 0.562224 0.429092
Si Si2 0.071463 0.565616 0.525909
Si Si3 0.223111 0.476230 0.473209
Si Si4 0.625000 0.256794 0.125000
Si Si5 0.625000 0.756444 0.125000
O O1 0.625000 0.625000 0.434604
O O2 0.653937 0.535729 0.485366
O O3 0.472098 0.543677 0.410939
O O4 0.741758 0.544082 0.386756
O O5 0.125000 0.625000 0.533039
O O6 0.159029 0.536287 0.479922
O O7 0.092121 0.531638 0.577452
O O8 0.902884 0.566252 0.514872
O O9 0.283184 0.470003 0.414495
#
# Coordination Sequence:
#
# PCOD8286177 Si02
#       5
#    32  32  32  16  16
#     4  11  24  41  67  97 134 177 222 275 336 393
#     4  10  21  41  69  94 132 174 224 272 335 393
#     4  10  24  42  64  99 133 172 225 277 325 408
#     4  12  23  44  65  93 141 176 209 289 332 384
#     4  10  20  44  64  99 131 172 233 265 322 422
#
# _framework density 21.050360000000001
#
# number of rings (size 3 to 8) (size 9 to 14) (size 15 to 20)
#    0.000    1.500    2.500    1.875    3.500    1.000 
#    0.000    0.625    0.000    0.000    0.000    0.000 
#    0.000    0.000    0.000    0.000    0.000    0.000 
#
# Total GULP energy -396867.536192 kJ/mol
# GULP energy per Si atom -12402.110506 kJ/mol
# Density = 2.100245 g / cm^3
# Si number density = 21.050360 Si / 1000 Ang^3
#
#
#
# Elastic Constant Matrix: (Units=GPa)
#
#
# Indices 1 2 3 4 5 6 
#
# 1 120.5922 46.0545 52.9134 0.0000 0.0000 0.0000
# 2 46.0545 116.2016 36.7275 0.0000 0.0000 0.0000
# 3 52.9134 36.7275 122.4353 0.0000 0.0000 0.0000
# 4 0.0000 0.0000 0.0000 8.3853 0.0000 0.0000
# 5 0.0000 0.0000 0.0000 0.0000 43.0448 0.0000
# 6 0.0000 0.0000 0.0000 0.0000 0.0000 29.0154
#
#
#
# Elastic Compliance Matrix: (Units=1/GPa)
#
#
# Indices 1 2 3 4 5 6 
#
# 1 0.011228 -0.003222 -0.003886 0.000000 0.000000 0.000000
# 2 -0.003222 0.010432 -0.001737 0.000000 0.000000 0.000000
# 3 -0.003886 -0.001737 0.010368 0.000000 0.000000 0.000000
# 4 0.000000 0.000000 0.000000 0.119256 0.000000 0.000000
# 5 0.000000 0.000000 0.000000 0.000000 0.023232 0.000000
# 6 0.000000 0.000000 0.000000 0.000000 0.000000 0.034465
#
#
# Mechanical properties :
#
#
# Convention : Reuss Voigt Hill
#
# Bulk Modulus (GPa) = 69.74310 70.06889 69.90600
# Shear Modulus (GPa) = 21.60307 30.99134 26.29720
#
# Velocity S-wave (km/s) = 3.20700 3.84115 3.53831
# Velocity P-wave (km/s) = 6.84957 7.28225 7.06922
#
# Compressibility (1/GPa) = 0.01433834
#
# Stress axis : x y z
#
# Youngs Moduli (GPa) = 89.06389 95.86272 96.45056
#
# Poissons Ratio (x) = 0.30885 0.37480
# Poissons Ratio (y) = 0.28694 0.16752
# Poissons Ratio (z) = 0.34610 0.16650
#
# Static dielectric constant tensor:
#      x y z
#    x 3.976080 0.000000 0.000000 
#    y 0.000000 3.459220 0.000000 
#    z 0.000000 0.000000 3.985320 
# 
# 
# High freq. dielectric constant tensor:
#      x y z
#    x 1.841790 0.000000 0.000000 
#    y 0.000000 1.798510 0.000000 
#    z 0.000000 0.000000 1.838530 
# 
# From -- ./inp_files/12033.got.cif
#   From: 2010.03.12/outbox.cif.g09.slc.cpg/sg70_7_cif.got.tgz:12033.got - 2010.04.16 13:46:32.
