data_PCOD8286804
_publ_section_title
;
Structure prediction by ZEFSAII (Michael W. Deem and Ramdas Pophale) SiO2 
 PCOD8286804
Probable space group: F D D D
;
_chemical_formula_sum "Si O2"
_cell_formula_units_Z 192
_cell_length_a 28.566970
_cell_length_b 11.873347
_cell_length_c 25.766826
_cell_angle_alpha 90.000000
_cell_angle_beta 90.000000
_cell_angle_gamma 90.000000
_cell_volume 8739.734985
_symmetry_space_group_name_H-M "F D D D"
_symmetry_group_IT_number 70
_space_group.IT_coordinate_system_code '2'
_symmetry_cell_setting 'orthorhombic'
loop_
_space_group_symop_operation_xyz
x,y,z
1/4-x,1/4-y,z
x,1/4-y,1/4-z
1/4-x,y,1/4-z
-x,-y,-z
3/4+x,3/4+y,-z
-x,3/4+y,3/4+z
3/4+x,-y,3/4+z
x,1/2+y,1/2+z
1/4-x,3/4-y,1/2+z
x,3/4-y,3/4-z
1/4-x,1/2+y,3/4-z
-x,1/2-y,1/2-z
3/4+x,1/4+y,1/2-z
-x,1/4+y,1/4+z
3/4+x,1/2-y,1/4+z
1/2+x,y,1/2+z
3/4-x,1/4-y,1/2+z
1/2+x,1/4-y,3/4-z
3/4-x,y,3/4-z
1/2-x,-y,1/2-z
1/4+x,3/4+y,1/2-z
1/2-x,3/4+y,1/4+z
1/4+x,-y,1/4+z
1/2+x,1/2+y,z
3/4-x,3/4-y,z
1/2+x,3/4-y,1/4-z
3/4-x,1/2+y,1/4-z
1/2-x,1/2-y,-z
1/4+x,1/4+y,-z
1/2-x,1/4+y,3/4+z
1/4+x,1/2-y,3/4+z
loop_
_atom_site_type_symbol
_atom_site_label
_atom_site_fract_x
_atom_site_fract_y
_atom_site_fract_z
Si Si1 0.949617 0.479685 0.474839
Si Si2 0.970862 0.289499 0.915989
Si Si3 0.125000 0.125000 0.538898
Si Si4 0.042904 0.988384 0.246615
Si Si5 0.565734 0.375000 0.875000
Si Si6 0.129063 0.850863 0.270822
Si Si7 0.516968 0.790488 0.122075
O O1 0.933672 0.362265 0.500122
O O2 0.914424 0.582672 0.483258
O O3 0.952900 0.464592 0.412326
O O4 0.000000 0.500000 0.500000
O O5 0.995350 0.375000 0.875000
O O6 0.918757 0.339751 0.924894
O O7 0.976177 0.167828 0.890421
O O8 0.994738 0.280162 0.972443
O O9 0.133845 0.228999 0.500799
O O10 0.079221 0.908632 0.274204
O O11 0.033952 0.962705 0.186578
O O12 0.599037 0.398103 0.827096
O O13 0.535276 0.260336 0.870882
#
# Coordination Sequence:
#
# PCOD8286804 Si02
#       7
#    32  32  16  32  16  32  32
#     4  12  20  47  75 105 139 190 252 321 382 442
#     4  12  27  46  72 103 149 201 248 301 374 460
#     4  12  25  50  70 100 148 196 246 303 380 462
#     4  12  26  45  71 114 146 189 252 318 378 463
#     4  12  24  48  78 113 144 207 260 324 384 450
#     4  12  27  44  73 108 153 191 247 316 391 458
#     4  12  23  45  82 101 141 198 258 310 378 449
#
# _framework density 21.968629
#
# number of rings (size 3 to 8) (size 9 to 14) (size 15 to 20)
#    0.000    0.000    6.667    2.750    1.167    4.667 
#    3.000    1.667    0.000    0.000    0.000    0.000 
#    0.000    0.000    0.000    0.000    0.000    0.000 
#
# Total GULP energy -594845.823044 kJ/mol
# GULP energy per Si atom -12392.621313 kJ/mol
# Density = 2.191863 g / cm^3
# Si number density = 21.968629 Si / 1000 Ang^3
#
#
#
# Elastic Constant Matrix: (Units=GPa)
#
#
# Indices 1 2 3 4 5 6 
#
# 1 83.1790 74.1155 34.9110 0.0000 0.0000 0.0000
# 2 74.1155 173.4847 59.6254 0.0000 0.0000 0.0000
# 3 34.9110 59.6254 143.9949 0.0000 0.0000 0.0000
# 4 0.0000 0.0000 0.0000 39.6017 0.0000 0.0000
# 5 0.0000 0.0000 0.0000 0.0000 37.9759 0.0000
# 6 0.0000 0.0000 0.0000 0.0000 0.0000 9.1516
#
#
#
# Elastic Compliance Matrix: (Units=1/GPa)
#
#
# Indices 1 2 3 4 5 6 
#
# 1 0.019687 -0.007894 -0.001505 0.000000 0.000000 0.000000
# 2 -0.007894 0.009886 -0.002180 0.000000 0.000000 0.000000
# 3 -0.001505 -0.002180 0.008212 0.000000 0.000000 0.000000
# 4 0.000000 0.000000 0.000000 0.025251 0.000000 0.000000
# 5 0.000000 0.000000 0.000000 0.000000 0.026333 0.000000
# 6 0.000000 0.000000 0.000000 0.000000 0.000000 0.109270
#
#
# Mechanical properties :
#
#
# Convention : Reuss Voigt Hill
#
# Bulk Modulus (GPa) = 68.35605 81.99584 75.17594
# Shear Modulus (GPa) = 22.05842 32.81295 27.43568
#
# Velocity S-wave (km/s) = 3.17217 3.86894 3.53775
# Velocity P-wave (km/s) = 6.67830 7.57386 7.14014
#
# Compressibility (1/GPa) = 0.01462928
#
# Stress axis : x y z
#
# Youngs Moduli (GPa) = 50.79435 101.15712 121.77289
#
# Poissons Ratio (x) = 0.79850 0.18321
# Poissons Ratio (y) = 0.40095 0.26542
# Poissons Ratio (z) = 0.07642 0.22049
#
# Static dielectric constant tensor:
#      x y z
#    x 4.368740 0.000000 0.000000 
#    y 0.000000 4.284710 0.000000 
#    z 0.000000 0.000000 4.296210 
# 
# 
# High freq. dielectric constant tensor:
#      x y z
#    x 1.849820 0.000000 0.000000 
#    y 0.000000 1.884440 0.000000 
#    z 0.000000 0.000000 1.884610 
# 
# From -- ./inp_files/62229.got.cif
#   From: 2010.03.12/outbox.cif.g09.slc.cpg/sg70_32_cif.got.tgz:62229.got - 2010.04.16 13:46:32.
