data_PCOD8286980
_publ_section_title
;
Structure prediction by ZEFSAII (Michael W. Deem and Ramdas Pophale) SiO2 
 PCOD8286980
Probable space group: I M M M
;
_chemical_formula_sum "Si O2"
_cell_formula_units_Z 104
_cell_length_a 22.481049
_cell_length_b 29.379266
_cell_length_c 9.426804
_cell_angle_alpha 90.000000
_cell_angle_beta 90.000000
_cell_angle_gamma 90.000000
_cell_volume 6226.184572
_symmetry_space_group_name_H-M "I M M M"
_symmetry_group_IT_number 71
_symmetry_cell_setting 'orthorhombic'
loop_
_space_group_symop_operation_xyz
x,y,z
-x,-y,z
x,-y,-z
-x,y,-z
-x,-y,-z
x,y,-z
-x,y,z
x,-y,z
1/2+x,1/2+y,1/2+z
1/2-x,1/2-y,1/2+z
1/2+x,1/2-y,1/2-z
1/2-x,1/2+y,1/2-z
1/2-x,1/2-y,1/2-z
1/2+x,1/2+y,1/2-z
1/2-x,1/2+y,1/2+z
1/2+x,1/2-y,1/2+z
loop_
_atom_site_type_symbol
_atom_site_label
_atom_site_fract_x
_atom_site_fract_y
_atom_site_fract_z
Si Si1 0.887425 0.390902 0.831400
Si Si2 0.929314 0.793313 0.657075
Si Si3 0.931461 0.691851 0.333778
Si Si4 0.644720 0.446547 0.162681
Si Si5 0.222123 0.550315 0.167958
Si Si6 0.000000 0.551002 0.168117
Si Si7 0.570399 0.622475 0.662588
O O1 0.891079 0.342064 0.757115
O O2 0.826615 0.414069 0.776334
O O3 0.941666 0.422507 0.778999
O O4 0.888462 0.383992 0.000000
O O5 0.904590 0.804957 0.500000
O O6 0.908636 0.742802 0.703193
O O7 0.905329 0.830983 0.766406
O O8 0.000000 0.793292 0.652288
O O9 0.923838 0.681895 0.500000
O O10 0.000000 0.685687 0.287985
O O11 0.634249 0.500000 0.182081
O O12 0.711740 0.433368 0.210464
O O13 0.598541 0.420981 0.262214
O O14 0.633433 0.432232 0.000000
O O15 0.209223 0.500000 0.231849
O O16 0.217769 0.546495 0.000000
O O17 0.000000 0.500000 0.232613
O O18 0.000000 0.547947 0.000000
O O19 0.590253 0.623276 0.500000
O O20 0.500000 0.618369 0.679569
#
# Coordination Sequence:
#
# PCOD8286980 Si02
#       7
#    16  16  16  16  16   8  16
#     4  10  17  26  44  69  93 120 157 200 240 278
#     4   8  15  29  48  67  89 123 160 188 221 274
#     4   9  17  29  44  64  94 127 156 191 236 281
#     4   9  18  33  52  71  92 124 163 194 221 264
#     4   8  15  29  48  68  90 120 161 203 234 264
#     4   9  16  24  37  63  95 123 153 191 236 281
#     4  10  20  32  48  74 103 124 143 180 236 282
#
# _framework density 16.703648000000001
#
# number of rings (size 3 to 8) (size 9 to 14) (size 15 to 20)
#    0.000    3.000    0.769    2.769    0.000    4.000 
#    0.000    3.846    0.000    4.154    0.000    0.000 
#    0.000    0.000    0.000    0.000    0.000    0.000 
#
# Total GULP energy -644629.499736 kJ/mol
# GULP energy per Si atom -12396.721149 kJ/mol
# Density = 1.666563 g / cm^3
# Si number density = 16.703648 Si / 1000 Ang^3
#
#
#
# Elastic Constant Matrix: (Units=GPa)
#
#
# Indices 1 2 3 4 5 6 
#
# 1 49.4971 46.1396 36.2587 0.0000 0.0000 0.0000
# 2 46.1396 114.5263 60.3606 0.0000 0.0000 0.0000
# 3 36.2587 60.3606 72.5747 0.0000 0.0000 0.0000
# 4 0.0000 0.0000 0.0000 29.5451 0.0000 0.0000
# 5 0.0000 0.0000 0.0000 0.0000 14.7197 0.0000
# 6 0.0000 0.0000 0.0000 0.0000 0.0000 19.6443
#
#
#
# Elastic Compliance Matrix: (Units=1/GPa)
#
#
# Indices 1 2 3 4 5 6 
#
# 1 0.036482 -0.009065 -0.010687 0.000000 0.000000 0.000000
# 2 -0.009065 0.017799 -0.010274 0.000000 0.000000 0.000000
# 3 -0.010687 -0.010274 0.027663 0.000000 0.000000 0.000000
# 4 0.000000 0.000000 0.000000 0.033847 0.000000 0.000000
# 5 0.000000 0.000000 0.000000 0.000000 0.067936 0.000000
# 6 0.000000 0.000000 0.000000 0.000000 0.000000 0.050905
#
#
# Mechanical properties :
#
#
# Convention : Reuss Voigt Hill
#
# Bulk Modulus (GPa) = 45.68049 58.01288 51.84669
# Shear Modulus (GPa) = 16.55721 19.03774 17.79748
#
# Velocity S-wave (km/s) = 3.15180 3.37966 3.26772
# Velocity P-wave (km/s) = 6.37590 7.07358 6.73378
#
# Compressibility (1/GPa) = 0.02189118
#
# Stress axis : x y z
#
# Youngs Moduli (GPa) = 27.41055 56.18388 36.14874
#
# Poissons Ratio (x) = 0.50931 0.38633
# Poissons Ratio (y) = 0.24848 0.37140
# Poissons Ratio (z) = 0.29295 0.57725
#
# Static dielectric constant tensor:
#      x y z
#    x 3.030240 0.000000 0.000000 
#    y 0.000000 3.281490 0.000000 
#    z 0.000000 0.000000 2.924010 
# 
# 
# High freq. dielectric constant tensor:
#      x y z
#    x 1.616730 0.000000 0.000000 
#    y 0.000000 1.651380 0.000000 
#    z 0.000000 0.000000 1.618650 
# 
# From -- ./inp_files/13601.got.cif
#   From: 2010.06.25/outbox.cif.g09.slc.cpg/sg71_7_cif.got.tgz:13601.got - 2010.06.28 04:59:45.
