data_PCOD8286165
_publ_section_title
;
Structure prediction by ZEFSAII (Michael W. Deem and Ramdas Pophale) SiO2 
 PCOD8286165
Probable space group: F D D D
;
_chemical_formula_sum "Si O2"
_cell_formula_units_Z 192
_cell_length_a 10.988821
_cell_length_b 24.430404
_cell_length_c 35.628393
_cell_angle_alpha 90.000000
_cell_angle_beta 90.000000
_cell_angle_gamma 90.000000
_cell_volume 9564.846003
_symmetry_space_group_name_H-M "F D D D"
_symmetry_group_IT_number 70
_space_group.IT_coordinate_system_code '2'
_symmetry_cell_setting 'orthorhombic'
loop_
_space_group_symop_operation_xyz
x,y,z
1/4-x,1/4-y,z
x,1/4-y,1/4-z
1/4-x,y,1/4-z
-x,-y,-z
3/4+x,3/4+y,-z
-x,3/4+y,3/4+z
3/4+x,-y,3/4+z
x,1/2+y,1/2+z
1/4-x,3/4-y,1/2+z
x,3/4-y,3/4-z
1/4-x,1/2+y,3/4-z
-x,1/2-y,1/2-z
3/4+x,1/4+y,1/2-z
-x,1/4+y,1/4+z
3/4+x,1/2-y,1/4+z
1/2+x,y,1/2+z
3/4-x,1/4-y,1/2+z
1/2+x,1/4-y,3/4-z
3/4-x,y,3/4-z
1/2-x,-y,1/2-z
1/4+x,3/4+y,1/2-z
1/2-x,3/4+y,1/4+z
1/4+x,-y,1/4+z
1/2+x,1/2+y,z
3/4-x,3/4-y,z
1/2+x,3/4-y,1/4-z
3/4-x,1/2+y,1/4-z
1/2-x,1/2-y,-z
1/4+x,1/4+y,-z
1/2-x,1/4+y,3/4+z
1/4+x,1/2-y,3/4+z
loop_
_atom_site_type_symbol
_atom_site_label
_atom_site_fract_x
_atom_site_fract_y
_atom_site_fract_z
Si Si1 0.125000 0.125000 0.553799
Si Si2 0.752181 0.222993 0.228391
Si Si3 0.002396 0.826993 0.753772
Si Si4 0.125000 0.125000 0.933552
Si Si5 0.493003 0.189554 0.534065
Si Si6 0.493244 0.526712 0.350482
Si Si7 0.835094 0.177920 0.102164
O O1 0.200239 0.087619 0.525175
O O2 0.210620 0.162780 0.580065
O O3 0.896803 0.220160 0.239276
O O4 0.690513 0.257829 0.261625
O O5 0.718625 0.255382 0.191051
O O6 0.959653 0.836421 0.710461
O O7 0.063415 0.884064 0.766863
O O8 0.889097 0.813032 0.780845
O O9 0.057231 0.164798 0.904498
O O10 0.447519 0.195265 0.576272
O O11 0.375000 0.538220 0.375000
O O12 0.570508 0.479497 0.370691
O O13 0.877450 0.125000 0.125000
#
# Coordination Sequence:
#
# PCOD8286165 Si02
#       7
#    16  32  32  16  32  32  32
#     4  12  23  38  69  96 121 176 214 266 335 398
#     4  12  22  42  69  94 127 170 218 275 328 404
#     4  10  20  42  71  92 121 165 224 270 325 386
#     4  10  24  44  65  92 126 184 218 266 326 398
#     4  10  22  39  65  98 123 164 217 275 328 383
#     4  12  23  43  67  91 135 180 213 265 337 410
#     4  12  22  41  66  99 133 168 218 268 338 398
#
# _framework density 20.073505999999998
#
# number of rings (size 3 to 8) (size 9 to 14) (size 15 to 20)
#    0.000    1.000    8.333    0.750    0.000    0.667 
#    6.000    5.833    0.000    0.000    0.000    0.000 
#    0.000    0.000    0.000    0.000    0.000    0.000 
#
# Total GULP energy -594909.511960 kJ/mol
# GULP energy per Si atom -12393.948166 kJ/mol
# Density = 2.002782 g / cm^3
# Si number density = 20.073506 Si / 1000 Ang^3
#
#
#
# Elastic Constant Matrix: (Units=GPa)
#
#
# Indices 1 2 3 4 5 6 
#
# 1 74.4666 48.5667 57.2240 0.0000 0.0000 0.0000
# 2 48.5667 95.9433 62.0800 0.0000 0.0000 0.0000
# 3 57.2240 62.0800 125.8576 0.0000 0.0000 0.0000
# 4 0.0000 0.0000 0.0000 41.0011 0.0000 0.0000
# 5 0.0000 0.0000 0.0000 0.0000 38.6019 0.0000
# 6 0.0000 0.0000 0.0000 0.0000 0.0000 13.1534
#
#
#
# Elastic Compliance Matrix: (Units=1/GPa)
#
#
# Indices 1 2 3 4 5 6 
#
# 1 0.023745 -0.007394 -0.007149 0.000000 0.000000 0.000000
# 2 -0.007394 0.017611 -0.005325 0.000000 0.000000 0.000000
# 3 -0.007149 -0.005325 0.013823 0.000000 0.000000 0.000000
# 4 0.000000 0.000000 0.000000 0.024390 0.000000 0.000000
# 5 0.000000 0.000000 0.000000 0.000000 0.025905 0.000000
# 6 0.000000 0.000000 0.000000 0.000000 0.000000 0.076026
#
#
# Mechanical properties :
#
#
# Convention : Reuss Voigt Hill
#
# Bulk Modulus (GPa) = 64.75575 70.22319 67.48947
# Shear Modulus (GPa) = 22.08650 27.11109 24.59879
#
# Velocity S-wave (km/s) = 3.32065 3.67903 3.50442
# Velocity P-wave (km/s) = 6.85796 7.28738 7.07593
#
# Compressibility (1/GPa) = 0.01544265
#
# Stress axis : x y z
#
# Youngs Moduli (GPa) = 42.11456 56.78216 72.34556
#
# Poissons Ratio (x) = 0.41984 0.51720
# Poissons Ratio (y) = 0.31139 0.38524
# Poissons Ratio (z) = 0.30108 0.30237
#
# Static dielectric constant tensor:
#      x y z
#    x 3.608220 0.000000 0.000000 
#    y 0.000000 4.054650 0.000000 
#    z 0.000000 0.000000 3.643250 
# 
# 
# High freq. dielectric constant tensor:
#      x y z
#    x 1.764780 0.000000 0.000000 
#    y 0.000000 1.806880 0.000000 
#    z 0.000000 0.000000 1.771350 
# 
# From -- ./inp_files/64990.got.cif
#   From: 2010.03.12/outbox.cif.g09.slc.cpg/sg70_33_cif.got.tgz:64990.got - 2010.04.16 13:46:32.
