data_PCOD8286393
_publ_section_title
;
Structure prediction by ZEFSAII (Michael W. Deem and Ramdas Pophale) SiO2 
 PCOD8286393
Probable space group: F D D D
;
_chemical_formula_sum "Si O2"
_cell_formula_units_Z 144
_cell_length_a 13.391156
_cell_length_b 33.796570
_cell_length_c 15.970022
_cell_angle_alpha 90.000000
_cell_angle_beta 90.000000
_cell_angle_gamma 90.000000
_cell_volume 7227.634961
_symmetry_space_group_name_H-M "F D D D"
_symmetry_group_IT_number 70
_space_group.IT_coordinate_system_code '2'
_symmetry_cell_setting 'orthorhombic'
loop_
_space_group_symop_operation_xyz
x,y,z
1/4-x,1/4-y,z
x,1/4-y,1/4-z
1/4-x,y,1/4-z
-x,-y,-z
3/4+x,3/4+y,-z
-x,3/4+y,3/4+z
3/4+x,-y,3/4+z
x,1/2+y,1/2+z
1/4-x,3/4-y,1/2+z
x,3/4-y,3/4-z
1/4-x,1/2+y,3/4-z
-x,1/2-y,1/2-z
3/4+x,1/4+y,1/2-z
-x,1/4+y,1/4+z
3/4+x,1/2-y,1/4+z
1/2+x,y,1/2+z
3/4-x,1/4-y,1/2+z
1/2+x,1/4-y,3/4-z
3/4-x,y,3/4-z
1/2-x,-y,1/2-z
1/4+x,3/4+y,1/2-z
1/2-x,3/4+y,1/4+z
1/4+x,-y,1/4+z
1/2+x,1/2+y,z
3/4-x,3/4-y,z
1/2+x,3/4-y,1/4-z
3/4-x,1/2+y,1/4-z
1/2-x,1/2-y,-z
1/4+x,1/4+y,-z
1/2-x,1/4+y,3/4+z
1/4+x,1/2-y,3/4+z
loop_
_atom_site_type_symbol
_atom_site_label
_atom_site_fract_x
_atom_site_fract_y
_atom_site_fract_z
Si Si1 0.375000 0.375000 0.875000
Si Si2 0.742140 0.315128 0.790194
Si Si3 0.552785 0.022904 0.380156
Si Si4 0.481315 0.005714 0.902509
Si Si5 0.125000 0.125000 0.625000
Si Si6 0.231870 0.810858 0.452185
O O1 0.306349 0.403913 0.820531
O O2 0.762418 0.290552 0.705881
O O3 0.771069 0.288259 0.868215
O O4 0.809149 0.353077 0.805153
O O5 0.628131 0.329187 0.793696
O O6 0.673133 0.028339 0.386064
O O7 0.507467 0.047314 0.455151
O O8 0.517738 0.976734 0.387962
O O9 0.375000 0.026469 0.875000
O O10 0.500000 0.000000 0.000000
#
# Coordination Sequence:
#
# PCOD8286393 Si02
#       6
#     8  32  32  32   8  32
#     4  12  26  42  60 102 136 164 222 288 342 390
#     4  11  22  40  64  92 127 177 220 269 344 397
#     4  10  22  41  68  92 127 178 226 261 333 412
#     4  11  20  36  60  98 129 165 221 279 323 393
#     4  12  22  38  64  94 132 172 218 292 334 402
#     4  10  25  40  65  92 133 172 218 275 334 405
#
# _framework density 19.923531000000001
#
# number of rings (size 3 to 8) (size 9 to 14) (size 15 to 20)
#    0.000    1.333    3.333    1.333    9.333    0.889 
#    0.000    2.222    0.000    0.000    0.000    0.000 
#    0.000    0.000    0.000    0.000    0.000    0.000 
#
# Total GULP energy -446122.192992 kJ/mol
# GULP energy per Si atom -12392.283139 kJ/mol
# Density = 1.987818 g / cm^3
# Si number density = 19.923531 Si / 1000 Ang^3
#
#
#
# Elastic Constant Matrix: (Units=GPa)
#
#
# Indices 1 2 3 4 5 6 
#
# 1 168.3297 64.7644 53.6869 0.0000 0.0000 0.0000
# 2 64.7644 110.3351 58.2054 0.0000 0.0000 0.0000
# 3 53.6869 58.2054 137.1891 0.0000 0.0000 0.0000
# 4 0.0000 0.0000 0.0000 20.7642 0.0000 0.0000
# 5 0.0000 0.0000 0.0000 0.0000 35.7111 0.0000
# 6 0.0000 0.0000 0.0000 0.0000 0.0000 42.5749
#
#
#
# Elastic Compliance Matrix: (Units=1/GPa)
#
#
# Indices 1 2 3 4 5 6 
#
# 1 0.007890 -0.003868 -0.001447 0.000000 0.000000 0.000000
# 2 -0.003868 0.013573 -0.004245 0.000000 0.000000 0.000000
# 3 -0.001447 -0.004245 0.009656 0.000000 0.000000 0.000000
# 4 0.000000 0.000000 0.000000 0.048160 0.000000 0.000000
# 5 0.000000 0.000000 0.000000 0.000000 0.028002 0.000000
# 6 0.000000 0.000000 0.000000 0.000000 0.000000 0.023488
#
#
# Mechanical properties :
#
#
# Convention : Reuss Voigt Hill
#
# Bulk Modulus (GPa) = 83.33143 85.46303 84.39723
# Shear Modulus (GPa) = 32.49070 35.75652 34.12361
#
# Velocity S-wave (km/s) = 4.04266 4.24097 4.14300
# Velocity P-wave (km/s) = 7.98168 8.18351 8.08322
#
# Compressibility (1/GPa) = 0.01200027
#
# Stress axis : x y z
#
# Youngs Moduli (GPa) = 126.73550 73.67393 103.55947
#
# Poissons Ratio (x) = 0.28500 0.14980
# Poissons Ratio (y) = 0.49027 0.43960
# Poissons Ratio (z) = 0.18333 0.31274
#
# Static dielectric constant tensor:
#      x y z
#    x 4.160620 0.000000 0.000000 
#    y 0.000000 3.209760 0.000000 
#    z 0.000000 0.000000 3.578310 
# 
# 
# High freq. dielectric constant tensor:
#      x y z
#    x 1.811730 0.000000 0.000000 
#    y 0.000000 1.747580 0.000000 
#    z 0.000000 0.000000 1.782790 
# 
# From -- ./inp_files/30877.got.cif
#   From: 2010.03.12/outbox.cif.g09.slc.cpg/sg70_16_cif.got.tgz:30877.got - 2010.04.16 13:46:32.
