data_PCOD8286932
_publ_section_title
;
Structure prediction by ZEFSAII (Michael W. Deem and Ramdas Pophale) SiO2 
 PCOD8286932
Probable space group: I M M M
;
_chemical_formula_sum "Si O2"
_cell_formula_units_Z 88
_cell_length_a 19.176428
_cell_length_b 7.997748
_cell_length_c 30.726139
_cell_angle_alpha 90.000000
_cell_angle_beta 90.000000
_cell_angle_gamma 90.000000
_cell_volume 4712.413820
_symmetry_space_group_name_H-M "I M M M"
_symmetry_group_IT_number 71
_symmetry_cell_setting 'orthorhombic'
loop_
_space_group_symop_operation_xyz
x,y,z
-x,-y,z
x,-y,-z
-x,y,-z
-x,-y,-z
x,y,-z
-x,y,z
x,-y,z
1/2+x,1/2+y,1/2+z
1/2-x,1/2-y,1/2+z
1/2+x,1/2-y,1/2-z
1/2-x,1/2+y,1/2-z
1/2-x,1/2-y,1/2-z
1/2+x,1/2+y,1/2-z
1/2-x,1/2+y,1/2+z
1/2+x,1/2-y,1/2+z
loop_
_atom_site_type_symbol
_atom_site_label
_atom_site_fract_x
_atom_site_fract_y
_atom_site_fract_z
Si Si1 0.856464 0.688180 0.774626
Si Si2 0.920896 0.000000 0.181942
Si Si3 0.857480 0.000000 0.910326
Si Si4 0.284409 0.193691 0.186727
Si Si5 0.797140 0.500000 0.449552
Si Si6 0.695408 0.681929 0.907300
Si Si7 0.155567 0.679120 0.950040
O O1 0.885921 0.500000 0.783604
O O2 0.909528 0.831648 0.790084
O O3 0.783610 0.703405 0.799791
O O4 0.844026 0.713445 0.723194
O O5 0.868701 0.000000 0.141044
O O6 0.000000 0.000000 0.165076
O O7 0.775040 0.000000 0.921909
O O8 0.891542 0.832243 0.931741
O O9 0.314458 0.273679 0.143050
O O10 0.263771 0.000000 0.180405
O O11 0.780374 0.500000 0.500000
O O12 0.839463 0.668417 0.435994
O O13 0.660238 0.500000 0.916437
O O14 0.776184 0.670334 0.920346
O O15 0.115701 0.500000 0.946188
O O16 0.177022 0.713783 0.000000
#
# Coordination Sequence:
#
# PCOD8286932 Si02
#       7
#    16   8   8  16   8  16  16
#     4  10  21  35  53  74  99 131 163 212 268 322
#     4  12  26  40  54  73 102 138 179 225 269 318
#     4  10  18  30  48  65  84 120 168 213 248 286
#     4  10  18  31  51  78 105 125 161 214 268 313
#     4  10  18  28  44  67 100 136 172 210 250 312
#     4  10  17  24  39  64  95 130 161 199 241 302
#     4   9  17  28  44  69  97 127 165 205 251 310
#
# _framework density 18.674081999999999
#
# number of rings (size 3 to 8) (size 9 to 14) (size 15 to 20)
#    0.000    2.000    1.818    5.182    2.545    3.636 
#    0.000    0.000    0.000    2.455    0.000    1.273 
#    0.000    0.000    0.000    0.000    0.000    8.182 
#
# Total GULP energy -545111.433208 kJ/mol
# GULP energy per Si atom -12388.896209 kJ/mol
# Density = 1.863158 g / cm^3
# Si number density = 18.674082 Si / 1000 Ang^3
#
#
#
# Elastic Constant Matrix: (Units=GPa)
#
#
# Indices 1 2 3 4 5 6 
#
# 1 11.3414 12.5365 15.3473 0.0000 0.0000 0.0000
# 2 12.5365 210.7671 62.8019 0.0000 0.0000 0.0000
# 3 15.3473 62.8019 115.4544 0.0000 0.0000 0.0000
# 4 0.0000 0.0000 0.0000 30.2467 0.0000 0.0000
# 5 0.0000 0.0000 0.0000 0.0000 5.2737 0.0000
# 6 0.0000 0.0000 0.0000 0.0000 0.0000 9.6116
#
#
#
# Elastic Compliance Matrix: (Units=1/GPa)
#
#
# Indices 1 2 3 4 5 6 
#
# 1 0.108672 -0.002577 -0.013044 0.000000 0.000000 0.000000
# 2 -0.002577 0.005723 -0.002771 0.000000 0.000000 0.000000
# 3 -0.013044 -0.002771 0.011902 0.000000 0.000000 0.000000
# 4 0.000000 0.000000 0.000000 0.033061 0.000000 0.000000
# 5 0.000000 0.000000 0.000000 0.000000 0.189619 0.000000
# 6 0.000000 0.000000 0.000000 0.000000 0.000000 0.104041
#
#
# Mechanical properties :
#
#
# Convention : Reuss Voigt Hill
#
# Bulk Modulus (GPa) = 11.17138 57.65936 34.41537
# Shear Modulus (GPa) = 9.62202 25.48489 17.55346
#
# Velocity S-wave (km/s) = 2.27240 3.69822 3.06925
# Velocity P-wave (km/s) = 3.58892 7.01281 5.57045
#
# Compressibility (1/GPa) = 0.08951446
#
# Stress axis : x y z
#
# Youngs Moduli (GPa) = 9.20201 174.71981 84.01622
#
# Poissons Ratio (x) = 0.45029 1.09589
# Poissons Ratio (y) = 0.02372 0.23278
# Poissons Ratio (z) = 0.12003 0.48410
#
# Static dielectric constant tensor:
#      x y z
#    x 2.459530 0.000000 0.000000 
#    y 0.000000 5.098470 0.000000 
#    z 0.000000 0.000000 3.560900 
# 
# 
# High freq. dielectric constant tensor:
#      x y z
#    x 1.602380 0.000000 0.000000 
#    y 0.000000 1.770680 0.000000 
#    z 0.000000 0.000000 1.740610 
# 
# From -- ./inp_files/11407.got.cif
#   From: 2010.06.25/outbox.cif.g09.slc.cpg/sg71_6_cif.got.tgz:11407.got - 2010.06.28 04:59:45.
