data_PCOD8286461
_publ_section_title
;
Structure prediction by ZEFSAII (Michael W. Deem and Ramdas Pophale) SiO2 
 PCOD8286461
Probable space group: F D D D
;
_chemical_formula_sum "Si O2"
_cell_formula_units_Z 104
_cell_length_a 30.651627
_cell_length_b 9.524838
_cell_length_c 16.985256
_cell_angle_alpha 90.000000
_cell_angle_beta 90.000000
_cell_angle_gamma 90.000000
_cell_volume 4958.875750
_symmetry_space_group_name_H-M "F D D D"
_symmetry_group_IT_number 70
_space_group.IT_coordinate_system_code '2'
_symmetry_cell_setting 'orthorhombic'
loop_
_space_group_symop_operation_xyz
x,y,z
1/4-x,1/4-y,z
x,1/4-y,1/4-z
1/4-x,y,1/4-z
-x,-y,-z
3/4+x,3/4+y,-z
-x,3/4+y,3/4+z
3/4+x,-y,3/4+z
x,1/2+y,1/2+z
1/4-x,3/4-y,1/2+z
x,3/4-y,3/4-z
1/4-x,1/2+y,3/4-z
-x,1/2-y,1/2-z
3/4+x,1/4+y,1/2-z
-x,1/4+y,1/4+z
3/4+x,1/2-y,1/4+z
1/2+x,y,1/2+z
3/4-x,1/4-y,1/2+z
1/2+x,1/4-y,3/4-z
3/4-x,y,3/4-z
1/2-x,-y,1/2-z
1/4+x,3/4+y,1/2-z
1/2-x,3/4+y,1/4+z
1/4+x,-y,1/4+z
1/2+x,1/2+y,z
3/4-x,3/4-y,z
1/2+x,3/4-y,1/4-z
3/4-x,1/2+y,1/4-z
1/2-x,1/2-y,-z
1/4+x,1/4+y,-z
1/2-x,1/4+y,3/4+z
1/4+x,1/2-y,3/4+z
loop_
_atom_site_type_symbol
_atom_site_label
_atom_site_fract_x
_atom_site_fract_y
_atom_site_fract_z
Si Si1 0.196824 0.433986 0.555445
Si Si2 0.090589 0.505109 0.926239
Si Si3 0.125000 0.125000 0.125000
Si Si4 0.493743 0.774997 0.588934
O O1 0.178979 0.299422 0.508503
O O2 0.155653 0.532803 0.569424
O O3 0.234907 0.513058 0.504894
O O4 0.218022 0.384949 0.638713
O O5 0.125000 0.625000 0.945346
O O6 0.110243 0.375000 0.875000
O O7 0.051618 0.173734 0.872741
O O8 0.506835 0.625000 0.625000
#
# Coordination Sequence:
#
# PCOD8286461 Si02
#       4
#    32  32   8  32
#     4  10  23  40  61  87 130 159 220 255 323 368
#     4   9  19  36  65  97 129 161 208 261 313 379
#     4  12  28  40  54  96 132 164 196 292 296 376
#     4   9  19  39  66  88 117 165 211 261 310 387
#
# _framework density 20.972494999999999
#
# number of rings (size 3 to 8) (size 9 to 14) (size 15 to 20)
#    0.000    3.077    0.000    3.692    8.615    6.154 
#    2.769    0.000    0.000    0.000    0.000    0.000 
#    0.000    0.000    0.000    0.000    0.000    0.000 
#
# Total GULP energy -322207.455546 kJ/mol
# GULP energy per Si atom -12392.594444 kJ/mol
# Density = 2.092476 g / cm^3
# Si number density = 20.972495 Si / 1000 Ang^3
#
#
#
# Elastic Constant Matrix: (Units=GPa)
#
#
# Indices 1 2 3 4 5 6 
#
# 1 94.8151 66.1529 40.4824 0.0000 0.0000 0.0000
# 2 66.1529 68.5049 37.2661 0.0000 0.0000 0.0000
# 3 40.4824 37.2661 83.9301 0.0000 0.0000 0.0000
# 4 0.0000 0.0000 0.0000 16.1453 0.0000 0.0000
# 5 0.0000 0.0000 0.0000 0.0000 23.8448 0.0000
# 6 0.0000 0.0000 0.0000 0.0000 0.0000 33.9054
#
#
#
# Elastic Compliance Matrix: (Units=1/GPa)
#
#
# Indices 1 2 3 4 5 6 
#
# 1 0.032663 -0.030286 -0.002307 0.000000 0.000000 0.000000
# 2 -0.030286 0.047329 -0.006407 0.000000 0.000000 0.000000
# 3 -0.002307 -0.006407 0.015872 0.000000 0.000000 0.000000
# 4 0.000000 0.000000 0.000000 0.061938 0.000000 0.000000
# 5 0.000000 0.000000 0.000000 0.000000 0.041938 0.000000
# 6 0.000000 0.000000 0.000000 0.000000 0.000000 0.029494
#
#
# Mechanical properties :
#
#
# Convention : Reuss Voigt Hill
#
# Bulk Modulus (GPa) = 55.97778 59.45033 57.71405
# Shear Modulus (GPa) = 15.96488 21.66903 18.81696
#
# Velocity S-wave (km/s) = 2.76203 3.21785 2.99861
# Velocity P-wave (km/s) = 6.07624 6.49726 6.29028
#
# Compressibility (1/GPa) = 0.01786423
#
# Stress axis : x y z
#
# Youngs Moduli (GPa) = 30.61601 21.12860 63.00424
#
# Poissons Ratio (x) = 0.63991 0.14534
# Poissons Ratio (y) = 0.92725 0.40365
# Poissons Ratio (z) = 0.07062 0.13536
#
# Static dielectric constant tensor:
#      x y z
#    x 3.675730 0.000000 0.000000 
#    y 0.000000 3.531380 0.000000 
#    z 0.000000 0.000000 3.960680 
# 
# 
# High freq. dielectric constant tensor:
#      x y z
#    x 1.811500 0.000000 0.000000 
#    y 0.000000 1.799330 0.000000 
#    z 0.000000 0.000000 1.813910 
# 
# From -- ./inp_files/47393.got.cif
#   From: 2010.03.12/outbox.cif.g09.slc.cpg/sg70_24_cif.got.tgz:47393.got - 2010.04.16 13:46:32.
