data_PCOD8286897
_publ_section_title
;
Structure prediction by ZEFSAII (Michael W. Deem and Ramdas Pophale) SiO2 
 PCOD8286897
Probable space group: I M M M
;
_chemical_formula_sum "Si O2"
_cell_formula_units_Z 96
_cell_length_a 9.919913
_cell_length_b 31.816105
_cell_length_c 17.128319
_cell_angle_alpha 90.000000
_cell_angle_beta 90.000000
_cell_angle_gamma 90.000000
_cell_volume 5405.920035
_symmetry_space_group_name_H-M "I M M M"
_symmetry_group_IT_number 71
_symmetry_cell_setting 'orthorhombic'
loop_
_space_group_symop_operation_xyz
x,y,z
-x,-y,z
x,-y,-z
-x,y,-z
-x,-y,-z
x,y,-z
-x,y,z
x,-y,z
1/2+x,1/2+y,1/2+z
1/2-x,1/2-y,1/2+z
1/2+x,1/2-y,1/2-z
1/2-x,1/2+y,1/2-z
1/2-x,1/2-y,1/2-z
1/2+x,1/2+y,1/2-z
1/2-x,1/2+y,1/2+z
1/2+x,1/2-y,1/2+z
loop_
_atom_site_type_symbol
_atom_site_label
_atom_site_fract_x
_atom_site_fract_y
_atom_site_fract_z
Si Si1 0.655618 0.888685 0.241052
Si Si2 0.849410 0.952124 0.328531
Si Si3 0.654522 0.846513 0.087938
Si Si4 0.658533 0.181716 0.645973
Si Si5 0.745789 0.453368 0.000000
Si Si6 0.848694 0.634333 0.000000
Si Si7 0.654439 0.269355 0.590734
O O1 0.500000 0.899441 0.260818
O O2 0.744550 0.924379 0.280293
O O3 0.680191 0.885259 0.147728
O O4 0.694492 0.842202 0.273925
O O5 0.842842 0.947282 0.422226
O O6 0.000000 0.939141 0.303036
O O7 0.818298 0.000000 0.304853
O O8 0.500000 0.830872 0.095764
O O9 0.751685 0.808478 0.110873
O O10 0.684523 0.862633 0.000000
O O11 0.500000 0.184565 0.633951
O O12 0.723576 0.153004 0.576985
O O13 0.711246 0.229729 0.641253
O O14 0.813826 0.500000 0.000000
O O15 0.855028 0.416355 0.000000
O O16 0.000000 0.650812 0.000000
O O17 0.665451 0.256715 0.500000
O O18 0.500000 0.280983 0.612181
#
# Coordination Sequence:
#
# PCOD8286897 Si02
#       7
#    16  16  16  16   8   8  16
#     4  10  20  34  53  75  98 129 169 210 250 294
#     4  10  21  36  53  75 106 138 163 194 239 289
#     4   9  19  35  52  71  99 130 161 206 263 308
#     4   9  16  27  45  70  99 132 167 205 248 288
#     4  10  19  31  50  73 102 142 174 194 232 293
#     4  10  16  26  45  70 104 138 168 208 247 281
#     4   9  16  28  48  70  94 129 170 205 242 294
#
# _framework density 17.758309000000001
#
# number of rings (size 3 to 8) (size 9 to 14) (size 15 to 20)
#    0.000    2.500    2.500    0.250    0.000    2.833 
#    0.000    2.500    0.000    0.500    0.000    3.500 
#    0.000    0.000    0.000    0.000    0.000    0.000 
#
# Total GULP energy -594763.056717 kJ/mol
# GULP energy per Si atom -12390.897015 kJ/mol
# Density = 1.771789 g / cm^3
# Si number density = 17.758309 Si / 1000 Ang^3
#
#
#
# Elastic Constant Matrix: (Units=GPa)
#
#
# Indices 1 2 3 4 5 6 
#
# 1 73.9100 51.9912 45.8602 0.0001 0.0000 0.0000
# 2 51.9912 90.4130 56.5156 0.0001 0.0000 0.0000
# 3 45.8602 56.5156 102.1310 0.0012 0.0000 -0.0001
# 4 0.0001 0.0001 0.0012 23.6852 0.0000 0.0000
# 5 0.0000 0.0000 0.0000 0.0000 15.2218 0.0001
# 6 0.0000 0.0000 -0.0001 0.0000 0.0001 27.7715
#
#
#
# Elastic Compliance Matrix: (Units=1/GPa)
#
#
# Indices 1 2 3 4 5 6 
#
# 1 0.024189 -0.010886 -0.004838 0.000000 0.000000 0.000000
# 2 -0.010886 0.021808 -0.007180 0.000000 0.000000 0.000000
# 3 -0.004838 -0.007180 0.015937 -0.000001 0.000000 0.000000
# 4 0.000000 0.000000 -0.000001 0.042220 0.000000 0.000000
# 5 0.000000 0.000000 0.000000 0.000000 0.065695 0.000000
# 6 0.000000 0.000000 0.000000 0.000000 0.000000 0.036008
#
#
# Mechanical properties :
#
#
# Convention : Reuss Voigt Hill
#
# Bulk Modulus (GPa) = 62.00709 63.90977 62.95843
# Shear Modulus (GPa) = 19.45220 20.80818 20.13019
#
# Velocity S-wave (km/s) = 3.31325 3.42679 3.37050
# Velocity P-wave (km/s) = 7.04485 7.19194 7.11877
#
# Compressibility (1/GPa) = 0.01612719
#
# Stress axis : x y z
#
# Youngs Moduli (GPa) = 41.34055 45.85482 62.74788
#
# Poissons Ratio (x) = 0.49916 0.30358
# Poissons Ratio (y) = 0.45002 0.45051
# Poissons Ratio (z) = 0.20001 0.32922
#
# Static dielectric constant tensor:
#      x y z
#    x 3.040730 0.000000 0.000000 
#    y 0.000000 3.198560 0.000000 
#    z 0.000000 0.000000 3.351310 
# 
# 
# High freq. dielectric constant tensor:
#      x y z
#    x 1.659540 0.000000 0.000000 
#    y 0.000000 1.673460 0.000000 
#    z 0.000000 0.000000 1.683630 
# 
# From -- ./inp_files/43603.got.cif
#   From: 2010.06.25/outbox.cif.g09.slc.cpg/sg71_22_cif.got.tgz:43603.got - 2010.06.28 04:59:45.
