data_PCOD8286023
_publ_section_title
;
Structure prediction by ZEFSAII (Michael W. Deem and Ramdas Pophale) SiO2 
 PCOD8286023
Probable space group: F D D D
;
_chemical_formula_sum "Si O2"
_cell_formula_units_Z 136
_cell_length_a 25.575061
_cell_length_b 25.017649
_cell_length_c 9.472124
_cell_angle_alpha 90.000000
_cell_angle_beta 90.000000
_cell_angle_gamma 90.000000
_cell_volume 6060.529200
_symmetry_space_group_name_H-M "F D D D"
_symmetry_group_IT_number 70
_space_group.IT_coordinate_system_code '2'
_symmetry_cell_setting 'orthorhombic'
loop_
_space_group_symop_operation_xyz
x,y,z
1/4-x,1/4-y,z
x,1/4-y,1/4-z
1/4-x,y,1/4-z
-x,-y,-z
3/4+x,3/4+y,-z
-x,3/4+y,3/4+z
3/4+x,-y,3/4+z
x,1/2+y,1/2+z
1/4-x,3/4-y,1/2+z
x,3/4-y,3/4-z
1/4-x,1/2+y,3/4-z
-x,1/2-y,1/2-z
3/4+x,1/4+y,1/2-z
-x,1/4+y,1/4+z
3/4+x,1/2-y,1/4+z
1/2+x,y,1/2+z
3/4-x,1/4-y,1/2+z
1/2+x,1/4-y,3/4-z
3/4-x,y,3/4-z
1/2-x,-y,1/2-z
1/4+x,3/4+y,1/2-z
1/2-x,3/4+y,1/4+z
1/4+x,-y,1/4+z
1/2+x,1/2+y,z
3/4-x,3/4-y,z
1/2+x,3/4-y,1/4-z
3/4-x,1/2+y,1/4-z
1/2-x,1/2-y,-z
1/4+x,1/4+y,-z
1/2-x,1/4+y,3/4+z
1/4+x,1/2-y,3/4+z
loop_
_atom_site_type_symbol
_atom_site_label
_atom_site_fract_x
_atom_site_fract_y
_atom_site_fract_z
Si Si1 0.826303 0.465796 0.549165
Si Si2 0.221861 0.429148 0.181258
Si Si3 0.162844 0.516732 0.011618
Si Si4 0.772553 0.062625 0.989830
Si Si5 0.875000 0.875000 0.875000
O O1 0.780441 0.451923 0.661040
O O2 0.878248 0.490254 0.621022
O O3 0.804632 0.510358 0.436090
O O4 0.837405 0.411284 0.468605
O O5 0.181791 0.459989 0.078242
O O6 0.209447 0.435720 0.346168
O O7 0.214930 0.365691 0.149986
O O8 0.125000 0.545694 0.125000
O O9 0.210519 0.555306 0.975074
#
# Coordination Sequence:
#
# PCOD8286023 Si02
#       5
#    32  32  32  32   8
#     4  11  22  43  61  87 128 169 215 267 307 388
#     4  10  20  37  63  97 130 155 202 265 321 377
#     4  11  18  36  66  95 122 162 213 256 315 373
#     4  10  20  36  63  96 134 154 196 273 318 374
#     4  12  28  44  62  84 124 176 228 254 320 378
#
# _framework density 22.440283999999998
#
# number of rings (size 3 to 8) (size 9 to 14) (size 15 to 20)
#    0.000    1.412    4.706    2.824    0.000    0.000 
#    2.118   10.588   10.353    0.000    0.000    0.000 
#    0.000    0.000    0.000    0.000    0.000    0.000 
#
# Total GULP energy -421362.499284 kJ/mol
# GULP energy per Si atom -12393.014685 kJ/mol
# Density = 2.238921 g / cm^3
# Si number density = 22.440284 Si / 1000 Ang^3
#
#
#
# Elastic Constant Matrix: (Units=GPa)
#
#
# Indices 1 2 3 4 5 6 
#
# 1 116.4197 49.5358 36.1627 0.0017 -0.0011 -0.0011
# 2 49.5358 158.6554 25.8482 0.0035 -0.0028 -0.0024
# 3 36.1627 25.8482 44.2319 0.0082 -0.0036 -0.0048
# 4 0.0017 0.0035 0.0082 38.8438 -0.0021 -0.0020
# 5 -0.0011 -0.0028 -0.0036 -0.0021 4.3467 0.0019
# 6 -0.0011 -0.0024 -0.0048 -0.0020 0.0019 34.1479
#
#
#
# Elastic Compliance Matrix: (Units=1/GPa)
#
#
# Indices 1 2 3 4 5 6 
#
# 1 0.012310 -0.002436 -0.008641 0.000001 -0.000006 -0.000001
# 2 -0.002436 0.007448 -0.002361 0.000000 0.000002 0.000000
# 3 -0.008641 -0.002361 0.031053 -0.000006 0.000022 0.000004
# 4 0.000001 0.000000 -0.000006 0.025744 0.000012 0.000001
# 5 -0.000006 0.000002 0.000022 0.000012 0.230058 -0.000013
# 6 -0.000001 0.000000 0.000004 0.000001 -0.000013 0.029284
#
#
# Mechanical properties :
#
#
# Convention : Reuss Voigt Hill
#
# Bulk Modulus (GPa) = 41.77977 60.26671 51.02324
# Shear Modulus (GPa) = 13.48612 29.31836 21.40224
#
# Velocity S-wave (km/s) = 2.45415 3.61848 3.09162
# Velocity P-wave (km/s) = 5.16615 6.66128 5.96078
#
# Compressibility (1/GPa) = 0.02393503
#
# Stress axis : x y z
#
# Youngs Moduli (GPa) = 81.23429 134.26182 32.20352
#
# Poissons Ratio (x) = 0.32702 0.27827
# Poissons Ratio (y) = 0.19786 0.07604
# Poissons Ratio (z) = 0.70194 0.31702
#
# Static dielectric constant tensor:
#      x y z
#    x 4.169030 0.000000 0.000010 
#    y 0.000000 4.537330 -0.000010 
#    z 0.000010 -0.000010 3.592050 
# 
# 
# High freq. dielectric constant tensor:
#      x y z
#    x 1.893330 0.000000 0.000000 
#    y 0.000000 1.894830 0.000000 
#    z 0.000000 0.000000 1.840230 
# 
# From -- ./inp_files/19377.got.cif
#   From: 2010.03.12/outbox.cif.g09.slc.cpg/sg70_10_cif.got.tgz:19377.got - 2010.04.16 13:46:32.
