data_PCOD8286292
_publ_section_title
;
Structure prediction by ZEFSAII (Michael W. Deem and Ramdas Pophale) SiO2 
 PCOD8286292
Probable space group: F D D D
;
_chemical_formula_sum "Si O2"
_cell_formula_units_Z 176
_cell_length_a 10.981484
_cell_length_b 26.464289
_cell_length_c 25.010314
_cell_angle_alpha 90.000000
_cell_angle_beta 90.000000
_cell_angle_gamma 90.000000
_cell_volume 7268.426581
_symmetry_space_group_name_H-M "F D D D"
_symmetry_group_IT_number 70
_space_group.IT_coordinate_system_code '2'
_symmetry_cell_setting 'orthorhombic'
loop_
_space_group_symop_operation_xyz
x,y,z
1/4-x,1/4-y,z
x,1/4-y,1/4-z
1/4-x,y,1/4-z
-x,-y,-z
3/4+x,3/4+y,-z
-x,3/4+y,3/4+z
3/4+x,-y,3/4+z
x,1/2+y,1/2+z
1/4-x,3/4-y,1/2+z
x,3/4-y,3/4-z
1/4-x,1/2+y,3/4-z
-x,1/2-y,1/2-z
3/4+x,1/4+y,1/2-z
-x,1/4+y,1/4+z
3/4+x,1/2-y,1/4+z
1/2+x,y,1/2+z
3/4-x,1/4-y,1/2+z
1/2+x,1/4-y,3/4-z
3/4-x,y,3/4-z
1/2-x,-y,1/2-z
1/4+x,3/4+y,1/2-z
1/2-x,3/4+y,1/4+z
1/4+x,-y,1/4+z
1/2+x,1/2+y,z
3/4-x,3/4-y,z
1/2+x,3/4-y,1/4-z
3/4-x,1/2+y,1/4-z
1/2-x,1/2-y,-z
1/4+x,1/4+y,-z
1/2-x,1/4+y,3/4+z
1/4+x,1/2-y,3/4+z
loop_
_atom_site_type_symbol
_atom_site_label
_atom_site_fract_x
_atom_site_fract_y
_atom_site_fract_z
Si Si1 0.125000 0.125000 0.417684
Si Si2 0.546615 0.991468 0.234167
Si Si3 0.121872 0.020929 0.885909
Si Si4 0.221665 0.557493 0.171645
Si Si5 0.339340 0.632744 0.996384
Si Si6 0.581942 0.281239 0.711503
O O1 0.159158 0.173429 0.382432
O O2 0.242913 0.115186 0.452576
O O3 0.451182 0.994778 0.186527
O O4 0.593594 0.934979 0.236593
O O5 0.656311 0.030187 0.222064
O O6 0.472987 0.010743 0.287521
O O7 0.977841 0.024927 0.902157
O O8 0.161295 0.978156 0.842468
O O9 0.125000 0.567538 0.125000
O O10 0.273822 0.611051 0.194914
O O11 0.432868 0.586741 0.989586
O O12 0.500000 0.250000 0.750000
#
# Coordination Sequence:
#
# PCOD8286292 Si02
#       6
#    16  32  32  32  32  32
#     4  12  24  38  69 108 134 178 241 300 368 422
#     4  10  21  42  68  99 144 181 228 286 363 431
#     4  10  22  41  66 103 143 179 237 295 350 432
#     4  10  22  43  69 101 140 183 234 294 359 435
#     4  12  24  40  68 102 139 181 233 295 361 427
#     4  10  24  44  65  99 139 187 234 288 354 426
#
# _framework density 24.214319
#
# number of rings (size 3 to 8) (size 9 to 14) (size 15 to 20)
#    0.000    1.455    1.818    2.727    2.545    4.364 
#    0.000   18.636    0.000    0.000    9.455    0.000 
#    0.000    0.000    0.000    0.000    0.000    0.000 
#
# Total GULP energy -545172.692147 kJ/mol
# GULP energy per Si atom -12390.288458 kJ/mol
# Density = 2.415921 g / cm^3
# Si number density = 24.214319 Si / 1000 Ang^3
#
#
#
# Elastic Constant Matrix: (Units=GPa)
#
#
# Indices 1 2 3 4 5 6 
#
# 1 108.7159 43.4099 49.6329 0.0000 0.0000 0.0000
# 2 43.4099 120.8873 21.8833 0.0000 0.0000 0.0000
# 3 49.6329 21.8833 56.7852 0.0000 0.0000 0.0000
# 4 0.0000 0.0000 0.0000 8.3048 0.0000 0.0000
# 5 0.0000 0.0000 0.0000 0.0000 19.7053 0.0000
# 6 0.0000 0.0000 0.0000 0.0000 0.0000 42.6269
#
#
#
# Elastic Compliance Matrix: (Units=1/GPa)
#
#
# Indices 1 2 3 4 5 6 
#
# 1 0.016641 -0.003593 -0.013161 0.000000 0.000000 0.000000
# 2 -0.003593 0.009668 -0.000585 0.000000 0.000000 0.000000
# 3 -0.013161 -0.000585 0.029339 0.000000 0.000000 0.000000
# 4 0.000000 0.000000 0.000000 0.120413 0.000000 0.000000
# 5 0.000000 0.000000 0.000000 0.000000 0.050748 0.000000
# 6 0.000000 0.000000 0.000000 0.000000 0.000000 0.023459
#
#
# Mechanical properties :
#
#
# Convention : Reuss Voigt Hill
#
# Bulk Modulus (GPa) = 47.68648 57.36006 52.52327
# Shear Modulus (GPa) = 17.12699 25.55822 21.34260
#
# Velocity S-wave (km/s) = 2.66241 3.25237 2.97207
# Velocity P-wave (km/s) = 5.40255 6.15173 5.78927
#
# Compressibility (1/GPa) = 0.02097030
#
# Stress axis : x y z
#
# Youngs Moduli (GPa) = 60.09095 103.42893 34.08477
#
# Poissons Ratio (x) = 0.37167 0.44857
# Poissons Ratio (y) = 0.21594 0.01994
# Poissons Ratio (z) = 0.79083 0.06051
#
# Static dielectric constant tensor:
#      x y z
#    x 6.266500 0.000000 0.000000 
#    y 0.000000 4.292600 0.000000 
#    z 0.000000 0.000000 5.299060 
# 
# 
# High freq. dielectric constant tensor:
#      x y z
#    x 1.971770 0.000000 0.000000 
#    y 0.000000 1.966750 0.000000 
#    z 0.000000 0.000000 1.966130 
# 
# From -- ./inp_files/20981.got.cif
#   From: 2010.03.12/outbox.cif.g09.slc.cpg/sg70_11_cif.got.tgz:20981.got - 2010.04.16 13:46:32.
