data_PCOD8286141
_publ_section_title
;
Structure prediction by ZEFSAII (Michael W. Deem and Ramdas Pophale) SiO2 
 PCOD8286141
Probable space group: F D D D
;
_chemical_formula_sum "Si O2"
_cell_formula_units_Z 80
_cell_length_a 6.994684
_cell_length_b 23.315029
_cell_length_c 17.592170
_cell_angle_alpha 90.000000
_cell_angle_beta 90.000000
_cell_angle_gamma 90.000000
_cell_volume 2868.953255
_symmetry_space_group_name_H-M "F D D D"
_symmetry_group_IT_number 70
_space_group.IT_coordinate_system_code '2'
_symmetry_cell_setting 'orthorhombic'
loop_
_space_group_symop_operation_xyz
x,y,z
1/4-x,1/4-y,z
x,1/4-y,1/4-z
1/4-x,y,1/4-z
-x,-y,-z
3/4+x,3/4+y,-z
-x,3/4+y,3/4+z
3/4+x,-y,3/4+z
x,1/2+y,1/2+z
1/4-x,3/4-y,1/2+z
x,3/4-y,3/4-z
1/4-x,1/2+y,3/4-z
-x,1/2-y,1/2-z
3/4+x,1/4+y,1/2-z
-x,1/4+y,1/4+z
3/4+x,1/2-y,1/4+z
1/2+x,y,1/2+z
3/4-x,1/4-y,1/2+z
1/2+x,1/4-y,3/4-z
3/4-x,y,3/4-z
1/2-x,-y,1/2-z
1/4+x,3/4+y,1/2-z
1/2-x,3/4+y,1/4+z
1/4+x,-y,1/4+z
1/2+x,1/2+y,z
3/4-x,3/4-y,z
1/2+x,3/4-y,1/4-z
3/4-x,1/2+y,1/4-z
1/2-x,1/2-y,-z
1/4+x,1/4+y,-z
1/2-x,1/4+y,3/4+z
1/4+x,1/2-y,3/4+z
loop_
_atom_site_type_symbol
_atom_site_label
_atom_site_fract_x
_atom_site_fract_y
_atom_site_fract_z
Si Si1 0.375000 0.375000 0.038892
Si Si2 0.346147 0.476944 0.606948
Si Si3 0.258663 0.074289 0.544256
O O1 0.445615 0.323748 0.094091
O O2 0.545033 0.398974 0.987293
O O3 0.448340 0.536268 0.630223
O O4 0.355940 0.464221 0.517220
O O5 0.125000 0.481848 0.625000
O O6 0.125000 0.125000 0.571800
#
# Coordination Sequence:
#
# PCOD8286141 Si02
#       3
#    16  32  32
#     4  10  20  40  71 106 154 199 250 316 402 464
#     4  10  21  43  74 112 155 205 258 323 398 471
#     4  11  24  45  76 113 158 209 260 326 396 477
#
# _framework density 27.884734000000002
#
# number of rings (size 3 to 8) (size 9 to 14) (size 15 to 20)
#    0.000    1.600    2.000    4.800    0.000    1.600 
#    0.000   17.000    0.000    9.600    0.000    0.000 
#    0.000    0.000    0.000    0.000    0.000    0.000 
#
# Total GULP energy -247993.632766 kJ/mol
# GULP energy per Si atom -12399.681638 kJ/mol
# Density = 2.782127 g / cm^3
# Si number density = 27.884734 Si / 1000 Ang^3
#
#
#
# Elastic Constant Matrix: (Units=GPa)
#
#
# Indices 1 2 3 4 5 6 
#
# 1 109.9346 71.6371 57.6010 0.0000 0.0000 0.0000
# 2 71.6371 218.2324 93.8727 0.0000 0.0000 0.0000
# 3 57.6010 93.8727 212.9264 0.0000 0.0000 0.0000
# 4 0.0000 0.0000 0.0000 43.7615 0.0000 0.0000
# 5 0.0000 0.0000 0.0000 0.0000 27.9356 0.0000
# 6 0.0000 0.0000 0.0000 0.0000 0.0000 56.4689
#
#
#
# Elastic Compliance Matrix: (Units=1/GPa)
#
#
# Indices 1 2 3 4 5 6 
#
# 1 0.012156 -0.003179 -0.001887 0.000000 0.000000 0.000000
# 2 -0.003179 0.006486 -0.001999 0.000000 0.000000 0.000000
# 3 -0.001887 -0.001999 0.006088 0.000000 0.000000 0.000000
# 4 0.000000 0.000000 0.000000 0.022851 0.000000 0.000000
# 5 0.000000 0.000000 0.000000 0.000000 0.035797 0.000000
# 6 0.000000 0.000000 0.000000 0.000000 0.000000 0.017709
#
#
# Mechanical properties :
#
#
# Convention : Reuss Voigt Hill
#
# Bulk Modulus (GPa) = 94.33957 109.70166 102.02061
# Shear Modulus (GPa) = 42.10474 46.83204 44.46839
#
# Velocity S-wave (km/s) = 3.89003 4.10260 3.99773
# Velocity P-wave (km/s) = 7.35404 7.86564 7.61414
#
# Compressibility (1/GPa) = 0.01060001
#
# Stress axis : x y z
#
# Youngs Moduli (GPa) = 82.26064 154.18303 164.24443
#
# Poissons Ratio (x) = 0.49011 0.30996
# Poissons Ratio (y) = 0.26148 0.32840
# Poissons Ratio (z) = 0.15524 0.30829
#
# Static dielectric constant tensor:
#      x y z
#    x 5.216080 0.000000 0.000000 
#    y 0.000000 5.470680 0.000000 
#    z 0.000000 0.000000 5.445340 
# 
# 
# High freq. dielectric constant tensor:
#      x y z
#    x 2.144870 0.000000 0.000000 
#    y 0.000000 2.138020 0.000000 
#    z 0.000000 0.000000 2.149000 
# 
# From -- ./inp_files/7790.got.cif
#   From: 2010.03.12/outbox.cif.g09.slc.cpg/sg70_4_cif.got.tgz:7790.got - 2010.04.16 13:46:32.
