data_PCOD8286080
_publ_section_title
;
Structure prediction by ZEFSAII (Michael W. Deem and Ramdas Pophale) SiO2 
 PCOD8286080
Probable space group: F D D D
;
_chemical_formula_sum "Si O2"
_cell_formula_units_Z 160
_cell_length_a 15.590827
_cell_length_b 27.031432
_cell_length_c 16.487810
_cell_angle_alpha 90.000000
_cell_angle_beta 90.000000
_cell_angle_gamma 90.000000
_cell_volume 6948.661885
_symmetry_space_group_name_H-M "F D D D"
_symmetry_group_IT_number 70
_space_group.IT_coordinate_system_code '2'
_symmetry_cell_setting 'orthorhombic'
loop_
_space_group_symop_operation_xyz
x,y,z
1/4-x,1/4-y,z
x,1/4-y,1/4-z
1/4-x,y,1/4-z
-x,-y,-z
3/4+x,3/4+y,-z
-x,3/4+y,3/4+z
3/4+x,-y,3/4+z
x,1/2+y,1/2+z
1/4-x,3/4-y,1/2+z
x,3/4-y,3/4-z
1/4-x,1/2+y,3/4-z
-x,1/2-y,1/2-z
3/4+x,1/4+y,1/2-z
-x,1/4+y,1/4+z
3/4+x,1/2-y,1/4+z
1/2+x,y,1/2+z
3/4-x,1/4-y,1/2+z
1/2+x,1/4-y,3/4-z
3/4-x,y,3/4-z
1/2-x,-y,1/2-z
1/4+x,3/4+y,1/2-z
1/2-x,3/4+y,1/4+z
1/4+x,-y,1/4+z
1/2+x,1/2+y,z
3/4-x,3/4-y,z
1/2+x,3/4-y,1/4-z
3/4-x,1/2+y,1/4-z
1/2-x,1/2-y,-z
1/4+x,1/4+y,-z
1/2-x,1/4+y,3/4+z
1/4+x,1/2-y,3/4+z
loop_
_atom_site_type_symbol
_atom_site_label
_atom_site_fract_x
_atom_site_fract_y
_atom_site_fract_z
Si Si1 0.690973 0.853798 0.195799
Si Si2 0.417134 0.926186 0.291977
Si Si3 0.875000 0.875000 0.512436
Si Si4 0.625000 0.703644 0.625000
Si Si5 0.197787 0.764902 0.819829
Si Si6 0.114225 0.918117 0.816883
O O1 0.625000 0.839585 0.125000
O O2 0.793278 0.862209 0.178954
O O3 0.683157 0.807889 0.255585
O O4 0.656194 0.906061 0.230435
O O5 0.375000 0.947021 0.375000
O O6 0.375000 0.875000 0.263372
O O7 0.513690 0.914856 0.312928
O O8 0.411267 0.964339 0.217541
O O9 0.848480 0.829907 0.452457
O O10 0.703133 0.739083 0.652675
O O11 0.142060 0.777973 0.899928
O O12 0.150886 0.875000 0.875000
#
# Coordination Sequence:
#
# PCOD8286080 Si02
#       6
#    32  32  16  16  32  32
#     4  10  20  38  64 105 142 178 235 284 342 422
#     4  11  23  44  64  95 137 183 230 287 349 409
#     4   9  16  34  66  96 143 190 210 284 359 404
#     4   9  16  36  66 102 134 174 234 276 343 420
#     4  10  21  39  71 100 134 184 233 279 349 424
#     4  10  20  43  68  93 135 184 222 285 348 409
#
# _framework density 23.026015999999998
#
# number of rings (size 3 to 8) (size 9 to 14) (size 15 to 20)
#    0.000    2.000    4.000    0.600    0.000    0.800 
#    7.200    3.000    0.000    0.000    0.000    0.000 
#    0.000    0.000    0.000    0.000    0.000    0.000 
#
# Total GULP energy -495644.985363 kJ/mol
# GULP energy per Si atom -12391.124634 kJ/mol
# Density = 2.297361 g / cm^3
# Si number density = 23.026016 Si / 1000 Ang^3
#
#
#
# Elastic Constant Matrix: (Units=GPa)
#
#
# Indices 1 2 3 4 5 6 
#
# 1 165.9376 48.7610 59.2311 0.0000 0.0000 0.0000
# 2 48.7610 118.1620 46.0489 0.0000 0.0000 0.0000
# 3 59.2311 46.0489 72.0075 0.0000 0.0000 0.0000
# 4 0.0000 0.0000 0.0000 36.5165 0.0000 0.0000
# 5 0.0000 0.0000 0.0000 0.0000 35.7151 0.0000
# 6 0.0000 0.0000 0.0000 0.0000 0.0000 -20.8249
#
#
#
# Elastic Compliance Matrix: (Units=1/GPa)
#
#
# Indices 1 2 3 4 5 6 
#
# 1 0.008630 -0.001059 -0.006421 0.000000 0.000000 0.000000
# 2 -0.001059 0.011402 -0.006421 0.000000 0.000000 0.000000
# 3 -0.006421 -0.006421 0.023276 0.000000 0.000000 0.000000
# 4 0.000000 0.000000 0.000000 0.027385 0.000000 0.000000
# 5 0.000000 0.000000 0.000000 0.000000 0.027999 0.000000
# 6 0.000000 0.000000 0.000000 0.000000 0.000000 -0.048019
#
#
# Mechanical properties :
#
#
# Convention : Reuss Voigt Hill
#
# Bulk Modulus (GPa) = 64.49324 73.79879 69.14602
# Shear Modulus (GPa) = 59.77828 23.75241 41.76534
#
# Velocity S-wave (km/s) = 5.10074 3.21525 4.26353
# Velocity P-wave (km/s) = 7.92210 6.77522 7.37100
#
# Compressibility (1/GPa) = 0.01550550
#
# Stress axis : x y z
#
# Youngs Moduli (GPa) = 115.88089 87.70335 42.96330
#
# Poissons Ratio (x) = 0.09284 0.27589
# Poissons Ratio (y) = 0.12267 0.27586
# Poissons Ratio (z) = 0.74412 0.56313
#
# Static dielectric constant tensor:
#      x y z
#    x 4.190660 0.000000 0.000000 
#    y 0.000000 4.152100 0.000000 
#    z 0.000000 0.000000 4.173590 
# 
# 
# High freq. dielectric constant tensor:
#      x y z
#    x 1.922770 0.000000 0.000000 
#    y 0.000000 1.892530 0.000000 
#    z 0.000000 0.000000 1.894590 
# 
# From -- ./inp_files/34027.got.cif
#   From: 2010.03.12/outbox.cif.g09.slc.cpg/sg70_18_cif.got.tgz:34027.got - 2010.04.16 13:46:32.
