data_PCOD8286915
_publ_section_title
;
Structure prediction by ZEFSAII (Michael W. Deem and Ramdas Pophale) SiO2 
 PCOD8286915
Probable space group: I M M M
;
_chemical_formula_sum "Si O2"
_cell_formula_units_Z 80
_cell_length_a 12.032149
_cell_length_b 19.125081
_cell_length_c 17.697854
_cell_angle_alpha 90.000000
_cell_angle_beta 90.000000
_cell_angle_gamma 90.000000
_cell_volume 4072.556260
_symmetry_space_group_name_H-M "I M M M"
_symmetry_group_IT_number 71
_symmetry_cell_setting 'orthorhombic'
loop_
_space_group_symop_operation_xyz
x,y,z
-x,-y,z
x,-y,-z
-x,y,-z
-x,-y,-z
x,y,-z
-x,y,z
x,-y,z
1/2+x,1/2+y,1/2+z
1/2-x,1/2-y,1/2+z
1/2+x,1/2-y,1/2-z
1/2-x,1/2+y,1/2-z
1/2-x,1/2-y,1/2-z
1/2+x,1/2+y,1/2-z
1/2-x,1/2+y,1/2+z
1/2+x,1/2-y,1/2+z
loop_
_atom_site_type_symbol
_atom_site_label
_atom_site_fract_x
_atom_site_fract_y
_atom_site_fract_z
Si Si1 0.129556 0.854716 0.360121
Si Si2 0.777918 0.000000 0.412240
Si Si3 0.000000 0.075903 0.868385
Si Si4 0.131447 0.500000 0.229280
Si Si5 0.224235 0.118389 0.205649
Si Si6 0.000000 0.773091 0.082103
Si Si7 0.238261 0.230683 0.913394
O O1 0.190838 0.839715 0.281058
O O2 0.179393 0.796074 0.415586
O O3 0.000000 0.841401 0.351318
O O4 0.148733 0.931755 0.394006
O O5 0.741186 0.000000 0.500000
O O6 0.669960 0.000000 0.358528
O O7 0.111537 0.078247 0.817799
O O8 0.000000 0.141790 0.924241
O O9 0.000000 0.000000 0.910190
O O10 0.176606 0.566467 0.274236
O O11 0.000000 0.500000 0.230464
O O12 0.277292 0.167795 0.140804
O O13 0.884962 0.747835 0.120426
O O14 0.000000 0.739171 0.000000
O O15 0.226361 0.203182 0.000000
#
# Coordination Sequence:
#
# PCOD8286915 Si02
#       7
#    16   8   8   8  16   8  16
#     4  11  22  37  61  86 113 148 190 237 285 340
#     4  10  23  41  60  87 116 144 185 239 290 333
#     4  10  16  29  60  84 107 145 184 233 280 320
#     4  10  22  39  59  84 116 153 188 227 280 341
#     4  10  20  37  58  85 116 148 192 236 279 333
#     4   8  18  35  52  79 116 146 181 228 279 333
#     4  10  21  38  58  83 115 152 190 233 285 336
#
# _framework density 19.643681000000001
#
# number of rings (size 3 to 8) (size 9 to 14) (size 15 to 20)
#    0.000    2.000    2.000    1.500    0.000    3.200 
#    7.200    0.500    0.000    0.600    0.000    0.000 
#    0.000    0.000    0.000    0.000    0.000    0.000 
#
# Total GULP energy -495665.555281 kJ/mol
# GULP energy per Si atom -12391.638882 kJ/mol
# Density = 1.959897 g / cm^3
# Si number density = 19.643681 Si / 1000 Ang^3
#
#
#
# Elastic Constant Matrix: (Units=GPa)
#
#
# Indices 1 2 3 4 5 6 
#
# 1 130.6672 53.0470 34.9295 0.0000 0.0000 0.0000
# 2 53.0470 104.9980 42.0544 0.0000 0.0000 0.0000
# 3 34.9295 42.0544 112.1467 0.0000 0.0000 0.0000
# 4 0.0000 0.0000 0.0000 21.1171 0.0000 0.0000
# 5 0.0000 0.0000 0.0000 0.0000 16.3617 0.0000
# 6 0.0000 0.0000 0.0000 0.0000 0.0000 24.3218
#
#
#
# Elastic Compliance Matrix: (Units=1/GPa)
#
#
# Indices 1 2 3 4 5 6 
#
# 1 0.009813 -0.004394 -0.001409 0.000000 0.000000 0.000000
# 2 -0.004394 0.013174 -0.003572 0.000000 0.000000 0.000000
# 3 -0.001409 -0.003572 0.010695 0.000000 0.000000 0.000000
# 4 0.000000 0.000000 0.000000 0.047355 0.000000 0.000000
# 5 0.000000 0.000000 0.000000 0.000000 0.061118 0.000000
# 6 0.000000 0.000000 0.000000 0.000000 0.000000 0.041115
#
#
# Mechanical properties :
#
#
# Convention : Reuss Voigt Hill
#
# Bulk Modulus (GPa) = 66.96089 67.54150 67.25120
# Shear Modulus (GPa) = 24.15479 26.87885 25.51682
#
# Velocity S-wave (km/s) = 3.51044 3.70309 3.60805
# Velocity P-wave (km/s) = 7.11285 7.26236 7.18799
#
# Compressibility (1/GPa) = 0.01493409
#
# Stress axis : x y z
#
# Youngs Moduli (GPa) = 101.90241 75.90519 93.50031
#
# Poissons Ratio (x) = 0.33349 0.13173
# Poissons Ratio (y) = 0.44771 0.33397
# Poissons Ratio (z) = 0.14357 0.27112
#
# Static dielectric constant tensor:
#      x y z
#    x 3.501190 0.000000 0.000000 
#    y 0.000000 3.424630 0.000000 
#    z 0.000000 0.000000 3.557730 
# 
# 
# High freq. dielectric constant tensor:
#      x y z
#    x 1.759170 0.000000 0.000000 
#    y 0.000000 1.755270 0.000000 
#    z 0.000000 0.000000 1.763590 
# 
# From -- ./inp_files/43305.got.cif
#   From: 2010.06.25/outbox.cif.g09.slc.cpg/sg71_22_cif.got.tgz:43305.got - 2010.06.28 04:59:45.
