data_PCOD8286653
_publ_section_title
;
Structure prediction by ZEFSAII (Michael W. Deem and Ramdas Pophale) SiO2 
 PCOD8286653
Probable space group: F D D D
;
_chemical_formula_sum "Si O2"
_cell_formula_units_Z 192
_cell_length_a 16.756153
_cell_length_b 31.727841
_cell_length_c 16.400214
_cell_angle_alpha 90.000000
_cell_angle_beta 90.000000
_cell_angle_gamma 90.000000
_cell_volume 8718.953324
_symmetry_space_group_name_H-M "F D D D"
_symmetry_group_IT_number 70
_space_group.IT_coordinate_system_code '2'
_symmetry_cell_setting 'orthorhombic'
loop_
_space_group_symop_operation_xyz
x,y,z
1/4-x,1/4-y,z
x,1/4-y,1/4-z
1/4-x,y,1/4-z
-x,-y,-z
3/4+x,3/4+y,-z
-x,3/4+y,3/4+z
3/4+x,-y,3/4+z
x,1/2+y,1/2+z
1/4-x,3/4-y,1/2+z
x,3/4-y,3/4-z
1/4-x,1/2+y,3/4-z
-x,1/2-y,1/2-z
3/4+x,1/4+y,1/2-z
-x,1/4+y,1/4+z
3/4+x,1/2-y,1/4+z
1/2+x,y,1/2+z
3/4-x,1/4-y,1/2+z
1/2+x,1/4-y,3/4-z
3/4-x,y,3/4-z
1/2-x,-y,1/2-z
1/4+x,3/4+y,1/2-z
1/2-x,3/4+y,1/4+z
1/4+x,-y,1/4+z
1/2+x,1/2+y,z
3/4-x,3/4-y,z
1/2+x,3/4-y,1/4-z
3/4-x,1/2+y,1/4-z
1/2-x,1/2-y,-z
1/4+x,1/4+y,-z
1/2-x,1/4+y,3/4+z
1/4+x,1/2-y,3/4+z
loop_
_atom_site_type_symbol
_atom_site_label
_atom_site_fract_x
_atom_site_fract_y
_atom_site_fract_z
Si Si1 0.925081 0.584992 0.010970
Si Si2 0.298610 0.125000 0.125000
Si Si3 0.701462 0.550567 0.177032
Si Si4 0.317972 0.478458 0.643778
Si Si5 0.469193 0.528742 0.646502
Si Si6 0.125000 0.979351 0.625000
Si Si7 0.052658 0.423974 0.690576
O O1 0.846345 0.597574 0.059921
O O2 0.984485 0.565080 0.078575
O O3 0.908332 0.548923 0.946618
O O4 0.960720 0.625258 0.964141
O O5 0.248479 0.094367 0.183302
O O6 0.625000 0.560045 0.125000
O O7 0.672149 0.535324 0.263819
O O8 0.754244 0.515581 0.132112
O O9 0.404892 0.494234 0.612995
O O10 0.283012 0.438821 0.593822
O O11 0.554328 0.507611 0.663313
O O12 0.429158 0.549222 0.727610
O O13 0.125000 0.430336 0.625000
#
# Coordination Sequence:
#
# PCOD8286653 Si02
#       7
#    32  16  32  32  32  16  32
#     4  12  24  47  73 100 140 192 238 295 359 423
#     4  12  23  42  68 103 146 188 228 293 366 422
#     4  11  23  39  65 106 148 183 226 280 354 435
#     4  11  22  40  69 103 140 183 234 287 346 428
#     4  12  25  49  72 104 140 191 244 296 361 430
#     4  12  30  48  75  98 142 194 250 297 352 436
#     4  12  23  43  76 108 143 186 235 296 366 436
#
# _framework density 22.020993000000001
#
# number of rings (size 3 to 8) (size 9 to 14) (size 15 to 20)
#    0.000    0.333    4.167    6.250    2.333    0.000 
#    0.000    4.167    0.000    0.000    0.000    0.000 
#    0.000    0.000    0.000    0.000    0.000    0.000 
#
# Total GULP energy -595280.373146 kJ/mol
# GULP energy per Si atom -12401.674441 kJ/mol
# Density = 2.197087 g / cm^3
# Si number density = 22.020993 Si / 1000 Ang^3
#
#
#
# Elastic Constant Matrix: (Units=GPa)
#
#
# Indices 1 2 3 4 5 6 
#
# 1 84.8452 47.8554 24.5274 0.0000 0.0000 0.0000
# 2 47.8554 132.6607 46.3257 0.0000 0.0000 0.0000
# 3 24.5274 46.3257 91.2545 0.0000 0.0000 0.0000
# 4 0.0000 0.0000 0.0000 57.4807 0.0000 0.0000
# 5 0.0000 0.0000 0.0000 0.0000 19.9260 0.0000
# 6 0.0000 0.0000 0.0000 0.0000 0.0000 16.6238
#
#
#
# Elastic Compliance Matrix: (Units=1/GPa)
#
#
# Indices 1 2 3 4 5 6 
#
# 1 0.014977 -0.004858 -0.001559 0.000000 0.000000 0.000000
# 2 -0.004858 0.010738 -0.004145 0.000000 0.000000 0.000000
# 3 -0.001559 -0.004145 0.013482 0.000000 0.000000 0.000000
# 4 0.000000 0.000000 0.000000 0.017397 0.000000 0.000000
# 5 0.000000 0.000000 0.000000 0.000000 0.050186 0.000000
# 6 0.000000 0.000000 0.000000 0.000000 0.000000 0.060155
#
#
# Mechanical properties :
#
#
# Convention : Reuss Voigt Hill
#
# Bulk Modulus (GPa) = 55.33644 60.68639 58.01142
# Shear Modulus (GPa) = 25.76195 31.47622 28.61909
#
# Velocity S-wave (km/s) = 3.42406 3.78481 3.60895
# Velocity P-wave (km/s) = 6.38872 6.83505 6.61565
#
# Compressibility (1/GPa) = 0.01807127
#
# Stress axis : x y z
#
# Youngs Moduli (GPa) = 66.76833 93.12537 74.17334
#
# Poissons Ratio (x) = 0.45243 0.11565
# Poissons Ratio (y) = 0.32438 0.30748
# Poissons Ratio (z) = 0.10411 0.38605
#
# Static dielectric constant tensor:
#      x y z
#    x 3.760880 0.000000 0.000000 
#    y 0.000000 4.351860 0.000000 
#    z 0.000000 0.000000 4.203860 
# 
# 
# High freq. dielectric constant tensor:
#      x y z
#    x 1.845870 0.000000 0.000000 
#    y 0.000000 1.878360 0.000000 
#    z 0.000000 0.000000 1.877400 
# 
# From -- ./inp_files/35537.got.cif
#   From: 2010.03.12/outbox.cif.g09.slc.cpg/sg70_18_cif.got.tgz:35537.got - 2010.04.16 13:46:32.
