data_PCOD8286871
_publ_section_title
;
Structure prediction by ZEFSAII (Michael W. Deem and Ramdas Pophale) SiO2 
 PCOD8286871
Probable space group: I M M M
;
_chemical_formula_sum "Si O2"
_cell_formula_units_Z 100
_cell_length_a 21.851962
_cell_length_b 26.545474
_cell_length_c 9.070374
_cell_angle_alpha 90.000000
_cell_angle_beta 90.000000
_cell_angle_gamma 90.000000
_cell_volume 5261.458097
_symmetry_space_group_name_H-M "I M M M"
_symmetry_group_IT_number 71
_symmetry_cell_setting 'orthorhombic'
loop_
_space_group_symop_operation_xyz
x,y,z
-x,-y,z
x,-y,-z
-x,y,-z
-x,-y,-z
x,y,-z
-x,y,z
x,-y,z
1/2+x,1/2+y,1/2+z
1/2-x,1/2-y,1/2+z
1/2+x,1/2-y,1/2-z
1/2-x,1/2+y,1/2-z
1/2-x,1/2-y,1/2-z
1/2+x,1/2+y,1/2-z
1/2-x,1/2+y,1/2+z
1/2+x,1/2-y,1/2+z
loop_
_atom_site_type_symbol
_atom_site_label
_atom_site_fract_x
_atom_site_fract_y
_atom_site_fract_z
Si Si1 0.429293 0.726103 0.172650
Si Si2 0.885474 0.677640 0.827452
Si Si3 0.361985 0.000000 0.659989
Si Si4 0.929312 0.124021 0.827963
Si Si5 0.204086 0.595422 0.174608
Si Si6 0.500000 0.000000 0.707921
Si Si7 0.500000 0.891966 0.674174
Si Si8 0.165613 0.941391 0.671147
O O1 0.500000 0.736626 0.211837
O O2 0.388734 0.771251 0.235532
O O3 0.407025 0.674618 0.247396
O O4 0.418139 0.721161 0.000000
O O5 0.823335 0.649313 0.775451
O O6 0.941207 0.640884 0.787201
O O7 0.886437 0.691312 0.000000
O O8 0.337621 0.949847 0.743195
O O9 0.434430 0.000000 0.627671
O O10 0.329368 0.000000 0.500000
O O11 0.891554 0.076864 0.766756
O O12 0.000000 0.112868 0.792996
O O13 0.917317 0.130675 0.000000
O O14 0.274315 0.589335 0.223925
O O15 0.197590 0.593342 0.000000
O O16 0.500000 0.943180 0.778516
O O17 0.500000 0.908327 0.500000
O O18 0.151451 0.931497 0.500000
O O19 0.177059 0.000000 0.702214
#
# Coordination Sequence:
#
# PCOD8286871 Si02
#       8
#    16  16   8  16  16   4   8  16
#     4  10  20  35  56  81 110 145 183 227 281 340
#     4  10  18  29  48  77 111 147 189 233 274 316
#     4  10  15  22  38  66 107 148 186 227 272 308
#     4  10  22  40  62  87 112 137 171 223 281 336
#     4   9  17  29  47  74 110 150 189 227 266 314
#     4  12  17  20  36  74 119 150 185 242 287 312
#     4  10  17  22  37  69 108 145 183 230 276 310
#     4  10  20  36  59  85 115 151 185 219 266 327
#
# _framework density 19.006139000000001
#
# number of rings (size 3 to 8) (size 9 to 14) (size 15 to 20)
#    0.000    2.080    3.200    1.680    0.000    2.240 
#    0.000    3.200    0.000    0.000    0.000    2.240 
#    0.000    0.000    0.000    0.000    0.000    0.000 
#
# Total GULP energy -619581.941348 kJ/mol
# GULP energy per Si atom -12391.638827 kJ/mol
# Density = 1.896288 g / cm^3
# Si number density = 19.006139 Si / 1000 Ang^3
#
#
#
# Elastic Constant Matrix: (Units=GPa)
#
#
# Indices 1 2 3 4 5 6 
#
# 1 98.0440 51.1728 36.1243 0.0000 0.0000 0.0000
# 2 51.1728 84.7242 36.9416 0.0000 0.0000 0.0000
# 3 36.1243 36.9416 55.3135 0.0000 0.0000 0.0000
# 4 0.0000 0.0000 0.0000 21.6212 0.0000 0.0000
# 5 0.0000 0.0000 0.0000 0.0000 16.9742 0.0000
# 6 0.0000 0.0000 0.0000 0.0000 0.0000 31.2671
#
#
#
# Elastic Compliance Matrix: (Units=1/GPa)
#
#
# Indices 1 2 3 4 5 6 
#
# 1 0.016059 -0.007233 -0.005657 0.000000 0.000000 0.000000
# 2 -0.007233 0.019910 -0.008573 0.000000 0.000000 0.000000
# 3 -0.005657 -0.008573 0.027499 0.000000 0.000000 0.000000
# 4 0.000000 0.000000 0.000000 0.046251 0.000000 0.000000
# 5 0.000000 0.000000 0.000000 0.000000 0.058913 0.000000
# 6 0.000000 0.000000 0.000000 0.000000 0.000000 0.031983
#
#
# Mechanical properties :
#
#
# Convention : Reuss Voigt Hill
#
# Bulk Modulus (GPa) = 48.68290 54.06210 51.37250
# Shear Modulus (GPa) = 19.96897 21.56202 20.76550
#
# Velocity S-wave (km/s) = 3.24490 3.37185 3.30899
# Velocity P-wave (km/s) = 6.30152 6.60799 6.45657
#
# Compressibility (1/GPa) = 0.02054109
#
# Stress axis : x y z
#
# Youngs Moduli (GPa) = 62.27029 50.22679 36.36458
#
# Poissons Ratio (x) = 0.36328 0.20573
# Poissons Ratio (y) = 0.45039 0.31176
# Poissons Ratio (z) = 0.35229 0.43061
#
# Static dielectric constant tensor:
#      x y z
#    x 3.477940 0.000000 0.000000 
#    y 0.000000 3.585380 0.000000 
#    z 0.000000 0.000000 3.013340 
# 
# 
# High freq. dielectric constant tensor:
#      x y z
#    x 1.732540 0.000000 0.000000 
#    y 0.000000 1.748840 0.000000 
#    z 0.000000 0.000000 1.688230 
# 
# From -- ./inp_files/11222.got.cif
#   From: 2010.06.25/outbox.cif.g09.slc.cpg/sg71_6_cif.got.tgz:11222.got - 2010.06.28 04:59:45.
