data_PCOD8286112
_publ_section_title
;
Structure prediction by ZEFSAII (Michael W. Deem and Ramdas Pophale) SiO2 
 PCOD8286112
Probable space group: F D D D
;
_chemical_formula_sum "Si O2"
_cell_formula_units_Z 160
_cell_length_a 25.107215
_cell_length_b 17.124417
_cell_length_c 15.669425
_cell_angle_alpha 90.000000
_cell_angle_beta 90.000000
_cell_angle_gamma 90.000000
_cell_volume 6737.013172
_symmetry_space_group_name_H-M "F D D D"
_symmetry_group_IT_number 70
_space_group.IT_coordinate_system_code '2'
_symmetry_cell_setting 'orthorhombic'
loop_
_space_group_symop_operation_xyz
x,y,z
1/4-x,1/4-y,z
x,1/4-y,1/4-z
1/4-x,y,1/4-z
-x,-y,-z
3/4+x,3/4+y,-z
-x,3/4+y,3/4+z
3/4+x,-y,3/4+z
x,1/2+y,1/2+z
1/4-x,3/4-y,1/2+z
x,3/4-y,3/4-z
1/4-x,1/2+y,3/4-z
-x,1/2-y,1/2-z
3/4+x,1/4+y,1/2-z
-x,1/4+y,1/4+z
3/4+x,1/2-y,1/4+z
1/2+x,y,1/2+z
3/4-x,1/4-y,1/2+z
1/2+x,1/4-y,3/4-z
3/4-x,y,3/4-z
1/2-x,-y,1/2-z
1/4+x,3/4+y,1/2-z
1/2-x,3/4+y,1/4+z
1/4+x,-y,1/4+z
1/2+x,1/2+y,z
3/4-x,3/4-y,z
1/2+x,3/4-y,1/4-z
3/4-x,1/2+y,1/4-z
1/2-x,1/2-y,-z
1/4+x,1/4+y,-z
1/2-x,1/4+y,3/4+z
1/4+x,1/2-y,3/4+z
loop_
_atom_site_type_symbol
_atom_site_label
_atom_site_fract_x
_atom_site_fract_y
_atom_site_fract_z
Si Si1 0.462058 0.569933 0.247056
Si Si2 0.226156 0.431383 0.193913
Si Si3 0.921948 0.417719 0.251626
Si Si4 0.426832 0.835220 0.072589
Si Si5 0.362815 0.593659 0.032870
O O1 0.473820 0.543804 0.344413
O O2 0.520218 0.581497 0.202459
O O3 0.426282 0.507552 0.194103
O O4 0.426084 0.648195 0.239603
O O5 0.250000 0.500000 0.250000
O O6 0.267221 0.362239 0.216071
O O7 0.167998 0.400263 0.217346
O O8 0.875000 0.375000 0.307567
O O9 0.926825 0.359025 0.171223
O O10 0.904252 0.504234 0.224961
O O11 0.375000 0.875000 0.027474
O O12 0.347208 0.625000 0.125000
#
# Coordination Sequence:
#
# PCOD8286112 Si02
#       5
#    32  32  32  32  32
#     4  11  23  42  68 100 135 185 231 288 356 422
#     4  11  23  39  65 101 144 180 228 291 354 426
#     4  10  22  42  66  98 134 179 230 291 343 414
#     4  10  20  39  64  98 136 174 227 282 348 420
#     4  12  23  41  69  99 139 184 235 285 353 423
#
# _framework density 23.749396999999998
#
# number of rings (size 3 to 8) (size 9 to 14) (size 15 to 20)
#    0.000    1.200    2.000    6.600    0.000    0.800 
#    0.000    1.000    0.000    0.000    0.000    0.000 
#    0.000    0.000    0.000    0.000    0.000    0.000 
#
# Total GULP energy -495643.614419 kJ/mol
# GULP energy per Si atom -12391.090360 kJ/mol
# Density = 2.369534 g / cm^3
# Si number density = 23.749397 Si / 1000 Ang^3
#
#
#
# Elastic Constant Matrix: (Units=GPa)
#
#
# Indices 1 2 3 4 5 6 
#
# 1 204.1620 57.1348 1.0871 0.0000 0.0000 0.0000
# 2 57.1348 100.6664 30.5337 0.0000 0.0000 0.0000
# 3 1.0871 30.5337 61.8705 0.0000 0.0000 0.0000
# 4 0.0000 0.0000 0.0000 24.3542 0.0000 0.0000
# 5 0.0000 0.0000 0.0000 0.0000 22.7743 0.0000
# 6 0.0000 0.0000 0.0000 0.0000 0.0000 45.2984
#
#
#
# Elastic Compliance Matrix: (Units=1/GPa)
#
#
# Indices 1 2 3 4 5 6 
#
# 1 0.005998 -0.003966 0.001852 0.000000 0.000000 0.000000
# 2 -0.003966 0.014305 -0.006990 0.000000 0.000000 0.000000
# 3 0.001852 -0.006990 0.019580 0.000000 0.000000 0.000000
# 4 0.000000 0.000000 0.000000 0.041061 0.000000 0.000000
# 5 0.000000 0.000000 0.000000 0.000000 0.043909 0.000000
# 6 0.000000 0.000000 0.000000 0.000000 0.000000 0.022076
#
#
# Mechanical properties :
#
#
# Convention : Reuss Voigt Hill
#
# Bulk Modulus (GPa) = 46.13668 60.46779 53.30224
# Shear Modulus (GPa) = 29.00877 37.01493 33.01185
#
# Velocity S-wave (km/s) = 3.49872 3.95215 3.73233
# Velocity P-wave (km/s) = 5.98248 6.80750 6.40828
#
# Compressibility (1/GPa) = 0.02167473
#
# Stress axis : x y z
#
# Youngs Moduli (GPa) = 166.71943 69.90595 51.07291
#
# Poissons Ratio (x) = 0.27725 -0.09458
# Poissons Ratio (y) = 0.66121 0.35700
# Poissons Ratio (z) = -0.30874 0.48864
#
# Static dielectric constant tensor:
#      x y z
#    x 6.057590 0.000000 0.000000 
#    y 0.000000 4.157300 0.000000 
#    z 0.000000 0.000000 3.901120 
# 
# 
# High freq. dielectric constant tensor:
#      x y z
#    x 1.976970 0.000000 0.000000 
#    y 0.000000 1.938970 0.000000 
#    z 0.000000 0.000000 1.913670 
# 
# From -- ./inp_files/38443.got.cif
#   From: 2010.03.12/outbox.cif.g09.slc.cpg/sg70_20_cif.got.tgz:38443.got - 2010.04.16 13:46:32.
