data_PCOD8286418
_publ_section_title
;
Structure prediction by ZEFSAII (Michael W. Deem and Ramdas Pophale) SiO2 
 PCOD8286418
Probable space group: F D D D
;
_chemical_formula_sum "Si O2"
_cell_formula_units_Z 176
_cell_length_a 30.196556
_cell_length_b 11.876723
_cell_length_c 21.028503
_cell_angle_alpha 90.000000
_cell_angle_beta 90.000000
_cell_angle_gamma 90.000000
_cell_volume 7541.580960
_symmetry_space_group_name_H-M "F D D D"
_symmetry_group_IT_number 70
_space_group.IT_coordinate_system_code '2'
_symmetry_cell_setting 'orthorhombic'
loop_
_space_group_symop_operation_xyz
x,y,z
1/4-x,1/4-y,z
x,1/4-y,1/4-z
1/4-x,y,1/4-z
-x,-y,-z
3/4+x,3/4+y,-z
-x,3/4+y,3/4+z
3/4+x,-y,3/4+z
x,1/2+y,1/2+z
1/4-x,3/4-y,1/2+z
x,3/4-y,3/4-z
1/4-x,1/2+y,3/4-z
-x,1/2-y,1/2-z
3/4+x,1/4+y,1/2-z
-x,1/4+y,1/4+z
3/4+x,1/2-y,1/4+z
1/2+x,y,1/2+z
3/4-x,1/4-y,1/2+z
1/2+x,1/4-y,3/4-z
3/4-x,y,3/4-z
1/2-x,-y,1/2-z
1/4+x,3/4+y,1/2-z
1/2-x,3/4+y,1/4+z
1/4+x,-y,1/4+z
1/2+x,1/2+y,z
3/4-x,3/4-y,z
1/2+x,3/4-y,1/4-z
3/4-x,1/2+y,1/4-z
1/2-x,1/2-y,-z
1/4+x,1/4+y,-z
1/2-x,1/4+y,3/4+z
1/4+x,1/2-y,3/4+z
loop_
_atom_site_type_symbol
_atom_site_label
_atom_site_fract_x
_atom_site_fract_y
_atom_site_fract_z
Si Si1 0.036401 0.544038 0.678124
Si Si2 0.875000 0.375000 0.495067
Si Si3 0.044877 0.256451 0.512769
Si Si4 0.187116 0.022969 0.783570
Si Si5 0.970423 0.707616 0.346804
Si Si6 0.141038 0.857969 0.442995
O O1 0.015394 0.625000 0.625000
O O2 0.083226 0.596954 0.700097
O O3 0.037845 0.424588 0.642219
O O4 0.005003 0.531168 0.739585
O O5 0.871511 0.270372 0.543371
O O6 0.069007 0.158006 0.471501
O O7 0.041898 0.228329 0.587700
O O8 0.075632 0.363759 0.500436
O O9 0.230967 0.001720 0.825095
O O10 0.187918 0.987119 0.710130
O O11 0.149432 0.946573 0.814050
O O12 0.165407 0.875000 0.375000
#
# Coordination Sequence:
#
# PCOD8286418 Si02
#       6
#    32  16  32  32  32  32
#     4  11  24  44  68 101 141 187 235 288 355 437
#     4  12  27  46  72  98 136 193 232 292 358 430
#     4  11  25  43  73 106 143 184 238 299 361 427
#     4  10  23  44  71 105 139 187 238 298 358 430
#     4  10  22  43  73 104 140 186 242 293 363 430
#     4  12  28  45  71 105 142 187 239 299 365 435
#
# _framework density 23.337281999999998
#
# number of rings (size 3 to 8) (size 9 to 14) (size 15 to 20)
#    0.000    1.091    1.818    3.000    5.091    5.091 
#    0.000    1.818    0.000    0.000    0.000    0.000 
#    0.000    0.000    0.000    0.000    0.000    0.000 
#
# Total GULP energy -545325.983025 kJ/mol
# GULP energy per Si atom -12393.772341 kJ/mol
# Density = 2.328417 g / cm^3
# Si number density = 23.337282 Si / 1000 Ang^3
#
#
#
# Elastic Constant Matrix: (Units=GPa)
#
#
# Indices 1 2 3 4 5 6 
#
# 1 75.2317 29.2651 9.2888 0.0000 0.0000 0.0000
# 2 29.2651 100.9713 16.5196 0.0000 0.0000 0.0000
# 3 9.2888 16.5196 113.6744 0.0000 0.0000 0.0000
# 4 0.0000 0.0000 0.0000 35.3275 0.0000 0.0000
# 5 0.0000 0.0000 0.0000 0.0000 26.6113 0.0000
# 6 0.0000 0.0000 0.0000 0.0000 0.0000 37.8293
#
#
#
# Elastic Compliance Matrix: (Units=1/GPa)
#
#
# Indices 1 2 3 4 5 6 
#
# 1 0.015022 -0.004254 -0.000609 0.000000 0.000000 0.000000
# 2 -0.004254 0.011350 -0.001302 0.000000 0.000000 0.000000
# 3 -0.000609 -0.001302 0.009036 0.000000 0.000000 0.000000
# 4 0.000000 0.000000 0.000000 0.028307 0.000000 0.000000
# 5 0.000000 0.000000 0.000000 0.000000 0.037578 0.000000
# 6 0.000000 0.000000 0.000000 0.000000 0.000000 0.026435
#
#
# Mechanical properties :
#
#
# Convention : Reuss Voigt Hill
#
# Bulk Modulus (GPa) = 43.33224 44.44714 43.88969
# Shear Modulus (GPa) = 33.84077 35.60721 34.72399
#
# Velocity S-wave (km/s) = 3.81211 3.91034 3.86154
# Velocity P-wave (km/s) = 6.16315 6.28288 6.22330
#
# Compressibility (1/GPa) = 0.02307750
#
# Stress axis : x y z
#
# Youngs Moduli (GPa) = 66.56704 88.10694 110.66817
#
# Poissons Ratio (x) = 0.37484 0.06743
# Poissons Ratio (y) = 0.28320 0.14406
# Poissons Ratio (z) = 0.04056 0.11469
#
# Static dielectric constant tensor:
#      x y z
#    x 3.961680 0.000000 0.000000 
#    y 0.000000 4.591080 0.000000 
#    z 0.000000 0.000000 4.101490 
# 
# 
# High freq. dielectric constant tensor:
#      x y z
#    x 1.907680 0.000000 0.000000 
#    y 0.000000 1.944100 0.000000 
#    z 0.000000 0.000000 1.929530 
# 
# From -- ./inp_files/54966.got.cif
#   From: 2010.03.12/outbox.cif.g09.slc.cpg/sg70_28_cif.got.tgz:54966.got - 2010.04.16 13:46:32.
