data_PCOD8286496
_publ_section_title
;
Structure prediction by ZEFSAII (Michael W. Deem and Ramdas Pophale) SiO2 
 PCOD8286496
Probable space group: F D D D
;
_chemical_formula_sum "Si O2"
_cell_formula_units_Z 216
_cell_length_a 13.086390
_cell_length_b 22.758886
_cell_length_c 30.114015
_cell_angle_alpha 90.000000
_cell_angle_beta 90.000000
_cell_angle_gamma 90.000000
_cell_volume 8968.907021
_symmetry_space_group_name_H-M "F D D D"
_symmetry_group_IT_number 70
_space_group.IT_coordinate_system_code '2'
_symmetry_cell_setting 'orthorhombic'
loop_
_space_group_symop_operation_xyz
x,y,z
1/4-x,1/4-y,z
x,1/4-y,1/4-z
1/4-x,y,1/4-z
-x,-y,-z
3/4+x,3/4+y,-z
-x,3/4+y,3/4+z
3/4+x,-y,3/4+z
x,1/2+y,1/2+z
1/4-x,3/4-y,1/2+z
x,3/4-y,3/4-z
1/4-x,1/2+y,3/4-z
-x,1/2-y,1/2-z
3/4+x,1/4+y,1/2-z
-x,1/4+y,1/4+z
3/4+x,1/2-y,1/4+z
1/2+x,y,1/2+z
3/4-x,1/4-y,1/2+z
1/2+x,1/4-y,3/4-z
3/4-x,y,3/4-z
1/2-x,-y,1/2-z
1/4+x,3/4+y,1/2-z
1/2-x,3/4+y,1/4+z
1/4+x,-y,1/4+z
1/2+x,1/2+y,z
3/4-x,3/4-y,z
1/2+x,3/4-y,1/4-z
3/4-x,1/2+y,1/4-z
1/2-x,1/2-y,-z
1/4+x,1/4+y,-z
1/2-x,1/4+y,3/4+z
1/4+x,1/2-y,3/4+z
loop_
_atom_site_type_symbol
_atom_site_label
_atom_site_fract_x
_atom_site_fract_y
_atom_site_fract_z
Si Si1 0.360952 0.512950 0.654251
Si Si2 0.693767 0.443666 0.432678
Si Si3 0.492982 0.084430 0.874185
Si Si4 0.261940 0.671648 0.451382
Si Si5 0.976123 0.647106 0.047927
Si Si6 0.625000 0.625000 0.625000
Si Si7 0.125000 0.625000 0.725262
Si Si8 0.250948 0.424464 0.546063
O O1 0.316509 0.561529 0.620481
O O2 0.441522 0.474627 0.625415
O O3 0.264956 0.476309 0.670680
O O4 0.404767 0.545500 0.697497
O O5 0.593054 0.412228 0.453334
O O6 0.799883 0.414046 0.445903
O O7 0.696546 0.512828 0.445505
O O8 0.375000 0.066754 0.875000
O O9 0.515035 0.113392 0.826557
O O10 0.525689 0.128265 0.914432
O O11 0.194831 0.669069 0.495802
O O12 0.380166 0.678368 0.461328
O O13 0.050301 0.658048 0.090527
O O14 0.039925 0.650233 0.001853
#
# Coordination Sequence:
#
# PCOD8286496 Si02
#       8
#    32  32  32  32  32   8  16  32
#     4  12  24  45  73 103 148 200 241 314 375 463
#     4  12  27  47  72 111 155 193 251 312 386 453
#     4  10  23  42  74 109 139 188 255 312 372 443
#     4  11  22  45  74 108 152 193 250 301 389 451
#     4  12  28  51  74 108 150 199 265 303 395 462
#     4  12  28  56  70  98 148 216 238 324 380 472
#     4  12  24  44  76 108 152 200 237 311 378 466
#     4  11  26  47  76 113 148 194 257 325 367 457
#
# _framework density 24.083202
#
# number of rings (size 3 to 8) (size 9 to 14) (size 15 to 20)
#    0.000    0.593    5.926    0.889    3.111    2.370 
#    2.667    1.481    0.000    0.000    0.000    0.000 
#    0.000    0.000    0.000    0.000    0.000    0.000 
#
# Total GULP energy -669332.724644 kJ/mol
# GULP energy per Si atom -12395.050456 kJ/mol
# Density = 2.402839 g / cm^3
# Si number density = 24.083202 Si / 1000 Ang^3
#
#
#
# Elastic Constant Matrix: (Units=GPa)
#
#
# Indices 1 2 3 4 5 6 
#
# 1 101.7030 37.1687 33.4334 0.0000 0.0000 0.0000
# 2 37.1687 112.5695 41.6139 0.0000 0.0000 0.0000
# 3 33.4334 41.6139 114.2638 0.0000 0.0000 0.0000
# 4 0.0000 0.0000 0.0000 41.8371 0.0000 0.0000
# 5 0.0000 0.0000 0.0000 0.0000 19.2945 0.0000
# 6 0.0000 0.0000 0.0000 0.0000 0.0000 28.2196
#
#
#
# Elastic Compliance Matrix: (Units=1/GPa)
#
#
# Indices 1 2 3 4 5 6 
#
# 1 0.011695 -0.003000 -0.002329 0.000000 0.000000 0.000000
# 2 -0.003000 0.011035 -0.003141 0.000000 0.000000 0.000000
# 3 -0.002329 -0.003141 0.010577 0.000000 0.000000 0.000000
# 4 0.000000 0.000000 0.000000 0.023902 0.000000 0.000000
# 5 0.000000 0.000000 0.000000 0.000000 0.051828 0.000000
# 6 0.000000 0.000000 0.000000 0.000000 0.000000 0.035436
#
#
# Mechanical properties :
#
#
# Convention : Reuss Voigt Hill
#
# Bulk Modulus (GPa) = 61.10243 61.44093 61.27168
# Shear Modulus (GPa) = 29.96337 32.29159 31.12748
#
# Velocity S-wave (km/s) = 3.53109 3.66571 3.59903
# Velocity P-wave (km/s) = 6.48470 6.59424 6.53970
#
# Compressibility (1/GPa) = 0.01636596
#
# Stress axis : x y z
#
# Youngs Moduli (GPa) = 85.50839 90.61879 94.54373
#
# Poissons Ratio (x) = 0.27189 0.22021
# Poissons Ratio (y) = 0.25656 0.29696
# Poissons Ratio (z) = 0.19916 0.28464
#
# Static dielectric constant tensor:
#      x y z
#    x 4.587750 0.000000 0.000000 
#    y 0.000000 4.179180 0.000000 
#    z 0.000000 0.000000 4.602190 
# 
# 
# High freq. dielectric constant tensor:
#      x y z
#    x 1.969900 0.000000 0.000000 
#    y 0.000000 1.945590 0.000000 
#    z 0.000000 0.000000 1.967950 
# 
# From -- ./inp_files/65987.got.cif
#   From: 2010.03.12/outbox.cif.g09.slc.cpg/sg70_33_cif.got.tgz:65987.got - 2010.04.16 13:46:32.
