data_PCOD8286894
_publ_section_title
;
Structure prediction by ZEFSAII (Michael W. Deem and Ramdas Pophale) SiO2 
 PCOD8286894
Probable space group: I M M M
;
_chemical_formula_sum "Si O2"
_cell_formula_units_Z 88
_cell_length_a 30.414188
_cell_length_b 24.089225
_cell_length_c 8.921919
_cell_angle_alpha 90.000000
_cell_angle_beta 90.000000
_cell_angle_gamma 90.000000
_cell_volume 6536.681587
_symmetry_space_group_name_H-M "I M M M"
_symmetry_group_IT_number 71
_symmetry_cell_setting 'orthorhombic'
loop_
_space_group_symop_operation_xyz
x,y,z
-x,-y,z
x,-y,-z
-x,y,-z
-x,-y,-z
x,y,-z
-x,y,z
x,-y,z
1/2+x,1/2+y,1/2+z
1/2-x,1/2-y,1/2+z
1/2+x,1/2-y,1/2-z
1/2-x,1/2+y,1/2-z
1/2-x,1/2-y,1/2-z
1/2+x,1/2+y,1/2-z
1/2-x,1/2+y,1/2+z
1/2+x,1/2-y,1/2+z
loop_
_atom_site_type_symbol
_atom_site_label
_atom_site_fract_x
_atom_site_fract_y
_atom_site_fract_z
Si Si1 0.839627 0.817512 0.822863
Si Si2 0.852468 0.000000 0.667588
Si Si3 0.908476 0.109281 0.327946
Si Si4 0.747287 0.619383 0.675976
Si Si5 0.206868 0.274481 0.323773
Si Si6 0.736202 0.500000 0.324833
Si Si7 0.000000 0.937127 0.321493
O O1 0.885834 0.842630 0.769646
O O2 0.798644 0.854801 0.761282
O O3 0.834990 0.755212 0.752869
O O4 0.839220 0.811894 0.000000
O O5 0.882394 0.052845 0.692527
O O6 0.831818 0.000000 0.500000
O O7 0.815564 0.000000 0.793997
O O8 0.909159 0.128931 0.500000
O O9 0.957562 0.097597 0.266934
O O10 0.739801 0.613395 0.500000
O O11 0.789504 0.658969 0.709018
O O12 0.756054 0.557519 0.744766
O O13 0.206579 0.262504 0.500000
O O14 0.250000 0.250000 0.250000
O O15 0.745138 0.500000 0.500000
O O16 0.000000 0.942145 0.500000
O O17 0.000000 0.000000 0.255074
#
# Coordination Sequence:
#
# PCOD8286894 Si02
#       7
#    16   8  16  16  16   8   8
#     4  10  18  28  40  55  72  96 128 160 194 230
#     4  10  18  25  36  56  74  92 124 160 195 229
#     4  10  18  28  42  57  73  96 126 162 199 237
#     4   8  15  24  37  54  72  94 121 149 183 224
#     4   9  16  27  39  55  75  96 123 155 189 225
#     4  10  16  26  39  53  75 102 122 147 189 232
#     4   9  16  28  43  57  75  99 127 158 197 246
#
# _framework density 13.462489
#
# number of rings (size 3 to 8) (size 9 to 14) (size 15 to 20)
#    0.000    2.636    2.727    2.182    0.000    0.000 
#    0.000    1.364    0.000    0.545    0.000    0.000 
#    0.000    0.000    0.000    0.000    0.000    0.909 
#
# Total GULP energy -545098.127829 kJ/mol
# GULP energy per Si atom -12388.593814 kJ/mol
# Density = 1.343185 g / cm^3
# Si number density = 13.462489 Si / 1000 Ang^3
#
#
#
# Elastic Constant Matrix: (Units=GPa)
#
#
# Indices 1 2 3 4 5 6 
#
# 1 62.1507 51.8165 21.2934 0.0000 0.0000 0.0000
# 2 51.8165 108.3995 29.3873 0.0000 0.0000 0.0000
# 3 21.2934 29.3873 41.1399 0.0000 0.0000 0.0000
# 4 0.0000 0.0000 0.0000 14.5298 0.0000 0.0000
# 5 0.0000 0.0000 0.0000 0.0000 14.2617 0.0000
# 6 0.0000 0.0000 0.0000 0.0000 0.0000 37.0983
#
#
#
# Elastic Compliance Matrix: (Units=1/GPa)
#
#
# Indices 1 2 3 4 5 6 
#
# 1 0.027934 -0.011699 -0.006101 0.000000 0.000000 0.000000
# 2 -0.011699 0.016340 -0.005617 0.000000 0.000000 0.000000
# 3 -0.006101 -0.005617 0.031478 0.000000 0.000000 0.000000
# 4 0.000000 0.000000 0.000000 0.068824 0.000000 0.000000
# 5 0.000000 0.000000 0.000000 0.000000 0.070118 0.000000
# 6 0.000000 0.000000 0.000000 0.000000 0.000000 0.026955
#
#
# Mechanical properties :
#
#
# Convention : Reuss Voigt Hill
#
# Bulk Modulus (GPa) = 34.58148 46.29828 40.43988
# Shear Modulus (GPa) = 16.77164 20.45748 18.61456
#
# Velocity S-wave (km/s) = 3.53343 3.90242 3.72250
# Velocity P-wave (km/s) = 6.51075 7.40071 6.96995
#
# Compressibility (1/GPa) = 0.02891721
#
# Stress axis : x y z
#
# Youngs Moduli (GPa) = 35.79903 61.19931 31.76848
#
# Poissons Ratio (x) = 0.71595 0.19383
# Poissons Ratio (y) = 0.41880 0.17845
# Poissons Ratio (z) = 0.21843 0.34376
#
# Static dielectric constant tensor:
#      x y z
#    x 2.530040 0.000000 0.000000 
#    y 0.000000 3.154710 0.000000 
#    z 0.000000 0.000000 2.600950 
# 
# 
# High freq. dielectric constant tensor:
#      x y z
#    x 1.465280 0.000000 0.000000 
#    y 0.000000 1.508880 0.000000 
#    z 0.000000 0.000000 1.502960 
# 
# From -- ./inp_files/17200.got.cif
#   From: 2010.06.25/outbox.cif.g09.slc.cpg/sg71_9_cif.got.tgz:17200.got - 2010.06.28 04:59:45.
