data_PCOD8286135
_publ_section_title
;
Structure prediction by ZEFSAII (Michael W. Deem and Ramdas Pophale) SiO2 
 PCOD8286135
Probable space group: F D D D
;
_chemical_formula_sum "Si O2"
_cell_formula_units_Z 112
_cell_length_a 26.254678
_cell_length_b 25.238479
_cell_length_c 7.031782
_cell_angle_alpha 90.000000
_cell_angle_beta 90.000000
_cell_angle_gamma 90.000000
_cell_volume 4659.456623
_symmetry_space_group_name_H-M "F D D D"
_symmetry_group_IT_number 70
_space_group.IT_coordinate_system_code '2'
_symmetry_cell_setting 'orthorhombic'
loop_
_space_group_symop_operation_xyz
x,y,z
1/4-x,1/4-y,z
x,1/4-y,1/4-z
1/4-x,y,1/4-z
-x,-y,-z
3/4+x,3/4+y,-z
-x,3/4+y,3/4+z
3/4+x,-y,3/4+z
x,1/2+y,1/2+z
1/4-x,3/4-y,1/2+z
x,3/4-y,3/4-z
1/4-x,1/2+y,3/4-z
-x,1/2-y,1/2-z
3/4+x,1/4+y,1/2-z
-x,1/4+y,1/4+z
3/4+x,1/2-y,1/4+z
1/2+x,y,1/2+z
3/4-x,1/4-y,1/2+z
1/2+x,1/4-y,3/4-z
3/4-x,y,3/4-z
1/2-x,-y,1/2-z
1/4+x,3/4+y,1/2-z
1/2-x,3/4+y,1/4+z
1/4+x,-y,1/4+z
1/2+x,1/2+y,z
3/4-x,3/4-y,z
1/2+x,3/4-y,1/4-z
3/4-x,1/2+y,1/4-z
1/2-x,1/2-y,-z
1/4+x,1/4+y,-z
1/2-x,1/4+y,3/4+z
1/4+x,1/2-y,3/4+z
loop_
_atom_site_type_symbol
_atom_site_label
_atom_site_fract_x
_atom_site_fract_y
_atom_site_fract_z
Si Si1 0.071675 0.141992 0.842261
Si Si2 0.125000 0.327134 0.625000
Si Si3 0.531408 0.852637 0.083981
Si Si4 0.663498 0.755698 0.285719
O O1 0.125000 0.125000 0.942776
O O2 0.075755 0.125000 0.625000
O O3 0.062288 0.205053 0.860272
O O4 0.023041 0.112141 0.939919
O O5 0.172587 0.364779 0.681276
O O6 0.134979 0.291786 0.440693
O O7 0.523450 0.875000 0.875000
O O8 0.543013 0.790089 0.070353
O O9 0.625000 0.735611 0.125000
#
# Coordination Sequence:
#
# PCOD8286135 Si02
#       4
#    32  16  32  32
#     4  10  22  41  64  95 135 175 217 269 333 394
#     4  10  20  40  67  96 133 176 222 276 322 378
#     4   9  20  38  67  96 133 172 224 272 319 391
#     4  11  23  41  69  98 132 174 226 268 331 392
#
# _framework density 24.037137999999999
#
# number of rings (size 3 to 8) (size 9 to 14) (size 15 to 20)
#    0.000    2.000    1.429    1.714    0.000   13.143 
#    0.000    8.571    0.000    0.000    0.000    0.000 
#    0.000    0.000    0.000    0.000    0.000    0.000 
#
# Total GULP energy -347035.087788 kJ/mol
# GULP energy per Si atom -12394.110278 kJ/mol
# Density = 2.398243 g / cm^3
# Si number density = 24.037138 Si / 1000 Ang^3
#
#
#
# Elastic Constant Matrix: (Units=GPa)
#
#
# Indices 1 2 3 4 5 6 
#
# 1 227.9281 85.0633 10.3252 0.0054 0.0012 -0.0024
# 2 85.0633 204.9378 36.0332 0.0124 -0.0015 -0.0165
# 3 10.3252 36.0332 68.4118 -0.0300 -0.0063 -0.0263
# 4 0.0054 0.0124 -0.0300 28.6962 -0.0141 -0.0214
# 5 0.0012 -0.0015 -0.0063 -0.0141 -0.4289 0.0064
# 6 -0.0024 -0.0165 -0.0263 -0.0214 0.0064 21.5921
#
#
#
# Elastic Compliance Matrix: (Units=1/GPa)
#
#
# Indices 1 2 3 4 5 6 
#
# 1 0.005201 -0.002227 0.000388 0.000000 0.000016 -0.000001
# 2 -0.002227 0.006331 -0.002999 -0.000005 0.000017 0.000001
# 3 0.000388 -0.002999 0.016138 0.000018 -0.000227 0.000017
# 4 0.000000 -0.000005 0.000018 0.034847 -0.001145 0.000035
# 5 0.000016 0.000017 -0.000227 -0.001145 -2.331531 0.000694
# 6 -0.000001 0.000001 0.000017 0.000035 0.000694 0.046313
#
#
# Mechanical properties :
#
#
# Convention : Reuss Voigt Hill
#
# Bulk Modulus (GPa) = 55.57053 84.90234 70.23644
# Shear Modulus (GPa) = -2.26549 34.62895 16.18173
#
# Velocity S-wave (km/s) = -0.97188 3.79970 2.59742
# Velocity P-wave (km/s) = 4.68075 7.39245 6.18699
#
# Compressibility (1/GPa) = 0.01799515
#
# Stress axis : x y z
#
# Youngs Moduli (GPa) = 192.27543 157.95089 61.96498
#
# Poissons Ratio (x) = 0.35175 -0.02404
# Poissons Ratio (y) = 0.42819 0.18580
# Poissons Ratio (z) = -0.07460 0.47362
#
# Static dielectric constant tensor:
#      x y z
#    x 5.924020 0.000120 0.000260 
#    y 0.000120 4.296660 0.000050 
#    z 0.000260 0.000050 4.128160 
# 
# 
# High freq. dielectric constant tensor:
#      x y z
#    x 1.961880 0.000000 0.000010 
#    y 0.000000 1.950590 -0.000010 
#    z 0.000010 -0.000010 1.943260 
# 
# From -- ./inp_files/9497.got.cif
#   From: 2010.03.12/outbox.cif.g09.slc.cpg/sg70_5_cif.got.tgz:9497.got - 2010.04.16 13:46:32.
