data_PCOD8286186
_publ_section_title
;
Structure prediction by ZEFSAII (Michael W. Deem and Ramdas Pophale) SiO2 
 PCOD8286186
Probable space group: F D D D
;
_chemical_formula_sum "Si O2"
_cell_formula_units_Z 96
_cell_length_a 25.400015
_cell_length_b 14.861470
_cell_length_c 10.238599
_cell_angle_alpha 90.000000
_cell_angle_beta 90.000000
_cell_angle_gamma 90.000000
_cell_volume 3864.882332
_symmetry_space_group_name_H-M "F D D D"
_symmetry_group_IT_number 70
_space_group.IT_coordinate_system_code '2'
_symmetry_cell_setting 'orthorhombic'
loop_
_space_group_symop_operation_xyz
x,y,z
1/4-x,1/4-y,z
x,1/4-y,1/4-z
1/4-x,y,1/4-z
-x,-y,-z
3/4+x,3/4+y,-z
-x,3/4+y,3/4+z
3/4+x,-y,3/4+z
x,1/2+y,1/2+z
1/4-x,3/4-y,1/2+z
x,3/4-y,3/4-z
1/4-x,1/2+y,3/4-z
-x,1/2-y,1/2-z
3/4+x,1/4+y,1/2-z
-x,1/4+y,1/4+z
3/4+x,1/2-y,1/4+z
1/2+x,y,1/2+z
3/4-x,1/4-y,1/2+z
1/2+x,1/4-y,3/4-z
3/4-x,y,3/4-z
1/2-x,-y,1/2-z
1/4+x,3/4+y,1/2-z
1/2-x,3/4+y,1/4+z
1/4+x,-y,1/4+z
1/2+x,1/2+y,z
3/4-x,3/4-y,z
1/2+x,3/4-y,1/4-z
3/4-x,1/2+y,1/4-z
1/2-x,1/2-y,-z
1/4+x,1/4+y,-z
1/2-x,1/4+y,3/4+z
1/4+x,1/2-y,3/4+z
loop_
_atom_site_type_symbol
_atom_site_label
_atom_site_fract_x
_atom_site_fract_y
_atom_site_fract_z
Si Si1 0.819847 0.226620 0.443213
Si Si2 0.496854 0.550872 0.279293
Si Si3 0.819445 0.402628 0.053545
O O1 0.875000 0.204159 0.375000
O O2 0.792285 0.134853 0.487916
O O3 0.780754 0.283778 0.351751
O O4 0.830653 0.286457 0.569382
O O5 0.461858 0.460949 0.305342
O O6 0.535345 0.565773 0.402583
O O7 0.875000 0.375000 0.991847
#
# Coordination Sequence:
#
# PCOD8286186 Si02
#       3
#    32  32  32
#     4  11  19  32  55  82 114 143 185 224 279 321
#     4  10  21  34  52  83 114 147 182 233 268 327
#     4  11  19  32  55  82 114 143 185 224 279 321
#
# _framework density 24.83905
#
# number of rings (size 3 to 8) (size 9 to 14) (size 15 to 20)
#    0.000    1.333    3.333    8.000    0.000    0.000 
#    0.000    0.000    0.000   13.000    0.000    0.000 
#    0.000    0.000    0.000    0.000    0.000    0.000 
#
# Total GULP energy -297595.173928 kJ/mol
# GULP energy per Si atom -12399.798914 kJ/mol
# Density = 2.478252 g / cm^3
# Si number density = 24.839050 Si / 1000 Ang^3
#
#
#
# Elastic Constant Matrix: (Units=GPa)
#
#
# Indices 1 2 3 4 5 6 
#
# 1 211.6409 86.1910 42.2768 0.0000 0.0000 0.0000
# 2 86.1910 138.0154 36.6240 0.0000 0.0000 0.0000
# 3 42.2768 36.6240 69.5775 0.0000 0.0000 0.0000
# 4 0.0000 0.0000 0.0000 29.0833 0.0000 0.0000
# 5 0.0000 0.0000 0.0000 0.0000 -1.7522 0.0000
# 6 0.0000 0.0000 0.0000 0.0000 0.0000 25.3948
#
#
#
# Elastic Compliance Matrix: (Units=1/GPa)
#
#
# Indices 1 2 3 4 5 6 
#
# 1 0.006600 -0.003554 -0.002139 0.000000 0.000000 0.000000
# 2 -0.003554 0.010336 -0.003281 0.000000 0.000000 0.000000
# 3 -0.002139 -0.003281 0.017400 0.000000 0.000000 0.000000
# 4 0.000000 0.000000 0.000000 0.034384 0.000000 0.000000
# 5 0.000000 0.000000 0.000000 0.000000 -0.570713 0.000000
# 6 0.000000 0.000000 0.000000 0.000000 0.000000 0.039378
#
#
# Mechanical properties :
#
#
# Convention : Reuss Voigt Hill
#
# Bulk Modulus (GPa) = 61.02715 83.26861 72.14788
# Shear Modulus (GPa) = -11.38420 27.48798 8.05189
#
# Velocity S-wave (km/s) = -2.14316 3.33023 1.80240
# Velocity P-wave (km/s) = 4.30095 6.95581 5.78280
#
# Compressibility (1/GPa) = 0.01638615
#
# Stress axis : x y z
#
# Youngs Moduli (GPa) = 151.52363 96.75325 57.47285
#
# Poissons Ratio (x) = 0.34384 0.12296
# Poissons Ratio (y) = 0.53848 0.18857
# Poissons Ratio (z) = 0.32418 0.31745
#
# Static dielectric constant tensor:
#      x y z
#    x 5.026910 0.000000 0.000000 
#    y 0.000000 4.755910 0.000000 
#    z 0.000000 0.000000 4.098300 
# 
# 
# High freq. dielectric constant tensor:
#      x y z
#    x 2.007280 0.000000 0.000000 
#    y 0.000000 1.990600 0.000000 
#    z 0.000000 0.000000 1.975460 
# 
# From -- ./inp_files/20119.got.cif
#   From: 2010.03.12/outbox.cif.g09.slc.cpg/sg70_11_cif.got.tgz:20119.got - 2010.04.16 13:46:32.
