data_PCOD8286705
_publ_section_title
;
Structure prediction by ZEFSAII (Michael W. Deem and Ramdas Pophale) SiO2 
 PCOD8286705
Probable space group: F D D D
;
_chemical_formula_sum "Si O2"
_cell_formula_units_Z 144
_cell_length_a 12.637009
_cell_length_b 32.233139
_cell_length_c 16.919528
_cell_angle_alpha 90.000000
_cell_angle_beta 90.000000
_cell_angle_gamma 90.000000
_cell_volume 6891.839253
_symmetry_space_group_name_H-M "F D D D"
_symmetry_group_IT_number 70
_space_group.IT_coordinate_system_code '2'
_symmetry_cell_setting 'orthorhombic'
loop_
_space_group_symop_operation_xyz
x,y,z
1/4-x,1/4-y,z
x,1/4-y,1/4-z
1/4-x,y,1/4-z
-x,-y,-z
3/4+x,3/4+y,-z
-x,3/4+y,3/4+z
3/4+x,-y,3/4+z
x,1/2+y,1/2+z
1/4-x,3/4-y,1/2+z
x,3/4-y,3/4-z
1/4-x,1/2+y,3/4-z
-x,1/2-y,1/2-z
3/4+x,1/4+y,1/2-z
-x,1/4+y,1/4+z
3/4+x,1/2-y,1/4+z
1/2+x,y,1/2+z
3/4-x,1/4-y,1/2+z
1/2+x,1/4-y,3/4-z
3/4-x,y,3/4-z
1/2-x,-y,1/2-z
1/4+x,3/4+y,1/2-z
1/2-x,3/4+y,1/4+z
1/4+x,-y,1/4+z
1/2+x,1/2+y,z
3/4-x,3/4-y,z
1/2+x,3/4-y,1/4-z
3/4-x,1/2+y,1/4-z
1/2-x,1/2-y,-z
1/4+x,1/4+y,-z
1/2-x,1/4+y,3/4+z
1/4+x,1/2-y,3/4+z
loop_
_atom_site_type_symbol
_atom_site_label
_atom_site_fract_x
_atom_site_fract_y
_atom_site_fract_z
Si Si1 0.237036 0.674063 0.797116
Si Si2 0.940894 0.708311 0.607905
Si Si3 0.751937 0.080332 0.763555
Si Si4 0.375000 0.522089 0.875000
Si Si5 0.264742 0.246327 0.406814
O O1 0.317874 0.689251 0.729500
O O2 0.258514 0.625197 0.804584
O O3 0.117621 0.685522 0.772569
O O4 0.260589 0.697903 0.879118
O O5 0.828578 0.727396 0.634017
O O6 0.974090 0.672129 0.669661
O O7 0.025897 0.744795 0.599942
O O8 0.837925 0.050526 0.802650
O O9 0.375000 0.265712 0.375000
O O10 0.250000 0.250000 0.500000
#
# Coordination Sequence:
#
# PCOD8286705 Si02
#       5
#    32  32  32  16  32
#     4  11  23  43  63  98 135 176 220 287 348 410
#     4  12  22  41  68  97 133 170 226 280 345 404
#     4  11  24  38  67  99 135 170 220 289 349 402
#     4  12  22  36  63 100 124 162 216 274 331 402
#     4  12  26  43  69  94 135 187 237 277 340 429
#
# _framework density 20.894276999999999
#
# number of rings (size 3 to 8) (size 9 to 14) (size 15 to 20)
#    0.000    0.444    6.667    2.667    1.556    1.778 
#    0.000    0.000    0.000    2.667    0.000    0.000 
#    0.000    0.000    0.000    0.000    0.000    0.000 
#
# Total GULP energy -446350.452661 kJ/mol
# GULP energy per Si atom -12398.623685 kJ/mol
# Density = 2.084672 g / cm^3
# Si number density = 20.894277 Si / 1000 Ang^3
#
#
#
# Elastic Constant Matrix: (Units=GPa)
#
#
# Indices 1 2 3 4 5 6 
#
# 1 138.4379 40.3266 16.9898 0.0000 0.0000 0.0000
# 2 40.3266 91.3395 48.7398 0.0000 0.0000 0.0000
# 3 16.9898 48.7398 127.9476 0.0000 0.0000 0.0000
# 4 0.0000 0.0000 0.0000 36.7828 0.0000 0.0000
# 5 0.0000 0.0000 0.0000 0.0000 31.7613 0.0000
# 6 0.0000 0.0000 0.0000 0.0000 0.0000 18.8714
#
#
#
# Elastic Compliance Matrix: (Units=1/GPa)
#
#
# Indices 1 2 3 4 5 6 
#
# 1 0.008303 -0.003863 0.000369 0.000000 0.000000 0.000000
# 2 -0.003863 0.015538 -0.005406 0.000000 0.000000 0.000000
# 3 0.000369 -0.005406 0.009826 0.000000 0.000000 0.000000
# 4 0.000000 0.000000 0.000000 0.027187 0.000000 0.000000
# 5 0.000000 0.000000 0.000000 0.000000 0.031485 0.000000
# 6 0.000000 0.000000 0.000000 0.000000 0.000000 0.052990
#
#
# Mechanical properties :
#
#
# Convention : Reuss Voigt Hill
#
# Bulk Modulus (GPa) = 63.02107 63.31526 63.16817
# Shear Modulus (GPa) = 29.68785 34.26103 31.97444
#
# Velocity S-wave (km/s) = 3.77352 4.05375 3.91614
# Velocity P-wave (km/s) = 7.01522 7.23042 7.12363
#
# Compressibility (1/GPa) = 0.01586771
#
# Stress axis : x y z
#
# Youngs Moduli (GPa) = 120.43241 64.35660 101.76953
#
# Poissons Ratio (x) = 0.24860 -0.03754
# Poissons Ratio (y) = 0.46521 0.55019
# Poissons Ratio (z) = -0.04443 0.34792
#
# Static dielectric constant tensor:
#      x y z
#    x 4.131540 0.000000 0.000000 
#    y 0.000000 3.756640 0.000000 
#    z 0.000000 0.000000 3.714810 
# 
# 
# High freq. dielectric constant tensor:
#      x y z
#    x 1.830520 0.000000 0.000000 
#    y 0.000000 1.806950 0.000000 
#    z 0.000000 0.000000 1.818820 
# 
# From -- ./inp_files/33921.got.cif
#   From: 2010.03.12/outbox.cif.g09.slc.cpg/sg70_17_cif.got.tgz:33921.got - 2010.04.16 13:46:32.
