data_PCOD8286429
_publ_section_title
;
Structure prediction by ZEFSAII (Michael W. Deem and Ramdas Pophale) SiO2 
 PCOD8286429
Probable space group: F D D D
;
_chemical_formula_sum "Si O2"
_cell_formula_units_Z 104
_cell_length_a 11.016760
_cell_length_b 15.984842
_cell_length_c 23.131590
_cell_angle_alpha 90.000000
_cell_angle_beta 90.000000
_cell_angle_gamma 90.000000
_cell_volume 4073.500016
_symmetry_space_group_name_H-M "F D D D"
_symmetry_group_IT_number 70
_space_group.IT_coordinate_system_code '2'
_symmetry_cell_setting 'orthorhombic'
loop_
_space_group_symop_operation_xyz
x,y,z
1/4-x,1/4-y,z
x,1/4-y,1/4-z
1/4-x,y,1/4-z
-x,-y,-z
3/4+x,3/4+y,-z
-x,3/4+y,3/4+z
3/4+x,-y,3/4+z
x,1/2+y,1/2+z
1/4-x,3/4-y,1/2+z
x,3/4-y,3/4-z
1/4-x,1/2+y,3/4-z
-x,1/2-y,1/2-z
3/4+x,1/4+y,1/2-z
-x,1/4+y,1/4+z
3/4+x,1/2-y,1/4+z
1/2+x,y,1/2+z
3/4-x,1/4-y,1/2+z
1/2+x,1/4-y,3/4-z
3/4-x,y,3/4-z
1/2-x,-y,1/2-z
1/4+x,3/4+y,1/2-z
1/2-x,3/4+y,1/4+z
1/4+x,-y,1/4+z
1/2+x,1/2+y,z
3/4-x,3/4-y,z
1/2+x,3/4-y,1/4-z
3/4-x,1/2+y,1/4-z
1/2-x,1/2-y,-z
1/4+x,1/4+y,-z
1/2-x,1/4+y,3/4+z
1/4+x,1/2-y,3/4+z
loop_
_atom_site_type_symbol
_atom_site_label
_atom_site_fract_x
_atom_site_fract_y
_atom_site_fract_z
Si Si1 0.401516 0.677924 0.194393
Si Si2 0.375000 0.875000 0.375000
Si Si3 0.074687 0.002132 0.413409
Si Si4 0.683318 0.906963 0.565497
O O1 0.537666 0.676225 0.168225
O O2 0.332851 0.750756 0.157569
O O3 0.322785 0.592846 0.185311
O O4 0.404197 0.689301 0.263530
O O5 0.191054 0.045291 0.442014
O O6 0.957180 0.056008 0.432888
O O7 0.625000 0.937225 0.625000
#
# Coordination Sequence:
#
# PCOD8286429 Si02
#       4
#    32   8  32  32
#     4  10  22  44  69  91 140 176 224 286 327 409
#     4   8  20  40  68 102 120 180 224 260 352 374
#     4   9  23  44  61 100 130 181 223 273 348 387
#     4  11  24  39  67 101 134 175 230 277 337 404
#
# _framework density 25.530871000000001
#
# number of rings (size 3 to 8) (size 9 to 14) (size 15 to 20)
#    0.000    2.462    0.000    0.923   12.923    3.692 
#    0.000    1.538    0.000    0.000    0.000    0.000 
#    0.000    0.000    0.000    0.000    0.000    0.000 
#
# Total GULP energy -322096.520955 kJ/mol
# GULP energy per Si atom -12388.327729 kJ/mol
# Density = 2.547276 g / cm^3
# Si number density = 25.530871 Si / 1000 Ang^3
#
#
#
# Elastic Constant Matrix: (Units=GPa)
#
#
# Indices 1 2 3 4 5 6 
#
# 1 84.9885 6.9103 59.2673 0.0000 0.0000 0.0000
# 2 6.9103 70.9069 13.8746 0.0000 0.0000 0.0000
# 3 59.2673 13.8746 224.4302 0.0000 0.0000 0.0000
# 4 0.0000 0.0000 0.0000 36.5252 0.0000 0.0000
# 5 0.0000 0.0000 0.0000 0.0000 37.1107 0.0000
# 6 0.0000 0.0000 0.0000 0.0000 0.0000 6.0200
#
#
#
# Elastic Compliance Matrix: (Units=1/GPa)
#
#
# Indices 1 2 3 4 5 6 
#
# 1 0.014454 -0.000670 -0.003775 0.000000 0.000000 0.000000
# 2 -0.000670 0.014307 -0.000708 0.000000 0.000000 0.000000
# 3 -0.003775 -0.000708 0.005497 0.000000 0.000000 0.000000
# 4 0.000000 0.000000 0.000000 0.027378 0.000000 0.000000
# 5 0.000000 0.000000 0.000000 0.000000 0.026946 0.000000
# 6 0.000000 0.000000 0.000000 0.000000 0.000000 0.166114
#
#
# Mechanical properties :
#
#
# Convention : Reuss Voigt Hill
#
# Bulk Modulus (GPa) = 41.75178 60.04779 50.89979
# Shear Modulus (GPa) = 18.31604 35.94940 27.13272
#
# Velocity S-wave (km/s) = 2.68135 3.75650 3.26351
# Velocity P-wave (km/s) = 5.09658 6.51044 5.84641
#
# Compressibility (1/GPa) = 0.02395107
#
# Stress axis : x y z
#
# Youngs Moduli (GPa) = 69.18684 69.89717 181.93393
#
# Poissons Ratio (x) = 0.04682 0.68689
# Poissons Ratio (y) = 0.04634 0.12873
# Poissons Ratio (z) = 0.26121 0.04946
#
# Static dielectric constant tensor:
#      x y z
#    x 4.303490 0.000000 0.000000 
#    y 0.000000 4.876000 0.000000 
#    z 0.000000 0.000000 4.846060 
# 
# 
# High freq. dielectric constant tensor:
#      x y z
#    x 1.990300 0.000000 0.000000 
#    y 0.000000 2.026380 0.000000 
#    z 0.000000 0.000000 2.023890 
# 
# From -- ./inp_files/26201.got.cif
#   From: 2010.03.12/outbox.cif.g09.slc.cpg/sg70_14_cif.got.tgz:26201.got - 2010.04.16 13:46:32.
