data_PCOD8286484
_publ_section_title
;
Structure prediction by ZEFSAII (Michael W. Deem and Ramdas Pophale) SiO2 
 PCOD8286484
Probable space group: F D D D
;
_chemical_formula_sum "Si O2"
_cell_formula_units_Z 144
_cell_length_a 21.123213
_cell_length_b 16.843004
_cell_length_c 18.925789
_cell_angle_alpha 90.000000
_cell_angle_beta 90.000000
_cell_angle_gamma 90.000000
_cell_volume 6733.386192
_symmetry_space_group_name_H-M "F D D D"
_symmetry_group_IT_number 70
_space_group.IT_coordinate_system_code '2'
_symmetry_cell_setting 'orthorhombic'
loop_
_space_group_symop_operation_xyz
x,y,z
1/4-x,1/4-y,z
x,1/4-y,1/4-z
1/4-x,y,1/4-z
-x,-y,-z
3/4+x,3/4+y,-z
-x,3/4+y,3/4+z
3/4+x,-y,3/4+z
x,1/2+y,1/2+z
1/4-x,3/4-y,1/2+z
x,3/4-y,3/4-z
1/4-x,1/2+y,3/4-z
-x,1/2-y,1/2-z
3/4+x,1/4+y,1/2-z
-x,1/4+y,1/4+z
3/4+x,1/2-y,1/4+z
1/2+x,y,1/2+z
3/4-x,1/4-y,1/2+z
1/2+x,1/4-y,3/4-z
3/4-x,y,3/4-z
1/2-x,-y,1/2-z
1/4+x,3/4+y,1/2-z
1/2-x,3/4+y,1/4+z
1/4+x,-y,1/4+z
1/2+x,1/2+y,z
3/4-x,3/4-y,z
1/2+x,3/4-y,1/4-z
3/4-x,1/2+y,1/4-z
1/2-x,1/2-y,-z
1/4+x,1/4+y,-z
1/2-x,1/4+y,3/4+z
1/4+x,1/2-y,3/4+z
loop_
_atom_site_type_symbol
_atom_site_label
_atom_site_fract_x
_atom_site_fract_y
_atom_site_fract_z
Si Si1 0.556152 0.299519 0.284414
Si Si2 0.762338 0.875000 0.875000
Si Si3 0.300218 0.729840 0.192025
Si Si4 0.655453 0.256066 0.553234
Si Si5 0.192450 0.329203 0.745920
O O1 0.500000 0.250000 0.250000
O O2 0.533350 0.390221 0.286375
O O3 0.574272 0.266552 0.361743
O O4 0.621033 0.295888 0.239345
O O5 0.694980 0.072284 0.677556
O O6 0.717943 0.819579 0.826332
O O7 0.352153 0.767243 0.245171
O O8 0.235531 0.779360 0.193200
O O9 0.625000 0.289604 0.625000
O O10 0.697915 0.327238 0.522605
#
# Coordination Sequence:
#
# PCOD8286484 Si02
#       5
#    32  16  32  32  32
#     4  10  24  45  64  89 132 168 223 283 323 388
#     4  12  23  44  64 100 136 173 210 268 338 415
#     4  10  23  42  64  96 126 171 221 269 333 396
#     4  11  23  41  64  97 138 168 214 274 333 401
#     4  11  24  39  67  92 127 176 215 264 335 397
#
# _framework density 21.385971000000001
#
# number of rings (size 3 to 8) (size 9 to 14) (size 15 to 20)
#    0.000    1.333    2.222    3.667    6.222    0.889 
#    0.000    4.444    0.000    0.000    0.000    0.000 
#    0.000    0.000    0.000    0.000    0.000    0.000 
#
# Total GULP energy -446420.113125 kJ/mol
# GULP energy per Si atom -12400.558698 kJ/mol
# Density = 2.133730 g / cm^3
# Si number density = 21.385971 Si / 1000 Ang^3
#
#
#
# Elastic Constant Matrix: (Units=GPa)
#
#
# Indices 1 2 3 4 5 6 
#
# 1 133.5106 72.3741 35.9354 0.0000 0.0000 0.0000
# 2 72.3741 82.9164 27.3136 0.0000 0.0000 0.0000
# 3 35.9354 27.3136 84.4143 0.0000 0.0000 0.0000
# 4 0.0000 0.0000 0.0000 34.5787 0.0000 0.0000
# 5 0.0000 0.0000 0.0000 0.0000 32.1760 0.0000
# 6 0.0000 0.0000 0.0000 0.0000 0.0000 45.5818
#
#
#
# Elastic Compliance Matrix: (Units=1/GPa)
#
#
# Indices 1 2 3 4 5 6 
#
# 1 0.014620 -0.011989 -0.002345 0.000000 0.000000 0.000000
# 2 -0.011989 0.023330 -0.002445 0.000000 0.000000 0.000000
# 3 -0.002345 -0.002445 0.013636 0.000000 0.000000 0.000000
# 4 0.000000 0.000000 0.000000 0.028920 0.000000 0.000000
# 5 0.000000 0.000000 0.000000 0.000000 0.031079 0.000000
# 6 0.000000 0.000000 0.000000 0.000000 0.000000 0.021939
#
#
# Mechanical properties :
#
#
# Convention : Reuss Voigt Hill
#
# Bulk Modulus (GPa) = 55.46719 63.56526 59.51623
# Shear Modulus (GPa) = 28.88661 33.48182 31.18422
#
# Velocity S-wave (km/s) = 3.67921 3.96106 3.82273
# Velocity P-wave (km/s) = 6.63637 7.12091 6.88290
#
# Compressibility (1/GPa) = 0.01802868
#
# Stress axis : x y z
#
# Youngs Moduli (GPa) = 68.39879 42.86246 73.33728
#
# Poissons Ratio (x) = 0.51388 0.17195
# Poissons Ratio (y) = 0.82003 0.17932
# Poissons Ratio (z) = 0.16037 0.10481
#
# Static dielectric constant tensor:
#      x y z
#    x 3.969400 0.000000 0.000000 
#    y 0.000000 3.696430 0.000000 
#    z 0.000000 0.000000 3.989360 
# 
# 
# High freq. dielectric constant tensor:
#      x y z
#    x 1.844650 0.000000 0.000000 
#    y 0.000000 1.826770 0.000000 
#    z 0.000000 0.000000 1.845830 
# 
# From -- ./inp_files/36226.got.cif
#   From: 2010.03.12/outbox.cif.g09.slc.cpg/sg70_19_cif.got.tgz:36226.got - 2010.04.16 13:46:32.
