data_PCOD8286565
_publ_section_title
;
Structure prediction by ZEFSAII (Michael W. Deem and Ramdas Pophale) SiO2 
 PCOD8286565
Probable space group: F D D D
;
_chemical_formula_sum "Si O2"
_cell_formula_units_Z 192
_cell_length_a 21.428403
_cell_length_b 17.171533
_cell_length_c 23.685685
_cell_angle_alpha 90.000000
_cell_angle_beta 90.000000
_cell_angle_gamma 90.000000
_cell_volume 8715.349817
_symmetry_space_group_name_H-M "F D D D"
_symmetry_group_IT_number 70
_space_group.IT_coordinate_system_code '2'
_symmetry_cell_setting 'orthorhombic'
loop_
_space_group_symop_operation_xyz
x,y,z
1/4-x,1/4-y,z
x,1/4-y,1/4-z
1/4-x,y,1/4-z
-x,-y,-z
3/4+x,3/4+y,-z
-x,3/4+y,3/4+z
3/4+x,-y,3/4+z
x,1/2+y,1/2+z
1/4-x,3/4-y,1/2+z
x,3/4-y,3/4-z
1/4-x,1/2+y,3/4-z
-x,1/2-y,1/2-z
3/4+x,1/4+y,1/2-z
-x,1/4+y,1/4+z
3/4+x,1/2-y,1/4+z
1/2+x,y,1/2+z
3/4-x,1/4-y,1/2+z
1/2+x,1/4-y,3/4-z
3/4-x,y,3/4-z
1/2-x,-y,1/2-z
1/4+x,3/4+y,1/2-z
1/2-x,3/4+y,1/4+z
1/4+x,-y,1/4+z
1/2+x,1/2+y,z
3/4-x,3/4-y,z
1/2+x,3/4-y,1/4-z
3/4-x,1/2+y,1/4-z
1/2-x,1/2-y,-z
1/4+x,1/4+y,-z
1/2-x,1/4+y,3/4+z
1/4+x,1/2-y,3/4+z
loop_
_atom_site_type_symbol
_atom_site_label
_atom_site_fract_x
_atom_site_fract_y
_atom_site_fract_z
Si Si1 0.375000 0.875000 0.875000
Si Si2 0.586018 0.277224 0.291639
Si Si3 0.875000 0.875000 0.875000
Si Si4 0.933907 0.251782 0.956192
Si Si5 0.487039 0.364276 0.231953
Si Si6 0.264125 0.282855 0.936743
Si Si7 0.087311 0.875000 0.875000
Si Si8 0.947779 0.615528 0.379021
O O1 0.333886 0.928849 0.914516
O O2 0.628257 0.293895 0.236859
O O3 0.519779 0.321964 0.285614
O O4 0.574044 0.183563 0.289566
O O5 0.619585 0.306931 0.348534
O O6 0.919806 0.923923 0.919328
O O7 0.968766 0.185482 0.920815
O O8 0.974727 0.294877 0.004198
O O9 0.536756 0.359489 0.183199
O O10 0.205950 0.339066 0.923915
O O11 0.261601 0.208467 0.896378
O O12 0.250000 0.250000 0.000000
O O13 0.875000 0.597503 0.375000
#
# Coordination Sequence:
#
# PCOD8286565 Si02
#       8
#     8  32   8  32  32  32  16  32
#     4  12  20  36  64  96 128 180 216 272 336 414
#     4  11  23  44  61 102 135 176 231 283 348 415
#     4  10  24  50  80 100 148 186 246 312 354 448
#     4  12  23  42  67  96 139 177 229 281 341 420
#     4  11  25  40  68  97 138 186 221 285 354 410
#     4  11  25  48  73 104 135 190 240 293 369 418
#     4  11  26  44  74  98 143 181 233 306 346 418
#     4  12  24  44  69 101 139 178 237 289 346 428
#
# _framework density 22.030097000000001
#
# number of rings (size 3 to 8) (size 9 to 14) (size 15 to 20)
#    0.000    0.667    5.000    2.000    4.667    1.333 
#    3.000    0.000    0.000    0.000    0.000    0.000 
#    0.000    0.000    0.000    0.000    0.000    0.000 
#
# Total GULP energy -594640.623462 kJ/mol
# GULP energy per Si atom -12388.346322 kJ/mol
# Density = 2.197996 g / cm^3
# Si number density = 22.030097 Si / 1000 Ang^3
#
#
#
# Elastic Constant Matrix: (Units=GPa)
#
#
# Indices 1 2 3 4 5 6 
#
# 1 86.3122 35.1695 42.6426 0.0000 0.0000 0.0000
# 2 35.1695 107.3831 24.3369 0.0000 0.0000 0.0000
# 3 42.6426 24.3369 98.8438 0.0000 0.0000 0.0000
# 4 0.0000 0.0000 0.0000 57.2767 0.0000 0.0000
# 5 0.0000 0.0000 0.0000 0.0000 43.1625 0.0000
# 6 0.0000 0.0000 0.0000 0.0000 0.0000 36.1733
#
#
#
# Elastic Compliance Matrix: (Units=1/GPa)
#
#
# Indices 1 2 3 4 5 6 
#
# 1 0.016152 -0.003930 -0.006000 0.000000 0.000000 0.000000
# 2 -0.003930 0.010819 -0.000968 0.000000 0.000000 0.000000
# 3 -0.006000 -0.000968 0.012944 0.000000 0.000000 0.000000
# 4 0.000000 0.000000 0.000000 0.017459 0.000000 0.000000
# 5 0.000000 0.000000 0.000000 0.000000 0.023168 0.000000
# 6 0.000000 0.000000 0.000000 0.000000 0.000000 0.027645
#
#
# Mechanical properties :
#
#
# Convention : Reuss Voigt Hill
#
# Bulk Modulus (GPa) = 55.19612 55.20413 55.20012
# Shear Modulus (GPa) = 36.75833 40.01518 38.38676
#
# Velocity S-wave (km/s) = 4.08922 4.26653 4.17882
# Velocity P-wave (km/s) = 6.88512 7.02737 6.95661
#
# Compressibility (1/GPa) = 0.01811722
#
# Stress axis : x y z
#
# Youngs Moduli (GPa) = 61.91294 92.42959 77.25546
#
# Poissons Ratio (x) = 0.36325 0.46357
# Poissons Ratio (y) = 0.24332 0.07481
# Poissons Ratio (z) = 0.37151 0.08951
#
# Static dielectric constant tensor:
#      x y z
#    x 3.798680 0.000000 0.000000 
#    y 0.000000 3.990190 0.000000 
#    z 0.000000 0.000000 6.099640 
# 
# 
# High freq. dielectric constant tensor:
#      x y z
#    x 1.856670 0.000000 0.000000 
#    y 0.000000 1.877870 0.000000 
#    z 0.000000 0.000000 1.866800 
# 
# From -- ./inp_files/61205.got.cif
#   From: 2010.03.12/outbox.cif.g09.slc.cpg/sg70_31_cif.got.tgz:61205.got - 2010.04.16 13:46:32.
