data_PCOD8286793
_publ_section_title
;
Structure prediction by ZEFSAII (Michael W. Deem and Ramdas Pophale) SiO2 
 PCOD8286793
Probable space group: F D D D
;
_chemical_formula_sum "Si O2"
_cell_formula_units_Z 192
_cell_length_a 26.414301
_cell_length_b 18.180876
_cell_length_c 16.915832
_cell_angle_alpha 90.000000
_cell_angle_beta 90.000000
_cell_angle_gamma 90.000000
_cell_volume 8123.576798
_symmetry_space_group_name_H-M "F D D D"
_symmetry_group_IT_number 70
_space_group.IT_coordinate_system_code '2'
_symmetry_cell_setting 'orthorhombic'
loop_
_space_group_symop_operation_xyz
x,y,z
1/4-x,1/4-y,z
x,1/4-y,1/4-z
1/4-x,y,1/4-z
-x,-y,-z
3/4+x,3/4+y,-z
-x,3/4+y,3/4+z
3/4+x,-y,3/4+z
x,1/2+y,1/2+z
1/4-x,3/4-y,1/2+z
x,3/4-y,3/4-z
1/4-x,1/2+y,3/4-z
-x,1/2-y,1/2-z
3/4+x,1/4+y,1/2-z
-x,1/4+y,1/4+z
3/4+x,1/2-y,1/4+z
1/2+x,y,1/2+z
3/4-x,1/4-y,1/2+z
1/2+x,1/4-y,3/4-z
3/4-x,y,3/4-z
1/2-x,-y,1/2-z
1/4+x,3/4+y,1/2-z
1/2-x,3/4+y,1/4+z
1/4+x,-y,1/4+z
1/2+x,1/2+y,z
3/4-x,3/4-y,z
1/2+x,3/4-y,1/4-z
3/4-x,1/2+y,1/4-z
1/2-x,1/2-y,-z
1/4+x,1/4+y,-z
1/2-x,1/4+y,3/4+z
1/4+x,1/2-y,3/4+z
loop_
_atom_site_type_symbol
_atom_site_label
_atom_site_fract_x
_atom_site_fract_y
_atom_site_fract_z
Si Si1 0.925416 0.293905 0.238323
Si Si2 0.011512 0.130586 0.456254
Si Si3 0.218759 0.875000 0.875000
Si Si4 0.660860 0.234096 0.885068
Si Si5 0.283038 0.602406 0.805252
Si Si6 0.331142 0.756067 0.759942
Si Si7 0.125000 0.125000 0.625000
Si Si8 0.625000 0.125000 0.625000
O O1 0.878486 0.301432 0.177223
O O2 0.938279 0.208188 0.253250
O O3 0.910489 0.323674 0.323201
O O4 0.972837 0.343394 0.210880
O O5 0.045186 0.070142 0.411739
O O6 0.041040 0.207751 0.451018
O O7 0.000062 0.103886 0.545825
O O8 0.962078 0.148355 0.401553
O O9 0.185740 0.805875 0.846561
O O10 0.633036 0.260178 0.965036
O O11 0.306223 0.681290 0.787026
O O12 0.339228 0.819775 0.825776
#
# Coordination Sequence:
#
# PCOD8286793 Si02
#       8
#    32  32  16  32  32  32   8   8
#     4  11  27  49  75 113 143 197 251 310 384 465
#     4  12  25  47  70 109 150 200 250 320 377 459
#     4  12  29  42  76 112 150 198 260 314 386 463
#     4  12  25  50  73 106 156 200 253 315 390 451
#     4  11  27  47  76 109 150 191 254 313 381 447
#     4  12  26  46  77 102 154 197 253 314 383 459
#     4  12  26  44  72 116 140 210 260 304 384 474
#     4  12  28  40  78 100 140 186 236 302 364 452
#
# _framework density 23.634909
#
# number of rings (size 3 to 8) (size 9 to 14) (size 15 to 20)
#    0.000    0.333    3.333    4.000    7.000    0.667 
#    0.000    0.000    0.000    0.000    0.000    0.000 
#    0.000    0.000    0.000    0.000    0.000    0.000 
#
# Total GULP energy -594856.556154 kJ/mol
# GULP energy per Si atom -12392.844920 kJ/mol
# Density = 2.358112 g / cm^3
# Si number density = 23.634909 Si / 1000 Ang^3
#
#
#
# Elastic Constant Matrix: (Units=GPa)
#
#
# Indices 1 2 3 4 5 6 
#
# 1 70.8895 47.3923 38.8522 0.0000 0.0000 0.0000
# 2 47.3923 161.5360 47.3247 0.0000 0.0000 0.0000
# 3 38.8522 47.3247 133.8969 0.0000 0.0000 0.0000
# 4 0.0000 0.0000 0.0000 35.9625 0.0000 0.0000
# 5 0.0000 0.0000 0.0000 0.0000 6.2147 0.0000
# 6 0.0000 0.0000 0.0000 0.0000 0.0000 54.0560
#
#
#
# Elastic Compliance Matrix: (Units=1/GPa)
#
#
# Indices 1 2 3 4 5 6 
#
# 1 0.019308 -0.004488 -0.004016 0.000000 0.000000 0.000000
# 2 -0.004488 0.007949 -0.001507 0.000000 0.000000 0.000000
# 3 -0.004016 -0.001507 0.009167 0.000000 0.000000 0.000000
# 4 0.000000 0.000000 0.000000 0.027807 0.000000 0.000000
# 5 0.000000 0.000000 0.000000 0.000000 0.160909 0.000000
# 6 0.000000 0.000000 0.000000 0.000000 0.000000 0.018499
#
#
# Mechanical properties :
#
#
# Convention : Reuss Voigt Hill
#
# Bulk Modulus (GPa) = 60.97400 70.38455 65.67927
# Shear Modulus (GPa) = 18.57852 34.76352 26.67102
#
# Velocity S-wave (km/s) = 2.80672 3.83933 3.36290
# Velocity P-wave (km/s) = 6.02975 7.03552 6.55196
#
# Compressibility (1/GPa) = 0.01640043
#
# Stress axis : x y z
#
# Youngs Moduli (GPa) = 51.79177 125.80423 109.09284
#
# Poissons Ratio (x) = 0.56462 0.43814
# Poissons Ratio (y) = 0.23245 0.16442
# Poissons Ratio (z) = 0.20801 0.18961
#
# Static dielectric constant tensor:
#      x y z
#    x 4.408300 0.000000 0.000000 
#    y 0.000000 4.210360 0.000000 
#    z 0.000000 0.000000 4.550880 
# 
# 
# High freq. dielectric constant tensor:
#      x y z
#    x 1.937080 0.000000 0.000000 
#    y 0.000000 1.946480 0.000000 
#    z 0.000000 0.000000 1.951600 
# 
# From -- ./inp_files/39782.got.cif
#   From: 2010.03.12/outbox.cif.g09.slc.cpg/sg70_20_cif.got.tgz:39782.got - 2010.04.16 13:46:32.
