data_PCOD8286832
_publ_section_title
;
Structure prediction by ZEFSAII (Michael W. Deem and Ramdas Pophale) SiO2 
 PCOD8286832
Probable space group: F D D D
;
_chemical_formula_sum "Si O2"
_cell_formula_units_Z 208
_cell_length_a 20.175164
_cell_length_b 23.029534
_cell_length_c 19.867060
_cell_angle_alpha 90.000000
_cell_angle_beta 90.000000
_cell_angle_gamma 90.000000
_cell_volume 9230.725308
_symmetry_space_group_name_H-M "F D D D"
_symmetry_group_IT_number 70
_space_group.IT_coordinate_system_code '2'
_symmetry_cell_setting 'orthorhombic'
loop_
_space_group_symop_operation_xyz
x,y,z
1/4-x,1/4-y,z
x,1/4-y,1/4-z
1/4-x,y,1/4-z
-x,-y,-z
3/4+x,3/4+y,-z
-x,3/4+y,3/4+z
3/4+x,-y,3/4+z
x,1/2+y,1/2+z
1/4-x,3/4-y,1/2+z
x,3/4-y,3/4-z
1/4-x,1/2+y,3/4-z
-x,1/2-y,1/2-z
3/4+x,1/4+y,1/2-z
-x,1/4+y,1/4+z
3/4+x,1/2-y,1/4+z
1/2+x,y,1/2+z
3/4-x,1/4-y,1/2+z
1/2+x,1/4-y,3/4-z
3/4-x,y,3/4-z
1/2-x,-y,1/2-z
1/4+x,3/4+y,1/2-z
1/2-x,3/4+y,1/4+z
1/4+x,-y,1/4+z
1/2+x,1/2+y,z
3/4-x,3/4-y,z
1/2+x,3/4-y,1/4-z
3/4-x,1/2+y,1/4-z
1/2-x,1/2-y,-z
1/4+x,1/4+y,-z
1/2-x,1/4+y,3/4+z
1/4+x,1/2-y,3/4+z
loop_
_atom_site_type_symbol
_atom_site_label
_atom_site_fract_x
_atom_site_fract_y
_atom_site_fract_z
Si Si1 0.787737 0.776723 0.133705
Si Si2 0.625000 0.511014 0.625000
Si Si3 0.382052 0.528672 0.707185
Si Si4 0.516848 0.787190 0.525009
Si Si5 0.282444 0.311241 0.477904
Si Si6 0.425915 0.099943 0.426842
Si Si7 0.943592 0.125000 0.625000
Si Si8 0.875000 0.375000 0.675807
O O1 0.809367 0.741864 0.067018
O O2 0.788959 0.739560 0.203263
O O3 0.717694 0.806022 0.119497
O O4 0.847398 0.822556 0.132924
O O5 0.686762 0.479235 0.588786
O O6 0.653668 0.550860 0.682940
O O7 0.440282 0.479972 0.713147
O O8 0.372167 0.561631 0.776783
O O9 0.400798 0.570963 0.646756
O O10 0.528026 0.857236 0.527598
O O11 0.250000 0.250000 0.500000
O O12 0.233452 0.354232 0.440015
O O13 0.309392 0.350446 0.537816
O O14 0.375000 0.133132 0.375000
#
# Coordination Sequence:
#
# PCOD8286832 Si02
#       8
#    32  16  32  32  32  32  16  16
#     4  12  26  48  70 104 145 192 244 301 362 434
#     4  12  24  41  62 100 148 178 212 281 342 424
#     4  12  26  48  70 104 145 192 244 301 362 434
#     4  12  25  44  72 109 145 189 241 299 360 437
#     4  12  26  40  65 101 142 184 227 286 349 433
#     4  12  27  46  77 103 144 189 247 305 368 420
#     4  12  24  41  68 102 143 186 234 288 366 440
#     4  12  24  41  68 102 143 186 234 288 366 440
#
# _framework density 22.533441
#
# number of rings (size 3 to 8) (size 9 to 14) (size 15 to 20)
#    0.000    0.000    5.385    5.077    4.308    0.000 
#    0.000    0.000    0.000    0.000    0.000    0.000 
#    0.000    0.000    0.000    0.000    0.000    0.000 
#
# Total GULP energy -644306.697501 kJ/mol
# GULP energy per Si atom -12390.513413 kJ/mol
# Density = 2.248215 g / cm^3
# Si number density = 22.533441 Si / 1000 Ang^3
#
#
#
# Elastic Constant Matrix: (Units=GPa)
#
#
# Indices 1 2 3 4 5 6 
#
# 1 100.3367 35.8472 31.5333 0.0000 0.0000 0.0000
# 2 35.8472 83.8778 13.0295 0.0000 0.0000 0.0000
# 3 31.5333 13.0295 56.4547 0.0000 0.0000 0.0000
# 4 0.0000 0.0000 0.0000 22.0410 0.0000 0.0000
# 5 0.0000 0.0000 0.0000 0.0000 27.4182 0.0000
# 6 0.0000 0.0000 0.0000 0.0000 0.0000 42.7128
#
#
#
# Elastic Compliance Matrix: (Units=1/GPa)
#
#
# Indices 1 2 3 4 5 6 
#
# 1 0.013768 -0.004864 -0.006568 0.000000 0.000000 0.000000
# 2 -0.004864 0.014084 -0.000534 0.000000 0.000000 0.000000
# 3 -0.006568 -0.000534 0.021505 0.000000 0.000000 0.000000
# 4 0.000000 0.000000 0.000000 0.045370 0.000000 0.000000
# 5 0.000000 0.000000 0.000000 0.000000 0.036472 0.000000
# 6 0.000000 0.000000 0.000000 0.000000 0.000000 0.023412
#
#
# Mechanical properties :
#
#
# Convention : Reuss Voigt Hill
#
# Bulk Modulus (GPa) = 39.32959 44.60991 41.96975
# Shear Modulus (GPa) = 26.73545 29.11834 27.92689
#
# Velocity S-wave (km/s) = 3.44827 3.59866 3.52426
# Velocity P-wave (km/s) = 5.77458 6.09158 5.93520
#
# Compressibility (1/GPa) = 0.02542615
#
# Stress axis : x y z
#
# Youngs Moduli (GPa) = 72.63056 71.00388 46.50075
#
# Poissons Ratio (x) = 0.34536 0.30541
# Poissons Ratio (y) = 0.35327 0.02481
# Poissons Ratio (z) = 0.47703 0.03789
#
# Static dielectric constant tensor:
#      x y z
#    x 4.138840 0.000000 0.000000 
#    y 0.000000 4.195770 0.000000 
#    z 0.000000 0.000000 4.180660 
# 
# 
# High freq. dielectric constant tensor:
#      x y z
#    x 1.895740 0.000000 0.000000 
#    y 0.000000 1.888990 0.000000 
#    z 0.000000 0.000000 1.892660 
# 
# From -- ./inp_files/43968.got.cif
#   From: 2010.03.12/outbox.cif.g09.slc.cpg/sg70_22_cif.got.tgz:43968.got - 2010.04.16 13:46:32.
