data_PCOD8286737
_publ_section_title
;
Structure prediction by ZEFSAII (Michael W. Deem and Ramdas Pophale) SiO2 
 PCOD8286737
Probable space group: F D D D
;
_chemical_formula_sum "Si O2"
_cell_formula_units_Z 160
_cell_length_a 28.037313
_cell_length_b 15.371871
_cell_length_c 16.511010
_cell_angle_alpha 90.000000
_cell_angle_beta 90.000000
_cell_angle_gamma 90.000000
_cell_volume 7116.013473
_symmetry_space_group_name_H-M "F D D D"
_symmetry_group_IT_number 70
_space_group.IT_coordinate_system_code '2'
_symmetry_cell_setting 'orthorhombic'
loop_
_space_group_symop_operation_xyz
x,y,z
1/4-x,1/4-y,z
x,1/4-y,1/4-z
1/4-x,y,1/4-z
-x,-y,-z
3/4+x,3/4+y,-z
-x,3/4+y,3/4+z
3/4+x,-y,3/4+z
x,1/2+y,1/2+z
1/4-x,3/4-y,1/2+z
x,3/4-y,3/4-z
1/4-x,1/2+y,3/4-z
-x,1/2-y,1/2-z
3/4+x,1/4+y,1/2-z
-x,1/4+y,1/4+z
3/4+x,1/2-y,1/4+z
1/2+x,y,1/2+z
3/4-x,1/4-y,1/2+z
1/2+x,1/4-y,3/4-z
3/4-x,y,3/4-z
1/2-x,-y,1/2-z
1/4+x,3/4+y,1/2-z
1/2-x,3/4+y,1/4+z
1/4+x,-y,1/4+z
1/2+x,1/2+y,z
3/4-x,3/4-y,z
1/2+x,3/4-y,1/4-z
3/4-x,1/2+y,1/4-z
1/2-x,1/2-y,-z
1/4+x,1/4+y,-z
1/2-x,1/4+y,3/4+z
1/4+x,1/2-y,3/4+z
loop_
_atom_site_type_symbol
_atom_site_label
_atom_site_fract_x
_atom_site_fract_y
_atom_site_fract_z
Si Si1 0.375000 0.875000 0.168937
Si Si2 0.145872 0.875000 0.375000
Si Si3 0.559729 0.068282 0.548639
Si Si4 0.713245 0.368205 0.525641
Si Si5 0.460703 0.277159 0.357122
Si Si6 0.181903 0.744188 0.929857
O O1 0.398259 0.805626 0.231950
O O2 0.330207 0.848687 0.110588
O O3 0.178643 0.891943 0.299113
O O4 0.112203 0.794636 0.357320
O O5 0.577344 0.125000 0.625000
O O6 0.517024 0.123322 0.506870
O O7 0.543169 0.971460 0.577567
O O8 0.698452 0.454518 0.575841
O O9 0.443231 0.375000 0.375000
O O10 0.431814 0.252369 0.276650
O O11 0.517455 0.280000 0.348219
#
# Coordination Sequence:
#
# PCOD8286737 Si02
#       6
#    16  16  32  32  32  32
#     4  12  23  46  69 106 144 182 250 304 363 441
#     4  12  24  48  70 101 144 189 242 304 364 438
#     4  11  24  43  73 108 143 190 237 303 371 436
#     4  11  25  44  71 105 147 189 241 303 367 436
#     4  11  26  48  72 102 146 197 247 305 366 438
#     4  11  26  45  73 102 141 193 244 300 371 431
#
# _framework density 22.484499
#
# number of rings (size 3 to 8) (size 9 to 14) (size 15 to 20)
#    0.000    0.800    6.000    0.300    2.800    5.600 
#    3.600    0.000    0.000    0.000    0.000    0.000 
#    0.000    0.000    0.000    0.000    0.000    0.000 
#
# Total GULP energy -495619.311368 kJ/mol
# GULP energy per Si atom -12390.482784 kJ/mol
# Density = 2.243332 g / cm^3
# Si number density = 22.484499 Si / 1000 Ang^3
#
#
#
# Elastic Constant Matrix: (Units=GPa)
#
#
# Indices 1 2 3 4 5 6 
#
# 1 89.9657 14.4552 56.4144 0.0000 0.0000 0.0000
# 2 14.4552 130.1250 64.2363 0.0000 0.0000 0.0000
# 3 56.4144 64.2363 140.7336 0.0000 0.0000 0.0000
# 4 0.0000 0.0000 0.0000 28.5744 0.0000 0.0000
# 5 0.0000 0.0000 0.0000 0.0000 44.8834 0.0000
# 6 0.0000 0.0000 0.0000 0.0000 0.0000 29.7874
#
#
#
# Elastic Compliance Matrix: (Units=1/GPa)
#
#
# Indices 1 2 3 4 5 6 
#
# 1 0.015132 0.001695 -0.006840 0.000000 0.000000 0.000000
# 2 0.001695 0.010110 -0.005294 0.000000 0.000000 0.000000
# 3 -0.006840 -0.005294 0.012264 0.000000 0.000000 0.000000
# 4 0.000000 0.000000 0.000000 0.034996 0.000000 0.000000
# 5 0.000000 0.000000 0.000000 0.000000 0.022280 0.000000
# 6 0.000000 0.000000 0.000000 0.000000 0.000000 0.033571
#
#
# Mechanical properties :
#
#
# Convention : Reuss Voigt Hill
#
# Bulk Modulus (GPa) = 60.13629 70.11510 65.12570
# Shear Modulus (GPa) = 32.30536 35.69695 34.00115
#
# Velocity S-wave (km/s) = 3.79460 3.98882 3.89293
# Velocity P-wave (km/s) = 6.78251 7.24332 7.01670
#
# Compressibility (1/GPa) = 0.01662889
#
# Stress axis : x y z
#
# Youngs Moduli (GPa) = 66.08594 98.91105 81.54051
#
# Poissons Ratio (x) = -0.16770 0.55770
# Poissons Ratio (y) = -0.11204 0.43170
# Poissons Ratio (z) = 0.45200 0.52366
#
# Static dielectric constant tensor:
#      x y z
#    x 4.022740 0.000000 0.000000 
#    y 0.000000 4.142220 0.000000 
#    z 0.000000 0.000000 4.004760 
# 
# 
# High freq. dielectric constant tensor:
#      x y z
#    x 1.895260 0.000000 0.000000 
#    y 0.000000 1.883820 0.000000 
#    z 0.000000 0.000000 1.885690 
# 
# From -- ./inp_files/38497.got.cif
#   From: 2010.03.12/outbox.cif.g09.slc.cpg/sg70_20_cif.got.tgz:38497.got - 2010.04.16 13:46:32.
