data_PCOD8286085
_publ_section_title
;
Structure prediction by ZEFSAII (Michael W. Deem and Ramdas Pophale) SiO2 
 PCOD8286085
Probable space group: F D D D
;
_chemical_formula_sum "Si O2"
_cell_formula_units_Z 176
_cell_length_a 24.440372
_cell_length_b 22.721966
_cell_length_c 15.801658
_cell_angle_alpha 90.000000
_cell_angle_beta 90.000000
_cell_angle_gamma 90.000000
_cell_volume 8775.186908
_symmetry_space_group_name_H-M "F D D D"
_symmetry_group_IT_number 70
_space_group.IT_coordinate_system_code '2'
_symmetry_cell_setting 'orthorhombic'
loop_
_space_group_symop_operation_xyz
x,y,z
1/4-x,1/4-y,z
x,1/4-y,1/4-z
1/4-x,y,1/4-z
-x,-y,-z
3/4+x,3/4+y,-z
-x,3/4+y,3/4+z
3/4+x,-y,3/4+z
x,1/2+y,1/2+z
1/4-x,3/4-y,1/2+z
x,3/4-y,3/4-z
1/4-x,1/2+y,3/4-z
-x,1/2-y,1/2-z
3/4+x,1/4+y,1/2-z
-x,1/4+y,1/4+z
3/4+x,1/2-y,1/4+z
1/2+x,y,1/2+z
3/4-x,1/4-y,1/2+z
1/2+x,1/4-y,3/4-z
3/4-x,y,3/4-z
1/2-x,-y,1/2-z
1/4+x,3/4+y,1/2-z
1/2-x,3/4+y,1/4+z
1/4+x,-y,1/4+z
1/2+x,1/2+y,z
3/4-x,3/4-y,z
1/2+x,3/4-y,1/4-z
3/4-x,1/2+y,1/4-z
1/2-x,1/2-y,-z
1/4+x,1/4+y,-z
1/2-x,1/4+y,3/4+z
1/4+x,1/2-y,3/4+z
loop_
_atom_site_type_symbol
_atom_site_label
_atom_site_fract_x
_atom_site_fract_y
_atom_site_fract_z
Si Si1 0.186442 0.600145 0.379674
Si Si2 0.282284 0.615858 0.259776
Si Si3 0.816567 0.036901 0.106202
Si Si4 0.125000 0.387105 0.625000
Si Si5 0.423211 0.534149 0.017922
Si Si6 0.538161 0.084422 0.544290
O O1 0.125000 0.625000 0.367544
O O2 0.221297 0.616962 0.296967
O O3 0.194524 0.531220 0.389370
O O4 0.215170 0.624303 0.463166
O O5 0.289726 0.568294 0.186319
O O6 0.290835 0.682814 0.227362
O O7 0.329364 0.598099 0.327405
O O8 0.882104 0.044141 0.096718
O O9 0.160024 0.425229 0.689497
O O10 0.481019 0.551092 0.059771
O O11 0.418920 0.467330 0.980378
O O12 0.555406 0.125000 0.625000
#
# Coordination Sequence:
#
# PCOD8286085 Si02
#       6
#    32  32  32  16  32  32
#     4  12  24  44  64  99 134 172 216 276 329 388
#     4  10  23  43  66  95 125 177 220 268 324 389
#     4  10  23  43  69  88 130 170 220 274 326 384
#     4  10  20  38  65  90 123 162 224 266 306 390
#     4  10  22  40  60  95 125 168 212 268 323 397
#     4  11  25  37  62  96 134 167 211 261 342 401
#
# _framework density 20.056553000000001
#
# number of rings (size 3 to 8) (size 9 to 14) (size 15 to 20)
#    0.000    1.455    3.636    0.545   10.182    0.364 
#    3.273    1.818    0.000    0.000    0.000    0.000 
#    0.000    0.000    0.000    0.000    0.000    0.000 
#
# Total GULP energy -545290.389859 kJ/mol
# GULP energy per Si atom -12392.963406 kJ/mol
# Density = 2.001090 g / cm^3
# Si number density = 20.056553 Si / 1000 Ang^3
#
#
#
# Elastic Constant Matrix: (Units=GPa)
#
#
# Indices 1 2 3 4 5 6 
#
# 1 100.2063 41.5528 50.1943 0.0000 0.0000 0.0000
# 2 41.5528 110.0834 21.1467 0.0000 0.0000 0.0000
# 3 50.1943 21.1467 85.6568 0.0000 0.0000 0.0000
# 4 0.0000 0.0000 0.0000 34.3195 0.0000 0.0000
# 5 0.0000 0.0000 0.0000 0.0000 25.3387 0.0000
# 6 0.0000 0.0000 0.0000 0.0000 0.0000 17.1288
#
#
#
# Elastic Compliance Matrix: (Units=1/GPa)
#
#
# Indices 1 2 3 4 5 6 
#
# 1 0.015953 -0.004436 -0.008253 0.000000 0.000000 0.000000
# 2 -0.004436 0.010770 -0.000059 0.000000 0.000000 0.000000
# 3 -0.008253 -0.000059 0.016525 0.000000 0.000000 0.000000
# 4 0.000000 0.000000 0.000000 0.029138 0.000000 0.000000
# 5 0.000000 0.000000 0.000000 0.000000 0.039465 0.000000
# 6 0.000000 0.000000 0.000000 0.000000 0.000000 0.058381
#
#
# Mechanical properties :
#
#
# Convention : Reuss Voigt Hill
#
# Bulk Modulus (GPa) = 56.33469 57.97046 57.15257
# Shear Modulus (GPa) = 24.79575 27.56092 26.17834
#
# Velocity S-wave (km/s) = 3.51991 3.71099 3.61671
# Velocity P-wave (km/s) = 6.68346 6.87955 6.78221
#
# Compressibility (1/GPa) = 0.01775105
#
# Stress axis : x y z
#
# Youngs Moduli (GPa) = 62.68353 92.85082 60.51283
#
# Poissons Ratio (x) = 0.41192 0.49942
# Poissons Ratio (y) = 0.27809 0.00358
# Poissons Ratio (z) = 0.51734 0.00550
#
# Static dielectric constant tensor:
#      x y z
#    x 3.749990 0.000000 0.000000 
#    y 0.000000 3.740990 0.000000 
#    z 0.000000 0.000000 3.715240 
# 
# 
# High freq. dielectric constant tensor:
#      x y z
#    x 1.784340 0.000000 0.000000 
#    y 0.000000 1.785490 0.000000 
#    z 0.000000 0.000000 1.780750 
# 
# From -- ./inp_files/30003.got.cif
#   From: 2010.03.12/outbox.cif.g09.slc.cpg/sg70_16_cif.got.tgz:30003.got - 2010.04.16 13:46:32.
