data_PCOD8286517
_publ_section_title
;
Structure prediction by ZEFSAII (Michael W. Deem and Ramdas Pophale) SiO2 
 PCOD8286517
Probable space group: F D D D
;
_chemical_formula_sum "Si O2"
_cell_formula_units_Z 128
_cell_length_a 17.945731
_cell_length_b 14.447235
_cell_length_c 21.867663
_cell_angle_alpha 90.000000
_cell_angle_beta 90.000000
_cell_angle_gamma 90.000000
_cell_volume 5669.545736
_symmetry_space_group_name_H-M "F D D D"
_symmetry_group_IT_number 70
_space_group.IT_coordinate_system_code '2'
_symmetry_cell_setting 'orthorhombic'
loop_
_space_group_symop_operation_xyz
x,y,z
1/4-x,1/4-y,z
x,1/4-y,1/4-z
1/4-x,y,1/4-z
-x,-y,-z
3/4+x,3/4+y,-z
-x,3/4+y,3/4+z
3/4+x,-y,3/4+z
x,1/2+y,1/2+z
1/4-x,3/4-y,1/2+z
x,3/4-y,3/4-z
1/4-x,1/2+y,3/4-z
-x,1/2-y,1/2-z
3/4+x,1/4+y,1/2-z
-x,1/4+y,1/4+z
3/4+x,1/2-y,1/4+z
1/2+x,y,1/2+z
3/4-x,1/4-y,1/2+z
1/2+x,1/4-y,3/4-z
3/4-x,y,3/4-z
1/2-x,-y,1/2-z
1/4+x,3/4+y,1/2-z
1/2-x,3/4+y,1/4+z
1/4+x,-y,1/4+z
1/2+x,1/2+y,z
3/4-x,3/4-y,z
1/2+x,3/4-y,1/4-z
3/4-x,1/2+y,1/4-z
1/2-x,1/2-y,-z
1/4+x,1/4+y,-z
1/2-x,1/4+y,3/4+z
1/4+x,1/2-y,3/4+z
loop_
_atom_site_type_symbol
_atom_site_label
_atom_site_fract_x
_atom_site_fract_y
_atom_site_fract_z
Si Si1 0.600528 0.268296 0.875141
Si Si2 0.777486 0.731769 0.785621
Si Si3 0.625000 0.366173 0.125000
Si Si4 0.238221 0.536220 0.096546
Si Si5 0.375000 0.375000 0.728093
O O1 0.574152 0.375000 0.875000
O O2 0.550561 0.225244 0.928701
O O3 0.689188 0.263140 0.888712
O O4 0.588245 0.207575 0.813162
O O5 0.841614 0.678316 0.821761
O O6 0.764656 0.682853 0.720688
O O7 0.809245 0.835042 0.771406
O O8 0.563309 0.302887 0.092768
O O9 0.196125 0.625000 0.125000
#
# Coordination Sequence:
#
# PCOD8286517 Si02
#       5
#    32  32  16  32  16
#     4  10  23  45  73 100 142 184 233 287 360 415
#     4  11  25  43  74 100 148 182 230 301 355 420
#     4  12  27  45  70 110 138 188 244 282 364 426
#     4  10  25  49  68 106 136 190 242 295 344 426
#     4  10  24  45  66 114 137 184 244 284 354 424
#
# _framework density 22.576764000000001
#
# number of rings (size 3 to 8) (size 9 to 14) (size 15 to 20)
#    0.000    1.500    0.000    3.375   14.000    2.000 
#    9.000    0.000    0.000    0.000    0.000    0.000 
#    0.000    0.000    0.000    0.000    0.000    0.000 
#
# Total GULP energy -396542.226882 kJ/mol
# GULP energy per Si atom -12391.944590 kJ/mol
# Density = 2.252538 g / cm^3
# Si number density = 22.576764 Si / 1000 Ang^3
#
#
#
# Elastic Constant Matrix: (Units=GPa)
#
#
# Indices 1 2 3 4 5 6 
#
# 1 119.5883 49.8548 71.0805 0.0000 0.0000 0.0000
# 2 49.8548 138.5530 64.8137 0.0000 0.0000 0.0000
# 3 71.0805 64.8137 129.0997 0.0000 0.0000 0.0000
# 4 0.0000 0.0000 0.0000 33.2700 0.0000 0.0000
# 5 0.0000 0.0000 0.0000 0.0000 37.1226 0.0000
# 6 0.0000 0.0000 0.0000 0.0000 0.0000 28.2396
#
#
#
# Elastic Compliance Matrix: (Units=1/GPa)
#
#
# Indices 1 2 3 4 5 6 
#
# 1 0.012729 -0.001701 -0.006154 0.000000 0.000000 0.000000
# 2 -0.001701 0.009660 -0.003913 0.000000 0.000000 0.000000
# 3 -0.006154 -0.003913 0.013099 0.000000 0.000000 0.000000
# 4 0.000000 0.000000 0.000000 0.030057 0.000000 0.000000
# 5 0.000000 0.000000 0.000000 0.000000 0.026938 0.000000
# 6 0.000000 0.000000 0.000000 0.000000 0.000000 0.035411
#
#
# Mechanical properties :
#
#
# Convention : Reuss Voigt Hill
#
# Bulk Modulus (GPa) = 83.67652 84.30434 83.99043
# Shear Modulus (GPa) = 32.17171 33.15924 32.66548
#
# Velocity S-wave (km/s) = 3.77900 3.83656 3.80789
# Velocity P-wave (km/s) = 7.49565 7.55300 7.52438
#
# Compressibility (1/GPa) = 0.01195078
#
# Stress axis : x y z
#
# Youngs Moduli (GPa) = 78.55855 103.51814 76.34136
#
# Poissons Ratio (x) = 0.17612 0.46984
# Poissons Ratio (y) = 0.13365 0.29873
# Poissons Ratio (z) = 0.48349 0.40508
#
# Static dielectric constant tensor:
#      x y z
#    x 4.143830 0.000000 0.000000 
#    y 0.000000 4.307950 0.000000 
#    z 0.000000 0.000000 3.934680 
# 
# 
# High freq. dielectric constant tensor:
#      x y z
#    x 1.895580 0.000000 0.000000 
#    y 0.000000 1.896690 0.000000 
#    z 0.000000 0.000000 1.877650 
# 
# From -- ./inp_files/27315.got.cif
#   From: 2010.03.12/outbox.cif.g09.slc.cpg/sg70_14_cif.got.tgz:27315.got - 2010.04.16 13:46:32.
