data_PCOD8286641
_publ_section_title
;
Structure prediction by ZEFSAII (Michael W. Deem and Ramdas Pophale) SiO2 
 PCOD8286641
Probable space group: F D D D
;
_chemical_formula_sum "Si O2"
_cell_formula_units_Z 208
_cell_length_a 17.524034
_cell_length_b 28.078218
_cell_length_c 19.261998
_cell_angle_alpha 90.000000
_cell_angle_beta 90.000000
_cell_angle_gamma 90.000000
_cell_volume 9477.743742
_symmetry_space_group_name_H-M "F D D D"
_symmetry_group_IT_number 70
_space_group.IT_coordinate_system_code '2'
_symmetry_cell_setting 'orthorhombic'
loop_
_space_group_symop_operation_xyz
x,y,z
1/4-x,1/4-y,z
x,1/4-y,1/4-z
1/4-x,y,1/4-z
-x,-y,-z
3/4+x,3/4+y,-z
-x,3/4+y,3/4+z
3/4+x,-y,3/4+z
x,1/2+y,1/2+z
1/4-x,3/4-y,1/2+z
x,3/4-y,3/4-z
1/4-x,1/2+y,3/4-z
-x,1/2-y,1/2-z
3/4+x,1/4+y,1/2-z
-x,1/4+y,1/4+z
3/4+x,1/2-y,1/4+z
1/2+x,y,1/2+z
3/4-x,1/4-y,1/2+z
1/2+x,1/4-y,3/4-z
3/4-x,y,3/4-z
1/2-x,-y,1/2-z
1/4+x,3/4+y,1/2-z
1/2-x,3/4+y,1/4+z
1/4+x,-y,1/4+z
1/2+x,1/2+y,z
3/4-x,3/4-y,z
1/2+x,3/4-y,1/4-z
3/4-x,1/2+y,1/4-z
1/2-x,1/2-y,-z
1/4+x,1/4+y,-z
1/2-x,1/4+y,3/4+z
1/4+x,1/2-y,3/4+z
loop_
_atom_site_type_symbol
_atom_site_label
_atom_site_fract_x
_atom_site_fract_y
_atom_site_fract_z
Si Si1 0.153491 0.049336 0.248420
Si Si2 0.125000 0.770780 0.625000
Si Si3 0.761922 0.421514 0.831635
Si Si4 0.484654 0.385250 0.794438
Si Si5 0.625000 0.004623 0.125000
Si Si6 0.359308 0.206717 0.231063
Si Si7 0.625000 0.125000 0.275728
Si Si8 0.042331 0.707898 0.896773
O O1 0.226933 0.084039 0.241584
O O2 0.076051 0.078571 0.238486
O O3 0.164309 0.028064 0.325246
O O4 0.155414 0.009153 0.190367
O O5 0.200505 0.800835 0.644507
O O6 0.738235 0.375000 0.875000
O O7 0.802219 0.460463 0.880405
O O8 0.690223 0.450046 0.804111
O O9 0.819454 0.407490 0.770213
O O10 0.468873 0.375000 0.875000
O O11 0.567344 0.406063 0.777469
O O12 0.624720 0.969458 0.189748
O O13 0.308329 0.247618 0.196551
O O14 0.575629 0.091118 0.324542
#
# Coordination Sequence:
#
# PCOD8286641 Si02
#       8
#    32  16  32  32  16  32  16  32
#     4  11  22  41  71  98 147 192 232 291 362 430
#     4  12  24  47  71 106 145 199 240 301 359 448
#     4  12  24  47  76  99 142 193 237 297 370 429
#     4  11  21  43  69 104 144 188 231 288 364 434
#     4  12  25  48  69 104 145 185 242 305 360 421
#     4  12  27  42  76 110 139 189 247 301 353 439
#     4  12  25  48  66 101 142 194 238 302 374 427
#     4  12  27  44  71 107 144 188 250 300 364 428
#
# _framework density 21.946152000000001
#
# number of rings (size 3 to 8) (size 9 to 14) (size 15 to 20)
#    0.000    0.308    6.154    2.769    2.154    3.692 
#    0.000    0.000    0.000    0.000    0.000    0.000 
#    0.000    0.000    0.000    0.000    0.000    0.000 
#
# Total GULP energy -644863.629950 kJ/mol
# GULP energy per Si atom -12401.223653 kJ/mol
# Density = 2.189620 g / cm^3
# Si number density = 21.946152 Si / 1000 Ang^3
#
#
#
# Elastic Constant Matrix: (Units=GPa)
#
#
# Indices 1 2 3 4 5 6 
#
# 1 141.7256 45.2862 31.8367 0.0000 0.0000 0.0000
# 2 45.2862 79.3951 31.6339 0.0000 0.0000 0.0000
# 3 31.8367 31.6339 110.0347 0.0000 0.0000 0.0000
# 4 0.0000 0.0000 0.0000 10.4605 0.0000 0.0000
# 5 0.0000 0.0000 0.0000 0.0000 22.1417 0.0000
# 6 0.0000 0.0000 0.0000 0.0000 0.0000 69.7110
#
#
#
# Elastic Compliance Matrix: (Units=1/GPa)
#
#
# Indices 1 2 3 4 5 6 
#
# 1 0.008776 -0.004511 -0.001242 0.000000 0.000000 0.000000
# 2 -0.004511 0.016543 -0.003451 0.000000 0.000000 0.000000
# 3 -0.001242 -0.003451 0.010440 0.000000 0.000000 0.000000
# 4 0.000000 0.000000 0.000000 0.095598 0.000000 0.000000
# 5 0.000000 0.000000 0.000000 0.000000 0.045164 0.000000
# 6 0.000000 0.000000 0.000000 0.000000 0.000000 0.014345
#
#
# Mechanical properties :
#
#
# Convention : Reuss Voigt Hill
#
# Bulk Modulus (GPa) = 57.63447 60.96321 59.29884
# Shear Modulus (GPa) = 23.24958 35.28921 29.26939
#
# Velocity S-wave (km/s) = 3.25836 4.01433 3.65594
# Velocity P-wave (km/s) = 6.36197 7.02319 6.70074
#
# Compressibility (1/GPa) = 0.01735073
#
# Stress axis : x y z
#
# Youngs Moduli (GPa) = 113.94217 60.44791 95.78900
#
# Poissons Ratio (x) = 0.27268 0.11901
# Poissons Ratio (y) = 0.51398 0.33055
# Poissons Ratio (z) = 0.14157 0.20860
#
# Static dielectric constant tensor:
#      x y z
#    x 2.831320 0.000000 0.000000 
#    y 0.000000 3.997140 0.000000 
#    z 0.000000 0.000000 4.252400 
# 
# 
# High freq. dielectric constant tensor:
#      x y z
#    x 1.869160 0.000000 0.000000 
#    y 0.000000 1.863280 0.000000 
#    z 0.000000 0.000000 1.871190 
# 
# From -- ./inp_files/43984.got.cif
#   From: 2010.03.12/outbox.cif.g09.slc.cpg/sg70_22_cif.got.tgz:43984.got - 2010.04.16 13:46:32.
