data_PCOD8286124
_publ_section_title
;
Structure prediction by ZEFSAII (Michael W. Deem and Ramdas Pophale) SiO2 
 PCOD8286124
Probable space group: F D D D
;
_chemical_formula_sum "Si O2"
_cell_formula_units_Z 160
_cell_length_a 14.208794
_cell_length_b 22.035203
_cell_length_c 26.370531
_cell_angle_alpha 90.000000
_cell_angle_beta 90.000000
_cell_angle_gamma 90.000000
_cell_volume 8256.446072
_symmetry_space_group_name_H-M "F D D D"
_symmetry_group_IT_number 70
_space_group.IT_coordinate_system_code '2'
_symmetry_cell_setting 'orthorhombic'
loop_
_space_group_symop_operation_xyz
x,y,z
1/4-x,1/4-y,z
x,1/4-y,1/4-z
1/4-x,y,1/4-z
-x,-y,-z
3/4+x,3/4+y,-z
-x,3/4+y,3/4+z
3/4+x,-y,3/4+z
x,1/2+y,1/2+z
1/4-x,3/4-y,1/2+z
x,3/4-y,3/4-z
1/4-x,1/2+y,3/4-z
-x,1/2-y,1/2-z
3/4+x,1/4+y,1/2-z
-x,1/4+y,1/4+z
3/4+x,1/2-y,1/4+z
1/2+x,y,1/2+z
3/4-x,1/4-y,1/2+z
1/2+x,1/4-y,3/4-z
3/4-x,y,3/4-z
1/2-x,-y,1/2-z
1/4+x,3/4+y,1/2-z
1/2-x,3/4+y,1/4+z
1/4+x,-y,1/4+z
1/2+x,1/2+y,z
3/4-x,3/4-y,z
1/2+x,3/4-y,1/4-z
3/4-x,1/2+y,1/4-z
1/2-x,1/2-y,-z
1/4+x,1/4+y,-z
1/2-x,1/4+y,3/4+z
1/4+x,1/2-y,3/4+z
loop_
_atom_site_type_symbol
_atom_site_label
_atom_site_fract_x
_atom_site_fract_y
_atom_site_fract_z
Si Si1 0.378569 0.062030 0.596829
Si Si2 0.525924 0.100476 0.997896
Si Si3 0.790400 0.525464 0.495597
Si Si4 0.588301 0.689876 0.181233
Si Si5 0.604652 0.487889 0.449208
O O1 0.353714 0.125000 0.625000
O O2 0.302148 0.038808 0.555850
O O3 0.476495 0.065212 0.567109
O O4 0.386678 0.011700 0.640882
O O5 0.625000 0.125000 0.021528
O O6 0.473726 0.157422 0.970890
O O7 0.543700 0.048670 0.956247
O O8 0.458830 0.071947 0.041015
O O9 0.878728 0.491880 0.470227
O O10 0.695768 0.486144 0.486117
O O11 0.625000 0.625000 0.200283
O O12 0.625000 0.704929 0.125000
#
# Coordination Sequence:
#
# PCOD8286124 Si02
#       5
#    32  32  32  32  32
#     4  12  21  38  65  94 121 167 216 258 318 396
#     4   9  20  38  63  86 121 166 198 257 322 369
#     4  11  22  38  64  93 121 169 212 258 327 380
#     4  11  21  39  63  91 129 168 211 268 326 379
#     4  10  20  40  61  89 130 159 206 269 310 378
#
# _framework density 19.378798
#
# number of rings (size 3 to 8) (size 9 to 14) (size 15 to 20)
#    0.000    1.400    6.000    0.600    0.000    0.000 
#    0.000   17.000    0.000    0.000    0.000    0.000 
#    0.000    0.000    0.000    0.000    0.000    0.000 
#
# Total GULP energy -495777.963100 kJ/mol
# GULP energy per Si atom -12394.449077 kJ/mol
# Density = 1.933469 g / cm^3
# Si number density = 19.378798 Si / 1000 Ang^3
#
#
#
# Elastic Constant Matrix: (Units=GPa)
#
#
# Indices 1 2 3 4 5 6 
#
# 1 90.2887 49.3508 50.8880 0.0000 0.0000 0.0000
# 2 49.3508 111.5006 54.2602 0.0000 0.0000 0.0000
# 3 50.8880 54.2602 105.1517 0.0000 0.0000 0.0000
# 4 0.0000 0.0000 0.0000 26.1003 0.0000 0.0000
# 5 0.0000 0.0000 0.0000 0.0000 21.7742 0.0000
# 6 0.0000 0.0000 0.0000 0.0000 0.0000 35.2057
#
#
#
# Elastic Compliance Matrix: (Units=1/GPa)
#
#
# Indices 1 2 3 4 5 6 
#
# 1 0.016870 -0.004665 -0.005757 0.000000 0.000000 0.000000
# 2 -0.004665 0.013266 -0.004588 0.000000 0.000000 0.000000
# 3 -0.005757 -0.004588 0.014663 0.000000 0.000000 0.000000
# 4 0.000000 0.000000 0.000000 0.038314 0.000000 0.000000
# 5 0.000000 0.000000 0.000000 0.000000 0.045926 0.000000
# 6 0.000000 0.000000 0.000000 0.000000 0.000000 0.028404
#
#
# Mechanical properties :
#
#
# Convention : Reuss Voigt Hill
#
# Bulk Modulus (GPa) = 67.66007 68.43767 68.04887
# Shear Modulus (GPa) = 25.98879 26.77883 26.38381
#
# Velocity S-wave (km/s) = 3.66607 3.72137 3.69382
# Velocity P-wave (km/s) = 7.27395 7.33875 7.30642
#
# Compressibility (1/GPa) = 0.01477977
#
# Stress axis : x y z
#
# Youngs Moduli (GPa) = 59.27570 75.38045 68.19658
#
# Poissons Ratio (x) = 0.35168 0.39260
# Poissons Ratio (y) = 0.27654 0.31287
# Poissons Ratio (z) = 0.34125 0.34582
#
# Static dielectric constant tensor:
#      x y z
#    x 3.685580 0.000000 0.000000 
#    y 0.000000 3.742520 0.000000 
#    z 0.000000 0.000000 3.321830 
# 
# 
# High freq. dielectric constant tensor:
#      x y z
#    x 1.763520 0.000000 0.000000 
#    y 0.000000 1.763070 0.000000 
#    z 0.000000 0.000000 1.722100 
# 
# From -- ./inp_files/28621.got.cif
#   From: 2010.03.12/outbox.cif.g09.slc.cpg/sg70_15_cif.got.tgz:28621.got - 2010.04.16 13:46:32.
