data_PCOD8286094
_publ_section_title
;
Structure prediction by ZEFSAII (Michael W. Deem and Ramdas Pophale) SiO2 
 PCOD8286094
Probable space group: F D D D
;
_chemical_formula_sum "Si O2"
_cell_formula_units_Z 144
_cell_length_a 16.939882
_cell_length_b 26.248676
_cell_length_c 15.499192
_cell_angle_alpha 90.000000
_cell_angle_beta 90.000000
_cell_angle_gamma 90.000000
_cell_volume 6891.707572
_symmetry_space_group_name_H-M "F D D D"
_symmetry_group_IT_number 70
_space_group.IT_coordinate_system_code '2'
_symmetry_cell_setting 'orthorhombic'
loop_
_space_group_symop_operation_xyz
x,y,z
1/4-x,1/4-y,z
x,1/4-y,1/4-z
1/4-x,y,1/4-z
-x,-y,-z
3/4+x,3/4+y,-z
-x,3/4+y,3/4+z
3/4+x,-y,3/4+z
x,1/2+y,1/2+z
1/4-x,3/4-y,1/2+z
x,3/4-y,3/4-z
1/4-x,1/2+y,3/4-z
-x,1/2-y,1/2-z
3/4+x,1/4+y,1/2-z
-x,1/4+y,1/4+z
3/4+x,1/2-y,1/4+z
1/2+x,y,1/2+z
3/4-x,1/4-y,1/2+z
1/2+x,1/4-y,3/4-z
3/4-x,y,3/4-z
1/2-x,-y,1/2-z
1/4+x,3/4+y,1/2-z
1/2-x,3/4+y,1/4+z
1/4+x,-y,1/4+z
1/2+x,1/2+y,z
3/4-x,3/4-y,z
1/2+x,3/4-y,1/4-z
3/4-x,1/2+y,1/4-z
1/2-x,1/2-y,-z
1/4+x,1/4+y,-z
1/2-x,1/4+y,3/4+z
1/4+x,1/2-y,3/4+z
loop_
_atom_site_type_symbol
_atom_site_label
_atom_site_fract_x
_atom_site_fract_y
_atom_site_fract_z
Si Si1 0.286023 0.289076 0.878955
Si Si2 0.500388 0.317010 0.680456
Si Si3 0.014097 0.446868 0.045631
Si Si4 0.314004 0.579019 0.473239
Si Si5 0.625000 0.625000 0.414952
O O1 0.375000 0.308944 0.875000
O O2 0.281908 0.227691 0.866893
O O3 0.237577 0.320379 0.808089
O O4 0.249159 0.299741 0.971153
O O5 0.556398 0.365853 0.678154
O O6 0.413786 0.332275 0.646329
O O7 0.031121 0.458142 0.147394
O O8 0.094576 0.426339 0.002222
O O9 0.941877 0.406084 0.030050
O O10 0.000000 0.500000 0.000000
#
# Coordination Sequence:
#
# PCOD8286094 Si02
#       5
#    32  32  32  32  16
#     4  11  22  36  61  92 124 156 201 253 318 388
#     4  10  22  37  59  93 119 155 202 252 323 373
#     4  10  21  39  65  88 122 171 215 259 317 372
#     4  10  22  39  62  88 126 164 203 265 316 380
#     4  10  20  38  67  87 120 168 210 262 318 379
#
# _framework density 20.894676
#
# number of rings (size 3 to 8) (size 9 to 14) (size 15 to 20)
#    0.000    1.778    0.000    4.667    6.222    2.667 
#    0.000    0.000    4.889    1.333    0.000    0.000 
#    0.000    0.000    0.000    0.000    0.000    0.000 
#
# Total GULP energy -446132.765989 kJ/mol
# GULP energy per Si atom -12392.576833 kJ/mol
# Density = 2.084712 g / cm^3
# Si number density = 20.894676 Si / 1000 Ang^3
#
#
#
# Elastic Constant Matrix: (Units=GPa)
#
#
# Indices 1 2 3 4 5 6 
#
# 1 166.6824 46.5901 29.6222 0.0000 0.0000 0.0000
# 2 46.5901 103.8124 19.7949 0.0000 0.0000 0.0000
# 3 29.6222 19.7949 60.1632 0.0000 0.0000 0.0000
# 4 0.0000 0.0000 0.0000 33.0266 0.0000 0.0000
# 5 0.0000 0.0000 0.0000 0.0000 31.8081 0.0000
# 6 0.0000 0.0000 0.0000 0.0000 0.0000 34.8285
#
#
#
# Elastic Compliance Matrix: (Units=1/GPa)
#
#
# Indices 1 2 3 4 5 6 
#
# 1 0.007239 -0.002741 -0.002662 0.000000 0.000000 0.000000
# 2 -0.002741 0.011315 -0.002373 0.000000 0.000000 0.000000
# 3 -0.002662 -0.002373 0.018713 0.000000 0.000000 0.000000
# 4 0.000000 0.000000 0.000000 0.030279 0.000000 0.000000
# 5 0.000000 0.000000 0.000000 0.000000 0.031439 0.000000
# 6 0.000000 0.000000 0.000000 0.000000 0.000000 0.028712
#
#
# Mechanical properties :
#
#
# Convention : Reuss Voigt Hill
#
# Bulk Modulus (GPa) = 46.05338 58.07473 52.06405
# Shear Modulus (GPa) = 33.22525 35.57603 34.40064
#
# Velocity S-wave (km/s) = 3.99197 4.13078 4.06197
# Velocity P-wave (km/s) = 6.58303 7.11375 6.85353
#
# Compressibility (1/GPa) = 0.02171393
#
# Stress axis : x y z
#
# Youngs Moduli (GPa) = 138.14606 88.37454 53.43839
#
# Poissons Ratio (x) = 0.24224 0.14227
# Poissons Ratio (y) = 0.37866 0.12683
# Poissons Ratio (z) = 0.36778 0.20975
#
# Static dielectric constant tensor:
#      x y z
#    x 3.893390 0.000000 0.000000 
#    y 0.000000 4.125360 0.000000 
#    z 0.000000 0.000000 4.046170 
# 
# 
# High freq. dielectric constant tensor:
#      x y z
#    x 1.830800 0.000000 0.000000 
#    y 0.000000 1.823190 0.000000 
#    z 0.000000 0.000000 1.796480 
# 
# From -- ./inp_files/26566.got.cif
#   From: 2010.03.12/outbox.cif.g09.slc.cpg/sg70_14_cif.got.tgz:26566.got - 2010.04.16 13:46:32.
