data_PCOD8286710
_publ_section_title
;
Structure prediction by ZEFSAII (Michael W. Deem and Ramdas Pophale) SiO2 
 PCOD8286710
Probable space group: F D D D
;
_chemical_formula_sum "Si O2"
_cell_formula_units_Z 176
_cell_length_a 24.393598
_cell_length_b 26.015096
_cell_length_c 11.584443
_cell_angle_alpha 90.000000
_cell_angle_beta 90.000000
_cell_angle_gamma 90.000000
_cell_volume 7351.508307
_symmetry_space_group_name_H-M "F D D D"
_symmetry_group_IT_number 70
_space_group.IT_coordinate_system_code '2'
_symmetry_cell_setting 'orthorhombic'
loop_
_space_group_symop_operation_xyz
x,y,z
1/4-x,1/4-y,z
x,1/4-y,1/4-z
1/4-x,y,1/4-z
-x,-y,-z
3/4+x,3/4+y,-z
-x,3/4+y,3/4+z
3/4+x,-y,3/4+z
x,1/2+y,1/2+z
1/4-x,3/4-y,1/2+z
x,3/4-y,3/4-z
1/4-x,1/2+y,3/4-z
-x,1/2-y,1/2-z
3/4+x,1/4+y,1/2-z
-x,1/4+y,1/4+z
3/4+x,1/2-y,1/4+z
1/2+x,y,1/2+z
3/4-x,1/4-y,1/2+z
1/2+x,1/4-y,3/4-z
3/4-x,y,3/4-z
1/2-x,-y,1/2-z
1/4+x,3/4+y,1/2-z
1/2-x,3/4+y,1/4+z
1/4+x,-y,1/4+z
1/2+x,1/2+y,z
3/4-x,3/4-y,z
1/2+x,3/4-y,1/4-z
3/4-x,1/2+y,1/4-z
1/2-x,1/2-y,-z
1/4+x,1/4+y,-z
1/2-x,1/4+y,3/4+z
1/4+x,1/2-y,3/4+z
loop_
_atom_site_type_symbol
_atom_site_label
_atom_site_fract_x
_atom_site_fract_y
_atom_site_fract_z
Si Si1 0.503472 0.319908 0.340925
Si Si2 0.690947 0.821527 0.909072
Si Si3 0.475211 0.765354 0.482006
Si Si4 0.084469 0.077722 0.405830
Si Si5 0.125000 0.461922 0.625000
Si Si6 0.358361 0.725251 0.003861
O O1 0.529869 0.375000 0.375000
O O2 0.494373 0.281375 0.449635
O O3 0.446599 0.334408 0.278291
O O4 0.544294 0.289957 0.254205
O O5 0.719569 0.875000 0.875000
O O6 0.737233 0.778384 0.879671
O O7 0.642382 0.819054 0.815198
O O8 0.665218 0.820146 0.038420
O O9 0.462085 0.816928 0.557770
O O10 0.414655 0.747067 0.449237
O O11 0.125000 0.125000 0.376149
O O12 0.120636 0.026408 0.421033
O O13 0.375000 0.734706 0.875000
#
# Coordination Sequence:
#
# PCOD8286710 Si02
#       6
#    32  32  32  32  16  32
#     4  11  24  43  70 106 148 192 249 309 379 453
#     4  12  27  47  76 109 143 199 247 312 381 447
#     4  11  26  49  71 108 150 198 248 315 380 454
#     4  11  25  43  71 108 146 194 246 311 373 449
#     4  12  26  50  77 104 150 190 255 304 370 460
#     4  11  23  44  71 104 145 190 248 313 369 445
#
# _framework density 23.940666
#
# number of rings (size 3 to 8) (size 9 to 14) (size 15 to 20)
#    0.000    0.727    3.636    5.455    6.364    2.909 
#    0.000    0.000    0.000    0.000    0.000    0.000 
#    0.000    0.000    0.000    0.000    0.000    0.000 
#
# Total GULP energy -545231.296808 kJ/mol
# GULP energy per Si atom -12391.620382 kJ/mol
# Density = 2.388618 g / cm^3
# Si number density = 23.940666 Si / 1000 Ang^3
#
#
#
# Elastic Constant Matrix: (Units=GPa)
#
#
# Indices 1 2 3 4 5 6 
#
# 1 84.0516 34.7463 31.9026 0.0000 0.0000 0.0000
# 2 34.7463 131.9718 40.1605 0.0001 0.0000 0.0000
# 3 31.9026 40.1605 121.2539 0.0002 -0.0002 0.0000
# 4 0.0000 0.0001 0.0002 19.1781 -0.0001 0.0000
# 5 0.0000 0.0000 -0.0002 -0.0001 47.7747 0.0000
# 6 0.0000 0.0000 0.0000 0.0000 0.0000 34.6196
#
#
#
# Elastic Compliance Matrix: (Units=1/GPa)
#
#
# Indices 1 2 3 4 5 6 
#
# 1 0.014138 -0.002881 -0.002766 0.000000 0.000000 0.000000
# 2 -0.002881 0.009014 -0.002227 0.000000 0.000000 0.000000
# 3 -0.002766 -0.002227 0.009713 0.000000 0.000000 0.000000
# 4 0.000000 0.000000 0.000000 0.052143 0.000000 0.000000
# 5 0.000000 0.000000 0.000000 0.000000 0.020932 0.000000
# 6 0.000000 0.000000 0.000000 0.000000 0.000000 0.028885
#
#
# Mechanical properties :
#
#
# Convention : Reuss Voigt Hill
#
# Bulk Modulus (GPa) = 58.42299 61.21069 59.81684
# Shear Modulus (GPa) = 31.99440 35.67901 33.83670
#
# Velocity S-wave (km/s) = 3.65965 3.86464 3.76354
# Velocity P-wave (km/s) = 6.50489 6.74812 6.62762
#
# Compressibility (1/GPa) = 0.01711655
#
# Stress axis : x y z
#
# Youngs Moduli (GPa) = 70.73099 110.94244 102.95919
#
# Poissons Ratio (x) = 0.31960 0.28475
# Poissons Ratio (y) = 0.20376 0.22934
# Poissons Ratio (z) = 0.19562 0.24712
#
# Static dielectric constant tensor:
#      x y z
#    x 4.172000 0.000000 0.000000 
#    y 0.000000 4.564140 0.000000 
#    z 0.000000 0.000000 4.746140 
# 
# 
# High freq. dielectric constant tensor:
#      x y z
#    x 1.949920 0.000000 0.000000 
#    y 0.000000 1.945530 0.000000 
#    z 0.000000 0.000000 1.947670 
# 
# From -- ./inp_files/19651.got.cif
#   From: 2010.03.12/outbox.cif.g09.slc.cpg/sg70_10_cif.got.tgz:19651.got - 2010.04.16 13:46:32.
