data_PCOD8286445
_publ_section_title
;
Structure prediction by ZEFSAII (Michael W. Deem and Ramdas Pophale) SiO2 
 PCOD8286445
Probable space group: F D D D
;
_chemical_formula_sum "Si O2"
_cell_formula_units_Z 160
_cell_length_a 19.066427
_cell_length_b 17.994785
_cell_length_c 19.471169
_cell_angle_alpha 90.000000
_cell_angle_beta 90.000000
_cell_angle_gamma 90.000000
_cell_volume 6680.485156
_symmetry_space_group_name_H-M "F D D D"
_symmetry_group_IT_number 70
_space_group.IT_coordinate_system_code '2'
_symmetry_cell_setting 'orthorhombic'
loop_
_space_group_symop_operation_xyz
x,y,z
1/4-x,1/4-y,z
x,1/4-y,1/4-z
1/4-x,y,1/4-z
-x,-y,-z
3/4+x,3/4+y,-z
-x,3/4+y,3/4+z
3/4+x,-y,3/4+z
x,1/2+y,1/2+z
1/4-x,3/4-y,1/2+z
x,3/4-y,3/4-z
1/4-x,1/2+y,3/4-z
-x,1/2-y,1/2-z
3/4+x,1/4+y,1/2-z
-x,1/4+y,1/4+z
3/4+x,1/2-y,1/4+z
1/2+x,y,1/2+z
3/4-x,1/4-y,1/2+z
1/2+x,1/4-y,3/4-z
3/4-x,y,3/4-z
1/2-x,-y,1/2-z
1/4+x,3/4+y,1/2-z
1/2-x,3/4+y,1/4+z
1/4+x,-y,1/4+z
1/2+x,1/2+y,z
3/4-x,3/4-y,z
1/2+x,3/4-y,1/4-z
3/4-x,1/2+y,1/4-z
1/2-x,1/2-y,-z
1/4+x,1/4+y,-z
1/2-x,1/4+y,3/4+z
1/4+x,1/2-y,3/4+z
loop_
_atom_site_type_symbol
_atom_site_label
_atom_site_fract_x
_atom_site_fract_y
_atom_site_fract_z
Si Si1 0.875000 0.875000 0.026384
Si Si2 0.215624 0.765604 0.072776
Si Si3 0.856728 0.661841 0.240870
Si Si4 0.722653 0.696476 0.171913
Si Si5 0.240021 0.410198 0.656132
Si Si6 0.034186 0.875000 0.375000
O O1 0.820196 0.825577 0.070354
O O2 0.830881 0.936585 0.984588
O O3 0.134489 0.783044 0.052082
O O4 0.246112 0.839277 0.106922
O O5 0.232025 0.696359 0.123354
O O6 0.250000 0.750000 0.000000
O O7 0.803634 0.708179 0.193583
O O8 0.809830 0.599176 0.277525
O O9 0.917771 0.624962 0.193963
O O10 0.712970 0.625000 0.125000
O O11 0.704003 0.771069 0.131917
#
# Coordination Sequence:
#
# PCOD8286445 Si02
#       6
#    16  32  32  32  32  16
#     4  10  27  44  72 110 142 185 250 286 366 430
#     4  10  24  43  71 104 138 193 235 297 356 431
#     4  10  23  45  72 104 144 187 240 294 368 424
#     4  11  25  45  71 106 143 193 233 301 355 435
#     4  11  26  45  72 104 147 189 238 305 354 437
#     4  10  22  46  73 101 146 184 240 296 364 432
#
# _framework density 23.950357
#
# number of rings (size 3 to 8) (size 9 to 14) (size 15 to 20)
#    0.000    1.600    1.000    0.900    5.600   16.000 
#    0.000    8.000    0.000    0.000    0.000    0.000 
#    0.000    0.000    0.000    0.000    0.000    0.000 
#
# Total GULP energy -495789.701321 kJ/mol
# GULP energy per Si atom -12394.742533 kJ/mol
# Density = 2.389584 g / cm^3
# Si number density = 23.950357 Si / 1000 Ang^3
#
#
#
# Elastic Constant Matrix: (Units=GPa)
#
#
# Indices 1 2 3 4 5 6 
#
# 1 95.8723 27.3808 15.8383 0.0000 0.0000 0.0000
# 2 27.3808 155.5376 46.3633 0.0000 0.0000 0.0000
# 3 15.8383 46.3633 90.5197 0.0000 0.0000 0.0000
# 4 0.0000 0.0000 0.0000 44.4308 0.0000 0.0000
# 5 0.0000 0.0000 0.0000 0.0000 27.9296 0.0000
# 6 0.0000 0.0000 0.0000 0.0000 0.0000 18.4610
#
#
#
# Elastic Compliance Matrix: (Units=1/GPa)
#
#
# Indices 1 2 3 4 5 6 
#
# 1 0.011076 -0.001619 -0.001109 0.000000 0.000000 0.000000
# 2 -0.001619 0.007825 -0.003724 0.000000 0.000000 0.000000
# 3 -0.001109 -0.003724 0.013149 0.000000 0.000000 0.000000
# 4 0.000000 0.000000 0.000000 0.022507 0.000000 0.000000
# 5 0.000000 0.000000 0.000000 0.000000 0.035804 0.000000
# 6 0.000000 0.000000 0.000000 0.000000 0.000000 0.054168
#
#
# Mechanical properties :
#
#
# Convention : Reuss Voigt Hill
#
# Bulk Modulus (GPa) = 52.23294 57.89938 55.06616
# Shear Modulus (GPa) = 30.52220 34.98744 32.75482
#
# Velocity S-wave (km/s) = 3.57374 3.82623 3.70214
# Velocity P-wave (km/s) = 6.23578 6.61417 6.42776
#
# Compressibility (1/GPa) = 0.01914501
#
# Stress axis : x y z
#
# Youngs Moduli (GPa) = 90.28392 127.80291 76.05231
#
# Poissons Ratio (x) = 0.20696 0.08431
# Poissons Ratio (y) = 0.14621 0.28324
# Poissons Ratio (z) = 0.10009 0.47598
#
# Static dielectric constant tensor:
#      x y z
#    x 5.058050 0.000000 0.000000 
#    y 0.000000 4.267370 0.000000 
#    z 0.000000 0.000000 4.459260 
# 
# 
# High freq. dielectric constant tensor:
#      x y z
#    x 1.964780 0.000000 0.000000 
#    y 0.000000 1.928020 0.000000 
#    z 0.000000 0.000000 1.967930 
# 
# From -- ./inp_files/44748.got.cif
#   From: 2010.03.12/outbox.cif.g09.slc.cpg/sg70_23_cif.got.tgz:44748.got - 2010.04.16 13:46:32.
