data_PCOD8286025
_publ_section_title
;
Structure prediction by ZEFSAII (Michael W. Deem and Ramdas Pophale) SiO2 
 PCOD8286025
Probable space group: F D D D
;
_chemical_formula_sum "Si O2"
_cell_formula_units_Z 152
_cell_length_a 28.070386
_cell_length_b 21.025989
_cell_length_c 12.704686
_cell_angle_alpha 90.000000
_cell_angle_beta 90.000000
_cell_angle_gamma 90.000000
_cell_volume 7498.402579
_symmetry_space_group_name_H-M "F D D D"
_symmetry_group_IT_number 70
_space_group.IT_coordinate_system_code '2'
_symmetry_cell_setting 'orthorhombic'
loop_
_space_group_symop_operation_xyz
x,y,z
1/4-x,1/4-y,z
x,1/4-y,1/4-z
1/4-x,y,1/4-z
-x,-y,-z
3/4+x,3/4+y,-z
-x,3/4+y,3/4+z
3/4+x,-y,3/4+z
x,1/2+y,1/2+z
1/4-x,3/4-y,1/2+z
x,3/4-y,3/4-z
1/4-x,1/2+y,3/4-z
-x,1/2-y,1/2-z
3/4+x,1/4+y,1/2-z
-x,1/4+y,1/4+z
3/4+x,1/2-y,1/4+z
1/2+x,y,1/2+z
3/4-x,1/4-y,1/2+z
1/2+x,1/4-y,3/4-z
3/4-x,y,3/4-z
1/2-x,-y,1/2-z
1/4+x,3/4+y,1/2-z
1/2-x,3/4+y,1/4+z
1/4+x,-y,1/4+z
1/2+x,1/2+y,z
3/4-x,3/4-y,z
1/2+x,3/4-y,1/4-z
3/4-x,1/2+y,1/4-z
1/2-x,1/2-y,-z
1/4+x,1/4+y,-z
1/2-x,1/4+y,3/4+z
1/4+x,1/2-y,3/4+z
loop_
_atom_site_type_symbol
_atom_site_label
_atom_site_fract_x
_atom_site_fract_y
_atom_site_fract_z
Si Si1 0.280333 0.125000 0.625000
Si Si2 0.375000 0.875000 0.875000
Si Si3 0.425821 0.992608 0.150295
Si Si4 0.698606 0.120062 0.966097
Si Si5 0.270578 0.448277 0.894586
Si Si6 0.565558 0.736619 0.311770
O O1 0.312089 0.187344 0.609348
O O2 0.250241 0.117675 0.518182
O O3 0.339116 0.836423 0.797341
O O4 0.432257 0.942855 0.054499
O O5 0.461493 0.970435 0.242040
O O6 0.371654 0.996908 0.188003
O O7 0.698082 0.082912 0.856616
O O8 0.281972 0.375000 0.875000
O O9 0.298854 0.490302 0.808770
O O10 0.213740 0.461700 0.881562
#
# Coordination Sequence:
#
# PCOD8286025 Si02
#       6
#    16   8  32  32  32  32
#     4  11  26  41  60  90 134 162 207 266 319 374
#     4  10  20  36  64  94 112 160 220 264 292 374
#     4  12  23  42  66  94 123 172 212 262 321 382
#     4  11  21  41  65  90 123 166 216 260 311 382
#     4  11  24  41  66  95 130 163 210 265 325 378
#     4  11  23  41  66  96 125 164 212 264 316 389
#
# _framework density 20.270983000000001
#
# number of rings (size 3 to 8) (size 9 to 14) (size 15 to 20)
#    0.000    0.842    6.316    1.263    1.474    0.842 
#    0.000    0.000    4.632    0.000    0.000    0.000 
#    0.000    0.000    0.000    0.000    0.000    0.000 
#
# Total GULP energy -471102.167280 kJ/mol
# GULP energy per Si atom -12397.425455 kJ/mol
# Density = 2.022485 g / cm^3
# Si number density = 20.270983 Si / 1000 Ang^3
#
#
#
# Elastic Constant Matrix: (Units=GPa)
#
#
# Indices 1 2 3 4 5 6 
#
# 1 91.5994 30.9978 11.4799 0.0000 0.0000 0.0000
# 2 30.9978 97.3737 17.9363 0.0000 0.0000 0.0000
# 3 11.4799 17.9363 67.7786 0.0000 0.0000 0.0000
# 4 0.0000 0.0000 0.0000 22.5654 0.0000 0.0000
# 5 0.0000 0.0000 0.0000 0.0000 26.9969 0.0000
# 6 0.0000 0.0000 0.0000 0.0000 0.0000 26.5613
#
#
#
# Elastic Compliance Matrix: (Units=1/GPa)
#
#
# Indices 1 2 3 4 5 6 
#
# 1 0.012313 -0.003717 -0.001102 0.000000 0.000000 0.000000
# 2 -0.003717 0.011918 -0.002524 0.000000 0.000000 0.000000
# 3 -0.001102 -0.002524 0.015609 0.000000 0.000000 0.000000
# 4 0.000000 0.000000 0.000000 0.044316 0.000000 0.000000
# 5 0.000000 0.000000 0.000000 0.000000 0.037041 0.000000
# 6 0.000000 0.000000 0.000000 0.000000 0.000000 0.037649
#
#
# Mechanical properties :
#
#
# Convention : Reuss Voigt Hill
#
# Bulk Modulus (GPa) = 39.75597 41.95332 40.85465
# Shear Modulus (GPa) = 27.48527 28.31388 27.89957
#
# Velocity S-wave (km/s) = 3.68624 3.74139 3.71392
# Velocity P-wave (km/s) = 6.14595 6.27736 6.21200
#
# Compressibility (1/GPa) = 0.02515345
#
# Stress axis : x y z
#
# Youngs Moduli (GPa) = 81.21516 83.90761 64.06731
#
# Poissons Ratio (x) = 0.31186 0.07060
# Poissons Ratio (y) = 0.30185 0.16173
# Poissons Ratio (z) = 0.08949 0.21181
#
# Static dielectric constant tensor:
#      x y z
#    x 3.744780 0.000000 0.000000 
#    y 0.000000 3.604210 0.000000 
#    z 0.000000 0.000000 3.739930 
# 
# 
# High freq. dielectric constant tensor:
#      x y z
#    x 1.800540 0.000000 0.000000 
#    y 0.000000 1.771900 0.000000 
#    z 0.000000 0.000000 1.799480 
# 
# From -- ./inp_files/27600.got.cif
#   From: 2010.03.12/outbox.cif.g09.slc.cpg/sg70_14_cif.got.tgz:27600.got - 2010.04.16 13:46:32.
