data_PCOD8286241
_publ_section_title
;
Structure prediction by ZEFSAII (Michael W. Deem and Ramdas Pophale) SiO2 
 PCOD8286241
Probable space group: F D D D
;
_chemical_formula_sum "Si O2"
_cell_formula_units_Z 112
_cell_length_a 11.266118
_cell_length_b 13.709576
_cell_length_c 34.059649
_cell_angle_alpha 90.000000
_cell_angle_beta 90.000000
_cell_angle_gamma 90.000000
_cell_volume 5260.638841
_symmetry_space_group_name_H-M "F D D D"
_symmetry_group_IT_number 70
_space_group.IT_coordinate_system_code '2'
_symmetry_cell_setting 'orthorhombic'
loop_
_space_group_symop_operation_xyz
x,y,z
1/4-x,1/4-y,z
x,1/4-y,1/4-z
1/4-x,y,1/4-z
-x,-y,-z
3/4+x,3/4+y,-z
-x,3/4+y,3/4+z
3/4+x,-y,3/4+z
x,1/2+y,1/2+z
1/4-x,3/4-y,1/2+z
x,3/4-y,3/4-z
1/4-x,1/2+y,3/4-z
-x,1/2-y,1/2-z
3/4+x,1/4+y,1/2-z
-x,1/4+y,1/4+z
3/4+x,1/2-y,1/4+z
1/2+x,y,1/2+z
3/4-x,1/4-y,1/2+z
1/2+x,1/4-y,3/4-z
3/4-x,y,3/4-z
1/2-x,-y,1/2-z
1/4+x,3/4+y,1/2-z
1/2-x,3/4+y,1/4+z
1/4+x,-y,1/4+z
1/2+x,1/2+y,z
3/4-x,3/4-y,z
1/2+x,3/4-y,1/4-z
3/4-x,1/2+y,1/4-z
1/2-x,1/2-y,-z
1/4+x,1/4+y,-z
1/2-x,1/4+y,3/4+z
1/4+x,1/2-y,3/4+z
loop_
_atom_site_type_symbol
_atom_site_label
_atom_site_fract_x
_atom_site_fract_y
_atom_site_fract_z
Si Si1 0.125000 0.890216 0.625000
Si Si2 0.351822 0.528137 0.953184
Si Si3 0.186111 0.383261 0.778673
Si Si4 0.497465 0.431880 0.340277
O O1 0.079635 0.820812 0.590101
O O2 0.227090 0.957219 0.605188
O O3 0.224839 0.478673 0.964182
O O4 0.454783 0.448523 0.956964
O O5 0.394053 0.611997 0.983387
O O6 0.073948 0.425897 0.801558
O O7 0.567214 0.375000 0.375000
O O8 0.375000 0.375000 0.332376
#
# Coordination Sequence:
#
# PCOD8286241 Si02
#       4
#    16  32  32  32
#     4  10  21  39  58  94 124 156 218 251 311 380
#     4  10  22  37  64  94 123 163 209 259 319 365
#     4  10  21  40  62  90 129 164 204 264 310 373
#     4   9  21  41  59  84 125 169 203 257 308 369
#
# _framework density 21.290189000000002
#
# number of rings (size 3 to 8) (size 9 to 14) (size 15 to 20)
#    0.000    2.571    0.000    1.714    4.000    4.571 
#    5.143   12.857    0.000    0.000    0.000    0.000 
#    0.000    0.000    0.000    0.000    0.000    0.000 
#
# Total GULP energy -346879.631143 kJ/mol
# GULP energy per Si atom -12388.558255 kJ/mol
# Density = 2.124173 g / cm^3
# Si number density = 21.290189 Si / 1000 Ang^3
#
#
#
# Elastic Constant Matrix: (Units=GPa)
#
#
# Indices 1 2 3 4 5 6 
#
# 1 70.4551 30.7507 54.0155 0.0000 0.0000 0.0000
# 2 30.7507 102.9706 67.6235 0.0000 0.0000 0.0000
# 3 54.0155 67.6235 159.4173 0.0000 0.0000 0.0000
# 4 0.0000 0.0000 0.0000 28.0394 0.0000 0.0000
# 5 0.0000 0.0000 0.0000 0.0000 32.5689 0.0000
# 6 0.0000 0.0000 0.0000 0.0000 0.0000 19.5240
#
#
#
# Elastic Compliance Matrix: (Units=1/GPa)
#
#
# Indices 1 2 3 4 5 6 
#
# 1 0.019483 -0.002056 -0.005730 0.000000 0.000000 0.000000
# 2 -0.002056 0.013679 -0.005106 0.000000 0.000000 0.000000
# 3 -0.005730 -0.005106 0.010380 0.000000 0.000000 0.000000
# 4 0.000000 0.000000 0.000000 0.035664 0.000000 0.000000
# 5 0.000000 0.000000 0.000000 0.000000 0.030704 0.000000
# 6 0.000000 0.000000 0.000000 0.000000 0.000000 0.051219
#
#
# Mechanical properties :
#
#
# Convention : Reuss Voigt Hill
#
# Bulk Modulus (GPa) = 56.30681 70.84694 63.57688
# Shear Modulus (GPa) = 25.92944 28.05668 26.99306
#
# Velocity S-wave (km/s) = 3.49364 3.63412 3.56457
# Velocity P-wave (km/s) = 6.54054 7.13850 6.84605
#
# Compressibility (1/GPa) = 0.01775984
#
# Stress axis : x y z
#
# Youngs Moduli (GPa) = 51.32600 73.10736 96.33878
#
# Poissons Ratio (x) = 0.15028 0.55198
# Poissons Ratio (y) = 0.10551 0.49189
# Poissons Ratio (z) = 0.29408 0.37327
#
# Static dielectric constant tensor:
#      x y z
#    x 3.754640 0.000000 0.000000 
#    y 0.000000 3.957670 0.000000 
#    z 0.000000 0.000000 3.966760 
# 
# 
# High freq. dielectric constant tensor:
#      x y z
#    x 1.812380 0.000000 0.000000 
#    y 0.000000 1.833770 0.000000 
#    z 0.000000 0.000000 1.845620 
# 
# From -- ./inp_files/15020.got.cif
#   From: 2010.03.12/outbox.cif.g09.slc.cpg/sg70_8_cif.got.tgz:15020.got - 2010.04.16 13:46:32.
