data_PCOD8286267
_publ_section_title
;
Structure prediction by ZEFSAII (Michael W. Deem and Ramdas Pophale) SiO2 
 PCOD8286267
Probable space group: F D D D
;
_chemical_formula_sum "Si O2"
_cell_formula_units_Z 160
_cell_length_a 21.867487
_cell_length_b 16.226519
_cell_length_c 20.568872
_cell_angle_alpha 90.000000
_cell_angle_beta 90.000000
_cell_angle_gamma 90.000000
_cell_volume 7298.518534
_symmetry_space_group_name_H-M "F D D D"
_symmetry_group_IT_number 70
_space_group.IT_coordinate_system_code '2'
_symmetry_cell_setting 'orthorhombic'
loop_
_space_group_symop_operation_xyz
x,y,z
1/4-x,1/4-y,z
x,1/4-y,1/4-z
1/4-x,y,1/4-z
-x,-y,-z
3/4+x,3/4+y,-z
-x,3/4+y,3/4+z
3/4+x,-y,3/4+z
x,1/2+y,1/2+z
1/4-x,3/4-y,1/2+z
x,3/4-y,3/4-z
1/4-x,1/2+y,3/4-z
-x,1/2-y,1/2-z
3/4+x,1/4+y,1/2-z
-x,1/4+y,1/4+z
3/4+x,1/2-y,1/4+z
1/2+x,y,1/2+z
3/4-x,1/4-y,1/2+z
1/2+x,1/4-y,3/4-z
3/4-x,y,3/4-z
1/2-x,-y,1/2-z
1/4+x,3/4+y,1/2-z
1/2-x,3/4+y,1/4+z
1/4+x,-y,1/4+z
1/2+x,1/2+y,z
3/4-x,3/4-y,z
1/2+x,3/4-y,1/4-z
3/4-x,1/2+y,1/4-z
1/2-x,1/2-y,-z
1/4+x,1/4+y,-z
1/2-x,1/4+y,3/4+z
1/4+x,1/2-y,3/4+z
loop_
_atom_site_type_symbol
_atom_site_label
_atom_site_fract_x
_atom_site_fract_y
_atom_site_fract_z
Si Si1 0.125000 0.428215 0.625000
Si Si2 0.877001 0.748047 0.079259
Si Si3 0.690764 0.888912 0.243197
Si Si4 0.072066 0.068141 0.450957
Si Si5 0.214865 0.375000 0.875000
Si Si6 0.571643 0.683613 0.202801
O O1 0.096300 0.368240 0.677255
O O2 0.177395 0.484134 0.658912
O O3 0.918914 0.809984 0.122160
O O4 0.829976 0.703693 0.129287
O O5 0.922519 0.684515 0.042570
O O6 0.833598 0.796508 0.028342
O O7 0.761413 0.884676 0.223131
O O8 0.674164 0.976138 0.272827
O O9 0.125000 0.125000 0.480885
O O10 0.257393 0.385433 0.810174
O O11 0.625000 0.625000 0.177469
#
# Coordination Sequence:
#
# PCOD8286267 Si02
#       6
#    16  32  32  32  16  32
#     4  10  21  40  65  92 130 172 208 268 331 388
#     4  11  24  42  66 100 132 173 217 269 331 388
#     4  10  24  44  64  94 133 165 222 272 320 391
#     4  11  24  44  67  93 127 174 221 273 324 386
#     4  12  21  40  66  98 137 172 214 260 330 394
#     4  11  22  41  62 100 139 169 215 269 323 398
#
# _framework density 21.922256999999998
#
# number of rings (size 3 to 8) (size 9 to 14) (size 15 to 20)
#    0.000    1.200    4.000    1.200    2.800    1.600 
#    7.200    2.500    0.000    0.000    0.000    0.000 
#    0.000    0.000    0.000    0.000    0.000    0.000 
#
# Total GULP energy -495703.513194 kJ/mol
# GULP energy per Si atom -12392.587830 kJ/mol
# Density = 2.187236 g / cm^3
# Si number density = 21.922257 Si / 1000 Ang^3
#
#
#
# Elastic Constant Matrix: (Units=GPa)
#
#
# Indices 1 2 3 4 5 6 
#
# 1 146.2689 46.4586 60.5669 0.0000 0.0000 0.0000
# 2 46.4586 44.1361 35.5958 0.0000 0.0000 0.0000
# 3 60.5669 35.5958 114.2160 0.0000 0.0000 0.0000
# 4 0.0000 0.0000 0.0000 12.5438 0.0000 0.0000
# 5 0.0000 0.0000 0.0000 0.0000 18.9129 0.0000
# 6 0.0000 0.0000 0.0000 0.0000 0.0000 24.9165
#
#
#
# Elastic Compliance Matrix: (Units=1/GPa)
#
#
# Indices 1 2 3 4 5 6 
#
# 1 0.010974 -0.009161 -0.002964 0.000000 0.000000 0.000000
# 2 -0.009161 0.037911 -0.006957 0.000000 0.000000 0.000000
# 3 -0.002964 -0.006957 0.012496 0.000000 0.000000 0.000000
# 4 0.000000 0.000000 0.000000 0.079720 0.000000 0.000000
# 5 0.000000 0.000000 0.000000 0.000000 0.052874 0.000000
# 6 0.000000 0.000000 0.000000 0.000000 0.000000 0.040134
#
#
# Mechanical properties :
#
#
# Convention : Reuss Voigt Hill
#
# Bulk Modulus (GPa) = 43.07412 65.54041 54.30727
# Shear Modulus (GPa) = 17.85639 22.07462 19.96550
#
# Velocity S-wave (km/s) = 2.85710 3.17669 3.02112
# Velocity P-wave (km/s) = 5.52949 6.58914 6.08244
#
# Compressibility (1/GPa) = 0.02321580
#
# Stress axis : x y z
#
# Youngs Moduli (GPa) = 91.12615 26.37762 80.02845
#
# Poissons Ratio (x) = 0.24163 0.23723
# Poissons Ratio (y) = 0.83476 0.55679
# Poissons Ratio (z) = 0.27013 0.18352
#
# Static dielectric constant tensor:
#      x y z
#    x 4.121430 0.000000 0.000000 
#    y 0.000000 4.128130 0.000000 
#    z 0.000000 0.000000 3.997560 
# 
# 
# High freq. dielectric constant tensor:
#      x y z
#    x 1.857360 0.000000 0.000000 
#    y 0.000000 1.869080 0.000000 
#    z 0.000000 0.000000 1.861910 
# 
# From -- ./inp_files/36331.got.cif
#   From: 2010.03.12/outbox.cif.g09.slc.cpg/sg70_19_cif.got.tgz:36331.got - 2010.04.16 13:46:32.
