data_PCOD8286703
_publ_section_title
;
Structure prediction by ZEFSAII (Michael W. Deem and Ramdas Pophale) SiO2 
 PCOD8286703
Probable space group: F D D D
;
_chemical_formula_sum "Si O2"
_cell_formula_units_Z 96
_cell_length_a 27.925043
_cell_length_b 10.202872
_cell_length_c 16.931776
_cell_angle_alpha 90.000000
_cell_angle_beta 90.000000
_cell_angle_gamma 90.000000
_cell_volume 4824.127784
_symmetry_space_group_name_H-M "F D D D"
_symmetry_group_IT_number 70
_space_group.IT_coordinate_system_code '2'
_symmetry_cell_setting 'orthorhombic'
loop_
_space_group_symop_operation_xyz
x,y,z
1/4-x,1/4-y,z
x,1/4-y,1/4-z
1/4-x,y,1/4-z
-x,-y,-z
3/4+x,3/4+y,-z
-x,3/4+y,3/4+z
3/4+x,-y,3/4+z
x,1/2+y,1/2+z
1/4-x,3/4-y,1/2+z
x,3/4-y,3/4-z
1/4-x,1/2+y,3/4-z
-x,1/2-y,1/2-z
3/4+x,1/4+y,1/2-z
-x,1/4+y,1/4+z
3/4+x,1/2-y,1/4+z
1/2+x,y,1/2+z
3/4-x,1/4-y,1/2+z
1/2+x,1/4-y,3/4-z
3/4-x,y,3/4-z
1/2-x,-y,1/2-z
1/4+x,3/4+y,1/2-z
1/2-x,3/4+y,1/4+z
1/4+x,-y,1/4+z
1/2+x,1/2+y,z
3/4-x,3/4-y,z
1/2+x,3/4-y,1/4-z
3/4-x,1/2+y,1/4-z
1/2-x,1/2-y,-z
1/4+x,1/4+y,-z
1/2-x,1/4+y,3/4+z
1/4+x,1/2-y,3/4+z
loop_
_atom_site_type_symbol
_atom_site_label
_atom_site_fract_x
_atom_site_fract_y
_atom_site_fract_z
Si Si1 0.031146 0.381271 0.467765
Si Si2 0.229234 0.865983 0.782193
Si Si3 0.871381 0.026808 0.967881
O O1 0.021971 0.375000 0.375000
O O2 0.086789 0.398129 0.486549
O O3 0.000000 0.500000 0.500000
O O4 0.015732 0.248073 0.509537
O O5 0.223128 0.875000 0.875000
O O6 0.178069 0.838883 0.744355
O O7 0.250000 0.000000 0.750000
O O8 0.875000 0.047297 0.875000
O O9 0.875000 0.875000 0.991343
#
# Coordination Sequence:
#
# PCOD8286703 Si02
#       3
#    32  32  32
#     4  12  24  44  71  98 131 180 227 267 330 406
#     4  12  26  44  66 101 138 169 217 282 337 382
#     4  11  23  42  70  99 130 175 228 272 324 400
#
# _framework density 19.899971000000001
#
# number of rings (size 3 to 8) (size 9 to 14) (size 15 to 20)
#    0.000    0.333    3.333    7.000    0.000    1.333 
#    0.000    3.333    0.000    0.000    0.000    0.000 
#    0.000    0.000    0.000    0.000    0.000    0.000 
#
# Total GULP energy -297784.914256 kJ/mol
# GULP energy per Si atom -12407.704761 kJ/mol
# Density = 1.985468 g / cm^3
# Si number density = 19.899971 Si / 1000 Ang^3
#
#
#
# Elastic Constant Matrix: (Units=GPa)
#
#
# Indices 1 2 3 4 5 6 
#
# 1 170.8321 86.3148 65.7536 0.0000 0.0000 0.0000
# 2 86.3148 176.5961 69.5365 0.0000 0.0000 0.0000
# 3 65.7536 69.5365 141.1730 0.0000 0.0000 0.0000
# 4 0.0000 0.0000 0.0000 35.8654 0.0000 0.0000
# 5 0.0000 0.0000 0.0000 0.0000 37.8927 0.0000
# 6 0.0000 0.0000 0.0000 0.0000 0.0000 47.4795
#
#
#
# Elastic Compliance Matrix: (Units=1/GPa)
#
#
# Indices 1 2 3 4 5 6 
#
# 1 0.008349 -0.003163 -0.002331 0.000000 0.000000 0.000000
# 2 -0.003163 0.008223 -0.002577 0.000000 0.000000 0.000000
# 3 -0.002331 -0.002577 0.009439 0.000000 0.000000 0.000000
# 4 0.000000 0.000000 0.000000 0.027882 0.000000 0.000000
# 5 0.000000 0.000000 0.000000 0.000000 0.026390 0.000000
# 6 0.000000 0.000000 0.000000 0.000000 0.000000 0.021062
#
#
# Mechanical properties :
#
#
# Convention : Reuss Voigt Hill
#
# Bulk Modulus (GPa) = 101.32821 103.53456 102.43138
# Shear Modulus (GPa) = 41.39871 42.04726 41.72299
#
# Velocity S-wave (km/s) = 4.56602 4.60165 4.58387
# Velocity P-wave (km/s) = 8.87848 8.96516 8.92192
#
# Compressibility (1/GPa) = 0.00986892
#
# Stress axis : x y z
#
# Youngs Moduli (GPa) = 119.77616 121.60323 105.94823
#
# Poissons Ratio (x) = 0.38463 0.24693
# Poissons Ratio (y) = 0.37885 0.27307
# Poissons Ratio (z) = 0.27916 0.31342
#
# Static dielectric constant tensor:
#      x y z
#    x 3.828850 0.000000 0.000000 
#    y 0.000000 3.653630 0.000000 
#    z 0.000000 0.000000 3.680230 
# 
# 
# High freq. dielectric constant tensor:
#      x y z
#    x 1.796440 0.000000 0.000000 
#    y 0.000000 1.788550 0.000000 
#    z 0.000000 0.000000 1.797810 
# 
# From -- ./inp_files/15818.got.cif
#   From: 2010.03.12/outbox.cif.g09.slc.cpg/sg70_8_cif.got.tgz:15818.got - 2010.04.16 13:46:32.
