data_PCOD8286438
_publ_section_title
;
Structure prediction by ZEFSAII (Michael W. Deem and Ramdas Pophale) SiO2 
 PCOD8286438
Probable space group: F D D D
;
_chemical_formula_sum "Si O2"
_cell_formula_units_Z 160
_cell_length_a 15.563945
_cell_length_b 29.895549
_cell_length_c 16.481519
_cell_angle_alpha 90.000000
_cell_angle_beta 90.000000
_cell_angle_gamma 90.000000
_cell_volume 7668.730152
_symmetry_space_group_name_H-M "F D D D"
_symmetry_group_IT_number 70
_space_group.IT_coordinate_system_code '2'
_symmetry_cell_setting 'orthorhombic'
loop_
_space_group_symop_operation_xyz
x,y,z
1/4-x,1/4-y,z
x,1/4-y,1/4-z
1/4-x,y,1/4-z
-x,-y,-z
3/4+x,3/4+y,-z
-x,3/4+y,3/4+z
3/4+x,-y,3/4+z
x,1/2+y,1/2+z
1/4-x,3/4-y,1/2+z
x,3/4-y,3/4-z
1/4-x,1/2+y,3/4-z
-x,1/2-y,1/2-z
3/4+x,1/4+y,1/2-z
-x,1/4+y,1/4+z
3/4+x,1/2-y,1/4+z
1/2+x,y,1/2+z
3/4-x,1/4-y,1/2+z
1/2+x,1/4-y,3/4-z
3/4-x,y,3/4-z
1/2-x,-y,1/2-z
1/4+x,3/4+y,1/2-z
1/2-x,3/4+y,1/4+z
1/4+x,-y,1/4+z
1/2+x,1/2+y,z
3/4-x,3/4-y,z
1/2+x,3/4-y,1/4-z
3/4-x,1/2+y,1/4-z
1/2-x,1/2-y,-z
1/4+x,1/4+y,-z
1/2-x,1/4+y,3/4+z
1/4+x,1/2-y,3/4+z
loop_
_atom_site_type_symbol
_atom_site_label
_atom_site_fract_x
_atom_site_fract_y
_atom_site_fract_z
Si Si1 0.487162 0.625000 0.125000
Si Si2 0.125000 0.125000 0.987840
Si Si3 0.847021 0.055050 0.109762
Si Si4 0.950326 0.406517 0.971131
Si Si5 0.553635 0.834839 0.061733
Si Si6 0.365355 0.453051 0.612190
O O1 0.543453 0.634895 0.204778
O O2 0.427301 0.582339 0.146615
O O3 0.145547 0.082007 0.931512
O O4 0.757470 0.073392 0.147922
O O5 0.856837 0.002713 0.118480
O O6 0.847561 0.061706 0.014225
O O7 0.875000 0.375000 0.934814
O O8 0.907091 0.445307 0.023885
O O9 0.007706 0.380211 0.035637
O O10 0.625000 0.849315 0.125000
O O11 0.487430 0.800547 0.103945
#
# Coordination Sequence:
#
# PCOD8286438 Si02
#       6
#    16  16  32  32  32  32
#     4  11  26  42  71  96 136 180 227 274 342 411
#     4  11  24  48  66  95 140 182 218 285 342 412
#     4  12  25  43  69 103 134 175 234 283 338 415
#     4  10  22  45  70  96 137 181 225 283 347 399
#     4  11  23  42  68  96 133 180 220 281 344 407
#     4  11  25  43  69  99 134 176 230 279 349 405
#
# _framework density 20.863949999999999
#
# number of rings (size 3 to 8) (size 9 to 14) (size 15 to 20)
#    0.000    1.000    5.000    1.800    2.800    8.800 
#    0.000    0.000    0.000    0.000    0.000    0.000 
#    0.000    0.000    0.000    0.000    0.000    0.000 
#
# Total GULP energy -495956.548826 kJ/mol
# GULP energy per Si atom -12398.913721 kJ/mol
# Density = 2.081646 g / cm^3
# Si number density = 20.863950 Si / 1000 Ang^3
#
#
#
# Elastic Constant Matrix: (Units=GPa)
#
#
# Indices 1 2 3 4 5 6 
#
# 1 115.7143 45.2489 50.1549 0.0000 0.0000 0.0000
# 2 45.2489 144.0104 31.5628 0.0000 0.0000 0.0000
# 3 50.1549 31.5628 113.4503 0.0000 0.0000 0.0000
# 4 0.0000 0.0000 0.0000 7.5021 0.0000 0.0000
# 5 0.0000 0.0000 0.0000 0.0000 44.6250 0.0000
# 6 0.0000 0.0000 0.0000 0.0000 0.0000 30.0341
#
#
#
# Elastic Compliance Matrix: (Units=1/GPa)
#
#
# Indices 1 2 3 4 5 6 
#
# 1 0.011588 -0.002682 -0.004377 0.000000 0.000000 0.000000
# 2 -0.002682 0.008015 -0.001044 0.000000 0.000000 0.000000
# 3 -0.004377 -0.001044 0.011040 0.000000 0.000000 0.000000
# 4 0.000000 0.000000 0.000000 0.133296 0.000000 0.000000
# 5 0.000000 0.000000 0.000000 0.000000 0.022409 0.000000
# 6 0.000000 0.000000 0.000000 0.000000 0.000000 0.033295
#
#
# Mechanical properties :
#
#
# Convention : Reuss Voigt Hill
#
# Bulk Modulus (GPa) = 69.26456 69.67869 69.47163
# Shear Modulus (GPa) = 20.77612 32.84615 26.81113
#
# Velocity S-wave (km/s) = 3.15904 3.97205 3.58864
# Velocity P-wave (km/s) = 6.82468 7.38278 7.10921
#
# Compressibility (1/GPa) = 0.01443740
#
# Stress axis : x y z
#
# Youngs Moduli (GPa) = 86.29893 124.75913 90.58080
#
# Poissons Ratio (x) = 0.33456 0.39644
# Poissons Ratio (y) = 0.23142 0.09461
# Poissons Ratio (z) = 0.37770 0.13030
#
# Static dielectric constant tensor:
#      x y z
#    x 4.126480 0.000000 0.000000 
#    y 0.000000 3.691670 0.000000 
#    z 0.000000 0.000000 3.947930 
# 
# 
# High freq. dielectric constant tensor:
#      x y z
#    x 1.831030 0.000000 0.000000 
#    y 0.000000 1.798850 0.000000 
#    z 0.000000 0.000000 1.837220 
# 
# From -- ./inp_files/34017.got.cif
#   From: 2010.03.12/outbox.cif.g09.slc.cpg/sg70_18_cif.got.tgz:34017.got - 2010.04.16 13:46:32.
