data_PCOD8286931
_publ_section_title
;
Structure prediction by ZEFSAII (Michael W. Deem and Ramdas Pophale) SiO2 
 PCOD8286931
Probable space group: I M M M
;
_chemical_formula_sum "Si O2"
_cell_formula_units_Z 92
_cell_length_a 18.930019
_cell_length_b 19.423733
_cell_length_c 16.750553
_cell_angle_alpha 90.000000
_cell_angle_beta 90.000000
_cell_angle_gamma 90.000000
_cell_volume 6159.038215
_symmetry_space_group_name_H-M "I M M M"
_symmetry_group_IT_number 71
_symmetry_cell_setting 'orthorhombic'
loop_
_space_group_symop_operation_xyz
x,y,z
-x,-y,z
x,-y,-z
-x,y,-z
-x,-y,-z
x,y,-z
-x,y,z
x,-y,z
1/2+x,1/2+y,1/2+z
1/2-x,1/2-y,1/2+z
1/2+x,1/2-y,1/2-z
1/2-x,1/2+y,1/2-z
1/2-x,1/2-y,1/2-z
1/2+x,1/2+y,1/2-z
1/2-x,1/2+y,1/2+z
1/2+x,1/2-y,1/2+z
loop_
_atom_site_type_symbol
_atom_site_label
_atom_site_fract_x
_atom_site_fract_y
_atom_site_fract_z
Si Si1 0.658001 0.634470 0.593238
Si Si2 0.421168 0.500000 0.405121
Si Si3 0.811753 0.579768 0.407827
Si Si4 0.923891 0.655071 0.000000
Si Si5 0.601217 0.000000 0.500000
Si Si6 0.083121 0.734393 0.849167
Si Si7 0.918557 0.373601 0.280165
Si Si8 0.416456 0.000000 0.331359
O O1 0.641069 0.648425 0.500000
O O2 0.618058 0.567486 0.626187
O O3 0.740548 0.622297 0.607541
O O4 0.630073 0.697189 0.646570
O O5 0.500000 0.500000 0.370816
O O6 0.419431 0.500000 0.500000
O O7 0.833569 0.583109 0.500000
O O8 0.802603 0.500000 0.381605
O O9 0.872570 0.618642 0.359350
O O10 0.887810 0.682830 0.918759
O O11 0.937875 0.573480 0.000000
O O12 0.000000 0.690866 0.000000
O O13 0.635363 0.000000 0.589223
O O14 0.096608 0.698860 0.763419
O O15 0.000000 0.751761 0.858037
O O16 0.897810 0.433253 0.218806
O O17 0.000000 0.380411 0.305786
O O18 0.500000 0.000000 0.357647
#
# Coordination Sequence:
#
# PCOD8286931 Si02
#       8
#    16   8  16   8   4  16  16   8
#     4  10  18  30  46  66  94 125 156 188 226 280
#     4   9  16  25  42  67  90 119 155 188 223 264
#     4  10  20  34  50  66  88 121 160 201 241 276
#     4  10  17  24  38  63  92 123 148 172 214 264
#     4  12  17  24  42  64  92 122 154 182 217 268
#     4  10  19  29  44  68  97 124 149 183 225 274
#     4  10  20  32  46  67  91 118 156 196 234 275
#     4  10  17  25  40  62  89 116 142 179 220 265
#
# _framework density 14.937397000000001
#
# number of rings (size 3 to 8) (size 9 to 14) (size 15 to 20)
#    0.000    2.000    4.348    1.304    0.000    1.739 
#    0.000    0.870    0.000    0.000    0.000    0.000 
#    0.000    0.000    0.000    0.000    0.000    8.696 
#
# Total GULP energy -569880.053972 kJ/mol
# GULP energy per Si atom -12388.696825 kJ/mol
# Density = 1.490340 g / cm^3
# Si number density = 14.937397 Si / 1000 Ang^3
#
#
#
# Elastic Constant Matrix: (Units=GPa)
#
#
# Indices 1 2 3 4 5 6 
#
# 1 72.9060 45.9026 47.1503 0.0000 0.0000 0.0000
# 2 45.9026 110.2413 40.8135 0.0000 0.0000 0.0000
# 3 47.1503 40.8135 66.8708 0.0000 0.0000 0.0000
# 4 0.0000 0.0000 0.0000 10.6123 0.0000 0.0000
# 5 0.0000 0.0000 0.0000 0.0000 18.2521 0.0000
# 6 0.0000 0.0000 0.0000 0.0000 0.0000 21.4436
#
#
#
# Elastic Compliance Matrix: (Units=1/GPa)
#
#
# Indices 1 2 3 4 5 6 
#
# 1 0.027606 -0.005540 -0.016084 0.000000 0.000000 0.000000
# 2 -0.005540 0.012831 -0.003925 0.000000 0.000000 0.000000
# 3 -0.016084 -0.003925 0.028690 0.000000 0.000000 0.000000
# 4 0.000000 0.000000 0.000000 0.094230 0.000000 0.000000
# 5 0.000000 0.000000 0.000000 0.000000 0.054788 0.000000
# 6 0.000000 0.000000 0.000000 0.000000 0.000000 0.046634
#
#
# Mechanical properties :
#
#
# Convention : Reuss Voigt Hill
#
# Bulk Modulus (GPa) = 55.46308 57.52787 56.49547
# Shear Modulus (GPa) = 15.53343 17.80506 16.66924
#
# Velocity S-wave (km/s) = 3.22825 3.45625 3.34419
# Velocity P-wave (km/s) = 7.14888 7.38402 7.26740
#
# Compressibility (1/GPa) = 0.01803001
#
# Stress axis : x y z
#
# Youngs Moduli (GPa) = 36.22366 77.93693 34.85522
#
# Poissons Ratio (x) = 0.43179 0.56060
# Poissons Ratio (y) = 0.20069 0.13680
# Poissons Ratio (z) = 0.58261 0.30588
#
# Static dielectric constant tensor:
#      x y z
#    x 2.634470 0.000000 0.000000 
#    y 0.000000 2.936460 0.000000 
#    z 0.000000 0.000000 2.770450 
# 
# 
# High freq. dielectric constant tensor:
#      x y z
#    x 1.539180 0.000000 0.000000 
#    y 0.000000 1.578190 0.000000 
#    z 0.000000 0.000000 1.551130 
# 
# From -- ./inp_files/38291.got.cif
#   From: 2010.06.25/outbox.cif.g09.slc.cpg/sg71_20_cif.got.tgz:38291.got - 2010.06.28 04:59:45.
