data_PCOD8286181
_publ_section_title
;
Structure prediction by ZEFSAII (Michael W. Deem and Ramdas Pophale) SiO2 
 PCOD8286181
Probable space group: F D D D
;
_chemical_formula_sum "Si O2"
_cell_formula_units_Z 112
_cell_length_a 26.511485
_cell_length_b 16.661275
_cell_length_c 11.331744
_cell_angle_alpha 90.000000
_cell_angle_beta 90.000000
_cell_angle_gamma 90.000000
_cell_volume 5005.402913
_symmetry_space_group_name_H-M "F D D D"
_symmetry_group_IT_number 70
_space_group.IT_coordinate_system_code '2'
_symmetry_cell_setting 'orthorhombic'
loop_
_space_group_symop_operation_xyz
x,y,z
1/4-x,1/4-y,z
x,1/4-y,1/4-z
1/4-x,y,1/4-z
-x,-y,-z
3/4+x,3/4+y,-z
-x,3/4+y,3/4+z
3/4+x,-y,3/4+z
x,1/2+y,1/2+z
1/4-x,3/4-y,1/2+z
x,3/4-y,3/4-z
1/4-x,1/2+y,3/4-z
-x,1/2-y,1/2-z
3/4+x,1/4+y,1/2-z
-x,1/4+y,1/4+z
3/4+x,1/2-y,1/4+z
1/2+x,y,1/2+z
3/4-x,1/4-y,1/2+z
1/2+x,1/4-y,3/4-z
3/4-x,y,3/4-z
1/2-x,-y,1/2-z
1/4+x,3/4+y,1/2-z
1/2-x,3/4+y,1/4+z
1/4+x,-y,1/4+z
1/2+x,1/2+y,z
3/4-x,3/4-y,z
1/2+x,3/4-y,1/4-z
3/4-x,1/2+y,1/4-z
1/2-x,1/2-y,-z
1/4+x,1/4+y,-z
1/2-x,1/4+y,3/4+z
1/4+x,1/2-y,3/4+z
loop_
_atom_site_type_symbol
_atom_site_label
_atom_site_fract_x
_atom_site_fract_y
_atom_site_fract_z
Si Si1 0.799513 0.313427 0.286472
Si Si2 0.875000 0.693266 0.375000
Si Si3 0.125257 0.286297 0.368468
Si Si4 0.790688 0.668164 0.941215
O O1 0.827785 0.375000 0.375000
O O2 0.840441 0.278442 0.196951
O O3 0.772586 0.243845 0.363794
O O4 0.756618 0.363025 0.220388
O O5 0.881188 0.745164 0.495502
O O6 0.827319 0.634481 0.390090
O O7 0.150705 0.375000 0.375000
O O8 0.070856 0.297843 0.305859
#
# Coordination Sequence:
#
# PCOD8286181 Si02
#       4
#    32  16  32  32
#     4  12  24  41  72 107 133 181 242 285 338 422
#     4  10  20  44  69  93 144 188 216 288 358 400
#     4  10  21  44  69 100 140 187 226 285 357 405
#     4  11  23  44  70 102 140 181 232 288 347 409
#
# _framework density 22.375821999999999
#
# number of rings (size 3 to 8) (size 9 to 14) (size 15 to 20)
#    0.000    1.143    5.714    3.429    0.000    3.429 
#    0.000    0.000    0.000    8.571    0.000    0.000 
#    0.000    0.000    0.000    0.000    0.000    0.000 
#
# Total GULP energy -346897.144098 kJ/mol
# GULP energy per Si atom -12389.183718 kJ/mol
# Density = 2.232489 g / cm^3
# Si number density = 22.375822 Si / 1000 Ang^3
#
#
#
# Elastic Constant Matrix: (Units=GPa)
#
#
# Indices 1 2 3 4 5 6 
#
# 1 58.5409 28.3706 -8.5653 0.0000 0.0000 0.0000
# 2 28.3706 101.9671 24.4790 0.0000 0.0000 0.0000
# 3 -8.5653 24.4790 107.6457 0.0000 0.0000 0.0000
# 4 0.0000 0.0000 0.0000 30.4066 0.0000 0.0000
# 5 0.0000 0.0000 0.0000 0.0000 16.9689 0.0000
# 6 0.0000 0.0000 0.0000 0.0000 0.0000 55.6857
#
#
#
# Elastic Compliance Matrix: (Units=1/GPa)
#
#
# Indices 1 2 3 4 5 6 
#
# 1 0.020694 -0.006508 0.003127 0.000000 0.000000 0.000000
# 2 -0.006508 0.012420 -0.003342 0.000000 0.000000 0.000000
# 3 0.003127 -0.003342 0.010299 0.000000 0.000000 0.000000
# 4 0.000000 0.000000 0.000000 0.032888 0.000000 0.000000
# 5 0.000000 0.000000 0.000000 0.000000 0.058931 0.000000
# 6 0.000000 0.000000 0.000000 0.000000 0.000000 0.017958
#
#
# Mechanical properties :
#
#
# Convention : Reuss Voigt Hill
#
# Bulk Modulus (GPa) = 33.37272 39.63580 36.50426
# Shear Modulus (GPa) = 28.30849 35.53687 31.92268
#
# Velocity S-wave (km/s) = 3.56074 3.98952 3.78121
# Velocity P-wave (km/s) = 5.64377 6.24290 5.95088
#
# Compressibility (1/GPa) = 0.02996459
#
# Stress axis : x y z
#
# Youngs Moduli (GPa) = 48.32405 80.51361 97.10098
#
# Poissons Ratio (x) = 0.52400 -0.30359
# Poissons Ratio (y) = 0.31450 0.32454
# Poissons Ratio (z) = -0.15109 0.26910
#
# Static dielectric constant tensor:
#      x y z
#    x 3.833750 0.000000 0.000000 
#    y 0.000000 4.208360 0.000000 
#    z 0.000000 0.000000 2.093860 
# 
# 
# High freq. dielectric constant tensor:
#      x y z
#    x 1.871560 0.000000 0.000000 
#    y 0.000000 1.869970 0.000000 
#    z 0.000000 0.000000 1.895650 
# 
# From -- ./inp_files/20254.got.cif
#   From: 2010.03.12/outbox.cif.g09.slc.cpg/sg70_11_cif.got.tgz:20254.got - 2010.04.16 13:46:32.
