data_PCOD8286422
_publ_section_title
;
Structure prediction by ZEFSAII (Michael W. Deem and Ramdas Pophale) SiO2 
 PCOD8286422
Probable space group: F D D D
;
_chemical_formula_sum "Si O2"
_cell_formula_units_Z 160
_cell_length_a 28.657153
_cell_length_b 13.915000
_cell_length_c 17.496690
_cell_angle_alpha 90.000000
_cell_angle_beta 90.000000
_cell_angle_gamma 90.000000
_cell_volume 6977.055060
_symmetry_space_group_name_H-M "F D D D"
_symmetry_group_IT_number 70
_space_group.IT_coordinate_system_code '2'
_symmetry_cell_setting 'orthorhombic'
loop_
_space_group_symop_operation_xyz
x,y,z
1/4-x,1/4-y,z
x,1/4-y,1/4-z
1/4-x,y,1/4-z
-x,-y,-z
3/4+x,3/4+y,-z
-x,3/4+y,3/4+z
3/4+x,-y,3/4+z
x,1/2+y,1/2+z
1/4-x,3/4-y,1/2+z
x,3/4-y,3/4-z
1/4-x,1/2+y,3/4-z
-x,1/2-y,1/2-z
3/4+x,1/4+y,1/2-z
-x,1/4+y,1/4+z
3/4+x,1/2-y,1/4+z
1/2+x,y,1/2+z
3/4-x,1/4-y,1/2+z
1/2+x,1/4-y,3/4-z
3/4-x,y,3/4-z
1/2-x,-y,1/2-z
1/4+x,3/4+y,1/2-z
1/2-x,3/4+y,1/4+z
1/4+x,-y,1/4+z
1/2+x,1/2+y,z
3/4-x,3/4-y,z
1/2+x,3/4-y,1/4-z
3/4-x,1/2+y,1/4-z
1/2-x,1/2-y,-z
1/4+x,1/4+y,-z
1/2-x,1/4+y,3/4+z
1/4+x,1/2-y,3/4+z
loop_
_atom_site_type_symbol
_atom_site_label
_atom_site_fract_x
_atom_site_fract_y
_atom_site_fract_z
Si Si1 0.341674 0.106363 0.443230
Si Si2 0.206505 0.732653 0.149158
Si Si3 0.788132 0.821628 0.741926
Si Si4 0.731131 0.875000 0.875000
Si Si5 0.098169 0.974031 0.793572
Si Si6 0.625000 0.125000 0.847630
O O1 0.375000 0.070571 0.375000
O O2 0.314312 0.204251 0.420464
O O3 0.373652 0.127943 0.518468
O O4 0.305866 0.021880 0.462060
O O5 0.219792 0.625000 0.125000
O O6 0.252456 0.788070 0.176934
O O7 0.167913 0.723308 0.215927
O O8 0.763841 0.896155 0.801447
O O9 0.829788 0.882333 0.705453
O O10 0.697308 0.960109 0.902872
O O11 0.132654 0.035447 0.845826
#
# Coordination Sequence:
#
# PCOD8286422 Si02
#       6
#    32  32  32  16  32  16
#     4  10  23  44  69  95 132 175 226 271 331 401
#     4  10  23  42  69  99 130 169 217 277 337 392
#     4  11  27  40  66  97 130 182 219 277 327 394
#     4  10  24  45  64  90 132 172 224 271 328 384
#     4  10  22  44  65  96 128 174 213 277 330 398
#     4  12  26  39  67  98 134 176 222 268 342 400
#
# _framework density 22.932312
#
# number of rings (size 3 to 8) (size 9 to 14) (size 15 to 20)
#    0.000    1.600    0.000    2.400   11.200    4.400 
#    0.000    0.000    0.000    0.000    0.000    0.000 
#    0.000    0.000    0.000    0.000    0.000    0.000 
#
# Total GULP energy -495855.273878 kJ/mol
# GULP energy per Si atom -12396.381847 kJ/mol
# Density = 2.288012 g / cm^3
# Si number density = 22.932312 Si / 1000 Ang^3
#
#
#
# Elastic Constant Matrix: (Units=GPa)
#
#
# Indices 1 2 3 4 5 6 
#
# 1 108.2973 9.1298 47.5567 0.0000 0.0000 0.0000
# 2 9.1298 49.4549 41.0743 0.0000 0.0000 0.0000
# 3 47.5567 41.0743 110.2881 0.0000 0.0000 0.0000
# 4 0.0000 0.0000 0.0000 38.0402 0.0000 0.0000
# 5 0.0000 0.0000 0.0000 0.0000 36.6557 0.0000
# 6 0.0000 0.0000 0.0000 0.0000 0.0000 26.4030
#
#
#
# Elastic Compliance Matrix: (Units=1/GPa)
#
#
# Indices 1 2 3 4 5 6 
#
# 1 0.011678 0.002934 -0.006128 0.000000 0.000000 0.000000
# 2 0.002934 0.030013 -0.012443 0.000000 0.000000 0.000000
# 3 -0.006128 -0.012443 0.016344 0.000000 0.000000 0.000000
# 4 0.000000 0.000000 0.000000 0.026288 0.000000 0.000000
# 5 0.000000 0.000000 0.000000 0.000000 0.027281 0.000000
# 6 0.000000 0.000000 0.000000 0.000000 0.000000 0.037874
#
#
# Mechanical properties :
#
#
# Convention : Reuss Voigt Hill
#
# Bulk Modulus (GPa) = 37.36887 51.50687 44.43787
# Shear Modulus (GPa) = 26.36136 31.57175 28.96656
#
# Velocity S-wave (km/s) = 3.39415 3.71447 3.55791
# Velocity P-wave (km/s) = 5.62948 6.39574 6.02480
#
# Compressibility (1/GPa) = 0.02676024
#
# Stress axis : x y z
#
# Youngs Moduli (GPa) = 85.63463 33.31883 61.18597
#
# Poissons Ratio (x) = -0.09775 0.37495
# Poissons Ratio (y) = -0.25124 0.76132
# Poissons Ratio (z) = 0.52477 0.41458
#
# Static dielectric constant tensor:
#      x y z
#    x 4.283560 0.000000 0.000000 
#    y 0.000000 3.721080 0.000000 
#    z 0.000000 0.000000 4.355580 
# 
# 
# High freq. dielectric constant tensor:
#      x y z
#    x 1.917440 0.000000 0.000000 
#    y 0.000000 1.878980 0.000000 
#    z 0.000000 0.000000 1.919140 
# 
# From -- ./inp_files/39531.got.cif
#   From: 2010.03.12/outbox.cif.g09.slc.cpg/sg70_20_cif.got.tgz:39531.got - 2010.04.16 13:46:32.
