data_PCOD8286277
_publ_section_title
;
Structure prediction by ZEFSAII (Michael W. Deem and Ramdas Pophale) SiO2 
 PCOD8286277
Probable space group: F D D D
;
_chemical_formula_sum "Si O2"
_cell_formula_units_Z 240
_cell_length_a 27.539156
_cell_length_b 23.042013
_cell_length_c 18.311055
_cell_angle_alpha 90.000000
_cell_angle_beta 90.000000
_cell_angle_gamma 90.000000
_cell_volume 11619.418941
_symmetry_space_group_name_H-M "F D D D"
_symmetry_group_IT_number 70
_space_group.IT_coordinate_system_code '2'
_symmetry_cell_setting 'orthorhombic'
loop_
_space_group_symop_operation_xyz
x,y,z
1/4-x,1/4-y,z
x,1/4-y,1/4-z
1/4-x,y,1/4-z
-x,-y,-z
3/4+x,3/4+y,-z
-x,3/4+y,3/4+z
3/4+x,-y,3/4+z
x,1/2+y,1/2+z
1/4-x,3/4-y,1/2+z
x,3/4-y,3/4-z
1/4-x,1/2+y,3/4-z
-x,1/2-y,1/2-z
3/4+x,1/4+y,1/2-z
-x,1/4+y,1/4+z
3/4+x,1/2-y,1/4+z
1/2+x,y,1/2+z
3/4-x,1/4-y,1/2+z
1/2+x,1/4-y,3/4-z
3/4-x,y,3/4-z
1/2-x,-y,1/2-z
1/4+x,3/4+y,1/2-z
1/2-x,3/4+y,1/4+z
1/4+x,-y,1/4+z
1/2+x,1/2+y,z
3/4-x,3/4-y,z
1/2+x,3/4-y,1/4-z
3/4-x,1/2+y,1/4-z
1/2-x,1/2-y,-z
1/4+x,1/4+y,-z
1/2-x,1/4+y,3/4+z
1/4+x,1/2-y,3/4+z
loop_
_atom_site_type_symbol
_atom_site_label
_atom_site_fract_x
_atom_site_fract_y
_atom_site_fract_z
Si Si1 0.234153 0.413771 0.807453
Si Si2 0.498441 0.777087 0.668823
Si Si3 0.823751 0.811201 0.402364
Si Si4 0.529797 0.896666 0.611474
Si Si5 0.875000 0.718480 0.875000
Si Si6 0.646827 0.687628 0.432812
Si Si7 0.156401 0.679706 0.532981
Si Si8 0.810275 0.471125 0.139647
O O1 0.215506 0.375000 0.875000
O O2 0.224045 0.386705 0.726989
O O3 0.290695 0.426778 0.820164
O O4 0.204251 0.472926 0.813962
O O5 0.500000 0.750000 0.750000
O O6 0.529772 0.729520 0.623518
O O7 0.527234 0.837492 0.657790
O O8 0.443734 0.788320 0.636647
O O9 0.812216 0.875000 0.375000
O O10 0.875000 0.786308 0.375000
O O11 0.828827 0.814489 0.488799
O O12 0.579311 0.926813 0.634534
O O13 0.486824 0.938391 0.640722
O O14 0.870306 0.760775 0.944614
O O15 0.625000 0.625000 0.411140
O O16 0.600763 0.731862 0.423969
O O17 0.125000 0.625000 0.559058
O O18 0.161482 0.678812 0.445853
#
# Coordination Sequence:
#
# PCOD8286277 Si02
#       8
#    32  32  32  32  16  32  32  32
#     4  11  23  44  61  94 137 175 221 276 330 400
#     4  10  24  43  65 100 130 168 226 283 334 411
#     4  10  21  41  67  94 132 170 226 280 332 404
#     4  11  23  41  68  91 135 175 216 274 341 399
#     4  12  21  40  62  98 129 172 214 270 344 388
#     4  11  20  40  67  94 125 175 220 273 339 395
#     4  11  22  38  66  98 126 167 227 272 317 405
#     4  11  22  42  64  92 133 171 218 278 330 398
#
# _framework density 20.655078
#
# number of rings (size 3 to 8) (size 9 to 14) (size 15 to 20)
#    0.000    1.200    5.333    2.200    2.800    1.067 
#    2.400    4.667    0.000    0.000    0.000    0.000 
#    0.000    0.000    0.000    0.000    0.000    0.000 
#
# Total GULP energy -743340.881997 kJ/mol
# GULP energy per Si atom -12389.014700 kJ/mol
# Density = 2.060807 g / cm^3
# Si number density = 20.655078 Si / 1000 Ang^3
#
#
#
# Elastic Constant Matrix: (Units=GPa)
#
#
# Indices 1 2 3 4 5 6 
#
# 1 188.5545 85.2871 33.3904 0.0000 0.0000 0.0000
# 2 85.2871 127.5428 40.7598 0.0000 0.0000 0.0000
# 3 33.3904 40.7598 55.8198 0.0000 0.0000 0.0000
# 4 0.0000 0.0000 0.0000 28.3133 0.0000 0.0000
# 5 0.0000 0.0000 0.0000 0.0000 4.6659 0.0000
# 6 0.0000 0.0000 0.0000 0.0000 0.0000 41.7900
#
#
#
# Elastic Compliance Matrix: (Units=1/GPa)
#
#
# Indices 1 2 3 4 5 6 
#
# 1 0.007654 -0.004768 -0.001097 0.000000 0.000000 0.000000
# 2 -0.004768 0.013197 -0.006784 0.000000 0.000000 0.000000
# 3 -0.001097 -0.006784 0.023525 0.000000 0.000000 0.000000
# 4 0.000000 0.000000 0.000000 0.035319 0.000000 0.000000
# 5 0.000000 0.000000 0.000000 0.000000 0.214320 0.000000
# 6 0.000000 0.000000 0.000000 0.000000 0.000000 0.023929
#
#
# Mechanical properties :
#
#
# Convention : Reuss Voigt Hill
#
# Bulk Modulus (GPa) = 52.41778 76.75465 64.58621
# Shear Modulus (GPa) = 14.30194 29.11915 21.71054
#
# Velocity S-wave (km/s) = 2.63424 3.75878 3.24558
# Velocity P-wave (km/s) = 5.88940 7.48857 6.73661
#
# Compressibility (1/GPa) = 0.01907750
#
# Stress axis : x y z
#
# Youngs Moduli (GPa) = 130.64408 75.77578 42.50779
#
# Poissons Ratio (x) = 0.36128 0.04664
# Poissons Ratio (y) = 0.62288 0.28839
# Poissons Ratio (z) = 0.14335 0.51409
#
# Static dielectric constant tensor:
#      x y z
#    x 7.148890 0.000000 0.000000 
#    y 0.000000 3.868230 0.000000 
#    z 0.000000 0.000000 3.612650 
# 
# 
# High freq. dielectric constant tensor:
#      x y z
#    x 1.824310 0.000000 0.000000 
#    y 0.000000 1.800700 0.000000 
#    z 0.000000 0.000000 1.792430 
# 
# From -- ./inp_files/47204.got.cif
#   From: 2010.03.12/outbox.cif.g09.slc.cpg/sg70_24_cif.got.tgz:47204.got - 2010.04.16 13:46:32.
