data_PCOD8286064
_publ_section_title
;
Structure prediction by ZEFSAII (Michael W. Deem and Ramdas Pophale) SiO2 
 PCOD8286064
Probable space group: F D D D
;
_chemical_formula_sum "Si O2"
_cell_formula_units_Z 176
_cell_length_a 11.769352
_cell_length_b 31.121323
_cell_length_c 22.143491
_cell_angle_alpha 90.000000
_cell_angle_beta 90.000000
_cell_angle_gamma 90.000000
_cell_volume 8110.669281
_symmetry_space_group_name_H-M "F D D D"
_symmetry_group_IT_number 70
_space_group.IT_coordinate_system_code '2'
_symmetry_cell_setting 'orthorhombic'
loop_
_space_group_symop_operation_xyz
x,y,z
1/4-x,1/4-y,z
x,1/4-y,1/4-z
1/4-x,y,1/4-z
-x,-y,-z
3/4+x,3/4+y,-z
-x,3/4+y,3/4+z
3/4+x,-y,3/4+z
x,1/2+y,1/2+z
1/4-x,3/4-y,1/2+z
x,3/4-y,3/4-z
1/4-x,1/2+y,3/4-z
-x,1/2-y,1/2-z
3/4+x,1/4+y,1/2-z
-x,1/4+y,1/4+z
3/4+x,1/2-y,1/4+z
1/2+x,y,1/2+z
3/4-x,1/4-y,1/2+z
1/2+x,1/4-y,3/4-z
3/4-x,y,3/4-z
1/2-x,-y,1/2-z
1/4+x,3/4+y,1/2-z
1/2-x,3/4+y,1/4+z
1/4+x,-y,1/4+z
1/2+x,1/2+y,z
3/4-x,3/4-y,z
1/2+x,3/4-y,1/4-z
3/4-x,1/2+y,1/4-z
1/2-x,1/2-y,-z
1/4+x,1/4+y,-z
1/2-x,1/4+y,3/4+z
1/4+x,1/2-y,3/4+z
loop_
_atom_site_type_symbol
_atom_site_label
_atom_site_fract_x
_atom_site_fract_y
_atom_site_fract_z
Si Si1 0.872357 0.028476 0.184191
Si Si2 0.302850 0.621752 0.193116
Si Si3 0.417679 0.978403 0.241285
Si Si4 0.007907 0.551020 0.884929
Si Si5 0.375000 0.375000 0.211972
Si Si6 0.966109 0.195608 0.191969
O O1 0.815568 0.071724 0.210077
O O2 0.948747 0.038117 0.125781
O O3 0.957064 0.010888 0.234777
O O4 0.773480 0.993669 0.171761
O O5 0.252888 0.625000 0.125000
O O6 0.220291 0.643796 0.242248
O O7 0.423168 0.646520 0.197223
O O8 0.426960 0.953122 0.178402
O O9 0.347478 0.948067 0.287856
O O10 0.356748 0.024265 0.236432
O O11 0.070599 0.588934 0.919943
O O12 0.875000 0.560922 0.875000
#
# Coordination Sequence:
#
# PCOD8286064 Si02
#       6
#    32  32  32  32  16  32
#     4  10  21  39  64  90 120 158 204 257 313 370
#     4  10  22  39  63  92 120 157 205 258 308 367
#     4  10  20  38  61  87 125 165 203 250 309 372
#     4  11  26  42  61  91 125 165 209 259 317 382
#     4  12  25  42  62  86 121 162 204 252 318 386
#     4   9  20  37  60  91 121 158 206 254 306 364
#
# _framework density 21.699812999999999
#
# number of rings (size 3 to 8) (size 9 to 14) (size 15 to 20)
#    0.000    1.818    0.000    3.000    0.000   10.909 
#    0.000    6.364    0.000    0.000    0.000    0.000 
#    0.000    0.000    0.000    0.000    0.000    0.000 
#
# Total GULP energy -545585.744395 kJ/mol
# GULP energy per Si atom -12399.676009 kJ/mol
# Density = 2.165042 g / cm^3
# Si number density = 21.699813 Si / 1000 Ang^3
#
#
#
# Elastic Constant Matrix: (Units=GPa)
#
#
# Indices 1 2 3 4 5 6 
#
# 1 104.2883 48.3732 44.8260 0.0000 0.0000 0.0000
# 2 48.3732 123.0977 37.0670 0.0000 0.0000 0.0000
# 3 44.8260 37.0670 79.4221 0.0000 0.0000 0.0000
# 4 0.0000 0.0000 0.0000 31.2855 0.0000 0.0000
# 5 0.0000 0.0000 0.0000 0.0000 46.5291 0.0000
# 6 0.0000 0.0000 0.0000 0.0000 0.0000 32.1731
#
#
#
# Elastic Compliance Matrix: (Units=1/GPa)
#
#
# Indices 1 2 3 4 5 6 
#
# 1 0.013915 -0.003611 -0.006169 0.000000 0.000000 0.000000
# 2 -0.003611 0.010389 -0.002811 0.000000 0.000000 0.000000
# 3 -0.006169 -0.002811 0.017384 0.000000 0.000000 0.000000
# 4 0.000000 0.000000 0.000000 0.031964 0.000000 0.000000
# 5 0.000000 0.000000 0.000000 0.000000 0.021492 0.000000
# 6 0.000000 0.000000 0.000000 0.000000 0.000000 0.031082
#
#
# Mechanical properties :
#
#
# Convention : Reuss Voigt Hill
#
# Bulk Modulus (GPa) = 60.57552 63.03786 61.80669
# Shear Modulus (GPa) = 31.86579 33.76700 32.81639
#
# Velocity S-wave (km/s) = 3.83624 3.94902 3.89304
# Velocity P-wave (km/s) = 6.89914 7.06442 6.98227
#
# Compressibility (1/GPa) = 0.01650832
#
# Stress axis : x y z
#
# Youngs Moduli (GPa) = 71.86502 96.25709 57.52330
#
# Poissons Ratio (x) = 0.34755 0.35483
# Poissons Ratio (y) = 0.25948 0.16168
# Poissons Ratio (z) = 0.44330 0.27055
#
# Static dielectric constant tensor:
#      x y z
#    x 3.818460 0.000000 0.000000 
#    y 0.000000 3.793360 0.000000 
#    z 0.000000 0.000000 4.116630 
# 
# 
# High freq. dielectric constant tensor:
#      x y z
#    x 1.847500 0.000000 0.000000 
#    y 0.000000 1.841050 0.000000 
#    z 0.000000 0.000000 1.867530 
# 
# From -- ./inp_files/19663.got.cif
#   From: 2010.03.12/outbox.cif.g09.slc.cpg/sg70_10_cif.got.tgz:19663.got - 2010.04.16 13:46:32.
