data_PCOD8286858
_publ_section_title
;
Structure prediction by ZEFSAII (Michael W. Deem and Ramdas Pophale) SiO2 
 PCOD8286858
Probable space group: F D D D
;
_chemical_formula_sum "Si O2"
_cell_formula_units_Z 72
_cell_length_a 4.755972
_cell_length_b 17.914266
_cell_length_c 35.170246
_cell_angle_alpha 90.000000
_cell_angle_beta 90.000000
_cell_angle_gamma 90.000000
_cell_volume 2996.496079
_symmetry_space_group_name_H-M "F D D D"
_symmetry_group_IT_number 70
_space_group.IT_coordinate_system_code '2'
_symmetry_cell_setting 'orthorhombic'
loop_
_space_group_symop_operation_xyz
x,y,z
1/4-x,1/4-y,z
x,1/4-y,1/4-z
1/4-x,y,1/4-z
-x,-y,-z
3/4+x,3/4+y,-z
-x,3/4+y,3/4+z
3/4+x,-y,3/4+z
x,1/2+y,1/2+z
1/4-x,3/4-y,1/2+z
x,3/4-y,3/4-z
1/4-x,1/2+y,3/4-z
-x,1/2-y,1/2-z
3/4+x,1/4+y,1/2-z
-x,1/4+y,1/4+z
3/4+x,1/2-y,1/4+z
1/2+x,y,1/2+z
3/4-x,1/4-y,1/2+z
1/2+x,1/4-y,3/4-z
3/4-x,y,3/4-z
1/2-x,-y,1/2-z
1/4+x,3/4+y,1/2-z
1/2-x,3/4+y,1/4+z
1/4+x,-y,1/4+z
1/2+x,1/2+y,z
3/4-x,3/4-y,z
1/2+x,3/4-y,1/4-z
3/4-x,1/2+y,1/4-z
1/2-x,1/2-y,-z
1/4+x,1/4+y,-z
1/2-x,1/4+y,3/4+z
1/4+x,1/2-y,3/4+z
loop_
_atom_site_type_symbol
_atom_site_label
_atom_site_fract_x
_atom_site_fract_y
_atom_site_fract_z
Si Si1 0.375000 0.875000 0.875000
Si Si2 0.274519 0.498535 0.662090
Si Si3 0.215589 0.208723 0.460606
O O1 0.581149 0.923530 0.848811
O O2 0.511978 0.449890 0.683317
O O3 0.125000 0.459746 0.625000
O O4 0.018514 0.510496 0.690817
O O5 0.125000 0.125000 0.469093
O O6 0.250000 0.250000 0.500000
#
# Coordination Sequence:
#
# PCOD8286858 Si02
#       3
#     8  32  32
#     4  12  26  48  82 116 150 204 256 324 386 472
#     4  12  26  49  79 112 152 203 258 316 385 465
#     4  12  29  50  78 114 158 206 258 324 390 464
#
# _framework density 24.028063
#
# number of rings (size 3 to 8) (size 9 to 14) (size 15 to 20)
#    0.000    0.000    4.444    3.333    3.111    3.556 
#    4.000    0.000    0.000    0.000    0.000    0.000 
#    0.000    0.000    0.000    0.000    0.000    0.000 
#
# Total GULP energy -223058.150965 kJ/mol
# GULP energy per Si atom -12392.119498 kJ/mol
# Density = 2.397337 g / cm^3
# Si number density = 24.028063 Si / 1000 Ang^3
#
#
#
# Elastic Constant Matrix: (Units=GPa)
#
#
# Indices 1 2 3 4 5 6 
#
# 1 206.6647 55.5146 119.1645 0.0000 0.0000 0.0000
# 2 55.5146 96.7291 103.8028 0.0000 0.0000 0.0000
# 3 119.1645 103.8028 206.5228 0.0000 0.0000 0.0000
# 4 0.0000 0.0000 0.0000 7.6721 0.0000 0.0000
# 5 0.0000 0.0000 0.0000 0.0000 60.6117 0.0000
# 6 0.0000 0.0000 0.0000 0.0000 0.0000 49.2152
#
#
#
# Elastic Compliance Matrix: (Units=1/GPa)
#
#
# Indices 1 2 3 4 5 6 
#
# 1 0.007274 0.000715 -0.004557 0.000000 0.000000 0.000000
# 2 0.000715 0.022514 -0.011729 0.000000 0.000000 0.000000
# 3 -0.004557 -0.011729 0.013366 0.000000 0.000000 0.000000
# 4 0.000000 0.000000 0.000000 0.130343 0.000000 0.000000
# 5 0.000000 0.000000 0.000000 0.000000 0.016498 0.000000
# 6 0.000000 0.000000 0.000000 0.000000 0.000000 0.020319
#
#
# Mechanical properties :
#
#
# Convention : Reuss Voigt Hill
#
# Bulk Modulus (GPa) = 83.23518 118.54227 100.88873
# Shear Modulus (GPa) = 20.36990 38.92876 29.64933
#
# Velocity S-wave (km/s) = 2.91478 4.02946 3.51657
# Velocity P-wave (km/s) = 6.78557 8.43153 7.65293
#
# Compressibility (1/GPa) = 0.01201415
#
# Stress axis : x y z
#
# Youngs Moduli (GPa) = 137.47574 44.41645 74.81487
#
# Poissons Ratio (x) = -0.03176 0.34090
# Poissons Ratio (y) = -0.09831 0.87748
# Poissons Ratio (z) = 0.62641 0.52095
#
# Static dielectric constant tensor:
#      x y z
#    x 5.110620 0.000000 0.000000 
#    y 0.000000 3.919620 0.000000 
#    z 0.000000 0.000000 4.537610 
# 
# 
# High freq. dielectric constant tensor:
#      x y z
#    x 1.990500 0.000000 0.000000 
#    y 0.000000 1.933760 0.000000 
#    z 0.000000 0.000000 1.967440 
# 
# From -- ./inp_files/55620.got.cif
#   From: 2010.03.12/outbox.cif.g09.slc.cpg/sg70_28_cif.got.tgz:55620.got - 2010.04.16 13:46:32.
