data_PCOD8286193
_publ_section_title
;
Structure prediction by ZEFSAII (Michael W. Deem and Ramdas Pophale) SiO2 
 PCOD8286193
Probable space group: F D D D
;
_chemical_formula_sum "Si O2"
_cell_formula_units_Z 208
_cell_length_a 29.661843
_cell_length_b 19.152546
_cell_length_c 17.546009
_cell_angle_alpha 90.000000
_cell_angle_beta 90.000000
_cell_angle_gamma 90.000000
_cell_volume 9967.884423
_symmetry_space_group_name_H-M "F D D D"
_symmetry_group_IT_number 70
_space_group.IT_coordinate_system_code '2'
_symmetry_cell_setting 'orthorhombic'
loop_
_space_group_symop_operation_xyz
x,y,z
1/4-x,1/4-y,z
x,1/4-y,1/4-z
1/4-x,y,1/4-z
-x,-y,-z
3/4+x,3/4+y,-z
-x,3/4+y,3/4+z
3/4+x,-y,3/4+z
x,1/2+y,1/2+z
1/4-x,3/4-y,1/2+z
x,3/4-y,3/4-z
1/4-x,1/2+y,3/4-z
-x,1/2-y,1/2-z
3/4+x,1/4+y,1/2-z
-x,1/4+y,1/4+z
3/4+x,1/2-y,1/4+z
1/2+x,y,1/2+z
3/4-x,1/4-y,1/2+z
1/2+x,1/4-y,3/4-z
3/4-x,y,3/4-z
1/2-x,-y,1/2-z
1/4+x,3/4+y,1/2-z
1/2-x,3/4+y,1/4+z
1/4+x,-y,1/4+z
1/2+x,1/2+y,z
3/4-x,3/4-y,z
1/2+x,3/4-y,1/4-z
3/4-x,1/2+y,1/4-z
1/2-x,1/2-y,-z
1/4+x,1/4+y,-z
1/2-x,1/4+y,3/4+z
1/4+x,1/2-y,3/4+z
loop_
_atom_site_type_symbol
_atom_site_label
_atom_site_fract_x
_atom_site_fract_y
_atom_site_fract_z
Si Si1 0.539558 0.281932 0.059022
Si Si2 0.129370 0.543385 0.459603
Si Si3 0.964787 0.584903 0.357548
Si Si4 0.707122 0.815002 0.313490
Si Si5 0.875000 0.375000 0.005482
Si Si6 0.059291 0.222967 0.408088
Si Si7 0.125000 0.021002 0.625000
Si Si8 0.875000 0.007215 0.875000
O O1 0.517358 0.352813 0.088375
O O2 0.507265 0.215610 0.073444
O O3 0.582742 0.277786 0.112438
O O4 0.557458 0.284263 0.971751
O O5 0.125000 0.625000 0.436567
O O6 0.173508 0.501804 0.429481
O O7 0.087485 0.504881 0.416994
O O8 0.129655 0.540713 0.550730
O O9 0.954340 0.602524 0.268920
O O10 0.919357 0.552507 0.391630
O O11 0.007165 0.533856 0.364350
O O12 0.696486 0.875000 0.375000
O O13 0.890570 0.436338 0.949509
O O14 0.917236 0.347028 0.055707
#
# Coordination Sequence:
#
# PCOD8286193 Si02
#       8
#    32  32  32  32  16  32  16  16
#     4  10  21  36  58  86 127 170 206 248 318 385
#     4  11  22  42  66  91 120 164 214 269 322 386
#     4  10  22  41  59  90 128 167 208 265 318 382
#     4  10  24  39  60  95 129 167 214 263 324 384
#     4   9  18  32  50  81 116 150 200 257 288 352
#     4  10  21  36  61  87 118 154 212 254 308 371
#     4   9  19  30  53  79 120 165 207 238 296 370
#     4  10  24  42  65  89 127 157 210 270 331 374
#
# _framework density 20.867016
#
# number of rings (size 3 to 8) (size 9 to 14) (size 15 to 20)
#    0.000    2.000    0.769    1.615    6.462    6.154 
#    0.000    0.000    0.000    1.846    0.000    0.000 
#    0.000    0.000    0.000    0.000    0.000    0.000 
#
# Total GULP energy -644187.018353 kJ/mol
# GULP energy per Si atom -12388.211891 kJ/mol
# Density = 2.081952 g / cm^3
# Si number density = 20.867016 Si / 1000 Ang^3
#
#
#
# Elastic Constant Matrix: (Units=GPa)
#
#
# Indices 1 2 3 4 5 6 
#
# 1 119.0083 17.7227 32.3035 0.0000 0.0000 0.0000
# 2 17.7227 75.0420 36.6602 0.0000 0.0000 0.0000
# 3 32.3035 36.6602 101.5304 0.0000 0.0000 0.0000
# 4 0.0000 0.0000 0.0000 25.0351 0.0000 0.0000
# 5 0.0000 0.0000 0.0000 0.0000 36.9221 0.0000
# 6 0.0000 0.0000 0.0000 0.0000 0.0000 21.4109
#
#
#
# Elastic Compliance Matrix: (Units=1/GPa)
#
#
# Indices 1 2 3 4 5 6 
#
# 1 0.009248 -0.000907 -0.002615 0.000000 0.000000 0.000000
# 2 -0.000907 0.016269 -0.005586 0.000000 0.000000 0.000000
# 3 -0.002615 -0.005586 0.012698 0.000000 0.000000 0.000000
# 4 0.000000 0.000000 0.000000 0.039944 0.000000 0.000000
# 5 0.000000 0.000000 0.000000 0.000000 0.027084 0.000000
# 6 0.000000 0.000000 0.000000 0.000000 0.000000 0.046705
#
#
# Mechanical properties :
#
#
# Convention : Reuss Voigt Hill
#
# Bulk Modulus (GPa) = 50.00020 52.10593 51.05307
# Shear Modulus (GPa) = 28.27590 30.59990 29.43790
#
# Velocity S-wave (km/s) = 3.68510 3.83355 3.76005
# Velocity P-wave (km/s) = 6.48999 6.67978 6.58557
#
# Compressibility (1/GPa) = 0.01999992
#
# Stress axis : x y z
#
# Youngs Moduli (GPa) = 108.13654 61.46724 78.75151
#
# Poissons Ratio (x) = 0.05572 0.20593
# Poissons Ratio (y) = 0.09803 0.43989
# Poissons Ratio (z) = 0.28277 0.34335
#
# Static dielectric constant tensor:
#      x y z
#    x 3.863020 0.000000 0.000000 
#    y 0.000000 3.385210 0.000000 
#    z 0.000000 0.000000 4.015050 
# 
# 
# High freq. dielectric constant tensor:
#      x y z
#    x 1.826870 0.000000 0.000000 
#    y 0.000000 1.783540 0.000000 
#    z 0.000000 0.000000 1.827530 
# 
# From -- ./inp_files/38775.got.cif
#   From: 2010.03.12/outbox.cif.g09.slc.cpg/sg70_20_cif.got.tgz:38775.got - 2010.04.16 13:46:32.
