data_PCOD8286223
_publ_section_title
;
Structure prediction by ZEFSAII (Michael W. Deem and Ramdas Pophale) SiO2 
 PCOD8286223
Probable space group: F D D D
;
_chemical_formula_sum "Si O2"
_cell_formula_units_Z 176
_cell_length_a 29.112997
_cell_length_b 16.711347
_cell_length_c 18.527308
_cell_angle_alpha 90.000000
_cell_angle_beta 90.000000
_cell_angle_gamma 90.000000
_cell_volume 9013.857626
_symmetry_space_group_name_H-M "F D D D"
_symmetry_group_IT_number 70
_space_group.IT_coordinate_system_code '2'
_symmetry_cell_setting 'orthorhombic'
loop_
_space_group_symop_operation_xyz
x,y,z
1/4-x,1/4-y,z
x,1/4-y,1/4-z
1/4-x,y,1/4-z
-x,-y,-z
3/4+x,3/4+y,-z
-x,3/4+y,3/4+z
3/4+x,-y,3/4+z
x,1/2+y,1/2+z
1/4-x,3/4-y,1/2+z
x,3/4-y,3/4-z
1/4-x,1/2+y,3/4-z
-x,1/2-y,1/2-z
3/4+x,1/4+y,1/2-z
-x,1/4+y,1/4+z
3/4+x,1/2-y,1/4+z
1/2+x,y,1/2+z
3/4-x,1/4-y,1/2+z
1/2+x,1/4-y,3/4-z
3/4-x,y,3/4-z
1/2-x,-y,1/2-z
1/4+x,3/4+y,1/2-z
1/2-x,3/4+y,1/4+z
1/4+x,-y,1/4+z
1/2+x,1/2+y,z
3/4-x,3/4-y,z
1/2+x,3/4-y,1/4-z
3/4-x,1/2+y,1/4-z
1/2-x,1/2-y,-z
1/4+x,1/4+y,-z
1/2-x,1/4+y,3/4+z
1/4+x,1/2-y,3/4+z
loop_
_atom_site_type_symbol
_atom_site_label
_atom_site_fract_x
_atom_site_fract_y
_atom_site_fract_z
Si Si1 0.781977 0.575330 0.551920
Si Si2 0.375000 0.508796 0.875000
Si Si3 0.625000 0.625000 0.468657
Si Si4 0.804175 0.906709 0.099457
Si Si5 0.431857 0.296797 0.422935
Si Si6 0.700980 0.882984 0.146159
Si Si7 0.375000 0.375000 0.759657
O O1 0.785357 0.625000 0.625000
O O2 0.809836 0.494773 0.565754
O O3 0.729914 0.549854 0.535139
O O4 0.799979 0.625186 0.483172
O O5 0.420143 0.562991 0.888570
O O6 0.384634 0.453490 0.806416
O O7 0.581621 0.593368 0.424226
O O8 0.608366 0.700590 0.517307
O O9 0.752250 0.877160 0.112872
O O10 0.830773 0.852579 0.040376
O O11 0.425915 0.375000 0.375000
O O12 0.428266 0.217983 0.373553
#
# Coordination Sequence:
#
# PCOD8286223 Si02
#       7
#    32  16  16  32  32  32  16
#     4  10  21  38  60  88 124 166 208 252 308 367
#     4  11  24  40  71  90 124 154 213 258 310 369
#     4  11  21  37  59  93 123 174 198 262 313 375
#     4  10  22  40  66  85 131 161 209 252 317 371
#     4  10  23  35  58  89 127 165 204 252 308 371
#     4  11  23  41  62  93 123 167 209 260 302 379
#     4  10  22  45  65  96 116 162 200 264 320 364
#
# _framework density 19.525492
#
# number of rings (size 3 to 8) (size 9 to 14) (size 15 to 20)
#    0.000    1.636    3.636    0.273    5.091    2.909 
#    0.000    0.000    0.000    0.000    0.000    0.000 
#    0.000    0.000    0.000    0.000    0.000    0.000 
#
# Total GULP energy -545369.254526 kJ/mol
# GULP energy per Si atom -12394.755785 kJ/mol
# Density = 1.948105 g / cm^3
# Si number density = 19.525492 Si / 1000 Ang^3
#
#
#
# Elastic Constant Matrix: (Units=GPa)
#
#
# Indices 1 2 3 4 5 6 
#
# 1 119.4452 50.3540 55.6874 0.0000 0.0000 0.0000
# 2 50.3540 117.1896 55.9125 0.0000 0.0000 0.0000
# 3 55.6874 55.9125 116.8061 0.0000 0.0000 0.0000
# 4 0.0000 0.0000 0.0000 32.7678 0.0000 0.0000
# 5 0.0000 0.0000 0.0000 0.0000 12.1552 0.0000
# 6 0.0000 0.0000 0.0000 0.0000 0.0000 28.6961
#
#
#
# Elastic Compliance Matrix: (Units=1/GPa)
#
#
# Indices 1 2 3 4 5 6 
#
# 1 0.011536 -0.003023 -0.004053 0.000000 0.000000 0.000000
# 2 -0.003023 0.011851 -0.004232 0.000000 0.000000 0.000000
# 3 -0.004053 -0.004232 0.012519 0.000000 0.000000 0.000000
# 4 0.000000 0.000000 0.000000 0.030518 0.000000 0.000000
# 5 0.000000 0.000000 0.000000 0.000000 0.082270 0.000000
# 6 0.000000 0.000000 0.000000 0.000000 0.000000 0.034848
#
#
# Mechanical properties :
#
#
# Convention : Reuss Voigt Hill
#
# Bulk Modulus (GPa) = 75.23819 75.26097 75.24958
# Shear Modulus (GPa) = 23.74325 27.48962 25.61643
#
# Velocity S-wave (km/s) = 3.49092 3.75625 3.62601
# Velocity P-wave (km/s) = 7.40714 7.57900 7.49356
#
# Compressibility (1/GPa) = 0.01329112
#
# Stress axis : x y z
#
# Youngs Moduli (GPa) = 86.68568 84.38027 79.87966
#
# Poissons Ratio (x) = 0.25510 0.32372
# Poissons Ratio (y) = 0.26207 0.33801
# Poissons Ratio (z) = 0.35130 0.35706
#
# Static dielectric constant tensor:
#      x y z
#    x 3.801040 0.000000 0.000000 
#    y 0.000000 3.436960 0.000000 
#    z 0.000000 0.000000 3.633800 
# 
# 
# High freq. dielectric constant tensor:
#      x y z
#    x 1.773360 0.000000 0.000000 
#    y 0.000000 1.746260 0.000000 
#    z 0.000000 0.000000 1.765700 
# 
# From -- ./inp_files/39719.got.cif
#   From: 2010.03.12/outbox.cif.g09.slc.cpg/sg70_20_cif.got.tgz:39719.got - 2010.04.16 13:46:32.
