data_PCOD8286413
_publ_section_title
;
Structure prediction by ZEFSAII (Michael W. Deem and Ramdas Pophale) SiO2 
 PCOD8286413
Probable space group: F D D D
;
_chemical_formula_sum "Si O2"
_cell_formula_units_Z 176
_cell_length_a 11.456202
_cell_length_b 25.328515
_cell_length_c 27.452139
_cell_angle_alpha 90.000000
_cell_angle_beta 90.000000
_cell_angle_gamma 90.000000
_cell_volume 7965.748307
_symmetry_space_group_name_H-M "F D D D"
_symmetry_group_IT_number 70
_space_group.IT_coordinate_system_code '2'
_symmetry_cell_setting 'orthorhombic'
loop_
_space_group_symop_operation_xyz
x,y,z
1/4-x,1/4-y,z
x,1/4-y,1/4-z
1/4-x,y,1/4-z
-x,-y,-z
3/4+x,3/4+y,-z
-x,3/4+y,3/4+z
3/4+x,-y,3/4+z
x,1/2+y,1/2+z
1/4-x,3/4-y,1/2+z
x,3/4-y,3/4-z
1/4-x,1/2+y,3/4-z
-x,1/2-y,1/2-z
3/4+x,1/4+y,1/2-z
-x,1/4+y,1/4+z
3/4+x,1/2-y,1/4+z
1/2+x,y,1/2+z
3/4-x,1/4-y,1/2+z
1/2+x,1/4-y,3/4-z
3/4-x,y,3/4-z
1/2-x,-y,1/2-z
1/4+x,3/4+y,1/2-z
1/2-x,3/4+y,1/4+z
1/4+x,-y,1/4+z
1/2+x,1/2+y,z
3/4-x,3/4-y,z
1/2+x,3/4-y,1/4-z
3/4-x,1/2+y,1/4-z
1/2-x,1/2-y,-z
1/4+x,1/4+y,-z
1/2-x,1/4+y,3/4+z
1/4+x,1/2-y,3/4+z
loop_
_atom_site_type_symbol
_atom_site_label
_atom_site_fract_x
_atom_site_fract_y
_atom_site_fract_z
Si Si1 0.410410 0.125000 0.625000
Si Si2 0.251986 0.118618 0.793445
Si Si3 0.750367 0.726768 0.395938
Si Si4 0.168011 0.981272 0.031712
Si Si5 0.109130 0.803103 0.290135
Si Si6 0.683874 0.975835 0.822375
O O1 0.335668 0.157267 0.585468
O O2 0.479545 0.080569 0.593818
O O3 0.245432 0.086028 0.844174
O O4 0.292442 0.177159 0.806729
O O5 0.338598 0.085897 0.758693
O O6 0.125000 0.125000 0.768596
O O7 0.875000 0.744293 0.375000
O O8 0.732115 0.755554 0.448858
O O9 0.642800 0.741939 0.361210
O O10 0.259718 0.029055 0.038224
O O11 0.146918 0.969033 0.974960
O O12 0.049739 0.993266 0.059786
#
# Coordination Sequence:
#
# PCOD8286413 Si02
#       6
#    16  32  32  32  32  32
#     4  10  22  43  69 100 130 176 241 283 336 404
#     4  12  25  43  70 102 140 183 225 286 366 415
#     4  11  25  42  67 101 140 178 231 290 345 421
#     4  11  24  47  70  98 140 184 232 288 357 427
#     4  11  24  43  71 100 134 182 233 294 343 417
#     4  10  24  46  70 101 137 183 237 290 349 420
#
# _framework density 22.094598000000001
#
# number of rings (size 3 to 8) (size 9 to 14) (size 15 to 20)
#    0.000    1.091    3.636    1.636    2.545    5.818 
#    0.000    5.909    0.000    0.000    0.000    0.000 
#    0.000    0.000    0.000    0.000    0.000    0.000 
#
# Total GULP energy -545325.338897 kJ/mol
# GULP energy per Si atom -12393.757702 kJ/mol
# Density = 2.204431 g / cm^3
# Si number density = 22.094598 Si / 1000 Ang^3
#
#
#
# Elastic Constant Matrix: (Units=GPa)
#
#
# Indices 1 2 3 4 5 6 
#
# 1 118.8608 46.5773 34.6742 0.0000 0.0000 0.0000
# 2 46.5773 140.6500 51.7805 0.0000 0.0000 0.0000
# 3 34.6742 51.7805 89.2686 0.0000 0.0000 0.0000
# 4 0.0000 0.0000 0.0000 39.6940 0.0000 0.0000
# 5 0.0000 0.0000 0.0000 0.0000 26.7693 0.0000
# 6 0.0000 0.0000 0.0000 0.0000 0.0000 29.7419
#
#
#
# Elastic Compliance Matrix: (Units=1/GPa)
#
#
# Indices 1 2 3 4 5 6 
#
# 1 0.010095 -0.002415 -0.002520 0.000000 0.000000 0.000000
# 2 -0.002415 0.009618 -0.004641 0.000000 0.000000 0.000000
# 3 -0.002520 -0.004641 0.014873 0.000000 0.000000 0.000000
# 4 0.000000 0.000000 0.000000 0.025193 0.000000 0.000000
# 5 0.000000 0.000000 0.000000 0.000000 0.037356 0.000000
# 6 0.000000 0.000000 0.000000 0.000000 0.000000 0.033623
#
#
# Mechanical properties :
#
#
# Convention : Reuss Voigt Hill
#
# Bulk Modulus (GPa) = 64.79412 68.31592 66.55502
# Shear Modulus (GPa) = 32.24668 33.62419 32.93543
#
# Velocity S-wave (km/s) = 3.82446 3.90529 3.86509
# Velocity P-wave (km/s) = 6.99224 7.16393 7.07861
#
# Compressibility (1/GPa) = 0.01543350
#
# Stress axis : x y z
#
# Youngs Moduli (GPa) = 99.06085 103.96924 67.23575
#
# Poissons Ratio (x) = 0.25110 0.16944
# Poissons Ratio (y) = 0.23925 0.31204
# Poissons Ratio (z) = 0.24965 0.48252
#
# Static dielectric constant tensor:
#      x y z
#    x 3.783650 0.000000 0.000000 
#    y 0.000000 4.282670 0.000000 
#    z 0.000000 0.000000 4.131120 
# 
# 
# High freq. dielectric constant tensor:
#      x y z
#    x 1.854550 0.000000 0.000000 
#    y 0.000000 1.888620 0.000000 
#    z 0.000000 0.000000 1.874950 
# 
# From -- ./inp_files/54959.got.cif
#   From: 2010.03.12/outbox.cif.g09.slc.cpg/sg70_28_cif.got.tgz:54959.got - 2010.04.16 13:46:32.
