data_PCOD8286512
_publ_section_title
;
Structure prediction by ZEFSAII (Michael W. Deem and Ramdas Pophale) SiO2 
 PCOD8286512
Probable space group: F D D D
;
_chemical_formula_sum "Si O2"
_cell_formula_units_Z 176
_cell_length_a 14.121262
_cell_length_b 22.793324
_cell_length_c 24.558363
_cell_angle_alpha 90.000000
_cell_angle_beta 90.000000
_cell_angle_gamma 90.000000
_cell_volume 7904.612579
_symmetry_space_group_name_H-M "F D D D"
_symmetry_group_IT_number 70
_space_group.IT_coordinate_system_code '2'
_symmetry_cell_setting 'orthorhombic'
loop_
_space_group_symop_operation_xyz
x,y,z
1/4-x,1/4-y,z
x,1/4-y,1/4-z
1/4-x,y,1/4-z
-x,-y,-z
3/4+x,3/4+y,-z
-x,3/4+y,3/4+z
3/4+x,-y,3/4+z
x,1/2+y,1/2+z
1/4-x,3/4-y,1/2+z
x,3/4-y,3/4-z
1/4-x,1/2+y,3/4-z
-x,1/2-y,1/2-z
3/4+x,1/4+y,1/2-z
-x,1/4+y,1/4+z
3/4+x,1/2-y,1/4+z
1/2+x,y,1/2+z
3/4-x,1/4-y,1/2+z
1/2+x,1/4-y,3/4-z
3/4-x,y,3/4-z
1/2-x,-y,1/2-z
1/4+x,3/4+y,1/2-z
1/2-x,3/4+y,1/4+z
1/4+x,-y,1/4+z
1/2+x,1/2+y,z
3/4-x,3/4-y,z
1/2+x,3/4-y,1/4-z
3/4-x,1/2+y,1/4-z
1/2-x,1/2-y,-z
1/4+x,1/4+y,-z
1/2-x,1/4+y,3/4+z
1/4+x,1/2-y,3/4+z
loop_
_atom_site_type_symbol
_atom_site_label
_atom_site_fract_x
_atom_site_fract_y
_atom_site_fract_z
Si Si1 0.719477 0.238733 0.781236
Si Si2 0.959321 0.626425 0.408934
Si Si3 0.625000 0.625000 0.837481
Si Si4 0.317860 0.002723 0.300126
Si Si5 0.401156 0.986768 0.026831
Si Si6 0.163163 0.804836 0.381748
O O1 0.738466 0.173921 0.804097
O O2 0.667055 0.227523 0.722887
O O3 0.820422 0.268648 0.769300
O O4 0.661186 0.280109 0.823011
O O5 0.875000 0.657744 0.375000
O O6 0.912046 0.571403 0.438949
O O7 0.041288 0.596294 0.372855
O O8 0.576881 0.674209 0.801896
O O9 0.250000 0.000000 0.250000
O O10 0.270127 0.967300 0.350933
O O11 0.369019 0.032512 0.072832
O O12 0.500000 0.000000 0.000000
O O13 0.162131 0.875000 0.375000
#
# Coordination Sequence:
#
# PCOD8286512 Si02
#       6
#    32  32  16  32  32  32
#     4  11  26  45  72 100 140 186 228 290 357 414
#     4  12  23  44  73  98 138 184 237 288 341 419
#     4  12  22  46  68  97 134 181 234 284 332 408
#     4  10  23  45  68 102 137 182 231 288 353 414
#     4  12  27  44  70 102 137 185 236 282 351 419
#     4  11  26  48  67 104 145 177 233 294 352 425
#
# _framework density 22.265481000000001
#
# number of rings (size 3 to 8) (size 9 to 14) (size 15 to 20)
#    0.000    0.727    3.636    3.273    7.636    0.000 
#    0.000    1.818    0.000    0.000    0.000    0.000 
#    0.000    0.000    0.000    0.000    0.000    0.000 
#
# Total GULP energy -545306.890956 kJ/mol
# GULP energy per Si atom -12393.338431 kJ/mol
# Density = 2.221480 g / cm^3
# Si number density = 22.265481 Si / 1000 Ang^3
#
#
#
# Elastic Constant Matrix: (Units=GPa)
#
#
# Indices 1 2 3 4 5 6 
#
# 1 158.2912 39.7812 55.8330 0.0000 0.0000 0.0000
# 2 39.7812 157.2266 54.9129 0.0000 0.0000 0.0000
# 3 55.8330 54.9129 98.9977 0.0000 0.0000 0.0000
# 4 0.0000 0.0000 0.0000 -225.6802 0.0000 0.0000
# 5 0.0000 0.0000 0.0000 0.0000 17.5982 0.0000
# 6 0.0000 0.0000 0.0000 0.0000 0.0000 28.8862
#
#
#
# Elastic Compliance Matrix: (Units=1/GPa)
#
#
# Indices 1 2 3 4 5 6 
#
# 1 0.007925 -0.000551 -0.004164 0.000000 0.000000 0.000000
# 2 -0.000551 0.007927 -0.004086 0.000000 0.000000 0.000000
# 3 -0.004164 -0.004086 0.014716 0.000000 0.000000 0.000000
# 4 0.000000 0.000000 0.000000 -0.004431 0.000000 0.000000
# 5 0.000000 0.000000 0.000000 0.000000 0.056824 0.000000
# 6 0.000000 0.000000 0.000000 0.000000 0.000000 0.034619
#
#
# Mechanical properties :
#
#
# Convention : Reuss Voigt Hill
#
# Bulk Modulus (GPa) = 77.12603 79.50774 78.31689
# Shear Modulus (GPa) = 35.84165 -18.23992 8.80086
#
# Velocity S-wave (km/s) = 4.01651 -2.86528 1.99030
# Velocity P-wave (km/s) = 7.49829 4.98398 6.36649
#
# Compressibility (1/GPa) = 0.01296579
#
# Stress axis : x y z
#
# Youngs Moduli (GPa) = 126.18998 126.15471 67.95263
#
# Poissons Ratio (x) = 0.06949 0.28294
# Poissons Ratio (y) = 0.06951 0.27767
# Poissons Ratio (z) = 0.52543 0.51550
#
# Static dielectric constant tensor:
#      x y z
#    x 4.310030 0.000000 0.000000 
#    y 0.000000 3.689410 0.000000 
#    z 0.000000 0.000000 4.558020 
# 
# 
# High freq. dielectric constant tensor:
#      x y z
#    x 1.897170 0.000000 0.000000 
#    y 0.000000 1.869080 0.000000 
#    z 0.000000 0.000000 1.885370 
# 
# From -- ./inp_files/51207.got.cif
#   From: 2010.03.12/outbox.cif.g09.slc.cpg/sg70_26_cif.got.tgz:51207.got - 2010.04.16 13:46:32.
