data_PCOD8286514
_publ_section_title
;
Structure prediction by ZEFSAII (Michael W. Deem and Ramdas Pophale) SiO2 
 PCOD8286514
Probable space group: F D D D
;
_chemical_formula_sum "Si O2"
_cell_formula_units_Z 176
_cell_length_a 10.671783
_cell_length_b 24.754505
_cell_length_c 27.949802
_cell_angle_alpha 90.000000
_cell_angle_beta 90.000000
_cell_angle_gamma 90.000000
_cell_volume 7383.630716
_symmetry_space_group_name_H-M "F D D D"
_symmetry_group_IT_number 70
_space_group.IT_coordinate_system_code '2'
_symmetry_cell_setting 'orthorhombic'
loop_
_space_group_symop_operation_xyz
x,y,z
1/4-x,1/4-y,z
x,1/4-y,1/4-z
1/4-x,y,1/4-z
-x,-y,-z
3/4+x,3/4+y,-z
-x,3/4+y,3/4+z
3/4+x,-y,3/4+z
x,1/2+y,1/2+z
1/4-x,3/4-y,1/2+z
x,3/4-y,3/4-z
1/4-x,1/2+y,3/4-z
-x,1/2-y,1/2-z
3/4+x,1/4+y,1/2-z
-x,1/4+y,1/4+z
3/4+x,1/2-y,1/4+z
1/2+x,y,1/2+z
3/4-x,1/4-y,1/2+z
1/2+x,1/4-y,3/4-z
3/4-x,y,3/4-z
1/2-x,-y,1/2-z
1/4+x,3/4+y,1/2-z
1/2-x,3/4+y,1/4+z
1/4+x,-y,1/4+z
1/2+x,1/2+y,z
3/4-x,3/4-y,z
1/2+x,3/4-y,1/4-z
3/4-x,1/2+y,1/4-z
1/2-x,1/2-y,-z
1/4+x,1/4+y,-z
1/2-x,1/4+y,3/4+z
1/4+x,1/2-y,3/4+z
loop_
_atom_site_type_symbol
_atom_site_label
_atom_site_fract_x
_atom_site_fract_y
_atom_site_fract_z
Si Si1 0.729156 0.442589 0.302909
Si Si2 0.826242 0.625000 0.625000
Si Si3 0.017645 0.669054 0.940944
Si Si4 0.125000 0.708958 0.125000
Si Si5 0.625000 0.260567 0.625000
Si Si6 0.754804 0.619243 0.968383
Si Si7 0.986201 0.997830 0.277695
O O1 0.659698 0.396195 0.332351
O O2 0.838196 0.472742 0.330944
O O3 0.789379 0.409972 0.259987
O O4 0.633541 0.488093 0.284584
O O5 0.739427 0.673076 0.605214
O O6 0.125000 0.625000 0.931652
O O7 0.996928 0.706050 0.893686
O O8 0.881476 0.641041 0.944772
O O9 0.059419 0.704763 0.987230
O O10 0.085192 0.743124 0.078659
O O11 0.625000 0.625000 0.936034
O O12 0.785218 0.559278 0.987953
#
# Coordination Sequence:
#
# PCOD8286514 Si02
#       7
#    32  16  32  16  16  32  32
#     4  10  24  40  67 101 137 181 237 297 349 426
#     4   9  20  35  62 100 134 177 227 296 350 422
#     4  11  28  47  71 104 144 187 240 299 353 429
#     4   9  20  39  68  97 139 182 235 292 361 428
#     4  12  26  46  68 103 143 186 248 294 358 426
#     4  11  24  44  72  99 141 189 236 291 363 425
#     4  10  23  45  70 101 141 187 236 290 366 425
#
# _framework density 23.836513
#
# number of rings (size 3 to 8) (size 9 to 14) (size 15 to 20)
#    0.000    1.636    0.000    2.182   12.727    9.455 
#    0.000    0.000    0.000    0.000    0.000    0.000 
#    0.000    0.000    0.000    0.000    0.000    0.000 
#
# Total GULP energy -545261.692268 kJ/mol
# GULP energy per Si atom -12392.311188 kJ/mol
# Density = 2.378226 g / cm^3
# Si number density = 23.836513 Si / 1000 Ang^3
#
#
#
# Elastic Constant Matrix: (Units=GPa)
#
#
# Indices 1 2 3 4 5 6 
#
# 1 114.1316 39.5023 23.3057 0.0000 0.0000 0.0000
# 2 39.5023 131.5216 44.8089 0.0000 0.0000 0.0000
# 3 23.3057 44.8089 85.2197 0.0000 0.0000 0.0000
# 4 0.0000 0.0000 0.0000 2.0791 0.0000 0.0000
# 5 0.0000 0.0000 0.0000 0.0000 34.9874 0.0000
# 6 0.0000 0.0000 0.0000 0.0000 0.0000 60.7121
#
#
#
# Elastic Compliance Matrix: (Units=1/GPa)
#
#
# Indices 1 2 3 4 5 6 
#
# 1 0.009913 -0.002502 -0.001395 0.000000 0.000000 0.000000
# 2 -0.002502 0.009894 -0.004518 0.000000 0.000000 0.000000
# 3 -0.001395 -0.004518 0.014492 0.000000 0.000000 0.000000
# 4 0.000000 0.000000 0.000000 0.480976 0.000000 0.000000
# 5 0.000000 0.000000 0.000000 0.000000 0.028582 0.000000
# 6 0.000000 0.000000 0.000000 0.000000 0.000000 0.016471
#
#
# Mechanical properties :
#
#
# Convention : Reuss Voigt Hill
#
# Bulk Modulus (GPa) = 57.24891 60.67853 58.96372
# Shear Modulus (GPa) = 8.57661 34.43946 21.50804
#
# Velocity S-wave (km/s) = 1.89892 3.80520 3.00711
# Velocity P-wave (km/s) = 5.37376 6.69459 6.07021
#
# Compressibility (1/GPa) = 0.01746758
#
# Stress axis : x y z
#
# Youngs Moduli (GPa) = 100.88090 101.07080 69.00528
#
# Poissons Ratio (x) = 0.25286 0.09629
# Poissons Ratio (y) = 0.25239 0.31178
# Poissons Ratio (z) = 0.14077 0.45665
#
# Static dielectric constant tensor:
#      x y z
#    x 4.335670 0.000000 0.000000 
#    y 0.000000 4.432110 0.000000 
#    z 0.000000 0.000000 4.209930 
# 
# 
# High freq. dielectric constant tensor:
#      x y z
#    x 1.950450 0.000000 0.000000 
#    y 0.000000 1.962660 0.000000 
#    z 0.000000 0.000000 1.931320 
# 
# From -- ./inp_files/64778.got.cif
#   From: 2010.03.12/outbox.cif.g09.slc.cpg/sg70_33_cif.got.tgz:64778.got - 2010.04.16 13:46:32.
