data_PCOD8286957
_publ_section_title
;
Structure prediction by ZEFSAII (Michael W. Deem and Ramdas Pophale) SiO2 
 PCOD8286957
Probable space group: I M M M
;
_chemical_formula_sum "Si O2"
_cell_formula_units_Z 96
_cell_length_a 13.926294
_cell_length_b 30.325242
_cell_length_c 16.710053
_cell_angle_alpha 90.000000
_cell_angle_beta 90.000000
_cell_angle_gamma 90.000000
_cell_volume 7056.960102
_symmetry_space_group_name_H-M "I M M M"
_symmetry_group_IT_number 71
_symmetry_cell_setting 'orthorhombic'
loop_
_space_group_symop_operation_xyz
x,y,z
-x,-y,z
x,-y,-z
-x,y,-z
-x,-y,-z
x,y,-z
-x,y,z
x,-y,z
1/2+x,1/2+y,1/2+z
1/2-x,1/2-y,1/2+z
1/2+x,1/2-y,1/2-z
1/2-x,1/2+y,1/2-z
1/2-x,1/2-y,1/2-z
1/2+x,1/2+y,1/2-z
1/2-x,1/2+y,1/2+z
1/2+x,1/2-y,1/2+z
loop_
_atom_site_type_symbol
_atom_site_label
_atom_site_fract_x
_atom_site_fract_y
_atom_site_fract_z
Si Si1 0.783100 0.282768 0.817414
Si Si2 0.606652 0.710782 0.594451
Si Si3 0.264943 0.628859 0.595018
Si Si4 0.107285 0.950951 0.904997
Si Si5 0.892735 0.763851 0.593577
Si Si6 0.609908 0.172014 0.813080
O O1 0.750000 0.250000 0.750000
O O2 0.856276 0.257868 0.875936
O O3 0.687156 0.296760 0.867723
O O4 0.838656 0.322936 0.774089
O O5 0.604410 0.711641 0.500000
O O6 0.500000 0.702889 0.629123
O O7 0.673397 0.670927 0.624208
O O8 0.250787 0.627601 0.500000
O O9 0.317435 0.584913 0.627633
O O10 0.161834 0.632700 0.638135
O O11 0.000000 0.940539 0.872456
O O12 0.139381 0.000000 0.877473
O O13 0.104450 0.948123 0.000000
O O14 0.871394 0.757860 0.500000
O O15 0.882357 0.716169 0.634052
O O16 0.000000 0.783015 0.608144
O O17 0.500000 0.158251 0.799086
#
# Coordination Sequence:
#
# PCOD8286957 Si02
#       6
#    16  16  16  16  16  16
#     4  10  17  27  36  49  71  97 122 156 192 225
#     4  10  18  26  37  53  72  94 124 161 192 218
#     4  10  17  26  39  56  73  94 125 158 192 225
#     4   8  14  25  40  57  76  95 115 145 189 236
#     4   9  16  26  39  52  67  91 125 159 189 222
#     4  10  19  28  37  51  71  97 127 160 194 225
#
# _framework density 13.603591
#
# number of rings (size 3 to 8) (size 9 to 14) (size 15 to 20)
#    0.000    2.500    3.333    2.500    0.000    3.667 
#    0.000    0.000    0.000    0.500    0.000    2.333 
#    0.000    0.000    0.000    0.000    0.000    3.333 
#
# Total GULP energy -594833.807241 kJ/mol
# GULP energy per Si atom -12392.370984 kJ/mol
# Density = 1.357263 g / cm^3
# Si number density = 13.603591 Si / 1000 Ang^3
#
#
#
# Elastic Constant Matrix: (Units=GPa)
#
#
# Indices 1 2 3 4 5 6 
#
# 1 120.3901 38.7727 37.9536 0.0000 0.0000 0.0000
# 2 38.7727 50.4761 15.4916 0.0000 0.0000 0.0000
# 3 37.9536 15.4916 34.7415 -0.0004 0.0001 0.0000
# 4 0.0000 0.0000 -0.0004 9.4590 0.0001 0.0000
# 5 0.0000 0.0000 0.0001 0.0001 24.0406 0.0000
# 6 0.0000 0.0000 0.0000 0.0000 0.0000 19.9473
#
#
#
# Elastic Compliance Matrix: (Units=1/GPa)
#
#
# Indices 1 2 3 4 5 6 
#
# 1 0.014712 -0.007378 -0.012783 0.000000 0.000000 0.000000
# 2 -0.007378 0.026652 -0.003824 0.000000 0.000000 0.000000
# 3 -0.012783 -0.003824 0.044454 0.000002 0.000000 0.000000
# 4 0.000000 0.000000 0.000002 0.105720 0.000000 0.000000
# 5 0.000000 0.000000 0.000000 0.000000 0.041596 0.000000
# 6 0.000000 0.000000 0.000000 0.000000 0.000000 0.050132
#
#
# Mechanical properties :
#
#
# Convention : Reuss Voigt Hill
#
# Bulk Modulus (GPa) = 26.42122 43.33817 34.87970
# Shear Modulus (GPa) = 14.54111 18.24870 16.39490
#
# Velocity S-wave (km/s) = 3.27298 3.66657 3.47535
# Velocity P-wave (km/s) = 5.80927 7.06060 6.46528
#
# Compressibility (1/GPa) = 0.03784837
#
# Stress axis : x y z
#
# Youngs Moduli (GPa) = 67.97060 37.52007 22.49528
#
# Poissons Ratio (x) = 0.27682 0.28755
# Poissons Ratio (y) = 0.50148 0.08603
# Poissons Ratio (z) = 0.86884 0.14350
#
# Static dielectric constant tensor:
#      x y z
#    x 3.109310 0.000000 0.000000 
#    y 0.000000 2.420080 0.000000 
#    z 0.000000 0.000000 2.671370 
# 
# 
# High freq. dielectric constant tensor:
#      x y z
#    x 1.537430 0.000000 0.000000 
#    y 0.000000 1.457850 0.000000 
#    z 0.000000 0.000000 1.496690 
# 
# From -- ./inp_files/35245.got.cif
#   From: 2010.06.25/outbox.cif.g09.slc.cpg/sg71_18_cif.got.tgz:35245.got - 2010.06.28 04:59:45.
