data_PCOD8286081
_publ_section_title
;
Structure prediction by ZEFSAII (Michael W. Deem and Ramdas Pophale) SiO2 
 PCOD8286081
Probable space group: F D D D
;
_chemical_formula_sum "Si O2"
_cell_formula_units_Z 176
_cell_length_a 13.120512
_cell_length_b 20.667606
_cell_length_c 33.422234
_cell_angle_alpha 90.000000
_cell_angle_beta 90.000000
_cell_angle_gamma 90.000000
_cell_volume 9063.092907
_symmetry_space_group_name_H-M "F D D D"
_symmetry_group_IT_number 70
_space_group.IT_coordinate_system_code '2'
_symmetry_cell_setting 'orthorhombic'
loop_
_space_group_symop_operation_xyz
x,y,z
1/4-x,1/4-y,z
x,1/4-y,1/4-z
1/4-x,y,1/4-z
-x,-y,-z
3/4+x,3/4+y,-z
-x,3/4+y,3/4+z
3/4+x,-y,3/4+z
x,1/2+y,1/2+z
1/4-x,3/4-y,1/2+z
x,3/4-y,3/4-z
1/4-x,1/2+y,3/4-z
-x,1/2-y,1/2-z
3/4+x,1/4+y,1/2-z
-x,1/4+y,1/4+z
3/4+x,1/2-y,1/4+z
1/2+x,y,1/2+z
3/4-x,1/4-y,1/2+z
1/2+x,1/4-y,3/4-z
3/4-x,y,3/4-z
1/2-x,-y,1/2-z
1/4+x,3/4+y,1/2-z
1/2-x,3/4+y,1/4+z
1/4+x,-y,1/4+z
1/2+x,1/2+y,z
3/4-x,3/4-y,z
1/2+x,3/4-y,1/4-z
3/4-x,1/2+y,1/4-z
1/2-x,1/2-y,-z
1/4+x,1/4+y,-z
1/2-x,1/4+y,3/4+z
1/4+x,1/2-y,3/4+z
loop_
_atom_site_type_symbol
_atom_site_label
_atom_site_fract_x
_atom_site_fract_y
_atom_site_fract_z
Si Si1 0.797749 0.584783 0.297520
Si Si2 0.479091 0.054391 0.857001
Si Si3 0.746363 0.124594 0.710078
Si Si4 0.176988 0.486261 0.843260
Si Si5 0.875000 0.875000 0.584976
Si Si6 0.252996 0.262016 0.181012
O O1 0.800455 0.655660 0.317186
O O2 0.789564 0.593652 0.250248
O O3 0.700559 0.544267 0.312338
O O4 0.892927 0.539201 0.307870
O O5 0.375000 0.025312 0.875000
O O6 0.529271 0.105502 0.887544
O O7 0.555005 0.993767 0.849802
O O8 0.625000 0.125000 0.707774
O O9 0.794534 0.083887 0.673646
O O10 0.782050 0.198591 0.706115
O O11 0.241053 0.496652 0.883773
O O12 0.911920 0.815673 0.557411
#
# Coordination Sequence:
#
# PCOD8286081 Si02
#       6
#    32  32  32  32  16  32
#     4  12  21  36  61  97 130 163 206 262 332 385
#     4  11  19  35  64  94 117 165 221 266 301 377
#     4  12  26  36  60  98 141 161 197 273 350 387
#     4  11  22  39  63  91 133 166 215 259 323 399
#     4  10  20  38  64  86 112 162 226 260 284 376
#     4  11  23  40  63  90 125 167 219 258 316 384
#
# _framework density 19.419419000000001
#
# number of rings (size 3 to 8) (size 9 to 14) (size 15 to 20)
#    0.000    0.727    7.273    2.727    2.545    0.727 
#    0.000    0.909    0.000    8.727    0.000    0.000 
#    0.000    0.000    0.000    0.000    0.000    0.000 
#
# Total GULP energy -545603.931659 kJ/mol
# GULP energy per Si atom -12400.089356 kJ/mol
# Density = 1.937522 g / cm^3
# Si number density = 19.419419 Si / 1000 Ang^3
#
#
#
# Elastic Constant Matrix: (Units=GPa)
#
#
# Indices 1 2 3 4 5 6 
#
# 1 129.8145 56.5088 54.6833 0.0000 0.0000 0.0000
# 2 56.5088 118.5542 47.2888 0.0000 0.0000 0.0000
# 3 54.6833 47.2888 77.1654 0.0000 0.0000 0.0000
# 4 0.0000 0.0000 0.0000 25.2610 0.0000 0.0000
# 5 0.0000 0.0000 0.0000 0.0000 15.8729 0.0000
# 6 0.0000 0.0000 0.0000 0.0000 0.0000 27.8757
#
#
#
# Elastic Compliance Matrix: (Units=1/GPa)
#
#
# Indices 1 2 3 4 5 6 
#
# 1 0.011743 -0.003015 -0.006474 0.000000 0.000000 0.000000
# 2 -0.003015 0.011938 -0.005179 0.000000 0.000000 0.000000
# 3 -0.006474 -0.005179 0.020721 0.000000 0.000000 0.000000
# 4 0.000000 0.000000 0.000000 0.039587 0.000000 0.000000
# 5 0.000000 0.000000 0.000000 0.000000 0.063001 0.000000
# 6 0.000000 0.000000 0.000000 0.000000 0.000000 0.035874
#
#
# Mechanical properties :
#
#
# Convention : Reuss Voigt Hill
#
# Bulk Modulus (GPa) = 66.37752 71.38844 68.88298
# Shear Modulus (GPa) = 23.01805 24.93877 23.97841
#
# Velocity S-wave (km/s) = 3.44657 3.58749 3.51773
# Velocity P-wave (km/s) = 7.07769 7.34855 7.21439
#
# Compressibility (1/GPa) = 0.01506534
#
# Stress axis : x y z
#
# Youngs Moduli (GPa) = 85.15867 83.76650 48.26021
#
# Poissons Ratio (x) = 0.25254 0.31243
# Poissons Ratio (y) = 0.25674 0.24996
# Poissons Ratio (z) = 0.55131 0.43386
#
# Static dielectric constant tensor:
#      x y z
#    x 3.533290 0.000000 0.000000 
#    y 0.000000 3.618480 0.000000 
#    z 0.000000 0.000000 3.429740 
# 
# 
# High freq. dielectric constant tensor:
#      x y z
#    x 1.750000 0.000000 0.000000 
#    y 0.000000 1.753350 0.000000 
#    z 0.000000 0.000000 1.739560 
# 
# From -- ./inp_files/64734.got.cif
#   From: 2010.03.12/outbox.cif.g09.slc.cpg/sg70_33_cif.got.tgz:64734.got - 2010.04.16 13:46:32.
