data_PCOD8286226
_publ_section_title
;
Structure prediction by ZEFSAII (Michael W. Deem and Ramdas Pophale) SiO2 
 PCOD8286226
Probable space group: F D D D
;
_chemical_formula_sum "Si O2"
_cell_formula_units_Z 168
_cell_length_a 16.085183
_cell_length_b 21.490870
_cell_length_c 19.212058
_cell_angle_alpha 90.000000
_cell_angle_beta 90.000000
_cell_angle_gamma 90.000000
_cell_volume 6641.312139
_symmetry_space_group_name_H-M "F D D D"
_symmetry_group_IT_number 70
_space_group.IT_coordinate_system_code '2'
_symmetry_cell_setting 'orthorhombic'
loop_
_space_group_symop_operation_xyz
x,y,z
1/4-x,1/4-y,z
x,1/4-y,1/4-z
1/4-x,y,1/4-z
-x,-y,-z
3/4+x,3/4+y,-z
-x,3/4+y,3/4+z
3/4+x,-y,3/4+z
x,1/2+y,1/2+z
1/4-x,3/4-y,1/2+z
x,3/4-y,3/4-z
1/4-x,1/2+y,3/4-z
-x,1/2-y,1/2-z
3/4+x,1/4+y,1/2-z
-x,1/4+y,1/4+z
3/4+x,1/2-y,1/4+z
1/2+x,y,1/2+z
3/4-x,1/4-y,1/2+z
1/2+x,1/4-y,3/4-z
3/4-x,y,3/4-z
1/2-x,-y,1/2-z
1/4+x,3/4+y,1/2-z
1/2-x,3/4+y,1/4+z
1/4+x,-y,1/4+z
1/2+x,1/2+y,z
3/4-x,3/4-y,z
1/2+x,3/4-y,1/4-z
3/4-x,1/2+y,1/4-z
1/2-x,1/2-y,-z
1/4+x,1/4+y,-z
1/2-x,1/4+y,3/4+z
1/4+x,1/2-y,3/4+z
loop_
_atom_site_type_symbol
_atom_site_label
_atom_site_fract_x
_atom_site_fract_y
_atom_site_fract_z
Si Si1 0.375000 0.375000 0.875000
Si Si2 0.167698 0.759339 0.832404
Si Si3 0.381780 0.132806 0.532405
Si Si4 0.036239 0.933832 0.589629
Si Si5 0.004341 0.569949 0.422112
Si Si6 0.767705 0.276517 0.310130
O O1 0.426289 0.336598 0.930823
O O2 0.147582 0.833074 0.840607
O O3 0.222933 0.742234 0.901466
O O4 0.091170 0.713896 0.811531
O O5 0.226969 0.754419 0.765053
O O6 0.303862 0.158962 0.487805
O O7 0.446492 0.088410 0.487807
O O8 0.423894 0.195048 0.565921
O O9 0.125000 0.947060 0.625000
O O10 0.981211 0.883097 0.630450
O O11 0.957595 0.521818 0.370510
#
# Coordination Sequence:
#
# PCOD8286226 Si02
#       6
#     8  32  32  32  32  32
#     4  12  24  32  52 100 132 156 210 264 316 432
#     4  12  22  38  66  89 131 179 213 266 337 382
#     4  11  23  42  63  97 139 175 208 279 334 391
#     4  10  21  38  62  92 129 169 225 261 316 408
#     4  11  22  39  61 100 131 169 220 269 328 415
#     4  12  23  38  62  94 136 170 213 267 344 388
#
# _framework density 25.296206000000002
#
# number of rings (size 3 to 8) (size 9 to 14) (size 15 to 20)
#    0.000    0.762    5.714    4.571    1.333    0.000 
#    0.000    0.952    0.000    0.000    0.000    0.000 
#    0.000    0.000    0.000    0.000    0.000    0.000 
#
# Total GULP energy -520316.673946 kJ/mol
# GULP energy per Si atom -12388.492237 kJ/mol
# Density = 2.523863 g / cm^3
# Si number density = 25.296206 Si / 1000 Ang^3
#
#
#
# Elastic Constant Matrix: (Units=GPa)
#
#
# Indices 1 2 3 4 5 6 
#
# 1 68.0527 29.9419 16.7169 0.0000 0.0000 0.0000
# 2 29.9419 100.6844 13.1993 0.0000 0.0000 0.0000
# 3 16.7169 13.1993 47.3408 0.0000 0.0000 0.0000
# 4 0.0000 0.0000 0.0000 39.6416 0.0000 0.0000
# 5 0.0000 0.0000 0.0000 0.0000 30.3473 0.0000
# 6 0.0000 0.0000 0.0000 0.0000 0.0000 33.7527
#
#
#
# Elastic Compliance Matrix: (Units=1/GPa)
#
#
# Indices 1 2 3 4 5 6 
#
# 1 0.017998 -0.004691 -0.005048 0.000000 0.000000 0.000000
# 2 -0.004691 0.011531 -0.001559 0.000000 0.000000 0.000000
# 3 -0.005048 -0.001559 0.023340 0.000000 0.000000 0.000000
# 4 0.000000 0.000000 0.000000 0.025226 0.000000 0.000000
# 5 0.000000 0.000000 0.000000 0.000000 0.032952 0.000000
# 6 0.000000 0.000000 0.000000 0.000000 0.000000 0.029627
#
#
# Mechanical properties :
#
#
# Convention : Reuss Voigt Hill
#
# Bulk Modulus (GPa) = 33.02964 37.31046 35.17005
# Shear Modulus (GPa) = 28.84151 31.16298 30.00225
#
# Velocity S-wave (km/s) = 3.38028 3.51368 3.44763
# Velocity P-wave (km/s) = 5.32170 5.58952 5.45726
#
# Compressibility (1/GPa) = 0.03027583
#
# Stress axis : x y z
#
# Youngs Moduli (GPa) = 55.56104 86.72059 42.84403
#
# Poissons Ratio (x) = 0.40677 0.21626
# Poissons Ratio (y) = 0.26062 0.06678
# Poissons Ratio (z) = 0.28046 0.13518
#
# Static dielectric constant tensor:
#      x y z
#    x 4.520970 0.000000 0.000000 
#    y 0.000000 4.835270 0.000000 
#    z 0.000000 0.000000 4.608360 
# 
# 
# High freq. dielectric constant tensor:
#      x y z
#    x 1.993030 0.000000 0.000000 
#    y 0.000000 2.021870 0.000000 
#    z 0.000000 0.000000 2.016240 
# 
# From -- ./inp_files/43806.got.cif
#   From: 2010.03.12/outbox.cif.g09.slc.cpg/sg70_22_cif.got.tgz:43806.got - 2010.04.16 13:46:32.
