data_PCOD8286217
_publ_section_title
;
Structure prediction by ZEFSAII (Michael W. Deem and Ramdas Pophale) SiO2 
 PCOD8286217
Probable space group: F D D D
;
_chemical_formula_sum "Si O2"
_cell_formula_units_Z 168
_cell_length_a 17.623040
_cell_length_b 18.864925
_cell_length_c 25.487104
_cell_angle_alpha 90.000000
_cell_angle_beta 90.000000
_cell_angle_gamma 90.000000
_cell_volume 8473.374491
_symmetry_space_group_name_H-M "F D D D"
_symmetry_group_IT_number 70
_space_group.IT_coordinate_system_code '2'
_symmetry_cell_setting 'orthorhombic'
loop_
_space_group_symop_operation_xyz
x,y,z
1/4-x,1/4-y,z
x,1/4-y,1/4-z
1/4-x,y,1/4-z
-x,-y,-z
3/4+x,3/4+y,-z
-x,3/4+y,3/4+z
3/4+x,-y,3/4+z
x,1/2+y,1/2+z
1/4-x,3/4-y,1/2+z
x,3/4-y,3/4-z
1/4-x,1/2+y,3/4-z
-x,1/2-y,1/2-z
3/4+x,1/4+y,1/2-z
-x,1/4+y,1/4+z
3/4+x,1/2-y,1/4+z
1/2+x,y,1/2+z
3/4-x,1/4-y,1/2+z
1/2+x,1/4-y,3/4-z
3/4-x,y,3/4-z
1/2-x,-y,1/2-z
1/4+x,3/4+y,1/2-z
1/2-x,3/4+y,1/4+z
1/4+x,-y,1/4+z
1/2+x,1/2+y,z
3/4-x,3/4-y,z
1/2+x,3/4-y,1/4-z
3/4-x,1/2+y,1/4-z
1/2-x,1/2-y,-z
1/4+x,1/4+y,-z
1/2-x,1/4+y,3/4+z
1/4+x,1/2-y,3/4+z
loop_
_atom_site_type_symbol
_atom_site_label
_atom_site_fract_x
_atom_site_fract_y
_atom_site_fract_z
Si Si1 0.102061 0.809064 0.337696
Si Si2 0.196307 0.176084 0.841426
Si Si3 0.815147 0.142808 0.418449
Si Si4 0.625000 0.625000 0.625000
Si Si5 0.264629 0.486555 0.417012
Si Si6 0.933715 0.658995 0.997447
O O1 0.125462 0.875000 0.375000
O O2 0.173603 0.757248 0.328915
O O3 0.035342 0.762384 0.364101
O O4 0.071443 0.837668 0.282302
O O5 0.125000 0.125000 0.841251
O O6 0.234172 0.174430 0.899987
O O7 0.255290 0.146478 0.798543
O O8 0.875000 0.165009 0.375000
O O9 0.849383 0.173786 0.473012
O O10 0.810436 0.058197 0.424043
O O11 0.675939 0.578001 0.586055
O O12 0.209010 0.475114 0.466741
#
# Coordination Sequence:
#
# PCOD8286217 Si02
#       6
#    32  32  32   8  32  32
#     4  10  21  40  58  86 121 155 197 243 298 350
#     4  11  22  36  61  86 117 161 200 238 296 364
#     4  10  21  38  56  81 121 155 189 245 292 347
#     4  12  20  32  56  84 124 152 192 228 300 372
#     4  11  20  36  56  83 120 157 190 236 298 359
#     4  10  22  36  58  89 120 150 196 245 300 351
#
# _framework density 19.826812
#
# number of rings (size 3 to 8) (size 9 to 14) (size 15 to 20)
#    0.000    1.524    5.714    1.143    1.333    0.762 
#    0.000    3.810    0.000    5.143    0.000    0.000 
#    0.000    0.000    0.000    0.000    0.000    0.000 
#
# Total GULP energy -520645.412404 kJ/mol
# GULP energy per Si atom -12396.319343 kJ/mol
# Density = 1.978169 g / cm^3
# Si number density = 19.826812 Si / 1000 Ang^3
#
#
#
# Elastic Constant Matrix: (Units=GPa)
#
#
# Indices 1 2 3 4 5 6 
#
# 1 93.5953 29.8534 54.3414 0.0000 0.0000 0.0000
# 2 29.8534 66.1382 12.3935 0.0000 0.0000 0.0000
# 3 54.3414 12.3935 102.9173 0.0000 0.0000 0.0000
# 4 0.0000 0.0000 0.0000 12.6053 0.0000 0.0000
# 5 0.0000 0.0000 0.0000 0.0000 35.6125 0.0000
# 6 0.0000 0.0000 0.0000 0.0000 0.0000 36.9586
#
#
#
# Elastic Compliance Matrix: (Units=1/GPa)
#
#
# Indices 1 2 3 4 5 6 
#
# 1 0.017700 -0.006382 -0.008577 0.000000 0.000000 0.000000
# 2 -0.006382 0.017770 0.001230 0.000000 0.000000 0.000000
# 3 -0.008577 0.001230 0.014097 0.000000 0.000000 0.000000
# 4 0.000000 0.000000 0.000000 0.079332 0.000000 0.000000
# 5 0.000000 0.000000 0.000000 0.000000 0.028080 0.000000
# 6 0.000000 0.000000 0.000000 0.000000 0.000000 0.027057
#
#
# Mechanical properties :
#
#
# Convention : Reuss Voigt Hill
#
# Bulk Modulus (GPa) = 45.23142 50.64750 47.93946
# Shear Modulus (GPa) = 22.84518 28.10611 25.47564
#
# Velocity S-wave (km/s) = 3.39814 3.76916 3.58845
# Velocity P-wave (km/s) = 6.18541 6.67402 6.43435
#
# Compressibility (1/GPa) = 0.02210852
#
# Stress axis : x y z
#
# Youngs Moduli (GPa) = 56.49779 56.27429 70.93583
#
# Poissons Ratio (x) = 0.35915 0.60843
# Poissons Ratio (y) = 0.36057 -0.08724
# Poissons Ratio (z) = 0.48459 -0.06921
#
# Static dielectric constant tensor:
#      x y z
#    x 3.881740 0.000000 0.000000 
#    y 0.000000 3.400960 0.000000 
#    z 0.000000 0.000000 3.835550 
# 
# 
# High freq. dielectric constant tensor:
#      x y z
#    x 1.772860 0.000000 0.000000 
#    y 0.000000 1.749700 0.000000 
#    z 0.000000 0.000000 1.772900 
# 
# From -- ./inp_files/29857.got.cif
#   From: 2010.03.12/outbox.cif.g09.slc.cpg/sg70_15_cif.got.tgz:29857.got - 2010.04.16 13:46:32.
