data_PCOD8286309
_publ_section_title
;
Structure prediction by ZEFSAII (Michael W. Deem and Ramdas Pophale) SiO2 
 PCOD8286309
Probable space group: F D D D
;
_chemical_formula_sum "Si O2"
_cell_formula_units_Z 160
_cell_length_a 16.445466
_cell_length_b 18.244665
_cell_length_c 24.493678
_cell_angle_alpha 90.000000
_cell_angle_beta 90.000000
_cell_angle_gamma 90.000000
_cell_volume 7349.132574
_symmetry_space_group_name_H-M "F D D D"
_symmetry_group_IT_number 70
_space_group.IT_coordinate_system_code '2'
_symmetry_cell_setting 'orthorhombic'
loop_
_space_group_symop_operation_xyz
x,y,z
1/4-x,1/4-y,z
x,1/4-y,1/4-z
1/4-x,y,1/4-z
-x,-y,-z
3/4+x,3/4+y,-z
-x,3/4+y,3/4+z
3/4+x,-y,3/4+z
x,1/2+y,1/2+z
1/4-x,3/4-y,1/2+z
x,3/4-y,3/4-z
1/4-x,1/2+y,3/4-z
-x,1/2-y,1/2-z
3/4+x,1/4+y,1/2-z
-x,1/4+y,1/4+z
3/4+x,1/2-y,1/4+z
1/2+x,y,1/2+z
3/4-x,1/4-y,1/2+z
1/2+x,1/4-y,3/4-z
3/4-x,y,3/4-z
1/2-x,-y,1/2-z
1/4+x,3/4+y,1/2-z
1/2-x,3/4+y,1/4+z
1/4+x,-y,1/4+z
1/2+x,1/2+y,z
3/4-x,3/4-y,z
1/2+x,3/4-y,1/4-z
3/4-x,1/2+y,1/4-z
1/2-x,1/2-y,-z
1/4+x,1/4+y,-z
1/2-x,1/4+y,3/4+z
1/4+x,1/2-y,3/4+z
loop_
_atom_site_type_symbol
_atom_site_label
_atom_site_fract_x
_atom_site_fract_y
_atom_site_fract_z
Si Si1 0.744866 0.314179 0.093057
Si Si2 0.369182 0.209001 0.125182
Si Si3 0.079038 0.805134 0.040518
Si Si4 0.913978 0.211600 0.245537
Si Si5 0.501801 0.973806 0.699477
O O1 0.817775 0.256039 0.088489
O O2 0.670018 0.282684 0.057912
O O3 0.722047 0.326028 0.156141
O O4 0.771407 0.392104 0.068977
O O5 0.395798 0.125000 0.125000
O O6 0.370279 0.236192 0.063036
O O7 0.280490 0.220412 0.152946
O O8 0.076245 0.874026 0.999176
O O9 0.041059 0.736965 0.008045
O O10 0.849291 0.235545 0.292614
O O11 0.000000 0.250000 0.250000
#
# Coordination Sequence:
#
# PCOD8286309 Si02
#       5
#    32  32  32  32  32
#     4  10  23  43  71  97 141 186 232 285 359 431
#     4  12  24  44  66 101 142 177 235 296 347 429
#     4  10  21  44  68 100 137 180 238 292 345 432
#     4  11  24  43  70  96 139 184 231 297 355 413
#     4  11  23  43  69 103 134 185 238 286 360 426
#
# _framework density 21.771277000000001
#
# number of rings (size 3 to 8) (size 9 to 14) (size 15 to 20)
#    0.000    1.200    4.000    1.800    0.000    4.000 
#    3.600    3.000    0.000    0.000    0.000    0.000 
#    0.000    0.000    0.000    0.000    0.000    0.000 
#
# Total GULP energy -496031.844237 kJ/mol
# GULP energy per Si atom -12400.796106 kJ/mol
# Density = 2.172172 g / cm^3
# Si number density = 21.771277 Si / 1000 Ang^3
#
#
#
# Elastic Constant Matrix: (Units=GPa)
#
#
# Indices 1 2 3 4 5 6 
#
# 1 138.9113 78.5157 48.7563 0.0000 0.0000 0.0000
# 2 78.5157 122.9408 55.6897 0.0000 0.0000 0.0000
# 3 48.7563 55.6897 108.7818 0.0000 0.0000 0.0000
# 4 0.0000 0.0000 0.0000 38.8866 0.0000 0.0000
# 5 0.0000 0.0000 0.0000 0.0000 37.8414 0.0000
# 6 0.0000 0.0000 0.0000 0.0000 0.0000 32.3871
#
#
#
# Elastic Compliance Matrix: (Units=1/GPa)
#
#
# Indices 1 2 3 4 5 6 
#
# 1 0.011536 -0.006542 -0.001821 0.000000 0.000000 0.000000
# 2 -0.006542 0.014300 -0.004388 0.000000 0.000000 0.000000
# 3 -0.001821 -0.004388 0.012256 0.000000 0.000000 0.000000
# 4 0.000000 0.000000 0.000000 0.025716 0.000000 0.000000
# 5 0.000000 0.000000 0.000000 0.000000 0.026426 0.000000
# 6 0.000000 0.000000 0.000000 0.000000 0.000000 0.030876
#
#
# Mechanical properties :
#
#
# Convention : Reuss Voigt Hill
#
# Bulk Modulus (GPa) = 79.44310 81.83971 80.64140
# Shear Modulus (GPa) = 33.15425 34.33449 33.74437
#
# Velocity S-wave (km/s) = 3.90660 3.97552 3.94121
# Velocity P-wave (km/s) = 7.54438 7.66455 7.60470
#
# Compressibility (1/GPa) = 0.01258763
#
# Stress axis : x y z
#
# Youngs Moduli (GPa) = 86.68527 69.92888 81.59548
#
# Poissons Ratio (x) = 0.45751 0.14859
# Poissons Ratio (y) = 0.56714 0.35808
# Poissons Ratio (z) = 0.15786 0.30688
#
# Static dielectric constant tensor:
#      x y z
#    x 4.013710 0.000000 0.000000 
#    y 0.000000 3.696600 0.000000 
#    z 0.000000 0.000000 4.264920 
# 
# 
# High freq. dielectric constant tensor:
#      x y z
#    x 1.859980 0.000000 0.000000 
#    y 0.000000 1.837930 0.000000 
#    z 0.000000 0.000000 1.870140 
# 
# From -- ./inp_files/59394.got.cif
#   From: 2010.03.12/outbox.cif.g09.slc.cpg/sg70_30_cif.got.tgz:59394.got - 2010.04.16 13:46:32.
