data_PCOD8286302
_publ_section_title
;
Structure prediction by ZEFSAII (Michael W. Deem and Ramdas Pophale) SiO2 
 PCOD8286302
Probable space group: F D D D
;
_chemical_formula_sum "Si O2"
_cell_formula_units_Z 96
_cell_length_a 16.262032
_cell_length_b 21.318981
_cell_length_c 11.773004
_cell_angle_alpha 90.000000
_cell_angle_beta 90.000000
_cell_angle_gamma 90.000000
_cell_volume 4081.582183
_symmetry_space_group_name_H-M "F D D D"
_symmetry_group_IT_number 70
_space_group.IT_coordinate_system_code '2'
_symmetry_cell_setting 'orthorhombic'
loop_
_space_group_symop_operation_xyz
x,y,z
1/4-x,1/4-y,z
x,1/4-y,1/4-z
1/4-x,y,1/4-z
-x,-y,-z
3/4+x,3/4+y,-z
-x,3/4+y,3/4+z
3/4+x,-y,3/4+z
x,1/2+y,1/2+z
1/4-x,3/4-y,1/2+z
x,3/4-y,3/4-z
1/4-x,1/2+y,3/4-z
-x,1/2-y,1/2-z
3/4+x,1/4+y,1/2-z
-x,1/4+y,1/4+z
3/4+x,1/2-y,1/4+z
1/2+x,y,1/2+z
3/4-x,1/4-y,1/2+z
1/2+x,1/4-y,3/4-z
3/4-x,y,3/4-z
1/2-x,-y,1/2-z
1/4+x,3/4+y,1/2-z
1/2-x,3/4+y,1/4+z
1/4+x,-y,1/4+z
1/2+x,1/2+y,z
3/4-x,3/4-y,z
1/2+x,3/4-y,1/4-z
3/4-x,1/2+y,1/4-z
1/2-x,1/2-y,-z
1/4+x,1/4+y,-z
1/2-x,1/4+y,3/4+z
1/4+x,1/2-y,3/4+z
loop_
_atom_site_type_symbol
_atom_site_label
_atom_site_fract_x
_atom_site_fract_y
_atom_site_fract_z
Si Si1 0.372595 0.220374 0.057500
Si Si2 0.308347 0.692889 0.969036
Si Si3 0.996619 0.686100 0.883311
O O1 0.393882 0.176591 0.164817
O O2 0.336911 0.287204 0.103568
O O3 0.305662 0.183613 0.982747
O O4 0.452892 0.231648 0.977404
O O5 0.375000 0.712121 0.875000
O O6 0.251641 0.634283 0.932080
O O7 0.250000 0.750000 0.000000
#
# Coordination Sequence:
#
# PCOD8286302 Si02
#       3
#    32  32  32
#     4  10  21  43  67 101 133 179 233 284 352 409
#     4  12  25  42  68 102 142 186 225 293 352 419
#     4  10  22  42  74  97 139 179 232 294 347 415
#
# _framework density 23.520289999999999
#
# number of rings (size 3 to 8) (size 9 to 14) (size 15 to 20)
#    0.000    1.333    3.333    3.000    0.000    1.333 
#    0.000    1.667    0.000    4.000    0.000    0.000 
#    0.000    0.000    0.000    0.000    0.000    0.000 
#
# Total GULP energy -297435.657102 kJ/mol
# GULP energy per Si atom -12393.152379 kJ/mol
# Density = 2.346676 g / cm^3
# Si number density = 23.520290 Si / 1000 Ang^3
#
#
#
# Elastic Constant Matrix: (Units=GPa)
#
#
# Indices 1 2 3 4 5 6 
#
# 1 88.5738 75.3773 49.3892 0.0000 0.0000 0.0000
# 2 75.3773 181.8606 68.8673 0.0000 0.0000 0.0000
# 3 49.3892 68.8673 172.1738 0.0000 0.0000 0.0000
# 4 0.0000 0.0000 0.0000 43.7144 0.0000 0.0000
# 5 0.0000 0.0000 0.0000 0.0000 27.7260 0.0000
# 6 0.0000 0.0000 0.0000 0.0000 0.0000 28.2751
#
#
#
# Elastic Compliance Matrix: (Units=1/GPa)
#
#
# Indices 1 2 3 4 5 6 
#
# 1 0.018397 -0.006631 -0.002625 0.000000 0.000000 0.000000
# 2 -0.006631 0.008870 -0.001646 0.000000 0.000000 0.000000
# 3 -0.002625 -0.001646 0.007219 0.000000 0.000000 0.000000
# 4 0.000000 0.000000 0.000000 0.022876 0.000000 0.000000
# 5 0.000000 0.000000 0.000000 0.000000 0.036067 0.000000
# 6 0.000000 0.000000 0.000000 0.000000 0.000000 0.035367
#
#
# Mechanical properties :
#
#
# Convention : Reuss Voigt Hill
#
# Bulk Modulus (GPa) = 78.84639 92.20841 85.52740
# Shear Modulus (GPa) = 32.29396 36.54141 34.41769
#
# Velocity S-wave (km/s) = 3.70946 3.94586 3.82949
# Velocity P-wave (km/s) = 7.20710 7.74911 7.48301
#
# Compressibility (1/GPa) = 0.01268289
#
# Stress axis : x y z
#
# Youngs Moduli (GPa) = 54.35725 112.73414 138.51589
#
# Poissons Ratio (x) = 0.74755 0.36359
# Poissons Ratio (y) = 0.36045 0.22798
# Poissons Ratio (z) = 0.14268 0.18555
#
# Static dielectric constant tensor:
#      x y z
#    x 4.433720 0.000000 0.000000 
#    y 0.000000 3.887070 0.000000 
#    z 0.000000 0.000000 5.115490 
# 
# 
# High freq. dielectric constant tensor:
#      x y z
#    x 1.914780 0.000000 0.000000 
#    y 0.000000 1.912430 0.000000 
#    z 0.000000 0.000000 1.965000 
# 
# From -- ./inp_files/15835.got.cif
#   From: 2010.03.12/outbox.cif.g09.slc.cpg/sg70_8_cif.got.tgz:15835.got - 2010.04.16 13:46:32.
