data_PCOD8286917
_publ_section_title
;
Structure prediction by ZEFSAII (Michael W. Deem and Ramdas Pophale) SiO2 
 PCOD8286917
Probable space group: I M M M
;
_chemical_formula_sum "Si O2"
_cell_formula_units_Z 72
_cell_length_a 24.893112
_cell_length_b 10.302787
_cell_length_c 15.818526
_cell_angle_alpha 90.000000
_cell_angle_beta 90.000000
_cell_angle_gamma 90.000000
_cell_volume 4056.952539
_symmetry_space_group_name_H-M "I M M M"
_symmetry_group_IT_number 71
_symmetry_cell_setting 'orthorhombic'
loop_
_space_group_symop_operation_xyz
x,y,z
-x,-y,z
x,-y,-z
-x,y,-z
-x,-y,-z
x,y,-z
-x,y,z
x,-y,z
1/2+x,1/2+y,1/2+z
1/2-x,1/2-y,1/2+z
1/2+x,1/2-y,1/2-z
1/2-x,1/2+y,1/2-z
1/2-x,1/2-y,1/2-z
1/2+x,1/2+y,1/2-z
1/2-x,1/2+y,1/2+z
1/2+x,1/2-y,1/2+z
loop_
_atom_site_type_symbol
_atom_site_label
_atom_site_fract_x
_atom_site_fract_y
_atom_site_fract_z
Si Si1 0.918842 0.261849 0.730438
Si Si2 0.942034 0.500000 0.151006
Si Si3 0.058022 0.000000 0.822655
Si Si4 0.172683 0.500000 0.906058
Si Si5 0.000000 0.654000 0.597362
Si Si6 0.667588 0.500000 0.402071
Si Si7 0.805379 0.747877 0.798232
O O1 0.940105 0.372199 0.792359
O O2 0.938097 0.123379 0.762296
O O3 0.853647 0.262537 0.729418
O O4 0.945440 0.288063 0.639068
O O5 0.892328 0.500000 0.086709
O O6 0.000000 0.500000 0.103323
O O7 0.102894 0.000000 0.895476
O O8 0.000000 0.000000 0.868295
O O9 0.194478 0.374727 0.859116
O O10 0.196372 0.500000 0.000000
O O11 0.000000 0.500000 0.607761
O O12 0.000000 0.696608 0.500000
O O13 0.684414 0.500000 0.500000
O O14 0.690979 0.625525 0.356204
O O15 0.750000 0.750000 0.750000
#
# Coordination Sequence:
#
# PCOD8286917 Si02
#       7
#    16   8   8   8   8   8  16
#     4  10  18  33  53  76 105 136 182 217 259 326
#     4  10  16  30  54  75 106 143 165 204 259 324
#     4  10  18  30  54  79 104 147 171 204 259 324
#     4  10  21  34  54  83 108 136 176 226 270 305
#     4  11  20  33  55  81 110 139 175 233 285 311
#     4  10  21  36  54  83 114 138 174 226 272 311
#     4  10  21  37  59  77 104 148 188 217 267 332
#
# _framework density 17.747309999999999
#
# number of rings (size 3 to 8) (size 9 to 14) (size 15 to 20)
#    0.000    1.889    3.333    1.333    0.000    0.444 
#    0.000    3.333    0.000    8.000    0.000    0.000 
#    0.000    0.000    0.000    0.000    0.000    0.000 
#
# Total GULP energy -446270.806528 kJ/mol
# GULP energy per Si atom -12396.411292 kJ/mol
# Density = 1.770692 g / cm^3
# Si number density = 17.747310 Si / 1000 Ang^3
#
#
#
# Elastic Constant Matrix: (Units=GPa)
#
#
# Indices 1 2 3 4 5 6 
#
# 1 160.7490 43.2258 64.7384 0.0000 0.0000 0.0000
# 2 43.2258 151.3263 52.3319 0.0000 0.0000 0.0000
# 3 64.7384 52.3319 121.2788 0.0000 0.0000 0.0000
# 4 0.0000 0.0000 0.0000 16.6308 0.0000 0.0000
# 5 0.0000 0.0000 0.0000 0.0000 19.5264 0.0000
# 6 0.0000 0.0000 0.0000 0.0000 0.0000 22.8610
#
#
#
# Elastic Compliance Matrix: (Units=1/GPa)
#
#
# Indices 1 2 3 4 5 6 
#
# 1 0.008040 -0.000955 -0.003880 0.000000 0.000000 0.000000
# 2 -0.000955 0.007881 -0.002891 0.000000 0.000000 0.000000
# 3 -0.003880 -0.002891 0.011564 0.000000 0.000000 0.000000
# 4 0.000000 0.000000 0.000000 0.060129 0.000000 0.000000
# 5 0.000000 0.000000 0.000000 0.000000 0.051213 0.000000
# 6 0.000000 0.000000 0.000000 0.000000 0.000000 0.043743
#
#
# Mechanical properties :
#
#
# Convention : Reuss Voigt Hill
#
# Bulk Modulus (GPa) = 83.09969 83.77181 83.43575
# Shear Modulus (GPa) = 24.74860 30.00750 27.37805
#
# Velocity S-wave (km/s) = 3.73835 4.11642 3.93193
# Velocity P-wave (km/s) = 8.09686 8.36052 8.22974
#
# Compressibility (1/GPa) = 0.01203374
#
# Stress axis : x y z
#
# Youngs Moduli (GPa) = 124.37561 126.89215 86.47634
#
# Poissons Ratio (x) = 0.12117 0.33551
# Poissons Ratio (y) = 0.11877 0.24999
# Poissons Ratio (z) = 0.48255 0.36682
#
# Static dielectric constant tensor:
#      x y z
#    x 3.485440 0.000000 0.000000 
#    y 0.000000 3.536900 0.000000 
#    z 0.000000 0.000000 2.998940 
# 
# 
# High freq. dielectric constant tensor:
#      x y z
#    x 1.690410 0.000000 0.000000 
#    y 0.000000 1.711910 0.000000 
#    z 0.000000 0.000000 1.654010 
# 
# From -- ./inp_files/40024.got.cif
#   From: 2010.06.25/outbox.cif.g09.slc.cpg/sg71_21_cif.got.tgz:40024.got - 2010.06.28 04:59:45.
