data_PCOD8286314
_publ_section_title
;
Structure prediction by ZEFSAII (Michael W. Deem and Ramdas Pophale) SiO2 
 PCOD8286314
Probable space group: F D D D
;
_chemical_formula_sum "Si O2"
_cell_formula_units_Z 176
_cell_length_a 13.861975
_cell_length_b 23.676252
_cell_length_c 22.789026
_cell_angle_alpha 90.000000
_cell_angle_beta 90.000000
_cell_angle_gamma 90.000000
_cell_volume 7479.349521
_symmetry_space_group_name_H-M "F D D D"
_symmetry_group_IT_number 70
_space_group.IT_coordinate_system_code '2'
_symmetry_cell_setting 'orthorhombic'
loop_
_space_group_symop_operation_xyz
x,y,z
1/4-x,1/4-y,z
x,1/4-y,1/4-z
1/4-x,y,1/4-z
-x,-y,-z
3/4+x,3/4+y,-z
-x,3/4+y,3/4+z
3/4+x,-y,3/4+z
x,1/2+y,1/2+z
1/4-x,3/4-y,1/2+z
x,3/4-y,3/4-z
1/4-x,1/2+y,3/4-z
-x,1/2-y,1/2-z
3/4+x,1/4+y,1/2-z
-x,1/4+y,1/4+z
3/4+x,1/2-y,1/4+z
1/2+x,y,1/2+z
3/4-x,1/4-y,1/2+z
1/2+x,1/4-y,3/4-z
3/4-x,y,3/4-z
1/2-x,-y,1/2-z
1/4+x,3/4+y,1/2-z
1/2-x,3/4+y,1/4+z
1/4+x,-y,1/4+z
1/2+x,1/2+y,z
3/4-x,3/4-y,z
1/2+x,3/4-y,1/4-z
3/4-x,1/2+y,1/4-z
1/2-x,1/2-y,-z
1/4+x,1/4+y,-z
1/2-x,1/4+y,3/4+z
1/4+x,1/2-y,3/4+z
loop_
_atom_site_type_symbol
_atom_site_label
_atom_site_fract_x
_atom_site_fract_y
_atom_site_fract_z
Si Si1 0.375000 0.375000 0.167649
Si Si2 0.543753 0.189831 0.239239
Si Si3 0.232485 0.680949 0.825473
Si Si4 0.370324 0.106491 0.257954
Si Si5 0.625000 0.966559 0.625000
Si Si6 0.375000 0.477639 0.375000
Si Si7 0.801179 0.008226 0.689301
O O1 0.372490 0.320552 0.211643
O O2 0.279914 0.382958 0.126506
O O3 0.500000 0.250000 0.250000
O O4 0.465730 0.141223 0.245640
O O5 0.585965 0.185951 0.174473
O O6 0.281211 0.650158 0.769804
O O7 0.294265 0.732648 0.848067
O O8 0.126594 0.706393 0.814443
O O9 0.390237 0.069726 0.316103
O O10 0.350815 0.069934 0.198294
O O11 0.722146 0.005076 0.636339
O O12 0.750000 0.000000 0.750000
#
# Coordination Sequence:
#
# PCOD8286314 Si02
#       7
#    16  32  32  32  16  16  32
#     4  12  24  41  78 100 138 203 242 290 370 426
#     4  12  25  46  72 107 151 196 244 307 365 440
#     4  12  23  46  79 106 138 193 256 295 354 460
#     4  11  23  44  76 108 144 195 242 295 378 430
#     4  10  21  46  76 108 141 191 252 297 356 450
#     4  12  27  49  68 109 153 186 244 310 358 438
#     4  10  24  44  73 104 145 183 242 308 354 428
#
# _framework density 23.531457
#
# number of rings (size 3 to 8) (size 9 to 14) (size 15 to 20)
#    0.000    0.727    3.636    4.909    2.545    0.364 
#    6.545    0.000    4.000    0.000    0.000    0.000 
#    0.000    0.000    0.000    0.000    0.000    0.000 
#
# Total GULP energy -545113.076783 kJ/mol
# GULP energy per Si atom -12388.933563 kJ/mol
# Density = 2.347790 g / cm^3
# Si number density = 23.531457 Si / 1000 Ang^3
#
#
#
# Elastic Constant Matrix: (Units=GPa)
#
#
# Indices 1 2 3 4 5 6 
#
# 1 128.3623 72.8337 68.0127 0.0000 0.0000 0.0000
# 2 72.8337 117.7198 61.8961 0.0000 0.0000 0.0000
# 3 68.0127 61.8961 118.2481 0.0000 0.0000 0.0000
# 4 0.0000 0.0000 0.0000 45.3592 0.0000 0.0000
# 5 0.0000 0.0000 0.0000 0.0000 44.5008 0.0000
# 6 0.0000 0.0000 0.0000 0.0000 0.0000 48.4872
#
#
#
# Elastic Compliance Matrix: (Units=1/GPa)
#
#
# Indices 1 2 3 4 5 6 
#
# 1 0.013699 -0.005978 -0.004750 0.000000 0.000000 0.000000
# 2 -0.005978 0.014329 -0.004062 0.000000 0.000000 0.000000
# 3 -0.004750 -0.004062 0.013315 0.000000 0.000000 0.000000
# 4 0.000000 0.000000 0.000000 0.022046 0.000000 0.000000
# 5 0.000000 0.000000 0.000000 0.000000 0.022471 0.000000
# 6 0.000000 0.000000 0.000000 0.000000 0.000000 0.020624
#
#
# Mechanical properties :
#
#
# Convention : Reuss Voigt Hill
#
# Bulk Modulus (GPa) = 85.01304 85.53500 85.27402
# Shear Modulus (GPa) = 35.71737 38.44196 37.07966
#
# Velocity S-wave (km/s) = 3.90019 4.04622 3.97388
# Velocity P-wave (km/s) = 7.51584 7.63265 7.57447
#
# Compressibility (1/GPa) = 0.01176290
#
# Stress axis : x y z
#
# Youngs Moduli (GPa) = 72.99545 69.78691 75.10187
#
# Poissons Ratio (x) = 0.41721 0.35675
# Poissons Ratio (y) = 0.43639 0.30507
# Poissons Ratio (z) = 0.34675 0.28348
#
# Static dielectric constant tensor:
#      x y z
#    x 8.007720 0.000000 0.000000 
#    y 0.000000 3.486570 0.000000 
#    z 0.000000 0.000000 14.239190 
# 
# 
# High freq. dielectric constant tensor:
#      x y z
#    x 1.947910 0.000000 0.000000 
#    y 0.000000 1.931300 0.000000 
#    z 0.000000 0.000000 1.922420 
# 
# From -- ./inp_files/51237.got.cif
#   From: 2010.03.12/outbox.cif.g09.slc.cpg/sg70_26_cif.got.tgz:51237.got - 2010.04.16 13:46:32.
