data_PCOD8286195
_publ_section_title
;
Structure prediction by ZEFSAII (Michael W. Deem and Ramdas Pophale) SiO2 
 PCOD8286195
Probable space group: F D D D
;
_chemical_formula_sum "Si O2"
_cell_formula_units_Z 216
_cell_length_a 14.765354
_cell_length_b 24.257344
_cell_length_c 31.773409
_cell_angle_alpha 90.000000
_cell_angle_beta 90.000000
_cell_angle_gamma 90.000000
_cell_volume 11380.226974
_symmetry_space_group_name_H-M "F D D D"
_symmetry_group_IT_number 70
_space_group.IT_coordinate_system_code '2'
_symmetry_cell_setting 'orthorhombic'
loop_
_space_group_symop_operation_xyz
x,y,z
1/4-x,1/4-y,z
x,1/4-y,1/4-z
1/4-x,y,1/4-z
-x,-y,-z
3/4+x,3/4+y,-z
-x,3/4+y,3/4+z
3/4+x,-y,3/4+z
x,1/2+y,1/2+z
1/4-x,3/4-y,1/2+z
x,3/4-y,3/4-z
1/4-x,1/2+y,3/4-z
-x,1/2-y,1/2-z
3/4+x,1/4+y,1/2-z
-x,1/4+y,1/4+z
3/4+x,1/2-y,1/4+z
1/2+x,y,1/2+z
3/4-x,1/4-y,1/2+z
1/2+x,1/4-y,3/4-z
3/4-x,y,3/4-z
1/2-x,-y,1/2-z
1/4+x,3/4+y,1/2-z
1/2-x,3/4+y,1/4+z
1/4+x,-y,1/4+z
1/2+x,1/2+y,z
3/4-x,3/4-y,z
1/2+x,3/4-y,1/4-z
3/4-x,1/2+y,1/4-z
1/2-x,1/2-y,-z
1/4+x,1/4+y,-z
1/2-x,1/4+y,3/4+z
1/4+x,1/2-y,3/4+z
loop_
_atom_site_type_symbol
_atom_site_label
_atom_site_fract_x
_atom_site_fract_y
_atom_site_fract_z
Si Si1 0.625000 0.908606 0.125000
Si Si2 0.740185 0.179848 0.056498
Si Si3 0.356995 0.961173 0.559799
Si Si4 0.635003 0.685055 0.763599
Si Si5 0.800112 0.784179 0.595638
Si Si6 0.023935 0.884741 0.048240
Si Si7 0.125000 0.125000 0.625000
Si Si8 0.924654 0.675717 0.015386
O O1 0.554407 0.947188 0.099783
O O2 0.676324 0.868331 0.092998
O O3 0.811319 0.224005 0.074677
O O4 0.679561 0.166875 0.096414
O O5 0.794747 0.125206 0.043833
O O6 0.684120 0.213945 0.019641
O O7 0.350237 0.961845 0.610133
O O8 0.274781 0.924684 0.539914
O O9 0.451567 0.933494 0.548370
O O10 0.360007 0.023634 0.543507
O O11 0.625000 0.625000 0.742322
O O12 0.602445 0.678695 0.811548
O O13 0.740876 0.701565 0.761174
O O14 0.095932 0.900554 0.013015
#
# Coordination Sequence:
#
# PCOD8286195 Si02
#       8
#    16  32  32  32  32  32   8  32
#     4  10  21  36  62  89 118 159 196 243 310 348
#     4  11  22  35  55  89 122 165 189 237 299 370
#     4  10  24  41  61  90 114 158 206 257 299 344
#     4  10  22  36  55  88 123 155 194 242 293 363
#     4  11  23  35  62  85 127 151 200 246 298 366
#     4  10  23  40  62  84 117 154 206 253 297 353
#     4  12  18  36  52  76 132 150 192 234 296 352
#     4  11  22  40  61  87 122 160 201 242 305 360
#
# _framework density 18.980288999999999
#
# number of rings (size 3 to 8) (size 9 to 14) (size 15 to 20)
#    0.000    1.481    2.222    4.000   12.444    0.000 
#    0.000    0.000    0.000    0.000    0.000    0.000 
#    0.000    0.000    0.000    0.000    0.000    0.000 
#
# Total GULP energy -669148.969568 kJ/mol
# GULP energy per Si atom -12391.647585 kJ/mol
# Density = 1.893709 g / cm^3
# Si number density = 18.980289 Si / 1000 Ang^3
#
#
#
# Elastic Constant Matrix: (Units=GPa)
#
#
# Indices 1 2 3 4 5 6 
#
# 1 89.6444 46.9237 50.5170 0.0000 0.0000 0.0000
# 2 46.9237 86.3846 39.4773 0.0000 0.0000 0.0000
# 3 50.5170 39.4773 118.8805 0.0000 0.0000 0.0000
# 4 0.0000 0.0000 0.0000 27.3228 0.0000 0.0000
# 5 0.0000 0.0000 0.0000 0.0000 18.0338 0.0000
# 6 0.0000 0.0000 0.0000 0.0000 0.0000 21.0928
#
#
#
# Elastic Compliance Matrix: (Units=1/GPa)
#
#
# Indices 1 2 3 4 5 6 
#
# 1 0.017930 -0.007377 -0.005169 0.000000 0.000000 0.000000
# 2 -0.007377 0.016682 -0.002405 0.000000 0.000000 0.000000
# 3 -0.005169 -0.002405 0.011407 0.000000 0.000000 0.000000
# 4 0.000000 0.000000 0.000000 0.036599 0.000000 0.000000
# 5 0.000000 0.000000 0.000000 0.000000 0.055451 0.000000
# 6 0.000000 0.000000 0.000000 0.000000 0.000000 0.047409
#
#
# Mechanical properties :
#
#
# Convention : Reuss Voigt Hill
#
# Bulk Modulus (GPa) = 62.04821 63.19395 62.62108
# Shear Modulus (GPa) = 22.64964 23.82267 23.23615
#
# Velocity S-wave (km/s) = 3.45820 3.54662 3.50269
# Velocity P-wave (km/s) = 6.97907 7.08083 7.03013
#
# Compressibility (1/GPa) = 0.01611650
#
# Stress axis : x y z
#
# Youngs Moduli (GPa) = 55.77362 59.94363 87.66465
#
# Poissons Ratio (x) = 0.44220 0.45317
# Poissons Ratio (y) = 0.41144 0.21084
# Poissons Ratio (z) = 0.28831 0.14417
#
# Static dielectric constant tensor:
#      x y z
#    x 3.607840 0.000000 0.000000 
#    y 0.000000 3.380540 0.000000 
#    z 0.000000 0.000000 3.447480 
# 
# 
# High freq. dielectric constant tensor:
#      x y z
#    x 1.734280 0.000000 0.000000 
#    y 0.000000 1.737220 0.000000 
#    z 0.000000 0.000000 1.741410 
# 
# From -- ./inp_files/66056.got.cif
#   From: 2010.03.12/outbox.cif.g09.slc.cpg/sg70_34_cif.got.tgz:66056.got - 2010.04.16 13:46:32.
