data_PCOD8286684
_publ_section_title
;
Structure prediction by ZEFSAII (Michael W. Deem and Ramdas Pophale) SiO2 
 PCOD8286684
Probable space group: F D D D
;
_chemical_formula_sum "Si O2"
_cell_formula_units_Z 240
_cell_length_a 28.307340
_cell_length_b 18.918201
_cell_length_c 20.593044
_cell_angle_alpha 90.000000
_cell_angle_beta 90.000000
_cell_angle_gamma 90.000000
_cell_volume 11028.068222
_symmetry_space_group_name_H-M "F D D D"
_symmetry_group_IT_number 70
_space_group.IT_coordinate_system_code '2'
_symmetry_cell_setting 'orthorhombic'
loop_
_space_group_symop_operation_xyz
x,y,z
1/4-x,1/4-y,z
x,1/4-y,1/4-z
1/4-x,y,1/4-z
-x,-y,-z
3/4+x,3/4+y,-z
-x,3/4+y,3/4+z
3/4+x,-y,3/4+z
x,1/2+y,1/2+z
1/4-x,3/4-y,1/2+z
x,3/4-y,3/4-z
1/4-x,1/2+y,3/4-z
-x,1/2-y,1/2-z
3/4+x,1/4+y,1/2-z
-x,1/4+y,1/4+z
3/4+x,1/2-y,1/4+z
1/2+x,y,1/2+z
3/4-x,1/4-y,1/2+z
1/2+x,1/4-y,3/4-z
3/4-x,y,3/4-z
1/2-x,-y,1/2-z
1/4+x,3/4+y,1/2-z
1/2-x,3/4+y,1/4+z
1/4+x,-y,1/4+z
1/2+x,1/2+y,z
3/4-x,3/4-y,z
1/2+x,3/4-y,1/4-z
3/4-x,1/2+y,1/4-z
1/2-x,1/2-y,-z
1/4+x,1/4+y,-z
1/2-x,1/4+y,3/4+z
1/4+x,1/2-y,3/4+z
loop_
_atom_site_type_symbol
_atom_site_label
_atom_site_fract_x
_atom_site_fract_y
_atom_site_fract_z
Si Si1 0.621737 0.331203 0.195087
Si Si2 0.922870 0.765216 0.541531
Si Si3 0.452052 0.067462 0.463555
Si Si4 0.490101 0.201492 0.648376
Si Si5 0.775584 0.829675 0.653943
Si Si6 0.765866 0.673245 0.476895
Si Si7 0.625000 0.625000 0.879850
Si Si8 0.517424 0.678326 0.571902
O O1 0.625000 0.291563 0.125000
O O2 0.641368 0.296110 0.260132
O O3 0.649950 0.406428 0.191794
O O4 0.566192 0.333883 0.195468
O O5 0.964693 0.735648 0.586313
O O6 0.887420 0.809564 0.584710
O O7 0.941433 0.806329 0.478791
O O8 0.453608 0.051020 0.540742
O O9 0.491014 0.129065 0.452254
O O10 0.465016 0.998691 0.420413
O O11 0.508427 0.125000 0.625000
O O12 0.770439 0.855046 0.578855
O O13 0.830045 0.848247 0.673424
O O14 0.760286 0.747405 0.653242
O O15 0.750000 0.750000 0.500000
O O16 0.770890 0.620135 0.536453
O O17 0.539872 0.625000 0.625000
#
# Coordination Sequence:
#
# PCOD8286684 Si02
#       8
#    32  32  32  32  32  32  16  32
#     4  12  25  43  72 104 145 194 243 293 372 449
#     4  12  25  43  69 107 142 196 242 301 365 453
#     4  11  23  44  75 103 139 190 245 314 375 444
#     4  11  22  45  77 101 139 186 255 309 375 443
#     4  12  23  48  67 102 141 184 240 298 372 436
#     4  12  24  44  67  99 148 188 235 299 357 436
#     4  12  26  42  73  96 145 188 236 302 372 444
#     4  12  25  42  69 101 145 188 236 295 359 431
#
# _framework density 21.762651000000002
#
# number of rings (size 3 to 8) (size 9 to 14) (size 15 to 20)
#    0.000    0.267    8.000    0.800    0.000    1.067 
#    0.000    0.000    0.000    0.400    0.000    0.000 
#    0.000    0.000    0.000    0.000    0.000    0.000 
#
# Total GULP energy -743473.931360 kJ/mol
# GULP energy per Si atom -12391.232189 kJ/mol
# Density = 2.171312 g / cm^3
# Si number density = 21.762651 Si / 1000 Ang^3
#
#
#
# Elastic Constant Matrix: (Units=GPa)
#
#
# Indices 1 2 3 4 5 6 
#
# 1 104.4995 27.4439 6.5669 0.0000 0.0000 0.0000
# 2 27.4439 123.5327 23.9911 0.0000 0.0000 0.0000
# 3 6.5669 23.9911 84.9980 0.0000 0.0000 0.0000
# 4 0.0000 0.0000 0.0000-2621.2296 0.0000 0.0000
# 5 0.0000 0.0000 0.0000 0.0000 24.6951 0.0000
# 6 0.0000 0.0000 0.0000 0.0000 0.0000 25.2545
#
#
#
# Elastic Compliance Matrix: (Units=1/GPa)
#
#
# Indices 1 2 3 4 5 6 
#
# 1 0.010164 -0.002228 -0.000157 0.000000 0.000000 0.000000
# 2 -0.002228 0.009053 -0.002383 0.000000 0.000000 0.000000
# 3 -0.000157 -0.002383 0.012450 0.000000 0.000000 0.000000
# 4 0.000000 0.000000 0.000000 -0.000382 0.000000 0.000000
# 5 0.000000 0.000000 0.000000 0.000000 0.040494 0.000000
# 6 0.000000 0.000000 0.000000 0.000000 0.000000 0.039597
#
#
# Mechanical properties :
#
#
# Convention : Reuss Voigt Hill
#
# Bulk Modulus (GPa) = 45.18305 47.67045 46.42675
# Shear Modulus (GPa) = 38.97482 -497.25412 -229.13965
#
# Velocity S-wave (km/s) = 4.23650 -15.13227 -10.27224
# Velocity P-wave (km/s) = 6.68860 16.83336 10.92302
#
# Compressibility (1/GPa) = 0.02213219
#
# Stress axis : x y z
#
# Youngs Moduli (GPa) = 98.38357 110.46386 80.32319
#
# Poissons Ratio (x) = 0.24608 0.01257
# Poissons Ratio (y) = 0.21917 0.19142
# Poissons Ratio (z) = 0.01540 0.26324
#
# Static dielectric constant tensor:
#      x y z
#    x 3.807100 0.000000 0.000000 
#    y 0.000000 4.308910 0.000000 
#    z 0.000000 0.000000 4.282650 
# 
# 
# High freq. dielectric constant tensor:
#      x y z
#    x 1.836070 0.000000 0.000000 
#    y 0.000000 1.861610 0.000000 
#    z 0.000000 0.000000 1.871260 
# 
# From -- ./inp_files/47123.got.cif
#   From: 2010.03.12/outbox.cif.g09.slc.cpg/sg70_24_cif.got.tgz:47123.got - 2010.04.16 13:46:32.
