data_PCOD8286400
_publ_section_title
;
Structure prediction by ZEFSAII (Michael W. Deem and Ramdas Pophale) SiO2 
 PCOD8286400
Probable space group: F D D D
;
_chemical_formula_sum "Si O2"
_cell_formula_units_Z 176
_cell_length_a 27.565857
_cell_length_b 10.835815
_cell_length_c 27.595195
_cell_angle_alpha 90.000000
_cell_angle_beta 90.000000
_cell_angle_gamma 90.000000
_cell_volume 8242.644092
_symmetry_space_group_name_H-M "F D D D"
_symmetry_group_IT_number 70
_space_group.IT_coordinate_system_code '2'
_symmetry_cell_setting 'orthorhombic'
loop_
_space_group_symop_operation_xyz
x,y,z
1/4-x,1/4-y,z
x,1/4-y,1/4-z
1/4-x,y,1/4-z
-x,-y,-z
3/4+x,3/4+y,-z
-x,3/4+y,3/4+z
3/4+x,-y,3/4+z
x,1/2+y,1/2+z
1/4-x,3/4-y,1/2+z
x,3/4-y,3/4-z
1/4-x,1/2+y,3/4-z
-x,1/2-y,1/2-z
3/4+x,1/4+y,1/2-z
-x,1/4+y,1/4+z
3/4+x,1/2-y,1/4+z
1/2+x,y,1/2+z
3/4-x,1/4-y,1/2+z
1/2+x,1/4-y,3/4-z
3/4-x,y,3/4-z
1/2-x,-y,1/2-z
1/4+x,3/4+y,1/2-z
1/2-x,3/4+y,1/4+z
1/4+x,-y,1/4+z
1/2+x,1/2+y,z
3/4-x,3/4-y,z
1/2+x,3/4-y,1/4-z
3/4-x,1/2+y,1/4-z
1/2-x,1/2-y,-z
1/4+x,1/4+y,-z
1/2-x,1/4+y,3/4+z
1/4+x,1/2-y,3/4+z
loop_
_atom_site_type_symbol
_atom_site_label
_atom_site_fract_x
_atom_site_fract_y
_atom_site_fract_z
Si Si1 0.730296 0.393189 0.215989
Si Si2 0.375000 0.875000 0.644047
Si Si3 0.696070 0.468274 0.914332
Si Si4 0.796196 0.336015 0.723658
Si Si5 0.309909 0.587696 0.265432
Si Si6 0.864453 0.242938 0.430185
O O1 0.750000 0.500000 0.250000
O O2 0.769648 0.331853 0.180134
O O3 0.703426 0.293929 0.249587
O O4 0.691515 0.458621 0.182251
O O5 0.396236 0.768108 0.609500
O O6 0.419482 0.925665 0.676744
O O7 0.721032 0.375000 0.875000
O O8 0.683546 0.389507 0.961402
O O9 0.740898 0.372960 0.709515
O O10 0.815064 0.439971 0.761342
O O11 0.353359 0.634801 0.297871
O O12 0.875000 0.259415 0.375000
O O13 0.875000 0.375000 0.456686
#
# Coordination Sequence:
#
# PCOD8286400 Si02
#       6
#    32  16  32  32  32  32
#     4  11  26  46  69  99 139 185 232 283 360 425
#     4  12  24  38  72 112 134 178 234 288 348 414
#     4  11  25  43  70 105 141 178 234 296 352 421
#     4  10  22  42  69  98 135 177 225 280 359 410
#     4  10  22  44  69  95 143 180 221 296 350 416
#     4  11  25  43  67  94 132 182 233 277 344 421
#
# _framework density 21.352371000000002
#
# number of rings (size 3 to 8) (size 9 to 14) (size 15 to 20)
#    0.000    1.273    1.818    3.273    6.364    0.000 
#    0.000    0.909    0.000    0.000    0.000    0.000 
#    0.000    0.000    0.000    0.000    0.000    0.000 
#
# Total GULP energy -545553.863036 kJ/mol
# GULP energy per Si atom -12398.951433 kJ/mol
# Density = 2.130377 g / cm^3
# Si number density = 21.352371 Si / 1000 Ang^3
#
#
#
# Elastic Constant Matrix: (Units=GPa)
#
#
# Indices 1 2 3 4 5 6 
#
# 1 120.0153 54.8698 61.1408 0.0000 0.0000 0.0000
# 2 54.8698 153.9158 49.3501 0.0000 0.0000 0.0000
# 3 61.1408 49.3501 96.2265 0.0000 0.0000 0.0000
# 4 0.0000 0.0000 0.0000 27.5895 0.0000 0.0000
# 5 0.0000 0.0000 0.0000 0.0000 43.2820 0.0000
# 6 0.0000 0.0000 0.0000 0.0000 0.0000 71.6105
#
#
#
# Elastic Compliance Matrix: (Units=1/GPa)
#
#
# Indices 1 2 3 4 5 6 
#
# 1 0.013009 -0.002379 -0.007046 0.000000 0.000000 0.000000
# 2 -0.002379 0.008211 -0.002700 0.000000 0.000000 0.000000
# 3 -0.007046 -0.002700 0.016254 0.000000 0.000000 0.000000
# 4 0.000000 0.000000 0.000000 0.036246 0.000000 0.000000
# 5 0.000000 0.000000 0.000000 0.000000 0.023104 0.000000
# 6 0.000000 0.000000 0.000000 0.000000 0.000000 0.013964
#
#
# Mechanical properties :
#
#
# Convention : Reuss Voigt Hill
#
# Bulk Modulus (GPa) = 75.61345 77.87545 76.74445
# Shear Modulus (GPa) = 35.85662 42.14952 39.00307
#
# Velocity S-wave (km/s) = 4.10235 4.44779 4.27856
# Velocity P-wave (km/s) = 7.61105 7.93271 7.77354
#
# Compressibility (1/GPa) = 0.01322516
#
# Stress axis : x y z
#
# Youngs Moduli (GPa) = 76.86841 121.79471 61.52504
#
# Poissons Ratio (x) = 0.28969 0.43351
# Poissons Ratio (y) = 0.18283 0.16609
# Poissons Ratio (z) = 0.54162 0.32879
#
# Static dielectric constant tensor:
#      x y z
#    x 3.848420 0.000000 0.000000 
#    y 0.000000 3.726820 0.000000 
#    z 0.000000 0.000000 3.811420 
# 
# 
# High freq. dielectric constant tensor:
#      x y z
#    x 1.839100 0.000000 0.000000 
#    y 0.000000 1.854890 0.000000 
#    z 0.000000 0.000000 1.829750 
# 
# From -- ./inp_files/21175.got.cif
#   From: 2010.03.12/outbox.cif.g09.slc.cpg/sg70_11_cif.got.tgz:21175.got - 2010.04.16 13:46:32.
