data_PCOD8286850
_publ_section_title
;
Structure prediction by ZEFSAII (Michael W. Deem and Ramdas Pophale) SiO2 
 PCOD8286850
Probable space group: F D D D
;
_chemical_formula_sum "Si O2"
_cell_formula_units_Z 192
_cell_length_a 24.356540
_cell_length_b 11.907169
_cell_length_c 28.637184
_cell_angle_alpha 90.000000
_cell_angle_beta 90.000000
_cell_angle_gamma 90.000000
_cell_volume 8305.282736
_symmetry_space_group_name_H-M "F D D D"
_symmetry_group_IT_number 70
_space_group.IT_coordinate_system_code '2'
_symmetry_cell_setting 'orthorhombic'
loop_
_space_group_symop_operation_xyz
x,y,z
1/4-x,1/4-y,z
x,1/4-y,1/4-z
1/4-x,y,1/4-z
-x,-y,-z
3/4+x,3/4+y,-z
-x,3/4+y,3/4+z
3/4+x,-y,3/4+z
x,1/2+y,1/2+z
1/4-x,3/4-y,1/2+z
x,3/4-y,3/4-z
1/4-x,1/2+y,3/4-z
-x,1/2-y,1/2-z
3/4+x,1/4+y,1/2-z
-x,1/4+y,1/4+z
3/4+x,1/2-y,1/4+z
1/2+x,y,1/2+z
3/4-x,1/4-y,1/2+z
1/2+x,1/4-y,3/4-z
3/4-x,y,3/4-z
1/2-x,-y,1/2-z
1/4+x,3/4+y,1/2-z
1/2-x,3/4+y,1/4+z
1/4+x,-y,1/4+z
1/2+x,1/2+y,z
3/4-x,3/4-y,z
1/2+x,3/4-y,1/4-z
3/4-x,1/2+y,1/4-z
1/2-x,1/2-y,-z
1/4+x,1/4+y,-z
1/2-x,1/4+y,3/4+z
1/4+x,1/2-y,3/4+z
loop_
_atom_site_type_symbol
_atom_site_label
_atom_site_fract_x
_atom_site_fract_y
_atom_site_fract_z
Si Si1 0.486548 0.708079 0.449991
Si Si2 0.829246 0.963309 0.195306
Si Si3 0.484887 0.042342 0.801666
Si Si4 0.714204 0.375000 0.875000
Si Si5 0.671229 0.215591 0.445390
Si Si6 0.374275 0.120042 0.772321
Si Si7 0.783776 0.625000 0.125000
O O1 0.519814 0.594341 0.440036
O O2 0.505348 0.734888 0.502162
O O3 0.421586 0.684443 0.447556
O O4 0.497193 0.808657 0.413424
O O5 0.875000 0.875000 0.180325
O O6 0.828094 0.064237 0.159108
O O7 0.844590 0.017283 0.245264
O O8 0.519959 0.156164 0.799868
O O9 0.420377 0.071035 0.807045
O O10 0.498885 0.960876 0.844754
O O11 0.625000 0.125000 0.435875
O O12 0.655748 0.291523 0.489439
O O13 0.675051 0.290554 0.399744
#
# Coordination Sequence:
#
# PCOD8286850 Si02
#       7
#    32  32  32  16  32  32  16
#     4  12  26  49  76 107 149 197 251 311 379 453
#     4  12  25  47  77 110 147 192 254 313 376 447
#     4  12  26  49  76 107 149 197 251 311 379 453
#     4  12  28  47  73 114 152 194 253 315 380 454
#     4  12  25  47  77 110 147 192 254 313 376 447
#     4  12  26  47  79 108 150 200 248 312 382 450
#     4  12  28  47  73 114 152 194 253 315 380 454
#
# _framework density 23.117816999999999
#
# number of rings (size 3 to 8) (size 9 to 14) (size 15 to 20)
#    0.000    0.000    6.667    2.000    0.000   10.000 
#    0.000    5.000    0.000    0.000    0.000    0.000 
#    0.000    0.000    0.000    0.000    0.000    0.000 
#
# Total GULP energy -595250.762030 kJ/mol
# GULP energy per Si atom -12401.057542 kJ/mol
# Density = 2.306520 g / cm^3
# Si number density = 23.117817 Si / 1000 Ang^3
#
#
#
# Elastic Constant Matrix: (Units=GPa)
#
#
# Indices 1 2 3 4 5 6 
#
# 1 112.0687 22.6184 26.0515 0.0000 0.0000 0.0000
# 2 22.6184 89.8456 23.9790 0.0000 0.0000 0.0000
# 3 26.0515 23.9790 73.6381 0.0000 0.0000 0.0000
# 4 0.0000 0.0000 0.0000 16.5540 0.0000 0.0000
# 5 0.0000 0.0000 0.0000 0.0000 62.8372 0.0000
# 6 0.0000 0.0000 0.0000 0.0000 0.0000 -34.9958
#
#
#
# Elastic Compliance Matrix: (Units=1/GPa)
#
#
# Indices 1 2 3 4 5 6 
#
# 1 0.009958 -0.001716 -0.002964 0.000000 0.000000 0.000000
# 2 -0.001716 0.012485 -0.003459 0.000000 0.000000 0.000000
# 3 -0.002964 -0.003459 0.015755 0.000000 0.000000 0.000000
# 4 0.000000 0.000000 0.000000 0.060408 0.000000 0.000000
# 5 0.000000 0.000000 0.000000 0.000000 0.015914 0.000000
# 6 0.000000 0.000000 0.000000 0.000000 0.000000 -0.028575
#
#
# Mechanical properties :
#
#
# Convention : Reuss Voigt Hill
#
# Bulk Modulus (GPa) = 45.61831 46.76114 46.18972
# Shear Modulus (GPa) = 45.64931 22.40600 34.02766
#
# Velocity S-wave (km/s) = 4.44851 3.11659 3.84073
# Velocity P-wave (km/s) = 6.79422 5.76386 6.30014
#
# Compressibility (1/GPa) = 0.02192102
#
# Stress axis : x y z
#
# Youngs Moduli (GPa) = 100.41682 80.09463 63.47247
#
# Poissons Ratio (x) = 0.13743 0.18815
# Poissons Ratio (y) = 0.17230 0.21952
# Poissons Ratio (z) = 0.29767 0.27701
#
# Static dielectric constant tensor:
#      x y z
#    x 3.417750 0.000000 0.000000 
#    y 0.000000 4.979080 0.000000 
#    z 0.000000 0.000000 4.060100 
# 
# 
# High freq. dielectric constant tensor:
#      x y z
#    x 1.920800 0.000000 0.000000 
#    y 0.000000 1.936120 0.000000 
#    z 0.000000 0.000000 1.904900 
# 
# From -- ./inp_files/68408.got.cif
#   From: 2010.03.12/outbox.cif.g09.slc.cpg/sg70_35_cif.got.tgz:68408.got - 2010.04.16 13:46:32.
