data_PCOD8286146
_publ_section_title
;
Structure prediction by ZEFSAII (Michael W. Deem and Ramdas Pophale) SiO2 
 PCOD8286146
Probable space group: F D D D
;
_chemical_formula_sum "Si O2"
_cell_formula_units_Z 240
_cell_length_a 25.098174
_cell_length_b 17.214422
_cell_length_c 26.673735
_cell_angle_alpha 90.000000
_cell_angle_beta 90.000000
_cell_angle_gamma 90.000000
_cell_volume 11524.402108
_symmetry_space_group_name_H-M "F D D D"
_symmetry_group_IT_number 70
_space_group.IT_coordinate_system_code '2'
_symmetry_cell_setting 'orthorhombic'
loop_
_space_group_symop_operation_xyz
x,y,z
1/4-x,1/4-y,z
x,1/4-y,1/4-z
1/4-x,y,1/4-z
-x,-y,-z
3/4+x,3/4+y,-z
-x,3/4+y,3/4+z
3/4+x,-y,3/4+z
x,1/2+y,1/2+z
1/4-x,3/4-y,1/2+z
x,3/4-y,3/4-z
1/4-x,1/2+y,3/4-z
-x,1/2-y,1/2-z
3/4+x,1/4+y,1/2-z
-x,1/4+y,1/4+z
3/4+x,1/2-y,1/4+z
1/2+x,y,1/2+z
3/4-x,1/4-y,1/2+z
1/2+x,1/4-y,3/4-z
3/4-x,y,3/4-z
1/2-x,-y,1/2-z
1/4+x,3/4+y,1/2-z
1/2-x,3/4+y,1/4+z
1/4+x,-y,1/4+z
1/2+x,1/2+y,z
3/4-x,3/4-y,z
1/2+x,3/4-y,1/4-z
3/4-x,1/2+y,1/4-z
1/2-x,1/2-y,-z
1/4+x,1/4+y,-z
1/2-x,1/4+y,3/4+z
1/4+x,1/2-y,3/4+z
loop_
_atom_site_type_symbol
_atom_site_label
_atom_site_fract_x
_atom_site_fract_y
_atom_site_fract_z
Si Si1 0.363820 0.214804 0.123938
Si Si2 0.416810 0.760511 0.950128
Si Si3 0.232408 0.475289 0.805688
Si Si4 0.965218 0.958906 0.577967
Si Si5 0.527970 0.297814 0.955224
Si Si6 0.447172 0.931091 0.965239
Si Si7 0.625000 0.402969 0.625000
Si Si8 0.720919 0.315834 0.646159
O O1 0.381094 0.125000 0.125000
O O2 0.330629 0.238178 0.072565
O O3 0.416414 0.264903 0.136182
O O4 0.324139 0.232397 0.168908
O O5 0.439624 0.846258 0.940496
O O6 0.353878 0.763469 0.961122
O O7 0.419555 0.706977 0.901325
O O8 0.450852 0.710491 0.988918
O O9 0.250000 0.500000 0.750000
O O10 0.241923 0.383221 0.808300
O O11 0.272130 0.516847 0.844694
O O12 0.951836 0.919226 0.524701
O O13 0.991249 0.890618 0.609647
O O14 0.003182 0.031711 0.563974
O O15 0.480217 0.237836 0.944932
O O16 0.661089 0.344994 0.657720
#
# Coordination Sequence:
#
# PCOD8286146 Si02
#       8
#    32  32  32  32  32  32  16  32
#     4   9  20  36  65  96 125 168 218 268 323 391
#     4  11  21  39  62  89 135 179 219 265 328 397
#     4  10  22  42  67  93 125 164 213 283 345 392
#     4  11  20  39  63 101 131 172 224 268 331 395
#     4  10  20  41  68  92 120 172 220 273 336 394
#     4  10  22  35  63  95 137 176 219 272 314 410
#     4  12  26  41  61  96 134 182 218 270 337 412
#     4  11  23  41  67  92 126 172 222 273 331 405
#
# _framework density 20.825375999999999
#
# number of rings (size 3 to 8) (size 9 to 14) (size 15 to 20)
#    0.000    1.600    4.000    2.000    0.000    4.267 
#    0.000    1.333   14.667    0.000    0.000    0.000 
#    0.000    0.000    0.000    0.000    0.000    0.000 
#
# Total GULP energy -743315.717460 kJ/mol
# GULP energy per Si atom -12388.595291 kJ/mol
# Density = 2.077798 g / cm^3
# Si number density = 20.825376 Si / 1000 Ang^3
#
#
#
# Elastic Constant Matrix: (Units=GPa)
#
#
# Indices 1 2 3 4 5 6 
#
# 1 86.8474 61.9630 36.4509 0.0000 0.0000 0.0000
# 2 61.9630 118.8417 42.6500 0.0000 0.0000 0.0000
# 3 36.4509 42.6500 105.4893 0.0000 0.0000 0.0000
# 4 0.0000 0.0000 0.0000 29.4528 0.0000 0.0000
# 5 0.0000 0.0000 0.0000 0.0000 38.7542 0.0000
# 6 0.0000 0.0000 0.0000 0.0000 0.0000 27.0424
#
#
#
# Elastic Compliance Matrix: (Units=1/GPa)
#
#
# Indices 1 2 3 4 5 6 
#
# 1 0.019120 -0.008888 -0.003014 0.000000 0.000000 0.000000
# 2 -0.008888 0.013974 -0.002579 0.000000 0.000000 0.000000
# 3 -0.003014 -0.002579 0.011564 0.000000 0.000000 0.000000
# 4 0.000000 0.000000 0.000000 0.033953 0.000000 0.000000
# 5 0.000000 0.000000 0.000000 0.000000 0.025804 0.000000
# 6 0.000000 0.000000 0.000000 0.000000 0.000000 0.036979
#
#
# Mechanical properties :
#
#
# Convention : Reuss Voigt Hill
#
# Bulk Modulus (GPa) = 63.70230 65.92289 64.81260
# Shear Modulus (GPa) = 28.47614 30.39084 29.43349
#
# Velocity S-wave (km/s) = 3.70182 3.82425 3.76353
# Velocity P-wave (km/s) = 6.99475 7.15707 7.07637
#
# Compressibility (1/GPa) = 0.01569802
#
# Stress axis : x y z
#
# Youngs Moduli (GPa) = 52.30025 71.56168 86.47890
#
# Poissons Ratio (x) = 0.63602 0.26061
# Poissons Ratio (y) = 0.46483 0.22300
# Poissons Ratio (z) = 0.15761 0.18454
#
# Static dielectric constant tensor:
#      x y z
#    x 3.810200 0.000000 0.000000 
#    y 0.000000 3.932100 0.000000 
#    z 0.000000 0.000000 3.829640 
# 
# 
# High freq. dielectric constant tensor:
#      x y z
#    x 1.802860 0.000000 0.000000 
#    y 0.000000 1.830350 0.000000 
#    z 0.000000 0.000000 1.803870 
# 
# From -- ./inp_files/61867.got.cif
#   From: 2010.03.12/outbox.cif.g09.slc.cpg/sg70_31_cif.got.tgz:61867.got - 2010.04.16 13:46:32.
