data_PCOD8286497
_publ_section_title
;
Structure prediction by ZEFSAII (Michael W. Deem and Ramdas Pophale) SiO2 
 PCOD8286497
Probable space group: F D D D
;
_chemical_formula_sum "Si O2"
_cell_formula_units_Z 80
_cell_length_a 5.186458
_cell_length_b 27.040417
_cell_length_c 23.896727
_cell_angle_alpha 90.000000
_cell_angle_beta 90.000000
_cell_angle_gamma 90.000000
_cell_volume 3351.372272
_symmetry_space_group_name_H-M "F D D D"
_symmetry_group_IT_number 70
_space_group.IT_coordinate_system_code '2'
_symmetry_cell_setting 'orthorhombic'
loop_
_space_group_symop_operation_xyz
x,y,z
1/4-x,1/4-y,z
x,1/4-y,1/4-z
1/4-x,y,1/4-z
-x,-y,-z
3/4+x,3/4+y,-z
-x,3/4+y,3/4+z
3/4+x,-y,3/4+z
x,1/2+y,1/2+z
1/4-x,3/4-y,1/2+z
x,3/4-y,3/4-z
1/4-x,1/2+y,3/4-z
-x,1/2-y,1/2-z
3/4+x,1/4+y,1/2-z
-x,1/4+y,1/4+z
3/4+x,1/2-y,1/4+z
1/2+x,y,1/2+z
3/4-x,1/4-y,1/2+z
1/2+x,1/4-y,3/4-z
3/4-x,y,3/4-z
1/2-x,-y,1/2-z
1/4+x,3/4+y,1/2-z
1/2-x,3/4+y,1/4+z
1/4+x,-y,1/4+z
1/2+x,1/2+y,z
3/4-x,3/4-y,z
1/2+x,3/4-y,1/4-z
3/4-x,1/2+y,1/4-z
1/2-x,1/2-y,-z
1/4+x,1/4+y,-z
1/2-x,1/4+y,3/4+z
1/4+x,1/2-y,3/4+z
loop_
_atom_site_type_symbol
_atom_site_label
_atom_site_fract_x
_atom_site_fract_y
_atom_site_fract_z
Si Si1 0.638501 0.182105 0.446024
Si Si2 0.110523 0.182080 0.732363
Si Si3 0.375000 0.252306 0.375000
O O1 0.625000 0.125000 0.427041
O O2 0.380548 0.195419 0.479550
O O3 0.620335 0.216527 0.390468
O O4 0.880817 0.196269 0.484183
O O5 0.125000 0.125000 0.715121
O O6 0.063454 0.212700 0.676684
#
# Coordination Sequence:
#
# PCOD8286497 Si02
#       3
#    32  32  16
#     4  10  24  42  61  91 132 167 208 262 315 374
#     4  10  23  43  63  93 131 165 206 262 317 376
#     4  12  23  40  70  96 120 170 217 256 314 380
#
# _framework density 23.870819000000001
#
# number of rings (size 3 to 8) (size 9 to 14) (size 15 to 20)
#    0.000    1.600    0.000    3.000    0.000   11.200 
#    0.000    6.000    0.000    0.000    0.000    0.000 
#    0.000    0.000    0.000    0.000    0.000    0.000 
#
# Total GULP energy -247980.367002 kJ/mol
# GULP energy per Si atom -12399.018350 kJ/mol
# Density = 2.381649 g / cm^3
# Si number density = 23.870819 Si / 1000 Ang^3
#
#
#
# Elastic Constant Matrix: (Units=GPa)
#
#
# Indices 1 2 3 4 5 6 
#
# 1 181.4912 61.5786 76.6345 0.0000 0.0000 0.0000
# 2 61.5786 126.4046 102.1211 0.0000 0.0000 0.0000
# 3 76.6345 102.1211 155.9258 0.0000 0.0000 0.0000
# 4 0.0000 0.0000 0.0000 -131.8661 0.0000 0.0000
# 5 0.0000 0.0000 0.0000 0.0000 16.1236 0.0000
# 6 0.0000 0.0000 0.0000 0.0000 0.0000 17.8790
#
#
#
# Elastic Compliance Matrix: (Units=1/GPa)
#
#
# Indices 1 2 3 4 5 6 
#
# 1 0.007060 -0.001351 -0.002585 0.000000 0.000000 0.000000
# 2 -0.001351 0.017059 -0.010509 0.000000 0.000000 0.000000
# 3 -0.002585 -0.010509 0.014566 0.000000 0.000000 0.000000
# 4 0.000000 0.000000 0.000000 -0.007583 0.000000 0.000000
# 5 0.000000 0.000000 0.000000 0.000000 0.062021 0.000000
# 6 0.000000 0.000000 0.000000 0.000000 0.000000 0.055932
#
#
# Mechanical properties :
#
#
# Convention : Reuss Voigt Hill
#
# Bulk Modulus (GPa) = 102.08153 104.94334 103.51243
# Shear Modulus (GPa) = 27.59258 -4.67355 11.45952
#
# Velocity S-wave (km/s) = 3.40356 -1.40075 2.19341
# Velocity P-wave (km/s) = 7.63561 6.43757 7.06204
#
# Compressibility (1/GPa) = 0.00979609
#
# Stress axis : x y z
#
# Youngs Moduli (GPa) = 141.64804 58.62034 68.65171
#
# Poissons Ratio (x) = 0.07918 0.17747
# Poissons Ratio (y) = 0.19133 0.72143
# Poissons Ratio (z) = 0.36617 0.61602
#
# Static dielectric constant tensor:
#      x y z
#    x 4.328070 0.000000 0.000000 
#    y 0.000000 4.941820 0.000000 
#    z 0.000000 0.000000 4.415490 
# 
# 
# High freq. dielectric constant tensor:
#      x y z
#    x 1.946520 0.000000 0.000000 
#    y 0.000000 1.979730 0.000000 
#    z 0.000000 0.000000 1.947630 
# 
# From -- ./inp_files/2423.got.cif
#   From: 2010.03.12/outbox.cif.g09.slc.cpg/sg70_2_cif.got.tgz:2423.got - 2010.04.16 13:46:32.
