data_PCOD8286318
_publ_section_title
;
Structure prediction by ZEFSAII (Michael W. Deem and Ramdas Pophale) SiO2 
 PCOD8286318
Probable space group: F D D D
;
_chemical_formula_sum "Si O2"
_cell_formula_units_Z 128
_cell_length_a 16.213940
_cell_length_b 18.291054
_cell_length_c 20.131465
_cell_angle_alpha 90.000000
_cell_angle_beta 90.000000
_cell_angle_gamma 90.000000
_cell_volume 5970.389624
_symmetry_space_group_name_H-M "F D D D"
_symmetry_group_IT_number 70
_space_group.IT_coordinate_system_code '2'
_symmetry_cell_setting 'orthorhombic'
loop_
_space_group_symop_operation_xyz
x,y,z
1/4-x,1/4-y,z
x,1/4-y,1/4-z
1/4-x,y,1/4-z
-x,-y,-z
3/4+x,3/4+y,-z
-x,3/4+y,3/4+z
3/4+x,-y,3/4+z
x,1/2+y,1/2+z
1/4-x,3/4-y,1/2+z
x,3/4-y,3/4-z
1/4-x,1/2+y,3/4-z
-x,1/2-y,1/2-z
3/4+x,1/4+y,1/2-z
-x,1/4+y,1/4+z
3/4+x,1/2-y,1/4+z
1/2+x,y,1/2+z
3/4-x,1/4-y,1/2+z
1/2+x,1/4-y,3/4-z
3/4-x,y,3/4-z
1/2-x,-y,1/2-z
1/4+x,3/4+y,1/2-z
1/2-x,3/4+y,1/4+z
1/4+x,-y,1/4+z
1/2+x,1/2+y,z
3/4-x,3/4-y,z
1/2+x,3/4-y,1/4-z
3/4-x,1/2+y,1/4-z
1/2-x,1/2-y,-z
1/4+x,1/4+y,-z
1/2-x,1/4+y,3/4+z
1/4+x,1/2-y,3/4+z
loop_
_atom_site_type_symbol
_atom_site_label
_atom_site_fract_x
_atom_site_fract_y
_atom_site_fract_z
Si Si1 0.189576 0.758231 0.677404
Si Si2 0.377648 0.204170 0.590419
Si Si3 0.189411 0.564808 0.436413
Si Si4 0.377603 0.665229 0.944795
O O1 0.125000 0.725214 0.625000
O O2 0.281406 0.738619 0.654127
O O3 0.161391 0.725928 0.747255
O O4 0.180936 0.845796 0.682343
O O5 0.377380 0.125000 0.625000
O O6 0.310431 0.255003 0.627074
O O7 0.349390 0.204019 0.512816
O O8 0.125000 0.625000 0.414803
O O9 0.275813 0.604668 0.451840
O O10 0.375000 0.712637 0.875000
#
# Coordination Sequence:
#
# PCOD8286318 Si02
#       4
#    32  32  32  32
#     4  10  22  36  59  92 129 157 195 247 311 370
#     4  11  23  40  63  92 124 159 204 249 305 361
#     4  11  23  37  61  91 123 164 203 248 306 363
#     4  10  22  42  62  87 121 162 207 250 300 357
#
# _framework density 21.439136999999999
#
# number of rings (size 3 to 8) (size 9 to 14) (size 15 to 20)
#    0.000    1.500    2.500    3.000    7.000    3.000 
#    0.000    0.000    0.000    0.000    0.000    0.000 
#    0.000    0.000    0.000    0.000    0.000    0.000 
#
# Total GULP energy -396527.822992 kJ/mol
# GULP energy per Si atom -12391.494469 kJ/mol
# Density = 2.139034 g / cm^3
# Si number density = 21.439137 Si / 1000 Ang^3
#
#
#
# Elastic Constant Matrix: (Units=GPa)
#
#
# Indices 1 2 3 4 5 6 
#
# 1 23.6231 4.3058 -7.2708 0.0000 0.0000 0.0000
# 2 4.3058 66.8475 15.9717 0.0000 0.0000 0.0000
# 3 -7.2708 15.9717 172.1286 0.0000 0.0000 0.0000
# 4 0.0000 0.0000 0.0000 16.5337 0.0000 0.0000
# 5 0.0000 0.0000 0.0000 0.0000 32.3810 0.0000
# 6 0.0000 0.0000 0.0000 0.0000 0.0000 26.0326
#
#
#
# Elastic Compliance Matrix: (Units=1/GPa)
#
#
# Indices 1 2 3 4 5 6 
#
# 1 0.043599 -0.003322 0.002150 0.000000 0.000000 0.000000
# 2 -0.003322 0.015552 -0.001583 0.000000 0.000000 0.000000
# 3 0.002150 -0.001583 0.006047 0.000000 0.000000 0.000000
# 4 0.000000 0.000000 0.000000 0.060483 0.000000 0.000000
# 5 0.000000 0.000000 0.000000 0.000000 0.030882 0.000000
# 6 0.000000 0.000000 0.000000 0.000000 0.000000 0.038413
#
#
# Mechanical properties :
#
#
# Convention : Reuss Voigt Hill
#
# Bulk Modulus (GPa) = 16.75413 32.06806 24.41109
# Shear Modulus (GPa) = 22.68786 31.62897 27.15841
#
# Velocity S-wave (km/s) = 3.25660 3.84512 3.56303
# Velocity P-wave (km/s) = 4.68746 5.89096 5.32333
#
# Compressibility (1/GPa) = 0.05968679
#
# Stress axis : x y z
#
# Youngs Moduli (GPa) = 22.93655 64.30165 165.36195
#
# Poissons Ratio (x) = 0.21360 -0.35551
# Poissons Ratio (y) = 0.07619 0.26183
# Poissons Ratio (z) = -0.04931 0.10181
#
# Static dielectric constant tensor:
#      x y z
#    x 3.711700 0.000000 0.000000 
#    y 0.000000 3.663830 0.000000 
#    z 0.000000 0.000000 4.565170 
# 
# 
# High freq. dielectric constant tensor:
#      x y z
#    x 1.831850 0.000000 0.000000 
#    y 0.000000 1.813670 0.000000 
#    z 0.000000 0.000000 1.874140 
# 
# From -- ./inp_files/34831.got.cif
#   From: 2010.03.12/outbox.cif.g09.slc.cpg/sg70_18_cif.got.tgz:34831.got - 2010.04.16 13:46:32.
