data_PCOD8286298
_publ_section_title
;
Structure prediction by ZEFSAII (Michael W. Deem and Ramdas Pophale) SiO2 
 PCOD8286298
Probable space group: F D D D
;
_chemical_formula_sum "Si O2"
_cell_formula_units_Z 168
_cell_length_a 27.392998
_cell_length_b 20.054914
_cell_length_c 15.102411
_cell_angle_alpha 90.000000
_cell_angle_beta 90.000000
_cell_angle_gamma 90.000000
_cell_volume 8296.724225
_symmetry_space_group_name_H-M "F D D D"
_symmetry_group_IT_number 70
_space_group.IT_coordinate_system_code '2'
_symmetry_cell_setting 'orthorhombic'
loop_
_space_group_symop_operation_xyz
x,y,z
1/4-x,1/4-y,z
x,1/4-y,1/4-z
1/4-x,y,1/4-z
-x,-y,-z
3/4+x,3/4+y,-z
-x,3/4+y,3/4+z
3/4+x,-y,3/4+z
x,1/2+y,1/2+z
1/4-x,3/4-y,1/2+z
x,3/4-y,3/4-z
1/4-x,1/2+y,3/4-z
-x,1/2-y,1/2-z
3/4+x,1/4+y,1/2-z
-x,1/4+y,1/4+z
3/4+x,1/2-y,1/4+z
1/2+x,y,1/2+z
3/4-x,1/4-y,1/2+z
1/2+x,1/4-y,3/4-z
3/4-x,y,3/4-z
1/2-x,-y,1/2-z
1/4+x,3/4+y,1/2-z
1/2-x,3/4+y,1/4+z
1/4+x,-y,1/4+z
1/2+x,1/2+y,z
3/4-x,3/4-y,z
1/2+x,3/4-y,1/4-z
3/4-x,1/2+y,1/4-z
1/2-x,1/2-y,-z
1/4+x,1/4+y,-z
1/2-x,1/4+y,3/4+z
1/4+x,1/2-y,3/4+z
loop_
_atom_site_type_symbol
_atom_site_label
_atom_site_fract_x
_atom_site_fract_y
_atom_site_fract_z
Si Si1 0.583034 0.544089 0.965189
Si Si2 0.995077 0.856434 0.095636
Si Si3 0.173324 0.382149 0.239167
Si Si4 0.125000 0.125000 0.125000
Si Si5 0.179704 0.854174 0.473445
Si Si6 0.429148 0.513089 0.629919
O O1 0.592341 0.578659 0.060658
O O2 0.548763 0.590212 0.904016
O O3 0.556583 0.473749 0.980885
O O4 0.632855 0.531258 0.910496
O O5 0.976328 0.783753 0.119641
O O6 0.039087 0.876725 0.159810
O O7 0.021603 0.855346 0.999503
O O8 0.116552 0.369830 0.212523
O O9 0.189252 0.324088 0.305593
O O10 0.174917 0.456544 0.281371
O O11 0.162663 0.875000 0.375000
#
# Coordination Sequence:
#
# PCOD8286298 Si02
#       6
#    32  32  32   8  32  32
#     4  11  24  41  61  93 132 166 202 259 326 383
#     4  12  24  35  66  98 114 164 216 268 304 386
#     4  10  22  42  63  82 127 166 208 261 316 377
#     4  12  24  40  68  92 140 166 200 262 336 392
#     4  11  24  42  61  87 130 170 211 261 321 385
#     4  10  21  43  61  87 127 167 202 260 324 375
#
# _framework density 20.248956
#
# number of rings (size 3 to 8) (size 9 to 14) (size 15 to 20)
#    0.000    1.143    5.714    1.714    9.333    0.000 
#    0.000    0.000    0.000    0.000    0.000    5.333 
#    0.000    0.000    0.000    0.000    0.000    0.000 
#
# Total GULP energy -520619.032713 kJ/mol
# GULP energy per Si atom -12395.691255 kJ/mol
# Density = 2.020287 g / cm^3
# Si number density = 20.248956 Si / 1000 Ang^3
#
#
#
# Elastic Constant Matrix: (Units=GPa)
#
#
# Indices 1 2 3 4 5 6 
#
# 1 100.4491 54.0153 37.4737 0.0000 0.0000 0.0000
# 2 54.0153 124.6604 29.5463 0.0000 0.0000 0.0000
# 3 37.4737 29.5463 64.3279 0.0000 0.0000 0.0000
# 4 0.0000 0.0000 0.0000 19.0272 0.0000 0.0000
# 5 0.0000 0.0000 0.0000 0.0000 32.2062 0.0000
# 6 0.0000 0.0000 0.0000 0.0000 0.0000 28.6535
#
#
#
# Elastic Compliance Matrix: (Units=1/GPa)
#
#
# Indices 1 2 3 4 5 6 
#
# 1 0.015054 -0.004987 -0.006479 0.000000 0.000000 0.000000
# 2 -0.004987 0.010654 -0.001988 0.000000 0.000000 0.000000
# 3 -0.006479 -0.001988 0.020233 0.000000 0.000000 0.000000
# 4 0.000000 0.000000 0.000000 0.052556 0.000000 0.000000
# 5 0.000000 0.000000 0.000000 0.000000 0.031050 0.000000
# 6 0.000000 0.000000 0.000000 0.000000 0.000000 0.034900
#
#
# Mechanical properties :
#
#
# Convention : Reuss Voigt Hill
#
# Bulk Modulus (GPa) = 52.54283 59.05644 55.79964
# Shear Modulus (GPa) = 25.29081 27.20416 26.24748
#
# Velocity S-wave (km/s) = 3.53794 3.66933 3.60424
# Velocity P-wave (km/s) = 6.53408 6.86881 6.70353
#
# Compressibility (1/GPa) = 0.01903209
#
# Stress axis : x y z
#
# Youngs Moduli (GPa) = 66.42629 93.86106 49.42471
#
# Poissons Ratio (x) = 0.46812 0.32022
# Poissons Ratio (y) = 0.33129 0.09826
# Poissons Ratio (z) = 0.43038 0.18661
#
# Static dielectric constant tensor:
#      x y z
#    x 3.700270 0.000000 0.000000 
#    y 0.000000 3.849590 0.000000 
#    z 0.000000 0.000000 3.547100 
# 
# 
# High freq. dielectric constant tensor:
#      x y z
#    x 1.800780 0.000000 0.000000 
#    y 0.000000 1.796860 0.000000 
#    z 0.000000 0.000000 1.774950 
# 
# From -- ./inp_files/29841.got.cif
#   From: 2010.03.12/outbox.cif.g09.slc.cpg/sg70_15_cif.got.tgz:29841.got - 2010.04.16 13:46:32.
