data_PCOD8286246
_publ_section_title
;
Structure prediction by ZEFSAII (Michael W. Deem and Ramdas Pophale) SiO2 
 PCOD8286246
Probable space group: F D D D
;
_chemical_formula_sum "Si O2"
_cell_formula_units_Z 152
_cell_length_a 25.228576
_cell_length_b 13.339455
_cell_length_c 21.399593
_cell_angle_alpha 90.000000
_cell_angle_beta 90.000000
_cell_angle_gamma 90.000000
_cell_volume 7201.721751
_symmetry_space_group_name_H-M "F D D D"
_symmetry_group_IT_number 70
_space_group.IT_coordinate_system_code '2'
_symmetry_cell_setting 'orthorhombic'
loop_
_space_group_symop_operation_xyz
x,y,z
1/4-x,1/4-y,z
x,1/4-y,1/4-z
1/4-x,y,1/4-z
-x,-y,-z
3/4+x,3/4+y,-z
-x,3/4+y,3/4+z
3/4+x,-y,3/4+z
x,1/2+y,1/2+z
1/4-x,3/4-y,1/2+z
x,3/4-y,3/4-z
1/4-x,1/2+y,3/4-z
-x,1/2-y,1/2-z
3/4+x,1/4+y,1/2-z
-x,1/4+y,1/4+z
3/4+x,1/2-y,1/4+z
1/2+x,y,1/2+z
3/4-x,1/4-y,1/2+z
1/2+x,1/4-y,3/4-z
3/4-x,y,3/4-z
1/2-x,-y,1/2-z
1/4+x,3/4+y,1/2-z
1/2-x,3/4+y,1/4+z
1/4+x,-y,1/4+z
1/2+x,1/2+y,z
3/4-x,3/4-y,z
1/2+x,3/4-y,1/4-z
3/4-x,1/2+y,1/4-z
1/2-x,1/2-y,-z
1/4+x,1/4+y,-z
1/2-x,1/4+y,3/4+z
1/4+x,1/2-y,3/4+z
loop_
_atom_site_type_symbol
_atom_site_label
_atom_site_fract_x
_atom_site_fract_y
_atom_site_fract_z
Si Si1 0.045997 0.102997 0.726690
Si Si2 0.998209 0.625000 0.625000
Si Si3 0.186228 0.318745 0.123672
Si Si4 0.063751 0.826103 0.249090
Si Si5 0.875000 0.375000 0.875000
Si Si6 0.681964 0.355664 0.261888
O O1 0.068569 0.205718 0.756617
O O2 0.083709 0.063730 0.668822
O O3 0.984058 0.125545 0.709729
O O4 0.051788 0.010813 0.773889
O O5 0.961861 0.586944 0.567283
O O6 0.034130 0.531635 0.644043
O O7 0.125000 0.291310 0.125000
O O8 0.198458 0.403780 0.175647
O O9 0.203530 0.357125 0.055147
O O10 0.119064 0.874982 0.270027
#
# Coordination Sequence:
#
# PCOD8286246 Si02
#       6
#    32  16  32  32   8  32
#     4  11  21  36  63  94 126 154 210 251 310 370
#     4  12  23  41  60  88 125 161 200 262 302 366
#     4  10  22  40  65  88 115 162 213 249 309 372
#     4  10  21  39  63  94 121 163 200 260 314 369
#     4  12  20  34  64  92 122 170 196 250 302 392
#     4  11  22  39  64  89 124 162 206 255 313 369
#
# _framework density 21.106064
#
# number of rings (size 3 to 8) (size 9 to 14) (size 15 to 20)
#    0.000    1.263    4.211    2.211    2.947    0.842 
#    0.000    0.000    0.000    0.000    0.000    0.000 
#    0.000    0.000    0.000    0.000    0.000    0.000 
#
# Total GULP energy -470918.834069 kJ/mol
# GULP energy per Si atom -12392.600897 kJ/mol
# Density = 2.105803 g / cm^3
# Si number density = 21.106064 Si / 1000 Ang^3
#
#
#
# Elastic Constant Matrix: (Units=GPa)
#
#
# Indices 1 2 3 4 5 6 
#
# 1 108.5830 30.7617 37.3039 0.0000 0.0000 0.0000
# 2 30.7617 59.9492 16.6019 0.0000 0.0000 0.0000
# 3 37.3039 16.6019 89.1365 0.0000 0.0000 0.0000
# 4 0.0000 0.0000 0.0000 18.0772 0.0000 0.0000
# 5 0.0000 0.0000 0.0000 0.0000 36.7284 0.0000
# 6 0.0000 0.0000 0.0000 0.0000 0.0000 22.3833
#
#
#
# Elastic Compliance Matrix: (Units=1/GPa)
#
#
# Indices 1 2 3 4 5 6 
#
# 1 0.012049 -0.005046 -0.004102 0.000000 0.000000 0.000000
# 2 -0.005046 0.019702 -0.001558 0.000000 0.000000 0.000000
# 3 -0.004102 -0.001558 0.013226 0.000000 0.000000 0.000000
# 4 0.000000 0.000000 0.000000 0.055318 0.000000 0.000000
# 5 0.000000 0.000000 0.000000 0.000000 0.027227 0.000000
# 6 0.000000 0.000000 0.000000 0.000000 0.000000 0.044676
#
#
# Mechanical properties :
#
#
# Convention : Reuss Voigt Hill
#
# Bulk Modulus (GPa) = 42.43920 47.44486 44.94203
# Shear Modulus (GPa) = 24.81827 26.97119 25.89473
#
# Velocity S-wave (km/s) = 3.43284 3.57863 3.50649
# Velocity P-wave (km/s) = 5.98863 6.29314 6.14277
#
# Compressibility (1/GPa) = 0.02356312
#
# Stress axis : x y z
#
# Youngs Moduli (GPa) = 82.99716 50.75734 75.61005
#
# Poissons Ratio (x) = 0.25614 0.31019
# Poissons Ratio (y) = 0.41884 0.11777
# Poissons Ratio (z) = 0.34049 0.07906
#
# Static dielectric constant tensor:
#      x y z
#    x 4.092580 0.000000 0.000000 
#    y 0.000000 3.586320 0.000000 
#    z 0.000000 0.000000 3.702590 
# 
# 
# High freq. dielectric constant tensor:
#      x y z
#    x 1.843630 0.000000 0.000000 
#    y 0.000000 1.814500 0.000000 
#    z 0.000000 0.000000 1.799480 
# 
# From -- ./inp_files/28668.got.cif
#   From: 2010.03.12/outbox.cif.g09.slc.cpg/sg70_15_cif.got.tgz:28668.got - 2010.04.16 13:46:32.
