data_PCOD8286693
_publ_section_title
;
Structure prediction by ZEFSAII (Michael W. Deem and Ramdas Pophale) SiO2 
 PCOD8286693
Probable space group: F D D D
;
_chemical_formula_sum "Si O2"
_cell_formula_units_Z 176
_cell_length_a 24.698564
_cell_length_b 11.719417
_cell_length_c 30.045138
_cell_angle_alpha 90.000000
_cell_angle_beta 90.000000
_cell_angle_gamma 90.000000
_cell_volume 8696.648444
_symmetry_space_group_name_H-M "F D D D"
_symmetry_group_IT_number 70
_space_group.IT_coordinate_system_code '2'
_symmetry_cell_setting 'orthorhombic'
loop_
_space_group_symop_operation_xyz
x,y,z
1/4-x,1/4-y,z
x,1/4-y,1/4-z
1/4-x,y,1/4-z
-x,-y,-z
3/4+x,3/4+y,-z
-x,3/4+y,3/4+z
3/4+x,-y,3/4+z
x,1/2+y,1/2+z
1/4-x,3/4-y,1/2+z
x,3/4-y,3/4-z
1/4-x,1/2+y,3/4-z
-x,1/2-y,1/2-z
3/4+x,1/4+y,1/2-z
-x,1/4+y,1/4+z
3/4+x,1/2-y,1/4+z
1/2+x,y,1/2+z
3/4-x,1/4-y,1/2+z
1/2+x,1/4-y,3/4-z
3/4-x,y,3/4-z
1/2-x,-y,1/2-z
1/4+x,3/4+y,1/2-z
1/2-x,3/4+y,1/4+z
1/4+x,-y,1/4+z
1/2+x,1/2+y,z
3/4-x,3/4-y,z
1/2+x,3/4-y,1/4-z
3/4-x,1/2+y,1/4-z
1/2-x,1/2-y,-z
1/4+x,1/4+y,-z
1/2-x,1/4+y,3/4+z
1/4+x,1/2-y,3/4+z
loop_
_atom_site_type_symbol
_atom_site_label
_atom_site_fract_x
_atom_site_fract_y
_atom_site_fract_z
Si Si1 0.589652 0.227940 0.969391
Si Si2 0.039710 0.111953 0.691721
Si Si3 0.185028 0.939590 0.634885
Si Si4 0.418952 0.598332 0.678462
Si Si5 0.875000 0.375000 0.154591
Si Si6 0.975818 0.497055 0.641093
O O1 0.625000 0.125000 0.949112
O O2 0.624703 0.340720 0.959689
O O3 0.532475 0.244047 0.944235
O O4 0.574065 0.199189 0.019896
O O5 0.063969 0.238901 0.681498
O O6 0.976101 0.130483 0.700941
O O7 0.043187 0.029502 0.650103
O O8 0.125000 0.895978 0.625000
O O9 0.222379 0.829198 0.630982
O O10 0.416514 0.625000 0.625000
O O11 0.408294 0.463682 0.684843
O O12 0.919035 0.301643 0.127232
O O13 0.986999 0.625000 0.625000
#
# Coordination Sequence:
#
# PCOD8286693 Si02
#       6
#    32  32  32  32  16  32
#     4  12  23  37  64 103 136 159 226 298 334 385
#     4  11  23  40  67  97 132 180 225 275 343 403
#     4  11  23  42  63  90 137 185 220 260 348 425
#     4  12  21  40  69  95 129 179 227 276 348 409
#     4  12  18  42  68  94 120 173 227 270 330 406
#     4  12  23  40  70 100 126 176 234 278 332 414
#
# _framework density 20.237680999999998
#
# number of rings (size 3 to 8) (size 9 to 14) (size 15 to 20)
#    0.000    0.364    8.182    3.273    0.000    4.727 
#    0.000    3.636    0.000    0.000    0.000    0.000 
#    0.000    0.000    0.000    0.000    0.000    0.000 
#
# Total GULP energy -545247.055124 kJ/mol
# GULP energy per Si atom -12391.978526 kJ/mol
# Density = 2.019162 g / cm^3
# Si number density = 20.237681 Si / 1000 Ang^3
#
#
#
# Elastic Constant Matrix: (Units=GPa)
#
#
# Indices 1 2 3 4 5 6 
#
# 1 148.6859 58.6533 34.4497 0.0000 0.0000 0.0000
# 2 58.6533 149.5048 43.3310 0.0000 0.0000 0.0000
# 3 34.4497 43.3310 76.1183 0.0000 0.0000 0.0000
# 4 0.0000 0.0000 0.0000 21.5810 0.0000 0.0000
# 5 0.0000 0.0000 0.0000 0.0000 14.7891 0.0000
# 6 0.0000 0.0000 0.0000 0.0000 0.0000 16.4172
#
#
#
# Elastic Compliance Matrix: (Units=1/GPa)
#
#
# Indices 1 2 3 4 5 6 
#
# 1 0.008272 -0.002587 -0.002271 0.000000 0.000000 0.000000
# 2 -0.002587 0.008819 -0.003850 0.000000 0.000000 0.000000
# 3 -0.002271 -0.003850 0.016357 0.000000 0.000000 0.000000
# 4 0.000000 0.000000 0.000000 0.046337 0.000000 0.000000
# 5 0.000000 0.000000 0.000000 0.000000 0.067617 0.000000
# 6 0.000000 0.000000 0.000000 0.000000 0.000000 0.060912
#
#
# Mechanical properties :
#
#
# Convention : Reuss Voigt Hill
#
# Bulk Modulus (GPa) = 62.37258 71.90854 67.14056
# Shear Modulus (GPa) = 21.63803 26.41581 24.02692
#
# Velocity S-wave (km/s) = 3.27340 3.61678 3.44937
# Velocity P-wave (km/s) = 6.72115 7.28359 7.00801
#
# Compressibility (1/GPa) = 0.01603269
#
# Stress axis : x y z
#
# Youngs Moduli (GPa) = 120.88426 113.38536 61.13671
#
# Poissons Ratio (x) = 0.29334 0.13885
# Poissons Ratio (y) = 0.31275 0.23536
# Poissons Ratio (z) = 0.27455 0.43650
#
# Static dielectric constant tensor:
#      x y z
#    x 3.850400 0.000000 0.000000 
#    y 0.000000 3.765950 0.000000 
#    z 0.000000 0.000000 3.482210 
# 
# 
# High freq. dielectric constant tensor:
#      x y z
#    x 1.803020 0.000000 0.000000 
#    y 0.000000 1.788750 0.000000 
#    z 0.000000 0.000000 1.763170 
# 
# From -- ./inp_files/19614.got.cif
#   From: 2010.03.12/outbox.cif.g09.slc.cpg/sg70_10_cif.got.tgz:19614.got - 2010.04.16 13:46:32.
