data_PCOD8286965
_publ_section_title
;
Structure prediction by ZEFSAII (Michael W. Deem and Ramdas Pophale) SiO2 
 PCOD8286965
Probable space group: I M M M
;
_chemical_formula_sum "Si O2"
_cell_formula_units_Z 96
_cell_length_a 26.547270
_cell_length_b 9.033854
_cell_length_c 28.772609
_cell_angle_alpha 90.000000
_cell_angle_beta 90.000000
_cell_angle_gamma 90.000000
_cell_volume 6900.366821
_symmetry_space_group_name_H-M "I M M M"
_symmetry_group_IT_number 71
_symmetry_cell_setting 'orthorhombic'
loop_
_space_group_symop_operation_xyz
x,y,z
-x,-y,z
x,-y,-z
-x,y,-z
-x,-y,-z
x,y,-z
-x,y,z
x,-y,z
1/2+x,1/2+y,1/2+z
1/2-x,1/2-y,1/2+z
1/2+x,1/2-y,1/2-z
1/2-x,1/2+y,1/2-z
1/2-x,1/2-y,1/2-z
1/2+x,1/2+y,1/2-z
1/2-x,1/2+y,1/2+z
1/2+x,1/2-y,1/2+z
loop_
_atom_site_type_symbol
_atom_site_label
_atom_site_fract_x
_atom_site_fract_y
_atom_site_fract_z
Si Si1 0.706329 0.674085 0.279025
Si Si2 0.281407 0.827750 0.947567
Si Si3 0.944221 0.175557 0.362872
Si Si4 0.397465 0.829343 0.052704
Si Si5 0.749331 0.324805 0.140614
Si Si6 0.850655 0.172783 0.307450
O O1 0.716708 0.500000 0.284342
O O2 0.750000 0.750000 0.250000
O O3 0.704687 0.751232 0.329722
O O4 0.655775 0.703144 0.248064
O O5 0.339473 0.781117 0.941881
O O6 0.247625 0.731503 0.912334
O O7 0.274249 0.000000 0.936248
O O8 0.263245 0.793043 0.000000
O O9 0.932134 0.230777 0.414499
O O10 0.903128 0.241800 0.326294
O O11 0.000000 0.230836 0.348202
O O12 0.942536 0.000000 0.363580
O O13 0.403955 0.000000 0.066550
O O14 0.415408 0.802522 0.000000
O O15 0.755490 0.500000 0.142502
O O16 0.696881 0.265728 0.163065
O O17 0.851717 0.000000 0.317347
#
# Coordination Sequence:
#
# PCOD8286965 Si02
#       6
#    16  16  16  16  16  16
#     4   9  16  26  40  57  77  96 120 152 189 229
#     4   9  17  28  41  57  76 100 129 158 192 231
#     4  10  19  30  43  57  73  95 125 160 198 236
#     4   9  18  31  43  54  70  94 125 162 202 238
#     4  10  17  26  41  59  78  97 123 154 189 232
#     4   8  15  27  39  54  74  95 119 153 191 228
#
# _framework density 13.912304000000001
#
# number of rings (size 3 to 8) (size 9 to 14) (size 15 to 20)
#    0.000    2.833    1.667    3.000    0.000    1.333 
#    0.000    4.167    0.000    0.000    0.000    0.000 
#    0.000    0.000    0.000    0.000    0.000    0.833 
#
# Total GULP energy -594790.298445 kJ/mol
# GULP energy per Si atom -12391.464551 kJ/mol
# Density = 1.388064 g / cm^3
# Si number density = 13.912304 Si / 1000 Ang^3
#
#
#
# Elastic Constant Matrix: (Units=GPa)
#
#
# Indices 1 2 3 4 5 6 
#
# 1 43.1966 17.9234 45.7517 0.0000 0.0000 0.0000
# 2 17.9234 46.6603 37.5954 0.0000 0.0000 0.0000
# 3 45.7517 37.5954 99.9930 0.0000 0.0000 0.0000
# 4 0.0000 0.0000 0.0000 24.6101 0.0000 0.0000
# 5 0.0000 0.0000 0.0000 0.0000 18.3363 0.0000
# 6 0.0000 0.0000 0.0000 0.0000 0.0000 11.5038
#
#
#
# Elastic Compliance Matrix: (Units=1/GPa)
#
#
# Indices 1 2 3 4 5 6 
#
# 1 0.044950 -0.000997 -0.020192 0.000000 0.000000 0.000000
# 2 -0.000997 0.030768 -0.011112 0.000000 0.000000 0.000000
# 3 -0.020192 -0.011112 0.023417 0.000000 0.000000 0.000000
# 4 0.000000 0.000000 0.000000 0.040634 0.000000 0.000000
# 5 0.000000 0.000000 0.000000 0.000000 0.054537 0.000000
# 6 0.000000 0.000000 0.000000 0.000000 0.000000 0.086928
#
#
# Mechanical properties :
#
#
# Convention : Reuss Voigt Hill
#
# Bulk Modulus (GPa) = 28.95771 43.59900 36.27835
# Shear Modulus (GPa) = 13.99204 16.79533 15.39368
#
# Velocity S-wave (km/s) = 3.17477 3.47829 3.32999
# Velocity P-wave (km/s) = 5.85649 6.89477 6.39673
#
# Compressibility (1/GPa) = 0.03453312
#
# Stress axis : x y z
#
# Youngs Moduli (GPa) = 22.24690 32.50175 42.70351
#
# Poissons Ratio (x) = 0.03241 0.86227
# Poissons Ratio (y) = 0.02219 0.47451
# Poissons Ratio (z) = 0.44921 0.36115
#
# Static dielectric constant tensor:
#      x y z
#    x 2.714960 0.000000 0.000000 
#    y 0.000000 2.663060 0.000000 
#    z 0.000000 0.000000 3.075720 
# 
# 
# High freq. dielectric constant tensor:
#      x y z
#    x 1.477410 0.000000 0.000000 
#    y 0.000000 1.528300 0.000000 
#    z 0.000000 0.000000 1.529160 
# 
# From -- ./inp_files/15430.got.cif
#   From: 2010.06.25/outbox.cif.g09.slc.cpg/sg71_8_cif.got.tgz:15430.got - 2010.06.28 04:59:45.
