data_PCOD8286540
_publ_section_title
;
Structure prediction by ZEFSAII (Michael W. Deem and Ramdas Pophale) SiO2 
 PCOD8286540
Probable space group: F D D D
;
_chemical_formula_sum "Si O2"
_cell_formula_units_Z 160
_cell_length_a 19.386813
_cell_length_b 22.118560
_cell_length_c 18.088060
_cell_angle_alpha 90.000000
_cell_angle_beta 90.000000
_cell_angle_gamma 90.000000
_cell_volume 7756.311824
_symmetry_space_group_name_H-M "F D D D"
_symmetry_group_IT_number 70
_space_group.IT_coordinate_system_code '2'
_symmetry_cell_setting 'orthorhombic'
loop_
_space_group_symop_operation_xyz
x,y,z
1/4-x,1/4-y,z
x,1/4-y,1/4-z
1/4-x,y,1/4-z
-x,-y,-z
3/4+x,3/4+y,-z
-x,3/4+y,3/4+z
3/4+x,-y,3/4+z
x,1/2+y,1/2+z
1/4-x,3/4-y,1/2+z
x,3/4-y,3/4-z
1/4-x,1/2+y,3/4-z
-x,1/2-y,1/2-z
3/4+x,1/4+y,1/2-z
-x,1/4+y,1/4+z
3/4+x,1/2-y,1/4+z
1/2+x,y,1/2+z
3/4-x,1/4-y,1/2+z
1/2+x,1/4-y,3/4-z
3/4-x,y,3/4-z
1/2-x,-y,1/2-z
1/4+x,3/4+y,1/2-z
1/2-x,3/4+y,1/4+z
1/4+x,-y,1/4+z
1/2+x,1/2+y,z
3/4-x,3/4-y,z
1/2+x,3/4-y,1/4-z
3/4-x,1/2+y,1/4-z
1/2-x,1/2-y,-z
1/4+x,1/4+y,-z
1/2-x,1/4+y,3/4+z
1/4+x,1/2-y,3/4+z
loop_
_atom_site_type_symbol
_atom_site_label
_atom_site_fract_x
_atom_site_fract_y
_atom_site_fract_z
Si Si1 0.808421 0.072453 0.575751
Si Si2 0.797968 0.117851 0.043056
Si Si3 0.199503 0.530097 0.808739
Si Si4 0.802908 0.976356 0.035823
Si Si5 0.204057 0.110701 0.841777
O O1 0.773896 0.125000 0.625000
O O2 0.878444 0.098075 0.538525
O O3 0.753962 0.053454 0.515351
O O4 0.826108 0.016688 0.628697
O O5 0.765933 0.125000 0.125000
O O6 0.804452 0.047564 0.025059
O O7 0.747016 0.145668 0.982979
O O8 0.250000 0.500000 0.750000
O O9 0.129442 0.549106 0.765465
O O10 0.232654 0.587901 0.850688
O O11 0.787069 0.954523 0.119470
O O12 0.125000 0.125000 0.820959
#
# Coordination Sequence:
#
# PCOD8286540 Si02
#       5
#    32  32  32  32  32
#     4  11  22  42  70 101 137 177 231 280 345 414
#     4  11  23  44  70  97 136 180 229 281 335 413
#     4  11  22  43  68  98 136 178 226 288 345 406
#     4  11  23  44  68  97 137 177 224 285 342 406
#     4  10  24  43  65  99 139 176 226 284 341 407
#
# _framework density 20.628361000000002
#
# number of rings (size 3 to 8) (size 9 to 14) (size 15 to 20)
#    0.000    1.200    6.000    1.200    0.000    2.800 
#    0.000    3.000    0.000    0.000    0.000    0.000 
#    0.000    0.000    0.000    0.000    0.000    0.000 
#
# Total GULP energy -495791.579934 kJ/mol
# GULP energy per Si atom -12394.789498 kJ/mol
# Density = 2.058141 g / cm^3
# Si number density = 20.628361 Si / 1000 Ang^3
#
#
#
# Elastic Constant Matrix: (Units=GPa)
#
#
# Indices 1 2 3 4 5 6 
#
# 1 140.2624 40.8664 99.8740 0.0000 0.0000 0.0000
# 2 40.8664 74.5468 20.9888 0.0000 0.0000 0.0000
# 3 99.8740 20.9888 119.6066 0.0000 0.0000 0.0000
# 4 0.0000 0.0000 0.0000 36.5929 0.0000 0.0000
# 5 0.0000 0.0000 0.0000 0.0000 20.9177 0.0000
# 6 0.0000 0.0000 0.0000 0.0000 0.0000 57.6790
#
#
#
# Elastic Compliance Matrix: (Units=1/GPa)
#
#
# Indices 1 2 3 4 5 6 
#
# 1 0.020334 -0.006697 -0.015804 0.000000 0.000000 0.000000
# 2 -0.006697 0.016318 0.002729 0.000000 0.000000 0.000000
# 3 -0.015804 0.002729 0.021079 0.000000 0.000000 0.000000
# 4 0.000000 0.000000 0.000000 0.027328 0.000000 0.000000
# 5 0.000000 0.000000 0.000000 0.000000 0.047806 0.000000
# 6 0.000000 0.000000 0.000000 0.000000 0.000000 0.017337
#
#
# Mechanical properties :
#
#
# Convention : Reuss Voigt Hill
#
# Bulk Modulus (GPa) = 54.98957 73.09715 64.04336
# Shear Modulus (GPa) = 25.53505 34.55034 30.04270
#
# Velocity S-wave (km/s) = 3.52214 4.09699 3.82039
# Velocity P-wave (km/s) = 6.57691 7.60872 7.11155
#
# Compressibility (1/GPa) = 0.01818527
#
# Stress axis : x y z
#
# Youngs Moduli (GPa) = 49.17790 61.28365 47.44113
#
# Poissons Ratio (x) = 0.41045 0.74977
# Poissons Ratio (y) = 0.32937 -0.12947
# Poissons Ratio (z) = 0.77722 -0.16725
#
# Static dielectric constant tensor:
#      x y z
#    x 3.703360 0.000000 0.000000 
#    y 0.000000 7.290530 0.000000 
#    z 0.000000 0.000000 3.727870 
# 
# 
# High freq. dielectric constant tensor:
#      x y z
#    x 1.800310 0.000000 0.000000 
#    y 0.000000 1.825390 0.000000 
#    z 0.000000 0.000000 1.798370 
# 
# From -- ./inp_files/36281.got.cif
#   From: 2010.03.12/outbox.cif.g09.slc.cpg/sg70_19_cif.got.tgz:36281.got - 2010.04.16 13:46:32.
