data_PCOD8286270
_publ_section_title
;
Structure prediction by ZEFSAII (Michael W. Deem and Ramdas Pophale) SiO2 
 PCOD8286270
Probable space group: F D D D
;
_chemical_formula_sum "Si O2"
_cell_formula_units_Z 160
_cell_length_a 23.079274
_cell_length_b 30.367947
_cell_length_c 10.741284
_cell_angle_alpha 90.000000
_cell_angle_beta 90.000000
_cell_angle_gamma 90.000000
_cell_volume 7528.245539
_symmetry_space_group_name_H-M "F D D D"
_symmetry_group_IT_number 70
_space_group.IT_coordinate_system_code '2'
_symmetry_cell_setting 'orthorhombic'
loop_
_space_group_symop_operation_xyz
x,y,z
1/4-x,1/4-y,z
x,1/4-y,1/4-z
1/4-x,y,1/4-z
-x,-y,-z
3/4+x,3/4+y,-z
-x,3/4+y,3/4+z
3/4+x,-y,3/4+z
x,1/2+y,1/2+z
1/4-x,3/4-y,1/2+z
x,3/4-y,3/4-z
1/4-x,1/2+y,3/4-z
-x,1/2-y,1/2-z
3/4+x,1/4+y,1/2-z
-x,1/4+y,1/4+z
3/4+x,1/2-y,1/4+z
1/2+x,y,1/2+z
3/4-x,1/4-y,1/2+z
1/2+x,1/4-y,3/4-z
3/4-x,y,3/4-z
1/2-x,-y,1/2-z
1/4+x,3/4+y,1/2-z
1/2-x,3/4+y,1/4+z
1/4+x,-y,1/4+z
1/2+x,1/2+y,z
3/4-x,3/4-y,z
1/2+x,3/4-y,1/4-z
3/4-x,1/2+y,1/4-z
1/2-x,1/2-y,-z
1/4+x,1/4+y,-z
1/2-x,1/4+y,3/4+z
1/4+x,1/2-y,3/4+z
loop_
_atom_site_type_symbol
_atom_site_label
_atom_site_fract_x
_atom_site_fract_y
_atom_site_fract_z
Si Si1 0.903305 0.329433 0.608079
Si Si2 0.234840 0.204347 0.154881
Si Si3 0.535682 0.044990 0.367799
Si Si4 0.680308 0.375000 0.375000
Si Si5 0.375000 0.633530 0.875000
Si Si6 0.510362 0.883646 0.018006
O O1 0.875000 0.375000 0.560075
O O2 0.852456 0.301708 0.675214
O O3 0.929286 0.304297 0.490213
O O4 0.953257 0.337239 0.710940
O O5 0.263088 0.250640 0.196849
O O6 0.280799 0.165328 0.172414
O O7 0.211943 0.208862 0.015999
O O8 0.494683 0.085938 0.333430
O O9 0.642754 0.391930 0.254516
O O10 0.316415 0.658804 0.920714
O O11 0.520484 0.875000 0.875000
#
# Coordination Sequence:
#
# PCOD8286270 Si02
#       6
#    32  32  32  16  16  32
#     4  10  21  40  66  92 123 170 212 260 321 393
#     4  11  21  40  63  96 125 162 216 268 324 385
#     4  10  23  38  61  99 128 158 211 274 323 381
#     4  12  22  40  65  90 125 174 218 266 328 400
#     4  12  22  38  64  92 126 167 221 266 320 394
#     4  11  23  41  65  91 125 174 217 261 328 399
#
# _framework density 21.253291999999998
#
# number of rings (size 3 to 8) (size 9 to 14) (size 15 to 20)
#    0.000    1.200    5.000    1.800    0.000    7.600 
#    0.000    3.000    0.000    0.000    0.000    0.000 
#    0.000    0.000    0.000    0.000    0.000    0.000 
#
# Total GULP energy -495585.498507 kJ/mol
# GULP energy per Si atom -12389.637463 kJ/mol
# Density = 2.120492 g / cm^3
# Si number density = 21.253292 Si / 1000 Ang^3
#
#
#
# Elastic Constant Matrix: (Units=GPa)
#
#
# Indices 1 2 3 4 5 6 
#
# 1 162.0641 43.5728 44.4274 -0.0002 0.0002 0.0000
# 2 43.5728 85.1301 0.4201 -0.0002 0.0002 0.0000
# 3 44.4274 0.4201 100.9140 -0.0009 0.0010 0.0003
# 4 -0.0002 -0.0002 -0.0009 14.9436 0.0003 0.0000
# 5 0.0002 0.0002 0.0010 0.0003 33.7694 -0.0001
# 6 0.0000 0.0000 0.0003 0.0000 -0.0001 23.8241
#
#
#
# Elastic Compliance Matrix: (Units=1/GPa)
#
#
# Indices 1 2 3 4 5 6 
#
# 1 0.008306 -0.004234 -0.003639 0.000000 0.000000 0.000000
# 2 -0.004234 0.013905 0.001806 0.000000 0.000000 0.000000
# 3 -0.003639 0.001806 0.011504 0.000001 0.000000 0.000000
# 4 0.000000 0.000000 0.000001 0.066918 -0.000001 0.000000
# 5 0.000000 0.000000 0.000000 -0.000001 0.029613 0.000000
# 6 0.000000 0.000000 0.000000 0.000000 0.000000 0.041974
#
#
# Mechanical properties :
#
#
# Convention : Reuss Voigt Hill
#
# Bulk Modulus (GPa) = 46.33612 58.32763 52.33187
# Shear Modulus (GPa) = 26.10317 31.81995 28.96156
#
# Velocity S-wave (km/s) = 3.50836 3.87354 3.69546
# Velocity P-wave (km/s) = 6.18552 6.89270 6.54866
#
# Compressibility (1/GPa) = 0.02158144
#
# Stress axis : x y z
#
# Youngs Moduli (GPa) = 120.39115 71.91820 86.92573
#
# Poissons Ratio (x) = 0.30447 0.31634
# Poissons Ratio (y) = 0.50968 -0.15698
# Poissons Ratio (z) = 0.43813 -0.12988
#
# Static dielectric constant tensor:
#      x y z
#    x 4.256120 0.000000 0.000000 
#    y 0.000000 3.762510 0.000000 
#    z 0.000000 0.000000 3.922460 
# 
# 
# High freq. dielectric constant tensor:
#      x y z
#    x 1.860500 0.000000 0.000000 
#    y 0.000000 1.786300 0.000000 
#    z 0.000000 0.000000 1.833860 
# 
# From -- ./inp_files/19523.got.cif
#   From: 2010.03.12/outbox.cif.g09.slc.cpg/sg70_10_cif.got.tgz:19523.got - 2010.04.16 13:46:32.
