data_PCOD8286228
_publ_section_title
;
Structure prediction by ZEFSAII (Michael W. Deem and Ramdas Pophale) SiO2 
 PCOD8286228
Probable space group: F D D D
;
_chemical_formula_sum "Si O2"
_cell_formula_units_Z 176
_cell_length_a 11.486101
_cell_length_b 32.716974
_cell_length_c 21.673301
_cell_angle_alpha 90.000000
_cell_angle_beta 90.000000
_cell_angle_gamma 90.000000
_cell_volume 8144.619921
_symmetry_space_group_name_H-M "F D D D"
_symmetry_group_IT_number 70
_space_group.IT_coordinate_system_code '2'
_symmetry_cell_setting 'orthorhombic'
loop_
_space_group_symop_operation_xyz
x,y,z
1/4-x,1/4-y,z
x,1/4-y,1/4-z
1/4-x,y,1/4-z
-x,-y,-z
3/4+x,3/4+y,-z
-x,3/4+y,3/4+z
3/4+x,-y,3/4+z
x,1/2+y,1/2+z
1/4-x,3/4-y,1/2+z
x,3/4-y,3/4-z
1/4-x,1/2+y,3/4-z
-x,1/2-y,1/2-z
3/4+x,1/4+y,1/2-z
-x,1/4+y,1/4+z
3/4+x,1/2-y,1/4+z
1/2+x,y,1/2+z
3/4-x,1/4-y,1/2+z
1/2+x,1/4-y,3/4-z
3/4-x,y,3/4-z
1/2-x,-y,1/2-z
1/4+x,3/4+y,1/2-z
1/2-x,3/4+y,1/4+z
1/4+x,-y,1/4+z
1/2+x,1/2+y,z
3/4-x,3/4-y,z
1/2+x,3/4-y,1/4-z
3/4-x,1/2+y,1/4-z
1/2-x,1/2-y,-z
1/4+x,1/4+y,-z
1/2-x,1/4+y,3/4+z
1/4+x,1/2-y,3/4+z
loop_
_atom_site_type_symbol
_atom_site_label
_atom_site_fract_x
_atom_site_fract_y
_atom_site_fract_z
Si Si1 0.258338 0.437456 0.609641
Si Si2 0.375000 0.875000 0.545046
Si Si3 0.363392 0.731263 0.688172
Si Si4 0.016700 0.096712 0.723252
Si Si5 0.462348 0.644432 0.064801
Si Si6 0.869884 0.765683 0.310057
O O1 0.315088 0.409706 0.663075
O O2 0.333850 0.479505 0.604821
O O3 0.259886 0.412754 0.545991
O O4 0.125000 0.448732 0.625000
O O5 0.467139 0.854424 0.498878
O O6 0.306989 0.690605 0.661854
O O7 0.311373 0.738792 0.756741
O O8 0.497721 0.722144 0.703496
O O9 0.125000 0.125000 0.710430
O O10 0.037444 0.055556 0.683614
O O11 0.903771 0.118915 0.697950
O O12 0.525644 0.625000 0.125000
O O13 0.875000 0.741415 0.375000
#
# Coordination Sequence:
#
# PCOD8286228 Si02
#       6
#    32  16  32  32  32  32
#     4  11  24  46  69 100 137 181 241 298 357 418
#     4  12  27  46  74 104 135 196 240 292 356 426
#     4  10  24  42  65 102 134 180 232 290 354 415
#     4  11  21  39  69 100 137 176 233 292 353 411
#     4  12  26  46  68 102 145 189 234 284 354 440
#     4  10  21  38  63 101 135 172 222 286 353 406
#
# _framework density 21.609355999999998
#
# number of rings (size 3 to 8) (size 9 to 14) (size 15 to 20)
#    0.000    1.091    4.545    1.364    2.545    1.455 
#    0.000    1.818    0.000    0.000    0.000    0.000 
#    0.000    0.000    0.000    0.000    0.000    0.000 
#
# Total GULP energy -545180.435576 kJ/mol
# GULP energy per Si atom -12390.464445 kJ/mol
# Density = 2.156017 g / cm^3
# Si number density = 21.609356 Si / 1000 Ang^3
#
#
#
# Elastic Constant Matrix: (Units=GPa)
#
#
# Indices 1 2 3 4 5 6 
#
# 1 91.5701 31.8639 11.6120 0.0000 0.0000 0.0000
# 2 31.8639 124.5280 38.7492 0.0000 0.0000 0.0000
# 3 11.6120 38.7492 126.9212 0.0000 0.0000 0.0000
# 4 0.0000 0.0000 0.0000 0.7709 0.0000 0.0000
# 5 0.0000 0.0000 0.0000 0.0000 20.9307 0.0000
# 6 0.0000 0.0000 0.0000 0.0000 0.0000 21.6212
#
#
#
# Elastic Compliance Matrix: (Units=1/GPa)
#
#
# Indices 1 2 3 4 5 6 
#
# 1 0.011992 -0.003013 -0.000177 0.000000 0.000000 0.000000
# 2 -0.003013 0.009630 -0.002665 0.000000 0.000000 0.000000
# 3 -0.000177 -0.002665 0.008709 0.000000 0.000000 0.000000
# 4 0.000000 0.000000 0.000000 1.297105 0.000000 0.000000
# 5 0.000000 0.000000 0.000000 0.000000 0.047777 0.000000
# 6 0.000000 0.000000 0.000000 0.000000 0.000000 0.046251
#
#
# Mechanical properties :
#
#
# Convention : Reuss Voigt Hill
#
# Bulk Modulus (GPa) = 53.70337 56.38548 55.04442
# Shear Modulus (GPa) = 3.47372 26.05086 14.76229
#
# Velocity S-wave (km/s) = 1.26925 3.47585 2.61654
# Velocity P-wave (km/s) = 5.20133 6.50065 5.88695
#
# Compressibility (1/GPa) = 0.01862081
#
# Stress axis : x y z
#
# Youngs Moduli (GPa) = 83.39180 103.83727 114.82912
#
# Poissons Ratio (x) = 0.31289 0.02034
# Poissons Ratio (y) = 0.25128 0.30596
# Poissons Ratio (z) = 0.01477 0.27668
#
# Static dielectric constant tensor:
#      x y z
#    x 3.909410 0.000000 0.000000 
#    y 0.000000 3.454600 0.000000 
#    z 0.000000 0.000000 4.188700 
# 
# 
# High freq. dielectric constant tensor:
#      x y z
#    x 1.846020 0.000000 0.000000 
#    y 0.000000 1.843940 0.000000 
#    z 0.000000 0.000000 1.868100 
# 
# From -- ./inp_files/22285.got.cif
#   From: 2010.03.12/outbox.cif.g09.slc.cpg/sg70_12_cif.got.tgz:22285.got - 2010.04.16 13:46:32.
