data_PCOD8286948
_publ_section_title
;
Structure prediction by ZEFSAII (Michael W. Deem and Ramdas Pophale) SiO2 
 PCOD8286948
Probable space group: I M M M
;
_chemical_formula_sum "Si O2"
_cell_formula_units_Z 128
_cell_length_a 19.247848
_cell_length_b 24.973933
_cell_length_c 16.707546
_cell_angle_alpha 90.000000
_cell_angle_beta 90.000000
_cell_angle_gamma 90.000000
_cell_volume 8031.224908
_symmetry_space_group_name_H-M "I M M M"
_symmetry_group_IT_number 71
_symmetry_cell_setting 'orthorhombic'
loop_
_space_group_symop_operation_xyz
x,y,z
-x,-y,z
x,-y,-z
-x,y,-z
-x,-y,-z
x,y,-z
-x,y,z
x,-y,z
1/2+x,1/2+y,1/2+z
1/2-x,1/2-y,1/2+z
1/2+x,1/2-y,1/2-z
1/2-x,1/2+y,1/2-z
1/2-x,1/2-y,1/2-z
1/2+x,1/2+y,1/2-z
1/2-x,1/2+y,1/2+z
1/2+x,1/2-y,1/2+z
loop_
_atom_site_type_symbol
_atom_site_label
_atom_site_fract_x
_atom_site_fract_y
_atom_site_fract_z
Si Si1 0.700601 0.859948 0.322277
Si Si2 0.921408 0.801936 0.141038
Si Si3 0.798136 0.862965 0.089366
Si Si4 0.921322 0.683658 0.094200
Si Si5 0.703746 0.436958 0.264073
Si Si6 0.208098 0.284892 0.686980
Si Si7 0.420708 0.629650 0.205929
Si Si8 0.167666 0.808484 0.405478
O O1 0.630783 0.863654 0.376055
O O2 0.735699 0.916150 0.296307
O O3 0.674073 0.831541 0.240338
O O4 0.757514 0.827518 0.373477
O O5 0.878008 0.843135 0.086605
O O6 0.897678 0.739991 0.134310
O O7 0.912700 0.820584 0.233020
O O8 0.000000 0.806865 0.110343
O O9 0.785869 0.913852 0.146673
O O10 0.758399 0.811142 0.121595
O O11 0.774165 0.878999 0.000000
O O12 0.000000 0.668308 0.118836
O O13 0.914739 0.690302 0.000000
O O14 0.708756 0.500000 0.267485
O O15 0.627530 0.419716 0.232963
O O16 0.250000 0.250000 0.750000
O O17 0.153546 0.249366 0.636119
O O18 0.500000 0.609446 0.199052
O O19 0.393645 0.651107 0.120403
O O20 0.167939 0.803542 0.500000
#
# Coordination Sequence:
#
# PCOD8286948 Si02
#       8
#    16  16  16  16  16  16  16  16
#     4   9  17  30  45  61  86 116 146 179 214 260
#     4   9  16  26  40  61  92 128 156 169 193 252
#     4  10  18  27  42  65  94 121 146 186 229 255
#     4  10  18  26  42  70  99 122 142 168 206 255
#     4   9  19  34  50  65  79 108 155 195 230 270
#     4   9  16  26  40  61  88 120 152 175 201 250
#     4   9  18  31  45  62  87 118 151 188 224 258
#     4  10  17  25  42  65  88 115 146 180 217 260
#
# _framework density 15.937792999999999
#
# number of rings (size 3 to 8) (size 9 to 14) (size 15 to 20)
#    0.000    2.625    0.000    5.625    0.000    1.500 
#    0.000    0.000    0.000    9.750    0.000    7.875 
#    0.000    4.500    0.000    4.500    0.000    0.000 
#
# Total GULP energy -793030.733963 kJ/mol
# GULP energy per Si atom -12391.105218 kJ/mol
# Density = 1.590152 g / cm^3
# Si number density = 15.937793 Si / 1000 Ang^3
#
#
#
# Elastic Constant Matrix: (Units=GPa)
#
#
# Indices 1 2 3 4 5 6 
#
# 1 75.0915 37.0763 22.7379 0.0000 0.0000 0.0000
# 2 37.0763 86.8709 33.7507 0.0000 0.0000 0.0000
# 3 22.7379 33.7507 83.5922 0.0000 0.0000 0.0000
# 4 0.0000 0.0000 0.0000 10.5061 0.0000 0.0000
# 5 0.0000 0.0000 0.0000 0.0000 19.4043 0.0000
# 6 0.0000 0.0000 0.0000 0.0000 0.0000 13.9640
#
#
#
# Elastic Compliance Matrix: (Units=1/GPa)
#
#
# Indices 1 2 3 4 5 6 
#
# 1 0.017158 -0.006535 -0.002029 0.000000 0.000000 0.000000
# 2 -0.006535 0.016142 -0.004740 0.000000 0.000000 0.000000
# 3 -0.002029 -0.004740 0.014428 0.000000 0.000000 0.000000
# 4 0.000000 0.000000 0.000000 0.095183 0.000000 0.000000
# 5 0.000000 0.000000 0.000000 0.000000 0.051535 0.000000
# 6 0.000000 0.000000 0.000000 0.000000 0.000000 0.071613
#
#
# Mechanical properties :
#
#
# Convention : Reuss Voigt Hill
#
# Bulk Modulus (GPa) = 47.34490 48.07604 47.71047
# Shear Modulus (GPa) = 16.68299 18.90751 17.79525
#
# Velocity S-wave (km/s) = 3.23887 3.44805 3.34510
# Velocity P-wave (km/s) = 6.61495 6.78840 6.70224
#
# Compressibility (1/GPa) = 0.02112160
#
# Stress axis : x y z
#
# Youngs Moduli (GPa) = 58.28212 61.95068 69.30788
#
# Poissons Ratio (x) = 0.40484 0.14060
# Poissons Ratio (y) = 0.38086 0.32851
# Poissons Ratio (z) = 0.11823 0.29364
#
# Static dielectric constant tensor:
#      x y z
#    x 2.996440 0.000000 0.000000 
#    y 0.000000 2.702950 0.000000 
#    z 0.000000 0.000000 3.058030 
# 
# 
# High freq. dielectric constant tensor:
#      x y z
#    x 1.597720 0.000000 0.000000 
#    y 0.000000 1.571630 0.000000 
#    z 0.000000 0.000000 1.616130 
# 
# From -- ./inp_files/46644.got.cif
#   From: 2010.06.25/outbox.cif.g09.slc.cpg/sg71_24_cif.got.tgz:46644.got - 2010.06.28 04:59:45.
