data_PCOD8286451
_publ_section_title
;
Structure prediction by ZEFSAII (Michael W. Deem and Ramdas Pophale) SiO2 
 PCOD8286451
Probable space group: F D D D
;
_chemical_formula_sum "Si O2"
_cell_formula_units_Z 240
_cell_length_a 26.529111
_cell_length_b 17.469345
_cell_length_c 24.918352
_cell_angle_alpha 90.000000
_cell_angle_beta 90.000000
_cell_angle_gamma 90.000000
_cell_volume 11548.315360
_symmetry_space_group_name_H-M "F D D D"
_symmetry_group_IT_number 70
_space_group.IT_coordinate_system_code '2'
_symmetry_cell_setting 'orthorhombic'
loop_
_space_group_symop_operation_xyz
x,y,z
1/4-x,1/4-y,z
x,1/4-y,1/4-z
1/4-x,y,1/4-z
-x,-y,-z
3/4+x,3/4+y,-z
-x,3/4+y,3/4+z
3/4+x,-y,3/4+z
x,1/2+y,1/2+z
1/4-x,3/4-y,1/2+z
x,3/4-y,3/4-z
1/4-x,1/2+y,3/4-z
-x,1/2-y,1/2-z
3/4+x,1/4+y,1/2-z
-x,1/4+y,1/4+z
3/4+x,1/2-y,1/4+z
1/2+x,y,1/2+z
3/4-x,1/4-y,1/2+z
1/2+x,1/4-y,3/4-z
3/4-x,y,3/4-z
1/2-x,-y,1/2-z
1/4+x,3/4+y,1/2-z
1/2-x,3/4+y,1/4+z
1/4+x,-y,1/4+z
1/2+x,1/2+y,z
3/4-x,3/4-y,z
1/2+x,3/4-y,1/4-z
3/4-x,1/2+y,1/4-z
1/2-x,1/2-y,-z
1/4+x,1/4+y,-z
1/2-x,1/4+y,3/4+z
1/4+x,1/2-y,3/4+z
loop_
_atom_site_type_symbol
_atom_site_label
_atom_site_fract_x
_atom_site_fract_y
_atom_site_fract_z
Si Si1 0.880762 0.729015 0.525902
Si Si2 0.109352 0.767782 0.684047
Si Si3 0.398213 0.709828 0.142317
Si Si4 0.071527 0.417807 0.769503
Si Si5 0.037715 0.409835 0.200785
Si Si6 0.705844 0.699036 0.979971
Si Si7 0.125000 0.125000 0.539236
Si Si8 0.772896 0.320217 0.830773
O O1 0.887531 0.754193 0.587474
O O2 0.834954 0.671065 0.518168
O O3 0.932832 0.693078 0.502676
O O4 0.861774 0.803118 0.496450
O O5 0.125000 0.737249 0.625000
O O6 0.160326 0.793923 0.714092
O O7 0.070235 0.839081 0.677143
O O8 0.085466 0.699899 0.721517
O O9 0.418447 0.625000 0.125000
O O10 0.348247 0.704800 0.178393
O O11 0.437567 0.760646 0.175421
O O12 0.011428 0.427511 0.776825
O O13 0.031632 0.479072 0.157020
O O14 0.980520 0.384075 0.217601
O O15 0.750000 0.750000 0.000000
O O16 0.173377 0.109831 0.575020
O O17 0.745497 0.375000 0.875000
#
# Coordination Sequence:
#
# PCOD8286451 Si02
#       8
#    32  32  32  32  32  32  16  32
#     4   9  18  37  57  81 113 152 195 251 299 355
#     4   9  18  36  62  88 121 160 200 248 308 365
#     4   9  16  32  57  82 111 154 192 237 297 346
#     4   9  19  36  59  81 116 155 196 243 297 367
#     4   9  20  37  57  85 121 155 202 248 301 370
#     4   9  17  34  57  89 117 153 202 243 291 370
#     4  10  23  38  54  86 120 144 197 256 302 362
#     4  11  22  39  59  84 119 161 201 248 310 368
#
# _framework density 20.782253000000001
#
# number of rings (size 3 to 8) (size 9 to 14) (size 15 to 20)
#    0.000    2.667    0.000    3.800    0.000    3.733 
#   14.400    2.000    0.000    0.800    0.000    0.000 
#    0.000    0.000    0.000    0.000    0.000    0.000 
#
# Total GULP energy -743291.433128 kJ/mol
# GULP energy per Si atom -12388.190552 kJ/mol
# Density = 2.073495 g / cm^3
# Si number density = 20.782253 Si / 1000 Ang^3
#
#
#
# Elastic Constant Matrix: (Units=GPa)
#
#
# Indices 1 2 3 4 5 6 
#
# 1 92.8328 34.0674 14.2196 0.0000 0.0000 0.0000
# 2 34.0674 85.1923 25.5797 0.0000 0.0000 0.0000
# 3 14.2196 25.5797 94.2121 0.0000 0.0000 0.0000
# 4 0.0000 0.0000 0.0000 -48.6387 0.0000 0.0000
# 5 0.0000 0.0000 0.0000 0.0000 17.6988 0.0000
# 6 0.0000 0.0000 0.0000 0.0000 0.0000 29.1540
#
#
#
# Elastic Compliance Matrix: (Units=1/GPa)
#
#
# Indices 1 2 3 4 5 6 
#
# 1 0.012654 -0.004885 -0.000584 0.000000 0.000000 0.000000
# 2 -0.004885 0.014666 -0.003245 0.000000 0.000000 0.000000
# 3 -0.000584 -0.003245 0.011583 0.000000 0.000000 0.000000
# 4 0.000000 0.000000 0.000000 -0.020560 0.000000 0.000000
# 5 0.000000 0.000000 0.000000 0.000000 0.056501 0.000000
# 6 0.000000 0.000000 0.000000 0.000000 0.000000 0.034301
#
#
# Mechanical properties :
#
#
# Convention : Reuss Voigt Hill
#
# Bulk Modulus (GPa) = 46.56167 46.66340 46.61254
# Shear Modulus (GPa) = 37.38861 12.86752 25.12807
#
# Velocity S-wave (km/s) = 4.24614 2.49099 3.48100
# Velocity P-wave (km/s) = 6.81856 5.54758 6.21564
#
# Compressibility (1/GPa) = 0.02147689
#
# Stress axis : x y z
#
# Youngs Moduli (GPa) = 79.02564 68.18563 86.33051
#
# Poissons Ratio (x) = 0.33309 0.05038
# Poissons Ratio (y) = 0.38604 0.28011
# Poissons Ratio (z) = 0.04612 0.22124
#
# Static dielectric constant tensor:
#      x y z
#    x 3.897140 0.000000 0.000000 
#    y 0.000000 4.095290 0.000000 
#    z 0.000000 0.000000 3.914320 
# 
# 
# High freq. dielectric constant tensor:
#      x y z
#    x 1.806470 0.000000 0.000000 
#    y 0.000000 1.806710 0.000000 
#    z 0.000000 0.000000 1.801370 
# 
# From -- ./inp_files/61863.got.cif
#   From: 2010.03.12/outbox.cif.g09.slc.cpg/sg70_31_cif.got.tgz:61863.got - 2010.04.16 13:46:32.
