data_PCOD8286555
_publ_section_title
;
Structure prediction by ZEFSAII (Michael W. Deem and Ramdas Pophale) SiO2 
 PCOD8286555
Probable space group: F D D D
;
_chemical_formula_sum "Si O2"
_cell_formula_units_Z 160
_cell_length_a 18.228241
_cell_length_b 20.290365
_cell_length_c 21.396637
_cell_angle_alpha 90.000000
_cell_angle_beta 90.000000
_cell_angle_gamma 90.000000
_cell_volume 7913.710161
_symmetry_space_group_name_H-M "F D D D"
_symmetry_group_IT_number 70
_space_group.IT_coordinate_system_code '2'
_symmetry_cell_setting 'orthorhombic'
loop_
_space_group_symop_operation_xyz
x,y,z
1/4-x,1/4-y,z
x,1/4-y,1/4-z
1/4-x,y,1/4-z
-x,-y,-z
3/4+x,3/4+y,-z
-x,3/4+y,3/4+z
3/4+x,-y,3/4+z
x,1/2+y,1/2+z
1/4-x,3/4-y,1/2+z
x,3/4-y,3/4-z
1/4-x,1/2+y,3/4-z
-x,1/2-y,1/2-z
3/4+x,1/4+y,1/2-z
-x,1/4+y,1/4+z
3/4+x,1/2-y,1/4+z
1/2+x,y,1/2+z
3/4-x,1/4-y,1/2+z
1/2+x,1/4-y,3/4-z
3/4-x,y,3/4-z
1/2-x,-y,1/2-z
1/4+x,3/4+y,1/2-z
1/2-x,3/4+y,1/4+z
1/4+x,-y,1/4+z
1/2+x,1/2+y,z
3/4-x,3/4-y,z
1/2+x,3/4-y,1/4-z
3/4-x,1/2+y,1/4-z
1/2-x,1/2-y,-z
1/4+x,1/4+y,-z
1/2-x,1/4+y,3/4+z
1/4+x,1/2-y,3/4+z
loop_
_atom_site_type_symbol
_atom_site_label
_atom_site_fract_x
_atom_site_fract_y
_atom_site_fract_z
Si Si1 0.626827 0.863950 0.947006
Si Si2 0.875000 0.375000 0.875000
Si Si3 0.875000 0.875000 0.875000
Si Si4 0.104560 0.213689 0.301234
Si Si5 0.221590 0.600227 0.517005
Si Si6 0.728227 0.074106 0.233316
Si Si7 0.625000 0.625000 0.837364
O O1 0.614977 0.875000 0.875000
O O2 0.657279 0.790558 0.956309
O O3 0.691367 0.909513 0.975703
O O4 0.550700 0.880968 0.979212
O O5 0.822874 0.419733 0.829415
O O6 0.819756 0.918076 0.917951
O O7 0.190777 0.199378 0.285302
O O8 0.051283 0.175081 0.253109
O O9 0.093779 0.185991 0.371377
O O10 0.690550 0.101255 0.294597
O O11 0.750000 0.000000 0.250000
#
# Coordination Sequence:
#
# PCOD8286555 Si02
#       7
#    32   8   8  32  32  32  16
#     4  12  22  36  63  94 115 156 211 246 302 374
#     4  10  24  46  66  94 128 164 216 280 312 376
#     4   8  14  34  54  86 114 158 176 222 304 352
#     4   9  21  40  61  87 127 157 196 252 312 364
#     4   9  19  37  61  88 126 154 188 248 304 362
#     4  11  24  43  64  91 125 170 214 260 319 372
#     4   9  21  43  60  83 125 167 198 258 318 361
#
# _framework density 20.218077999999998
#
# number of rings (size 3 to 8) (size 9 to 14) (size 15 to 20)
#    0.000    2.400    2.000    1.800    0.000    4.800 
#    3.600    0.000    0.000    0.000    0.000    0.000 
#    0.000    0.000    0.000    0.000    0.000    0.000 
#
# Total GULP energy -495575.909488 kJ/mol
# GULP energy per Si atom -12389.397737 kJ/mol
# Density = 2.017206 g / cm^3
# Si number density = 20.218078 Si / 1000 Ang^3
#
#
#
# Elastic Constant Matrix: (Units=GPa)
#
#
# Indices 1 2 3 4 5 6 
#
# 1 134.7674 21.5967 53.3629 0.0000 0.0000 0.0000
# 2 21.5967 72.1171 31.7548 0.0000 0.0000 0.0000
# 3 53.3629 31.7548 120.2046 0.0000 0.0000 0.0000
# 4 0.0000 0.0000 0.0000 15.7883 0.0000 0.0000
# 5 0.0000 0.0000 0.0000 0.0000 46.9903 0.0000
# 6 0.0000 0.0000 0.0000 0.0000 0.0000 18.7823
#
#
#
# Elastic Compliance Matrix: (Units=1/GPa)
#
#
# Indices 1 2 3 4 5 6 
#
# 1 0.009075 -0.001068 -0.003746 0.000000 0.000000 0.000000
# 2 -0.001068 0.015817 -0.003704 0.000000 0.000000 0.000000
# 3 -0.003746 -0.003704 0.010961 0.000000 0.000000 0.000000
# 4 0.000000 0.000000 0.000000 0.063338 0.000000 0.000000
# 5 0.000000 0.000000 0.000000 0.000000 0.021281 0.000000
# 6 0.000000 0.000000 0.000000 0.000000 0.000000 0.053242
#
#
# Mechanical properties :
#
#
# Convention : Reuss Voigt Hill
#
# Bulk Modulus (GPa) = 53.14807 60.05756 56.60282
# Shear Modulus (GPa) = 25.37774 31.00384 28.19079
#
# Velocity S-wave (km/s) = 3.54672 3.92020 3.73813
# Velocity P-wave (km/s) = 6.56634 7.08943 6.83289
#
# Compressibility (1/GPa) = 0.01881536
#
# Stress axis : x y z
#
# Youngs Moduli (GPa) = 110.19529 63.22197 91.23305
#
# Poissons Ratio (x) = 0.06752 0.34180
# Poissons Ratio (y) = 0.11768 0.33796
# Poissons Ratio (z) = 0.41284 0.23420
#
# Static dielectric constant tensor:
#      x y z
#    x 3.796630 0.000000 0.000000 
#    y 0.000000 3.789830 0.000000 
#    z 0.000000 0.000000 4.065650 
# 
# 
# High freq. dielectric constant tensor:
#      x y z
#    x 1.796630 0.000000 0.000000 
#    y 0.000000 1.763330 0.000000 
#    z 0.000000 0.000000 1.799940 
# 
# From -- ./inp_files/43709.got.cif
#   From: 2010.03.12/outbox.cif.g09.slc.cpg/sg70_22_cif.got.tgz:43709.got - 2010.04.16 13:46:32.
