data_PCOD8286788
_publ_section_title
;
Structure prediction by ZEFSAII (Michael W. Deem and Ramdas Pophale) SiO2 
 PCOD8286788
Probable space group: F D D D
;
_chemical_formula_sum "Si O2"
_cell_formula_units_Z 144
_cell_length_a 21.379465
_cell_length_b 10.130719
_cell_length_c 27.967506
_cell_angle_alpha 90.000000
_cell_angle_beta 90.000000
_cell_angle_gamma 90.000000
_cell_volume 6057.464010
_symmetry_space_group_name_H-M "F D D D"
_symmetry_group_IT_number 70
_space_group.IT_coordinate_system_code '2'
_symmetry_cell_setting 'orthorhombic'
loop_
_space_group_symop_operation_xyz
x,y,z
1/4-x,1/4-y,z
x,1/4-y,1/4-z
1/4-x,y,1/4-z
-x,-y,-z
3/4+x,3/4+y,-z
-x,3/4+y,3/4+z
3/4+x,-y,3/4+z
x,1/2+y,1/2+z
1/4-x,3/4-y,1/2+z
x,3/4-y,3/4-z
1/4-x,1/2+y,3/4-z
-x,1/2-y,1/2-z
3/4+x,1/4+y,1/2-z
-x,1/4+y,1/4+z
3/4+x,1/2-y,1/4+z
1/2+x,y,1/2+z
3/4-x,1/4-y,1/2+z
1/2+x,1/4-y,3/4-z
3/4-x,y,3/4-z
1/2-x,-y,1/2-z
1/4+x,3/4+y,1/2-z
1/2-x,3/4+y,1/4+z
1/4+x,-y,1/4+z
1/2+x,1/2+y,z
3/4-x,3/4-y,z
1/2+x,3/4-y,1/4-z
3/4-x,1/2+y,1/4-z
1/2-x,1/2-y,-z
1/4+x,1/4+y,-z
1/2-x,1/4+y,3/4+z
1/4+x,1/2-y,3/4+z
loop_
_atom_site_type_symbol
_atom_site_label
_atom_site_fract_x
_atom_site_fract_y
_atom_site_fract_z
Si Si1 0.543033 0.375000 0.375000
Si Si2 0.121552 0.774662 0.289731
Si Si3 0.840563 0.572421 0.448772
Si Si4 0.031315 0.866455 0.104513
Si Si5 0.499546 0.339405 0.796668
O O1 0.585397 0.461283 0.410341
O O2 0.501274 0.273441 0.407032
O O3 0.125000 0.625000 0.272403
O O4 0.084631 0.861314 0.250479
O O5 0.193401 0.811629 0.295530
O O6 0.910840 0.595503 0.430159
O O7 0.796733 0.645805 0.410391
O O8 0.816489 0.420354 0.451266
O O9 0.988403 0.994051 0.092994
O O10 0.500000 0.250000 0.750000
#
# Coordination Sequence:
#
# PCOD8286788 Si02
#       5
#    16  32  32  32  32
#     4  12  30  49  76 114 155 214 254 338 406 474
#     4  12  30  48  75 112 160 202 266 331 407 475
#     4  11  26  47  78 113 151 205 262 325 393 465
#     4  11  26  47  78 112 154 200 271 319 391 474
#     4  12  25  47  78 112 151 206 260 329 391 478
#
# _framework density 23.772324999999999
#
# number of rings (size 3 to 8) (size 9 to 14) (size 15 to 20)
#    0.000    0.444    2.222    4.000    9.333    6.222 
#    0.000    0.000    0.000    0.000    0.000    0.000 
#    0.000    0.000    0.000    0.000    0.000    0.000 
#
# Total GULP energy -446300.828786 kJ/mol
# GULP energy per Si atom -12397.245244 kJ/mol
# Density = 2.371822 g / cm^3
# Si number density = 23.772325 Si / 1000 Ang^3
#
#
#
# Elastic Constant Matrix: (Units=GPa)
#
#
# Indices 1 2 3 4 5 6 
#
# 1 119.7579 68.6012 33.4239 0.0000 0.0000 0.0000
# 2 68.6012 175.2732 32.7895 0.0000 0.0000 0.0000
# 3 33.4239 32.7895 104.1202 0.0000 0.0000 0.0000
# 4 0.0000 0.0000 0.0000 47.3859 0.0000 0.0000
# 5 0.0000 0.0000 0.0000 0.0000 41.3966 0.0000
# 6 0.0000 0.0000 0.0000 0.0000 0.0000 48.0036
#
#
#
# Elastic Compliance Matrix: (Units=1/GPa)
#
#
# Indices 1 2 3 4 5 6 
#
# 1 0.011289 -0.003975 -0.002372 0.000000 0.000000 0.000000
# 2 -0.003975 0.007462 -0.001074 0.000000 0.000000 0.000000
# 3 -0.002372 -0.001074 0.010704 0.000000 0.000000 0.000000
# 4 0.000000 0.000000 0.000000 0.021103 0.000000 0.000000
# 5 0.000000 0.000000 0.000000 0.000000 0.024157 0.000000
# 6 0.000000 0.000000 0.000000 0.000000 0.000000 0.020832
#
#
# Mechanical properties :
#
#
# Convention : Reuss Voigt Hill
#
# Bulk Modulus (GPa) = 68.43112 74.30895 71.37004
# Shear Modulus (GPa) = 43.38029 44.97968 44.17999
#
# Velocity S-wave (km/s) = 4.27643 4.35455 4.31567
# Velocity P-wave (km/s) = 7.29605 7.52391 7.41086
#
# Compressibility (1/GPa) = 0.01461323
#
# Stress axis : x y z
#
# Youngs Moduli (GPa) = 88.58091 134.01254 93.42287
#
# Poissons Ratio (x) = 0.53266 0.22162
# Poissons Ratio (y) = 0.35208 0.10034
# Poissons Ratio (z) = 0.21013 0.14393
#
# Static dielectric constant tensor:
#      x y z
#    x 4.543640 0.000000 0.000000 
#    y 0.000000 4.264410 0.000000 
#    z 0.000000 0.000000 4.422020 
# 
# 
# High freq. dielectric constant tensor:
#      x y z
#    x 1.947490 0.000000 0.000000 
#    y 0.000000 1.951020 0.000000 
#    z 0.000000 0.000000 1.948280 
# 
# From -- ./inp_files/60997.got.cif
#   From: 2010.03.12/outbox.cif.g09.slc.cpg/sg70_31_cif.got.tgz:60997.got - 2010.04.16 13:46:32.
