data_PCOD8286700
_publ_section_title
;
Structure prediction by ZEFSAII (Michael W. Deem and Ramdas Pophale) SiO2 
 PCOD8286700
Probable space group: F D D D
;
_chemical_formula_sum "Si O2"
_cell_formula_units_Z 144
_cell_length_a 22.136552
_cell_length_b 24.574088
_cell_length_c 11.689422
_cell_angle_alpha 90.000000
_cell_angle_beta 90.000000
_cell_angle_gamma 90.000000
_cell_volume 6358.876970
_symmetry_space_group_name_H-M "F D D D"
_symmetry_group_IT_number 70
_space_group.IT_coordinate_system_code '2'
_symmetry_cell_setting 'orthorhombic'
loop_
_space_group_symop_operation_xyz
x,y,z
1/4-x,1/4-y,z
x,1/4-y,1/4-z
1/4-x,y,1/4-z
-x,-y,-z
3/4+x,3/4+y,-z
-x,3/4+y,3/4+z
3/4+x,-y,3/4+z
x,1/2+y,1/2+z
1/4-x,3/4-y,1/2+z
x,3/4-y,3/4-z
1/4-x,1/2+y,3/4-z
-x,1/2-y,1/2-z
3/4+x,1/4+y,1/2-z
-x,1/4+y,1/4+z
3/4+x,1/2-y,1/4+z
1/2+x,y,1/2+z
3/4-x,1/4-y,1/2+z
1/2+x,1/4-y,3/4-z
3/4-x,y,3/4-z
1/2-x,-y,1/2-z
1/4+x,3/4+y,1/2-z
1/2-x,3/4+y,1/4+z
1/4+x,-y,1/4+z
1/2+x,1/2+y,z
3/4-x,3/4-y,z
1/2+x,3/4-y,1/4-z
3/4-x,1/2+y,1/4-z
1/2-x,1/2-y,-z
1/4+x,1/4+y,-z
1/2-x,1/4+y,3/4+z
1/4+x,1/2-y,3/4+z
loop_
_atom_site_type_symbol
_atom_site_label
_atom_site_fract_x
_atom_site_fract_y
_atom_site_fract_z
Si Si1 0.839577 0.215057 0.491131
Si Si2 0.192987 0.009846 0.603300
Si Si3 0.240801 0.085554 0.783901
Si Si4 0.092563 0.875000 0.375000
Si Si5 0.537859 0.692170 0.360017
O O1 0.875000 0.210969 0.375000
O O2 0.866795 0.176821 0.591111
O O3 0.772293 0.195084 0.465516
O O4 0.840220 0.278062 0.535679
O O5 0.125000 0.988460 0.625000
O O6 0.199885 0.064193 0.679785
O O7 0.213412 0.023070 0.475971
O O8 0.241438 0.964299 0.635843
O O9 0.301829 0.112648 0.735696
O O10 0.201455 0.128875 0.857782
#
# Coordination Sequence:
#
# PCOD8286700 Si02
#       5
#    32  32  32  16  32
#     4  11  24  41  69 100 142 178 230 283 344 411
#     4  11  24  42  70 100 135 180 224 289 346 401
#     4  11  23  42  69 105 135 170 241 279 332 415
#     4  12  22  44  75  96 127 188 230 286 338 410
#     4  11  24  42  64 104 138 176 228 286 332 421
#
# _framework density 22.645508
#
# number of rings (size 3 to 8) (size 9 to 14) (size 15 to 20)
#    0.000    0.889    4.444    1.333    6.222    3.556 
#    0.000    0.000    0.000    6.667    0.000    0.000 
#    0.000    0.000    0.000    0.000    0.000    0.000 
#
# Total GULP energy -446303.740755 kJ/mol
# GULP energy per Si atom -12397.326132 kJ/mol
# Density = 2.259397 g / cm^3
# Si number density = 22.645508 Si / 1000 Ang^3
#
#
#
# Elastic Constant Matrix: (Units=GPa)
#
#
# Indices 1 2 3 4 5 6 
#
# 1 55.3076 18.2681 5.4492 0.0000 0.0000 0.0000
# 2 18.2681 124.6564 30.0414 0.0000 0.0000 0.0000
# 3 5.4492 30.0414 59.3943 0.0001 -0.0001 0.0000
# 4 0.0000 0.0000 0.0001 34.8829 0.0000 0.0000
# 5 0.0000 0.0000 -0.0001 0.0000 15.1230 0.0000
# 6 0.0000 0.0000 0.0000 0.0000 0.0000 24.2752
#
#
#
# Elastic Compliance Matrix: (Units=1/GPa)
#
#
# Indices 1 2 3 4 5 6 
#
# 1 0.019008 -0.002694 -0.000381 0.000000 0.000000 0.000000
# 2 -0.002694 0.009517 -0.004567 0.000000 0.000000 0.000000
# 3 -0.000381 -0.004567 0.019181 0.000000 0.000000 0.000000
# 4 0.000000 0.000000 0.000000 0.028667 0.000000 0.000000
# 5 0.000000 0.000000 0.000000 0.000000 0.066124 0.000000
# 6 0.000000 0.000000 0.000000 0.000000 0.000000 0.041194
#
#
# Mechanical properties :
#
#
# Convention : Reuss Voigt Hill
#
# Bulk Modulus (GPa) = 30.84215 38.54174 34.69194
# Shear Modulus (GPa) = 23.83404 27.22954 25.53179
#
# Velocity S-wave (km/s) = 3.24772 3.47136 3.36140
# Velocity P-wave (km/s) = 5.26429 5.75532 5.51527
#
# Compressibility (1/GPa) = 0.03242316
#
# Stress axis : x y z
#
# Youngs Moduli (GPa) = 52.60941 105.07125 52.13368
#
# Poissons Ratio (x) = 0.28303 0.01989
# Poissons Ratio (y) = 0.14171 0.23808
# Poissons Ratio (z) = 0.02007 0.47983
#
# Static dielectric constant tensor:
#      x y z
#    x 4.140520 0.000000 0.000000 
#    y 0.000000 4.342390 0.000000 
#    z 0.000000 0.000000 4.224490 
# 
# 
# High freq. dielectric constant tensor:
#      x y z
#    x 1.878670 0.000000 0.000000 
#    y 0.000000 1.900260 0.000000 
#    z 0.000000 0.000000 1.898750 
# 
# From -- ./inp_files/19195.got.cif
#   From: 2010.03.12/outbox.cif.g09.slc.cpg/sg70_10_cif.got.tgz:19195.got - 2010.04.16 13:46:32.
