data_PCOD8286779
_publ_section_title
;
Structure prediction by ZEFSAII (Michael W. Deem and Ramdas Pophale) SiO2 
 PCOD8286779
Probable space group: F D D D
;
_chemical_formula_sum "Si O2"
_cell_formula_units_Z 176
_cell_length_a 22.301725
_cell_length_b 15.363550
_cell_length_c 22.190025
_cell_angle_alpha 90.000000
_cell_angle_beta 90.000000
_cell_angle_gamma 90.000000
_cell_volume 7603.049639
_symmetry_space_group_name_H-M "F D D D"
_symmetry_group_IT_number 70
_space_group.IT_coordinate_system_code '2'
_symmetry_cell_setting 'orthorhombic'
loop_
_space_group_symop_operation_xyz
x,y,z
1/4-x,1/4-y,z
x,1/4-y,1/4-z
1/4-x,y,1/4-z
-x,-y,-z
3/4+x,3/4+y,-z
-x,3/4+y,3/4+z
3/4+x,-y,3/4+z
x,1/2+y,1/2+z
1/4-x,3/4-y,1/2+z
x,3/4-y,3/4-z
1/4-x,1/2+y,3/4-z
-x,1/2-y,1/2-z
3/4+x,1/4+y,1/2-z
-x,1/4+y,1/4+z
3/4+x,1/2-y,1/4+z
1/2+x,y,1/2+z
3/4-x,1/4-y,1/2+z
1/2+x,1/4-y,3/4-z
3/4-x,y,3/4-z
1/2-x,-y,1/2-z
1/4+x,3/4+y,1/2-z
1/2-x,3/4+y,1/4+z
1/4+x,-y,1/4+z
1/2+x,1/2+y,z
3/4-x,3/4-y,z
1/2+x,3/4-y,1/4-z
3/4-x,1/2+y,1/4-z
1/2-x,1/2-y,-z
1/4+x,1/4+y,-z
1/2-x,1/4+y,3/4+z
1/4+x,1/2-y,3/4+z
loop_
_atom_site_type_symbol
_atom_site_label
_atom_site_fract_x
_atom_site_fract_y
_atom_site_fract_z
Si Si1 0.614479 0.963888 0.445143
Si Si2 0.875000 0.375000 0.263546
Si Si3 0.235346 0.544727 0.665768
Si Si4 0.875869 0.192080 0.972749
Si Si5 0.783853 0.650827 0.370738
Si Si6 0.907716 0.460742 0.083831
O O1 0.542629 0.974152 0.458842
O O2 0.639943 0.881981 0.479339
O O3 0.650359 0.047994 0.471500
O O4 0.628743 0.960737 0.373540
O O5 0.824373 0.420195 0.303479
O O6 0.258259 0.625000 0.625000
O O7 0.221771 0.454512 0.630209
O O8 0.834470 0.179585 0.916260
O O9 0.944391 0.187098 0.945797
O O10 0.858226 0.277034 0.012456
O O11 0.726824 0.700344 0.397948
O O12 0.875000 0.375000 0.106200
#
# Coordination Sequence:
#
# PCOD8286779 Si02
#       6
#    32  16  32  32  32  32
#     4  12  24  43  66 104 145 185 237 293 372 451
#     4  12  23  38  68 102 144 185 228 286 384 446
#     4  12  24  40  68 106 144 185 233 298 373 456
#     4  11  26  45  71 102 140 190 244 311 371 441
#     4  11  25  48  70 103 148 188 250 318 369 447
#     4  12  25  46  70 103 141 197 249 302 371 444
#
# _framework density 23.148606000000001
#
# number of rings (size 3 to 8) (size 9 to 14) (size 15 to 20)
#    0.000    0.364    4.545    4.091    5.091    1.455 
#    0.000    3.636    0.000    0.000    0.000    0.000 
#    0.000    0.000    0.000    0.000    0.000    0.000 
#
# Total GULP energy -545151.095025 kJ/mol
# GULP energy per Si atom -12389.797614 kJ/mol
# Density = 2.309592 g / cm^3
# Si number density = 23.148606 Si / 1000 Ang^3
#
#
#
# Elastic Constant Matrix: (Units=GPa)
#
#
# Indices 1 2 3 4 5 6 
#
# 1 111.5763 34.2887 38.2738 0.0000 0.0000 0.0000
# 2 34.2887 76.1594 37.1871 0.0000 0.0000 0.0000
# 3 38.2738 37.1871 112.2280 0.0000 0.0000 0.0000
# 4 0.0000 0.0000 0.0000 84.4014 0.0000 0.0000
# 5 0.0000 0.0000 0.0000 0.0000 32.0473 0.0000
# 6 0.0000 0.0000 0.0000 0.0000 0.0000 31.2754
#
#
#
# Elastic Compliance Matrix: (Units=1/GPa)
#
#
# Indices 1 2 3 4 5 6 
#
# 1 0.010964 -0.003711 -0.002509 0.000000 0.000000 0.000000
# 2 -0.003711 0.016921 -0.004341 0.000000 0.000000 0.000000
# 3 -0.002509 -0.004341 0.011205 0.000000 0.000000 0.000000
# 4 0.000000 0.000000 0.000000 0.011848 0.000000 0.000000
# 5 0.000000 0.000000 0.000000 0.000000 0.031204 0.000000
# 6 0.000000 0.000000 0.000000 0.000000 0.000000 0.031974
#
#
# Mechanical properties :
#
#
# Convention : Reuss Voigt Hill
#
# Bulk Modulus (GPa) = 55.65992 57.71811 56.68902
# Shear Modulus (GPa) = 35.40405 42.22576 38.81490
#
# Velocity S-wave (km/s) = 3.91503 4.27560 4.09928
# Velocity P-wave (km/s) = 6.67334 7.02582 6.85185
#
# Compressibility (1/GPa) = 0.01796625
#
# Stress axis : x y z
#
# Youngs Moduli (GPa) = 91.21049 59.09899 89.24814
#
# Poissons Ratio (x) = 0.21930 0.22396
# Poissons Ratio (y) = 0.33846 0.38745
# Poissons Ratio (z) = 0.22889 0.25656
#
# Static dielectric constant tensor:
#      x y z
#    x 4.361020 0.000000 0.000000 
#    y 0.000000 4.500450 0.000000 
#    z 0.000000 0.000000 4.526880 
# 
# 
# High freq. dielectric constant tensor:
#      x y z
#    x 1.913180 0.000000 0.000000 
#    y 0.000000 1.912350 0.000000 
#    z 0.000000 0.000000 1.930650 
# 
# From -- ./inp_files/53617.got.cif
#   From: 2010.03.12/outbox.cif.g09.slc.cpg/sg70_27_cif.got.tgz:53617.got - 2010.04.16 13:46:32.
