data_PCOD8286088
_publ_section_title
;
Structure prediction by ZEFSAII (Michael W. Deem and Ramdas Pophale) SiO2 
 PCOD8286088
Probable space group: F D D D
;
_chemical_formula_sum "Si O2"
_cell_formula_units_Z 208
_cell_length_a 16.678676
_cell_length_b 28.636293
_cell_length_c 22.571500
_cell_angle_alpha 90.000000
_cell_angle_beta 90.000000
_cell_angle_gamma 90.000000
_cell_volume 10780.497193
_symmetry_space_group_name_H-M "F D D D"
_symmetry_group_IT_number 70
_space_group.IT_coordinate_system_code '2'
_symmetry_cell_setting 'orthorhombic'
loop_
_space_group_symop_operation_xyz
x,y,z
1/4-x,1/4-y,z
x,1/4-y,1/4-z
1/4-x,y,1/4-z
-x,-y,-z
3/4+x,3/4+y,-z
-x,3/4+y,3/4+z
3/4+x,-y,3/4+z
x,1/2+y,1/2+z
1/4-x,3/4-y,1/2+z
x,3/4-y,3/4-z
1/4-x,1/2+y,3/4-z
-x,1/2-y,1/2-z
3/4+x,1/4+y,1/2-z
-x,1/4+y,1/4+z
3/4+x,1/2-y,1/4+z
1/2+x,y,1/2+z
3/4-x,1/4-y,1/2+z
1/2+x,1/4-y,3/4-z
3/4-x,y,3/4-z
1/2-x,-y,1/2-z
1/4+x,3/4+y,1/2-z
1/2-x,3/4+y,1/4+z
1/4+x,-y,1/4+z
1/2+x,1/2+y,z
3/4-x,3/4-y,z
1/2+x,3/4-y,1/4-z
3/4-x,1/2+y,1/4-z
1/2-x,1/2-y,-z
1/4+x,1/4+y,-z
1/2-x,1/4+y,3/4+z
1/4+x,1/2-y,3/4+z
loop_
_atom_site_type_symbol
_atom_site_label
_atom_site_fract_x
_atom_site_fract_y
_atom_site_fract_z
Si Si1 0.875000 0.375000 0.213415
Si Si2 0.826356 0.040543 0.433338
Si Si3 0.284630 0.144893 0.217755
Si Si4 0.916926 0.472371 0.010687
Si Si5 0.153841 0.813869 0.393568
Si Si6 0.760057 0.625000 0.625000
Si Si7 0.125000 0.625000 0.214714
Si Si8 0.105830 0.216402 0.896659
O O1 0.803828 0.362774 0.257583
O O2 0.852798 0.418866 0.170352
O O3 0.875000 0.054079 0.375000
O O4 0.838464 0.082334 0.480378
O O5 0.735021 0.034134 0.416545
O O6 0.854809 0.992659 0.463061
O O7 0.281537 0.179124 0.159866
O O8 0.324730 0.096078 0.199664
O O9 0.886728 0.477312 0.077261
O O10 0.915221 0.416685 0.002226
O O11 0.000000 0.500000 0.000000
O O12 0.067998 0.830022 0.364545
O O13 0.151515 0.762100 0.421714
O O14 0.701752 0.641623 0.677434
#
# Coordination Sequence:
#
# PCOD8286088 Si02
#       8
#    16  32  32  32  32  16  16  32
#     4  10  23  41  61  90 122 158 201 260 332 362
#     4  11  22  37  59  87 124 162 199 247 318 379
#     4   9  21  39  62  88 115 160 204 258 309 375
#     4  12  23  36  58  86 123 170 205 247 310 374
#     4  10  20  38  66  85 115 161 210 259 309 377
#     4   9  20  34  52  87 120 148 206 249 304 358
#     4  11  23  32  51  86 123 160 203 251 296 380
#     4  11  22  39  59  87 122 158 202 258 309 380
#
# _framework density 19.294101000000001
#
# number of rings (size 3 to 8) (size 9 to 14) (size 15 to 20)
#    0.000    1.692    3.077    2.308    4.308    1.846 
#    0.000    0.000    0.000    0.000    0.000    0.000 
#    0.000    0.000    0.000    0.000    0.000    0.000 
#
# Total GULP energy -644284.117835 kJ/mol
# GULP energy per Si atom -12390.079189 kJ/mol
# Density = 1.925019 g / cm^3
# Si number density = 19.294101 Si / 1000 Ang^3
#
#
#
# Elastic Constant Matrix: (Units=GPa)
#
#
# Indices 1 2 3 4 5 6 
#
# 1 57.3608 29.6473 21.0723 0.0000 0.0000 0.0000
# 2 29.6473 157.9420 47.6266 0.0000 0.0000 0.0000
# 3 21.0723 47.6266 101.7970 0.0000 0.0000 0.0000
# 4 0.0000 0.0000 0.0000 42.4563 0.0000 0.0000
# 5 0.0000 0.0000 0.0000 0.0000 19.4258 0.0000
# 6 0.0000 0.0000 0.0000 0.0000 0.0000 37.1157
#
#
#
# Elastic Compliance Matrix: (Units=1/GPa)
#
#
# Indices 1 2 3 4 5 6 
#
# 1 0.019955 -0.002911 -0.002769 0.000000 0.000000 0.000000
# 2 -0.002911 0.007796 -0.003045 0.000000 0.000000 0.000000
# 3 -0.002769 -0.003045 0.011821 0.000000 0.000000 0.000000
# 4 0.000000 0.000000 0.000000 0.023554 0.000000 0.000000
# 5 0.000000 0.000000 0.000000 0.000000 0.051478 0.000000
# 6 0.000000 0.000000 0.000000 0.000000 0.000000 0.026943
#
#
# Mechanical properties :
#
#
# Convention : Reuss Voigt Hill
#
# Bulk Modulus (GPa) = 45.20154 57.08804 51.14479
# Shear Modulus (GPa) = 30.05343 34.38312 32.21828
#
# Velocity S-wave (km/s) = 3.95099 4.22602 4.09081
# Velocity P-wave (km/s) = 6.65524 7.31197 6.99132
#
# Compressibility (1/GPa) = 0.02212314
#
# Stress axis : x y z
#
# Youngs Moduli (GPa) = 50.11218 128.27087 84.59362
#
# Poissons Ratio (x) = 0.37338 0.23423
# Poissons Ratio (y) = 0.14587 0.25758
# Poissons Ratio (z) = 0.13876 0.39057
#
# Static dielectric constant tensor:
#      x y z
#    x 3.390700 0.000000 0.000000 
#    y 0.000000 4.009250 0.000000 
#    z 0.000000 0.000000 3.674300 
# 
# 
# High freq. dielectric constant tensor:
#      x y z
#    x 1.734590 0.000000 0.000000 
#    y 0.000000 1.756510 0.000000 
#    z 0.000000 0.000000 1.752710 
# 
# From -- ./inp_files/44104.got.cif
#   From: 2010.03.12/outbox.cif.g09.slc.cpg/sg70_23_cif.got.tgz:44104.got - 2010.04.16 13:46:32.
