data_PCOD8286266
_publ_section_title
;
Structure prediction by ZEFSAII (Michael W. Deem and Ramdas Pophale) SiO2 
 PCOD8286266
Probable space group: F D D D
;
_chemical_formula_sum "Si O2"
_cell_formula_units_Z 176
_cell_length_a 13.814438
_cell_length_b 22.118303
_cell_length_c 27.252356
_cell_angle_alpha 90.000000
_cell_angle_beta 90.000000
_cell_angle_gamma 90.000000
_cell_volume 8327.009849
_symmetry_space_group_name_H-M "F D D D"
_symmetry_group_IT_number 70
_space_group.IT_coordinate_system_code '2'
_symmetry_cell_setting 'orthorhombic'
loop_
_space_group_symop_operation_xyz
x,y,z
1/4-x,1/4-y,z
x,1/4-y,1/4-z
1/4-x,y,1/4-z
-x,-y,-z
3/4+x,3/4+y,-z
-x,3/4+y,3/4+z
3/4+x,-y,3/4+z
x,1/2+y,1/2+z
1/4-x,3/4-y,1/2+z
x,3/4-y,3/4-z
1/4-x,1/2+y,3/4-z
-x,1/2-y,1/2-z
3/4+x,1/4+y,1/2-z
-x,1/4+y,1/4+z
3/4+x,1/2-y,1/4+z
1/2+x,y,1/2+z
3/4-x,1/4-y,1/2+z
1/2+x,1/4-y,3/4-z
3/4-x,y,3/4-z
1/2-x,-y,1/2-z
1/4+x,3/4+y,1/2-z
1/2-x,3/4+y,1/4+z
1/4+x,-y,1/4+z
1/2+x,1/2+y,z
3/4-x,3/4-y,z
1/2+x,3/4-y,1/4-z
3/4-x,1/2+y,1/4-z
1/2-x,1/2-y,-z
1/4+x,1/4+y,-z
1/2-x,1/4+y,3/4+z
1/4+x,1/2-y,3/4+z
loop_
_atom_site_type_symbol
_atom_site_label
_atom_site_fract_x
_atom_site_fract_y
_atom_site_fract_z
Si Si1 0.386360 0.608507 0.068307
Si Si2 0.979984 0.900662 0.182787
Si Si3 0.772145 0.011641 0.019871
Si Si4 0.375000 0.218020 0.875000
Si Si5 0.165476 0.189052 0.040790
Si Si6 0.332399 0.701359 0.990123
O O1 0.410429 0.625000 0.125000
O O2 0.299821 0.559596 0.062697
O O3 0.470378 0.574495 0.036700
O O4 0.360938 0.671566 0.042418
O O5 0.875000 0.875000 0.169391
O O6 0.978827 0.954001 0.222513
O O7 0.030392 0.926730 0.134014
O O8 0.045203 0.847309 0.202454
O O9 0.677745 0.975808 0.037742
O O10 0.860561 0.964361 0.007832
O O11 0.350296 0.259090 0.920448
O O12 0.125000 0.125000 0.059040
O O13 0.250000 0.750000 0.000000
#
# Coordination Sequence:
#
# PCOD8286266 Si02
#       6
#    32  32  32  16  32  32
#     4  11  24  40  66 101 126 168 221 273 326 382
#     4  10  21  40  65  86 125 173 213 255 322 396
#     4  10  22  41  64  93 128 166 217 268 320 392
#     4  10  23  38  58  98 128 159 210 268 320 380
#     4  11  20  38  68  93 126 165 210 265 326 387
#     4  11  22  42  66  88 123 178 215 256 323 390
#
# _framework density 21.136037999999999
#
# number of rings (size 3 to 8) (size 9 to 14) (size 15 to 20)
#    0.000    1.455    3.636    1.909    2.545    0.000 
#    6.545    0.909    0.000    0.000    0.000    0.000 
#    0.000    0.000    0.000    0.000    0.000    0.000 
#
# Total GULP energy -545276.013463 kJ/mol
# GULP energy per Si atom -12392.636670 kJ/mol
# Density = 2.108793 g / cm^3
# Si number density = 21.136038 Si / 1000 Ang^3
#
#
#
# Elastic Constant Matrix: (Units=GPa)
#
#
# Indices 1 2 3 4 5 6 
#
# 1 128.2458 58.0945 28.4167 0.0000 0.0000 0.0000
# 2 58.0945 114.6661 25.9408 0.0000 0.0000 0.0000
# 3 28.4167 25.9408 37.7097 0.0000 0.0000 0.0000
# 4 0.0000 0.0000 0.0000 18.3372 0.0000 0.0000
# 5 0.0000 0.0000 0.0000 0.0000 20.4293 0.0000
# 6 0.0000 0.0000 0.0000 0.0000 0.0000 59.7113
#
#
#
# Elastic Compliance Matrix: (Units=1/GPa)
#
#
# Indices 1 2 3 4 5 6 
#
# 1 0.010931 -0.004352 -0.005243 0.000000 0.000000 0.000000
# 2 -0.004352 0.012061 -0.005017 0.000000 0.000000 0.000000
# 3 -0.005243 -0.005017 0.033921 0.000000 0.000000 0.000000
# 4 0.000000 0.000000 0.000000 0.054534 0.000000 0.000000
# 5 0.000000 0.000000 0.000000 0.000000 0.048949 0.000000
# 6 0.000000 0.000000 0.000000 0.000000 0.000000 0.016747
#
#
# Mechanical properties :
#
#
# Convention : Reuss Voigt Hill
#
# Bulk Modulus (GPa) = 36.11730 56.16950 46.14340
# Shear Modulus (GPa) = 23.19137 30.90685 27.04911
#
# Velocity S-wave (km/s) = 3.31606 3.82813 3.58126
# Velocity P-wave (km/s) = 5.63798 6.79502 6.24336
#
# Compressibility (1/GPa) = 0.02768757
#
# Stress axis : x y z
#
# Youngs Moduli (GPa) = 91.48593 82.91310 29.48012
#
# Poissons Ratio (x) = 0.36081 0.15458
# Poissons Ratio (y) = 0.39812 0.14792
# Poissons Ratio (z) = 0.47969 0.41601
#
# Static dielectric constant tensor:
#      x y z
#    x 4.056840 0.000000 0.000000 
#    y 0.000000 3.922200 0.000000 
#    z 0.000000 0.000000 3.317260 
# 
# 
# High freq. dielectric constant tensor:
#      x y z
#    x 1.841920 0.000000 0.000000 
#    y 0.000000 1.856410 0.000000 
#    z 0.000000 0.000000 1.783780 
# 
# From -- ./inp_files/64769.got.cif
#   From: 2010.03.12/outbox.cif.g09.slc.cpg/sg70_33_cif.got.tgz:64769.got - 2010.04.16 13:46:32.
