data_PCOD8286901
_publ_section_title
;
Structure prediction by ZEFSAII (Michael W. Deem and Ramdas Pophale) SiO2 
 PCOD8286901
Probable space group: I M M M
;
_chemical_formula_sum "Si O2"
_cell_formula_units_Z 80
_cell_length_a 26.128731
_cell_length_b 23.897823
_cell_length_c 8.914264
_cell_angle_alpha 90.000000
_cell_angle_beta 90.000000
_cell_angle_gamma 90.000000
_cell_volume 5566.242843
_symmetry_space_group_name_H-M "I M M M"
_symmetry_group_IT_number 71
_symmetry_cell_setting 'orthorhombic'
loop_
_space_group_symop_operation_xyz
x,y,z
-x,-y,z
x,-y,-z
-x,y,-z
-x,-y,-z
x,y,-z
-x,y,z
x,-y,z
1/2+x,1/2+y,1/2+z
1/2-x,1/2-y,1/2+z
1/2+x,1/2-y,1/2-z
1/2-x,1/2+y,1/2-z
1/2-x,1/2-y,1/2-z
1/2+x,1/2+y,1/2-z
1/2-x,1/2+y,1/2+z
1/2+x,1/2-y,1/2+z
loop_
_atom_site_type_symbol
_atom_site_label
_atom_site_fract_x
_atom_site_fract_y
_atom_site_fract_z
Si Si1 0.299199 0.277469 0.823322
Si Si2 0.890153 0.500000 0.673678
Si Si3 0.218128 0.500000 0.822163
Si Si4 0.643029 0.187559 0.322708
Si Si5 0.759030 0.380786 0.176140
Si Si6 0.441174 0.883426 0.174288
O O1 0.250000 0.250000 0.750000
O O2 0.349465 0.250081 0.747856
O O3 0.292210 0.344276 0.788710
O O4 0.299903 0.266100 0.000000
O O5 0.873484 0.500000 0.500000
O O6 0.840804 0.500000 0.777425
O O7 0.923793 0.446050 0.714174
O O8 0.245657 0.443839 0.757004
O O9 0.221386 0.500000 0.000000
O O10 0.643233 0.193649 0.500000
O O11 0.689337 0.148565 0.260605
O O12 0.589624 0.162250 0.269370
O O13 0.767390 0.384950 0.000000
O O14 0.500000 0.877197 0.220371
O O15 0.432407 0.870692 0.000000
#
# Coordination Sequence:
#
# PCOD8286901 Si02
#       6
#    16   8   8  16  16  16
#     4   9  16  27  41  60  81 104 133 167 205 248
#     4  10  19  30  42  58  78 106 142 177 213 251
#     4  10  16  27  43  59  82 110 135 169 206 241
#     4  10  18  29  43  60  78 103 138 175 212 248
#     4   8  15  25  40  59  79 103 133 164 200 243
#     4  10  20  32  44  58  79 108 140 177 218 255
#
# _framework density 14.372351999999999
#
# number of rings (size 3 to 8) (size 9 to 14) (size 15 to 20)
#    0.000    2.600    2.000    2.700    0.000    1.600 
#    0.000    1.000    0.000    1.800    0.000    0.000 
#    0.000    0.000    0.000    0.900    0.000   20.600 
#
# Total GULP energy -495631.119354 kJ/mol
# GULP energy per Si atom -12390.777984 kJ/mol
# Density = 1.433964 g / cm^3
# Si number density = 14.372352 Si / 1000 Ang^3
#
#
#
# Elastic Constant Matrix: (Units=GPa)
#
#
# Indices 1 2 3 4 5 6 
#
# 1 60.5566 60.9841 27.0846 0.0000 0.0000 0.0000
# 2 60.9841 122.2470 37.6072 0.0000 0.0000 0.0000
# 3 27.0846 37.6072 47.6615 0.0000 0.0000 0.0000
# 4 0.0000 0.0000 0.0000 15.8224 0.0000 0.0000
# 5 0.0000 0.0000 0.0000 0.0000 19.7465 0.0000
# 6 0.0000 0.0000 0.0000 0.0000 0.0000 19.8831
#
#
#
# Elastic Compliance Matrix: (Units=1/GPa)
#
#
# Indices 1 2 3 4 5 6 
#
# 1 0.035443 -0.015166 -0.008174 0.000000 0.000000 0.000000
# 2 -0.015166 0.017292 -0.005026 0.000000 0.000000 0.000000
# 3 -0.008174 -0.005026 0.029592 0.000000 0.000000 0.000000
# 4 0.000000 0.000000 0.000000 0.063202 0.000000 0.000000
# 5 0.000000 0.000000 0.000000 0.000000 0.050642 0.000000
# 6 0.000000 0.000000 0.000000 0.000000 0.000000 0.050294
#
#
# Mechanical properties :
#
#
# Convention : Reuss Voigt Hill
#
# Bulk Modulus (GPa) = 39.07087 53.53520 46.30304
# Shear Modulus (GPa) = 16.03960 18.07634 17.05797
#
# Velocity S-wave (km/s) = 3.34429 3.55028 3.44882
# Velocity P-wave (km/s) = 6.49277 7.35769 6.93872
#
# Compressibility (1/GPa) = 0.02559452
#
# Stress axis : x y z
#
# Youngs Moduli (GPa) = 28.21440 57.82969 33.79298
#
# Poissons Ratio (x) = 0.87707 0.27623
# Poissons Ratio (y) = 0.42791 0.16983
# Poissons Ratio (z) = 0.23063 0.29064
#
# Static dielectric constant tensor:
#      x y z
#    x 2.598700 0.000000 0.000000 
#    y 0.000000 3.416950 0.000000 
#    z 0.000000 0.000000 2.760950 
# 
# 
# High freq. dielectric constant tensor:
#      x y z
#    x 1.504060 0.000000 0.000000 
#    y 0.000000 1.549100 0.000000 
#    z 0.000000 0.000000 1.545230 
# 
# From -- ./inp_files/12753.got.cif
#   From: 2010.06.25/outbox.cif.g09.slc.cpg/sg71_7_cif.got.tgz:12753.got - 2010.06.28 04:59:45.
