data_PCOD8286887
_publ_section_title
;
Structure prediction by ZEFSAII (Michael W. Deem and Ramdas Pophale) SiO2 
 PCOD8286887
Probable space group: I M M M
;
_chemical_formula_sum "Si O2"
_cell_formula_units_Z 112
_cell_length_a 19.853272
_cell_length_b 18.626415
_cell_length_c 18.359916
_cell_angle_alpha 90.000000
_cell_angle_beta 90.000000
_cell_angle_gamma 90.000000
_cell_volume 6789.410340
_symmetry_space_group_name_H-M "I M M M"
_symmetry_group_IT_number 71
_symmetry_cell_setting 'orthorhombic'
loop_
_space_group_symop_operation_xyz
x,y,z
-x,-y,z
x,-y,-z
-x,y,-z
-x,-y,-z
x,y,-z
-x,y,z
x,-y,z
1/2+x,1/2+y,1/2+z
1/2-x,1/2-y,1/2+z
1/2+x,1/2-y,1/2-z
1/2-x,1/2+y,1/2-z
1/2-x,1/2-y,1/2-z
1/2+x,1/2+y,1/2-z
1/2-x,1/2+y,1/2+z
1/2+x,1/2-y,1/2+z
loop_
_atom_site_type_symbol
_atom_site_label
_atom_site_fract_x
_atom_site_fract_y
_atom_site_fract_z
Si Si1 0.136068 0.579775 0.583483
Si Si2 0.672536 0.316199 0.918367
Si Si3 0.282589 0.421246 0.363966
Si Si4 0.423233 0.786302 0.849735
Si Si5 0.228944 0.082302 0.299227
Si Si6 0.694052 0.273065 0.579700
Si Si7 0.182502 0.707798 0.777037
O O1 0.157174 0.595498 0.500000
O O2 0.104538 0.500000 0.590624
O O3 0.201732 0.586118 0.634314
O O4 0.081251 0.637066 0.609983
O O5 0.601646 0.277407 0.902758
O O6 0.683174 0.381097 0.861486
O O7 0.728894 0.253826 0.910821
O O8 0.672134 0.348501 0.000000
O O9 0.304340 0.500000 0.393838
O O10 0.306998 0.412735 0.280028
O O11 0.312866 0.359243 0.414463
O O12 0.500000 0.771752 0.828027
O O13 0.378147 0.784252 0.777901
O O14 0.299504 0.124785 0.292485
O O15 0.243356 0.000000 0.321051
O O16 0.665917 0.250269 0.500000
O O17 0.653336 0.238818 0.646581
O O18 0.250000 0.750000 0.750000
#
# Coordination Sequence:
#
# PCOD8286887 Si02
#       7
#    16  16  16  16  16  16  16
#     4  10  19  30  43  63  99 145 181 203 234 291
#     4  10  19  32  47  68  99 132 170 216 256 296
#     4  10  16  24  43  70  99 129 161 201 245 290
#     4  12  22  32  51  75 101 139 180 211 248 305
#     4  10  18  30  52  74  94 129 172 215 261 301
#     4  10  17  28  49  71  94 126 162 202 253 300
#     4  11  17  34  53  71  99 131 166 211 252 298
#
# _framework density 16.496278
#
# number of rings (size 3 to 8) (size 9 to 14) (size 15 to 20)
#    0.000    1.571    7.143    0.857    0.000    2.571 
#    0.000    0.714    0.000    0.857    0.000    1.000 
#    0.000    0.000    0.000   13.571    0.000    0.000 
#
# Total GULP energy -694000.197699 kJ/mol
# GULP energy per Si atom -12392.860673 kJ/mol
# Density = 1.645873 g / cm^3
# Si number density = 16.496278 Si / 1000 Ang^3
#
#
#
# Elastic Constant Matrix: (Units=GPa)
#
#
# Indices 1 2 3 4 5 6 
#
# 1 56.8357 18.4394 32.0141 0.0000 0.0000 0.0000
# 2 18.4394 103.8503 42.1971 0.0000 0.0000 0.0000
# 3 32.0141 42.1971 123.4240 0.0000 0.0000 0.0000
# 4 0.0000 0.0000 0.0000 25.8027 0.0000 0.0000
# 5 0.0000 0.0000 0.0000 0.0000 13.2049 0.0000
# 6 0.0000 0.0000 0.0000 0.0000 0.0000 9.2299
#
#
#
# Elastic Compliance Matrix: (Units=1/GPa)
#
#
# Indices 1 2 3 4 5 6 
#
# 1 0.020875 -0.001749 -0.004817 0.000000 0.000000 0.000000
# 2 -0.001749 0.011329 -0.003420 0.000000 0.000000 0.000000
# 3 -0.004817 -0.003420 0.010521 0.000000 0.000000 0.000000
# 4 0.000000 0.000000 0.000000 0.038756 0.000000 0.000000
# 5 0.000000 0.000000 0.000000 0.000000 0.075730 0.000000
# 6 0.000000 0.000000 0.000000 0.000000 0.000000 0.108343
#
#
# Mechanical properties :
#
#
# Convention : Reuss Voigt Hill
#
# Bulk Modulus (GPa) = 43.94843 52.15682 48.05263
# Shear Modulus (GPa) = 17.05846 22.41145 19.73495
#
# Velocity S-wave (km/s) = 3.21920 3.68989 3.46255
# Velocity P-wave (km/s) = 6.36529 7.05972 6.72148
#
# Compressibility (1/GPa) = 0.02275394
#
# Stress axis : x y z
#
# Youngs Moduli (GPa) = 47.90377 88.26642 95.05160
#
# Poissons Ratio (x) = 0.15442 0.45782
# Poissons Ratio (y) = 0.08381 0.32504
# Poissons Ratio (z) = 0.23073 0.30183
#
# Static dielectric constant tensor:
#      x y z
#    x 2.511570 0.000000 0.000000 
#    y 0.000000 3.304790 0.000000 
#    z 0.000000 0.000000 3.386520 
# 
# 
# High freq. dielectric constant tensor:
#      x y z
#    x 1.553710 0.000000 0.000000 
#    y 0.000000 1.643770 0.000000 
#    z 0.000000 0.000000 1.653540 
# 
# From -- ./inp_files/47528.got.cif
#   From: 2010.06.25/outbox.cif.g09.slc.cpg/sg71_24_cif.got.tgz:47528.got - 2010.06.28 04:59:45.
