data_PCOD8286295
_publ_section_title
;
Structure prediction by ZEFSAII (Michael W. Deem and Ramdas Pophale) SiO2 
 PCOD8286295
Probable space group: F D D D
;
_chemical_formula_sum "Si O2"
_cell_formula_units_Z 176
_cell_length_a 22.720561
_cell_length_b 30.842385
_cell_length_c 11.707647
_cell_angle_alpha 90.000000
_cell_angle_beta 90.000000
_cell_angle_gamma 90.000000
_cell_volume 8204.207274
_symmetry_space_group_name_H-M "F D D D"
_symmetry_group_IT_number 70
_space_group.IT_coordinate_system_code '2'
_symmetry_cell_setting 'orthorhombic'
loop_
_space_group_symop_operation_xyz
x,y,z
1/4-x,1/4-y,z
x,1/4-y,1/4-z
1/4-x,y,1/4-z
-x,-y,-z
3/4+x,3/4+y,-z
-x,3/4+y,3/4+z
3/4+x,-y,3/4+z
x,1/2+y,1/2+z
1/4-x,3/4-y,1/2+z
x,3/4-y,3/4-z
1/4-x,1/2+y,3/4-z
-x,1/2-y,1/2-z
3/4+x,1/4+y,1/2-z
-x,1/4+y,1/4+z
3/4+x,1/2-y,1/4+z
1/2+x,y,1/2+z
3/4-x,1/4-y,1/2+z
1/2+x,1/4-y,3/4-z
3/4-x,y,3/4-z
1/2-x,-y,1/2-z
1/4+x,3/4+y,1/2-z
1/2-x,3/4+y,1/4+z
1/4+x,-y,1/4+z
1/2+x,1/2+y,z
3/4-x,3/4-y,z
1/2+x,3/4-y,1/4-z
3/4-x,1/2+y,1/4-z
1/2-x,1/2-y,-z
1/4+x,1/4+y,-z
1/2-x,1/4+y,3/4+z
1/4+x,1/2-y,3/4+z
loop_
_atom_site_type_symbol
_atom_site_label
_atom_site_fract_x
_atom_site_fract_y
_atom_site_fract_z
Si Si1 0.250674 0.456138 0.535908
Si Si2 0.629610 0.175338 0.904388
Si Si3 0.732355 0.580797 0.693342
Si Si4 0.815918 0.959298 0.930940
Si Si5 0.746959 0.625000 0.125000
Si Si6 0.443461 0.627005 0.882790
O O1 0.316094 0.446481 0.580295
O O2 0.244987 0.454963 0.397201
O O3 0.233914 0.503974 0.576819
O O4 0.206141 0.421439 0.589959
O O5 0.625000 0.125000 0.869772
O O6 0.669081 0.198578 0.810376
O O7 0.666271 0.181403 0.020373
O O8 0.727710 0.625000 0.625000
O O9 0.774228 0.587104 0.803513
O O10 0.875000 0.977662 0.875000
O O11 0.793893 0.917408 0.859490
O O12 0.786866 0.632397 0.236276
O O13 0.375000 0.636996 0.875000
#
# Coordination Sequence:
#
# PCOD8286295 Si02
#       6
#    32  32  32  32  16  32
#     4  11  25  41  69 104 142 179 235 291 354 419
#     4  12  21  44  74 103 133 187 242 283 348 424
#     4  10  21  42  71 101 130 179 234 279 347 416
#     4  12  26  44  67 103 143 188 234 300 353 426
#     4  12  25  48  72  98 140 187 248 286 356 436
#     4  11  24  42  68 102 136 188 229 284 355 425
#
# _framework density 21.452407000000001
#
# number of rings (size 3 to 8) (size 9 to 14) (size 15 to 20)
#    0.000    0.727    5.455    3.545    3.818    5.091 
#    0.000    0.000    0.000    0.000    0.000    0.000 
#    0.000    0.000    0.000    0.000    0.000    0.000 
#
# Total GULP energy -545691.923724 kJ/mol
# GULP energy per Si atom -12402.089176 kJ/mol
# Density = 2.140358 g / cm^3
# Si number density = 21.452407 Si / 1000 Ang^3
#
#
#
# Elastic Constant Matrix: (Units=GPa)
#
#
# Indices 1 2 3 4 5 6 
#
# 1 154.7493 55.7790 42.3465 0.0000 0.0000 0.0000
# 2 55.7790 113.9887 14.9078 0.0000 0.0000 0.0000
# 3 42.3465 14.9078 103.3702 0.0001 -0.0001 0.0000
# 4 0.0000 0.0000 0.0001 -14.9810 -0.0001 0.0000
# 5 0.0000 0.0000 -0.0001 -0.0001 24.6381 0.0000
# 6 0.0000 0.0000 0.0000 0.0000 0.0000 34.5829
#
#
#
# Elastic Compliance Matrix: (Units=1/GPa)
#
#
# Indices 1 2 3 4 5 6 
#
# 1 0.008670 -0.003851 -0.002996 0.000000 0.000000 0.000000
# 2 -0.003851 0.010652 0.000041 0.000000 0.000000 0.000000
# 3 -0.002996 0.000041 0.010896 0.000000 0.000000 0.000000
# 4 0.000000 0.000000 0.000000 -0.066751 0.000000 0.000000
# 5 0.000000 0.000000 0.000000 0.000000 0.040588 0.000000
# 6 0.000000 0.000000 0.000000 0.000000 0.000000 0.028916
#
#
# Mechanical properties :
#
#
# Convention : Reuss Voigt Hill
#
# Bulk Modulus (GPa) = 60.22055 66.46388 63.34221
# Shear Modulus (GPa) = 95.93895 26.11964 61.02929
#
# Velocity S-wave (km/s) = 6.69469 3.49314 5.33952
# Velocity P-wave (km/s) = 9.37503 6.87886 8.22222
#
# Compressibility (1/GPa) = 0.01660563
#
# Stress axis : x y z
#
# Youngs Moduli (GPa) = 115.34053 93.88195 91.78091
#
# Poissons Ratio (x) = 0.36151 0.27501
# Poissons Ratio (y) = 0.44414 -0.00379
# Poissons Ratio (z) = 0.34561 -0.00388
#
# Static dielectric constant tensor:
#      x y z
#    x 3.903180 0.000000 0.000000 
#    y 0.000000 3.754100 0.000000 
#    z 0.000000 0.000000 4.509800 
# 
# 
# High freq. dielectric constant tensor:
#      x y z
#    x 1.847570 0.000000 0.000000 
#    y 0.000000 1.817720 0.000000 
#    z 0.000000 0.000000 1.862730 
# 
# From -- ./inp_files/20967.got.cif
#   From: 2010.03.12/outbox.cif.g09.slc.cpg/sg70_11_cif.got.tgz:20967.got - 2010.04.16 13:46:32.
