data_PCOD8286457
_publ_section_title
;
Structure prediction by ZEFSAII (Michael W. Deem and Ramdas Pophale) SiO2 
 PCOD8286457
Probable space group: F D D D
;
_chemical_formula_sum "Si O2"
_cell_formula_units_Z 184
_cell_length_a 13.176107
_cell_length_b 23.769205
_cell_length_c 24.530045
_cell_angle_alpha 90.000000
_cell_angle_beta 90.000000
_cell_angle_gamma 90.000000
_cell_volume 7682.456576
_symmetry_space_group_name_H-M "F D D D"
_symmetry_group_IT_number 70
_space_group.IT_coordinate_system_code '2'
_symmetry_cell_setting 'orthorhombic'
loop_
_space_group_symop_operation_xyz
x,y,z
1/4-x,1/4-y,z
x,1/4-y,1/4-z
1/4-x,y,1/4-z
-x,-y,-z
3/4+x,3/4+y,-z
-x,3/4+y,3/4+z
3/4+x,-y,3/4+z
x,1/2+y,1/2+z
1/4-x,3/4-y,1/2+z
x,3/4-y,3/4-z
1/4-x,1/2+y,3/4-z
-x,1/2-y,1/2-z
3/4+x,1/4+y,1/2-z
-x,1/4+y,1/4+z
3/4+x,1/2-y,1/4+z
1/2+x,y,1/2+z
3/4-x,1/4-y,1/2+z
1/2+x,1/4-y,3/4-z
3/4-x,y,3/4-z
1/2-x,-y,1/2-z
1/4+x,3/4+y,1/2-z
1/2-x,3/4+y,1/4+z
1/4+x,-y,1/4+z
1/2+x,1/2+y,z
3/4-x,3/4-y,z
1/2+x,3/4-y,1/4-z
3/4-x,1/2+y,1/4-z
1/2-x,1/2-y,-z
1/4+x,1/4+y,-z
1/2-x,1/4+y,3/4+z
1/4+x,1/2-y,3/4+z
loop_
_atom_site_type_symbol
_atom_site_label
_atom_site_fract_x
_atom_site_fract_y
_atom_site_fract_z
Si Si1 0.375000 0.875000 0.375000
Si Si2 0.027633 0.328103 0.289749
Si Si3 0.307031 0.981525 0.821025
Si Si4 0.050821 0.805227 0.000688
Si Si5 0.915353 0.965807 0.177298
Si Si6 0.125000 0.625000 0.011400
Si Si7 0.897731 0.963416 0.058701
O O1 0.306265 0.914066 0.336496
O O2 0.977650 0.307343 0.234464
O O3 0.085614 0.385575 0.274748
O O4 0.109307 0.281864 0.309322
O O5 0.375000 0.984709 0.875000
O O6 0.352700 0.022998 0.775083
O O7 0.196569 0.006516 0.830967
O O8 0.306266 0.916541 0.799149
O O9 0.012594 0.766508 0.949484
O O10 0.961969 0.812881 0.045156
O O11 0.936027 0.915526 0.220033
O O12 0.941341 0.942893 0.117188
#
# Coordination Sequence:
#
# PCOD8286457 Si02
#       7
#     8  32  32  32  32  16  32
#     4  12  20  42  72  88 134 178 208 284 342 386
#     4  11  25  42  67  97 130 173 226 273 337 405
#     4  11  23  44  67  97 138 176 223 278 339 401
#     4  11  22  43  67  95 134 172 220 283 326 402
#     4  11  25  43  69  97 135 176 224 275 345 396
#     4  10  23  39  64  94 127 175 216 272 330 398
#     4  11  24  43  67  97 132 173 224 276 341 402
#
# _framework density 23.950672000000001
#
# number of rings (size 3 to 8) (size 9 to 14) (size 15 to 20)
#    0.000    1.043    3.478    3.391    2.435    5.565 
#    3.130    0.000    0.000    0.000    0.000    0.000 
#    0.000    0.000    0.000    0.000    0.000    0.000 
#
# Total GULP energy -570030.538542 kJ/mol
# GULP energy per Si atom -12391.968229 kJ/mol
# Density = 2.389616 g / cm^3
# Si number density = 23.950672 Si / 1000 Ang^3
#
#
#
# Elastic Constant Matrix: (Units=GPa)
#
#
# Indices 1 2 3 4 5 6 
#
# 1 30.4223 1.6370 -0.0071 0.0000 0.0000 0.0000
# 2 1.6370 129.4130 18.8667 0.0000 0.0000 0.0000
# 3 -0.0071 18.8667 141.0810 0.0000 0.0000 0.0000
# 4 0.0000 0.0000 0.0000 34.1487 0.0000 0.0000
# 5 0.0000 0.0000 0.0000 0.0000 25.7103 0.0000
# 6 0.0000 0.0000 0.0000 0.0000 0.0000 25.3926
#
#
#
# Elastic Compliance Matrix: (Units=1/GPa)
#
#
# Indices 1 2 3 4 5 6 
#
# 1 0.032893 -0.000425 0.000058 0.000000 0.000000 0.000000
# 2 -0.000425 0.007886 -0.001055 0.000000 0.000000 0.000000
# 3 0.000058 -0.001055 0.007229 0.000000 0.000000 0.000000
# 4 0.000000 0.000000 0.000000 0.029284 0.000000 0.000000
# 5 0.000000 0.000000 0.000000 0.000000 0.038895 0.000000
# 6 0.000000 0.000000 0.000000 0.000000 0.000000 0.039381
#
#
# Mechanical properties :
#
#
# Convention : Reuss Voigt Hill
#
# Bulk Modulus (GPa) = 22.13991 37.98995 30.06493
# Shear Modulus (GPa) = 28.82402 35.74498 32.28450
#
# Velocity S-wave (km/s) = 3.47288 3.86740 3.67544
# Velocity P-wave (km/s) = 5.03440 5.98653 5.53099
#
# Compressibility (1/GPa) = 0.04516729
#
# Stress axis : x y z
#
# Youngs Moduli (GPa) = 30.40121 126.80179 138.32854
#
# Poissons Ratio (x) = 0.05384 -0.00808
# Poissons Ratio (y) = 0.01291 0.14589
# Poissons Ratio (z) = -0.00178 0.13373
#
# Static dielectric constant tensor:
#      x y z
#    x 3.769310 0.000000 0.000000 
#    y 0.000000 4.793910 0.000000 
#    z 0.000000 0.000000 4.869720 
# 
# 
# High freq. dielectric constant tensor:
#      x y z
#    x 1.906800 0.000000 0.000000 
#    y 0.000000 1.963450 0.000000 
#    z 0.000000 0.000000 1.976530 
# 
# From -- ./inp_files/52282.got.cif
#   From: 2010.03.12/outbox.cif.g09.slc.cpg/sg70_27_cif.got.tgz:52282.got - 2010.04.16 13:46:32.
