data_PCOD8286718
_publ_section_title
;
Structure prediction by ZEFSAII (Michael W. Deem and Ramdas Pophale) SiO2 
 PCOD8286718
Probable space group: F D D D
;
_chemical_formula_sum "Si O2"
_cell_formula_units_Z 176
_cell_length_a 14.434835
_cell_length_b 22.231959
_cell_length_c 23.846679
_cell_angle_alpha 90.000000
_cell_angle_beta 90.000000
_cell_angle_gamma 90.000000
_cell_volume 7652.748881
_symmetry_space_group_name_H-M "F D D D"
_symmetry_group_IT_number 70
_space_group.IT_coordinate_system_code '2'
_symmetry_cell_setting 'orthorhombic'
loop_
_space_group_symop_operation_xyz
x,y,z
1/4-x,1/4-y,z
x,1/4-y,1/4-z
1/4-x,y,1/4-z
-x,-y,-z
3/4+x,3/4+y,-z
-x,3/4+y,3/4+z
3/4+x,-y,3/4+z
x,1/2+y,1/2+z
1/4-x,3/4-y,1/2+z
x,3/4-y,3/4-z
1/4-x,1/2+y,3/4-z
-x,1/2-y,1/2-z
3/4+x,1/4+y,1/2-z
-x,1/4+y,1/4+z
3/4+x,1/2-y,1/4+z
1/2+x,y,1/2+z
3/4-x,1/4-y,1/2+z
1/2+x,1/4-y,3/4-z
3/4-x,y,3/4-z
1/2-x,-y,1/2-z
1/4+x,3/4+y,1/2-z
1/2-x,3/4+y,1/4+z
1/4+x,-y,1/4+z
1/2+x,1/2+y,z
3/4-x,3/4-y,z
1/2+x,3/4-y,1/4-z
3/4-x,1/2+y,1/4-z
1/2-x,1/2-y,-z
1/4+x,1/4+y,-z
1/2-x,1/4+y,3/4+z
1/4+x,1/2-y,3/4+z
loop_
_atom_site_type_symbol
_atom_site_label
_atom_site_fract_x
_atom_site_fract_y
_atom_site_fract_z
Si Si1 0.381906 0.065521 0.590970
Si Si2 0.089792 0.191756 0.185495
Si Si3 0.625000 0.868748 0.625000
Si Si4 0.188898 0.950020 0.022805
Si Si5 0.862776 0.942480 0.260862
Si Si6 0.751949 0.020526 0.340408
O O1 0.401689 0.125000 0.625000
O O2 0.480510 0.045362 0.566003
O O3 0.320488 0.082715 0.537310
O O4 0.329381 0.016297 0.628933
O O5 0.125000 0.125000 0.201021
O O6 0.125000 0.211385 0.125000
O O7 0.135895 0.236324 0.230298
O O8 0.642660 0.909622 0.570962
O O9 0.537267 0.823325 0.617690
O O10 0.298075 0.964331 0.025662
O O11 0.875000 0.875000 0.282205
O O12 0.780918 0.945731 0.215810
O O13 0.838275 0.979734 0.317601
#
# Coordination Sequence:
#
# PCOD8286718 Si02
#       6
#    32  32  16  32  32  32
#     4  12  26  45  73 108 142 188 242 295 360 440
#     4  11  23  46  72 101 143 190 236 292 359 430
#     4  12  26  46  68 106 144 188 240 292 368 424
#     4  12  26  46  74 104 144 190 238 300 363 432
#     4  11  23  47  75 105 145 191 239 300 368 436
#     4  11  26  43  73 109 143 189 242 300 367 439
#
# _framework density 22.998273000000001
#
# number of rings (size 3 to 8) (size 9 to 14) (size 15 to 20)
#    0.000    0.545    4.545    3.818    2.545    1.455 
#    0.000    2.727    0.000    0.000    0.000    0.000 
#    0.000    0.000    0.000    0.000    0.000    0.000 
#
# Total GULP energy -545358.074132 kJ/mol
# GULP energy per Si atom -12394.501685 kJ/mol
# Density = 2.294593 g / cm^3
# Si number density = 22.998273 Si / 1000 Ang^3
#
#
#
# Elastic Constant Matrix: (Units=GPa)
#
#
# Indices 1 2 3 4 5 6 
#
# 1 123.5508 62.4453 24.3294 0.0000 0.0000 0.0000
# 2 62.4453 127.8809 38.2633 0.0000 0.0000 0.0000
# 3 24.3294 38.2633 92.8691 0.0000 0.0000 0.0000
# 4 0.0000 0.0000 0.0000 5.4392 0.0000 0.0000
# 5 0.0000 0.0000 0.0000 0.0000 25.0948 0.0000
# 6 0.0000 0.0000 0.0000 0.0000 0.0000 38.3971
#
#
#
# Elastic Compliance Matrix: (Units=1/GPa)
#
#
# Indices 1 2 3 4 5 6 
#
# 1 0.010791 -0.005046 -0.000748 0.000000 0.000000 0.000000
# 2 -0.005046 0.011278 -0.003325 0.000000 0.000000 0.000000
# 3 -0.000748 -0.003325 0.012334 0.000000 0.000000 0.000000
# 4 0.000000 0.000000 0.000000 0.183851 0.000000 0.000000
# 5 0.000000 0.000000 0.000000 0.000000 0.039849 0.000000
# 6 0.000000 0.000000 0.000000 0.000000 0.000000 0.026044
#
#
# Mechanical properties :
#
#
# Convention : Reuss Voigt Hill
#
# Bulk Modulus (GPa) = 61.85867 66.04186 63.95027
# Shear Modulus (GPa) = 16.24570 28.40376 22.32473
#
# Velocity S-wave (km/s) = 2.66068 3.51812 3.11901
# Velocity P-wave (km/s) = 6.03278 6.72914 6.39045
#
# Compressibility (1/GPa) = 0.01616588
#
# Stress axis : x y z
#
# Youngs Moduli (GPa) = 92.66688 88.66441 81.07791
#
# Poissons Ratio (x) = 0.44737 0.06066
# Poissons Ratio (y) = 0.46756 0.26959
# Poissons Ratio (z) = 0.06933 0.29481
#
# Static dielectric constant tensor:
#      x y z
#    x 4.748900 0.000000 0.000000 
#    y 0.000000 4.180670 0.000000 
#    z 0.000000 0.000000 4.024070 
# 
# 
# High freq. dielectric constant tensor:
#      x y z
#    x 1.924500 0.000000 0.000000 
#    y 0.000000 1.913780 0.000000 
#    z 0.000000 0.000000 1.902940 
# 
# From -- ./inp_files/51194.got.cif
#   From: 2010.03.12/outbox.cif.g09.slc.cpg/sg70_26_cif.got.tgz:51194.got - 2010.04.16 13:46:32.
