data_PCOD8286734
_publ_section_title
;
Structure prediction by ZEFSAII (Michael W. Deem and Ramdas Pophale) SiO2 
 PCOD8286734
Probable space group: F D D D
;
_chemical_formula_sum "Si O2"
_cell_formula_units_Z 144
_cell_length_a 16.217046
_cell_length_b 15.969613
_cell_length_c 24.793780
_cell_angle_alpha 90.000000
_cell_angle_beta 90.000000
_cell_angle_gamma 90.000000
_cell_volume 6421.091871
_symmetry_space_group_name_H-M "F D D D"
_symmetry_group_IT_number 70
_space_group.IT_coordinate_system_code '2'
_symmetry_cell_setting 'orthorhombic'
loop_
_space_group_symop_operation_xyz
x,y,z
1/4-x,1/4-y,z
x,1/4-y,1/4-z
1/4-x,y,1/4-z
-x,-y,-z
3/4+x,3/4+y,-z
-x,3/4+y,3/4+z
3/4+x,-y,3/4+z
x,1/2+y,1/2+z
1/4-x,3/4-y,1/2+z
x,3/4-y,3/4-z
1/4-x,1/2+y,3/4-z
-x,1/2-y,1/2-z
3/4+x,1/4+y,1/2-z
-x,1/4+y,1/4+z
3/4+x,1/2-y,1/4+z
1/2+x,y,1/2+z
3/4-x,1/4-y,1/2+z
1/2+x,1/4-y,3/4-z
3/4-x,y,3/4-z
1/2-x,-y,1/2-z
1/4+x,3/4+y,1/2-z
1/2-x,3/4+y,1/4+z
1/4+x,-y,1/4+z
1/2+x,1/2+y,z
3/4-x,3/4-y,z
1/2+x,3/4-y,1/4-z
3/4-x,1/2+y,1/4-z
1/2-x,1/2-y,-z
1/4+x,1/4+y,-z
1/2-x,1/4+y,3/4+z
1/4+x,1/2-y,3/4+z
loop_
_atom_site_type_symbol
_atom_site_label
_atom_site_fract_x
_atom_site_fract_y
_atom_site_fract_z
Si Si1 0.625000 0.125000 0.271766
Si Si2 0.780153 0.752534 0.879253
Si Si3 0.013034 0.432584 0.094586
Si Si4 0.684059 0.478362 0.547448
Si Si5 0.777668 0.371362 0.286299
O O1 0.680640 0.062847 0.308686
O O2 0.683168 0.183927 0.235051
O O3 0.875000 0.776191 0.875000
O O4 0.762953 0.655485 0.875520
O O5 0.748353 0.789935 0.936915
O O6 0.743807 0.800220 0.827530
O O7 0.091139 0.445488 0.056124
O O8 0.019376 0.497197 0.145138
O O9 0.730491 0.401514 0.518445
O O10 0.875000 0.375000 0.274029
#
# Coordination Sequence:
#
# PCOD8286734 Si02
#       5
#    16  32  32  32  32
#     4  12  26  49  68  94 148 185 236 296 342 428
#     4   9  16  38  62  94 138 165 214 286 344 408
#     4  11  24  43  66  96 135 182 235 283 337 431
#     4  11  24  44  69  98 137 186 227 287 359 405
#     4   9  19  35  67 100 131 175 216 280 358 404
#
# _framework density 22.426092000000001
#
# number of rings (size 3 to 8) (size 9 to 14) (size 15 to 20)
#    0.000    1.778    4.444    2.000    1.556    2.667 
#    4.000    0.000    0.000    0.000    0.000    0.000 
#    0.000    0.000    0.000    0.000    0.000    0.000 
#
# Total GULP energy -446048.654456 kJ/mol
# GULP energy per Si atom -12390.240402 kJ/mol
# Density = 2.237505 g / cm^3
# Si number density = 22.426092 Si / 1000 Ang^3
#
#
#
# Elastic Constant Matrix: (Units=GPa)
#
#
# Indices 1 2 3 4 5 6 
#
# 1 72.9271 6.5212 55.4110 0.0000 0.0000 0.0000
# 2 6.5212 55.4808 23.2929 0.0000 0.0000 0.0000
# 3 55.4110 23.2929 129.9543 0.0000 0.0000 0.0000
# 4 0.0000 0.0000 0.0000 18.0137 0.0000 0.0000
# 5 0.0000 0.0000 0.0000 0.0000 20.5059 0.0000
# 6 0.0000 0.0000 0.0000 0.0000 0.0000 25.7001
#
#
#
# Elastic Compliance Matrix: (Units=1/GPa)
#
#
# Indices 1 2 3 4 5 6 
#
# 1 0.020377 0.001355 -0.008932 0.000000 0.000000 0.000000
# 2 0.001355 0.019581 -0.004087 0.000000 0.000000 0.000000
# 3 -0.008932 -0.004087 0.012236 0.000000 0.000000 0.000000
# 4 0.000000 0.000000 0.000000 0.055513 0.000000 0.000000
# 5 0.000000 0.000000 0.000000 0.000000 0.048766 0.000000
# 6 0.000000 0.000000 0.000000 0.000000 0.000000 0.038910
#
#
# Mechanical properties :
#
#
# Convention : Reuss Voigt Hill
#
# Bulk Modulus (GPa) = 34.64279 47.64582 41.14430
# Shear Modulus (GPa) = 21.89768 24.38643 23.14205
#
# Velocity S-wave (km/s) = 3.12819 3.30117 3.21584
# Velocity P-wave (km/s) = 5.34121 5.98516 5.67233
#
# Compressibility (1/GPa) = 0.02886604
#
# Stress axis : x y z
#
# Youngs Moduli (GPa) = 49.07380 51.06989 81.72665
#
# Poissons Ratio (x) = -0.06918 0.72994
# Poissons Ratio (y) = -0.06648 0.33404
# Poissons Ratio (z) = 0.43830 0.20874
#
# Static dielectric constant tensor:
#      x y z
#    x 3.753750 0.000000 0.000000 
#    y 0.000000 3.903270 0.000000 
#    z 0.000000 0.000000 4.413490 
# 
# 
# High freq. dielectric constant tensor:
#      x y z
#    x 1.851400 0.000000 0.000000 
#    y 0.000000 1.867640 0.000000 
#    z 0.000000 0.000000 1.904080 
# 
# From -- ./inp_files/34935.got.cif
#   From: 2010.03.12/outbox.cif.g09.slc.cpg/sg70_18_cif.got.tgz:34935.got - 2010.04.16 13:46:32.
