data_PCOD8286019
_publ_section_title
;
Structure prediction by ZEFSAII (Michael W. Deem and Ramdas Pophale) SiO2 
 PCOD8286019
Probable space group: F D D D
;
_chemical_formula_sum "Si O2"
_cell_formula_units_Z 240
_cell_length_a 29.383119
_cell_length_b 16.396038
_cell_length_c 23.740547
_cell_angle_alpha 90.000000
_cell_angle_beta 90.000000
_cell_angle_gamma 90.000000
_cell_volume 11437.405832
_symmetry_space_group_name_H-M "F D D D"
_symmetry_group_IT_number 70
_space_group.IT_coordinate_system_code '2'
_symmetry_cell_setting 'orthorhombic'
loop_
_space_group_symop_operation_xyz
x,y,z
1/4-x,1/4-y,z
x,1/4-y,1/4-z
1/4-x,y,1/4-z
-x,-y,-z
3/4+x,3/4+y,-z
-x,3/4+y,3/4+z
3/4+x,-y,3/4+z
x,1/2+y,1/2+z
1/4-x,3/4-y,1/2+z
x,3/4-y,3/4-z
1/4-x,1/2+y,3/4-z
-x,1/2-y,1/2-z
3/4+x,1/4+y,1/2-z
-x,1/4+y,1/4+z
3/4+x,1/2-y,1/4+z
1/2+x,y,1/2+z
3/4-x,1/4-y,1/2+z
1/2+x,1/4-y,3/4-z
3/4-x,y,3/4-z
1/2-x,-y,1/2-z
1/4+x,3/4+y,1/2-z
1/2-x,3/4+y,1/4+z
1/4+x,-y,1/4+z
1/2+x,1/2+y,z
3/4-x,3/4-y,z
1/2+x,3/4-y,1/4-z
3/4-x,1/2+y,1/4-z
1/2-x,1/2-y,-z
1/4+x,1/4+y,-z
1/2-x,1/4+y,3/4+z
1/4+x,1/2-y,3/4+z
loop_
_atom_site_type_symbol
_atom_site_label
_atom_site_fract_x
_atom_site_fract_y
_atom_site_fract_z
Si Si1 0.355459 0.734567 0.232802
Si Si2 0.352696 0.542725 0.248095
Si Si3 0.027706 0.445368 0.086716
Si Si4 0.935905 0.030368 0.615175
Si Si5 0.478305 0.739979 0.449382
Si Si6 0.697933 0.963312 0.038430
Si Si7 0.270212 0.625000 0.625000
Si Si8 0.796932 0.044272 0.735763
O O1 0.356784 0.639380 0.245295
O O2 0.334875 0.758325 0.171760
O O3 0.320996 0.770954 0.278767
O O4 0.408213 0.764783 0.240370
O O5 0.309167 0.518498 0.286531
O O6 0.350745 0.514567 0.183521
O O7 0.398543 0.502045 0.271638
O O8 0.022837 0.348156 0.079610
O O9 0.049222 0.474926 0.145198
O O10 0.978559 0.485106 0.087810
O O11 0.948281 0.125000 0.625000
O O12 0.513375 0.739328 0.502471
O O13 0.489610 0.805002 0.401875
O O14 0.701350 0.866739 0.030028
O O15 0.300647 0.582443 0.672887
O O16 0.750000 0.000000 0.750000
#
# Coordination Sequence:
#
# PCOD8286019 Si02
#       8
#    32  32  32  32  32  32  16  32
#     4   9  19  36  60  85 117 155 204 248 305 365
#     4   9  20  34  59  88 114 159 204 237 301 379
#     4  11  20  37  63  89 123 159 203 250 307 360
#     4  10  20  36  62  90 117 156 198 252 304 364
#     4  10  21  38  60  90 119 165 204 257 303 362
#     4  10  20  37  57  83 124 156 202 251 301 362
#     4  10  22  38  65  86 122 164 208 249 306 362
#     4  10  21  37  60  88 116 159 207 252 301 368
#
# _framework density 20.983778999999998
#
# number of rings (size 3 to 8) (size 9 to 14) (size 15 to 20)
#    0.000    2.133    1.333    1.600    6.533    0.000 
#    0.000    6.000    0.000    0.800    0.000    0.000 
#    0.000    0.000    0.000    0.000    0.000    0.000 
#
# Total GULP energy -743461.632975 kJ/mol
# GULP energy per Si atom -12391.027216 kJ/mol
# Density = 2.093602 g / cm^3
# Si number density = 20.983779 Si / 1000 Ang^3
#
#
#
# Elastic Constant Matrix: (Units=GPa)
#
#
# Indices 1 2 3 4 5 6 
#
# 1 135.8152 16.6427 10.5195 0.0000 0.0000 0.0000
# 2 16.6427 29.7994 10.8761 0.0000 0.0000 0.0000
# 3 10.5195 10.8761 83.2283 0.0000 0.0000 0.0000
# 4 0.0000 0.0000 0.0000 24.9745 0.0000 0.0000
# 5 0.0000 0.0000 0.0000 0.0000 31.1181 0.0000
# 6 0.0000 0.0000 0.0000 0.0000 0.0000 23.3795
#
#
#
# Elastic Compliance Matrix: (Units=1/GPa)
#
#
# Indices 1 2 3 4 5 6 
#
# 1 0.007919 -0.004261 -0.000444 0.000000 0.000000 0.000000
# 2 -0.004261 0.037531 -0.004366 0.000000 0.000000 0.000000
# 3 -0.000444 -0.004366 0.012642 0.000000 0.000000 0.000000
# 4 0.000000 0.000000 0.000000 0.040041 0.000000 0.000000
# 5 0.000000 0.000000 0.000000 0.000000 0.032136 0.000000
# 6 0.000000 0.000000 0.000000 0.000000 0.000000 0.042772
#
#
# Mechanical properties :
#
#
# Convention : Reuss Voigt Hill
#
# Bulk Modulus (GPa) = 25.03113 36.10217 30.56665
# Shear Modulus (GPa) = 24.44992 29.94807 27.19899
#
# Velocity S-wave (km/s) = 3.41718 3.78193 3.60417
# Velocity P-wave (km/s) = 5.24635 6.02601 5.64965
#
# Compressibility (1/GPa) = 0.03995026
#
# Stress axis : x y z
#
# Youngs Moduli (GPa) = 126.27107 26.64475 79.10255
#
# Poissons Ratio (x) = 0.11353 0.03513
# Poissons Ratio (y) = 0.53802 0.34536
# Poissons Ratio (z) = 0.05609 0.11633
#
# Static dielectric constant tensor:
#      x y z
#    x 4.211940 0.000000 0.000000 
#    y 0.000000 3.471370 0.000000 
#    z 0.000000 0.000000 3.960320 
# 
# 
# High freq. dielectric constant tensor:
#      x y z
#    x 1.835380 0.000000 0.000000 
#    y 0.000000 1.779640 0.000000 
#    z 0.000000 0.000000 1.838240 
# 
# From -- ./inp_files/61879.got.cif
#   From: 2010.03.12/outbox.cif.g09.slc.cpg/sg70_31_cif.got.tgz:61879.got - 2010.04.16 13:46:32.
