data_PCOD8286632
_publ_section_title
;
Structure prediction by ZEFSAII (Michael W. Deem and Ramdas Pophale) SiO2 
 PCOD8286632
Probable space group: F D D D
;
_chemical_formula_sum "Si O2"
_cell_formula_units_Z 160
_cell_length_a 15.009380
_cell_length_b 22.212963
_cell_length_c 22.038762
_cell_angle_alpha 90.000000
_cell_angle_beta 90.000000
_cell_angle_gamma 90.000000
_cell_volume 7347.785016
_symmetry_space_group_name_H-M "F D D D"
_symmetry_group_IT_number 70
_space_group.IT_coordinate_system_code '2'
_symmetry_cell_setting 'orthorhombic'
loop_
_space_group_symop_operation_xyz
x,y,z
1/4-x,1/4-y,z
x,1/4-y,1/4-z
1/4-x,y,1/4-z
-x,-y,-z
3/4+x,3/4+y,-z
-x,3/4+y,3/4+z
3/4+x,-y,3/4+z
x,1/2+y,1/2+z
1/4-x,3/4-y,1/2+z
x,3/4-y,3/4-z
1/4-x,1/2+y,3/4-z
-x,1/2-y,1/2-z
3/4+x,1/4+y,1/2-z
-x,1/4+y,1/4+z
3/4+x,1/2-y,1/4+z
1/2+x,y,1/2+z
3/4-x,1/4-y,1/2+z
1/2+x,1/4-y,3/4-z
3/4-x,y,3/4-z
1/2-x,-y,1/2-z
1/4+x,3/4+y,1/2-z
1/2-x,3/4+y,1/4+z
1/4+x,-y,1/4+z
1/2+x,1/2+y,z
3/4-x,3/4-y,z
1/2+x,3/4-y,1/4-z
3/4-x,1/2+y,1/4-z
1/2-x,1/2-y,-z
1/4+x,1/4+y,-z
1/2-x,1/4+y,3/4+z
1/4+x,1/2-y,3/4+z
loop_
_atom_site_type_symbol
_atom_site_label
_atom_site_fract_x
_atom_site_fract_y
_atom_site_fract_z
Si Si1 0.948861 0.262024 0.059318
Si Si2 0.833127 0.094671 0.187232
Si Si3 0.119091 0.296002 0.231286
Si Si4 0.823029 0.814273 0.066791
Si Si5 0.102394 0.194544 0.690920
O O1 0.924608 0.192327 0.072563
O O2 0.906719 0.303984 0.111912
O O3 0.055311 0.270121 0.063536
O O4 0.911261 0.274667 0.992515
O O5 0.803351 0.125000 0.125000
O O6 0.842551 0.144522 0.238191
O O7 0.753198 0.048791 0.205411
O O8 0.104480 0.243988 0.280308
O O9 0.032689 0.317963 0.194654
O O10 0.875000 0.875000 0.046011
O O11 0.125000 0.125000 0.690427
O O12 0.125000 0.223977 0.625000
#
# Coordination Sequence:
#
# PCOD8286632 Si02
#       5
#    32  32  32  32  32
#     4  12  24  42  70  99 134 178 224 275 346 404
#     4  12  22  42  67  98 132 180 221 274 342 412
#     4  11  24  45  66  95 135 173 224 281 328 401
#     4  11  25  44  68  96 132 176 224 278 336 397
#     4  11  21  40  67  95 138 176 216 278 346 396
#
# _framework density 21.775269999999999
#
# number of rings (size 3 to 8) (size 9 to 14) (size 15 to 20)
#    0.000    0.600    6.000    3.000    0.000    0.000 
#    0.000    0.000    0.000    0.000    0.000    0.000 
#    0.000    0.000    0.000    0.000    0.000    0.000 
#
# Total GULP energy -495921.475177 kJ/mol
# GULP energy per Si atom -12398.036879 kJ/mol
# Density = 2.172571 g / cm^3
# Si number density = 21.775270 Si / 1000 Ang^3
#
#
#
# Elastic Constant Matrix: (Units=GPa)
#
#
# Indices 1 2 3 4 5 6 
#
# 1 142.4032 57.5218 20.7433 0.0000 0.0000 0.0000
# 2 57.5218 67.2342 23.8104 0.0000 0.0000 0.0000
# 3 20.7433 23.8104 105.4995 0.0000 0.0000 0.0000
# 4 0.0000 0.0000 0.0000 19.9178 0.0000 0.0000
# 5 0.0000 0.0000 0.0000 0.0000 40.8428 0.0000
# 6 0.0000 0.0000 0.0000 0.0000 0.0000 33.3972
#
#
#
# Elastic Compliance Matrix: (Units=1/GPa)
#
#
# Indices 1 2 3 4 5 6 
#
# 1 0.010731 -0.009166 -0.000041 0.000000 0.000000 0.000000
# 2 -0.009166 0.023995 -0.003613 0.000000 0.000000 0.000000
# 3 -0.000041 -0.003613 0.010302 0.000000 0.000000 0.000000
# 4 0.000000 0.000000 0.000000 0.050206 0.000000 0.000000
# 5 0.000000 0.000000 0.000000 0.000000 0.024484 0.000000
# 6 0.000000 0.000000 0.000000 0.000000 0.000000 0.029943
#
#
# Mechanical properties :
#
#
# Convention : Reuss Voigt Hill
#
# Bulk Modulus (GPa) = 51.58079 57.69864 54.63972
# Shear Modulus (GPa) = 27.50809 33.03564 30.27187
#
# Velocity S-wave (km/s) = 3.55811 3.89924 3.73258
# Velocity P-wave (km/s) = 6.37334 6.84303 6.61235
#
# Compressibility (1/GPa) = 0.01938706
#
# Stress axis : x y z
#
# Youngs Moduli (GPa) = 93.18944 41.67538 97.06572
#
# Poissons Ratio (x) = 0.38200 0.00400
# Poissons Ratio (y) = 0.85418 0.35072
# Poissons Ratio (z) = 0.00384 0.15058
#
# Static dielectric constant tensor:
#      x y z
#    x 4.314640 0.000000 0.000000 
#    y 0.000000 3.803950 0.000000 
#    z 0.000000 0.000000 4.016780 
# 
# 
# High freq. dielectric constant tensor:
#      x y z
#    x 1.869040 0.000000 0.000000 
#    y 0.000000 1.842990 0.000000 
#    z 0.000000 0.000000 1.859900 
# 
# From -- ./inp_files/43659.got.cif
#   From: 2010.03.12/outbox.cif.g09.slc.cpg/sg70_22_cif.got.tgz:43659.got - 2010.04.16 13:46:32.
