data_PCOD8286533
_publ_section_title
;
Structure prediction by ZEFSAII (Michael W. Deem and Ramdas Pophale) SiO2 
 PCOD8286533
Probable space group: F D D D
;
_chemical_formula_sum "Si O2"
_cell_formula_units_Z 176
_cell_length_a 29.597338
_cell_length_b 22.600085
_cell_length_c 12.366272
_cell_angle_alpha 90.000000
_cell_angle_beta 90.000000
_cell_angle_gamma 90.000000
_cell_volume 8271.828458
_symmetry_space_group_name_H-M "F D D D"
_symmetry_group_IT_number 70
_space_group.IT_coordinate_system_code '2'
_symmetry_cell_setting 'orthorhombic'
loop_
_space_group_symop_operation_xyz
x,y,z
1/4-x,1/4-y,z
x,1/4-y,1/4-z
1/4-x,y,1/4-z
-x,-y,-z
3/4+x,3/4+y,-z
-x,3/4+y,3/4+z
3/4+x,-y,3/4+z
x,1/2+y,1/2+z
1/4-x,3/4-y,1/2+z
x,3/4-y,3/4-z
1/4-x,1/2+y,3/4-z
-x,1/2-y,1/2-z
3/4+x,1/4+y,1/2-z
-x,1/4+y,1/4+z
3/4+x,1/2-y,1/4+z
1/2+x,y,1/2+z
3/4-x,1/4-y,1/2+z
1/2+x,1/4-y,3/4-z
3/4-x,y,3/4-z
1/2-x,-y,1/2-z
1/4+x,3/4+y,1/2-z
1/2-x,3/4+y,1/4+z
1/4+x,-y,1/4+z
1/2+x,1/2+y,z
3/4-x,3/4-y,z
1/2+x,3/4-y,1/4-z
3/4-x,1/2+y,1/4-z
1/2-x,1/2-y,-z
1/4+x,1/4+y,-z
1/2-x,1/4+y,3/4+z
1/4+x,1/2-y,3/4+z
loop_
_atom_site_type_symbol
_atom_site_label
_atom_site_fract_x
_atom_site_fract_y
_atom_site_fract_z
Si Si1 0.075083 0.715379 0.119458
Si Si2 0.026094 0.640226 0.839235
Si Si3 0.179283 0.020614 0.860671
Si Si4 0.276786 0.625000 0.625000
Si Si5 0.671475 0.492624 0.389734
Si Si6 0.015339 0.329373 0.953143
O O1 0.125000 0.684880 0.125000
O O2 0.063136 0.746301 0.234103
O O3 0.036928 0.668800 0.086268
O O4 0.076331 0.762082 0.020401
O O5 0.062178 0.590656 0.876887
O O6 0.050517 0.703749 0.835864
O O7 0.006293 0.618126 0.726512
O O8 0.984245 0.647364 0.923900
O O9 0.129651 0.002041 0.900188
O O10 0.214149 0.985780 0.937900
O O11 0.308256 0.568886 0.651284
O O12 0.042304 0.375000 0.875000
#
# Coordination Sequence:
#
# PCOD8286533 Si02
#       6
#    32  32  32  16  32  32
#     4   9  19  37  62  93 130 164 205 261 319 378
#     4  11  23  44  67  90 124 173 218 263 315 384
#     4  11  22  40  64  97 133 161 213 266 327 387
#     4  12  26  46  65  88 134 172 219 266 320 382
#     4  10  24  41  65  95 128 171 214 262 322 384
#     4  11  22  34  62  96 128 161 207 257 327 377
#
# _framework density 21.277037
#
# number of rings (size 3 to 8) (size 9 to 14) (size 15 to 20)
#    0.000    1.455    1.818    3.818    3.818    0.364 
#    0.000    4.545    0.000    0.000    0.000    0.000 
#    0.000    0.000    0.000    0.000    0.000    0.000 
#
# Total GULP energy -545310.835363 kJ/mol
# GULP energy per Si atom -12393.428076 kJ/mol
# Density = 2.122861 g / cm^3
# Si number density = 21.277037 Si / 1000 Ang^3
#
#
#
# Elastic Constant Matrix: (Units=GPa)
#
#
# Indices 1 2 3 4 5 6 
#
# 1 89.8227 48.9012 41.0834 0.0000 0.0000 0.0000
# 2 48.9012 124.9491 15.3002 0.0001 0.0000 0.0000
# 3 41.0834 15.3002 100.4478 0.0002 0.0000 -0.0002
# 4 0.0000 0.0001 0.0002 25.3295 0.0000 -0.0001
# 5 0.0000 0.0000 0.0000 0.0000 20.3490 0.0000
# 6 0.0000 0.0000 -0.0002 -0.0001 0.0000 23.8944
#
#
#
# Elastic Compliance Matrix: (Units=1/GPa)
#
#
# Indices 1 2 3 4 5 6 
#
# 1 0.017185 -0.005977 -0.006118 0.000000 0.000000 0.000000
# 2 -0.005977 0.010234 0.000886 0.000000 0.000000 0.000000
# 3 -0.006118 0.000886 0.012323 0.000000 0.000000 0.000000
# 4 0.000000 0.000000 0.000000 0.039480 0.000000 0.000000
# 5 0.000000 0.000000 0.000000 0.000000 0.049142 0.000000
# 6 0.000000 0.000000 0.000000 0.000000 0.000000 0.041851
#
#
# Mechanical properties :
#
#
# Convention : Reuss Voigt Hill
#
# Bulk Modulus (GPa) = 57.72578 58.42100 58.07339
# Shear Modulus (GPa) = 25.20057 27.91025 26.55541
#
# Velocity S-wave (km/s) = 3.44525 3.62574 3.53665
# Velocity P-wave (km/s) = 6.55864 6.71155 6.63554
#
# Compressibility (1/GPa) = 0.01732328
#
# Stress axis : x y z
#
# Youngs Moduli (GPa) = 58.18935 97.71483 81.14911
#
# Poissons Ratio (x) = 0.58400 0.49651
# Poissons Ratio (y) = 0.34777 -0.07187
# Poissons Ratio (z) = 0.35603 -0.08654
#
# Static dielectric constant tensor:
#      x y z
#    x 3.794690 0.000000 0.000000 
#    y 0.000000 3.572580 0.000000 
#    z 0.000000 0.000000 3.827980 
# 
# 
# High freq. dielectric constant tensor:
#      x y z
#    x 1.826610 0.000000 0.000000 
#    y 0.000000 1.829260 0.000000 
#    z 0.000000 0.000000 1.825330 
# 
# From -- ./inp_files/22288.got.cif
#   From: 2010.03.12/outbox.cif.g09.slc.cpg/sg70_12_cif.got.tgz:22288.got - 2010.04.16 13:46:32.
