data_PCOD8286926
_publ_section_title
;
Structure prediction by ZEFSAII (Michael W. Deem and Ramdas Pophale) SiO2 
 PCOD8286926
Probable space group: I M M M
;
_chemical_formula_sum "Si O2"
_cell_formula_units_Z 112
_cell_length_a 26.800339
_cell_length_b 34.235530
_cell_length_c 9.093427
_cell_angle_alpha 90.000000
_cell_angle_beta 90.000000
_cell_angle_gamma 90.000000
_cell_volume 8343.435786
_symmetry_space_group_name_H-M "I M M M"
_symmetry_group_IT_number 71
_symmetry_cell_setting 'orthorhombic'
loop_
_space_group_symop_operation_xyz
x,y,z
-x,-y,z
x,-y,-z
-x,y,-z
-x,-y,-z
x,y,-z
-x,y,z
x,-y,z
1/2+x,1/2+y,1/2+z
1/2-x,1/2-y,1/2+z
1/2+x,1/2-y,1/2-z
1/2-x,1/2+y,1/2-z
1/2-x,1/2-y,1/2-z
1/2+x,1/2+y,1/2-z
1/2-x,1/2+y,1/2+z
1/2+x,1/2-y,1/2+z
loop_
_atom_site_type_symbol
_atom_site_label
_atom_site_fract_x
_atom_site_fract_y
_atom_site_fract_z
Si Si1 0.102228 0.423741 0.670483
Si Si2 0.707641 0.272333 0.832084
Si Si3 0.738054 0.154664 0.326769
Si Si4 0.601024 0.000000 0.334942
Si Si5 0.719258 0.922532 0.828510
Si Si6 0.555045 0.156174 0.825539
Si Si7 0.350423 0.798716 0.172483
Si Si8 0.780247 0.500000 0.167064
O O1 0.091684 0.430996 0.500000
O O2 0.080842 0.461313 0.755074
O O3 0.160603 0.417156 0.699662
O O4 0.073494 0.385930 0.732087
O O5 0.750000 0.250000 0.750000
O O6 0.712051 0.318570 0.793971
O O7 0.656130 0.248452 0.799582
O O8 0.721954 0.267427 0.000000
O O9 0.730489 0.147091 0.500000
O O10 0.747513 0.113976 0.244714
O O11 0.689246 0.176273 0.264216
O O12 0.660404 0.000000 0.329118
O O13 0.580518 0.000000 0.500000
O O14 0.739658 0.961759 0.751515
O O15 0.732210 0.924659 0.000000
O O16 0.500000 0.165419 0.760570
O O17 0.593950 0.189661 0.774738
O O18 0.552769 0.154735 0.000000
O O19 0.343056 0.809298 0.000000
O O20 0.760198 0.500000 0.000000
#
# Coordination Sequence:
#
# PCOD8286926 Si02
#       8
#    16  16  16   8  16  16  16   8
#     4   9  16  27  40  53  66  84 109 139 175 214
#     4   8  15  24  36  53  73  92 112 136 170 212
#     4  10  17  24  36  56  75  93 114 141 175 213
#     4   9  17  27  40  54  65  82 106 137 177 218
#     4  10  17  26  39  54  71  95 120 145 175 213
#     4   9  16  26  41  58  70  84 113 148 179 214
#     4   9  15  27  41  53  70  92 114 142 177 214
#     4   9  17  27  37  54  74  93 116 147 177 209
#
# _framework density 13.423727
#
# number of rings (size 3 to 8) (size 9 to 14) (size 15 to 20)
#    0.000    2.857    1.429    1.286    0.000    2.857 
#    0.000    0.357    0.000    3.857    0.000    0.000 
#    0.000    0.000    0.000    0.000    0.000    0.000 
#
# Total GULP energy -693773.604185 kJ/mol
# GULP energy per Si atom -12388.814360 kJ/mol
# Density = 1.339317 g / cm^3
# Si number density = 13.423727 Si / 1000 Ang^3
#
#
#
# Elastic Constant Matrix: (Units=GPa)
#
#
# Indices 1 2 3 4 5 6 
#
# 1 42.7563 52.8815 18.9385 0.0000 0.0000 0.0000
# 2 52.8815 126.6158 46.9850 0.0000 0.0000 0.0000
# 3 18.9385 46.9850 58.4002 0.0000 0.0000 0.0000
# 4 0.0000 0.0000 0.0000 20.7345 0.0000 0.0000
# 5 0.0000 0.0000 0.0000 0.0000 7.1041 0.0000
# 6 0.0000 0.0000 0.0000 0.0000 0.0000 15.7772
#
#
#
# Elastic Compliance Matrix: (Units=1/GPa)
#
#
# Indices 1 2 3 4 5 6 
#
# 1 0.048406 -0.020517 0.000809 0.000000 0.000000 0.000000
# 2 -0.020517 0.019956 -0.009402 0.000000 0.000000 0.000000
# 3 0.000809 -0.009402 0.024425 0.000000 0.000000 0.000000
# 4 0.000000 0.000000 0.000000 0.048229 0.000000 0.000000
# 5 0.000000 0.000000 0.000000 0.000000 0.140765 0.000000
# 6 0.000000 0.000000 0.000000 0.000000 0.000000 0.063383
#
#
# Mechanical properties :
#
#
# Convention : Reuss Voigt Hill
#
# Bulk Modulus (GPa) = 28.92908 51.70913 40.31911
# Shear Modulus (GPa) = 12.05100 15.98763 14.01932
#
# Velocity S-wave (km/s) = 2.99948 3.45483 3.23517
# Velocity P-wave (km/s) = 5.79598 7.38368 6.63747
#
# Compressibility (1/GPa) = 0.03456729
#
# Stress axis : x y z
#
# Youngs Moduli (GPa) = 20.65874 50.11095 40.94216
#
# Poissons Ratio (x) = 1.02813 -0.03313
# Poissons Ratio (y) = 0.42386 0.38492
# Poissons Ratio (z) = -0.01672 0.47112
#
# Static dielectric constant tensor:
#      x y z
#    x 2.523250 0.000000 0.000000 
#    y 0.000000 3.049240 0.000000 
#    z 0.000000 0.000000 2.397860 
# 
# 
# High freq. dielectric constant tensor:
#      x y z
#    x 1.446870 0.000000 0.000000 
#    y 0.000000 1.516680 0.000000 
#    z 0.000000 0.000000 1.512870 
# 
# From -- ./inp_files/17624.got.cif
#   From: 2010.06.25/outbox.cif.g09.slc.cpg/sg71_9_cif.got.tgz:17624.got - 2010.06.28 04:59:45.
