data_PCOD8286185
_publ_section_title
;
Structure prediction by ZEFSAII (Michael W. Deem and Ramdas Pophale) SiO2 
 PCOD8286185
Probable space group: F D D D
;
_chemical_formula_sum "Si O2"
_cell_formula_units_Z 224
_cell_length_a 23.921780
_cell_length_b 25.896150
_cell_length_c 21.254049
_cell_angle_alpha 90.000000
_cell_angle_beta 90.000000
_cell_angle_gamma 90.000000
_cell_volume 13166.500850
_symmetry_space_group_name_H-M "F D D D"
_symmetry_group_IT_number 70
_space_group.IT_coordinate_system_code '2'
_symmetry_cell_setting 'orthorhombic'
loop_
_space_group_symop_operation_xyz
x,y,z
1/4-x,1/4-y,z
x,1/4-y,1/4-z
1/4-x,y,1/4-z
-x,-y,-z
3/4+x,3/4+y,-z
-x,3/4+y,3/4+z
3/4+x,-y,3/4+z
x,1/2+y,1/2+z
1/4-x,3/4-y,1/2+z
x,3/4-y,3/4-z
1/4-x,1/2+y,3/4-z
-x,1/2-y,1/2-z
3/4+x,1/4+y,1/2-z
-x,1/4+y,1/4+z
3/4+x,1/2-y,1/4+z
1/2+x,y,1/2+z
3/4-x,1/4-y,1/2+z
1/2+x,1/4-y,3/4-z
3/4-x,y,3/4-z
1/2-x,-y,1/2-z
1/4+x,3/4+y,1/2-z
1/2-x,3/4+y,1/4+z
1/4+x,-y,1/4+z
1/2+x,1/2+y,z
3/4-x,3/4-y,z
1/2+x,3/4-y,1/4-z
3/4-x,1/2+y,1/4-z
1/2-x,1/2-y,-z
1/4+x,1/4+y,-z
1/2-x,1/4+y,3/4+z
1/4+x,1/2-y,3/4+z
loop_
_atom_site_type_symbol
_atom_site_label
_atom_site_fract_x
_atom_site_fract_y
_atom_site_fract_z
Si Si1 0.616259 0.847653 0.025504
Si Si2 0.533363 0.403802 0.118928
Si Si3 0.468972 0.344199 0.025775
Si Si4 0.535615 0.997255 0.395041
Si Si5 0.121988 0.235060 0.993289
Si Si6 0.437331 0.919725 0.425698
Si Si7 0.929830 0.163315 0.067514
O O1 0.672810 0.834802 0.063301
O O2 0.565800 0.867114 0.069669
O O3 0.598537 0.793122 0.995879
O O4 0.627153 0.891168 0.972175
O O5 0.492011 0.359154 0.094846
O O6 0.499096 0.455754 0.135021
O O7 0.427223 0.297178 0.039186
O O8 0.438727 0.393244 0.994630
O O9 0.517337 0.328692 0.977445
O O10 0.569644 0.016269 0.455244
O O11 0.493877 0.950282 0.411512
O O12 0.579860 0.971183 0.345595
O O13 0.135795 0.210538 0.063043
O O14 0.423819 0.875000 0.375000
O O15 0.943681 0.125000 0.125000
#
# Coordination Sequence:
#
# PCOD8286185 Si02
#       7
#    32  32  32  32  32  32  32
#     4  10  21  35  51  71  95 136 177 205 246 304
#     4  10  21  34  49  69 102 135 165 206 250 299
#     4  11  21  34  45  70 104 137 167 202 248 294
#     4  12  19  34  51  71 103 136 170 211 247 294
#     4  12  23  31  49  76 104 138 176 202 242 302
#     4  12  22  32  45  70 107 146 171 205 235 289
#     4  11  19  34  53  70  96 133 172 212 247 290
#
# _framework density 17.012872000000002
#
# number of rings (size 3 to 8) (size 9 to 14) (size 15 to 20)
#    0.000    0.857    7.143    2.571    0.000    1.714 
#    0.000    0.000    0.000    0.857    0.000    0.000 
#    0.000    0.000    0.000    0.000    0.000    0.000 
#
# Total GULP energy -694014.888269 kJ/mol
# GULP energy per Si atom -12393.123005 kJ/mol
# Density = 1.697415 g / cm^3
# Si number density = 17.012872 Si / 1000 Ang^3
#
#
#
# Elastic Constant Matrix: (Units=GPa)
#
#
# Indices 1 2 3 4 5 6 
#
# 1 70.2187 44.6383 41.3673 0.0000 0.0000 0.0000
# 2 44.6383 84.9794 50.2374 0.0000 0.0000 0.0000
# 3 41.3673 50.2374 69.2754 0.0000 0.0000 0.0000
# 4 0.0000 0.0000 0.0000 28.0035 0.0000 0.0000
# 5 0.0000 0.0000 0.0000 0.0000 11.7014 0.0000
# 6 0.0000 0.0000 0.0000 0.0000 0.0000 25.7917
#
#
#
# Elastic Compliance Matrix: (Units=1/GPa)
#
#
# Indices 1 2 3 4 5 6 
#
# 1 0.024330 -0.007336 -0.009208 0.000000 0.000000 0.000000
# 2 -0.007336 0.022810 -0.012161 0.000000 0.000000 0.000000
# 3 -0.009208 -0.012161 0.028752 0.000000 0.000000 0.000000
# 4 0.000000 0.000000 0.000000 0.035710 0.000000 0.000000
# 5 0.000000 0.000000 0.000000 0.000000 0.085460 0.000000
# 6 0.000000 0.000000 0.000000 0.000000 0.000000 0.038772
#
#
# Mechanical properties :
#
#
# Convention : Reuss Voigt Hill
#
# Bulk Modulus (GPa) = 54.10681 55.21773 54.66227
# Shear Modulus (GPa) = 16.69974 18.98134 17.84054
#
# Velocity S-wave (km/s) = 3.13644 3.34384 3.24180
# Velocity P-wave (km/s) = 6.70737 6.88733 6.79794
#
# Compressibility (1/GPa) = 0.01848196
#
# Stress axis : x y z
#
# Youngs Moduli (GPa) = 41.10206 43.83960 34.77966
#
# Poissons Ratio (x) = 0.32163 0.32025
# Poissons Ratio (y) = 0.30154 0.42295
# Poissons Ratio (z) = 0.37847 0.53313
#
# Static dielectric constant tensor:
#      x y z
#    x 3.096520 0.000000 0.000000 
#    y 0.000000 3.202490 0.000000 
#    z 0.000000 0.000000 3.193520 
# 
# 
# High freq. dielectric constant tensor:
#      x y z
#    x 1.634980 0.000000 0.000000 
#    y 0.000000 1.646940 0.000000 
#    z 0.000000 0.000000 1.630770 
# 
# From -- ./inp_files/53783.got.cif
#   From: 2010.03.12/outbox.cif.g09.slc.cpg/sg70_27_cif.got.tgz:53783.got - 2010.04.16 13:46:32.
