data_PCOD8286608
_publ_section_title
;
Structure prediction by ZEFSAII (Michael W. Deem and Ramdas Pophale) SiO2 
 PCOD8286608
Probable space group: F D D D
;
_chemical_formula_sum "Si O2"
_cell_formula_units_Z 104
_cell_length_a 10.947051
_cell_length_b 28.627311
_cell_length_c 14.952036
_cell_angle_alpha 90.000000
_cell_angle_beta 90.000000
_cell_angle_gamma 90.000000
_cell_volume 4685.738322
_symmetry_space_group_name_H-M "F D D D"
_symmetry_group_IT_number 70
_space_group.IT_coordinate_system_code '2'
_symmetry_cell_setting 'orthorhombic'
loop_
_space_group_symop_operation_xyz
x,y,z
1/4-x,1/4-y,z
x,1/4-y,1/4-z
1/4-x,y,1/4-z
-x,-y,-z
3/4+x,3/4+y,-z
-x,3/4+y,3/4+z
3/4+x,-y,3/4+z
x,1/2+y,1/2+z
1/4-x,3/4-y,1/2+z
x,3/4-y,3/4-z
1/4-x,1/2+y,3/4-z
-x,1/2-y,1/2-z
3/4+x,1/4+y,1/2-z
-x,1/4+y,1/4+z
3/4+x,1/2-y,1/4+z
1/2+x,y,1/2+z
3/4-x,1/4-y,1/2+z
1/2+x,1/4-y,3/4-z
3/4-x,y,3/4-z
1/2-x,-y,1/2-z
1/4+x,3/4+y,1/2-z
1/2-x,3/4+y,1/4+z
1/4+x,-y,1/4+z
1/2+x,1/2+y,z
3/4-x,3/4-y,z
1/2+x,3/4-y,1/4-z
3/4-x,1/2+y,1/4-z
1/2-x,1/2-y,-z
1/4+x,1/4+y,-z
1/2-x,1/4+y,3/4+z
1/4+x,1/2-y,3/4+z
loop_
_atom_site_type_symbol
_atom_site_label
_atom_site_fract_x
_atom_site_fract_y
_atom_site_fract_z
Si Si1 0.742669 0.865016 0.268738
Si Si2 0.441504 0.188239 0.517379
Si Si3 0.489766 0.727022 0.591599
Si Si4 0.875000 0.375000 0.375000
O O1 0.736213 0.875000 0.375000
O O2 0.646744 0.899634 0.220461
O O3 0.707315 0.809961 0.261523
O O4 0.875000 0.875000 0.226628
O O5 0.508673 0.219975 0.443540
O O6 0.360570 0.222926 0.579778
O O7 0.544381 0.159713 0.567478
O O8 0.625000 0.712549 0.625000
#
# Coordination Sequence:
#
# PCOD8286608 Si02
#       4
#    32  32  32   8
#     4   9  15  33  59  86 115 155 201 254 316 371
#     4  11  23  39  63  92 125 172 215 259 321 392
#     4  11  20  38  66  96 119 159 219 269 313 383
#     4  12  24  44  62  76 132 184 206 238 344 400
#
# _framework density 22.195008999999999
#
# number of rings (size 3 to 8) (size 9 to 14) (size 15 to 20)
#    0.000    1.538   10.769    0.923    0.000    1.231 
#    0.000    3.077    0.000    0.000    0.000    0.000 
#    0.000    0.000    0.000    0.000    0.000    0.000 
#
# Total GULP energy -322156.623680 kJ/mol
# GULP energy per Si atom -12390.639372 kJ/mol
# Density = 2.214449 g / cm^3
# Si number density = 22.195009 Si / 1000 Ang^3
#
#
#
# Elastic Constant Matrix: (Units=GPa)
#
#
# Indices 1 2 3 4 5 6 
#
# 1 121.2428 43.9086 20.8986 0.0000 0.0000 0.0000
# 2 43.9086 150.2697 25.0560 0.0000 0.0000 0.0000
# 3 20.8986 25.0560 21.4616 0.0000 0.0000 0.0000
# 4 0.0000 0.0000 0.0000 42.0234 0.0000 0.0000
# 5 0.0000 0.0000 0.0000 0.0000 -7.5694 0.0000
# 6 0.0000 0.0000 0.0000 0.0000 0.0000 28.3968
#
#
#
# Elastic Compliance Matrix: (Units=1/GPa)
#
#
# Indices 1 2 3 4 5 6 
#
# 1 0.010230 -0.001649 -0.008037 0.000000 0.000000 0.000000
# 2 -0.001649 0.008529 -0.008352 0.000000 0.000000 0.000000
# 3 -0.008037 -0.008352 0.064171 0.000000 0.000000 0.000000
# 4 0.000000 0.000000 0.000000 0.023796 0.000000 0.000000
# 5 0.000000 0.000000 0.000000 0.000000 -0.132110 0.000000
# 6 0.000000 0.000000 0.000000 0.000000 0.000000 0.035215
#
#
# Mechanical properties :
#
#
# Convention : Reuss Voigt Hill
#
# Bulk Modulus (GPa) = 21.34220 52.52230 36.93225
# Shear Modulus (GPa) = 81.26767 26.11089 53.68928
#
# Velocity S-wave (km/s) = 6.05762 3.43363 4.92365
# Velocity P-wave (km/s) = 7.65265 6.27974 6.99994
#
# Compressibility (1/GPa) = 0.04685553
#
# Stress axis : x y z
#
# Youngs Moduli (GPa) = 97.74712 117.24465 15.58341
#
# Poissons Ratio (x) = 0.19337 0.12524
# Poissons Ratio (y) = 0.16122 0.13015
# Poissons Ratio (z) = 0.78555 0.97918
#
# Static dielectric constant tensor:
#      x y z
#    x 4.102010 0.000000 0.000000 
#    y 0.000000 4.709170 0.000000 
#    z 0.000000 0.000000 3.303300 
# 
# 
# High freq. dielectric constant tensor:
#      x y z
#    x 1.871490 0.000000 0.000000 
#    y 0.000000 1.902030 0.000000 
#    z 0.000000 0.000000 1.804860 
# 
# From -- ./inp_files/15058.got.cif
#   From: 2010.03.12/outbox.cif.g09.slc.cpg/sg70_8_cif.got.tgz:15058.got - 2010.04.16 13:46:32.
