data_PCOD8286918
_publ_section_title
;
Structure prediction by ZEFSAII (Michael W. Deem and Ramdas Pophale) SiO2 
 PCOD8286918
Probable space group: I M M M
;
_chemical_formula_sum "Si O2"
_cell_formula_units_Z 88
_cell_length_a 12.309720
_cell_length_b 20.377128
_cell_length_c 18.668288
_cell_angle_alpha 90.000000
_cell_angle_beta 90.000000
_cell_angle_gamma 90.000000
_cell_volume 4682.692505
_symmetry_space_group_name_H-M "I M M M"
_symmetry_group_IT_number 71
_symmetry_cell_setting 'orthorhombic'
loop_
_space_group_symop_operation_xyz
x,y,z
-x,-y,z
x,-y,-z
-x,y,-z
-x,-y,-z
x,y,-z
-x,y,z
x,-y,z
1/2+x,1/2+y,1/2+z
1/2-x,1/2-y,1/2+z
1/2+x,1/2-y,1/2-z
1/2-x,1/2+y,1/2-z
1/2-x,1/2-y,1/2-z
1/2+x,1/2+y,1/2-z
1/2-x,1/2+y,1/2+z
1/2+x,1/2-y,1/2+z
loop_
_atom_site_type_symbol
_atom_site_label
_atom_site_fract_x
_atom_site_fract_y
_atom_site_fract_z
Si Si1 0.759528 0.427562 0.659740
Si Si2 0.874441 0.812544 0.915348
Si Si3 0.000000 0.259089 0.417342
Si Si4 0.217735 0.196600 0.415190
Si Si5 0.000000 0.604786 0.648017
Si Si6 0.000000 0.573579 0.201090
Si Si7 0.267403 0.926425 0.327730
O O1 0.709826 0.500000 0.644923
O O2 0.688740 0.373555 0.619047
O O3 0.751686 0.410998 0.744000
O O4 0.885367 0.431740 0.633368
O O5 0.818845 0.743305 0.892647
O O6 0.000000 0.811353 0.889883
O O7 0.865606 0.821782 0.000000
O O8 0.890581 0.230053 0.383914
O O9 0.000000 0.335579 0.405706
O O10 0.000000 0.242433 0.500000
O O11 0.217265 0.185813 0.500000
O O12 0.210541 0.126125 0.377765
O O13 0.000000 0.624694 0.732445
O O14 0.105338 0.581129 0.151879
O O15 0.000000 0.500000 0.236922
O O16 0.225460 0.000000 0.346011
#
# Coordination Sequence:
#
# PCOD8286918 Si02
#       7
#    16  16   8  16   8   8  16
#     4  10  20  36  57  83 112 143 181 226 271 316
#     4  10  22  39  56  80 113 148 182 219 267 323
#     4  10  20  36  55  77 107 138 175 229 277 314
#     4  10  21  38  58  79 108 144 182 225 273 323
#     4  10  16  32  56  81 106 141 174 221 273 322
#     4   8  16  32  53  79 113 141 165 216 282 321
#     4   9  19  36  56  82 112 141 179 226 273 321
#
# _framework density 18.792607
#
# number of rings (size 3 to 8) (size 9 to 14) (size 15 to 20)
#    0.000    2.364    1.818    1.909    1.273    1.818 
#    1.636    1.364    0.000    6.273    0.000    0.000 
#    0.000    0.000    0.000    0.000    0.000    0.000 
#
# Total GULP energy -545138.351030 kJ/mol
# GULP energy per Si atom -12389.507978 kJ/mol
# Density = 1.874983 g / cm^3
# Si number density = 18.792607 Si / 1000 Ang^3
#
#
#
# Elastic Constant Matrix: (Units=GPa)
#
#
# Indices 1 2 3 4 5 6 
#
# 1 109.1798 46.8646 29.2995 0.0000 0.0000 0.0000
# 2 46.8646 121.8240 39.5031 0.0000 0.0000 0.0000
# 3 29.2995 39.5031 32.5044 0.0000 0.0000 0.0000
# 4 0.0000 0.0000 0.0000 30.7518 0.0000 0.0000
# 5 0.0000 0.0000 0.0000 0.0000 14.5768 0.0000
# 6 0.0000 0.0000 0.0000 0.0000 0.0000 -132.6021
#
#
#
# Elastic Compliance Matrix: (Units=1/GPa)
#
#
# Indices 1 2 3 4 5 6 
#
# 1 0.012338 -0.001881 -0.008835 0.000000 0.000000 0.000000
# 2 -0.001881 0.013834 -0.015117 0.000000 0.000000 0.000000
# 3 -0.008835 -0.015117 0.057101 0.000000 0.000000 0.000000
# 4 0.000000 0.000000 0.000000 0.032518 0.000000 0.000000
# 5 0.000000 0.000000 0.000000 0.000000 0.068602 0.000000
# 6 0.000000 0.000000 0.000000 0.000000 0.000000 -0.007541
#
#
# Mechanical properties :
#
#
# Convention : Reuss Voigt Hill
#
# Bulk Modulus (GPa) = 31.63930 54.98251 43.31090
# Shear Modulus (GPa) = 20.91583 -7.59865 6.65859
#
# Velocity S-wave (km/s) = 3.33976 -2.01301 1.88438
# Velocity P-wave (km/s) = 5.63423 4.89061 5.27554
#
# Compressibility (1/GPa) = 0.03160626
#
# Stress axis : x y z
#
# Youngs Moduli (GPa) = 81.05252 72.28452 17.51295
#
# Poissons Ratio (x) = 0.13600 0.15472
# Poissons Ratio (y) = 0.15249 0.26474
# Poissons Ratio (z) = 0.71607 1.09273
#
# Static dielectric constant tensor:
#      x y z
#    x 3.710040 0.000000 0.000000 
#    y 0.000000 3.401190 0.000000 
#    z 0.000000 0.000000 3.113090 
# 
# 
# High freq. dielectric constant tensor:
#      x y z
#    x 1.732840 0.000000 0.000000 
#    y 0.000000 1.731050 0.000000 
#    z 0.000000 0.000000 1.702440 
# 
# From -- ./inp_files/24010.got.cif
#   From: 2010.06.25/outbox.cif.g09.slc.cpg/sg71_13_cif.got.tgz:24010.got - 2010.06.28 04:59:45.
