data_PCOD8286674
_publ_section_title
;
Structure prediction by ZEFSAII (Michael W. Deem and Ramdas Pophale) SiO2 
 PCOD8286674
Probable space group: F D D D
;
_chemical_formula_sum "Si O2"
_cell_formula_units_Z 160
_cell_length_a 21.571339
_cell_length_b 18.657905
_cell_length_c 18.355710
_cell_angle_alpha 90.000000
_cell_angle_beta 90.000000
_cell_angle_gamma 90.000000
_cell_volume 7387.732624
_symmetry_space_group_name_H-M "F D D D"
_symmetry_group_IT_number 70
_space_group.IT_coordinate_system_code '2'
_symmetry_cell_setting 'orthorhombic'
loop_
_space_group_symop_operation_xyz
x,y,z
1/4-x,1/4-y,z
x,1/4-y,1/4-z
1/4-x,y,1/4-z
-x,-y,-z
3/4+x,3/4+y,-z
-x,3/4+y,3/4+z
3/4+x,-y,3/4+z
x,1/2+y,1/2+z
1/4-x,3/4-y,1/2+z
x,3/4-y,3/4-z
1/4-x,1/2+y,3/4-z
-x,1/2-y,1/2-z
3/4+x,1/4+y,1/2-z
-x,1/4+y,1/4+z
3/4+x,1/2-y,1/4+z
1/2+x,y,1/2+z
3/4-x,1/4-y,1/2+z
1/2+x,1/4-y,3/4-z
3/4-x,y,3/4-z
1/2-x,-y,1/2-z
1/4+x,3/4+y,1/2-z
1/2-x,3/4+y,1/4+z
1/4+x,-y,1/4+z
1/2+x,1/2+y,z
3/4-x,3/4-y,z
1/2+x,3/4-y,1/4-z
3/4-x,1/2+y,1/4-z
1/2-x,1/2-y,-z
1/4+x,1/4+y,-z
1/2-x,1/4+y,3/4+z
1/4+x,1/2-y,3/4+z
loop_
_atom_site_type_symbol
_atom_site_label
_atom_site_fract_x
_atom_site_fract_y
_atom_site_fract_z
Si Si1 0.892666 0.450549 0.172486
Si Si2 0.532760 0.425444 0.521479
Si Si3 0.211417 0.938273 0.570027
Si Si4 0.146713 0.854205 0.454829
Si Si5 0.328821 0.928762 0.017835
O O1 0.875000 0.375000 0.212154
O O2 0.867667 0.519867 0.215218
O O3 0.861409 0.451474 0.093113
O O4 0.966453 0.454320 0.167716
O O5 0.500000 0.500000 0.500000
O O6 0.567486 0.430376 0.599413
O O7 0.584531 0.402738 0.462997
O O8 0.485909 0.359714 0.531277
O O9 0.197957 0.870419 0.517303
O O10 0.177186 0.003359 0.532092
O O11 0.173384 0.875000 0.375000
O O12 0.375000 0.875000 0.975600
#
# Coordination Sequence:
#
# PCOD8286674 Si02
#       5
#    32  32  32  32  32
#     4  11  23  46  71 103 144 192 243 304 352 438
#     4  12  25  43  73 108 147 190 240 307 372 443
#     4  12  24  45  75 105 143 194 241 297 375 442
#     4  12  25  43  72 107 147 190 243 302 365 432
#     4  11  22  43  72 103 146 187 238 296 372 435
#
# _framework density 21.657525
#
# number of rings (size 3 to 8) (size 9 to 14) (size 15 to 20)
#    0.000    0.400    8.000    3.000    0.000    0.800 
#    0.000    1.000    0.000    0.000    0.000    0.000 
#    0.000    0.000    0.000    0.000    0.000    0.000 
#
# Total GULP energy -495896.585970 kJ/mol
# GULP energy per Si atom -12397.414649 kJ/mol
# Density = 2.160823 g / cm^3
# Si number density = 21.657525 Si / 1000 Ang^3
#
#
#
# Elastic Constant Matrix: (Units=GPa)
#
#
# Indices 1 2 3 4 5 6 
#
# 1 58.5766 7.4940 23.5548 0.0000 0.0000 0.0000
# 2 7.4940 140.6055 41.5219 0.0000 0.0000 0.0000
# 3 23.5548 41.5219 121.2953 0.0000 0.0000 0.0000
# 4 0.0000 0.0000 0.0000 26.2356 0.0000 0.0000
# 5 0.0000 0.0000 0.0000 0.0000 34.1375 0.0000
# 6 0.0000 0.0000 0.0000 0.0000 0.0000 38.2530
#
#
#
# Elastic Compliance Matrix: (Units=1/GPa)
#
#
# Indices 1 2 3 4 5 6 
#
# 1 0.018519 0.000083 -0.003625 0.000000 0.000000 0.000000
# 2 0.000083 0.007912 -0.002725 0.000000 0.000000 0.000000
# 3 -0.003625 -0.002725 0.009881 0.000000 0.000000 0.000000
# 4 0.000000 0.000000 0.000000 0.038116 0.000000 0.000000
# 5 0.000000 0.000000 0.000000 0.000000 0.029293 0.000000
# 6 0.000000 0.000000 0.000000 0.000000 0.000000 0.026142
#
#
# Mechanical properties :
#
#
# Convention : Reuss Voigt Hill
#
# Bulk Modulus (GPa) = 42.05266 51.73541 46.89404
# Shear Modulus (GPa) = 33.26198 36.25233 34.75716
#
# Velocity S-wave (km/s) = 3.92320 4.09576 4.01041
# Velocity P-wave (km/s) = 6.32307 6.80491 6.56841
#
# Compressibility (1/GPa) = 0.02377971
#
# Stress axis : x y z
#
# Youngs Moduli (GPa) = 53.99980 126.38564 101.20446
#
# Poissons Ratio (x) = -0.01054 0.36684
# Poissons Ratio (y) = -0.00450 0.27576
# Poissons Ratio (z) = 0.19574 0.34437
#
# Static dielectric constant tensor:
#      x y z
#    x 4.536440 0.000000 0.000000 
#    y 0.000000 4.500310 0.000000 
#    z 0.000000 0.000000 3.931510 
# 
# 
# High freq. dielectric constant tensor:
#      x y z
#    x 1.855690 0.000000 0.000000 
#    y 0.000000 1.868850 0.000000 
#    z 0.000000 0.000000 1.835100 
# 
# From -- ./inp_files/36294.got.cif
#   From: 2010.03.12/outbox.cif.g09.slc.cpg/sg70_19_cif.got.tgz:36294.got - 2010.04.16 13:46:32.
