data_PCOD8286971
_publ_section_title
;
Structure prediction by ZEFSAII (Michael W. Deem and Ramdas Pophale) SiO2 
 PCOD8286971
Probable space group: I M M M
;
_chemical_formula_sum "Si O2"
_cell_formula_units_Z 112
_cell_length_a 28.520575
_cell_length_b 13.589383
_cell_length_c 19.586486
_cell_angle_alpha 90.000000
_cell_angle_beta 90.000000
_cell_angle_gamma 90.000000
_cell_volume 7591.271818
_symmetry_space_group_name_H-M "I M M M"
_symmetry_group_IT_number 71
_symmetry_cell_setting 'orthorhombic'
loop_
_space_group_symop_operation_xyz
x,y,z
-x,-y,z
x,-y,-z
-x,y,-z
-x,-y,-z
x,y,-z
-x,y,z
x,-y,z
1/2+x,1/2+y,1/2+z
1/2-x,1/2-y,1/2+z
1/2+x,1/2-y,1/2-z
1/2-x,1/2+y,1/2-z
1/2-x,1/2-y,1/2-z
1/2+x,1/2+y,1/2-z
1/2-x,1/2+y,1/2+z
1/2+x,1/2-y,1/2+z
loop_
_atom_site_type_symbol
_atom_site_label
_atom_site_fract_x
_atom_site_fract_y
_atom_site_fract_z
Si Si1 0.140544 0.611983 0.920379
Si Si2 0.053202 0.885659 0.197568
Si Si3 0.182504 0.883859 0.423529
Si Si4 0.728883 0.389110 0.721881
Si Si5 0.947051 0.260094 0.922332
Si Si6 0.269929 0.197937 0.645588
Si Si7 0.368671 0.388183 0.205411
O O1 0.143046 0.500000 0.894400
O O2 0.088475 0.651892 0.904657
O O3 0.177888 0.677931 0.880340
O O4 0.152277 0.618406 0.000000
O O5 0.063046 0.832535 0.126057
O O6 0.086545 0.839209 0.256972
O O7 0.000000 0.870280 0.222292
O O8 0.065050 0.000000 0.185030
O O9 0.164874 0.860617 0.500000
O O10 0.232755 0.833657 0.411869
O O11 0.144420 0.841537 0.368852
O O12 0.189865 0.000000 0.411496
O O13 0.739679 0.500000 0.697007
O O14 0.737060 0.314394 0.659379
O O15 0.762867 0.363247 0.784802
O O16 0.675413 0.377908 0.745068
O O17 0.000000 0.300211 0.911525
O O18 0.939758 0.223301 0.000000
O O19 0.382467 0.500000 0.191378
#
# Coordination Sequence:
#
# PCOD8286971 Si02
#       7
#    16  16  16  16  16  16  16
#     4  10  19  29  42  58  76 100 131 169 206 236
#     4   9  16  26  42  61  80 104 133 166 199 234
#     4   9  16  26  41  59  79 103 132 170 211 248
#     4   9  17  27  40  59  83 110 134 160 197 239
#     4   9  18  30  41  56  79 106 136 165 197 241
#     4  10  17  26  42  61  81 104 134 168 199 236
#     4   8  14  25  39  56  78 103 132 161 195 240
#
# _framework density 14.753786
#
# number of rings (size 3 to 8) (size 9 to 14) (size 15 to 20)
#    0.000    2.857    0.000    3.429    0.000    1.714 
#    0.000    2.857    0.000    3.000    0.000    3.000 
#    0.000    0.000    0.000    0.000    0.000    0.000 
#
# Total GULP energy -694131.842532 kJ/mol
# GULP energy per Si atom -12395.211474 kJ/mol
# Density = 1.472021 g / cm^3
# Si number density = 14.753786 Si / 1000 Ang^3
#
#
#
# Elastic Constant Matrix: (Units=GPa)
#
#
# Indices 1 2 3 4 5 6 
#
# 1 86.8930 29.4600 48.1311 0.0000 0.0000 0.0000
# 2 29.4600 73.0269 33.9440 0.0000 0.0000 0.0000
# 3 48.1311 33.9440 76.8735 0.0000 0.0000 0.0000
# 4 0.0000 0.0000 0.0000 17.5435 0.0000 0.0000
# 5 0.0000 0.0000 0.0000 0.0000 23.2677 0.0000
# 6 0.0000 0.0000 0.0000 0.0000 0.0000 16.0599
#
#
#
# Elastic Compliance Matrix: (Units=1/GPa)
#
#
# Indices 1 2 3 4 5 6 
#
# 1 0.017987 -0.002544 -0.010138 0.000000 0.000000 0.000000
# 2 -0.002544 0.017590 -0.006174 0.000000 0.000000 0.000000
# 3 -0.010138 -0.006174 0.022082 0.000000 0.000000 0.000000
# 4 0.000000 0.000000 0.000000 0.057001 0.000000 0.000000
# 5 0.000000 0.000000 0.000000 0.000000 0.042978 0.000000
# 6 0.000000 0.000000 0.000000 0.000000 0.000000 0.062267
#
#
# Mechanical properties :
#
#
# Convention : Reuss Voigt Hill
#
# Bulk Modulus (GPa) = 50.13507 51.09596 50.61552
# Shear Modulus (GPa) = 18.92034 19.72477 19.32256
#
# Velocity S-wave (km/s) = 3.58495 3.66037 3.62286
# Velocity P-wave (km/s) = 7.15477 7.25066 7.20288
#
# Compressibility (1/GPa) = 0.01994612
#
# Stress axis : x y z
#
# Youngs Moduli (GPa) = 55.59708 56.85192 45.28488
#
# Poissons Ratio (x) = 0.14460 0.45912
# Poissons Ratio (y) = 0.14141 0.27960
# Poissons Ratio (z) = 0.56367 0.35102
#
# Static dielectric constant tensor:
#      x y z
#    x 2.930450 0.000000 0.000000 
#    y 0.000000 2.764650 0.000000 
#    z 0.000000 0.000000 2.884600 
# 
# 
# High freq. dielectric constant tensor:
#      x y z
#    x 1.561720 0.000000 0.000000 
#    y 0.000000 1.541600 0.000000 
#    z 0.000000 0.000000 1.553480 
# 
# From -- ./inp_files/56397.got.cif
#   From: 2010.06.25/outbox.cif.g09.slc.cpg/sg71_29_cif.got.tgz:56397.got - 2010.06.28 04:59:45.
