data_PCOD8286559
_publ_section_title
;
Structure prediction by ZEFSAII (Michael W. Deem and Ramdas Pophale) SiO2 
 PCOD8286559
Probable space group: F D D D
;
_chemical_formula_sum "Si O2"
_cell_formula_units_Z 160
_cell_length_a 16.977309
_cell_length_b 18.718998
_cell_length_c 22.240626
_cell_angle_alpha 90.000000
_cell_angle_beta 90.000000
_cell_angle_gamma 90.000000
_cell_volume 7068.031204
_symmetry_space_group_name_H-M "F D D D"
_symmetry_group_IT_number 70
_space_group.IT_coordinate_system_code '2'
_symmetry_cell_setting 'orthorhombic'
loop_
_space_group_symop_operation_xyz
x,y,z
1/4-x,1/4-y,z
x,1/4-y,1/4-z
1/4-x,y,1/4-z
-x,-y,-z
3/4+x,3/4+y,-z
-x,3/4+y,3/4+z
3/4+x,-y,3/4+z
x,1/2+y,1/2+z
1/4-x,3/4-y,1/2+z
x,3/4-y,3/4-z
1/4-x,1/2+y,3/4-z
-x,1/2-y,1/2-z
3/4+x,1/4+y,1/2-z
-x,1/4+y,1/4+z
3/4+x,1/2-y,1/4+z
1/2+x,y,1/2+z
3/4-x,1/4-y,1/2+z
1/2+x,1/4-y,3/4-z
3/4-x,y,3/4-z
1/2-x,-y,1/2-z
1/4+x,3/4+y,1/2-z
1/2-x,3/4+y,1/4+z
1/4+x,-y,1/4+z
1/2+x,1/2+y,z
3/4-x,3/4-y,z
1/2+x,3/4-y,1/4-z
3/4-x,1/2+y,1/4-z
1/2-x,1/2-y,-z
1/4+x,1/4+y,-z
1/2-x,1/4+y,3/4+z
1/4+x,1/2-y,3/4+z
loop_
_atom_site_type_symbol
_atom_site_label
_atom_site_fract_x
_atom_site_fract_y
_atom_site_fract_z
Si Si1 0.251872 0.174686 0.465762
Si Si2 0.625000 0.963914 0.125000
Si Si3 0.251491 0.320378 0.324878
Si Si4 0.413702 0.741319 0.188539
Si Si5 0.125000 0.125000 0.379727
Si Si6 0.414756 0.451421 0.934085
O O1 0.250000 0.250000 0.500000
O O2 0.329533 0.166560 0.424411
O O3 0.244313 0.107098 0.509725
O O4 0.178926 0.174704 0.420836
O O5 0.685832 0.007176 0.082324
O O6 0.278488 0.375000 0.375000
O O7 0.163019 0.295298 0.339389
O O8 0.425642 0.821063 0.161773
O O9 0.399736 0.746436 0.260138
O O10 0.490837 0.693917 0.174113
O O11 0.375000 0.486177 0.875000
O O12 0.375000 0.375000 0.946104
#
# Coordination Sequence:
#
# PCOD8286559 Si02
#       6
#    32  16  32  32  16  32
#     4  12  26  45  75 105 144 198 238 305 376 438
#     4  12  25  48  72 110 148 191 250 300 372 453
#     4  12  26  45  72 106 149 186 242 301 366 443
#     4  11  25  45  71 105 146 190 237 309 363 436
#     4  12  24  48  68 106 150 184 248 304 372 438
#     4  10  24  46  71  99 141 188 242 296 360 438
#
# _framework density 22.637138
#
# number of rings (size 3 to 8) (size 9 to 14) (size 15 to 20)
#    0.000    0.600    5.000    1.500    5.600    4.800 
#    0.000    0.000    0.000    0.000    0.000    0.000 
#    0.000    0.000    0.000    0.000    0.000    0.000 
#
# Total GULP energy -495988.315926 kJ/mol
# GULP energy per Si atom -12399.707898 kJ/mol
# Density = 2.258561 g / cm^3
# Si number density = 22.637138 Si / 1000 Ang^3
#
#
#
# Elastic Constant Matrix: (Units=GPa)
#
#
# Indices 1 2 3 4 5 6 
#
# 1 150.8695 30.8729 44.3998 0.0000 0.0000 0.0000
# 2 30.8729 58.2927 26.7856 0.0000 0.0000 0.0000
# 3 44.3998 26.7856 141.9562 0.0000 0.0000 0.0000
# 4 0.0000 0.0000 0.0000 23.3713 0.0000 0.0000
# 5 0.0000 0.0000 0.0000 0.0000 43.2197 0.0000
# 6 0.0000 0.0000 0.0000 0.0000 0.0000 41.8958
#
#
#
# Elastic Compliance Matrix: (Units=1/GPa)
#
#
# Indices 1 2 3 4 5 6 
#
# 1 0.007845 -0.003315 -0.001828 0.000000 0.000000 0.000000
# 2 -0.003315 0.020184 -0.002772 0.000000 0.000000 0.000000
# 3 -0.001828 -0.002772 0.008139 0.000000 0.000000 0.000000
# 4 0.000000 0.000000 0.000000 0.042788 0.000000 0.000000
# 5 0.000000 0.000000 0.000000 0.000000 0.023138 0.000000
# 6 0.000000 0.000000 0.000000 0.000000 0.000000 0.023869
#
#
# Mechanical properties :
#
#
# Convention : Reuss Voigt Hill
#
# Bulk Modulus (GPa) = 49.16736 61.69277 55.43007
# Shear Modulus (GPa) = 33.65416 38.30137 35.97777
#
# Velocity S-wave (km/s) = 3.85993 4.11782 3.99096
# Velocity P-wave (km/s) = 6.45231 7.06545 6.76583
#
# Compressibility (1/GPa) = 0.02033870
#
# Stress axis : x y z
#
# Youngs Moduli (GPa) = 127.47759 49.54438 122.86203
#
# Poissons Ratio (x) = 0.16422 0.22461
# Poissons Ratio (y) = 0.42254 0.34055
# Poissons Ratio (z) = 0.23304 0.13733
#
# Static dielectric constant tensor:
#      x y z
#    x 4.208960 0.000000 0.000000 
#    y 0.000000 3.899130 0.000000 
#    z 0.000000 0.000000 4.460630 
# 
# 
# High freq. dielectric constant tensor:
#      x y z
#    x 1.903060 0.000000 0.000000 
#    y 0.000000 1.876650 0.000000 
#    z 0.000000 0.000000 1.910160 
# 
# From -- ./inp_files/43689.got.cif
#   From: 2010.03.12/outbox.cif.g09.slc.cpg/sg70_22_cif.got.tgz:43689.got - 2010.04.16 13:46:32.
