data_PCOD8286479
_publ_section_title
;
Structure prediction by ZEFSAII (Michael W. Deem and Ramdas Pophale) SiO2 
 PCOD8286479
Probable space group: F D D D
;
_chemical_formula_sum "Si O2"
_cell_formula_units_Z 152
_cell_length_a 26.276854
_cell_length_b 13.940409
_cell_length_c 20.129391
_cell_angle_alpha 90.000000
_cell_angle_beta 90.000000
_cell_angle_gamma 90.000000
_cell_volume 7373.599069
_symmetry_space_group_name_H-M "F D D D"
_symmetry_group_IT_number 70
_space_group.IT_coordinate_system_code '2'
_symmetry_cell_setting 'orthorhombic'
loop_
_space_group_symop_operation_xyz
x,y,z
1/4-x,1/4-y,z
x,1/4-y,1/4-z
1/4-x,y,1/4-z
-x,-y,-z
3/4+x,3/4+y,-z
-x,3/4+y,3/4+z
3/4+x,-y,3/4+z
x,1/2+y,1/2+z
1/4-x,3/4-y,1/2+z
x,3/4-y,3/4-z
1/4-x,1/2+y,3/4-z
-x,1/2-y,1/2-z
3/4+x,1/4+y,1/2-z
-x,1/4+y,1/4+z
3/4+x,1/2-y,1/4+z
1/2+x,y,1/2+z
3/4-x,1/4-y,1/2+z
1/2+x,1/4-y,3/4-z
3/4-x,y,3/4-z
1/2-x,-y,1/2-z
1/4+x,3/4+y,1/2-z
1/2-x,3/4+y,1/4+z
1/4+x,-y,1/4+z
1/2+x,1/2+y,z
3/4-x,3/4-y,z
1/2+x,3/4-y,1/4-z
3/4-x,1/2+y,1/4-z
1/2-x,1/2-y,-z
1/4+x,1/4+y,-z
1/2-x,1/4+y,3/4+z
1/4+x,1/2-y,3/4+z
loop_
_atom_site_type_symbol
_atom_site_label
_atom_site_fract_x
_atom_site_fract_y
_atom_site_fract_z
Si Si1 0.875000 0.375000 0.875000
Si Si2 0.042071 0.875000 0.375000
Si Si3 0.678672 0.173261 0.907845
Si Si4 0.681475 0.084864 0.770033
Si Si5 0.467299 0.631161 0.201981
Si Si6 0.457458 0.810883 0.972543
O O1 0.839851 0.438827 0.922300
O O2 0.076483 0.789241 0.345218
O O3 0.008945 0.821711 0.430975
O O4 0.625000 0.125000 0.920540
O O5 0.701602 0.129292 0.839807
O O6 0.711429 0.145875 0.972636
O O7 0.625000 0.125000 0.752896
O O8 0.721877 0.111509 0.713362
O O9 0.682777 0.969510 0.772502
O O10 0.456670 0.625000 0.125000
O O11 0.448635 0.537962 0.239893
#
# Coordination Sequence:
#
# PCOD8286479 Si02
#       6
#     8  16  32  32  32  32
#     4  10  24  44  64  96 134 164 222 276 332 406
#     4  11  24  41  66  94 134 168 220 281 328 401
#     4  11  22  40  64  96 128 170 223 269 335 397
#     4  10  23  42  61  97 132 173 229 269 329 402
#     4  11  22  42  70  93 136 177 217 280 333 396
#     4  11  22  43  65  97 130 172 219 276 336 394
#
# _framework density 20.614086
#
# number of rings (size 3 to 8) (size 9 to 14) (size 15 to 20)
#    0.000    1.263    5.263    0.632    0.000    3.789 
#    0.000    4.211    0.000    0.000    0.000    0.000 
#    0.000    0.000    0.000    0.000    0.000    0.000 
#
# Total GULP energy -471015.125342 kJ/mol
# GULP energy per Si atom -12395.134877 kJ/mol
# Density = 2.056717 g / cm^3
# Si number density = 20.614086 Si / 1000 Ang^3
#
#
#
# Elastic Constant Matrix: (Units=GPa)
#
#
# Indices 1 2 3 4 5 6 
#
# 1 102.3322 53.7452 25.6083 0.0000 0.0000 0.0000
# 2 53.7452 177.2870 61.4176 0.0000 0.0000 0.0000
# 3 25.6083 61.4176 83.1297 0.0000 0.0000 0.0000
# 4 0.0000 0.0000 0.0000 37.4895 0.0000 0.0000
# 5 0.0000 0.0000 0.0000 0.0000 16.6760 0.0000
# 6 0.0000 0.0000 0.0000 0.0000 0.0000 29.7212
#
#
#
# Elastic Compliance Matrix: (Units=1/GPa)
#
#
# Indices 1 2 3 4 5 6 
#
# 1 0.011730 -0.003097 -0.001326 0.000000 0.000000 0.000000
# 2 -0.003097 0.008398 -0.005251 0.000000 0.000000 0.000000
# 3 -0.001326 -0.005251 0.016317 0.000000 0.000000 0.000000
# 4 0.000000 0.000000 0.000000 0.026674 0.000000 0.000000
# 5 0.000000 0.000000 0.000000 0.000000 0.059967 0.000000
# 6 0.000000 0.000000 0.000000 0.000000 0.000000 0.033646
#
#
# Mechanical properties :
#
#
# Convention : Reuss Voigt Hill
#
# Bulk Modulus (GPa) = 58.48191 71.58791 65.03491
# Shear Modulus (GPa) = 27.50591 31.57585 29.54088
#
# Velocity S-wave (km/s) = 3.65681 3.91802 3.78966
# Velocity P-wave (km/s) = 6.80155 7.43444 7.12503
#
# Compressibility (1/GPa) = 0.01709930
#
# Stress axis : x y z
#
# Youngs Moduli (GPa) = 85.24930 119.06909 61.28504
#
# Poissons Ratio (x) = 0.36874 0.08123
# Poissons Ratio (y) = 0.26401 0.32180
# Poissons Ratio (z) = 0.11300 0.62522
#
# Static dielectric constant tensor:
#      x y z
#    x 3.551620 0.000000 0.000000 
#    y 0.000000 3.802980 0.000000 
#    z 0.000000 0.000000 4.211840 
# 
# 
# High freq. dielectric constant tensor:
#      x y z
#    x 1.793450 0.000000 0.000000 
#    y 0.000000 1.817060 0.000000 
#    z 0.000000 0.000000 1.812870 
# 
# From -- ./inp_files/42786.got.cif
#   From: 2010.03.12/outbox.cif.g09.slc.cpg/sg70_22_cif.got.tgz:42786.got - 2010.04.16 13:46:32.
