data_PCOD8286664
_publ_section_title
;
Structure prediction by ZEFSAII (Michael W. Deem and Ramdas Pophale) SiO2 
 PCOD8286664
Probable space group: F D D D
;
_chemical_formula_sum "Si O2"
_cell_formula_units_Z 176
_cell_length_a 22.343124
_cell_length_b 31.015292
_cell_length_c 11.611762
_cell_angle_alpha 90.000000
_cell_angle_beta 90.000000
_cell_angle_gamma 90.000000
_cell_volume 8046.701588
_symmetry_space_group_name_H-M "F D D D"
_symmetry_group_IT_number 70
_space_group.IT_coordinate_system_code '2'
_symmetry_cell_setting 'orthorhombic'
loop_
_space_group_symop_operation_xyz
x,y,z
1/4-x,1/4-y,z
x,1/4-y,1/4-z
1/4-x,y,1/4-z
-x,-y,-z
3/4+x,3/4+y,-z
-x,3/4+y,3/4+z
3/4+x,-y,3/4+z
x,1/2+y,1/2+z
1/4-x,3/4-y,1/2+z
x,3/4-y,3/4-z
1/4-x,1/2+y,3/4-z
-x,1/2-y,1/2-z
3/4+x,1/4+y,1/2-z
-x,1/4+y,1/4+z
3/4+x,1/2-y,1/4+z
1/2+x,y,1/2+z
3/4-x,1/4-y,1/2+z
1/2+x,1/4-y,3/4-z
3/4-x,y,3/4-z
1/2-x,-y,1/2-z
1/4+x,3/4+y,1/2-z
1/2-x,3/4+y,1/4+z
1/4+x,-y,1/4+z
1/2+x,1/2+y,z
3/4-x,3/4-y,z
1/2+x,3/4-y,1/4-z
3/4-x,1/2+y,1/4-z
1/2-x,1/2-y,-z
1/4+x,1/4+y,-z
1/2-x,1/4+y,3/4+z
1/4+x,1/2-y,3/4+z
loop_
_atom_site_type_symbol
_atom_site_label
_atom_site_fract_x
_atom_site_fract_y
_atom_site_fract_z
Si Si1 0.984003 0.180804 0.316596
Si Si2 0.345160 0.722097 0.064272
Si Si3 0.509104 0.578814 0.675787
Si Si4 0.339886 0.266124 0.983876
Si Si5 0.375000 0.467759 0.375000
Si Si6 0.351537 0.111940 0.003818
O O1 0.979092 0.167217 0.449491
O O2 0.945524 0.223579 0.301709
O O3 0.960017 0.139950 0.240243
O O4 0.050511 0.193542 0.277314
O O5 0.283434 0.697687 0.089191
O O6 0.363491 0.751356 0.170710
O O7 0.334136 0.754282 0.960163
O O8 0.399275 0.689785 0.019789
O O9 0.520766 0.625000 0.625000
O O10 0.575161 0.559058 0.693514
O O11 0.375000 0.284792 0.875000
O O12 0.375000 0.124472 0.875000
O O13 0.387844 0.125000 0.125000
#
# Coordination Sequence:
#
# PCOD8286664 Si02
#       6
#    32  32  32  32  16  32
#     4  11  23  40  69 104 137 184 230 299 354 410
#     4  12  23  43  73 103 134 184 238 292 346 424
#     4  12  26  45  72 102 143 191 233 294 363 425
#     4  11  22  42  71 101 142 180 234 292 358 420
#     4  12  27  48  64 104 144 186 236 290 358 435
#     4  12  23  40  69 106 142 175 239 302 346 419
#
# _framework density 21.872316999999999
#
# number of rings (size 3 to 8) (size 9 to 14) (size 15 to 20)
#    0.000    0.364    6.364    4.091    0.000    0.000 
#    0.000    0.000    0.000    0.000    0.000    0.000 
#    0.000    0.000    0.000    0.000    0.000    0.000 
#
# Total GULP energy -545100.810863 kJ/mol
# GULP energy per Si atom -12388.654792 kJ/mol
# Density = 2.182253 g / cm^3
# Si number density = 21.872317 Si / 1000 Ang^3
#
#
#
# Elastic Constant Matrix: (Units=GPa)
#
#
# Indices 1 2 3 4 5 6 
#
# 1 74.7117 33.9199 17.3906 0.0000 0.0000 0.0000
# 2 33.9199 77.5909 29.3446 0.0000 0.0000 0.0000
# 3 17.3906 29.3446 149.5405 0.0000 0.0000 0.0001
# 4 0.0000 0.0000 0.0000 23.5184 0.0000 0.0000
# 5 0.0000 0.0000 0.0000 0.0000 31.5902 0.0000
# 6 0.0000 0.0000 0.0001 0.0000 0.0000 -6.0950
#
#
#
# Elastic Compliance Matrix: (Units=1/GPa)
#
#
# Indices 1 2 3 4 5 6 
#
# 1 0.016741 -0.007110 -0.000552 0.000000 0.000000 0.000000
# 2 -0.007110 0.016941 -0.002497 0.000000 0.000000 0.000000
# 3 -0.000552 -0.002497 0.007241 0.000000 0.000000 0.000000
# 4 0.000000 0.000000 0.000000 0.042520 0.000000 0.000000
# 5 0.000000 0.000000 0.000000 0.000000 0.031655 0.000000
# 6 0.000000 0.000000 0.000000 0.000000 0.000000 -0.164069
#
#
# Mechanical properties :
#
#
# Convention : Reuss Voigt Hill
#
# Bulk Modulus (GPa) = 48.53157 51.46145 49.99651
# Shear Modulus (GPa) = -229.52904 24.54858 -102.49023
#
# Velocity S-wave (km/s) = -10.25516 3.35380 -6.85275
# Velocity P-wave (km/s) = 10.86221 6.21100 6.30123
#
# Compressibility (1/GPa) = 0.02060515
#
# Stress axis : x y z
#
# Youngs Moduli (GPa) = 59.73288 59.02883 138.09489
#
# Poissons Ratio (x) = 0.41969 0.07618
# Poissons Ratio (y) = 0.42470 0.34489
# Poissons Ratio (z) = 0.03295 0.14742
#
# Static dielectric constant tensor:
#      x y z
#    x 3.783080 0.000000 0.000000 
#    y 0.000000 3.976830 0.000000 
#    z 0.000000 0.000000 -1.615460 
# 
# 
# High freq. dielectric constant tensor:
#      x y z
#    x 1.835420 0.000000 0.000000 
#    y 0.000000 1.854260 0.000000 
#    z 0.000000 0.000000 1.883130 
# 
# From -- ./inp_files/19633.got.cif
#   From: 2010.03.12/outbox.cif.g09.slc.cpg/sg70_10_cif.got.tgz:19633.got - 2010.04.16 13:46:32.
