data_PCOD8286566
_publ_section_title
;
Structure prediction by ZEFSAII (Michael W. Deem and Ramdas Pophale) SiO2 
 PCOD8286566
Probable space group: F D D D
;
_chemical_formula_sum "Si O2"
_cell_formula_units_Z 88
_cell_length_a 12.597212
_cell_length_b 18.146847
_cell_length_c 14.635339
_cell_angle_alpha 90.000000
_cell_angle_beta 90.000000
_cell_angle_gamma 90.000000
_cell_volume 3345.633794
_symmetry_space_group_name_H-M "F D D D"
_symmetry_group_IT_number 70
_space_group.IT_coordinate_system_code '2'
_symmetry_cell_setting 'orthorhombic'
loop_
_space_group_symop_operation_xyz
x,y,z
1/4-x,1/4-y,z
x,1/4-y,1/4-z
1/4-x,y,1/4-z
-x,-y,-z
3/4+x,3/4+y,-z
-x,3/4+y,3/4+z
3/4+x,-y,3/4+z
x,1/2+y,1/2+z
1/4-x,3/4-y,1/2+z
x,3/4-y,3/4-z
1/4-x,1/2+y,3/4-z
-x,1/2-y,1/2-z
3/4+x,1/4+y,1/2-z
-x,1/4+y,1/4+z
3/4+x,1/2-y,1/4+z
1/2+x,y,1/2+z
3/4-x,1/4-y,1/2+z
1/2+x,1/4-y,3/4-z
3/4-x,y,3/4-z
1/2-x,-y,1/2-z
1/4+x,3/4+y,1/2-z
1/2-x,3/4+y,1/4+z
1/4+x,-y,1/4+z
1/2+x,1/2+y,z
3/4-x,3/4-y,z
1/2+x,3/4-y,1/4-z
3/4-x,1/2+y,1/4-z
1/2-x,1/2-y,-z
1/4+x,1/4+y,-z
1/2-x,1/4+y,3/4+z
1/4+x,1/2-y,3/4+z
loop_
_atom_site_type_symbol
_atom_site_label
_atom_site_fract_x
_atom_site_fract_y
_atom_site_fract_z
Si Si1 0.438572 0.307269 0.685569
Si Si2 0.125000 0.625000 0.125000
Si Si3 0.375000 0.604118 0.375000
Si Si4 0.669223 0.941449 0.318472
O O1 0.500000 0.250000 0.750000
O O2 0.375000 0.375000 0.736461
O O3 0.524023 0.342257 0.617370
O O4 0.352078 0.266712 0.622197
O O5 0.202768 0.677518 0.063993
O O6 0.378788 0.554942 0.283242
O O7 0.612913 0.875000 0.375000
#
# Coordination Sequence:
#
# PCOD8286566 Si02
#       4
#    32   8  16  32
#     4  12  29  53  87 123 168 232 289 366 447 537
#     4   8  20  50  88 110 168 212 282 352 418 518
#     4  12  28  49  82 124 171 224 288 362 447 522
#     4  10  24  51  83 122 167 222 282 363 431 533
#
# _framework density 26.302937
#
# number of rings (size 3 to 8) (size 9 to 14) (size 15 to 20)
#    1.091    0.000    3.636    0.000    7.636    2.909 
#    0.000    0.909    8.000    0.000    0.000    0.000 
#    0.000    0.000    0.000    0.000    0.000    0.000 
#
# Total GULP energy -272602.760960 kJ/mol
# GULP energy per Si atom -12391.034589 kJ/mol
# Density = 2.624307 g / cm^3
# Si number density = 26.302937 Si / 1000 Ang^3
#
#
#
# Elastic Constant Matrix: (Units=GPa)
#
#
# Indices 1 2 3 4 5 6 
#
# 1 152.1449 70.4823 42.1080 0.0000 0.0000 0.0000
# 2 70.4823 183.5776 71.7917 0.0000 0.0000 0.0000
# 3 42.1080 71.7917 172.1192 0.0000 0.0000 0.0000
# 4 0.0000 0.0000 0.0000 32.2112 0.0000 0.0000
# 5 0.0000 0.0000 0.0000 0.0000 42.6765 0.0000
# 6 0.0000 0.0000 0.0000 0.0000 0.0000 -36.4097
#
#
#
# Elastic Compliance Matrix: (Units=1/GPa)
#
#
# Indices 1 2 3 4 5 6 
#
# 1 0.008090 -0.002786 -0.000817 0.000000 0.000000 0.000000
# 2 -0.002786 0.007469 -0.002434 0.000000 0.000000 0.000000
# 3 -0.000817 -0.002434 0.007025 0.000000 0.000000 0.000000
# 4 0.000000 0.000000 0.000000 0.031045 0.000000 0.000000
# 5 0.000000 0.000000 0.000000 0.000000 0.023432 0.000000
# 6 0.000000 0.000000 0.000000 0.000000 0.000000 -0.027465
#
#
# Mechanical properties :
#
#
# Convention : Reuss Voigt Hill
#
# Bulk Modulus (GPa) = 95.15218 97.40064 96.27641
# Shear Modulus (GPa) = 76.71997 29.25959 52.98978
#
# Velocity S-wave (km/s) = 5.40658 3.33890 4.49329
# Velocity P-wave (km/s) = 8.67346 7.20937 7.97508
#
# Compressibility (1/GPa) = 0.01050948
#
# Stress axis : x y z
#
# Youngs Moduli (GPa) = 123.61554 133.89002 142.35246
#
# Poissons Ratio (x) = 0.37308 0.11628
# Poissons Ratio (y) = 0.34445 0.34643
# Poissons Ratio (z) = 0.10097 0.32583
#
# Static dielectric constant tensor:
#      x y z
#    x 4.940930 0.000000 0.000000 
#    y 0.000000 5.111570 0.000000 
#    z 0.000000 0.000000 4.212620 
# 
# 
# High freq. dielectric constant tensor:
#      x y z
#    x 2.063400 0.000000 0.000000 
#    y 0.000000 2.080720 0.000000 
#    z 0.000000 0.000000 2.025150 
# 
# From -- ./inp_files/24920.got.cif
#   From: 2010.03.12/outbox.cif.g09.slc.cpg/sg70_13_cif.got.tgz:24920.got - 2010.04.16 13:46:32.
