data_PCOD8286854
_publ_section_title
;
Structure prediction by ZEFSAII (Michael W. Deem and Ramdas Pophale) SiO2 
 PCOD8286854
Probable space group: F D D D
;
_chemical_formula_sum "Si O2"
_cell_formula_units_Z 80
_cell_length_a 18.631713
_cell_length_b 14.143253
_cell_length_c 10.934447
_cell_angle_alpha 90.000000
_cell_angle_beta 90.000000
_cell_angle_gamma 90.000000
_cell_volume 2881.369269
_symmetry_space_group_name_H-M "F D D D"
_symmetry_group_IT_number 70
_space_group.IT_coordinate_system_code '2'
_symmetry_cell_setting 'orthorhombic'
loop_
_space_group_symop_operation_xyz
x,y,z
1/4-x,1/4-y,z
x,1/4-y,1/4-z
1/4-x,y,1/4-z
-x,-y,-z
3/4+x,3/4+y,-z
-x,3/4+y,3/4+z
3/4+x,-y,3/4+z
x,1/2+y,1/2+z
1/4-x,3/4-y,1/2+z
x,3/4-y,3/4-z
1/4-x,1/2+y,3/4-z
-x,1/2-y,1/2-z
3/4+x,1/4+y,1/2-z
-x,1/4+y,1/4+z
3/4+x,1/2-y,1/4+z
1/2+x,y,1/2+z
3/4-x,1/4-y,1/2+z
1/2+x,1/4-y,3/4-z
3/4-x,y,3/4-z
1/2-x,-y,1/2-z
1/4+x,3/4+y,1/2-z
1/2-x,3/4+y,1/4+z
1/4+x,-y,1/4+z
1/2+x,1/2+y,z
3/4-x,3/4-y,z
1/2+x,3/4-y,1/4-z
3/4-x,1/2+y,1/4-z
1/2-x,1/2-y,-z
1/4+x,1/4+y,-z
1/2-x,1/4+y,3/4+z
1/4+x,1/2-y,3/4+z
loop_
_atom_site_type_symbol
_atom_site_label
_atom_site_fract_x
_atom_site_fract_y
_atom_site_fract_z
Si Si1 0.218844 0.225781 0.668165
Si Si2 0.125000 0.365998 0.125000
Si Si3 0.366999 0.267344 0.082537
O O1 0.187853 0.125000 0.625000
O O2 0.188484 0.310961 0.580558
O O3 0.303285 0.225754 0.655848
O O4 0.185590 0.246207 0.802680
O O5 0.086260 0.299721 0.225531
O O6 0.375000 0.375000 0.040208
#
# Coordination Sequence:
#
# PCOD8286854 Si02
#       3
#    32  16  32
#     4  12  27  50  78 111 155 212 266 318 392 486
#     4  12  26  44  76 116 156 202 266 334 392 456
#     4  12  28  49  77 115 160 208 263 326 398 472
#
# _framework density 27.764576000000002
#
# number of rings (size 3 to 8) (size 9 to 14) (size 15 to 20)
#    0.000    0.000    0.000    9.600    0.000   14.400 
#    0.000    0.000    0.000    0.000    0.000    0.000 
#    0.000    0.000    0.000    0.000    0.000    0.000 
#
# Total GULP energy -247806.545621 kJ/mol
# GULP energy per Si atom -12390.327281 kJ/mol
# Density = 2.770138 g / cm^3
# Si number density = 27.764576 Si / 1000 Ang^3
#
#
#
# Elastic Constant Matrix: (Units=GPa)
#
#
# Indices 1 2 3 4 5 6 
#
# 1 97.3843 6.5934 30.4623 0.0000 0.0000 0.0000
# 2 6.5934 251.4930 75.1998 0.0000 0.0000 0.0000
# 3 30.4623 75.1998 157.0424 0.0000 0.0000 0.0000
# 4 0.0000 0.0000 0.0000 53.5559 0.0000 0.0000
# 5 0.0000 0.0000 0.0000 0.0000 26.8145 0.0000
# 6 0.0000 0.0000 0.0000 0.0000 0.0000 42.6512
#
#
#
# Elastic Compliance Matrix: (Units=1/GPa)
#
#
# Indices 1 2 3 4 5 6 
#
# 1 0.010967 0.000407 -0.002322 0.000000 0.000000 0.000000
# 2 0.000407 0.004656 -0.002308 0.000000 0.000000 0.000000
# 3 -0.002322 -0.002308 0.007924 0.000000 0.000000 0.000000
# 4 0.000000 0.000000 0.000000 0.018672 0.000000 0.000000
# 5 0.000000 0.000000 0.000000 0.000000 0.037293 0.000000
# 6 0.000000 0.000000 0.000000 0.000000 0.000000 0.023446
#
#
# Mechanical properties :
#
#
# Convention : Reuss Voigt Hill
#
# Bulk Modulus (GPa) = 66.22818 81.15895 73.69356
# Shear Modulus (GPa) = 42.94104 50.84860 46.89482
#
# Velocity S-wave (km/s) = 3.93697 4.28415 4.11422
# Velocity P-wave (km/s) = 6.67619 7.33257 7.01206
#
# Compressibility (1/GPa) = 0.01509931
#
# Stress axis : x y z
#
# Youngs Moduli (GPa) = 91.17884 214.78500 126.20658
#
# Poissons Ratio (x) = -0.08738 0.29308
# Poissons Ratio (y) = -0.03710 0.29133
# Poissons Ratio (z) = 0.21174 0.49580
#
# Static dielectric constant tensor:
#      x y z
#    x 5.060590 0.000000 0.000000 
#    y 0.000000 5.800970 0.000000 
#    z 0.000000 0.000000 5.666640 
# 
# 
# High freq. dielectric constant tensor:
#      x y z
#    x 2.123350 0.000000 0.000000 
#    y 0.000000 2.161340 0.000000 
#    z 0.000000 0.000000 2.112110 
# 
# From -- ./inp_files/18227.got.cif
#   From: 2010.03.12/outbox.cif.g09.slc.cpg/sg70_10_cif.got.tgz:18227.got - 2010.04.16 13:46:32.
