data_PCOD8286571
_publ_section_title
;
Structure prediction by ZEFSAII (Michael W. Deem and Ramdas Pophale) SiO2 
 PCOD8286571
Probable space group: F D D D
;
_chemical_formula_sum "Si O2"
_cell_formula_units_Z 104
_cell_length_a 16.357826
_cell_length_b 30.777429
_cell_length_c 8.913187
_cell_angle_alpha 90.000000
_cell_angle_beta 90.000000
_cell_angle_gamma 90.000000
_cell_volume 4487.360291
_symmetry_space_group_name_H-M "F D D D"
_symmetry_group_IT_number 70
_space_group.IT_coordinate_system_code '2'
_symmetry_cell_setting 'orthorhombic'
loop_
_space_group_symop_operation_xyz
x,y,z
1/4-x,1/4-y,z
x,1/4-y,1/4-z
1/4-x,y,1/4-z
-x,-y,-z
3/4+x,3/4+y,-z
-x,3/4+y,3/4+z
3/4+x,-y,3/4+z
x,1/2+y,1/2+z
1/4-x,3/4-y,1/2+z
x,3/4-y,3/4-z
1/4-x,1/2+y,3/4-z
-x,1/2-y,1/2-z
3/4+x,1/4+y,1/2-z
-x,1/4+y,1/4+z
3/4+x,1/2-y,1/4+z
1/2+x,y,1/2+z
3/4-x,1/4-y,1/2+z
1/2+x,1/4-y,3/4-z
3/4-x,y,3/4-z
1/2-x,-y,1/2-z
1/4+x,3/4+y,1/2-z
1/2-x,3/4+y,1/4+z
1/4+x,-y,1/4+z
1/2+x,1/2+y,z
3/4-x,3/4-y,z
1/2+x,3/4-y,1/4-z
3/4-x,1/2+y,1/4-z
1/2-x,1/2-y,-z
1/4+x,1/4+y,-z
1/2-x,1/4+y,3/4+z
1/4+x,1/2-y,3/4+z
loop_
_atom_site_type_symbol
_atom_site_label
_atom_site_fract_x
_atom_site_fract_y
_atom_site_fract_z
Si Si1 0.304151 0.006495 0.105596
Si Si2 0.940921 0.306432 0.605946
Si Si3 0.875000 0.375000 0.375000
Si Si4 0.166278 0.418170 0.284674
O O1 0.371978 0.043967 0.128614
O O2 0.250000 0.000000 0.250000
O O3 0.353911 0.961398 0.085634
O O4 0.245583 0.017353 0.965607
O O5 0.931003 0.344443 0.480987
O O6 0.987700 0.323014 0.754171
O O7 0.154790 0.375000 0.375000
O O8 0.125000 0.412478 0.125000
#
# Coordination Sequence:
#
# PCOD8286571 Si02
#       4
#    32  32   8  32
#     4  11  22  43  69 100 136 186 228 290 351 429
#     4  11  25  44  71 101 144 180 248 288 360 429
#     4  12  24  44  70 108 140 192 232 300 368 432
#     4  10  25  44  71 107 143 185 238 298 354 429
#
# _framework density 23.176207999999999
#
# number of rings (size 3 to 8) (size 9 to 14) (size 15 to 20)
#    0.000    1.231    3.077    0.923    8.615    4.923 
#    0.000    3.846    0.000    0.000    0.000    0.000 
#    0.000    0.000    0.000    0.000    0.000    0.000 
#
# Total GULP energy -322345.022336 kJ/mol
# GULP energy per Si atom -12397.885474 kJ/mol
# Density = 2.312346 g / cm^3
# Si number density = 23.176208 Si / 1000 Ang^3
#
#
#
# Elastic Constant Matrix: (Units=GPa)
#
#
# Indices 1 2 3 4 5 6 
#
# 1 120.6272 50.7634 28.7548 0.0000 0.0000 0.0000
# 2 50.7634 119.9971 50.7649 0.0000 0.0000 0.0000
# 3 28.7548 50.7649 52.9440 0.0000 -0.0001 0.0000
# 4 0.0000 0.0000 0.0000 34.6294 0.0000 0.0000
# 5 0.0000 0.0000 -0.0001 0.0000 38.1923 0.0000
# 6 0.0000 0.0000 0.0000 0.0000 0.0000 38.7521
#
#
#
# Elastic Compliance Matrix: (Units=1/GPa)
#
#
# Indices 1 2 3 4 5 6 
#
# 1 0.010260 -0.003336 -0.002373 0.000000 0.000000 0.000000
# 2 -0.003336 0.015106 -0.012672 0.000000 0.000000 0.000000
# 3 -0.002373 -0.012672 0.032327 0.000000 0.000000 0.000000
# 4 0.000000 0.000000 0.000000 0.028877 0.000000 0.000000
# 5 0.000000 0.000000 0.000000 0.000000 0.026183 0.000000
# 6 0.000000 0.000000 0.000000 0.000000 0.000000 0.025805
#
#
# Mechanical properties :
#
#
# Convention : Reuss Voigt Hill
#
# Bulk Modulus (GPa) = 47.77917 61.57051 54.67484
# Shear Modulus (GPa) = 27.42754 33.20044 30.31399
#
# Velocity S-wave (km/s) = 3.44384 3.78897 3.62052
# Velocity P-wave (km/s) = 6.03935 6.76503 6.41247
#
# Compressibility (1/GPa) = 0.02092962
#
# Stress axis : x y z
#
# Youngs Moduli (GPa) = 97.46840 66.19952 30.93348
#
# Poissons Ratio (x) = 0.22086 0.07342
# Poissons Ratio (y) = 0.32518 0.39199
# Poissons Ratio (z) = 0.23132 0.83889
#
# Static dielectric constant tensor:
#      x y z
#    x 4.691810 0.000000 0.000000 
#    y 0.000000 2.921780 0.000000 
#    z 0.000000 0.000000 4.228380 
# 
# 
# High freq. dielectric constant tensor:
#      x y z
#    x 1.935980 0.000000 0.000000 
#    y 0.000000 1.915380 0.000000 
#    z 0.000000 0.000000 1.902280 
# 
# From -- ./inp_files/8183.got.cif
#   From: 2010.03.12/outbox.cif.g09.slc.cpg/sg70_5_cif.got.tgz:8183.got - 2010.04.16 13:46:32.
