data_PCOD8286051
_publ_section_title
;
Structure prediction by ZEFSAII (Michael W. Deem and Ramdas Pophale) SiO2 
 PCOD8286051
Probable space group: F D D D
;
_chemical_formula_sum "Si O2"
_cell_formula_units_Z 144
_cell_length_a 7.857961
_cell_length_b 34.658557
_cell_length_c 27.134915
_cell_angle_alpha 90.000000
_cell_angle_beta 90.000000
_cell_angle_gamma 90.000000
_cell_volume 7390.074414
_symmetry_space_group_name_H-M "F D D D"
_symmetry_group_IT_number 70
_space_group.IT_coordinate_system_code '2'
_symmetry_cell_setting 'orthorhombic'
loop_
_space_group_symop_operation_xyz
x,y,z
1/4-x,1/4-y,z
x,1/4-y,1/4-z
1/4-x,y,1/4-z
-x,-y,-z
3/4+x,3/4+y,-z
-x,3/4+y,3/4+z
3/4+x,-y,3/4+z
x,1/2+y,1/2+z
1/4-x,3/4-y,1/2+z
x,3/4-y,3/4-z
1/4-x,1/2+y,3/4-z
-x,1/2-y,1/2-z
3/4+x,1/4+y,1/2-z
-x,1/4+y,1/4+z
3/4+x,1/2-y,1/4+z
1/2+x,y,1/2+z
3/4-x,1/4-y,1/2+z
1/2+x,1/4-y,3/4-z
3/4-x,y,3/4-z
1/2-x,-y,1/2-z
1/4+x,3/4+y,1/2-z
1/2-x,3/4+y,1/4+z
1/4+x,-y,1/4+z
1/2+x,1/2+y,z
3/4-x,3/4-y,z
1/2+x,3/4-y,1/4-z
3/4-x,1/2+y,1/4-z
1/2-x,1/2-y,-z
1/4+x,1/4+y,-z
1/2-x,1/4+y,3/4+z
1/4+x,1/2-y,3/4+z
loop_
_atom_site_type_symbol
_atom_site_label
_atom_site_fract_x
_atom_site_fract_y
_atom_site_fract_z
Si Si1 0.292145 0.603246 0.476347
Si Si2 0.627020 0.198555 0.850027
Si Si3 0.962824 0.071166 0.801348
Si Si4 0.125000 0.235548 0.625000
Si Si5 0.781455 0.291867 0.977450
O O1 0.246431 0.582408 0.425687
O O2 0.430146 0.634270 0.459787
O O3 0.376457 0.571906 0.512978
O O4 0.125000 0.625000 0.499716
O O5 0.455005 0.202738 0.817645
O O6 0.598509 0.182605 0.904880
O O7 0.721214 0.239382 0.852491
O O8 0.040618 0.054675 0.751257
O O9 0.198377 0.209019 0.581452
O O10 0.750000 0.250000 0.000000
#
# Coordination Sequence:
#
# PCOD8286051 Si02
#       5
#    32  32  32  16  32
#     4  10  22  40  63  94 126 164 208 260 320 378
#     4  10  20  37  63  97 128 154 206 270 326 376
#     4  10  22  37  63  95 127 162 208 260 323 380
#     4  12  24  40  61  94 128 170 210 258 324 386
#     4  12  23  41  64  90 129 165 208 260 320 388
#
# _framework density 19.485593999999999
#
# number of rings (size 3 to 8) (size 9 to 14) (size 15 to 20)
#    0.000    1.333    4.444    0.667    0.000   16.889 
#    0.000    2.222    0.000    4.000    0.000    0.000 
#    0.000    0.000    0.000    0.000    0.000    0.000 
#
# Total GULP energy -446353.096569 kJ/mol
# GULP energy per Si atom -12398.697127 kJ/mol
# Density = 1.944124 g / cm^3
# Si number density = 19.485594 Si / 1000 Ang^3
#
#
#
# Elastic Constant Matrix: (Units=GPa)
#
#
# Indices 1 2 3 4 5 6 
#
# 1 103.3289 63.1970 51.1653 0.0000 0.0000 0.0000
# 2 63.1970 99.5156 55.2130 0.0000 0.0000 0.0000
# 3 51.1653 55.2130 112.5537 0.0000 0.0000 0.0000
# 4 0.0000 0.0000 0.0000 33.8110 0.0000 0.0000
# 5 0.0000 0.0000 0.0000 0.0000 32.3806 0.0000
# 6 0.0000 0.0000 0.0000 0.0000 0.0000 44.2157
#
#
#
# Elastic Compliance Matrix: (Units=1/GPa)
#
#
# Indices 1 2 3 4 5 6 
#
# 1 0.016658 -0.008762 -0.003274 0.000000 0.000000 0.000000
# 2 -0.008762 0.018415 -0.005050 0.000000 0.000000 0.000000
# 3 -0.003274 -0.005050 0.012851 0.000000 0.000000 0.000000
# 4 0.000000 0.000000 0.000000 0.029576 0.000000 0.000000
# 5 0.000000 0.000000 0.000000 0.000000 0.030883 0.000000
# 6 0.000000 0.000000 0.000000 0.000000 0.000000 0.022616
#
#
# Mechanical properties :
#
#
# Convention : Reuss Voigt Hill
#
# Bulk Modulus (GPa) = 72.72602 72.72764 72.72683
# Shear Modulus (GPa) = 29.45407 31.80299 30.62853
#
# Velocity S-wave (km/s) = 3.89212 4.04434 3.96896
# Velocity P-wave (km/s) = 7.58961 7.69505 7.64251
#
# Compressibility (1/GPa) = 0.01375024
#
# Stress axis : x y z
#
# Youngs Moduli (GPa) = 60.03073 54.30357 77.81765
#
# Poissons Ratio (x) = 0.47581 0.25480
# Poissons Ratio (y) = 0.52599 0.39301
# Poissons Ratio (z) = 0.19656 0.27425
#
# Static dielectric constant tensor:
#      x y z
#    x 4.080660 0.000000 0.000000 
#    y 0.000000 3.561610 0.000000 
#    z 0.000000 0.000000 3.595710 
# 
# 
# High freq. dielectric constant tensor:
#      x y z
#    x 1.776380 0.000000 0.000000 
#    y 0.000000 1.751830 0.000000 
#    z 0.000000 0.000000 1.738070 
# 
# From -- ./inp_files/63825.got.cif
#   From: 2010.03.12/outbox.cif.g09.slc.cpg/sg70_32_cif.got.tgz:63825.got - 2010.04.16 13:46:32.
