data_PCOD8286856
_publ_section_title
;
Structure prediction by ZEFSAII (Michael W. Deem and Ramdas Pophale) SiO2 
 PCOD8286856
Probable space group: F D D D
;
_chemical_formula_sum "Si O2"
_cell_formula_units_Z 176
_cell_length_a 12.889890
_cell_length_b 25.236575
_cell_length_c 24.160542
_cell_angle_alpha 90.000000
_cell_angle_beta 90.000000
_cell_angle_gamma 90.000000
_cell_volume 7859.343996
_symmetry_space_group_name_H-M "F D D D"
_symmetry_group_IT_number 70
_space_group.IT_coordinate_system_code '2'
_symmetry_cell_setting 'orthorhombic'
loop_
_space_group_symop_operation_xyz
x,y,z
1/4-x,1/4-y,z
x,1/4-y,1/4-z
1/4-x,y,1/4-z
-x,-y,-z
3/4+x,3/4+y,-z
-x,3/4+y,3/4+z
3/4+x,-y,3/4+z
x,1/2+y,1/2+z
1/4-x,3/4-y,1/2+z
x,3/4-y,3/4-z
1/4-x,1/2+y,3/4-z
-x,1/2-y,1/2-z
3/4+x,1/4+y,1/2-z
-x,1/4+y,1/4+z
3/4+x,1/2-y,1/4+z
1/2+x,y,1/2+z
3/4-x,1/4-y,1/2+z
1/2+x,1/4-y,3/4-z
3/4-x,y,3/4-z
1/2-x,-y,1/2-z
1/4+x,3/4+y,1/2-z
1/2-x,3/4+y,1/4+z
1/4+x,-y,1/4+z
1/2+x,1/2+y,z
3/4-x,3/4-y,z
1/2+x,3/4-y,1/4-z
3/4-x,1/2+y,1/4-z
1/2-x,1/2-y,-z
1/4+x,1/4+y,-z
1/2-x,1/4+y,3/4+z
1/4+x,1/2-y,3/4+z
loop_
_atom_site_type_symbol
_atom_site_label
_atom_site_fract_x
_atom_site_fract_y
_atom_site_fract_z
Si Si1 0.078007 0.352889 0.436051
Si Si2 0.431055 0.771815 0.067972
Si Si3 0.875000 0.678504 0.875000
Si Si4 0.262381 0.387707 0.043995
Si Si5 0.259697 0.013264 0.894839
Si Si6 0.219366 0.160749 0.707912
O O1 0.056486 0.375000 0.375000
O O2 0.070094 0.290361 0.441615
O O3 0.186418 0.370194 0.463787
O O4 0.993381 0.377007 0.478798
O O5 0.532916 0.784272 0.103515
O O6 0.323445 0.784357 0.099844
O O7 0.434699 0.807639 0.012814
O O8 0.828400 0.642164 0.923133
O O9 0.375000 0.375000 0.068397
O O10 0.250222 0.451022 0.050429
O O11 0.375000 0.022105 0.875000
O O12 0.242980 0.951786 0.910387
O O13 0.125000 0.125000 0.686436
#
# Coordination Sequence:
#
# PCOD8286856 Si02
#       6
#    32  32  16  32  32  32
#     4  12  27  50  72 110 154 202 256 314 390 459
#     4  12  27  47  78 111 152 203 258 313 388 463
#     4  12  26  48  75 116 149 202 260 314 382 464
#     4  12  26  46  76 110 154 196 251 324 377 454
#     4  12  26  45  75 112 151 198 254 313 389 457
#     4  12  28  46  75 111 156 200 252 324 383 456
#
# _framework density 22.393726999999998
#
# number of rings (size 3 to 8) (size 9 to 14) (size 15 to 20)
#    0.000    0.000    8.182    1.091    5.091    3.273 
#    0.000    3.636    0.000    0.000    0.000    0.000 
#    0.000    0.000    0.000    0.000    0.000    0.000 
#
# Total GULP energy -545404.271026 kJ/mol
# GULP energy per Si atom -12395.551614 kJ/mol
# Density = 2.234276 g / cm^3
# Si number density = 22.393727 Si / 1000 Ang^3
#
#
#
# Elastic Constant Matrix: (Units=GPa)
#
#
# Indices 1 2 3 4 5 6 
#
# 1 140.6466 45.3885 39.2214 0.0000 0.0000 0.0000
# 2 45.3885 142.6438 42.9887 0.0000 0.0000 0.0000
# 3 39.2214 42.9887 132.6259 0.0000 0.0000 0.0000
# 4 0.0000 0.0000 0.0000 16.0247 0.0000 0.0000
# 5 0.0000 0.0000 0.0000 0.0000 20.4411 0.0000
# 6 0.0000 0.0000 0.0000 0.0000 0.0000 41.2735
#
#
#
# Elastic Compliance Matrix: (Units=1/GPa)
#
#
# Indices 1 2 3 4 5 6 
#
# 1 0.008281 -0.002102 -0.001768 0.000000 0.000000 0.000000
# 2 -0.002102 0.008303 -0.002070 0.000000 0.000000 0.000000
# 3 -0.001768 -0.002070 0.008734 0.000000 0.000000 0.000000
# 4 0.000000 0.000000 0.000000 0.062404 0.000000 0.000000
# 5 0.000000 0.000000 0.000000 0.000000 0.048921 0.000000
# 6 0.000000 0.000000 0.000000 0.000000 0.000000 0.024229
#
#
# Mechanical properties :
#
#
# Convention : Reuss Voigt Hill
#
# Bulk Modulus (GPa) = 74.41063 74.56816 74.48940
# Shear Modulus (GPa) = 28.21189 34.76903 31.49046
#
# Velocity S-wave (km/s) = 3.55323 3.94461 3.75403
# Velocity P-wave (km/s) = 7.08057 7.35646 7.21983
#
# Compressibility (1/GPa) = 0.01343894
#
# Stress axis : x y z
#
# Youngs Moduli (GPa) = 120.75235 120.43606 114.50075
#
# Poissons Ratio (x) = 0.25320 0.20239
# Poissons Ratio (y) = 0.25387 0.23697
# Poissons Ratio (z) = 0.21344 0.24926
#
# Static dielectric constant tensor:
#      x y z
#    x 4.142850 0.000000 0.000000 
#    y 0.000000 4.271960 0.000000 
#    z 0.000000 0.000000 4.113820 
# 
# 
# High freq. dielectric constant tensor:
#      x y z
#    x 1.891800 0.000000 0.000000 
#    y 0.000000 1.894550 0.000000 
#    z 0.000000 0.000000 1.888670 
# 
# From -- ./inp_files/57624.got.cif
#   From: 2010.03.12/outbox.cif.g09.slc.cpg/sg70_29_cif.got.tgz:57624.got - 2010.04.16 13:46:32.
