data_PCOD8286683
_publ_section_title
;
Structure prediction by ZEFSAII (Michael W. Deem and Ramdas Pophale) SiO2 
 PCOD8286683
Probable space group: F D D D
;
_chemical_formula_sum "Si O2"
_cell_formula_units_Z 168
_cell_length_a 21.124121
_cell_length_b 14.396387
_cell_length_c 26.303764
_cell_angle_alpha 90.000000
_cell_angle_beta 90.000000
_cell_angle_gamma 90.000000
_cell_volume 7999.264525
_symmetry_space_group_name_H-M "F D D D"
_symmetry_group_IT_number 70
_space_group.IT_coordinate_system_code '2'
_symmetry_cell_setting 'orthorhombic'
loop_
_space_group_symop_operation_xyz
x,y,z
1/4-x,1/4-y,z
x,1/4-y,1/4-z
1/4-x,y,1/4-z
-x,-y,-z
3/4+x,3/4+y,-z
-x,3/4+y,3/4+z
3/4+x,-y,3/4+z
x,1/2+y,1/2+z
1/4-x,3/4-y,1/2+z
x,3/4-y,3/4-z
1/4-x,1/2+y,3/4-z
-x,1/2-y,1/2-z
3/4+x,1/4+y,1/2-z
-x,1/4+y,1/4+z
3/4+x,1/2-y,1/4+z
1/2+x,y,1/2+z
3/4-x,1/4-y,1/2+z
1/2+x,1/4-y,3/4-z
3/4-x,y,3/4-z
1/2-x,-y,1/2-z
1/4+x,3/4+y,1/2-z
1/2-x,3/4+y,1/4+z
1/4+x,-y,1/4+z
1/2+x,1/2+y,z
3/4-x,3/4-y,z
1/2+x,3/4-y,1/4-z
3/4-x,1/2+y,1/4-z
1/2-x,1/2-y,-z
1/4+x,1/4+y,-z
1/2-x,1/4+y,3/4+z
1/4+x,1/2-y,3/4+z
loop_
_atom_site_type_symbol
_atom_site_label
_atom_site_fract_x
_atom_site_fract_y
_atom_site_fract_z
Si Si1 0.198775 0.632612 0.882422
Si Si2 0.452070 0.065794 0.175531
Si Si3 0.074103 0.384940 0.482893
Si Si4 0.625000 0.625000 0.125000
Si Si5 0.690306 0.166962 0.256504
Si Si6 0.719441 0.997063 0.679487
O O1 0.125000 0.625000 0.871725
O O2 0.221318 0.715081 0.845584
O O3 0.210403 0.642481 0.943163
O O4 0.237047 0.542161 0.865519
O O5 0.446706 0.125000 0.125000
O O6 0.386236 0.072852 0.205943
O O7 0.507202 0.098434 0.213536
O O8 0.070681 0.273934 0.477200
O O9 0.069035 0.414939 0.541674
O O10 0.011828 0.433213 0.461667
O O11 0.664769 0.560563 0.160396
O O12 0.625000 0.125000 0.234667
#
# Coordination Sequence:
#
# PCOD8286683 Si02
#       6
#    32  32  32   8  32  32
#     4  11  22  45  74 102 139 185 238 288 358 425
#     4  12  26  45  71 102 137 190 239 295 360 422
#     4  11  25  44  71 101 138 183 235 295 352 429
#     4  12  28  40  68 112 142 184 214 300 368 428
#     4  11  26  46  69 102 139 187 240 293 350 431
#     4  11  25  43  70 107 142 180 230 293 361 424
#
# _framework density 21.001930000000002
#
# number of rings (size 3 to 8) (size 9 to 14) (size 15 to 20)
#    0.000    0.762    3.810    3.429    6.667    3.429 
#    0.000    0.000    0.000    0.000    0.000    0.000 
#    0.000    0.000    0.000    0.000    0.000    0.000 
#
# Total GULP energy -520590.612116 kJ/mol
# GULP energy per Si atom -12395.014574 kJ/mol
# Density = 2.095413 g / cm^3
# Si number density = 21.001930 Si / 1000 Ang^3
#
#
#
# Elastic Constant Matrix: (Units=GPa)
#
#
# Indices 1 2 3 4 5 6 
#
# 1 136.4462 49.6750 78.6254 0.0000 0.0000 0.0000
# 2 49.6750 68.4285 19.8021 0.0000 0.0000 0.0000
# 3 78.6254 19.8021 120.1422 0.0000 0.0000 0.0000
# 4 0.0000 0.0000 0.0000 33.4367 0.0000 0.0000
# 5 0.0000 0.0000 0.0000 0.0000 33.7752 0.0000
# 6 0.0000 0.0000 0.0000 0.0000 0.0000 35.4742
#
#
#
# Elastic Compliance Matrix: (Units=1/GPa)
#
#
# Indices 1 2 3 4 5 6 
#
# 1 0.015551 -0.008762 -0.008733 0.000000 0.000000 0.000000
# 2 -0.008762 0.020283 0.002391 0.000000 0.000000 0.000000
# 3 -0.008733 0.002391 0.013645 0.000000 0.000000 0.000000
# 4 0.000000 0.000000 0.000000 0.029907 0.000000 0.000000
# 5 0.000000 0.000000 0.000000 0.000000 0.029608 0.000000
# 6 0.000000 0.000000 0.000000 0.000000 0.000000 0.028189
#
#
# Mechanical properties :
#
#
# Convention : Reuss Voigt Hill
#
# Bulk Modulus (GPa) = 51.89294 69.02465 60.45879
# Shear Modulus (GPa) = 28.76644 32.33152 30.54898
#
# Velocity S-wave (km/s) = 3.70497 3.92784 3.81803
# Velocity P-wave (km/s) = 6.56237 7.31490 6.94883
#
# Compressibility (1/GPa) = 0.01927045
#
# Stress axis : x y z
#
# Youngs Moduli (GPa) = 64.30411 49.30356 73.28926
#
# Poissons Ratio (x) = 0.43200 0.64004
# Poissons Ratio (y) = 0.56343 -0.17524
# Poissons Ratio (z) = 0.56157 -0.11789
#
# Static dielectric constant tensor:
#      x y z
#    x 3.797340 0.000000 0.000000 
#    y 0.000000 4.118550 0.000000 
#    z 0.000000 0.000000 4.029090 
# 
# 
# High freq. dielectric constant tensor:
#      x y z
#    x 1.828420 0.000000 0.000000 
#    y 0.000000 1.830160 0.000000 
#    z 0.000000 0.000000 1.833080 
# 
# From -- ./inp_files/29846.got.cif
#   From: 2010.03.12/outbox.cif.g09.slc.cpg/sg70_15_cif.got.tgz:29846.got - 2010.04.16 13:46:32.
