data_PCOD8286972
_publ_section_title
;
Structure prediction by ZEFSAII (Michael W. Deem and Ramdas Pophale) SiO2 
 PCOD8286972
Probable space group: I M M M
;
_chemical_formula_sum "Si O2"
_cell_formula_units_Z 128
_cell_length_a 24.350735
_cell_length_b 27.240104
_cell_length_c 13.000960
_cell_angle_alpha 90.000000
_cell_angle_beta 90.000000
_cell_angle_gamma 90.000000
_cell_volume 8623.751984
_symmetry_space_group_name_H-M "I M M M"
_symmetry_group_IT_number 71
_symmetry_cell_setting 'orthorhombic'
loop_
_space_group_symop_operation_xyz
x,y,z
-x,-y,z
x,-y,-z
-x,y,-z
-x,-y,-z
x,y,-z
-x,y,z
x,-y,z
1/2+x,1/2+y,1/2+z
1/2-x,1/2-y,1/2+z
1/2+x,1/2-y,1/2-z
1/2-x,1/2+y,1/2-z
1/2-x,1/2-y,1/2-z
1/2+x,1/2+y,1/2-z
1/2-x,1/2+y,1/2+z
1/2+x,1/2-y,1/2+z
loop_
_atom_site_type_symbol
_atom_site_label
_atom_site_fract_x
_atom_site_fract_y
_atom_site_fract_z
Si Si1 0.641928 0.248667 0.881992
Si Si2 0.816979 0.947957 0.878595
Si Si3 0.730241 0.303267 0.775837
Si Si4 0.852984 0.846287 0.879138
Si Si5 0.937928 0.673968 0.881479
Si Si6 0.338639 0.849870 0.238950
Si Si7 0.807796 0.555730 0.620770
Si Si8 0.438241 0.722461 0.289141
O O1 0.687297 0.292562 0.868757
O O2 0.660113 0.194664 0.843021
O O3 0.588007 0.264427 0.820051
O O4 0.625784 0.244262 0.000000
O O5 0.855723 0.903357 0.843794
O O6 0.754832 0.938742 0.842269
O O7 0.838746 0.000000 0.832526
O O8 0.815769 0.952014 0.000000
O O9 0.750000 0.250000 0.750000
O O10 0.699113 0.321824 0.674550
O O11 0.781419 0.339737 0.802821
O O12 0.909915 0.823204 0.844643
O O13 0.843213 0.840564 0.000000
O O14 0.891404 0.647841 0.813321
O O15 0.933109 0.732257 0.867368
O O16 0.000000 0.657006 0.849248
O O17 0.926861 0.660903 0.000000
O O18 0.340805 0.902643 0.183116
O O19 0.814830 0.566195 0.500000
O O20 0.828639 0.500000 0.646099
O O21 0.500000 0.706746 0.267283
#
# Coordination Sequence:
#
# PCOD8286972 Si02
#       8
#    16  16  16  16  16  16  16  16
#     4   9  18  29  41  60  88 119 144 174 216 260
#     4   8  14  24  39  61  87 115 144 170 202 249
#     4   9  18  26  35  60  90 113 139 170 207 252
#     4  10  17  26  42  61  87 119 145 172 209 253
#     4   9  18  32  47  63  85 113 147 184 217 253
#     4  10  17  28  46  66  88 115 146 176 213 257
#     4   9  16  26  43  68  94 117 142 174 213 258
#     4   9  18  30  43  62  85 112 152 188 212 251
#
# _framework density 14.842727
#
# number of rings (size 3 to 8) (size 9 to 14) (size 15 to 20)
#    0.000    2.875    1.250    2.250    0.000    3.500 
#    0.000    0.000    0.000    2.250    0.000    3.500 
#    0.000    8.000    0.000    4.500    0.000    0.000 
#
# Total GULP energy -792866.364744 kJ/mol
# GULP energy per Si atom -12388.536949 kJ/mol
# Density = 1.480894 g / cm^3
# Si number density = 14.842727 Si / 1000 Ang^3
#
#
#
# Elastic Constant Matrix: (Units=GPa)
#
#
# Indices 1 2 3 4 5 6 
#
# 1 91.8941 48.3638 29.0908 0.0000 0.0000 0.0000
# 2 48.3638 108.9122 39.1069 0.0000 0.0000 0.0000
# 3 29.0908 39.1069 62.3968 0.0000 0.0000 0.0000
# 4 0.0000 0.0000 0.0000 18.8140 0.0000 0.0000
# 5 0.0000 0.0000 0.0000 0.0000 14.1845 0.0000
# 6 0.0000 0.0000 0.0000 0.0000 0.0000 -1.4392
#
#
#
# Elastic Compliance Matrix: (Units=1/GPa)
#
#
# Indices 1 2 3 4 5 6 
#
# 1 0.014798 -0.005283 -0.003588 0.000000 0.000000 0.000000
# 2 -0.005283 0.013734 -0.006145 0.000000 0.000000 0.000000
# 3 -0.003588 -0.006145 0.021551 0.000000 0.000000 0.000000
# 4 0.000000 0.000000 0.000000 0.053152 0.000000 0.000000
# 5 0.000000 0.000000 0.000000 0.000000 0.070500 0.000000
# 6 0.000000 0.000000 0.000000 0.000000 0.000000 -0.694826
#
#
# Mechanical properties :
#
#
# Convention : Reuss Voigt Hill
#
# Bulk Modulus (GPa) = 49.87253 55.14735 52.50994
# Shear Modulus (GPa) = -10.32258 16.08795 2.88269
#
# Velocity S-wave (km/s) = -2.64003 3.29583 1.39512
# Velocity P-wave (km/s) = 4.93767 7.19155 6.16843
#
# Compressibility (1/GPa) = 0.02005112
#
# Stress axis : x y z
#
# Youngs Moduli (GPa) = 67.57449 72.81160 46.40245
#
# Poissons Ratio (x) = 0.38466 0.16650
# Poissons Ratio (y) = 0.35700 0.28513
# Poissons Ratio (z) = 0.24248 0.44741
#
# Static dielectric constant tensor:
#      x y z
#    x 2.992020 0.000000 0.000000 
#    y 0.000000 3.044170 0.000000 
#    z 0.000000 0.000000 2.615010 
# 
# 
# High freq. dielectric constant tensor:
#      x y z
#    x 1.559830 0.000000 0.000000 
#    y 0.000000 1.559140 0.000000 
#    z 0.000000 0.000000 1.541570 
# 
# From -- ./inp_files/28017.got.cif
#   From: 2010.06.25/outbox.cif.g09.slc.cpg/sg71_15_cif.got.tgz:28017.got - 2010.06.28 04:59:45.
