data_PCOD8286104
_publ_section_title
;
Structure prediction by ZEFSAII (Michael W. Deem and Ramdas Pophale) SiO2 
 PCOD8286104
Probable space group: F D D D
;
_chemical_formula_sum "Si O2"
_cell_formula_units_Z 216
_cell_length_a 27.241622
_cell_length_b 10.849008
_cell_length_c 37.318193
_cell_angle_alpha 90.000000
_cell_angle_beta 90.000000
_cell_angle_gamma 90.000000
_cell_volume 11029.189490
_symmetry_space_group_name_H-M "F D D D"
_symmetry_group_IT_number 70
_space_group.IT_coordinate_system_code '2'
_symmetry_cell_setting 'orthorhombic'
loop_
_space_group_symop_operation_xyz
x,y,z
1/4-x,1/4-y,z
x,1/4-y,1/4-z
1/4-x,y,1/4-z
-x,-y,-z
3/4+x,3/4+y,-z
-x,3/4+y,3/4+z
3/4+x,-y,3/4+z
x,1/2+y,1/2+z
1/4-x,3/4-y,1/2+z
x,3/4-y,3/4-z
1/4-x,1/2+y,3/4-z
-x,1/2-y,1/2-z
3/4+x,1/4+y,1/2-z
-x,1/4+y,1/4+z
3/4+x,1/2-y,1/4+z
1/2+x,y,1/2+z
3/4-x,1/4-y,1/2+z
1/2+x,1/4-y,3/4-z
3/4-x,y,3/4-z
1/2-x,-y,1/2-z
1/4+x,3/4+y,1/2-z
1/2-x,3/4+y,1/4+z
1/4+x,-y,1/4+z
1/2+x,1/2+y,z
3/4-x,3/4-y,z
1/2+x,3/4-y,1/4-z
3/4-x,1/2+y,1/4-z
1/2-x,1/2-y,-z
1/4+x,1/4+y,-z
1/2-x,1/4+y,3/4+z
1/4+x,1/2-y,3/4+z
loop_
_atom_site_type_symbol
_atom_site_label
_atom_site_fract_x
_atom_site_fract_y
_atom_site_fract_z
Si Si1 0.625000 0.125000 0.210846
Si Si2 0.865004 0.248456 0.605217
Si Si3 0.192508 0.988724 0.955942
Si Si4 0.788525 0.508099 0.200568
Si Si5 0.935280 0.537151 0.428740
Si Si6 0.036165 0.682860 0.085546
Si Si7 0.625000 0.125000 0.625000
Si Si8 0.363905 0.628133 0.496784
O O1 0.578412 0.143482 0.184747
O O2 0.634051 0.235252 0.238054
O O3 0.875000 0.375000 0.628535
O O4 0.899471 0.265748 0.571430
O O5 0.809815 0.239879 0.590134
O O6 0.880534 0.125000 0.625000
O O7 0.236349 0.912366 0.937346
O O8 0.210288 0.122946 0.969193
O O9 0.167626 0.915903 0.988721
O O10 0.731342 0.539719 0.195056
O O11 0.818448 0.603290 0.225499
O O12 0.951445 0.671145 0.413112
O O13 0.910629 0.461309 0.397471
O O14 0.895511 0.548128 0.460271
O O15 0.029349 0.625000 0.125000
#
# Coordination Sequence:
#
# PCOD8286104 Si02
#       8
#    16  32  32  32  32  32   8  32
#     4  10  23  36  56  88 122 159 200 240 291 358
#     4   9  17  31  54  82 114 150 196 245 297 363
#     4   9  19  36  60  88 111 148 206 240 296 361
#     4   9  19  38  61  83 113 158 197 240 302 362
#     4  10  24  40  60  87 121 155 199 248 297 360
#     4  10  21  40  65  84 118 161 197 244 293 360
#     4  12  28  40  54  96 120 150 208 250 294 362
#     4  10  20  39  61  87 119 156 195 248 295 352
#
# _framework density 19.584395000000001
#
# number of rings (size 3 to 8) (size 9 to 14) (size 15 to 20)
#    0.000    2.370    0.000    2.444    7.259    0.593 
#    5.333    1.481    0.000    0.000    0.000    0.000 
#    0.000    0.000    0.000    0.000    0.000    0.000 
#
# Total GULP energy -669251.667586 kJ/mol
# GULP energy per Si atom -12393.549400 kJ/mol
# Density = 1.953982 g / cm^3
# Si number density = 19.584395 Si / 1000 Ang^3
#
#
#
# Elastic Constant Matrix: (Units=GPa)
#
#
# Indices 1 2 3 4 5 6 
#
# 1 138.1415 46.4906 67.1766 0.0000 0.0000 0.0001
# 2 46.4906 101.7923 62.2363 -0.0001 0.0000 -0.0001
# 3 67.1766 62.2363 107.5287 0.0000 0.0000 -0.0001
# 4 0.0000 -0.0001 0.0000 31.2569 0.0000 0.0000
# 5 0.0000 0.0000 0.0000 0.0000 15.8145 0.0000
# 6 0.0001 -0.0001 -0.0001 0.0000 0.0000 23.7394
#
#
#
# Elastic Compliance Matrix: (Units=1/GPa)
#
#
# Indices 1 2 3 4 5 6 
#
# 1 0.010494 -0.001214 -0.005853 0.000000 0.000000 0.000000
# 2 -0.001214 0.015345 -0.008123 0.000000 0.000000 0.000000
# 3 -0.005853 -0.008123 0.017658 0.000000 0.000000 0.000000
# 4 0.000000 0.000000 0.000000 0.031993 0.000000 0.000000
# 5 0.000000 0.000000 0.000000 0.000000 0.063233 0.000000
# 6 0.000000 0.000000 0.000000 0.000000 0.000000 0.042124
#
#
# Mechanical properties :
#
#
# Convention : Reuss Voigt Hill
#
# Bulk Modulus (GPa) = 76.24103 77.69662 76.96883
# Shear Modulus (GPa) = 23.19120 25.59944 24.39532
#
# Velocity S-wave (km/s) = 3.44491 3.61935 3.53321
# Velocity P-wave (km/s) = 7.40521 7.56473 7.48540
#
# Compressibility (1/GPa) = 0.01311630
#
# Stress axis : x y z
#
# Youngs Moduli (GPa) = 95.29375 65.16864 56.63189
#
# Poissons Ratio (x) = 0.07912 0.33147
# Poissons Ratio (y) = 0.11570 0.46001
# Poissons Ratio (z) = 0.55777 0.52936
#
# Static dielectric constant tensor:
#      x y z
#    x 3.866760 0.000000 0.000000 
#    y 0.000000 3.626780 0.000000 
#    z 0.000000 0.000000 3.455810 
# 
# 
# High freq. dielectric constant tensor:
#      x y z
#    x 1.775530 0.000000 0.000000 
#    y 0.000000 1.751060 0.000000 
#    z 0.000000 0.000000 1.749410 
# 
# From -- ./inp_files/69039.got.cif
#   From: 2010.03.12/outbox.cif.g09.slc.cpg/sg70_35_cif.got.tgz:69039.got - 2010.04.16 13:46:32.
