data_PCOD8286156
_publ_section_title
;
Structure prediction by ZEFSAII (Michael W. Deem and Ramdas Pophale) SiO2 
 PCOD8286156
Probable space group: F D D D
;
_chemical_formula_sum "Si O2"
_cell_formula_units_Z 160
_cell_length_a 15.818877
_cell_length_b 28.211358
_cell_length_c 18.003117
_cell_angle_alpha 90.000000
_cell_angle_beta 90.000000
_cell_angle_gamma 90.000000
_cell_volume 8034.287070
_symmetry_space_group_name_H-M "F D D D"
_symmetry_group_IT_number 70
_space_group.IT_coordinate_system_code '2'
_symmetry_cell_setting 'orthorhombic'
loop_
_space_group_symop_operation_xyz
x,y,z
1/4-x,1/4-y,z
x,1/4-y,1/4-z
1/4-x,y,1/4-z
-x,-y,-z
3/4+x,3/4+y,-z
-x,3/4+y,3/4+z
3/4+x,-y,3/4+z
x,1/2+y,1/2+z
1/4-x,3/4-y,1/2+z
x,3/4-y,3/4-z
1/4-x,1/2+y,3/4-z
-x,1/2-y,1/2-z
3/4+x,1/4+y,1/2-z
-x,1/4+y,1/4+z
3/4+x,1/2-y,1/4+z
1/2+x,y,1/2+z
3/4-x,1/4-y,1/2+z
1/2+x,1/4-y,3/4-z
3/4-x,y,3/4-z
1/2-x,-y,1/2-z
1/4+x,3/4+y,1/2-z
1/2-x,3/4+y,1/4+z
1/4+x,-y,1/4+z
1/2+x,1/2+y,z
3/4-x,3/4-y,z
1/2+x,3/4-y,1/4-z
3/4-x,1/2+y,1/4-z
1/2-x,1/2-y,-z
1/4+x,1/4+y,-z
1/2-x,1/4+y,3/4+z
1/4+x,1/2-y,3/4+z
loop_
_atom_site_type_symbol
_atom_site_label
_atom_site_fract_x
_atom_site_fract_y
_atom_site_fract_z
Si Si1 0.299742 0.618766 0.235251
Si Si2 0.875000 0.375000 0.693111
Si Si3 0.125000 0.921619 0.625000
Si Si4 0.793843 0.926552 0.912395
Si Si5 0.447724 0.449593 0.668711
Si Si6 0.388684 0.198270 0.119391
O O1 0.203846 0.634566 0.252110
O O2 0.352033 0.613952 0.309771
O O3 0.303275 0.568923 0.189164
O O4 0.352085 0.658621 0.193033
O O5 0.856122 0.420019 0.641216
O O6 0.204552 0.954089 0.604799
O O7 0.786248 0.875000 0.875000
O O8 0.875000 0.952559 0.875000
O O9 0.708153 0.954738 0.895383
O O10 0.810105 0.924972 0.000914
O O11 0.415354 0.502877 0.667609
#
# Coordination Sequence:
#
# PCOD8286156 Si02
#       6
#    32  16  16  32  32  32
#     4  10  22  41  63  93 132 168 209 268 318 388
#     4  10  24  39  63 100 130 170 214 268 320 389
#     4  10  20  42  66  89 126 175 214 258 322 396
#     4  11  22  43  69  89 129 174 216 265 334 387
#     4  11  24  40  68  96 129 168 221 267 328 393
#     4  11  23  41  65  97 128 168 217 267 335 383
#
# _framework density 19.914648
#
# number of rings (size 3 to 8) (size 9 to 14) (size 15 to 20)
#    0.000    1.400    4.000    1.200    2.800    8.800 
#    1.800    0.000    0.000    0.000    0.000    0.000 
#    0.000    0.000    0.000    0.000    0.000    0.000 
#
# Total GULP energy -495883.136379 kJ/mol
# GULP energy per Si atom -12397.078409 kJ/mol
# Density = 1.986932 g / cm^3
# Si number density = 19.914648 Si / 1000 Ang^3
#
#
#
# Elastic Constant Matrix: (Units=GPa)
#
#
# Indices 1 2 3 4 5 6 
#
# 1 153.5421 30.7566 50.1593 0.0000 0.0000 0.0000
# 2 30.7566 75.7100 28.7310 0.0000 0.0000 0.0000
# 3 50.1593 28.7310 127.7018 0.0000 0.0000 0.0000
# 4 0.0000 0.0000 0.0000 10.4992 0.0000 0.0000
# 5 0.0000 0.0000 0.0000 0.0000 27.1317 0.0000
# 6 0.0000 0.0000 0.0000 0.0000 0.0000 15.0061
#
#
#
# Elastic Compliance Matrix: (Units=1/GPa)
#
#
# Indices 1 2 3 4 5 6 
#
# 1 0.007790 -0.002191 -0.002567 0.000000 0.000000 0.000000
# 2 -0.002191 0.015057 -0.002527 0.000000 0.000000 0.000000
# 3 -0.002567 -0.002527 0.009408 0.000000 0.000000 0.000000
# 4 0.000000 0.000000 0.000000 0.095246 0.000000 0.000000
# 5 0.000000 0.000000 0.000000 0.000000 0.036857 0.000000
# 6 0.000000 0.000000 0.000000 0.000000 0.000000 0.066640
#
#
# Mechanical properties :
#
#
# Convention : Reuss Voigt Hill
#
# Bulk Modulus (GPa) = 56.54369 64.02753 60.28561
# Shear Modulus (GPa) = 19.88366 27.01452 23.44909
#
# Velocity S-wave (km/s) = 3.16324 3.68709 3.43516
# Velocity P-wave (km/s) = 6.46499 7.09555 6.78760
#
# Compressibility (1/GPa) = 0.01768544
#
# Stress axis : x y z
#
# Youngs Moduli (GPa) = 128.36507 66.41319 106.29670
#
# Poissons Ratio (x) = 0.14548 0.27287
# Poissons Ratio (y) = 0.28119 0.26864
# Poissons Ratio (z) = 0.32952 0.16784
#
# Static dielectric constant tensor:
#      x y z
#    x 4.180540 0.000000 0.000000 
#    y 0.000000 3.296670 0.000000 
#    z 0.000000 0.000000 3.937960 
# 
# 
# High freq. dielectric constant tensor:
#      x y z
#    x 1.793650 0.000000 0.000000 
#    y 0.000000 1.746710 0.000000 
#    z 0.000000 0.000000 1.796980 
# 
# From -- ./inp_files/30940.got.cif
#   From: 2010.03.12/outbox.cif.g09.slc.cpg/sg70_16_cif.got.tgz:30940.got - 2010.04.16 13:46:32.
