data_PCOD8286271
_publ_section_title
;
Structure prediction by ZEFSAII (Michael W. Deem and Ramdas Pophale) SiO2 
 PCOD8286271
Probable space group: F D D D
;
_chemical_formula_sum "Si O2"
_cell_formula_units_Z 192
_cell_length_a 25.041862
_cell_length_b 10.788964
_cell_length_c 33.300756
_cell_angle_alpha 90.000000
_cell_angle_beta 90.000000
_cell_angle_gamma 90.000000
_cell_volume 8997.056648
_symmetry_space_group_name_H-M "F D D D"
_symmetry_group_IT_number 70
_space_group.IT_coordinate_system_code '2'
_symmetry_cell_setting 'orthorhombic'
loop_
_space_group_symop_operation_xyz
x,y,z
1/4-x,1/4-y,z
x,1/4-y,1/4-z
1/4-x,y,1/4-z
-x,-y,-z
3/4+x,3/4+y,-z
-x,3/4+y,3/4+z
3/4+x,-y,3/4+z
x,1/2+y,1/2+z
1/4-x,3/4-y,1/2+z
x,3/4-y,3/4-z
1/4-x,1/2+y,3/4-z
-x,1/2-y,1/2-z
3/4+x,1/4+y,1/2-z
-x,1/4+y,1/4+z
3/4+x,1/2-y,1/4+z
1/2+x,y,1/2+z
3/4-x,1/4-y,1/2+z
1/2+x,1/4-y,3/4-z
3/4-x,y,3/4-z
1/2-x,-y,1/2-z
1/4+x,3/4+y,1/2-z
1/2-x,3/4+y,1/4+z
1/4+x,-y,1/4+z
1/2+x,1/2+y,z
3/4-x,3/4-y,z
1/2+x,3/4-y,1/4-z
3/4-x,1/2+y,1/4-z
1/2-x,1/2-y,-z
1/4+x,1/4+y,-z
1/2-x,1/4+y,3/4+z
1/4+x,1/2-y,3/4+z
loop_
_atom_site_type_symbol
_atom_site_label
_atom_site_fract_x
_atom_site_fract_y
_atom_site_fract_z
Si Si1 0.125000 0.125000 0.125000
Si Si2 0.054794 0.375000 0.375000
Si Si3 0.683013 0.501615 0.517217
Si Si4 0.214412 0.006480 0.073766
Si Si5 0.399050 0.564593 0.044102
Si Si6 0.296762 0.324425 0.735549
Si Si7 0.375000 0.375000 0.375000
Si Si8 0.328370 0.743099 0.945185
O O1 0.088819 0.216748 0.098789
O O2 0.094477 0.437902 0.407493
O O3 0.016593 0.279013 0.398930
O O4 0.669329 0.448854 0.472484
O O5 0.740136 0.459211 0.534036
O O6 0.683224 0.652570 0.520394
O O7 0.637695 0.439836 0.545295
O O8 0.215500 0.864868 0.056940
O O9 0.211382 0.087123 0.033464
O O10 0.339215 0.529952 0.029413
O O11 0.438529 0.460892 0.027687
O O12 0.332485 0.450497 0.348877
#
# Coordination Sequence:
#
# PCOD8286271 Si02
#       8
#     8  16  32  32  32  32   8  32
#     4  10  22  32  60  98 130 160 208 300 332 362
#     4  11  26  41  63  98 140 169 207 285 342 392
#     4  10  21  40  67  93 127 172 220 270 318 388
#     4  11  22  39  64 100 125 169 223 271 331 391
#     4  11  23  44  64 100 130 167 227 274 332 387
#     4  11  23  41  71  92 124 177 224 268 315 406
#     4   8  18  36  54  82 138 160 190 272 330 356
#     4  10  22  39  61 101 126 172 219 270 320 393
#
# _framework density 21.340312000000001
#
# number of rings (size 3 to 8) (size 9 to 14) (size 15 to 20)
#    0.000    1.667    3.333    2.000    0.000    4.667 
#    0.000   10.000    0.000    0.000    0.000    0.000 
#    0.000    0.000    0.000    0.000    0.000    0.000 
#
# Total GULP energy -594727.395254 kJ/mol
# GULP energy per Si atom -12390.154068 kJ/mol
# Density = 2.129174 g / cm^3
# Si number density = 21.340312 Si / 1000 Ang^3
#
#
#
# Elastic Constant Matrix: (Units=GPa)
#
#
# Indices 1 2 3 4 5 6 
#
# 1 120.3144 23.6329 39.4293 0.0000 0.0000 0.0000
# 2 23.6329 108.4801 43.7676 0.0000 0.0000 0.0000
# 3 39.4293 43.7676 140.8668 0.0000 0.0000 0.0000
# 4 0.0000 0.0000 0.0000 32.4159 0.0000 0.0000
# 5 0.0000 0.0000 0.0000 0.0000 35.1933 0.0000
# 6 0.0000 0.0000 0.0000 0.0000 0.0000 10.1291
#
#
#
# Elastic Compliance Matrix: (Units=1/GPa)
#
#
# Indices 1 2 3 4 5 6 
#
# 1 0.009267 -0.001112 -0.002248 0.000000 0.000000 0.000000
# 2 -0.001112 0.010673 -0.003005 0.000000 0.000000 0.000000
# 3 -0.002248 -0.003005 0.008662 0.000000 0.000000 0.000000
# 4 0.000000 0.000000 0.000000 0.030849 0.000000 0.000000
# 5 0.000000 0.000000 0.000000 0.000000 0.028415 0.000000
# 6 0.000000 0.000000 0.000000 0.000000 0.000000 0.098726
#
#
# Mechanical properties :
#
#
# Convention : Reuss Voigt Hill
#
# Bulk Modulus (GPa) = 63.00602 64.81345 63.90974
# Shear Modulus (GPa) = 24.43661 33.06976 28.75319
#
# Velocity S-wave (km/s) = 3.38759 3.94082 3.67463
# Velocity P-wave (km/s) = 6.69997 7.15150 6.92941
#
# Compressibility (1/GPa) = 0.01587150
#
# Stress axis : x y z
#
# Youngs Moduli (GPa) = 107.91252 93.69588 115.44839
#
# Poissons Ratio (x) = 0.10416 0.25958
# Poissons Ratio (y) = 0.11996 0.34691
# Poissons Ratio (z) = 0.24263 0.28155
#
# Static dielectric constant tensor:
#      x y z
#    x 3.993960 0.000000 0.000000 
#    y 0.000000 3.812330 0.000000 
#    z 0.000000 0.000000 3.936790 
# 
# 
# High freq. dielectric constant tensor:
#      x y z
#    x 1.836690 0.000000 0.000000 
#    y 0.000000 1.825960 0.000000 
#    z 0.000000 0.000000 1.834780 
# 
# From -- ./inp_files/68434.got.cif
#   From: 2010.03.12/outbox.cif.g09.slc.cpg/sg70_35_cif.got.tgz:68434.got - 2010.04.16 13:46:32.
