data_PCOD8286048
_publ_section_title
;
Structure prediction by ZEFSAII (Michael W. Deem and Ramdas Pophale) SiO2 
 PCOD8286048
Probable space group: F D D D
;
_chemical_formula_sum "Si O2"
_cell_formula_units_Z 160
_cell_length_a 22.694352
_cell_length_b 14.719597
_cell_length_c 21.144041
_cell_angle_alpha 90.000000
_cell_angle_beta 90.000000
_cell_angle_gamma 90.000000
_cell_volume 7063.203171
_symmetry_space_group_name_H-M "F D D D"
_symmetry_group_IT_number 70
_space_group.IT_coordinate_system_code '2'
_symmetry_cell_setting 'orthorhombic'
loop_
_space_group_symop_operation_xyz
x,y,z
1/4-x,1/4-y,z
x,1/4-y,1/4-z
1/4-x,y,1/4-z
-x,-y,-z
3/4+x,3/4+y,-z
-x,3/4+y,3/4+z
3/4+x,-y,3/4+z
x,1/2+y,1/2+z
1/4-x,3/4-y,1/2+z
x,3/4-y,3/4-z
1/4-x,1/2+y,3/4-z
-x,1/2-y,1/2-z
3/4+x,1/4+y,1/2-z
-x,1/4+y,1/4+z
3/4+x,1/2-y,1/4+z
1/2+x,y,1/2+z
3/4-x,1/4-y,1/2+z
1/2+x,1/4-y,3/4-z
3/4-x,y,3/4-z
1/2-x,-y,1/2-z
1/4+x,3/4+y,1/2-z
1/2-x,3/4+y,1/4+z
1/4+x,-y,1/4+z
1/2+x,1/2+y,z
3/4-x,3/4-y,z
1/2+x,3/4-y,1/4-z
3/4-x,1/2+y,1/4-z
1/2-x,1/2-y,-z
1/4+x,1/4+y,-z
1/2-x,1/4+y,3/4+z
1/4+x,1/2-y,3/4+z
loop_
_atom_site_type_symbol
_atom_site_label
_atom_site_fract_x
_atom_site_fract_y
_atom_site_fract_z
Si Si1 0.497814 0.258159 0.127618
Si Si2 0.807946 0.370693 0.786267
Si Si3 0.102048 0.522908 0.689579
Si Si4 0.623163 0.732557 0.327328
Si Si5 0.981792 0.299192 0.091438
O O1 0.522322 0.211054 0.191799
O O2 0.531013 0.218019 0.067814
O O3 0.428163 0.234553 0.119555
O O4 0.511819 0.365689 0.122474
O O5 0.875000 0.375000 0.808145
O O6 0.804700 0.355066 0.711538
O O7 0.125000 0.625000 0.688211
O O8 0.125000 0.473665 0.625000
O O9 0.124266 0.476057 0.755356
O O10 0.030682 0.518686 0.686886
O O11 0.625000 0.625000 0.319685
O O12 0.562436 0.758763 0.363587
#
# Coordination Sequence:
#
# PCOD8286048 Si02
#       5
#    32  32  32  32  32
#     4  10  20  37  62  95 137 167 212 270 338 408
#     4  11  22  38  62  98 137 169 211 277 339 403
#     4  10  22  42  65  87 127 170 223 287 329 388
#     4   9  19  39  64  91 126 173 220 271 337 405
#     4  11  22  39  68  94 128 179 224 273 338 406
#
# _framework density 22.652611
#
# number of rings (size 3 to 8) (size 9 to 14) (size 15 to 20)
#    0.000    1.800    2.000    3.600    0.000    2.400 
#    0.000    4.000    8.800    0.000    0.000    0.000 
#    0.000    0.000    0.000    0.000    0.000    0.000 
#
# Total GULP energy -495618.480723 kJ/mol
# GULP energy per Si atom -12390.462018 kJ/mol
# Density = 2.260105 g / cm^3
# Si number density = 22.652611 Si / 1000 Ang^3
#
#
#
# Elastic Constant Matrix: (Units=GPa)
#
#
# Indices 1 2 3 4 5 6 
#
# 1 178.5877 52.0197 74.7965 0.0000 0.0000 0.0000
# 2 52.0197 55.0752 5.8494 0.0000 0.0000 0.0000
# 3 74.7965 5.8494 142.7386 0.0000 0.0000 0.0000
# 4 0.0000 0.0000 0.0000 4.7661 0.0000 0.0000
# 5 0.0000 0.0000 0.0000 0.0000 43.2382 0.0000
# 6 0.0000 0.0000 0.0000 0.0000 0.0000 34.5886
#
#
#
# Elastic Compliance Matrix: (Units=1/GPa)
#
#
# Indices 1 2 3 4 5 6 
#
# 1 0.010450 -0.009330 -0.005094 0.000000 0.000000 0.000000
# 2 -0.009330 0.026565 0.003800 0.000000 0.000000 0.000000
# 3 -0.005094 0.003800 0.009519 0.000000 0.000000 0.000000
# 4 0.000000 0.000000 0.000000 0.209817 0.000000 0.000000
# 5 0.000000 0.000000 0.000000 0.000000 0.023128 0.000000
# 6 0.000000 0.000000 0.000000 0.000000 0.000000 0.028911
#
#
# Mechanical properties :
#
#
# Convention : Reuss Voigt Hill
#
# Bulk Modulus (GPa) = 39.54347 71.30363 55.42355
# Shear Modulus (GPa) = 14.78995 32.76765 23.77880
#
# Velocity S-wave (km/s) = 2.55797 3.80745 3.24345
# Velocity P-wave (km/s) = 5.12041 7.13262 6.20858
#
# Compressibility (1/GPa) = 0.02528863
#
# Stress axis : x y z
#
# Youngs Moduli (GPa) = 95.68932 37.64282 105.04975
#
# Poissons Ratio (x) = 0.35120 0.53511
# Poissons Ratio (y) = 0.89275 -0.39921
# Poissons Ratio (z) = 0.48743 -0.14305
#
# Static dielectric constant tensor:
#      x y z
#    x 4.214150 0.000000 0.000000 
#    y 0.000000 3.651130 0.000000 
#    z 0.000000 0.000000 4.685330 
# 
# 
# High freq. dielectric constant tensor:
#      x y z
#    x 1.894140 0.000000 0.000000 
#    y 0.000000 1.853110 0.000000 
#    z 0.000000 0.000000 1.911850 
# 
# From -- ./inp_files/35108.got.cif
#   From: 2010.03.12/outbox.cif.g09.slc.cpg/sg70_18_cif.got.tgz:35108.got - 2010.04.16 13:46:32.
