data_PCOD8286016
_publ_section_title
;
Structure prediction by ZEFSAII (Michael W. Deem and Ramdas Pophale) SiO2 
 PCOD8286016
Probable space group: F D D D
;
_chemical_formula_sum "Si O2"
_cell_formula_units_Z 240
_cell_length_a 22.418566
_cell_length_b 27.666311
_cell_length_c 17.300824
_cell_angle_alpha 90.000000
_cell_angle_beta 90.000000
_cell_angle_gamma 90.000000
_cell_volume 10730.646108
_symmetry_space_group_name_H-M "F D D D"
_symmetry_group_IT_number 70
_space_group.IT_coordinate_system_code '2'
_symmetry_cell_setting 'orthorhombic'
loop_
_space_group_symop_operation_xyz
x,y,z
1/4-x,1/4-y,z
x,1/4-y,1/4-z
1/4-x,y,1/4-z
-x,-y,-z
3/4+x,3/4+y,-z
-x,3/4+y,3/4+z
3/4+x,-y,3/4+z
x,1/2+y,1/2+z
1/4-x,3/4-y,1/2+z
x,3/4-y,3/4-z
1/4-x,1/2+y,3/4-z
-x,1/2-y,1/2-z
3/4+x,1/4+y,1/2-z
-x,1/4+y,1/4+z
3/4+x,1/2-y,1/4+z
1/2+x,y,1/2+z
3/4-x,1/4-y,1/2+z
1/2+x,1/4-y,3/4-z
3/4-x,y,3/4-z
1/2-x,-y,1/2-z
1/4+x,3/4+y,1/2-z
1/2-x,3/4+y,1/4+z
1/4+x,-y,1/4+z
1/2+x,1/2+y,z
3/4-x,3/4-y,z
1/2+x,3/4-y,1/4-z
3/4-x,1/2+y,1/4-z
1/2-x,1/2-y,-z
1/4+x,1/4+y,-z
1/2-x,1/4+y,3/4+z
1/4+x,1/2-y,3/4+z
loop_
_atom_site_type_symbol
_atom_site_label
_atom_site_fract_x
_atom_site_fract_y
_atom_site_fract_z
Si Si1 0.587547 0.772623 0.414135
Si Si2 0.967983 0.927242 0.346311
Si Si3 0.002514 0.420376 0.513076
Si Si4 0.468142 0.991412 0.244529
Si Si5 0.648495 0.195426 0.009237
Si Si6 0.064470 0.649588 0.393649
Si Si7 0.933327 0.625000 0.625000
Si Si8 0.161319 0.003891 0.241041
O O1 0.519811 0.770587 0.445157
O O2 0.632409 0.748187 0.474699
O O3 0.606729 0.828129 0.396655
O O4 0.590976 0.743308 0.334855
O O5 0.992672 0.875000 0.375000
O O6 0.943981 0.956086 0.421338
O O7 0.912084 0.918932 0.288313
O O8 0.018233 0.960056 0.305592
O O9 0.985759 0.391057 0.590674
O O10 0.947465 0.447723 0.470197
O O11 0.025677 0.383759 0.448960
O O12 0.053502 0.457426 0.539887
O O13 0.406145 0.998748 0.292243
O O14 0.455697 0.947461 0.187342
O O15 0.679912 0.160763 0.946887
O O16 0.125000 0.625000 0.426338
#
# Coordination Sequence:
#
# PCOD8286016 Si02
#       8
#    32  32  32  32  32  32  16  32
#     4  10  20  38  62  93 125 170 208 264 315 390
#     4  10  22  40  61  98 128 165 218 275 325 387
#     4  10  21  38  63  90 122 162 214 256 320 383
#     4  11  22  38  62  95 127 168 221 263 330 397
#     4  10  20  38  68  91 127 167 215 273 317 374
#     4  12  20  36  63  94 118 165 215 262 314 384
#     4  10  20  36  61  90 126 162 204 259 324 386
#     4  10  21  41  59  89 128 168 201 265 324 380
#
# _framework density 22.365846999999999
#
# number of rings (size 3 to 8) (size 9 to 14) (size 15 to 20)
#    0.000    1.600    4.000    1.600    0.000    1.600 
#    4.800    9.667    0.000    4.800    0.000    0.000 
#    0.000    0.000    0.000    0.000    0.000    0.000 
#
# Total GULP energy -743758.981553 kJ/mol
# GULP energy per Si atom -12395.983026 kJ/mol
# Density = 2.231494 g / cm^3
# Si number density = 22.365847 Si / 1000 Ang^3
#
#
#
# Elastic Constant Matrix: (Units=GPa)
#
#
# Indices 1 2 3 4 5 6 
#
# 1 67.1214 21.2008 2.3483 0.0000 0.0000 0.0000
# 2 21.2008 109.6395 17.7231 0.0000 0.0000 0.0000
# 3 2.3483 17.7231 48.8057 0.0000 0.0000 0.0000
# 4 0.0000 0.0000 0.0000 39.3942 0.0000 0.0000
# 5 0.0000 0.0000 0.0000 0.0000 27.9173 0.0000
# 6 0.0000 0.0000 0.0000 0.0000 0.0000 21.3227
#
#
#
# Elastic Compliance Matrix: (Units=1/GPa)
#
#
# Indices 1 2 3 4 5 6 
#
# 1 0.015874 -0.003130 0.000373 0.000000 0.000000 0.000000
# 2 -0.003130 0.010307 -0.003592 0.000000 0.000000 0.000000
# 3 0.000373 -0.003592 0.021776 0.000000 0.000000 0.000000
# 4 0.000000 0.000000 0.000000 0.025384 0.000000 0.000000
# 5 0.000000 0.000000 0.000000 0.000000 0.035820 0.000000
# 6 0.000000 0.000000 0.000000 0.000000 0.000000 0.046898
#
#
# Mechanical properties :
#
#
# Convention : Reuss Voigt Hill
#
# Bulk Modulus (GPa) = 28.36218 34.23454 31.29836
# Shear Modulus (GPa) = 27.69923 30.01313 28.85618
#
# Velocity S-wave (km/s) = 3.52300 3.66719 3.59582
# Velocity P-wave (km/s) = 5.40899 5.76810 5.59143
#
# Compressibility (1/GPa) = 0.03525822
#
# Stress axis : x y z
#
# Youngs Moduli (GPa) = 62.99649 97.02468 45.92230
#
# Poissons Ratio (x) = 0.30366 -0.01712
# Poissons Ratio (y) = 0.19716 0.16496
# Poissons Ratio (z) = -0.02348 0.34853
#
# Static dielectric constant tensor:
#      x y z
#    x 4.214380 0.000000 0.000000 
#    y 0.000000 4.148150 0.000000 
#    z 0.000000 0.000000 3.949140 
# 
# 
# High freq. dielectric constant tensor:
#      x y z
#    x 1.859910 0.000000 0.000000 
#    y 0.000000 1.893610 0.000000 
#    z 0.000000 0.000000 1.874110 
# 
# From -- ./inp_files/38974.got.cif
#   From: 2010.03.12/outbox.cif.g09.slc.cpg/sg70_20_cif.got.tgz:38974.got - 2010.04.16 13:46:32.
