data_PCOD8286144
_publ_section_title
;
Structure prediction by ZEFSAII (Michael W. Deem and Ramdas Pophale) SiO2 
 PCOD8286144
Probable space group: F D D D
;
_chemical_formula_sum "Si O2"
_cell_formula_units_Z 176
_cell_length_a 14.855378
_cell_length_b 27.225177
_cell_length_c 21.345531
_cell_angle_alpha 90.000000
_cell_angle_beta 90.000000
_cell_angle_gamma 90.000000
_cell_volume 8632.992864
_symmetry_space_group_name_H-M "F D D D"
_symmetry_group_IT_number 70
_space_group.IT_coordinate_system_code '2'
_symmetry_cell_setting 'orthorhombic'
loop_
_space_group_symop_operation_xyz
x,y,z
1/4-x,1/4-y,z
x,1/4-y,1/4-z
1/4-x,y,1/4-z
-x,-y,-z
3/4+x,3/4+y,-z
-x,3/4+y,3/4+z
3/4+x,-y,3/4+z
x,1/2+y,1/2+z
1/4-x,3/4-y,1/2+z
x,3/4-y,3/4-z
1/4-x,1/2+y,3/4-z
-x,1/2-y,1/2-z
3/4+x,1/4+y,1/2-z
-x,1/4+y,1/4+z
3/4+x,1/2-y,1/4+z
1/2+x,y,1/2+z
3/4-x,1/4-y,1/2+z
1/2+x,1/4-y,3/4-z
3/4-x,y,3/4-z
1/2-x,-y,1/2-z
1/4+x,3/4+y,1/2-z
1/2-x,3/4+y,1/4+z
1/4+x,-y,1/4+z
1/2+x,1/2+y,z
3/4-x,3/4-y,z
1/2+x,3/4-y,1/4-z
3/4-x,1/2+y,1/4-z
1/2-x,1/2-y,-z
1/4+x,1/4+y,-z
1/2-x,1/4+y,3/4+z
1/4+x,1/2-y,3/4+z
loop_
_atom_site_type_symbol
_atom_site_label
_atom_site_fract_x
_atom_site_fract_y
_atom_site_fract_z
Si Si1 0.639844 0.677755 0.730589
Si Si2 0.375000 0.375000 0.700531
Si Si3 0.583178 0.422949 0.223109
Si Si4 0.625000 0.753518 0.625000
Si Si5 0.244161 0.585714 0.345273
Si Si6 0.263604 0.802626 0.471405
Si Si7 0.125000 0.505914 0.625000
O O1 0.625000 0.625000 0.697731
O O2 0.745819 0.684779 0.737013
O O3 0.608502 0.721256 0.686482
O O4 0.586099 0.678042 0.796897
O O5 0.291269 0.363300 0.656224
O O6 0.345782 0.420310 0.743818
O O7 0.569127 0.371316 0.186326
O O8 0.669672 0.417524 0.269695
O O9 0.590015 0.470298 0.179017
O O10 0.713511 0.786693 0.623728
O O11 0.250000 0.750000 0.500000
O O12 0.295012 0.792344 0.399687
#
# Coordination Sequence:
#
# PCOD8286144 Si02
#       7
#    32  16  32  16  32  32  16
#     4  10  23  41  64  88 130 163 205 263 327 371
#     4  12  22  41  66  91 132 166 222 266 328 380
#     4  10  20  41  64  90 124 175 212 257 325 390
#     4  12  24  36  66  93 123 154 220 264 318 376
#     4  11  22  40  64  93 120 169 216 269 305 398
#     4  10  23  37  65  94 127 173 211 267 330 387
#     4  10  21  37  62  93 135 156 223 265 322 384
#
# _framework density 20.386904000000001
#
# number of rings (size 3 to 8) (size 9 to 14) (size 15 to 20)
#    0.000    1.455    2.727    4.636    5.091    0.364 
#    0.000    0.000   12.000    0.000    0.000    0.000 
#    0.000    0.000    0.000    0.000    0.000    0.000 
#
# Total GULP energy -545264.692750 kJ/mol
# GULP energy per Si atom -12392.379381 kJ/mol
# Density = 2.034050 g / cm^3
# Si number density = 20.386904 Si / 1000 Ang^3
#
#
#
# Elastic Constant Matrix: (Units=GPa)
#
#
# Indices 1 2 3 4 5 6 
#
# 1 117.4215 38.8646 37.9574 0.0000 0.0000 0.0000
# 2 38.8646 111.0103 39.7290 0.0000 0.0000 0.0000
# 3 37.9574 39.7290 81.1073 0.0000 0.0000 0.0000
# 4 0.0000 0.0000 0.0000 33.7388 0.0000 0.0000
# 5 0.0000 0.0000 0.0000 0.0000 29.9411 0.0000
# 6 0.0000 0.0000 0.0000 0.0000 0.0000 37.3470
#
#
#
# Elastic Compliance Matrix: (Units=1/GPa)
#
#
# Indices 1 2 3 4 5 6 
#
# 1 0.010508 -0.002327 -0.003778 0.000000 0.000000 0.000000
# 2 -0.002327 0.011438 -0.004514 0.000000 0.000000 0.000000
# 3 -0.003778 -0.004514 0.016308 0.000000 0.000000 0.000000
# 4 0.000000 0.000000 0.000000 0.029639 0.000000 0.000000
# 5 0.000000 0.000000 0.000000 0.000000 0.033399 0.000000
# 6 0.000000 0.000000 0.000000 0.000000 0.000000 0.026776
#
#
# Mechanical properties :
#
#
# Convention : Reuss Voigt Hill
#
# Bulk Modulus (GPa) = 58.76336 60.29345 59.52841
# Shear Modulus (GPa) = 32.26268 33.07125 32.66697
#
# Velocity S-wave (km/s) = 3.98241 4.03200 4.00728
# Velocity P-wave (km/s) = 7.07338 7.16344 7.11855
#
# Compressibility (1/GPa) = 0.01701741
#
# Stress axis : x y z
#
# Youngs Moduli (GPa) = 95.16906 87.42621 61.31826
#
# Poissons Ratio (x) = 0.20341 0.23165
# Poissons Ratio (y) = 0.22143 0.27679
# Poissons Ratio (z) = 0.35953 0.39464
#
# Static dielectric constant tensor:
#      x y z
#    x 4.048610 0.000000 0.000000 
#    y 0.000000 3.857500 0.000000 
#    z 0.000000 0.000000 3.868650 
# 
# 
# High freq. dielectric constant tensor:
#      x y z
#    x 1.804710 0.000000 0.000000 
#    y 0.000000 1.803140 0.000000 
#    z 0.000000 0.000000 1.781440 
# 
# From -- ./inp_files/51381.got.cif
#   From: 2010.03.12/outbox.cif.g09.slc.cpg/sg70_26_cif.got.tgz:51381.got - 2010.04.16 13:46:32.
