data_PCOD8286409
_publ_section_title
;
Structure prediction by ZEFSAII (Michael W. Deem and Ramdas Pophale) SiO2 
 PCOD8286409
Probable space group: F D D D
;
_chemical_formula_sum "Si O2"
_cell_formula_units_Z 136
_cell_length_a 16.446040
_cell_length_b 14.412029
_cell_length_c 25.264389
_cell_angle_alpha 90.000000
_cell_angle_beta 90.000000
_cell_angle_gamma 90.000000
_cell_volume 5988.185829
_symmetry_space_group_name_H-M "F D D D"
_symmetry_group_IT_number 70
_space_group.IT_coordinate_system_code '2'
_symmetry_cell_setting 'orthorhombic'
loop_
_space_group_symop_operation_xyz
x,y,z
1/4-x,1/4-y,z
x,1/4-y,1/4-z
1/4-x,y,1/4-z
-x,-y,-z
3/4+x,3/4+y,-z
-x,3/4+y,3/4+z
3/4+x,-y,3/4+z
x,1/2+y,1/2+z
1/4-x,3/4-y,1/2+z
x,3/4-y,3/4-z
1/4-x,1/2+y,3/4-z
-x,1/2-y,1/2-z
3/4+x,1/4+y,1/2-z
-x,1/4+y,1/4+z
3/4+x,1/2-y,1/4+z
1/2+x,y,1/2+z
3/4-x,1/4-y,1/2+z
1/2+x,1/4-y,3/4-z
3/4-x,y,3/4-z
1/2-x,-y,1/2-z
1/4+x,3/4+y,1/2-z
1/2-x,3/4+y,1/4+z
1/4+x,-y,1/4+z
1/2+x,1/2+y,z
3/4-x,3/4-y,z
1/2+x,3/4-y,1/4-z
3/4-x,1/2+y,1/4-z
1/2-x,1/2-y,-z
1/4+x,1/4+y,-z
1/2-x,1/4+y,3/4+z
1/4+x,1/2-y,3/4+z
loop_
_atom_site_type_symbol
_atom_site_label
_atom_site_fract_x
_atom_site_fract_y
_atom_site_fract_z
Si Si1 0.072557 0.709917 0.398946
Si Si2 0.225217 0.936360 0.327640
Si Si3 0.553746 0.373072 0.711625
Si Si4 0.875000 0.375000 0.875000
Si Si5 0.535097 0.974676 0.055980
O O1 0.125000 0.625000 0.420588
O O2 0.131292 0.797708 0.404665
O O3 0.993886 0.712619 0.437661
O O4 0.042031 0.688693 0.339555
O O5 0.265127 0.875000 0.375000
O O6 0.220692 0.880130 0.272993
O O7 0.279497 0.028671 0.319431
O O8 0.648623 0.392915 0.701124
O O9 0.931960 0.436005 0.912832
O O10 0.500000 0.000000 0.000000
#
# Coordination Sequence:
#
# PCOD8286409 Si02
#       5
#    32  32  32   8  32
#     4  10  22  43  66  95 138 177 225 285 342 413
#     4  10  22  43  74 100 132 190 235 278 354 432
#     4  10  22  44  66 103 144 174 230 299 345 413
#     4  12  28  48  68 116 130 180 254 280 354 444
#     4  12  26  43  70 102 142 183 225 299 353 418
#
# _framework density 22.711386000000001
#
# number of rings (size 3 to 8) (size 9 to 14) (size 15 to 20)
#    0.000    1.412    2.353    1.412    6.588    0.000 
#   12.706    0.000    5.176    0.000    0.000    0.000 
#    0.000    0.000    0.000    0.000    0.000    0.000 
#
# Total GULP energy -421446.020842 kJ/mol
# GULP energy per Si atom -12395.471201 kJ/mol
# Density = 2.265969 g / cm^3
# Si number density = 22.711386 Si / 1000 Ang^3
#
#
#
# Elastic Constant Matrix: (Units=GPa)
#
#
# Indices 1 2 3 4 5 6 
#
# 1 111.7071 33.0181 57.2419 0.0000 0.0000 0.0000
# 2 33.0181 80.0548 54.8638 0.0000 0.0000 0.0000
# 3 57.2419 54.8638 191.4991 0.0000 0.0000 0.0000
# 4 0.0000 0.0000 0.0000 40.8477 0.0000 0.0000
# 5 0.0000 0.0000 0.0000 0.0000 39.9313 0.0000
# 6 0.0000 0.0000 0.0000 0.0000 0.0000 33.3300
#
#
#
# Elastic Compliance Matrix: (Units=1/GPa)
#
#
# Indices 1 2 3 4 5 6 
#
# 1 0.011074 -0.002860 -0.002491 0.000000 0.000000 0.000000
# 2 -0.002860 0.016282 -0.003810 0.000000 0.000000 0.000000
# 3 -0.002491 -0.003810 0.007058 0.000000 0.000000 0.000000
# 4 0.000000 0.000000 0.000000 0.024481 0.000000 0.000000
# 5 0.000000 0.000000 0.000000 0.000000 0.025043 0.000000
# 6 0.000000 0.000000 0.000000 0.000000 0.000000 0.030003
#
#
# Mechanical properties :
#
#
# Convention : Reuss Voigt Hill
#
# Bulk Modulus (GPa) = 62.14175 74.83429 68.48802
# Shear Modulus (GPa) = 36.33019 38.69761 37.51390
#
# Velocity S-wave (km/s) = 4.00390 4.13229 4.06860
# Velocity P-wave (km/s) = 6.98540 7.46923 7.23136
#
# Compressibility (1/GPa) = 0.01609224
#
# Stress axis : x y z
#
# Youngs Moduli (GPa) = 90.30395 61.41698 141.68491
#
# Poissons Ratio (x) = 0.17568 0.35288
# Poissons Ratio (y) = 0.25831 0.53978
# Poissons Ratio (z) = 0.22491 0.23398
#
# Static dielectric constant tensor:
#      x y z
#    x 4.794240 0.000000 0.000000 
#    y 0.000000 4.452500 0.000000 
#    z 0.000000 0.000000 4.053910 
# 
# 
# High freq. dielectric constant tensor:
#      x y z
#    x 1.904810 0.000000 0.000000 
#    y 0.000000 1.880310 0.000000 
#    z 0.000000 0.000000 1.907350 
# 
# From -- ./inp_files/43442.got.cif
#   From: 2010.03.12/outbox.cif.g09.slc.cpg/sg70_22_cif.got.tgz:43442.got - 2010.04.16 13:46:32.
