data_PCOD8286791
_publ_section_title
;
Structure prediction by ZEFSAII (Michael W. Deem and Ramdas Pophale) SiO2 
 PCOD8286791
Probable space group: F D D D
;
_chemical_formula_sum "Si O2"
_cell_formula_units_Z 160
_cell_length_a 17.369323
_cell_length_b 19.129969
_cell_length_c 18.000091
_cell_angle_alpha 90.000000
_cell_angle_beta 90.000000
_cell_angle_gamma 90.000000
_cell_volume 5980.973227
_symmetry_space_group_name_H-M "F D D D"
_symmetry_group_IT_number 70
_space_group.IT_coordinate_system_code '2'
_symmetry_cell_setting 'orthorhombic'
loop_
_space_group_symop_operation_xyz
x,y,z
1/4-x,1/4-y,z
x,1/4-y,1/4-z
1/4-x,y,1/4-z
-x,-y,-z
3/4+x,3/4+y,-z
-x,3/4+y,3/4+z
3/4+x,-y,3/4+z
x,1/2+y,1/2+z
1/4-x,3/4-y,1/2+z
x,3/4-y,3/4-z
1/4-x,1/2+y,3/4-z
-x,1/2-y,1/2-z
3/4+x,1/4+y,1/2-z
-x,1/4+y,1/4+z
3/4+x,1/2-y,1/4+z
1/2+x,y,1/2+z
3/4-x,1/4-y,1/2+z
1/2+x,1/4-y,3/4-z
3/4-x,y,3/4-z
1/2-x,-y,1/2-z
1/4+x,3/4+y,1/2-z
1/2-x,3/4+y,1/4+z
1/4+x,-y,1/4+z
1/2+x,1/2+y,z
3/4-x,3/4-y,z
1/2+x,3/4-y,1/4-z
3/4-x,1/2+y,1/4-z
1/2-x,1/2-y,-z
1/4+x,1/4+y,-z
1/2-x,1/4+y,3/4+z
1/4+x,1/2-y,3/4+z
loop_
_atom_site_type_symbol
_atom_site_label
_atom_site_fract_x
_atom_site_fract_y
_atom_site_fract_z
Si Si1 0.875000 0.657882 0.875000
Si Si2 0.470487 0.276623 0.647268
Si Si3 0.240872 0.625000 0.625000
Si Si4 0.935764 0.435054 0.768126
Si Si5 0.326790 0.047882 0.762445
Si Si6 0.442706 0.625000 0.625000
Si Si7 0.125000 0.625000 0.748289
O O1 0.810494 0.704857 0.917609
O O2 0.929330 0.612886 0.931704
O O3 0.459811 0.192044 0.653407
O O4 0.454201 0.308420 0.567534
O O5 0.409748 0.311739 0.703390
O O6 0.191169 0.655727 0.694100
O O7 0.875000 0.375000 0.781499
O O8 0.896684 0.505360 0.797583
O O9 0.008852 0.422651 0.818788
O O10 0.354458 0.073687 0.679782
O O11 0.250000 0.000000 0.750000
#
# Coordination Sequence:
#
# PCOD8286791 Si02
#       7
#    16  32  16  32  32  16  16
#     4  12  26  51  75 120 164 208 270 340 402 483
#     4  12  27  52  85 117 163 214 267 339 407 487
#     4  11  28  53  83 119 161 209 276 343 402 485
#     4  12  25  47  76 112 162 207 259 328 398 481
#     4  12  26  45  78 115 157 209 263 328 407 483
#     4  12  25  49  77 115 155 207 260 326 402 482
#     4  11  26  54  82 115 160 214 276 333 410 486
#
# _framework density 26.7515
#
# number of rings (size 3 to 8) (size 9 to 14) (size 15 to 20)
#    0.000    0.200    5.000    3.300    2.800    2.400 
#    3.600    0.000    0.000    0.000    0.000    0.000 
#    0.000    0.000    0.000    0.000    0.000    0.000 
#
# Total GULP energy -495645.834684 kJ/mol
# GULP energy per Si atom -12391.145867 kJ/mol
# Density = 2.669061 g / cm^3
# Si number density = 26.751500 Si / 1000 Ang^3
#
#
#
# Elastic Constant Matrix: (Units=GPa)
#
#
# Indices 1 2 3 4 5 6 
#
# 1 95.0119 49.4275 19.0070 0.0000 0.0000 0.0000
# 2 49.4275 160.9564 44.3140 0.0000 0.0000 0.0000
# 3 19.0070 44.3140 141.9321 0.0000 0.0000 0.0000
# 4 0.0000 0.0000 0.0000 36.7888 0.0000 0.0000
# 5 0.0000 0.0000 0.0000 0.0000 45.0535 0.0000
# 6 0.0000 0.0000 0.0000 0.0000 0.0000 -12.9329
#
#
#
# Elastic Compliance Matrix: (Units=1/GPa)
#
#
# Indices 1 2 3 4 5 6 
#
# 1 0.012561 -0.003714 -0.000523 0.000000 0.000000 0.000000
# 2 -0.003714 0.007895 -0.001968 0.000000 0.000000 0.000000
# 3 -0.000523 -0.001968 0.007730 0.000000 0.000000 0.000000
# 4 0.000000 0.000000 0.000000 0.027182 0.000000 0.000000
# 5 0.000000 0.000000 0.000000 0.000000 0.022196 0.000000
# 6 0.000000 0.000000 0.000000 0.000000 0.000000 -0.077322
#
#
# Mechanical properties :
#
#
# Convention : Reuss Voigt Hill
#
# Bulk Modulus (GPa) = 63.37732 69.26635 66.32184
# Shear Modulus (GPa) = 279.18511 32.79202 155.98857
#
# Velocity S-wave (km/s) = 10.22688 3.50494 7.64440
# Velocity P-wave (km/s) = 12.77476 6.50601 10.13713
#
# Compressibility (1/GPa) = 0.01577851
#
# Stress axis : x y z
#
# Youngs Moduli (GPa) = 79.60874 126.66300 129.36663
#
# Poissons Ratio (x) = 0.47037 0.06763
# Poissons Ratio (y) = 0.29563 0.25455
# Poissons Ratio (z) = 0.04161 0.24923
#
# Static dielectric constant tensor:
#      x y z
#    x 5.076340 0.000000 0.000000 
#    y 0.000000 5.051830 0.000000 
#    z 0.000000 0.000000 5.340490 
# 
# 
# High freq. dielectric constant tensor:
#      x y z
#    x 2.080240 0.000000 0.000000 
#    y 0.000000 2.084240 0.000000 
#    z 0.000000 0.000000 2.089380 
# 
# From -- ./inp_files/36396.got.cif
#   From: 2010.03.12/outbox.cif.g09.slc.cpg/sg70_19_cif.got.tgz:36396.got - 2010.04.16 13:46:32.
