data_PCOD8286877
_publ_section_title
;
Structure prediction by ZEFSAII (Michael W. Deem and Ramdas Pophale) SiO2 
 PCOD8286877
Probable space group: I M M M
;
_chemical_formula_sum "Si O2"
_cell_formula_units_Z 88
_cell_length_a 28.090259
_cell_length_b 8.761656
_cell_length_c 25.128094
_cell_angle_alpha 90.000000
_cell_angle_beta 90.000000
_cell_angle_gamma 90.000000
_cell_volume 6184.455793
_symmetry_space_group_name_H-M "I M M M"
_symmetry_group_IT_number 71
_symmetry_cell_setting 'orthorhombic'
loop_
_space_group_symop_operation_xyz
x,y,z
-x,-y,z
x,-y,-z
-x,y,-z
-x,-y,-z
x,y,-z
-x,y,z
x,-y,z
1/2+x,1/2+y,1/2+z
1/2-x,1/2-y,1/2+z
1/2+x,1/2-y,1/2-z
1/2-x,1/2+y,1/2-z
1/2-x,1/2-y,1/2-z
1/2+x,1/2+y,1/2-z
1/2-x,1/2+y,1/2+z
1/2+x,1/2-y,1/2+z
loop_
_atom_site_type_symbol
_atom_site_label
_atom_site_fract_x
_atom_site_fract_y
_atom_site_fract_z
Si Si1 0.500000 0.179231 0.940547
Si Si2 0.673666 0.677074 0.829157
Si Si3 0.355315 0.820875 0.281305
Si Si4 0.736179 0.681217 0.692744
Si Si5 0.425759 0.325157 0.866050
Si Si6 0.946650 0.177577 0.246696
O O1 0.451977 0.229416 0.910975
O O2 0.500000 0.000000 0.943305
O O3 0.500000 0.249088 0.000000
O O4 0.680487 0.500000 0.813341
O O5 0.656771 0.771873 0.778315
O O6 0.724231 0.749533 0.848427
O O7 0.631680 0.694327 0.872900
O O8 0.317278 0.739153 0.321216
O O9 0.409716 0.766948 0.291802
O O10 0.350892 0.000000 0.289326
O O11 0.738393 0.500000 0.692319
O O12 0.750000 0.750000 0.750000
O O13 0.441171 0.500000 0.873144
O O14 0.442256 0.267411 0.807861
O O15 0.000000 0.210540 0.226009
O O16 0.933420 0.000000 0.243840
#
# Coordination Sequence:
#
# PCOD8286877 Si02
#       6
#     8  16  16  16  16  16
#     4  11  23  33  41  55  73  89 107 139 179 215
#     4   9  16  26  38  51  66  82 102 130 163 198
#     4  10  17  23  32  48  68  88 110 133 161 195
#     4  10  16  23  34  48  66  87 108 128 157 194
#     4   9  17  30  44  55  65  83 108 134 168 212
#     4   9  16  27  39  50  66  86 111 142 174 204
#
# _framework density 14.229222999999999
#
# number of rings (size 3 to 8) (size 9 to 14) (size 15 to 20)
#    0.000    2.455    0.909    7.364    0.000    4.727 
#    0.000    0.000    0.000    0.000    0.000    0.000 
#    0.000    0.000    0.000    0.000    0.000    0.000 
#
# Total GULP energy -545146.474013 kJ/mol
# GULP energy per Si atom -12389.692591 kJ/mol
# Density = 1.419684 g / cm^3
# Si number density = 14.229223 Si / 1000 Ang^3
#
#
#
# Elastic Constant Matrix: (Units=GPa)
#
#
# Indices 1 2 3 4 5 6 
#
# 1 136.9742 51.9974 25.9615 0.0000 0.0000 0.0000
# 2 51.9974 87.2383 12.3144 0.0000 0.0000 0.0000
# 3 25.9615 12.3144 16.1739 0.0000 0.0000 0.0000
# 4 0.0000 0.0000 0.0000 8.9988 0.0000 0.0000
# 5 0.0000 0.0000 0.0000 0.0000 6.8779 0.0000
# 6 0.0000 0.0000 0.0000 0.0000 0.0000 29.4830
#
#
#
# Elastic Compliance Matrix: (Units=1/GPa)
#
#
# Indices 1 2 3 4 5 6 
#
# 1 0.012201 -0.005051 -0.015739 0.000000 0.000000 0.000000
# 2 -0.005051 0.014934 -0.003263 0.000000 0.000000 0.000000
# 3 -0.015739 -0.003263 0.089576 0.000000 0.000000 0.000000
# 4 0.000000 0.000000 0.000000 0.111126 0.000000 0.000000
# 5 0.000000 0.000000 0.000000 0.000000 0.145394 0.000000
# 6 0.000000 0.000000 0.000000 0.000000 0.000000 0.033918
#
#
# Mechanical properties :
#
#
# Convention : Reuss Voigt Hill
#
# Bulk Modulus (GPa) = 14.57618 46.77032 30.67325
# Shear Modulus (GPa) = 10.45757 19.07949 14.76853
#
# Velocity S-wave (km/s) = 2.71391 3.66576 3.22514
# Velocity P-wave (km/s) = 4.48180 7.13145 5.95584
#
# Compressibility (1/GPa) = 0.06860506
#
# Stress axis : x y z
#
# Youngs Moduli (GPa) = 81.96035 66.96196 11.16369
#
# Poissons Ratio (x) = 0.33820 0.17571
# Poissons Ratio (y) = 0.41395 0.03643
# Poissons Ratio (z) = 1.28998 0.21852
#
# Static dielectric constant tensor:
#      x y z
#    x 3.866900 0.000000 0.000000 
#    y 0.000000 2.842470 0.000000 
#    z 0.000000 0.000000 2.204030 
# 
# 
# High freq. dielectric constant tensor:
#      x y z
#    x 1.572190 0.000000 0.000000 
#    y 0.000000 1.556030 0.000000 
#    z 0.000000 0.000000 1.435320 
# 
# From -- ./inp_files/67254.got.cif
#   From: 2010.06.25/outbox.cif.g09.slc.cpg/sg71_34_cif.got.tgz:67254.got - 2010.06.28 04:59:45.
