data_PCOD8286478
_publ_section_title
;
Structure prediction by ZEFSAII (Michael W. Deem and Ramdas Pophale) SiO2 
 PCOD8286478
Probable space group: F D D D
;
_chemical_formula_sum "Si O2"
_cell_formula_units_Z 112
_cell_length_a 22.539556
_cell_length_b 10.451432
_cell_length_c 21.461902
_cell_angle_alpha 90.000000
_cell_angle_beta 90.000000
_cell_angle_gamma 90.000000
_cell_volume 5055.793922
_symmetry_space_group_name_H-M "F D D D"
_symmetry_group_IT_number 70
_space_group.IT_coordinate_system_code '2'
_symmetry_cell_setting 'orthorhombic'
loop_
_space_group_symop_operation_xyz
x,y,z
1/4-x,1/4-y,z
x,1/4-y,1/4-z
1/4-x,y,1/4-z
-x,-y,-z
3/4+x,3/4+y,-z
-x,3/4+y,3/4+z
3/4+x,-y,3/4+z
x,1/2+y,1/2+z
1/4-x,3/4-y,1/2+z
x,3/4-y,3/4-z
1/4-x,1/2+y,3/4-z
-x,1/2-y,1/2-z
3/4+x,1/4+y,1/2-z
-x,1/4+y,1/4+z
3/4+x,1/2-y,1/4+z
1/2+x,y,1/2+z
3/4-x,1/4-y,1/2+z
1/2+x,1/4-y,3/4-z
3/4-x,y,3/4-z
1/2-x,-y,1/2-z
1/4+x,3/4+y,1/2-z
1/2-x,3/4+y,1/4+z
1/4+x,-y,1/4+z
1/2+x,1/2+y,z
3/4-x,3/4-y,z
1/2+x,3/4-y,1/4-z
3/4-x,1/2+y,1/4-z
1/2-x,1/2-y,-z
1/4+x,1/4+y,-z
1/2-x,1/4+y,3/4+z
1/4+x,1/2-y,3/4+z
loop_
_atom_site_type_symbol
_atom_site_label
_atom_site_fract_x
_atom_site_fract_y
_atom_site_fract_z
Si Si1 0.246365 0.375000 0.875000
Si Si2 0.060343 0.149666 0.697138
Si Si3 0.382480 0.016739 0.580510
Si Si4 0.042574 0.940464 0.225818
O O1 0.203325 0.294540 0.922090
O O2 0.287754 0.283560 0.833628
O O3 0.125000 0.125000 0.727056
O O4 0.060513 0.125000 0.625000
O O5 0.043605 0.296415 0.703306
O O6 0.015250 0.050452 0.730003
O O7 0.375000 0.875000 0.609680
O O8 0.351533 0.125000 0.625000
O O9 0.352367 0.021351 0.512656
#
# Coordination Sequence:
#
# PCOD8286478 Si02
#       4
#    16  32  32  32
#     4  10  26  42  69 106 135 182 242 278 356 414
#     4  10  23  41  68  99 130 178 232 280 345 428
#     4  10  25  44  70 101 139 182 235 286 347 420
#     4  11  23  43  70  96 141 179 223 291 352 406
#
# _framework density 22.152799999999999
#
# number of rings (size 3 to 8) (size 9 to 14) (size 15 to 20)
#    0.857    0.857    0.000    2.571   12.000    1.143 
#   10.286    0.000    0.000    0.000    0.000    0.000 
#    0.000    0.000    0.000    0.000    0.000    0.000 
#
# Total GULP energy -347101.013556 kJ/mol
# GULP energy per Si atom -12396.464770 kJ/mol
# Density = 2.210238 g / cm^3
# Si number density = 22.152800 Si / 1000 Ang^3
#
#
#
# Elastic Constant Matrix: (Units=GPa)
#
#
# Indices 1 2 3 4 5 6 
#
# 1 77.2780 21.3144 54.4381 0.0000 0.0000 0.0000
# 2 21.3144 140.2056 49.2339 0.0000 0.0000 0.0000
# 3 54.4381 49.2339 112.6619 0.0000 0.0000 0.0000
# 4 0.0000 0.0000 0.0000 25.0910 0.0000 0.0000
# 5 0.0000 0.0000 0.0000 0.0000 36.6291 0.0000
# 6 0.0000 0.0000 0.0000 0.0000 0.0000 27.0236
#
#
#
# Elastic Compliance Matrix: (Units=1/GPa)
#
#
# Indices 1 2 3 4 5 6 
#
# 1 0.019638 0.000410 -0.009668 0.000000 0.000000 0.000000
# 2 0.000410 0.008434 -0.003884 0.000000 0.000000 0.000000
# 3 -0.009668 -0.003884 0.015245 0.000000 0.000000 0.000000
# 4 0.000000 0.000000 0.000000 0.039855 0.000000 0.000000
# 5 0.000000 0.000000 0.000000 0.000000 0.027301 0.000000
# 6 0.000000 0.000000 0.000000 0.000000 0.000000 0.037005
#
#
# Mechanical properties :
#
#
# Convention : Reuss Voigt Hill
#
# Bulk Modulus (GPa) = 58.71089 64.45759 61.58424
# Shear Modulus (GPa) = 27.86472 31.42601 29.64537
#
# Velocity S-wave (km/s) = 3.55045 3.77052 3.66214
# Velocity P-wave (km/s) = 6.58543 6.93655 6.76327
#
# Compressibility (1/GPa) = 0.01703262
#
# Stress axis : x y z
#
# Youngs Moduli (GPa) = 50.92189 118.56986 65.59604
#
# Poissons Ratio (x) = -0.04856 0.63418
# Poissons Ratio (y) = -0.02086 0.25475
# Poissons Ratio (z) = 0.49231 0.46047
#
# Static dielectric constant tensor:
#      x y z
#    x 4.200950 0.000000 0.000000 
#    y 0.000000 4.253020 0.000000 
#    z 0.000000 0.000000 3.773590 
# 
# 
# High freq. dielectric constant tensor:
#      x y z
#    x 1.867930 0.000000 0.000000 
#    y 0.000000 1.879290 0.000000 
#    z 0.000000 0.000000 1.858910 
# 
# From -- ./inp_files/46550.got.cif
#   From: 2010.03.12/outbox.cif.g09.slc.cpg/sg70_24_cif.got.tgz:46550.got - 2010.04.16 13:46:32.
