data_PCOD8286576
_publ_section_title
;
Structure prediction by ZEFSAII (Michael W. Deem and Ramdas Pophale) SiO2 
 PCOD8286576
Probable space group: F D D D
;
_chemical_formula_sum "Si O2"
_cell_formula_units_Z 56
_cell_length_a 14.691043
_cell_length_b 8.580041
_cell_length_c 14.546031
_cell_angle_alpha 90.000000
_cell_angle_beta 90.000000
_cell_angle_gamma 90.000000
_cell_volume 1833.523590
_symmetry_space_group_name_H-M "F D D D"
_symmetry_group_IT_number 70
_space_group.IT_coordinate_system_code '2'
_symmetry_cell_setting 'orthorhombic'
loop_
_space_group_symop_operation_xyz
x,y,z
1/4-x,1/4-y,z
x,1/4-y,1/4-z
1/4-x,y,1/4-z
-x,-y,-z
3/4+x,3/4+y,-z
-x,3/4+y,3/4+z
3/4+x,-y,3/4+z
x,1/2+y,1/2+z
1/4-x,3/4-y,1/2+z
x,3/4-y,3/4-z
1/4-x,1/2+y,3/4-z
-x,1/2-y,1/2-z
3/4+x,1/4+y,1/2-z
-x,1/4+y,1/4+z
3/4+x,1/2-y,1/4+z
1/2+x,y,1/2+z
3/4-x,1/4-y,1/2+z
1/2+x,1/4-y,3/4-z
3/4-x,y,3/4-z
1/2-x,-y,1/2-z
1/4+x,3/4+y,1/2-z
1/2-x,3/4+y,1/4+z
1/4+x,-y,1/4+z
1/2+x,1/2+y,z
3/4-x,3/4-y,z
1/2+x,3/4-y,1/4-z
3/4-x,1/2+y,1/4-z
1/2-x,1/2-y,-z
1/4+x,1/4+y,-z
1/2-x,1/4+y,3/4+z
1/4+x,1/2-y,3/4+z
loop_
_atom_site_type_symbol
_atom_site_label
_atom_site_fract_x
_atom_site_fract_y
_atom_site_fract_z
Si Si1 0.625000 0.625000 0.895897
Si Si2 0.198772 0.922080 0.053545
Si Si3 0.625000 0.125000 0.125000
O O1 0.699527 0.718385 0.835733
O O2 0.682001 0.498968 0.954968
O O3 0.125000 0.992360 0.125000
O O4 0.186731 0.731268 0.055571
#
# Coordination Sequence:
#
# PCOD8286576 Si02
#       3
#    16  32   8
#     4  12  25  53  84 111 165 202 274 314 413 455
#     4  10  25  51  76 121 153 213 251 342 381 486
#     4   8  24  48  72 114 162 190 272 310 412 432
#
# _framework density 30.542283000000001
#
# number of rings (size 3 to 8) (size 9 to 14) (size 15 to 20)
#    1.714    0.000    0.000    2.571    0.000    4.571 
#   20.571    0.000    0.000    0.000    0.000    0.000 
#    0.000    0.000    0.000    0.000    0.000    0.000 
#
# Total GULP energy -173693.897393 kJ/mol
# GULP energy per Si atom -12406.706957 kJ/mol
# Density = 3.047277 g / cm^3
# Si number density = 30.542283 Si / 1000 Ang^3
#
#
#
# Elastic Constant Matrix: (Units=GPa)
#
#
# Indices 1 2 3 4 5 6 
#
# 1 280.3728 33.0242 103.5808 0.0000 0.0000 0.0000
# 2 33.0242 151.0762 48.1887 0.0000 0.0000 0.0000
# 3 103.5808 48.1887 118.7296 0.0000 0.0000 0.0000
# 4 0.0000 0.0000 0.0000 33.8947 0.0000 0.0000
# 5 0.0000 0.0000 0.0000 0.0000 65.2549 0.0000
# 6 0.0000 0.0000 0.0000 0.0000 0.0000 21.2747
#
#
#
# Elastic Compliance Matrix: (Units=1/GPa)
#
#
# Indices 1 2 3 4 5 6 
#
# 1 0.005280 0.000362 -0.004753 0.000000 0.000000 0.000000
# 2 0.000362 0.007628 -0.003412 0.000000 0.000000 0.000000
# 3 -0.004753 -0.003412 0.013954 0.000000 0.000000 0.000000
# 4 0.000000 0.000000 0.000000 0.029503 0.000000 0.000000
# 5 0.000000 0.000000 0.000000 0.000000 0.015325 0.000000
# 6 0.000000 0.000000 0.000000 0.000000 0.000000 0.047004
#
#
# Mechanical properties :
#
#
# Convention : Reuss Voigt Hill
#
# Bulk Modulus (GPa) = 88.84092 102.19623 95.51857
# Shear Modulus (GPa) = 36.21798 48.44385 42.33091
#
# Velocity S-wave (km/s) = 3.44733 3.98694 3.72691
# Velocity P-wave (km/s) = 6.70794 7.39780 7.06130
#
# Compressibility (1/GPa) = 0.01125607
#
# Stress axis : x y z
#
# Youngs Moduli (GPa) = 189.38975 131.09005 71.66327
#
# Poissons Ratio (x) = -0.04745 0.34064
# Poissons Ratio (y) = -0.06855 0.24451
# Poissons Ratio (z) = 0.90023 0.44727
#
# Static dielectric constant tensor:
#      x y z
#    x 5.627770 0.000000 0.000000 
#    y 0.000000 5.203470 0.000000 
#    z 0.000000 0.000000 5.416640 
# 
# 
# High freq. dielectric constant tensor:
#      x y z
#    x 2.273680 0.000000 0.000000 
#    y 0.000000 2.250790 0.000000 
#    z 0.000000 0.000000 2.260880 
# 
# From -- ./inp_files/5466.got.cif
#   From: 2010.03.12/outbox.cif.g09.slc.cpg/sg70_3_cif.got.tgz:5466.got - 2010.04.16 13:46:32.
