data_PCOD8286648
_publ_section_title
;
Structure prediction by ZEFSAII (Michael W. Deem and Ramdas Pophale) SiO2 
 PCOD8286648
Probable space group: F D D D
;
_chemical_formula_sum "Si O2"
_cell_formula_units_Z 112
_cell_length_a 11.129732
_cell_length_b 14.624434
_cell_length_c 30.000968
_cell_angle_alpha 90.000000
_cell_angle_beta 90.000000
_cell_angle_gamma 90.000000
_cell_volume 4883.138490
_symmetry_space_group_name_H-M "F D D D"
_symmetry_group_IT_number 70
_space_group.IT_coordinate_system_code '2'
_symmetry_cell_setting 'orthorhombic'
loop_
_space_group_symop_operation_xyz
x,y,z
1/4-x,1/4-y,z
x,1/4-y,1/4-z
1/4-x,y,1/4-z
-x,-y,-z
3/4+x,3/4+y,-z
-x,3/4+y,3/4+z
3/4+x,-y,3/4+z
x,1/2+y,1/2+z
1/4-x,3/4-y,1/2+z
x,3/4-y,3/4-z
1/4-x,1/2+y,3/4-z
-x,1/2-y,1/2-z
3/4+x,1/4+y,1/2-z
-x,1/4+y,1/4+z
3/4+x,1/2-y,1/4+z
1/2+x,y,1/2+z
3/4-x,1/4-y,1/2+z
1/2+x,1/4-y,3/4-z
3/4-x,y,3/4-z
1/2-x,-y,1/2-z
1/4+x,3/4+y,1/2-z
1/2-x,3/4+y,1/4+z
1/4+x,-y,1/4+z
1/2+x,1/2+y,z
3/4-x,3/4-y,z
1/2+x,3/4-y,1/4-z
3/4-x,1/2+y,1/4-z
1/2-x,1/2-y,-z
1/4+x,1/4+y,-z
1/2-x,1/4+y,3/4+z
1/4+x,1/2-y,3/4+z
loop_
_atom_site_type_symbol
_atom_site_label
_atom_site_fract_x
_atom_site_fract_y
_atom_site_fract_z
Si Si1 0.125937 0.225274 0.977290
Si Si2 0.199369 0.031997 0.070214
Si Si3 0.875000 0.123907 0.375000
Si Si4 0.818713 0.720547 0.633324
O O1 0.125000 0.125000 0.956042
O O2 0.102123 0.290784 0.935657
O O3 0.250000 0.250000 0.000000
O O4 0.024831 0.227586 0.017049
O O5 0.125000 0.125000 0.080009
O O6 0.316908 0.027358 0.100708
O O7 0.119071 0.942076 0.082485
O O8 0.758626 0.059807 0.373379
O O9 0.748381 0.625000 0.625000
#
# Coordination Sequence:
#
# PCOD8286648 Si02
#       4
#    32  32  16  32
#     4  11  22  39  66  98 125 161 220 281 325 376
#     4  11  23  42  70  99 124 166 229 278 322 386
#     4  12  24  42  62  94 136 176 206 264 342 398
#     4  12  25  43  65  94 135 177 217 268 328 394
#
# _framework density 22.936069
#
# number of rings (size 3 to 8) (size 9 to 14) (size 15 to 20)
#    0.000    0.571    0.000   12.000    0.000    1.143 
#    0.000    8.571    0.000    0.000    0.000    0.000 
#    0.000    0.000    0.000    0.000    0.000    0.000 
#
# Total GULP energy -346926.941450 kJ/mol
# GULP energy per Si atom -12390.247909 kJ/mol
# Density = 2.288387 g / cm^3
# Si number density = 22.936069 Si / 1000 Ang^3
#
#
#
# Elastic Constant Matrix: (Units=GPa)
#
#
# Indices 1 2 3 4 5 6 
#
# 1 104.4498 58.5667 55.0872 0.0000 0.0000 0.0000
# 2 58.5667 201.8156 59.6521 0.0000 0.0000 0.0000
# 3 55.0872 59.6521 192.1315 0.0000 0.0000 0.0000
# 4 0.0000 0.0000 0.0000 39.5449 0.0000 0.0000
# 5 0.0000 0.0000 0.0000 0.0000 13.3407 0.0000
# 6 0.0000 0.0000 0.0000 0.0000 0.0000 42.2143
#
#
#
# Elastic Compliance Matrix: (Units=1/GPa)
#
#
# Indices 1 2 3 4 5 6 
#
# 1 0.012614 -0.002853 -0.002731 0.000000 0.000000 0.000000
# 2 -0.002853 0.006101 -0.001076 0.000000 0.000000 0.000000
# 3 -0.002731 -0.001076 0.006322 0.000000 0.000000 0.000000
# 4 0.000000 0.000000 0.000000 0.025288 0.000000 0.000000
# 5 0.000000 0.000000 0.000000 0.000000 0.074959 0.000000
# 6 0.000000 0.000000 0.000000 0.000000 0.000000 0.023689
#
#
# Mechanical properties :
#
#
# Convention : Reuss Voigt Hill
#
# Bulk Modulus (GPa) = 85.34992 93.88986 89.61989
# Shear Modulus (GPa) = 30.08450 40.69269 35.38860
#
# Velocity S-wave (km/s) = 3.62562 4.21667 3.93227
# Velocity P-wave (km/s) = 7.40404 8.04558 7.73147
#
# Compressibility (1/GPa) = 0.01171647
#
# Stress axis : x y z
#
# Youngs Moduli (GPa) = 79.27587 163.90294 158.18197
#
# Poissons Ratio (x) = 0.46769 0.43196
# Poissons Ratio (y) = 0.22621 0.17022
# Poissons Ratio (z) = 0.21648 0.17638
#
# Static dielectric constant tensor:
#      x y z
#    x 4.044170 0.000000 0.000000 
#    y 0.000000 6.611640 0.000000 
#    z 0.000000 0.000000 4.067630 
# 
# 
# High freq. dielectric constant tensor:
#      x y z
#    x 1.876130 0.000000 0.000000 
#    y 0.000000 1.932110 0.000000 
#    z 0.000000 0.000000 1.923920 
# 
# From -- ./inp_files/64380.got.cif
#   From: 2010.03.12/outbox.cif.g09.slc.cpg/sg70_33_cif.got.tgz:64380.got - 2010.04.16 13:46:32.
