data_PCOD8286717
_publ_section_title
;
Structure prediction by ZEFSAII (Michael W. Deem and Ramdas Pophale) SiO2 
 PCOD8286717
Probable space group: F D D D
;
_chemical_formula_sum "Si O2"
_cell_formula_units_Z 160
_cell_length_a 18.867692
_cell_length_b 20.407553
_cell_length_c 18.554119
_cell_angle_alpha 90.000000
_cell_angle_beta 90.000000
_cell_angle_gamma 90.000000
_cell_volume 7144.141518
_symmetry_space_group_name_H-M "F D D D"
_symmetry_group_IT_number 70
_space_group.IT_coordinate_system_code '2'
_symmetry_cell_setting 'orthorhombic'
loop_
_space_group_symop_operation_xyz
x,y,z
1/4-x,1/4-y,z
x,1/4-y,1/4-z
1/4-x,y,1/4-z
-x,-y,-z
3/4+x,3/4+y,-z
-x,3/4+y,3/4+z
3/4+x,-y,3/4+z
x,1/2+y,1/2+z
1/4-x,3/4-y,1/2+z
x,3/4-y,3/4-z
1/4-x,1/2+y,3/4-z
-x,1/2-y,1/2-z
3/4+x,1/4+y,1/2-z
-x,1/4+y,1/4+z
3/4+x,1/2-y,1/4+z
1/2+x,y,1/2+z
3/4-x,1/4-y,1/2+z
1/2+x,1/4-y,3/4-z
3/4-x,y,3/4-z
1/2-x,-y,1/2-z
1/4+x,3/4+y,1/2-z
1/2-x,3/4+y,1/4+z
1/4+x,-y,1/4+z
1/2+x,1/2+y,z
3/4-x,3/4-y,z
1/2+x,3/4-y,1/4-z
3/4-x,1/2+y,1/4-z
1/2-x,1/2-y,-z
1/4+x,1/4+y,-z
1/2-x,1/4+y,3/4+z
1/4+x,1/2-y,3/4+z
loop_
_atom_site_type_symbol
_atom_site_label
_atom_site_fract_x
_atom_site_fract_y
_atom_site_fract_z
Si Si1 0.447055 0.913071 0.666242
Si Si2 0.805021 0.727446 0.282264
Si Si3 0.059372 0.267279 0.176574
Si Si4 0.287195 0.708467 0.939756
Si Si5 0.977809 0.645959 0.701979
O O1 0.375000 0.875000 0.642147
O O2 0.483036 0.955845 0.602918
O O3 0.505540 0.862885 0.691124
O O4 0.433752 0.957690 0.735963
O O5 0.881569 0.695418 0.292176
O O6 0.774586 0.743578 0.361806
O O7 0.755434 0.672045 0.244463
O O8 0.125000 0.280687 0.125000
O O9 0.074166 0.306644 0.251125
O O10 0.049527 0.188959 0.188568
O O11 0.250000 0.750000 0.000000
O O12 0.943332 0.625000 0.625000
#
# Coordination Sequence:
#
# PCOD8286717 Si02
#       5
#    32  32  32  32  32
#     4  12  24  46  73 105 138 186 241 297 360 427
#     4  11  24  47  71 102 149 178 243 297 355 435
#     4  11  25  49  74 101 151 194 237 300 373 432
#     4  11  24  47  71  98 140 193 230 300 362 415
#     4  11  23  46  71 106 143 189 241 294 353 444
#
# _framework density 22.395973000000001
#
# number of rings (size 3 to 8) (size 9 to 14) (size 15 to 20)
#    0.000    0.800    6.000    1.200    0.000    1.200 
#   25.200    0.000    0.000    0.000    0.000    0.000 
#    0.000    0.000    0.000    0.000    0.000    0.000 
#
# Total GULP energy -495709.105263 kJ/mol
# GULP energy per Si atom -12392.727632 kJ/mol
# Density = 2.234500 g / cm^3
# Si number density = 22.395973 Si / 1000 Ang^3
#
#
#
# Elastic Constant Matrix: (Units=GPa)
#
#
# Indices 1 2 3 4 5 6 
#
# 1 97.3022 35.8135 54.8482 0.0000 0.0000 0.0000
# 2 35.8135 82.8642 51.0422 0.0000 0.0000 0.0000
# 3 54.8482 51.0422 170.8619 0.0000 0.0000 0.0000
# 4 0.0000 0.0000 0.0000 37.5971 0.0000 0.0000
# 5 0.0000 0.0000 0.0000 0.0000 31.7804 0.0000
# 6 0.0000 0.0000 0.0000 0.0000 0.0000 35.3409
#
#
#
# Elastic Compliance Matrix: (Units=1/GPa)
#
#
# Indices 1 2 3 4 5 6 
#
# 1 0.013493 -0.003877 -0.003173 0.000000 0.000000 0.000000
# 2 -0.003877 0.015903 -0.003506 0.000000 0.000000 0.000000
# 3 -0.003173 -0.003506 0.007919 0.000000 0.000000 0.000000
# 4 0.000000 0.000000 0.000000 0.026598 0.000000 0.000000
# 5 0.000000 0.000000 0.000000 0.000000 0.031466 0.000000
# 6 0.000000 0.000000 0.000000 0.000000 0.000000 0.028296
#
#
# Mechanical properties :
#
#
# Convention : Reuss Voigt Hill
#
# Bulk Modulus (GPa) = 61.72044 70.49288 66.10666
# Shear Modulus (GPa) = 33.29154 34.89862 34.09508
#
# Velocity S-wave (km/s) = 3.85969 3.95176 3.90600
# Velocity P-wave (km/s) = 6.89068 7.23643 7.06567
#
# Compressibility (1/GPa) = 0.01620209
#
# Stress axis : x y z
#
# Youngs Moduli (GPa) = 74.11293 62.87978 126.28261
#
# Poissons Ratio (x) = 0.24378 0.40071
# Poissons Ratio (y) = 0.28734 0.44279
# Poissons Ratio (z) = 0.23517 0.22048
#
# Static dielectric constant tensor:
#      x y z
#    x 3.882050 0.000000 0.000000 
#    y 0.000000 4.093970 0.000000 
#    z 0.000000 0.000000 4.454750 
# 
# 
# High freq. dielectric constant tensor:
#      x y z
#    x 1.851190 0.000000 0.000000 
#    y 0.000000 1.895340 0.000000 
#    z 0.000000 0.000000 1.902570 
# 
# From -- ./inp_files/36307.got.cif
#   From: 2010.03.12/outbox.cif.g09.slc.cpg/sg70_19_cif.got.tgz:36307.got - 2010.04.16 13:46:32.
