data_PCOD8286951
_publ_section_title
;
Structure prediction by ZEFSAII (Michael W. Deem and Ramdas Pophale) SiO2 
 PCOD8286951
Probable space group: I M M M
;
_chemical_formula_sum "Si O2"
_cell_formula_units_Z 64
_cell_length_a 9.297319
_cell_length_b 28.291700
_cell_length_c 14.525518
_cell_angle_alpha 90.000000
_cell_angle_beta 90.000000
_cell_angle_gamma 90.000000
_cell_volume 3820.748096
_symmetry_space_group_name_H-M "I M M M"
_symmetry_group_IT_number 71
_symmetry_cell_setting 'orthorhombic'
loop_
_space_group_symop_operation_xyz
x,y,z
-x,-y,z
x,-y,-z
-x,y,-z
-x,-y,-z
x,y,-z
-x,y,z
x,-y,z
1/2+x,1/2+y,1/2+z
1/2-x,1/2-y,1/2+z
1/2+x,1/2-y,1/2-z
1/2-x,1/2+y,1/2-z
1/2-x,1/2-y,1/2-z
1/2+x,1/2+y,1/2-z
1/2-x,1/2+y,1/2+z
1/2+x,1/2-y,1/2+z
loop_
_atom_site_type_symbol
_atom_site_label
_atom_site_fract_x
_atom_site_fract_y
_atom_site_fract_z
Si Si1 0.332506 0.173204 0.393987
Si Si2 0.170719 0.779501 0.898405
Si Si3 0.828771 0.136701 0.770161
Si Si4 0.329194 0.447370 0.602848
O O1 0.301988 0.160269 0.500000
O O2 0.500000 0.167573 0.371063
O O3 0.278990 0.226618 0.372497
O O4 0.241839 0.137409 0.330719
O O5 0.228719 0.817356 0.825315
O O6 0.000000 0.780859 0.901598
O O7 0.229825 0.792858 0.000000
O O8 0.770667 0.090440 0.823643
O O9 0.000000 0.136337 0.760297
O O10 0.271954 0.435288 0.500000
O O11 0.500000 0.444993 0.601049
O O12 0.277835 0.500000 0.631849
#
# Coordination Sequence:
#
# PCOD8286951 Si02
#       4
#    16  16  16  16
#     4   9  18  31  43  56  82 119 148 170 204 249
#     4   8  14  25  41  62  87 113 140 168 202 249
#     4  10  17  25  44  69  86 105 139 179 210 239
#     4   8  14  25  42  66  93 114 132 161 206 257
#
# _framework density 16.750647000000001
#
# number of rings (size 3 to 8) (size 9 to 14) (size 15 to 20)
#    0.000    3.250    0.000    3.750    0.000    3.500 
#    0.000    0.000    0.000    6.000    0.000    7.000 
#    0.000    0.000    0.000    0.000    0.000    0.000 
#
# Total GULP energy -396602.572095 kJ/mol
# GULP energy per Si atom -12393.830378 kJ/mol
# Density = 1.671252 g / cm^3
# Si number density = 16.750647 Si / 1000 Ang^3
#
#
#
# Elastic Constant Matrix: (Units=GPa)
#
#
# Indices 1 2 3 4 5 6 
#
# 1 21.7388 25.0694 33.8645 0.0000 0.0000 0.0000
# 2 25.0694 104.3258 78.1920 0.0000 0.0000 0.0000
# 3 33.8645 78.1920 122.9476 -0.0001 0.0000 0.0000
# 4 0.0000 0.0000 -0.0001 29.9310 0.0000 0.0000
# 5 0.0000 0.0000 0.0000 0.0000 25.2171 0.0000
# 6 0.0000 0.0000 0.0000 0.0000 0.0000 12.8577
#
#
#
# Elastic Compliance Matrix: (Units=1/GPa)
#
#
# Indices 1 2 3 4 5 6 
#
# 1 0.082083 -0.005311 -0.019232 0.000000 0.000000 0.000000
# 2 -0.005311 0.018659 -0.010404 0.000000 0.000000 0.000000
# 3 -0.019232 -0.010404 0.020048 0.000000 0.000000 0.000000
# 4 0.000000 0.000000 0.000000 0.033410 0.000000 0.000000
# 5 0.000000 0.000000 0.000000 0.000000 0.039656 0.000000
# 6 0.000000 0.000000 0.000000 0.000000 0.000000 0.077774
#
#
# Mechanical properties :
#
#
# Convention : Reuss Voigt Hill
#
# Bulk Modulus (GPa) = 19.64725 58.14043 38.89384
# Shear Modulus (GPa) = 13.94742 21.06025 17.50384
#
# Velocity S-wave (km/s) = 2.88870 3.54966 3.23610
# Velocity P-wave (km/s) = 4.78339 7.18226 6.10187
#
# Compressibility (1/GPa) = 0.05089770
#
# Stress axis : x y z
#
# Youngs Moduli (GPa) = 12.18273 53.59213 49.88142
#
# Poissons Ratio (x) = 0.28460 0.95930
# Poissons Ratio (y) = 0.06470 0.51898
# Poissons Ratio (z) = 0.23429 0.55759
#
# Static dielectric constant tensor:
#      x y z
#    x 2.573080 0.000000 0.000000 
#    y 0.000000 3.292620 0.000000 
#    z 0.000000 0.000000 3.224600 
# 
# 
# High freq. dielectric constant tensor:
#      x y z
#    x 1.590810 0.000000 0.000000 
#    y 0.000000 1.633080 0.000000 
#    z 0.000000 0.000000 1.648760 
# 
# From -- ./inp_files/6315.got.cif
#   From: 2010.06.25/outbox.cif.g09.slc.cpg/sg71_4_cif.got.tgz:6315.got - 2010.06.28 04:59:45.
