data_PCOD8286145
_publ_section_title
;
Structure prediction by ZEFSAII (Michael W. Deem and Ramdas Pophale) SiO2 
 PCOD8286145
Probable space group: F D D D
;
_chemical_formula_sum "Si O2"
_cell_formula_units_Z 168
_cell_length_a 20.748031
_cell_length_b 18.547120
_cell_length_c 21.384002
_cell_angle_alpha 90.000000
_cell_angle_beta 90.000000
_cell_angle_gamma 90.000000
_cell_volume 8228.910834
_symmetry_space_group_name_H-M "F D D D"
_symmetry_group_IT_number 70
_space_group.IT_coordinate_system_code '2'
_symmetry_cell_setting 'orthorhombic'
loop_
_space_group_symop_operation_xyz
x,y,z
1/4-x,1/4-y,z
x,1/4-y,1/4-z
1/4-x,y,1/4-z
-x,-y,-z
3/4+x,3/4+y,-z
-x,3/4+y,3/4+z
3/4+x,-y,3/4+z
x,1/2+y,1/2+z
1/4-x,3/4-y,1/2+z
x,3/4-y,3/4-z
1/4-x,1/2+y,3/4-z
-x,1/2-y,1/2-z
3/4+x,1/4+y,1/2-z
-x,1/4+y,1/4+z
3/4+x,1/2-y,1/4+z
1/2+x,y,1/2+z
3/4-x,1/4-y,1/2+z
1/2+x,1/4-y,3/4-z
3/4-x,y,3/4-z
1/2-x,-y,1/2-z
1/4+x,3/4+y,1/2-z
1/2-x,3/4+y,1/4+z
1/4+x,-y,1/4+z
1/2+x,1/2+y,z
3/4-x,3/4-y,z
1/2+x,3/4-y,1/4-z
3/4-x,1/2+y,1/4-z
1/2-x,1/2-y,-z
1/4+x,1/4+y,-z
1/2-x,1/4+y,3/4+z
1/4+x,1/2-y,3/4+z
loop_
_atom_site_type_symbol
_atom_site_label
_atom_site_fract_x
_atom_site_fract_y
_atom_site_fract_z
Si Si1 0.825230 0.695891 0.453765
Si Si2 0.375000 0.875000 0.375000
Si Si3 0.727021 0.307175 0.916865
Si Si4 0.451299 0.637188 0.920806
Si Si5 0.835030 0.440658 0.578504
Si Si6 0.070476 0.512746 0.529427
O O1 0.793921 0.774447 0.442531
O O2 0.814000 0.666868 0.523656
O O3 0.791536 0.640919 0.404532
O O4 0.902184 0.700611 0.442402
O O5 0.327728 0.826427 0.418917
O O6 0.744454 0.375000 0.875000
O O7 0.683497 0.249706 0.879487
O O8 0.520907 0.653161 0.951955
O O9 0.416299 0.562807 0.936975
O O10 0.875000 0.375000 0.610124
O O11 0.876182 0.476605 0.523714
O O12 0.000000 0.500000 0.500000
#
# Coordination Sequence:
#
# PCOD8286145 Si02
#       6
#    32   8  32  32  32  32
#     4   9  20  40  62  94 121 163 212 250 327 376
#     4  12  24  40  68  96 128 168 214 268 320 388
#     4  10  21  40  66  93 127 162 214 266 311 384
#     4  10  20  41  66  85 131 165 200 267 315 379
#     4  11  22  43  62  92 129 166 212 264 318 380
#     4  12  23  43  64  95 128 168 219 261 322 388
#
# _framework density 20.415824000000001
#
# number of rings (size 3 to 8) (size 9 to 14) (size 15 to 20)
#    0.000    1.524    2.857    2.286    0.000    0.000 
#    8.571   24.762    0.000    0.000    0.000    0.000 
#    0.000    0.000    0.000    0.000    0.000    0.000 
#
# Total GULP energy -520476.853958 kJ/mol
# GULP energy per Si atom -12392.306047 kJ/mol
# Density = 2.036936 g / cm^3
# Si number density = 20.415824 Si / 1000 Ang^3
#
#
#
# Elastic Constant Matrix: (Units=GPa)
#
#
# Indices 1 2 3 4 5 6 
#
# 1 152.1499 51.7391 48.4969 0.0000 0.0000 0.0000
# 2 51.7391 110.5580 55.3326 0.0000 0.0000 0.0000
# 3 48.4969 55.3326 124.0921 0.0000 0.0000 0.0000
# 4 0.0000 0.0000 0.0000 34.7617 0.0000 0.0000
# 5 0.0000 0.0000 0.0000 0.0000 27.6524 0.0000
# 6 0.0000 0.0000 0.0000 0.0000 0.0000 30.5966
#
#
#
# Elastic Compliance Matrix: (Units=1/GPa)
#
#
# Indices 1 2 3 4 5 6 
#
# 1 0.008154 -0.002859 -0.001912 0.000000 0.000000 0.000000
# 2 -0.002859 0.012646 -0.004521 0.000000 0.000000 0.000000
# 3 -0.001912 -0.004521 0.010822 0.000000 0.000000 0.000000
# 4 0.000000 0.000000 0.000000 0.028767 0.000000 0.000000
# 5 0.000000 0.000000 0.000000 0.000000 0.036163 0.000000
# 6 0.000000 0.000000 0.000000 0.000000 0.000000 0.032683
#
#
# Mechanical properties :
#
#
# Convention : Reuss Voigt Hill
#
# Bulk Modulus (GPa) = 76.70448 77.54858 77.12653
# Shear Modulus (GPa) = 32.85879 34.01757 33.43818
#
# Velocity S-wave (km/s) = 4.01618 4.08638 4.05143
# Velocity P-wave (km/s) = 7.69148 7.76735 7.72951
#
# Compressibility (1/GPa) = 0.01303705
#
# Stress axis : x y z
#
# Youngs Moduli (GPa) = 122.63755 79.07666 92.40593
#
# Poissons Ratio (x) = 0.22609 0.17667
# Poissons Ratio (y) = 0.35064 0.41781
# Poissons Ratio (z) = 0.23447 0.35754
#
# Static dielectric constant tensor:
#      x y z
#    x 3.827830 0.000000 0.000000 
#    y 0.000000 3.896670 0.000000 
#    z 0.000000 0.000000 3.871420 
# 
# 
# High freq. dielectric constant tensor:
#      x y z
#    x 1.802390 0.000000 0.000000 
#    y 0.000000 1.795260 0.000000 
#    z 0.000000 0.000000 1.800690 
# 
# From -- ./inp_files/45881.got.cif
#   From: 2010.03.12/outbox.cif.g09.slc.cpg/sg70_23_cif.got.tgz:45881.got - 2010.04.16 13:46:32.
