data_PCOD8286082
_publ_section_title
;
Structure prediction by ZEFSAII (Michael W. Deem and Ramdas Pophale) SiO2 
 PCOD8286082
Probable space group: F D D D
;
_chemical_formula_sum "Si O2"
_cell_formula_units_Z 208
_cell_length_a 25.426581
_cell_length_b 22.721442
_cell_length_c 18.485783
_cell_angle_alpha 90.000000
_cell_angle_beta 90.000000
_cell_angle_gamma 90.000000
_cell_volume 10679.765264
_symmetry_space_group_name_H-M "F D D D"
_symmetry_group_IT_number 70
_space_group.IT_coordinate_system_code '2'
_symmetry_cell_setting 'orthorhombic'
loop_
_space_group_symop_operation_xyz
x,y,z
1/4-x,1/4-y,z
x,1/4-y,1/4-z
1/4-x,y,1/4-z
-x,-y,-z
3/4+x,3/4+y,-z
-x,3/4+y,3/4+z
3/4+x,-y,3/4+z
x,1/2+y,1/2+z
1/4-x,3/4-y,1/2+z
x,3/4-y,3/4-z
1/4-x,1/2+y,3/4-z
-x,1/2-y,1/2-z
3/4+x,1/4+y,1/2-z
-x,1/4+y,1/4+z
3/4+x,1/2-y,1/4+z
1/2+x,y,1/2+z
3/4-x,1/4-y,1/2+z
1/2+x,1/4-y,3/4-z
3/4-x,y,3/4-z
1/2-x,-y,1/2-z
1/4+x,3/4+y,1/2-z
1/2-x,3/4+y,1/4+z
1/4+x,-y,1/4+z
1/2+x,1/2+y,z
3/4-x,3/4-y,z
1/2+x,3/4-y,1/4-z
3/4-x,1/2+y,1/4-z
1/2-x,1/2-y,-z
1/4+x,1/4+y,-z
1/2-x,1/4+y,3/4+z
1/4+x,1/2-y,3/4+z
loop_
_atom_site_type_symbol
_atom_site_label
_atom_site_fract_x
_atom_site_fract_y
_atom_site_fract_z
Si Si1 0.456649 0.652942 0.239684
Si Si2 0.424772 0.212964 0.186810
Si Si3 0.998867 0.326542 0.111298
Si Si4 0.944236 0.040336 0.156969
Si Si5 0.148982 0.870398 0.697102
Si Si6 0.317111 0.402809 0.231601
Si Si7 0.753179 0.875000 0.375000
O O1 0.497762 0.672057 0.301385
O O2 0.460468 0.583009 0.222924
O O3 0.470261 0.688539 0.167816
O O4 0.396457 0.666085 0.262346
O O5 0.368530 0.212435 0.147593
O O6 0.426188 0.169866 0.255146
O O7 0.435605 0.276618 0.222337
O O8 0.466790 0.184888 0.129232
O O9 0.967395 0.272777 0.076788
O O10 0.966224 0.383460 0.088045
O O11 0.056756 0.324041 0.076846
O O12 0.125000 0.901190 0.625000
O O13 0.375000 0.375000 0.228534
O O14 0.290296 0.377380 0.304513
#
# Coordination Sequence:
#
# PCOD8286082 Si02
#       7
#    32  32  32  32  32  32  16
#     4   9  20  38  62  92 115 158 207 253 303 371
#     4  11  22  42  61  88 126 166 213 256 307 378
#     4  11  21  38  59  89 123 157 202 255 314 358
#     4  10  20  38  64  88 124 156 204 257 308 371
#     4   9  19  36  61  89 115 153 211 251 297 361
#     4  12  26  43  58  92 132 165 208 262 321 376
#     4  12  25  40  66  86 120 176 221 252 314 374
#
# _framework density 19.476084
#
# number of rings (size 3 to 8) (size 9 to 14) (size 15 to 20)
#    0.000    1.538    3.077    3.000    0.000    2.462 
#    0.000    0.000    0.000    0.000    0.000    8.615 
#    0.000    0.000    0.000    0.000    0.000    0.000 
#
# Total GULP energy -644452.544202 kJ/mol
# GULP energy per Si atom -12393.318158 kJ/mol
# Density = 1.943176 g / cm^3
# Si number density = 19.476084 Si / 1000 Ang^3
#
#
#
# Elastic Constant Matrix: (Units=GPa)
#
#
# Indices 1 2 3 4 5 6 
#
# 1 84.5104 23.6937 33.3782 0.0000 0.0000 0.0000
# 2 23.6937 73.3223 18.2773 0.0000 0.0000 0.0000
# 3 33.3782 18.2773 82.4583 0.0000 0.0000 0.0000
# 4 0.0000 0.0000 0.0000 20.6684 0.0000 0.0000
# 5 0.0000 0.0000 0.0000 0.0000 29.6908 0.0000
# 6 0.0000 0.0000 0.0000 0.0000 0.0000 29.0293
#
#
#
# Elastic Compliance Matrix: (Units=1/GPa)
#
#
# Indices 1 2 3 4 5 6 
#
# 1 0.014888 -0.003502 -0.005250 0.000000 0.000000 0.000000
# 2 -0.003502 0.015260 -0.001965 0.000000 0.000000 0.000000
# 3 -0.005250 -0.001965 0.014688 0.000000 0.000000 0.000000
# 4 0.000000 0.000000 0.000000 0.048383 0.000000 0.000000
# 5 0.000000 0.000000 0.000000 0.000000 0.033680 0.000000
# 6 0.000000 0.000000 0.000000 0.000000 0.000000 0.034448
#
#
# Mechanical properties :
#
#
# Convention : Reuss Voigt Hill
#
# Bulk Modulus (GPa) = 42.73205 43.44325 43.08765
# Shear Modulus (GPa) = 26.23523 26.87383 26.55453
#
# Velocity S-wave (km/s) = 3.67420 3.71865 3.69649
# Velocity P-wave (km/s) = 6.32361 6.38687 6.35532
#
# Compressibility (1/GPa) = 0.02340164
#
# Stress axis : x y z
#
# Youngs Moduli (GPa) = 67.16598 65.53109 68.08220
#
# Poissons Ratio (x) = 0.22951 0.35746
# Poissons Ratio (y) = 0.23524 0.13376
# Poissons Ratio (z) = 0.35265 0.12875
#
# Static dielectric constant tensor:
#      x y z
#    x 3.684720 0.000000 0.000000 
#    y 0.000000 3.481910 0.000000 
#    z 0.000000 0.000000 3.652160 
# 
# 
# High freq. dielectric constant tensor:
#      x y z
#    x 1.762470 0.000000 0.000000 
#    y 0.000000 1.743130 0.000000 
#    z 0.000000 0.000000 1.765750 
# 
# From -- ./inp_files/38744.got.cif
#   From: 2010.03.12/outbox.cif.g09.slc.cpg/sg70_20_cif.got.tgz:38744.got - 2010.04.16 13:46:32.
