data_PCOD8286716
_publ_section_title
;
Structure prediction by ZEFSAII (Michael W. Deem and Ramdas Pophale) SiO2 
 PCOD8286716
Probable space group: F D D D
;
_chemical_formula_sum "Si O2"
_cell_formula_units_Z 160
_cell_length_a 27.434322
_cell_length_b 22.284237
_cell_length_c 12.132615
_cell_angle_alpha 90.000000
_cell_angle_beta 90.000000
_cell_angle_gamma 90.000000
_cell_volume 7417.309770
_symmetry_space_group_name_H-M "F D D D"
_symmetry_group_IT_number 70
_space_group.IT_coordinate_system_code '2'
_symmetry_cell_setting 'orthorhombic'
loop_
_space_group_symop_operation_xyz
x,y,z
1/4-x,1/4-y,z
x,1/4-y,1/4-z
1/4-x,y,1/4-z
-x,-y,-z
3/4+x,3/4+y,-z
-x,3/4+y,3/4+z
3/4+x,-y,3/4+z
x,1/2+y,1/2+z
1/4-x,3/4-y,1/2+z
x,3/4-y,3/4-z
1/4-x,1/2+y,3/4-z
-x,1/2-y,1/2-z
3/4+x,1/4+y,1/2-z
-x,1/4+y,1/4+z
3/4+x,1/2-y,1/4+z
1/2+x,y,1/2+z
3/4-x,1/4-y,1/2+z
1/2+x,1/4-y,3/4-z
3/4-x,y,3/4-z
1/2-x,-y,1/2-z
1/4+x,3/4+y,1/2-z
1/2-x,3/4+y,1/4+z
1/4+x,-y,1/4+z
1/2+x,1/2+y,z
3/4-x,3/4-y,z
1/2+x,3/4-y,1/4-z
3/4-x,1/2+y,1/4-z
1/2-x,1/2-y,-z
1/4+x,1/4+y,-z
1/2-x,1/4+y,3/4+z
1/4+x,1/2-y,3/4+z
loop_
_atom_site_type_symbol
_atom_site_label
_atom_site_fract_x
_atom_site_fract_y
_atom_site_fract_z
Si Si1 0.125000 0.816420 0.625000
Si Si2 0.630276 0.532352 0.300235
Si Si3 0.836776 0.491367 0.787931
Si Si4 0.032307 0.125000 0.625000
Si Si5 0.531452 0.892983 0.070531
Si Si6 0.796355 0.869032 0.751964
O O1 0.111855 0.778613 0.733520
O O2 0.078878 0.856796 0.600998
O O3 0.615275 0.520110 0.425178
O O4 0.587673 0.568484 0.239378
O O5 0.680623 0.569870 0.297722
O O6 0.875000 0.518022 0.875000
O O7 0.815809 0.429573 0.835568
O O8 0.794728 0.541111 0.772673
O O9 0.998092 0.143626 0.522564
O O10 0.497936 0.902797 0.177000
O O11 0.775304 0.875000 0.875000
#
# Coordination Sequence:
#
# PCOD8286716 Si02
#       6
#    16  32  32  16  32  32
#     4  12  26  47  70  99 142 190 226 284 368 402
#     4  11  23  46  73  98 142 179 231 288 345 417
#     4  12  26  45  70 108 143 180 232 287 348 421
#     4  12  25  44  76  98 142 190 234 283 348 420
#     4  12  27  45  68 107 142 182 234 290 351 411
#     4  11  23  45  73 105 132 179 238 291 335 417
#
# _framework density 21.571162999999999
#
# number of rings (size 3 to 8) (size 9 to 14) (size 15 to 20)
#    0.000    0.400    5.000    3.900    5.600    2.400 
#    1.800    0.000    0.000    0.000    0.000    0.000 
#    0.000    0.000    0.000    0.000    0.000    0.000 
#
# Total GULP energy -496220.252208 kJ/mol
# GULP energy per Si atom -12405.506305 kJ/mol
# Density = 2.152207 g / cm^3
# Si number density = 21.571163 Si / 1000 Ang^3
#
#
#
# Elastic Constant Matrix: (Units=GPa)
#
#
# Indices 1 2 3 4 5 6 
#
# 1 84.0308 30.4321 38.7868 0.0001 0.0000 0.0000
# 2 30.4321 110.2393 38.0127 0.0002 -0.0002 0.0000
# 3 38.7868 38.0127 167.6289 0.0004 -0.0005 0.0000
# 4 0.0001 0.0002 0.0004 28.0267 -0.0004 0.0000
# 5 0.0000 -0.0002 -0.0005 -0.0004 -74.5088 -0.0001
# 6 0.0000 0.0000 0.0000 0.0000 -0.0001 20.4899
#
#
#
# Elastic Compliance Matrix: (Units=1/GPa)
#
#
# Indices 1 2 3 4 5 6 
#
# 1 0.014195 -0.003022 -0.002599 0.000000 0.000000 0.000000
# 2 -0.003022 0.010484 -0.001678 0.000000 0.000000 0.000000
# 3 -0.002599 -0.001678 0.006947 0.000000 0.000000 0.000000
# 4 0.000000 0.000000 0.000000 0.035680 0.000000 0.000000
# 5 0.000000 0.000000 0.000000 0.000000 -0.013421 0.000000
# 6 0.000000 0.000000 0.000000 0.000000 0.000000 0.048805
#
#
# Mechanical properties :
#
#
# Convention : Reuss Voigt Hill
#
# Bulk Modulus (GPa) = 58.72937 64.04025 61.38481
# Shear Modulus (GPa) = 40.66212 11.77939 26.22075
#
# Velocity S-wave (km/s) = 4.34639 2.33935 3.49025
# Velocity P-wave (km/s) = 7.24384 6.08680 6.69038
#
# Compressibility (1/GPa) = 0.01702726
#
# Stress axis : x y z
#
# Youngs Moduli (GPa) = 70.44937 95.38207 143.93679
#
# Poissons Ratio (x) = 0.28827 0.37410
# Poissons Ratio (y) = 0.21292 0.24155
# Poissons Ratio (z) = 0.18310 0.16007
#
# Static dielectric constant tensor:
#      x y z
#    x 4.083180 0.000000 0.000000 
#    y 0.000000 3.894000 0.000000 
#    z 0.000000 0.000000 3.758390 
# 
# 
# High freq. dielectric constant tensor:
#      x y z
#    x 1.852380 0.000000 0.000000 
#    y 0.000000 1.846050 0.000000 
#    z 0.000000 0.000000 1.864560 
# 
# From -- ./inp_files/22198.got.cif
#   From: 2010.03.12/outbox.cif.g09.slc.cpg/sg70_12_cif.got.tgz:22198.got - 2010.04.16 13:46:32.
