data_PCOD8286327
_publ_section_title
;
Structure prediction by ZEFSAII (Michael W. Deem and Ramdas Pophale) SiO2 
 PCOD8286327
Probable space group: F D D D
;
_chemical_formula_sum "Si O2"
_cell_formula_units_Z 144
_cell_length_a 12.263948
_cell_length_b 22.888780
_cell_length_c 26.188506
_cell_angle_alpha 90.000000
_cell_angle_beta 90.000000
_cell_angle_gamma 90.000000
_cell_volume 7351.291918
_symmetry_space_group_name_H-M "F D D D"
_symmetry_group_IT_number 70
_space_group.IT_coordinate_system_code '2'
_symmetry_cell_setting 'orthorhombic'
loop_
_space_group_symop_operation_xyz
x,y,z
1/4-x,1/4-y,z
x,1/4-y,1/4-z
1/4-x,y,1/4-z
-x,-y,-z
3/4+x,3/4+y,-z
-x,3/4+y,3/4+z
3/4+x,-y,3/4+z
x,1/2+y,1/2+z
1/4-x,3/4-y,1/2+z
x,3/4-y,3/4-z
1/4-x,1/2+y,3/4-z
-x,1/2-y,1/2-z
3/4+x,1/4+y,1/2-z
-x,1/4+y,1/4+z
3/4+x,1/2-y,1/4+z
1/2+x,y,1/2+z
3/4-x,1/4-y,1/2+z
1/2+x,1/4-y,3/4-z
3/4-x,y,3/4-z
1/2-x,-y,1/2-z
1/4+x,3/4+y,1/2-z
1/2-x,3/4+y,1/4+z
1/4+x,-y,1/4+z
1/2+x,1/2+y,z
3/4-x,3/4-y,z
1/2+x,3/4-y,1/4-z
3/4-x,1/2+y,1/4-z
1/2-x,1/2-y,-z
1/4+x,1/4+y,-z
1/2-x,1/4+y,3/4+z
1/4+x,1/2-y,3/4+z
loop_
_atom_site_type_symbol
_atom_site_label
_atom_site_fract_x
_atom_site_fract_y
_atom_site_fract_z
Si Si1 0.733454 0.053392 0.711951
Si Si2 0.735533 0.431372 0.478681
Si Si3 0.777448 0.195074 0.842417
Si Si4 0.875000 0.666324 0.875000
Si Si5 0.314724 0.753200 0.638931
O O1 0.605698 0.063712 0.705478
O O2 0.792756 0.112319 0.732461
O O3 0.750000 0.000000 0.750000
O O4 0.784356 0.039204 0.657310
O O5 0.727191 0.464623 0.533356
O O6 0.655485 0.464314 0.438706
O O7 0.875000 0.226028 0.875000
O O8 0.802075 0.125263 0.838371
O O9 0.666401 0.206962 0.872553
O O10 0.788103 0.706225 0.844961
#
# Coordination Sequence:
#
# PCOD8286327 Si02
#       5
#    32  32  32  16  32
#     4  11  21  37  63  93 123 154 195 261 316 359
#     4  11  23  36  63  94 120 160 203 252 317 358
#     4  10  25  39  60  87 126 164 210 244 302 371
#     4  10  22  38  61  94 119 164 202 258 296 372
#     4  12  21  40  63  90 126 157 203 263 304 364
#
# _framework density 19.588393
#
# number of rings (size 3 to 8) (size 9 to 14) (size 15 to 20)
#    0.667    0.444    4.444    2.667    3.111    2.667 
#    0.000    0.000    0.000    2.667    0.000    0.000 
#    0.000    0.000    0.000    0.000    0.000    0.000 
#
# Total GULP energy -446075.410094 kJ/mol
# GULP energy per Si atom -12390.983614 kJ/mol
# Density = 1.954381 g / cm^3
# Si number density = 19.588393 Si / 1000 Ang^3
#
#
#
# Elastic Constant Matrix: (Units=GPa)
#
#
# Indices 1 2 3 4 5 6 
#
# 1 95.1929 43.6554 40.9865 0.0000 0.0000 0.0000
# 2 43.6554 100.3696 56.4748 0.0000 0.0000 0.0000
# 3 40.9865 56.4748 134.5152 0.0000 0.0000 0.0000
# 4 0.0000 0.0000 0.0000 23.0051 0.0000 0.0000
# 5 0.0000 0.0000 0.0000 0.0000 23.3822 0.0000
# 6 0.0000 0.0000 0.0000 0.0000 0.0000 24.5138
#
#
#
# Elastic Compliance Matrix: (Units=1/GPa)
#
#
# Indices 1 2 3 4 5 6 
#
# 1 0.013591 -0.004689 -0.002172 0.000000 0.000000 0.000000
# 2 -0.004689 0.014662 -0.004727 0.000000 0.000000 0.000000
# 3 -0.002172 -0.004727 0.010081 0.000000 0.000000 0.000000
# 4 0.000000 0.000000 0.000000 0.043469 0.000000 0.000000
# 5 0.000000 0.000000 0.000000 0.000000 0.042768 0.000000
# 6 0.000000 0.000000 0.000000 0.000000 0.000000 0.040793
#
#
# Mechanical properties :
#
#
# Convention : Reuss Voigt Hill
#
# Bulk Modulus (GPa) = 65.97704 68.03458 67.00581
# Shear Modulus (GPa) = 25.82742 26.77760 26.30251
#
# Velocity S-wave (km/s) = 3.63506 3.70133 3.66834
# Velocity P-wave (km/s) = 7.16750 7.28518 7.22658
#
# Compressibility (1/GPa) = 0.01515679
#
# Stress axis : x y z
#
# Youngs Moduli (GPa) = 73.57987 68.20163 99.19924
#
# Poissons Ratio (x) = 0.31979 0.21551
# Poissons Ratio (y) = 0.34500 0.46893
# Poissons Ratio (z) = 0.15985 0.32240
#
# Static dielectric constant tensor:
#      x y z
#    x 3.407500 0.000000 0.000000 
#    y 0.000000 3.740780 0.000000 
#    z 0.000000 0.000000 3.497550 
# 
# 
# High freq. dielectric constant tensor:
#      x y z
#    x 1.738170 0.000000 0.000000 
#    y 0.000000 1.760100 0.000000 
#    z 0.000000 0.000000 1.764810 
# 
# From -- ./inp_files/57411.got.cif
#   From: 2010.03.12/outbox.cif.g09.slc.cpg/sg70_29_cif.got.tgz:57411.got - 2010.04.16 13:46:32.
