data_PCOD8286296
_publ_section_title
;
Structure prediction by ZEFSAII (Michael W. Deem and Ramdas Pophale) SiO2 
 PCOD8286296
Probable space group: F D D D
;
_chemical_formula_sum "Si O2"
_cell_formula_units_Z 176
_cell_length_a 10.787465
_cell_length_b 25.706888
_cell_length_c 27.562152
_cell_angle_alpha 90.000000
_cell_angle_beta 90.000000
_cell_angle_gamma 90.000000
_cell_volume 7643.319755
_symmetry_space_group_name_H-M "F D D D"
_symmetry_group_IT_number 70
_space_group.IT_coordinate_system_code '2'
_symmetry_cell_setting 'orthorhombic'
loop_
_space_group_symop_operation_xyz
x,y,z
1/4-x,1/4-y,z
x,1/4-y,1/4-z
1/4-x,y,1/4-z
-x,-y,-z
3/4+x,3/4+y,-z
-x,3/4+y,3/4+z
3/4+x,-y,3/4+z
x,1/2+y,1/2+z
1/4-x,3/4-y,1/2+z
x,3/4-y,3/4-z
1/4-x,1/2+y,3/4-z
-x,1/2-y,1/2-z
3/4+x,1/4+y,1/2-z
-x,1/4+y,1/4+z
3/4+x,1/2-y,1/4+z
1/2+x,y,1/2+z
3/4-x,1/4-y,1/2+z
1/2+x,1/4-y,3/4-z
3/4-x,y,3/4-z
1/2-x,-y,1/2-z
1/4+x,3/4+y,1/2-z
1/2-x,3/4+y,1/4+z
1/4+x,-y,1/4+z
1/2+x,1/2+y,z
3/4-x,3/4-y,z
1/2+x,3/4-y,1/4-z
3/4-x,1/2+y,1/4-z
1/2-x,1/2-y,-z
1/4+x,1/4+y,-z
1/2-x,1/4+y,3/4+z
1/4+x,1/2-y,3/4+z
loop_
_atom_site_type_symbol
_atom_site_label
_atom_site_fract_x
_atom_site_fract_y
_atom_site_fract_z
Si Si1 0.150117 0.841248 0.330575
Si Si2 0.001486 0.255145 0.647182
Si Si3 0.733369 0.867086 0.586348
Si Si4 0.074197 0.016445 0.938638
Si Si5 0.875000 0.288294 0.375000
Si Si6 0.149190 0.328699 0.003991
O O1 0.092252 0.875000 0.375000
O O2 0.067519 0.789489 0.322587
O O3 0.287634 0.825157 0.344041
O O4 0.162460 0.872872 0.281580
O O5 0.922058 0.279478 0.602708
O O6 0.125000 0.229795 0.625000
O O7 0.032024 0.306201 0.679523
O O8 0.625000 0.880860 0.625000
O O9 0.710818 0.905631 0.540916
O O10 0.875000 0.875000 0.605117
O O11 0.135780 0.973400 0.974255
O O12 0.948932 0.995843 0.913628
O O13 0.030650 0.067526 0.968561
#
# Coordination Sequence:
#
# PCOD8286296 Si02
#       6
#    32  32  32  32  16  32
#     4  11  22  43  67 107 136 186 234 293 358 422
#     4  10  23  45  68  95 141 193 230 281 352 432
#     4  11  26  48  71 105 145 196 244 299 366 430
#     4  10  23  44  71 105 138 188 237 297 364 426
#     4  10  21  42  74  98 146 176 240 298 361 414
#     4  11  24  42  68 110 137 181 238 299 357 425
#
# _framework density 23.026641999999999
#
# number of rings (size 3 to 8) (size 9 to 14) (size 15 to 20)
#    0.000    1.455    3.636    1.364    6.364    2.545 
#   22.909    0.000    0.000    0.000    0.000    0.000 
#    0.000    0.000    0.000    0.000    0.000    0.000 
#
# Total GULP energy -545332.208131 kJ/mol
# GULP energy per Si atom -12393.913821 kJ/mol
# Density = 2.297423 g / cm^3
# Si number density = 23.026642 Si / 1000 Ang^3
#
#
#
# Elastic Constant Matrix: (Units=GPa)
#
#
# Indices 1 2 3 4 5 6 
#
# 1 117.0048 45.3234 33.2387 0.0000 0.0000 0.0000
# 2 45.3234 123.8320 54.7977 0.0000 0.0000 0.0000
# 3 33.2387 54.7977 105.0472 0.0000 0.0000 0.0000
# 4 0.0000 0.0000 0.0000 25.6184 0.0000 0.0000
# 5 0.0000 0.0000 0.0000 0.0000 16.9485 0.0000
# 6 0.0000 0.0000 0.0000 0.0000 0.0000 -5.4804
#
#
#
# Elastic Compliance Matrix: (Units=1/GPa)
#
#
# Indices 1 2 3 4 5 6 
#
# 1 0.010177 -0.002990 -0.001660 0.000000 0.000000 0.000000
# 2 -0.002990 0.011378 -0.004989 0.000000 0.000000 0.000000
# 3 -0.001660 -0.004989 0.012647 0.000000 0.000000 0.000000
# 4 0.000000 0.000000 0.000000 0.039034 0.000000 0.000000
# 5 0.000000 0.000000 0.000000 0.000000 0.059002 0.000000
# 6 0.000000 0.000000 0.000000 0.000000 0.000000 -0.182469
#
#
# Mechanical properties :
#
#
# Convention : Reuss Voigt Hill
#
# Bulk Modulus (GPa) = 67.01116 68.06707 67.53912
# Shear Modulus (GPa) = -192.47342 21.58557 -85.44393
#
# Velocity S-wave (km/s) = -9.15253 3.06505 -6.09812
# Velocity P-wave (km/s) = 9.08443 6.49233 4.49314
#
# Compressibility (1/GPa) = 0.01492289
#
# Stress axis : x y z
#
# Youngs Moduli (GPa) = 98.26542 87.89266 79.06774
#
# Poissons Ratio (x) = 0.26280 0.13128
# Poissons Ratio (y) = 0.29381 0.39447
# Poissons Ratio (z) = 0.16315 0.43850
#
# Static dielectric constant tensor:
#      x y z
#    x 4.144780 0.000000 0.000000 
#    y 0.000000 4.304160 0.000000 
#    z 0.000000 0.000000 4.149850 
# 
# 
# High freq. dielectric constant tensor:
#      x y z
#    x 1.898970 0.000000 0.000000 
#    y 0.000000 1.924150 0.000000 
#    z 0.000000 0.000000 1.896690 
# 
# From -- ./inp_files/64773.got.cif
#   From: 2010.03.12/outbox.cif.g09.slc.cpg/sg70_33_cif.got.tgz:64773.got - 2010.04.16 13:46:32.
