data_PCOD8286944
_publ_section_title
;
Structure prediction by ZEFSAII (Michael W. Deem and Ramdas Pophale) SiO2 
 PCOD8286944
Probable space group: I M M M
;
_chemical_formula_sum "Si O2"
_cell_formula_units_Z 80
_cell_length_a 13.197907
_cell_length_b 10.856964
_cell_length_c 34.915742
_cell_angle_alpha 90.000000
_cell_angle_beta 90.000000
_cell_angle_gamma 90.000000
_cell_volume 5003.048780
_symmetry_space_group_name_H-M "I M M M"
_symmetry_group_IT_number 71
_symmetry_cell_setting 'orthorhombic'
loop_
_space_group_symop_operation_xyz
x,y,z
-x,-y,z
x,-y,-z
-x,y,-z
-x,-y,-z
x,y,-z
-x,y,z
x,-y,z
1/2+x,1/2+y,1/2+z
1/2-x,1/2-y,1/2+z
1/2+x,1/2-y,1/2-z
1/2-x,1/2+y,1/2-z
1/2-x,1/2-y,1/2-z
1/2+x,1/2+y,1/2-z
1/2-x,1/2+y,1/2+z
1/2+x,1/2-y,1/2+z
loop_
_atom_site_type_symbol
_atom_site_label
_atom_site_fract_x
_atom_site_fract_y
_atom_site_fract_z
Si Si1 0.749386 0.500000 0.806599
Si Si2 0.878937 0.500000 0.883467
Si Si3 0.614596 0.360160 0.655114
Si Si4 0.381508 0.751639 0.422358
Si Si5 0.783218 0.260455 0.292950
Si Si6 0.378633 0.360034 0.500000
Si Si7 0.617245 0.000000 0.229516
O O1 0.823026 0.500000 0.842967
O O2 0.677544 0.376491 0.805995
O O3 0.818352 0.500000 0.768282
O O4 0.841762 0.383972 0.908472
O O5 0.000000 0.500000 0.876235
O O6 0.500000 0.311764 0.660726
O O7 0.625778 0.500000 0.668294
O O8 0.645237 0.347721 0.610551
O O9 0.683456 0.277652 0.681728
O O10 0.500000 0.759291 0.429422
O O11 0.332650 0.708688 0.462560
O O12 0.750000 0.250000 0.250000
O O13 0.859785 0.376690 0.296379
O O14 0.339342 0.500000 0.500000
O O15 0.500000 0.358643 0.500000
O O16 0.500000 0.000000 0.240200
#
# Coordination Sequence:
#
# PCOD8286944 Si02
#       7
#     8   8  16  16  16   8   8
#     4  10  19  32  50  68  95 118 156 200 243 278
#     4  10  17  25  40  63  88 120 158 187 227 275
#     4  10  18  29  46  67  90 118 158 201 235 269
#     4   9  17  26  39  60  85 118 156 190 227 273
#     4  10  20  32  48  68  91 119 158 199 239 283
#     4   9  16  27  39  53  81 118 157 196 227 260
#     4  10  21  36  51  66  92 128 161 198 243 284
#
# _framework density 15.990251000000001
#
# number of rings (size 3 to 8) (size 9 to 14) (size 15 to 20)
#    0.000    2.300    3.000    0.900    0.000    6.000 
#    0.000    2.500    0.000    0.000    0.000    0.000 
#    0.000    0.000    0.000    1.800    0.000    2.600 
#
# Total GULP energy -495533.022743 kJ/mol
# GULP energy per Si atom -12388.325569 kJ/mol
# Density = 1.595386 g / cm^3
# Si number density = 15.990251 Si / 1000 Ang^3
#
#
#
# Elastic Constant Matrix: (Units=GPa)
#
#
# Indices 1 2 3 4 5 6 
#
# 1 23.5227 18.4057 11.9562 0.0000 0.0000 0.0000
# 2 18.4057 137.2322 35.3875 0.0000 0.0000 0.0000
# 3 11.9562 35.3875 89.1744 0.0000 0.0000 0.0000
# 4 0.0000 0.0000 0.0000 27.9455 0.0000 0.0000
# 5 0.0000 0.0000 0.0000 0.0000 13.8835 0.0000
# 6 0.0000 0.0000 0.0000 0.0000 0.0000 10.4197
#
#
#
# Elastic Compliance Matrix: (Units=1/GPa)
#
#
# Indices 1 2 3 4 5 6 
#
# 1 0.049008 -0.005435 -0.004414 0.000000 0.000000 0.000000
# 2 -0.005435 0.008720 -0.002732 0.000000 0.000000 0.000000
# 3 -0.004414 -0.002732 0.012890 0.000000 0.000000 0.000000
# 4 0.000000 0.000000 0.000000 0.035784 0.000000 0.000000
# 5 0.000000 0.000000 0.000000 0.000000 0.072028 0.000000
# 6 0.000000 0.000000 0.000000 0.000000 0.000000 0.095972
#
#
# Mechanical properties :
#
#
# Convention : Reuss Voigt Hill
#
# Bulk Modulus (GPa) = 21.99881 42.38091 32.18986
# Shear Modulus (GPa) = 15.88730 22.72839 19.30785
#
# Velocity S-wave (km/s) = 3.15550 3.77422 3.47865
# Velocity P-wave (km/s) = 5.20228 6.74943 6.02572
#
# Compressibility (1/GPa) = 0.04545700
#
# Stress axis : x y z
#
# Youngs Moduli (GPa) = 20.40466 114.67517 77.58007
#
# Poissons Ratio (x) = 0.62323 0.34245
# Poissons Ratio (y) = 0.11089 0.21194
# Poissons Ratio (z) = 0.09007 0.31327
#
# Static dielectric constant tensor:
#      x y z
#    x 2.445230 0.000000 0.000000 
#    y 0.000000 3.775620 0.000000 
#    z 0.000000 0.000000 3.216990 
# 
# 
# High freq. dielectric constant tensor:
#      x y z
#    x 1.530010 0.000000 0.000000 
#    y 0.000000 1.646560 0.000000 
#    z 0.000000 0.000000 1.613950 
# 
# From -- ./inp_files/69058.got.cif
#   From: 2010.06.25/outbox.cif.g09.slc.cpg/sg71_35_cif.got.tgz:69058.got - 2010.06.28 04:59:45.
