data_PCOD8286978
_publ_section_title
;
Structure prediction by ZEFSAII (Michael W. Deem and Ramdas Pophale) SiO2 
 PCOD8286978
Probable space group: I M M M
;
_chemical_formula_sum "Si O2"
_cell_formula_units_Z 104
_cell_length_a 22.831993
_cell_length_b 8.979978
_cell_length_c 29.928150
_cell_angle_alpha 90.000000
_cell_angle_beta 90.000000
_cell_angle_gamma 90.000000
_cell_volume 6136.192382
_symmetry_space_group_name_H-M "I M M M"
_symmetry_group_IT_number 71
_symmetry_cell_setting 'orthorhombic'
loop_
_space_group_symop_operation_xyz
x,y,z
-x,-y,z
x,-y,-z
-x,y,-z
-x,-y,-z
x,y,-z
-x,y,z
x,-y,z
1/2+x,1/2+y,1/2+z
1/2-x,1/2-y,1/2+z
1/2+x,1/2-y,1/2-z
1/2-x,1/2+y,1/2-z
1/2-x,1/2-y,1/2-z
1/2+x,1/2+y,1/2-z
1/2-x,1/2+y,1/2+z
1/2+x,1/2-y,1/2+z
loop_
_atom_site_type_symbol
_atom_site_label
_atom_site_fract_x
_atom_site_fract_y
_atom_site_fract_z
Si Si1 0.282141 0.676770 0.450265
Si Si2 0.348394 0.176978 0.950229
Si Si3 0.067418 0.675577 0.626837
Si Si4 0.110239 0.822801 0.107313
Si Si5 0.569573 0.332184 0.216164
Si Si6 0.567965 0.824815 0.305545
Si Si7 0.500000 0.676642 0.449947
O O1 0.297107 0.736848 0.500000
O O2 0.285050 0.500000 0.451295
O O3 0.216968 0.729994 0.436300
O O4 0.329695 0.736035 0.414992
O O5 0.395298 0.239069 0.914824
O O6 0.350881 0.000000 0.950759
O O7 0.363792 0.236809 0.000000
O O8 0.075185 0.500000 0.633013
O O9 0.092505 0.752764 0.671358
O O10 0.000000 0.717910 0.617845
O O11 0.106062 0.746828 0.155326
O O12 0.057248 0.766906 0.076079
O O13 0.108752 0.000000 0.113449
O O14 0.500000 0.330036 0.215713
O O15 0.594029 0.500000 0.218057
O O16 0.592180 0.242344 0.259224
O O17 0.500000 0.782591 0.312846
O O18 0.577536 0.000000 0.304428
O O19 0.500000 0.500000 0.452701
O O20 0.500000 0.744022 0.500000
#
# Coordination Sequence:
#
# PCOD8286978 Si02
#       7
#    16  16  16  16  16  16   8
#     4   8  14  25  42  64  88 117 154 190 221 255
#     4   8  14  25  42  66  95 123 151 183 216 255
#     4   9  16  26  43  69  97 121 146 178 220 264
#     4  10  17  26  43  65  88 114 149 191 228 263
#     4   9  17  29  46  66  89 117 148 182 221 267
#     4  10  19  30  44  63  90 119 147 181 226 275
#     4   9  16  24  37  61  89 113 141 183 228 263
#
# _framework density 16.948620999999999
#
# number of rings (size 3 to 8) (size 9 to 14) (size 15 to 20)
#    0.000    3.000    0.769    2.308    0.000    4.615 
#    0.000    1.538    0.000    4.615    0.000    4.308 
#    0.000    0.000    0.000    0.000    0.000    0.000 
#
# Total GULP energy -644616.150822 kJ/mol
# GULP energy per Si atom -12396.464439 kJ/mol
# Density = 1.691005 g / cm^3
# Si number density = 16.948621 Si / 1000 Ang^3
#
#
#
# Elastic Constant Matrix: (Units=GPa)
#
#
# Indices 1 2 3 4 5 6 
#
# 1 89.5077 25.5385 81.0085 0.0000 0.0000 0.0000
# 2 25.5385 41.6035 41.1878 0.0000 0.0000 0.0000
# 3 81.0085 41.1878 173.7333 0.0000 0.0000 0.0000
# 4 0.0000 0.0000 0.0000 23.5302 0.0000 0.0000
# 5 0.0000 0.0000 0.0000 0.0000 22.7893 0.0000
# 6 0.0000 0.0000 0.0000 0.0000 0.0000 8.0432
#
#
#
# Elastic Compliance Matrix: (Units=1/GPa)
#
#
# Indices 1 2 3 4 5 6 
#
# 1 0.019812 -0.003941 -0.008304 0.000000 0.000000 0.000000
# 2 -0.003941 0.032192 -0.005794 0.000000 0.000000 0.000000
# 3 -0.008304 -0.005794 0.011001 0.000000 0.000000 0.000000
# 4 0.000000 0.000000 0.000000 0.042499 0.000000 0.000000
# 5 0.000000 0.000000 0.000000 0.000000 0.043880 0.000000
# 6 0.000000 0.000000 0.000000 0.000000 0.000000 0.124329
#
#
# Mechanical properties :
#
#
# Convention : Reuss Voigt Hill
#
# Bulk Modulus (GPa) = 37.13665 66.70159 51.91912
# Shear Modulus (GPa) = 15.68546 21.34650 18.51598
#
# Velocity S-wave (km/s) = 3.04546 3.55277 3.30885
# Velocity P-wave (km/s) = 5.85878 7.50134 6.73036
#
# Compressibility (1/GPa) = 0.02692758
#
# Stress axis : x y z
#
# Youngs Moduli (GPa) = 50.47514 31.06351 90.89731
#
# Poissons Ratio (x) = 0.12242 0.75477
# Poissons Ratio (y) = 0.19892 0.52669
# Poissons Ratio (z) = 0.41912 0.17999
#
# Static dielectric constant tensor:
#      x y z
#    x 3.139030 0.000000 0.000000 
#    y 0.000000 2.816370 0.000000 
#    z 0.000000 0.000000 3.419710 
# 
# 
# High freq. dielectric constant tensor:
#      x y z
#    x 1.625440 0.000000 0.000000 
#    y 0.000000 1.615890 0.000000 
#    z 0.000000 0.000000 1.664860 
# 
# From -- ./inp_files/13604.got.cif
#   From: 2010.06.25/outbox.cif.g09.slc.cpg/sg71_7_cif.got.tgz:13604.got - 2010.06.28 04:59:45.
