data_PCOD8286215
_publ_section_title
;
Structure prediction by ZEFSAII (Michael W. Deem and Ramdas Pophale) SiO2 
 PCOD8286215
Probable space group: F D D D
;
_chemical_formula_sum "Si O2"
_cell_formula_units_Z 208
_cell_length_a 25.197500
_cell_length_b 18.289429
_cell_length_c 25.512647
_cell_angle_alpha 90.000000
_cell_angle_beta 90.000000
_cell_angle_gamma 90.000000
_cell_volume 11757.449468
_symmetry_space_group_name_H-M "F D D D"
_symmetry_group_IT_number 70
_space_group.IT_coordinate_system_code '2'
_symmetry_cell_setting 'orthorhombic'
loop_
_space_group_symop_operation_xyz
x,y,z
1/4-x,1/4-y,z
x,1/4-y,1/4-z
1/4-x,y,1/4-z
-x,-y,-z
3/4+x,3/4+y,-z
-x,3/4+y,3/4+z
3/4+x,-y,3/4+z
x,1/2+y,1/2+z
1/4-x,3/4-y,1/2+z
x,3/4-y,3/4-z
1/4-x,1/2+y,3/4-z
-x,1/2-y,1/2-z
3/4+x,1/4+y,1/2-z
-x,1/4+y,1/4+z
3/4+x,1/2-y,1/4+z
1/2+x,y,1/2+z
3/4-x,1/4-y,1/2+z
1/2+x,1/4-y,3/4-z
3/4-x,y,3/4-z
1/2-x,-y,1/2-z
1/4+x,3/4+y,1/2-z
1/2-x,3/4+y,1/4+z
1/4+x,-y,1/4+z
1/2+x,1/2+y,z
3/4-x,3/4-y,z
1/2+x,3/4-y,1/4-z
3/4-x,1/2+y,1/4-z
1/2-x,1/2-y,-z
1/4+x,1/4+y,-z
1/2-x,1/4+y,3/4+z
1/4+x,1/2-y,3/4+z
loop_
_atom_site_type_symbol
_atom_site_label
_atom_site_fract_x
_atom_site_fract_y
_atom_site_fract_z
Si Si1 0.625000 0.625000 0.055855
Si Si2 0.070291 0.666155 0.392892
Si Si3 0.973572 0.809073 0.996730
Si Si4 0.608195 0.457555 0.882397
Si Si5 0.955543 0.691667 0.735684
Si Si6 0.578639 0.269039 0.658088
Si Si7 0.768500 0.960211 0.583955
O O1 0.663965 0.574554 0.021845
O O2 0.589408 0.568442 0.089012
O O3 0.125000 0.625000 0.410328
O O4 0.028533 0.680531 0.440404
O O5 0.087805 0.746505 0.374490
O O6 0.041158 0.622118 0.345006
O O7 0.016235 0.865416 0.972537
O O8 0.991740 0.728653 0.973266
O O9 0.625694 0.375000 0.875000
O O10 0.581465 0.470319 0.939100
O O11 0.566689 0.482715 0.838552
O O12 0.919100 0.687652 0.787237
O O13 0.000000 0.750000 0.750000
O O14 0.625000 0.307810 0.625000
O O15 0.522209 0.274267 0.630510
#
# Coordination Sequence:
#
# PCOD8286215 Si02
#       7
#    16  32  32  32  32  32  32
#     4  12  21  26  44  74 106 150 172 204 254 322
#     4  10  21  38  53  75 113 151 182 228 276 329
#     4  12  20  32  52  75 110 149 185 212 269 332
#     4  11  21  35  54  77 104 146 190 226 273 329
#     4  12  20  32  50  74 110 145 180 219 265 326
#     4  12  23  30  44  74 113 145 176 213 262 326
#     4  11  22  33  49  76 110 149 181 222 269 329
#
# _framework density 17.690911
#
# number of rings (size 3 to 8) (size 9 to 14) (size 15 to 20)
#    0.000    0.615    8.462    2.077    0.000    0.000 
#    0.000    0.000    0.000    0.923    0.000    0.000 
#    0.000    0.000    0.000    0.000    0.000    0.000 
#
# Total GULP energy -644267.339519 kJ/mol
# GULP energy per Si atom -12389.756529 kJ/mol
# Density = 1.765065 g / cm^3
# Si number density = 17.690911 Si / 1000 Ang^3
#
#
#
# Elastic Constant Matrix: (Units=GPa)
#
#
# Indices 1 2 3 4 5 6 
#
# 1 70.1421 44.5277 21.0539 0.0000 0.0000 0.0000
# 2 44.5277 106.4903 27.6954 0.0000 0.0000 0.0000
# 3 21.0539 27.6954 62.5765 0.0000 0.0000 0.0000
# 4 0.0000 0.0000 0.0000 25.1193 0.0000 0.0000
# 5 0.0000 0.0000 0.0000 0.0000 22.5820 0.0000
# 6 0.0000 0.0000 0.0000 0.0000 0.0000 34.1804
#
#
#
# Elastic Compliance Matrix: (Units=1/GPa)
#
#
# Indices 1 2 3 4 5 6 
#
# 1 0.020039 -0.007487 -0.003428 0.000000 0.000000 0.000000
# 2 -0.007487 0.013410 -0.003416 0.000000 0.000000 0.000000
# 3 -0.003428 -0.003416 0.018646 0.000000 0.000000 0.000000
# 4 0.000000 0.000000 0.000000 0.039810 0.000000 0.000000
# 5 0.000000 0.000000 0.000000 0.000000 0.044283 0.000000
# 6 0.000000 0.000000 0.000000 0.000000 0.000000 0.029256
#
#
# Mechanical properties :
#
#
# Convention : Reuss Voigt Hill
#
# Bulk Modulus (GPa) = 42.67793 47.30697 44.99245
# Shear Modulus (GPa) = 24.76259 26.10513 25.43386
#
# Velocity S-wave (km/s) = 3.74536 3.84555 3.79579
# Velocity P-wave (km/s) = 6.54830 6.82031 6.68569
#
# Compressibility (1/GPa) = 0.02343131
#
# Stress axis : x y z
#
# Youngs Moduli (GPa) = 49.90264 74.57302 53.63177
#
# Poissons Ratio (x) = 0.55836 0.18387
# Poissons Ratio (y) = 0.37364 0.18319
# Poissons Ratio (z) = 0.17108 0.25472
#
# Static dielectric constant tensor:
#      x y z
#    x 3.915910 0.000000 0.000000 
#    y 0.000000 4.134850 0.000000 
#    z 0.000000 0.000000 3.530750 
# 
# 
# High freq. dielectric constant tensor:
#      x y z
#    x 1.678590 0.000000 0.000000 
#    y 0.000000 1.653080 0.000000 
#    z 0.000000 0.000000 1.662620 
# 
# From -- ./inp_files/38871.got.cif
#   From: 2010.03.12/outbox.cif.g09.slc.cpg/sg70_20_cif.got.tgz:38871.got - 2010.04.16 13:46:32.
