data_PCOD8286182
_publ_section_title
;
Structure prediction by ZEFSAII (Michael W. Deem and Ramdas Pophale) SiO2 
 PCOD8286182
Probable space group: F D D D
;
_chemical_formula_sum "Si O2"
_cell_formula_units_Z 176
_cell_length_a 23.089307
_cell_length_b 12.075402
_cell_length_c 28.281983
_cell_angle_alpha 90.000000
_cell_angle_beta 90.000000
_cell_angle_gamma 90.000000
_cell_volume 7885.375021
_symmetry_space_group_name_H-M "F D D D"
_symmetry_group_IT_number 70
_space_group.IT_coordinate_system_code '2'
_symmetry_cell_setting 'orthorhombic'
loop_
_space_group_symop_operation_xyz
x,y,z
1/4-x,1/4-y,z
x,1/4-y,1/4-z
1/4-x,y,1/4-z
-x,-y,-z
3/4+x,3/4+y,-z
-x,3/4+y,3/4+z
3/4+x,-y,3/4+z
x,1/2+y,1/2+z
1/4-x,3/4-y,1/2+z
x,3/4-y,3/4-z
1/4-x,1/2+y,3/4-z
-x,1/2-y,1/2-z
3/4+x,1/4+y,1/2-z
-x,1/4+y,1/4+z
3/4+x,1/2-y,1/4+z
1/2+x,y,1/2+z
3/4-x,1/4-y,1/2+z
1/2+x,1/4-y,3/4-z
3/4-x,y,3/4-z
1/2-x,-y,1/2-z
1/4+x,3/4+y,1/2-z
1/2-x,3/4+y,1/4+z
1/4+x,-y,1/4+z
1/2+x,1/2+y,z
3/4-x,3/4-y,z
1/2+x,3/4-y,1/4-z
3/4-x,1/2+y,1/4-z
1/2-x,1/2-y,-z
1/4+x,1/4+y,-z
1/2-x,1/4+y,3/4+z
1/4+x,1/2-y,3/4+z
loop_
_atom_site_type_symbol
_atom_site_label
_atom_site_fract_x
_atom_site_fract_y
_atom_site_fract_z
Si Si1 0.063747 0.653541 0.571260
Si Si2 0.440558 0.662972 0.179425
Si Si3 0.035922 0.487611 0.901931
Si Si4 0.861895 0.746800 0.513721
Si Si5 0.375000 0.875000 0.594499
Si Si6 0.670578 0.351527 0.083587
O O1 0.125000 0.625000 0.544412
O O2 0.073599 0.625000 0.625000
O O3 0.050620 0.784079 0.565907
O O4 0.008197 0.581534 0.553447
O O5 0.437097 0.625000 0.125000
O O6 0.413206 0.567400 0.210651
O O7 0.406123 0.779283 0.187176
O O8 0.048534 0.375000 0.875000
O O9 0.052290 0.474310 0.957335
O O10 0.075275 0.580595 0.878440
O O11 0.969417 0.520454 0.896157
O O12 0.860023 0.705992 0.460284
O O13 0.875000 0.875000 0.512935
O O14 0.625000 0.375308 0.125000
#
# Coordination Sequence:
#
# PCOD8286182 Si02
#       6
#    32  32  32  32  16  32
#     4  10  20  44  73  95 135 193 230 279 371 428
#     4  11  21  41  76 105 137 183 239 302 357 434
#     4  12  24  44  75 103 141 185 241 303 365 431
#     4  12  24  46  70 104 143 193 239 296 371 432
#     4  12  20  42  76 112 138 176 240 306 368 420
#     4  12  28  45  68 101 143 193 243 292 362 447
#
# _framework density 22.319800000000001
#
# number of rings (size 3 to 8) (size 9 to 14) (size 15 to 20)
#    0.000    0.545    6.364    3.818    2.545    0.000 
#    1.636    0.909    0.000    0.000    0.000    0.000 
#    0.000    0.000    0.000    0.000    0.000    0.000 
#
# Total GULP energy -545543.230850 kJ/mol
# GULP energy per Si atom -12398.709792 kJ/mol
# Density = 2.226900 g / cm^3
# Si number density = 22.319800 Si / 1000 Ang^3
#
#
#
# Elastic Constant Matrix: (Units=GPa)
#
#
# Indices 1 2 3 4 5 6 
#
# 1 156.4957 47.4833 38.0018 0.0000 0.0000 0.0000
# 2 47.4833 142.9269 50.9194 0.0000 0.0000 0.0000
# 3 38.0018 50.9194 81.6930 0.0000 0.0000 0.0000
# 4 0.0000 0.0000 0.0000 14.7519 0.0000 0.0000
# 5 0.0000 0.0000 0.0000 0.0000 14.0224 0.0000
# 6 0.0000 0.0000 0.0000 0.0000 0.0000 43.1277
#
#
#
# Elastic Compliance Matrix: (Units=1/GPa)
#
#
# Indices 1 2 3 4 5 6 
#
# 1 0.007478 -0.001600 -0.002481 0.000000 0.000000 0.000000
# 2 -0.001600 0.009336 -0.005075 0.000000 0.000000 0.000000
# 3 -0.002481 -0.005075 0.016558 0.000000 0.000000 0.000000
# 4 0.000000 0.000000 0.000000 0.067788 0.000000 0.000000
# 5 0.000000 0.000000 0.000000 0.000000 0.071315 0.000000
# 6 0.000000 0.000000 0.000000 0.000000 0.000000 0.023187
#
#
# Mechanical properties :
#
#
# Convention : Reuss Voigt Hill
#
# Bulk Modulus (GPa) = 66.40160 72.65829 69.52994
# Shear Modulus (GPa) = 22.83165 30.69448 26.76307
#
# Velocity S-wave (km/s) = 3.20180 3.71241 3.46652
# Velocity P-wave (km/s) = 6.59419 7.14142 6.87326
#
# Compressibility (1/GPa) = 0.01505988
#
# Stress axis : x y z
#
# Youngs Moduli (GPa) = 133.72514 107.10945 60.39295
#
# Poissons Ratio (x) = 0.17142 0.14984
# Poissons Ratio (y) = 0.21402 0.30648
# Poissons Ratio (z) = 0.33178 0.54356
#
# Static dielectric constant tensor:
#      x y z
#    x 4.516390 0.000000 0.000000 
#    y 0.000000 4.231780 0.000000 
#    z 0.000000 0.000000 3.745060 
# 
# 
# High freq. dielectric constant tensor:
#      x y z
#    x 1.893330 0.000000 0.000000 
#    y 0.000000 1.892000 0.000000 
#    z 0.000000 0.000000 1.849910 
# 
# From -- ./inp_files/67785.got.cif
#   From: 2010.03.12/outbox.cif.g09.slc.cpg/sg70_34_cif.got.tgz:67785.got - 2010.04.16 13:46:32.
