data_PCOD8286237
_publ_section_title
;
Structure prediction by ZEFSAII (Michael W. Deem and Ramdas Pophale) SiO2 
 PCOD8286237
Probable space group: F D D D
;
_chemical_formula_sum "Si O2"
_cell_formula_units_Z 192
_cell_length_a 24.309516
_cell_length_b 15.338515
_cell_length_c 25.085651
_cell_angle_alpha 90.000000
_cell_angle_beta 90.000000
_cell_angle_gamma 90.000000
_cell_volume 9353.733744
_symmetry_space_group_name_H-M "F D D D"
_symmetry_group_IT_number 70
_space_group.IT_coordinate_system_code '2'
_symmetry_cell_setting 'orthorhombic'
loop_
_space_group_symop_operation_xyz
x,y,z
1/4-x,1/4-y,z
x,1/4-y,1/4-z
1/4-x,y,1/4-z
-x,-y,-z
3/4+x,3/4+y,-z
-x,3/4+y,3/4+z
3/4+x,-y,3/4+z
x,1/2+y,1/2+z
1/4-x,3/4-y,1/2+z
x,3/4-y,3/4-z
1/4-x,1/2+y,3/4-z
-x,1/2-y,1/2-z
3/4+x,1/4+y,1/2-z
-x,1/4+y,1/4+z
3/4+x,1/2-y,1/4+z
1/2+x,y,1/2+z
3/4-x,1/4-y,1/2+z
1/2+x,1/4-y,3/4-z
3/4-x,y,3/4-z
1/2-x,-y,1/2-z
1/4+x,3/4+y,1/2-z
1/2-x,3/4+y,1/4+z
1/4+x,-y,1/4+z
1/2+x,1/2+y,z
3/4-x,3/4-y,z
1/2+x,3/4-y,1/4-z
3/4-x,1/2+y,1/4-z
1/2-x,1/2-y,-z
1/4+x,1/4+y,-z
1/2-x,1/4+y,3/4+z
1/4+x,1/2-y,3/4+z
loop_
_atom_site_type_symbol
_atom_site_label
_atom_site_fract_x
_atom_site_fract_y
_atom_site_fract_z
Si Si1 0.130538 0.499595 0.821541
Si Si2 0.125000 0.125000 0.835097
Si Si3 0.436195 0.076767 0.356153
Si Si4 0.246207 0.307506 0.922887
Si Si5 0.943347 0.125000 0.625000
Si Si6 0.076355 0.573965 0.722627
Si Si7 0.766180 0.466695 0.691723
O O1 0.142532 0.543706 0.878504
O O2 0.190374 0.475188 0.798981
O O3 0.094902 0.412731 0.828247
O O4 0.095463 0.562841 0.783595
O O5 0.178046 0.092144 0.801372
O O6 0.375000 0.103607 0.375000
O O7 0.468789 0.162095 0.337724
O O8 0.467180 0.023979 0.403010
O O9 0.433714 0.018816 0.303185
O O10 0.234388 0.375000 0.875000
O O11 0.274313 0.361958 0.970589
O O12 0.978717 0.201096 0.652150
O O13 0.125000 0.625000 0.690613
O O14 0.750000 0.500000 0.750000
#
# Coordination Sequence:
#
# PCOD8286237 Si02
#       7
#    32  16  32  32  16  32  32
#     4  11  20  41  63  95 129 168 215 268 329 394
#     4  10  22  40  70  91 125 172 214 276 336 388
#     4  11  22  42  65  94 135 179 212 267 344 398
#     4  10  21  38  64  91 132 178 206 257 338 402
#     4  10  24  44  67  94 127 174 232 284 320 386
#     4  11  22  35  60  99 136 163 209 269 321 404
#     4  11  24  46  69  97 131 178 232 284 328 397
#
# _framework density 20.526561999999998
#
# number of rings (size 3 to 8) (size 9 to 14) (size 15 to 20)
#    0.000    1.333    5.000    1.000    0.000    0.667 
#    9.000    0.000    0.000    0.000    0.000    0.000 
#    0.000    0.000    0.000    0.000    0.000    0.000 
#
# Total GULP energy -594975.064389 kJ/mol
# GULP energy per Si atom -12395.313841 kJ/mol
# Density = 2.047984 g / cm^3
# Si number density = 20.526562 Si / 1000 Ang^3
#
#
#
# Elastic Constant Matrix: (Units=GPa)
#
#
# Indices 1 2 3 4 5 6 
#
# 1 156.0131 72.3389 64.3627 0.0000 0.0000 0.0000
# 2 72.3389 130.7691 48.9373 0.0000 0.0000 0.0000
# 3 64.3627 48.9373 95.6589 0.0000 0.0000 0.0000
# 4 0.0000 0.0000 0.0000 27.3039 0.0000 0.0000
# 5 0.0000 0.0000 0.0000 0.0000 20.3545 0.0000
# 6 0.0000 0.0000 0.0000 0.0000 0.0000 49.0435
#
#
#
# Elastic Compliance Matrix: (Units=1/GPa)
#
#
# Indices 1 2 3 4 5 6 
#
# 1 0.010202 -0.003803 -0.004919 0.000000 0.000000 0.000000
# 2 -0.003803 0.010875 -0.003005 0.000000 0.000000 0.000000
# 3 -0.004919 -0.003005 0.015301 0.000000 0.000000 0.000000
# 4 0.000000 0.000000 0.000000 0.036625 0.000000 0.000000
# 5 0.000000 0.000000 0.000000 0.000000 0.049129 0.000000
# 6 0.000000 0.000000 0.000000 0.000000 0.000000 0.020390
#
#
# Mechanical properties :
#
#
# Convention : Reuss Voigt Hill
#
# Bulk Modulus (GPa) = 77.37064 83.74654 80.55859
# Shear Modulus (GPa) = 29.36270 32.46054 30.91162
#
# Velocity S-wave (km/s) = 3.78626 3.98099 3.88484
# Velocity P-wave (km/s) = 7.54249 7.87519 7.71064
#
# Compressibility (1/GPa) = 0.01292480
#
# Stress axis : x y z
#
# Youngs Moduli (GPa) = 98.01679 91.95186 65.35644
#
# Poissons Ratio (x) = 0.34968 0.32149
# Poissons Ratio (y) = 0.37275 0.19639
# Poissons Ratio (z) = 0.48214 0.27630
#
# Static dielectric constant tensor:
#      x y z
#    x 3.870920 0.000000 0.000000 
#    y 0.000000 4.456920 0.000000 
#    z 0.000000 0.000000 3.383810 
# 
# 
# High freq. dielectric constant tensor:
#      x y z
#    x 1.807840 0.000000 0.000000 
#    y 0.000000 1.816620 0.000000 
#    z 0.000000 0.000000 1.779820 
# 
# From -- ./inp_files/51448.got.cif
#   From: 2010.03.12/outbox.cif.g09.slc.cpg/sg70_26_cif.got.tgz:51448.got - 2010.04.16 13:46:32.
