data_PCOD8286489
_publ_section_title
;
Structure prediction by ZEFSAII (Michael W. Deem and Ramdas Pophale) SiO2 
 PCOD8286489
Probable space group: F D D D
;
_chemical_formula_sum "Si O2"
_cell_formula_units_Z 112
_cell_length_a 35.974447
_cell_length_b 5.299552
_cell_length_c 24.590462
_cell_angle_alpha 90.000000
_cell_angle_beta 90.000000
_cell_angle_gamma 90.000000
_cell_volume 4688.133528
_symmetry_space_group_name_H-M "F D D D"
_symmetry_group_IT_number 70
_space_group.IT_coordinate_system_code '2'
_symmetry_cell_setting 'orthorhombic'
loop_
_space_group_symop_operation_xyz
x,y,z
1/4-x,1/4-y,z
x,1/4-y,1/4-z
1/4-x,y,1/4-z
-x,-y,-z
3/4+x,3/4+y,-z
-x,3/4+y,3/4+z
3/4+x,-y,3/4+z
x,1/2+y,1/2+z
1/4-x,3/4-y,1/2+z
x,3/4-y,3/4-z
1/4-x,1/2+y,3/4-z
-x,1/2-y,1/2-z
3/4+x,1/4+y,1/2-z
-x,1/4+y,1/4+z
3/4+x,1/2-y,1/4+z
1/2+x,y,1/2+z
3/4-x,1/4-y,1/2+z
1/2+x,1/4-y,3/4-z
3/4-x,y,3/4-z
1/2-x,-y,1/2-z
1/4+x,3/4+y,1/2-z
1/2-x,3/4+y,1/4+z
1/4+x,-y,1/4+z
1/2+x,1/2+y,z
3/4-x,3/4-y,z
1/2+x,3/4-y,1/4-z
3/4-x,1/2+y,1/4-z
1/2-x,1/2-y,-z
1/4+x,1/4+y,-z
1/2-x,1/4+y,3/4+z
1/4+x,1/2-y,3/4+z
loop_
_atom_site_type_symbol
_atom_site_label
_atom_site_fract_x
_atom_site_fract_y
_atom_site_fract_z
Si Si1 0.350356 0.625000 0.125000
Si Si2 0.418448 0.859668 0.729601
Si Si3 0.521235 0.397084 0.938931
Si Si4 0.020400 0.149135 0.689341
O O1 0.375000 0.375000 0.120593
O O2 0.324785 0.591765 0.179246
O O3 0.375000 0.875000 0.742251
O O4 0.438847 0.790231 0.785851
O O5 0.435716 0.132634 0.709757
O O6 0.519630 0.375000 0.875000
O O7 0.497118 0.632754 0.961001
O O8 0.505767 0.125836 0.960089
O O9 0.025045 0.125000 0.625000
#
# Coordination Sequence:
#
# PCOD8286489 Si02
#       4
#    16  32  32  32
#     4  10  26  42  60  98 144 174 213 268 351 410
#     4  11  25  41  69  99 138 173 216 281 338 400
#     4  10  23  42  68  93 131 175 221 274 325 400
#     4  10  23  45  68  95 129 176 228 268 326 396
#
# _framework density 23.890104999999998
#
# number of rings (size 3 to 8) (size 9 to 14) (size 15 to 20)
#    0.000    1.714    0.000    1.714   14.000    5.143 
#    0.000    0.000    0.000    5.143    0.000    0.000 
#    0.000    0.000    0.000    0.000    0.000    0.000 
#
# Total GULP energy -346980.448408 kJ/mol
# GULP energy per Si atom -12392.158872 kJ/mol
# Density = 2.383573 g / cm^3
# Si number density = 23.890105 Si / 1000 Ang^3
#
#
#
# Elastic Constant Matrix: (Units=GPa)
#
#
# Indices 1 2 3 4 5 6 
#
# 1 175.8939 79.0034 50.4676 0.0047 -0.0060 -0.0186
# 2 79.0034 148.7948 74.2386 -0.0021 -0.0046 -0.0188
# 3 50.4676 74.2386 105.2906 0.0001 -0.0032 -0.0032
# 4 0.0047 -0.0021 0.0001 42.9673 -0.0019 -0.0056
# 5 -0.0060 -0.0046 -0.0032 -0.0019 52.9815 0.0072
# 6 -0.0186 -0.0188 -0.0032 -0.0056 0.0072 29.8168
#
#
#
# Elastic Compliance Matrix: (Units=1/GPa)
#
#
# Indices 1 2 3 4 5 6 
#
# 1 0.007567 -0.003406 -0.001225 -0.000001 0.000000 0.000002
# 2 -0.003406 0.011901 -0.006759 0.000001 0.000000 0.000005
# 3 -0.001225 -0.006759 0.014850 0.000000 0.000000 -0.000003
# 4 -0.000001 0.000001 0.000000 0.023274 0.000001 0.000004
# 5 0.000000 0.000000 0.000000 0.000001 0.018875 -0.000005
# 6 0.000002 0.000005 -0.000003 0.000004 -0.000005 0.033538
#
#
# Mechanical properties :
#
#
# Convention : Reuss Voigt Hill
#
# Bulk Modulus (GPa) = 86.67056 93.04429 89.85743
# Shear Modulus (GPa) = 36.59488 40.23777 38.41632
#
# Velocity S-wave (km/s) = 3.91807 4.10846 4.01439
# Velocity P-wave (km/s) = 7.53830 7.84457 7.69296
#
# Compressibility (1/GPa) = 0.01153794
#
# Stress axis : x y z
#
# Youngs Moduli (GPa) = 132.15754 84.02318 67.33886
#
# Poissons Ratio (x) = 0.28621 0.08250
# Poissons Ratio (y) = 0.45017 0.45513
# Poissons Ratio (z) = 0.16191 0.56790
#
# Static dielectric constant tensor:
#      x y z
#    x 4.213060 -0.000010 0.000010 
#    y -0.000010 4.785990 -0.000100 
#    z 0.000010 -0.000100 4.749430 
# 
# 
# High freq. dielectric constant tensor:
#      x y z
#    x 1.935520 0.000000 0.000000 
#    y 0.000000 1.952380 -0.000010 
#    z 0.000000 -0.000010 1.992350 
# 
# From -- ./inp_files/68613.got.cif
#   From: 2010.03.12/outbox.cif.g09.slc.cpg/sg70_35_cif.got.tgz:68613.got - 2010.04.16 13:46:32.
