data_PCOD8286995
_publ_section_title
;
Structure prediction by ZEFSAII (Michael W. Deem and Ramdas Pophale) SiO2 
 PCOD8286995
Probable space group: I M M M
;
_chemical_formula_sum "Si O2"
_cell_formula_units_Z 96
_cell_length_a 23.011679
_cell_length_b 27.777385
_cell_length_c 9.290823
_cell_angle_alpha 90.000000
_cell_angle_beta 90.000000
_cell_angle_gamma 90.000000
_cell_volume 5938.733706
_symmetry_space_group_name_H-M "I M M M"
_symmetry_group_IT_number 71
_symmetry_cell_setting 'orthorhombic'
loop_
_space_group_symop_operation_xyz
x,y,z
-x,-y,z
x,-y,-z
-x,y,-z
-x,-y,-z
x,y,-z
-x,y,z
x,-y,z
1/2+x,1/2+y,1/2+z
1/2-x,1/2-y,1/2+z
1/2+x,1/2-y,1/2-z
1/2-x,1/2+y,1/2-z
1/2-x,1/2-y,1/2-z
1/2+x,1/2+y,1/2-z
1/2-x,1/2+y,1/2+z
1/2+x,1/2-y,1/2+z
loop_
_atom_site_type_symbol
_atom_site_label
_atom_site_fract_x
_atom_site_fract_y
_atom_site_fract_z
Si Si1 0.210133 0.857588 0.330298
Si Si2 0.500000 0.754166 0.171007
Si Si3 0.000000 0.365215 0.670854
Si Si4 0.776859 0.446692 0.828635
Si Si5 0.110441 0.389748 0.837368
Si Si6 0.316161 0.796258 0.662546
Si Si7 0.878893 0.216139 0.669564
O O1 0.219996 0.860173 0.500000
O O2 0.225165 0.911144 0.269876
O O3 0.257323 0.819258 0.272561
O O4 0.145125 0.837996 0.292656
O O5 0.500000 0.809437 0.223903
O O6 0.443585 0.725424 0.231550
O O7 0.500000 0.752888 0.000000
O O8 0.055812 0.393304 0.731324
O O9 0.000000 0.368418 0.500000
O O10 0.767506 0.500000 0.762524
O O11 0.839605 0.426148 0.781272
O O12 0.774742 0.448928 0.000000
O O13 0.133070 0.335468 0.833850
O O14 0.091488 0.403395 0.000000
O O15 0.307597 0.777059 0.500000
O O16 0.333001 0.752835 0.765125
O O17 0.878875 0.224633 0.500000
#
# Coordination Sequence:
#
# PCOD8286995 Si02
#       7
#    16   8   8  16  16  16  16
#     4   8  15  25  40  61  82 105 132 168 211 248
#     4   9  18  27  37  56  83 117 149 166 184 227
#     4  11  19  29  42  58  83 117 154 176 193 238
#     4   8  14  27  46  66  84 101 131 178 223 259
#     4   9  17  28  43  62  83 108 139 177 216 246
#     4   9  16  26  39  59  84 106 133 168 207 246
#     4  10  17  27  40  57  84 113 141 167 194 237
#
# _framework density 16.165063
#
# number of rings (size 3 to 8) (size 9 to 14) (size 15 to 20)
#    0.000    3.000    1.667    2.750    0.000    0.000 
#    0.000    0.833    0.000    3.000    0.000    0.583 
#    0.000    4.667    0.000    0.000    0.000    1.667 
#
# Total GULP energy -594686.807566 kJ/mol
# GULP energy per Si atom -12389.308491 kJ/mol
# Density = 1.612827 g / cm^3
# Si number density = 16.165063 Si / 1000 Ang^3
#
#
#
# Elastic Constant Matrix: (Units=GPa)
#
#
# Indices 1 2 3 4 5 6 
#
# 1 73.1590 60.5131 12.4430 0.0000 0.0000 0.0000
# 2 60.5131 115.2642 15.9273 0.0000 0.0000 0.0000
# 3 12.4430 15.9273 23.4523 0.0000 0.0000 0.0000
# 4 0.0000 0.0000 0.0000 11.4542 0.0000 0.0000
# 5 0.0000 0.0000 0.0000 0.0000 13.1536 0.0000
# 6 0.0000 0.0000 0.0000 0.0000 0.0000 16.2534
#
#
#
# Elastic Compliance Matrix: (Units=1/GPa)
#
#
# Indices 1 2 3 4 5 6 
#
# 1 0.024627 -0.012275 -0.004729 0.000000 0.000000 0.000000
# 2 -0.012275 0.015693 -0.004145 0.000000 0.000000 0.000000
# 3 -0.004729 -0.004145 0.047964 0.000000 0.000000 0.000000
# 4 0.000000 0.000000 0.000000 0.087304 0.000000 0.000000
# 5 0.000000 0.000000 0.000000 0.000000 0.076025 0.000000
# 6 0.000000 0.000000 0.000000 0.000000 0.000000 0.061526
#
#
# Mechanical properties :
#
#
# Convention : Reuss Voigt Hill
#
# Bulk Modulus (GPa) = 21.74652 43.29357 32.52004
# Shear Modulus (GPa) = 13.48562 16.37173 14.92867
#
# Velocity S-wave (km/s) = 2.89146 3.18588 3.04224
# Velocity P-wave (km/s) = 4.96280 6.35401 5.70100
#
# Compressibility (1/GPa) = 0.04598438
#
# Stress axis : x y z
#
# Youngs Moduli (GPa) = 40.60616 63.72277 20.84905
#
# Poissons Ratio (x) = 0.78222 0.09860
# Poissons Ratio (y) = 0.49846 0.08641
# Poissons Ratio (z) = 0.19204 0.26412
#
# Static dielectric constant tensor:
#      x y z
#    x 3.210010 0.000000 0.000000 
#    y 0.000000 3.222500 0.000000 
#    z 0.000000 0.000000 2.683990 
# 
# 
# High freq. dielectric constant tensor:
#      x y z
#    x 1.614970 0.000000 0.000000 
#    y 0.000000 1.601080 0.000000 
#    z 0.000000 0.000000 1.580770 
# 
# From -- ./inp_files/13205.got.cif
#   From: 2010.06.25/outbox.cif.g09.slc.cpg/sg71_7_cif.got.tgz:13205.got - 2010.06.28 04:59:45.
