data_PCOD8286245
_publ_section_title
;
Structure prediction by ZEFSAII (Michael W. Deem and Ramdas Pophale) SiO2 
 PCOD8286245
Probable space group: F D D D
;
_chemical_formula_sum "Si O2"
_cell_formula_units_Z 208
_cell_length_a 18.480953
_cell_length_b 29.289419
_cell_length_c 18.546239
_cell_angle_alpha 90.000000
_cell_angle_beta 90.000000
_cell_angle_gamma 90.000000
_cell_volume 10039.011958
_symmetry_space_group_name_H-M "F D D D"
_symmetry_group_IT_number 70
_space_group.IT_coordinate_system_code '2'
_symmetry_cell_setting 'orthorhombic'
loop_
_space_group_symop_operation_xyz
x,y,z
1/4-x,1/4-y,z
x,1/4-y,1/4-z
1/4-x,y,1/4-z
-x,-y,-z
3/4+x,3/4+y,-z
-x,3/4+y,3/4+z
3/4+x,-y,3/4+z
x,1/2+y,1/2+z
1/4-x,3/4-y,1/2+z
x,3/4-y,3/4-z
1/4-x,1/2+y,3/4-z
-x,1/2-y,1/2-z
3/4+x,1/4+y,1/2-z
-x,1/4+y,1/4+z
3/4+x,1/2-y,1/4+z
1/2+x,y,1/2+z
3/4-x,1/4-y,1/2+z
1/2+x,1/4-y,3/4-z
3/4-x,y,3/4-z
1/2-x,-y,1/2-z
1/4+x,3/4+y,1/2-z
1/2-x,3/4+y,1/4+z
1/4+x,-y,1/4+z
1/2+x,1/2+y,z
3/4-x,3/4-y,z
1/2+x,3/4-y,1/4-z
3/4-x,1/2+y,1/4-z
1/2-x,1/2-y,-z
1/4+x,1/4+y,-z
1/2-x,1/4+y,3/4+z
1/4+x,1/2-y,3/4+z
loop_
_atom_site_type_symbol
_atom_site_label
_atom_site_fract_x
_atom_site_fract_y
_atom_site_fract_z
Si Si1 0.375000 0.875000 0.043001
Si Si2 0.519979 0.049855 0.034312
Si Si3 0.126605 0.324585 0.395200
Si Si4 0.617180 0.246038 0.468222
Si Si5 0.625000 0.004151 0.125000
Si Si6 0.531480 0.555127 0.862016
Si Si7 0.625000 0.282825 0.625000
Si Si8 0.286825 0.023315 0.000390
O O1 0.434038 0.853538 0.095705
O O2 0.421235 0.915481 0.002847
O O3 0.446296 0.075760 0.052453
O O4 0.557032 0.036651 0.109391
O O5 0.500000 0.000000 0.000000
O O6 0.107371 0.375000 0.375000
O O7 0.139514 0.293951 0.324157
O O8 0.054606 0.309982 0.438278
O O9 0.681018 0.216686 0.432569
O O10 0.631055 0.251622 0.553499
O O11 0.540745 0.218867 0.462239
O O12 0.601547 0.973017 0.192297
O O13 0.446536 0.563842 0.875745
O O14 0.540539 0.525538 0.789685
#
# Coordination Sequence:
#
# PCOD8286245 Si02
#       8
#    16  32  32  32  16  32  16  32
#     4  12  26  41  64  99 138 174 216 272 332 421
#     4  12  25  42  62  95 137 174 224 269 335 414
#     4  11  24  39  61  96 135 173 217 277 330 401
#     4  10  21  43  69  89 128 172 217 276 341 393
#     4  12  20  37  63  92 127 182 209 256 330 402
#     4  10  22  43  63  95 128 170 218 275 330 400
#     4  10  22  40  71  95 115 164 231 273 332 397
#     4  10  21  39  63  93 128 175 217 258 339 404
#
# _framework density 20.719170999999999
#
# number of rings (size 3 to 8) (size 9 to 14) (size 15 to 20)
#    0.000    1.231    4.615    1.385    6.462    0.000 
#    2.769    1.538    0.000    0.000    0.000    0.000 
#    0.000    0.000    0.000    0.000    0.000    0.000 
#
# Total GULP energy -644181.689497 kJ/mol
# GULP energy per Si atom -12388.109413 kJ/mol
# Density = 2.067201 g / cm^3
# Si number density = 20.719171 Si / 1000 Ang^3
#
#
#
# Elastic Constant Matrix: (Units=GPa)
#
#
# Indices 1 2 3 4 5 6 
#
# 1 145.3989 56.0644 56.9993 0.0000 0.0000 0.0000
# 2 56.0644 111.0806 36.4453 0.0000 0.0000 0.0000
# 3 56.9993 36.4453 111.9947 0.0000 0.0000 0.0000
# 4 0.0000 0.0000 0.0000 16.6979 0.0000 0.0000
# 5 0.0000 0.0000 0.0000 0.0000 40.4747 0.0000
# 6 0.0000 0.0000 0.0000 0.0000 0.0000 23.9687
#
#
#
# Elastic Compliance Matrix: (Units=1/GPa)
#
#
# Indices 1 2 3 4 5 6 
#
# 1 0.009784 -0.003699 -0.003776 0.000000 0.000000 0.000000
# 2 -0.003699 0.011477 -0.001852 0.000000 0.000000 0.000000
# 3 -0.003776 -0.001852 0.011453 0.000000 0.000000 0.000000
# 4 0.000000 0.000000 0.000000 0.059888 0.000000 0.000000
# 5 0.000000 0.000000 0.000000 0.000000 0.024707 0.000000
# 6 0.000000 0.000000 0.000000 0.000000 0.000000 0.041721
#
#
# Mechanical properties :
#
#
# Convention : Reuss Voigt Hill
#
# Bulk Modulus (GPa) = 71.12258 74.16582 72.64420
# Shear Modulus (GPa) = 27.41645 30.82595 29.12120
#
# Velocity S-wave (km/s) = 3.64158 3.86138 3.75309
# Velocity P-wave (km/s) = 7.21685 7.46685 7.34292
#
# Compressibility (1/GPa) = 0.01406023
#
# Stress axis : x y z
#
# Youngs Moduli (GPa) = 102.20447 87.12821 87.31040
#
# Poissons Ratio (x) = 0.32233 0.32967
# Poissons Ratio (y) = 0.37810 0.16171
# Poissons Ratio (z) = 0.38590 0.16137
#
# Static dielectric constant tensor:
#      x y z
#    x 4.195210 0.000000 0.000000 
#    y 0.000000 3.461800 0.000000 
#    z 0.000000 0.000000 3.814830 
# 
# 
# High freq. dielectric constant tensor:
#      x y z
#    x 1.832300 0.000000 0.000000 
#    y 0.000000 1.775460 0.000000 
#    z 0.000000 0.000000 1.817260 
# 
# From -- ./inp_files/36780.got.cif
#   From: 2010.03.12/outbox.cif.g09.slc.cpg/sg70_19_cif.got.tgz:36780.got - 2010.04.16 13:46:32.
