data_PCOD8286792
_publ_section_title
;
Structure prediction by ZEFSAII (Michael W. Deem and Ramdas Pophale) SiO2 
 PCOD8286792
Probable space group: F D D D
;
_chemical_formula_sum "Si O2"
_cell_formula_units_Z 192
_cell_length_a 15.297833
_cell_length_b 31.953722
_cell_length_c 17.954544
_cell_angle_alpha 90.000000
_cell_angle_beta 90.000000
_cell_angle_gamma 90.000000
_cell_volume 8776.588727
_symmetry_space_group_name_H-M "F D D D"
_symmetry_group_IT_number 70
_space_group.IT_coordinate_system_code '2'
_symmetry_cell_setting 'orthorhombic'
loop_
_space_group_symop_operation_xyz
x,y,z
1/4-x,1/4-y,z
x,1/4-y,1/4-z
1/4-x,y,1/4-z
-x,-y,-z
3/4+x,3/4+y,-z
-x,3/4+y,3/4+z
3/4+x,-y,3/4+z
x,1/2+y,1/2+z
1/4-x,3/4-y,1/2+z
x,3/4-y,3/4-z
1/4-x,1/2+y,3/4-z
-x,1/2-y,1/2-z
3/4+x,1/4+y,1/2-z
-x,1/4+y,1/4+z
3/4+x,1/2-y,1/4+z
1/2+x,y,1/2+z
3/4-x,1/4-y,1/2+z
1/2+x,1/4-y,3/4-z
3/4-x,y,3/4-z
1/2-x,-y,1/2-z
1/4+x,3/4+y,1/2-z
1/2-x,3/4+y,1/4+z
1/4+x,-y,1/4+z
1/2+x,1/2+y,z
3/4-x,3/4-y,z
1/2+x,3/4-y,1/4-z
3/4-x,1/2+y,1/4-z
1/2-x,1/2-y,-z
1/4+x,1/4+y,-z
1/2-x,1/4+y,3/4+z
1/4+x,1/2-y,3/4+z
loop_
_atom_site_type_symbol
_atom_site_label
_atom_site_fract_x
_atom_site_fract_y
_atom_site_fract_z
Si Si1 0.787069 0.934469 0.255741
Si Si2 0.351454 0.246425 0.011598
Si Si3 0.875000 0.061748 0.875000
Si Si4 0.520423 0.119933 0.869456
Si Si5 0.972942 0.933464 0.767021
Si Si6 0.630568 0.988427 0.317463
Si Si7 0.125000 0.125000 0.125000
Si Si8 0.875000 0.375000 0.875000
O O1 0.746239 0.902922 0.195897
O O2 0.711964 0.962901 0.288020
O O3 0.821267 0.906216 0.322874
O O4 0.860201 0.963868 0.214381
O O5 0.380474 0.232811 0.093796
O O6 0.250000 0.250000 0.000000
O O7 0.390897 0.215908 0.948722
O O8 0.383683 0.293642 0.003447
O O9 0.785104 0.087538 0.865822
O O10 0.625000 0.125000 0.862533
O O11 0.486399 0.091518 0.801959
O O12 0.945836 0.901642 0.830604
O O13 0.040620 0.969255 0.789383
#
# Coordination Sequence:
#
# PCOD8286792 Si02
#       8
#    32  32  16  32  32  32   8   8
#     4  11  27  48  70 108 144 190 243 294 371 432
#     4  12  26  48  73 110 143 195 241 307 366 452
#     4  12  29  42  77 109 146 194 260 293 381 448
#     4  12  25  48  70 104 149 194 239 316 369 437
#     4  12  26  45  74 101 150 188 242 296 376 427
#     4  11  27  46  74 103 146 193 239 297 361 454
#     4  12  26  44  68 116 140 194 240 316 354 442
#     4  12  28  40  82 104 144 178 244 304 356 426
#
# _framework density 21.876380000000001
#
# number of rings (size 3 to 8) (size 9 to 14) (size 15 to 20)
#    0.000    0.333    3.333    4.500    9.333    0.667 
#    0.000    0.000    0.000    0.000    0.000    0.000 
#    0.000    0.000    0.000    0.000    0.000    0.000 
#
# Total GULP energy -595132.985832 kJ/mol
# GULP energy per Si atom -12398.603871 kJ/mol
# Density = 2.182659 g / cm^3
# Si number density = 21.876380 Si / 1000 Ang^3
#
#
#
# Elastic Constant Matrix: (Units=GPa)
#
#
# Indices 1 2 3 4 5 6 
#
# 1 85.4968 17.9189 17.1691 0.0000 0.0000 0.0000
# 2 17.9189 83.3496 45.7164 0.0000 0.0000 0.0000
# 3 17.1691 45.7164 167.8435 0.0000 0.0000 0.0000
# 4 0.0000 0.0000 0.0000 61.2306 0.0000 0.0000
# 5 0.0000 0.0000 0.0000 0.0000 21.8224 0.0000
# 6 0.0000 0.0000 0.0000 0.0000 0.0000 50.8752
#
#
#
# Elastic Compliance Matrix: (Units=1/GPa)
#
#
# Indices 1 2 3 4 5 6 
#
# 1 0.012305 -0.002298 -0.000633 0.000000 0.000000 0.000000
# 2 -0.002298 0.014534 -0.003724 0.000000 0.000000 0.000000
# 3 -0.000633 -0.003724 0.007037 0.000000 0.000000 0.000000
# 4 0.000000 0.000000 0.000000 0.016332 0.000000 0.000000
# 5 0.000000 0.000000 0.000000 0.000000 0.045825 0.000000
# 6 0.000000 0.000000 0.000000 0.000000 0.000000 0.019656
#
#
# Mechanical properties :
#
#
# Convention : Reuss Voigt Hill
#
# Bulk Modulus (GPa) = 48.62227 55.36652 51.99440
# Shear Modulus (GPa) = 36.80442 43.84468 40.32455
#
# Velocity S-wave (km/s) = 4.10613 4.48169 4.29801
# Velocity P-wave (km/s) = 6.68989 7.22111 6.96057
#
# Compressibility (1/GPa) = 0.02056671
#
# Stress axis : x y z
#
# Youngs Moduli (GPa) = 81.26707 68.80353 142.10857
#
# Poissons Ratio (x) = 0.15814 0.08991
# Poissons Ratio (y) = 0.18678 0.52916
# Poissons Ratio (z) = 0.05142 0.25620
#
# Static dielectric constant tensor:
#      x y z
#    x 3.906550 0.000000 0.000000 
#    y 0.000000 4.818900 0.000000 
#    z 0.000000 0.000000 4.427910 
# 
# 
# High freq. dielectric constant tensor:
#      x y z
#    x 1.861690 0.000000 0.000000 
#    y 0.000000 1.880470 0.000000 
#    z 0.000000 0.000000 1.881880 
# 
# From -- ./inp_files/35549.got.cif
#   From: 2010.03.12/outbox.cif.g09.slc.cpg/sg70_18_cif.got.tgz:35549.got - 2010.04.16 13:46:32.
