data_PCOD8286404
_publ_section_title
;
Structure prediction by ZEFSAII (Michael W. Deem and Ramdas Pophale) SiO2 
 PCOD8286404
Probable space group: F D D D
;
_chemical_formula_sum "Si O2"
_cell_formula_units_Z 232
_cell_length_a 29.538596
_cell_length_b 17.351654
_cell_length_c 17.589024
_cell_angle_alpha 90.000000
_cell_angle_beta 90.000000
_cell_angle_gamma 90.000000
_cell_volume 9015.139877
_symmetry_space_group_name_H-M "F D D D"
_symmetry_group_IT_number 70
_space_group.IT_coordinate_system_code '2'
_symmetry_cell_setting 'orthorhombic'
loop_
_space_group_symop_operation_xyz
x,y,z
1/4-x,1/4-y,z
x,1/4-y,1/4-z
1/4-x,y,1/4-z
-x,-y,-z
3/4+x,3/4+y,-z
-x,3/4+y,3/4+z
3/4+x,-y,3/4+z
x,1/2+y,1/2+z
1/4-x,3/4-y,1/2+z
x,3/4-y,3/4-z
1/4-x,1/2+y,3/4-z
-x,1/2-y,1/2-z
3/4+x,1/4+y,1/2-z
-x,1/4+y,1/4+z
3/4+x,1/2-y,1/4+z
1/2+x,y,1/2+z
3/4-x,1/4-y,1/2+z
1/2+x,1/4-y,3/4-z
3/4-x,y,3/4-z
1/2-x,-y,1/2-z
1/4+x,3/4+y,1/2-z
1/2-x,3/4+y,1/4+z
1/4+x,-y,1/4+z
1/2+x,1/2+y,z
3/4-x,3/4-y,z
1/2+x,3/4-y,1/4-z
3/4-x,1/2+y,1/4-z
1/2-x,1/2-y,-z
1/4+x,1/4+y,-z
1/2-x,1/4+y,3/4+z
1/4+x,1/2-y,3/4+z
loop_
_atom_site_type_symbol
_atom_site_label
_atom_site_fract_x
_atom_site_fract_y
_atom_site_fract_z
Si Si1 0.697101 0.720559 0.538904
Si Si2 0.206098 0.991443 0.406555
Si Si3 0.265587 0.123806 0.465287
Si Si4 0.392622 0.292596 0.146141
Si Si5 0.814022 0.267286 0.432164
Si Si6 0.664314 0.503880 0.017581
Si Si7 0.625000 0.625000 0.625000
Si Si8 0.511755 0.898252 0.489696
O O1 0.713942 0.800511 0.578448
O O2 0.738306 0.659184 0.537401
O O3 0.681245 0.739146 0.452080
O O4 0.654417 0.684200 0.578361
O O5 0.223228 0.952031 0.330510
O O6 0.224100 0.940474 0.479187
O O7 0.227915 0.076469 0.416354
O O8 0.151825 0.988357 0.401568
O O9 0.308220 0.074838 0.494708
O O10 0.375000 0.375000 0.173339
O O11 0.415158 0.299528 0.061858
O O12 0.814274 0.454780 0.406678
O O13 0.862156 0.240852 0.462601
O O14 0.793064 0.335724 0.486221
O O15 0.784745 0.186691 0.435798
#
# Coordination Sequence:
#
# PCOD8286404 Si02
#       8
#    32  32  32  32  32  32   8  32
#     4  11  27  49  79 105 156 192 259 328 396 470
#     4  11  22  45  72 109 141 203 251 309 390 468
#     4  11  25  49  71 116 148 200 253 317 387 470
#     4  12  25  49  75 108 149 202 257 318 396 477
#     4  10  22  46  66 114 151 200 255 315 375 453
#     4  11  25  43  74 105 154 195 257 309 382 457
#     4  12  24  56  80 120 140 200 256 336 404 464
#     4  10  22  42  76 101 156 198 253 315 380 467
#
# _framework density 25.734487999999999
#
# number of rings (size 3 to 8) (size 9 to 14) (size 15 to 20)
#    0.000    1.103    4.828    0.000    1.931    4.966 
#    4.966    0.690    0.000    0.000    0.000    0.000 
#    0.000    0.000    0.000    0.000    0.000    0.000 
#
# Total GULP energy -718525.128835 kJ/mol
# GULP energy per Si atom -12388.364290 kJ/mol
# Density = 2.567591 g / cm^3
# Si number density = 25.734488 Si / 1000 Ang^3
#
#
#
# Elastic Constant Matrix: (Units=GPa)
#
#
# Indices 1 2 3 4 5 6 
#
# 1 138.4852 29.1037 37.3361 0.0000 0.0000 0.0000
# 2 29.1037 91.0519 13.2078 0.0000 0.0000 0.0000
# 3 37.3361 13.2078 85.9399 0.0000 0.0000 0.0000
# 4 0.0000 0.0000 0.0000 10.4686 0.0000 0.0000
# 5 0.0000 0.0000 0.0000 0.0000 15.3214 0.0000
# 6 0.0000 0.0000 0.0000 0.0000 0.0000 45.4760
#
#
#
# Elastic Compliance Matrix: (Units=1/GPa)
#
#
# Indices 1 2 3 4 5 6 
#
# 1 0.008611 -0.002260 -0.003394 0.000000 0.000000 0.000000
# 2 -0.002260 0.011826 -0.000836 0.000000 0.000000 0.000000
# 3 -0.003394 -0.000836 0.013239 0.000000 0.000000 0.000000
# 4 0.000000 0.000000 0.000000 0.095524 0.000000 0.000000
# 5 0.000000 0.000000 0.000000 0.000000 0.065268 0.000000
# 6 0.000000 0.000000 0.000000 0.000000 0.000000 0.021990
#
#
# Mechanical properties :
#
#
# Convention : Reuss Voigt Hill
#
# Bulk Modulus (GPa) = 48.31540 52.75245 50.53393
# Shear Modulus (GPa) = 21.15634 29.97516 25.56575
#
# Velocity S-wave (km/s) = 2.87034 3.41660 3.15531
# Velocity P-wave (km/s) = 5.45898 6.00895 5.74055
#
# Compressibility (1/GPa) = 0.02069733
#
# Stress axis : x y z
#
# Youngs Moduli (GPa) = 116.13199 84.55672 75.53560
#
# Poissons Ratio (x) = 0.19111 0.25634
# Poissons Ratio (y) = 0.26247 0.06312
# Poissons Ratio (z) = 0.39411 0.07066
#
# Static dielectric constant tensor:
#      x y z
#    x 5.257730 0.000000 0.000000 
#    y 0.000000 4.770490 0.000000 
#    z 0.000000 0.000000 4.746180 
# 
# 
# High freq. dielectric constant tensor:
#      x y z
#    x 2.058850 0.000000 0.000000 
#    y 0.000000 2.017870 0.000000 
#    z 0.000000 0.000000 2.010610 
# 
# From -- ./inp_files/55212.got.cif
#   From: 2010.03.12/outbox.cif.g09.slc.cpg/sg70_28_cif.got.tgz:55212.got - 2010.04.16 13:46:32.
