data_PCOD8286092
_publ_section_title
;
Structure prediction by ZEFSAII (Michael W. Deem and Ramdas Pophale) SiO2 
 PCOD8286092
Probable space group: F D D D
;
_chemical_formula_sum "Si O2"
_cell_formula_units_Z 208
_cell_length_a 25.111867
_cell_length_b 23.186141
_cell_length_c 18.228822
_cell_angle_alpha 90.000000
_cell_angle_beta 90.000000
_cell_angle_gamma 90.000000
_cell_volume 10613.682192
_symmetry_space_group_name_H-M "F D D D"
_symmetry_group_IT_number 70
_space_group.IT_coordinate_system_code '2'
_symmetry_cell_setting 'orthorhombic'
loop_
_space_group_symop_operation_xyz
x,y,z
1/4-x,1/4-y,z
x,1/4-y,1/4-z
1/4-x,y,1/4-z
-x,-y,-z
3/4+x,3/4+y,-z
-x,3/4+y,3/4+z
3/4+x,-y,3/4+z
x,1/2+y,1/2+z
1/4-x,3/4-y,1/2+z
x,3/4-y,3/4-z
1/4-x,1/2+y,3/4-z
-x,1/2-y,1/2-z
3/4+x,1/4+y,1/2-z
-x,1/4+y,1/4+z
3/4+x,1/2-y,1/4+z
1/2+x,y,1/2+z
3/4-x,1/4-y,1/2+z
1/2+x,1/4-y,3/4-z
3/4-x,y,3/4-z
1/2-x,-y,1/2-z
1/4+x,3/4+y,1/2-z
1/2-x,3/4+y,1/4+z
1/4+x,-y,1/4+z
1/2+x,1/2+y,z
3/4-x,3/4-y,z
1/2+x,3/4-y,1/4-z
3/4-x,1/2+y,1/4-z
1/2-x,1/2-y,-z
1/4+x,1/4+y,-z
1/2-x,1/4+y,3/4+z
1/4+x,1/2-y,3/4+z
loop_
_atom_site_type_symbol
_atom_site_label
_atom_site_fract_x
_atom_site_fract_y
_atom_site_fract_z
Si Si1 0.038868 0.901275 0.296866
Si Si2 0.875000 0.178411 0.875000
Si Si3 0.847325 0.663090 0.990847
Si Si4 0.108534 0.038488 0.044487
Si Si5 0.267197 0.201727 0.443112
Si Si6 0.536478 0.032179 0.795662
Si Si7 0.488751 0.886042 0.456453
O O1 0.021147 0.875000 0.375000
O O2 0.102681 0.906302 0.294934
O O3 0.017370 0.861039 0.231501
O O4 0.016385 0.966068 0.284983
O O5 0.844831 0.139386 0.815703
O O6 0.923032 0.215854 0.838497
O O7 0.846346 0.721385 0.943562
O O8 0.795303 0.667540 0.041496
O O9 0.125000 0.062636 0.125000
O O10 0.058532 0.073908 0.011179
O O11 0.153458 0.043778 0.981634
O O12 0.250000 0.250000 0.500000
O O13 0.221826 0.201024 0.380715
O O14 0.501290 0.075521 0.747677
O O15 0.470698 0.875000 0.375000
#
# Coordination Sequence:
#
# PCOD8286092 Si02
#       7
#    32  16  32  32  32  32  32
#     4  10  21  40  67  92 122 162 211 262 325 379
#     4  10  20  38  66  93 123 162 216 264 322 384
#     4  10  21  37  61  92 122 158 219 262 304 375
#     4  11  22  39  61  86 131 176 204 250 321 389
#     4  11  22  41  71  93 124 166 215 271 330 374
#     4  11  23  39  63  93 127 168 210 255 318 389
#     4  12  23  37  61  90 129 166 212 258 316 376
#
# _framework density 19.597346000000002
#
# number of rings (size 3 to 8) (size 9 to 14) (size 15 to 20)
#    0.000    1.231    5.385    1.385    0.000    0.000 
#    2.769    0.000    6.769    0.923    0.000    0.000 
#    0.000    0.000    0.000    0.000    0.000    0.000 
#
# Total GULP energy -644507.526647 kJ/mol
# GULP energy per Si atom -12394.375512 kJ/mol
# Density = 1.955274 g / cm^3
# Si number density = 19.597346 Si / 1000 Ang^3
#
#
#
# Elastic Constant Matrix: (Units=GPa)
#
#
# Indices 1 2 3 4 5 6 
#
# 1 102.3258 44.6170 45.7453 0.0000 0.0000 0.0000
# 2 44.6170 112.2636 47.9969 0.0000 0.0000 0.0000
# 3 45.7453 47.9969 118.8839 0.0000 0.0000 0.0000
# 4 0.0000 0.0000 0.0000 31.7562 0.0000 0.0000
# 5 0.0000 0.0000 0.0000 0.0000 35.0350 0.0000
# 6 0.0000 0.0000 0.0000 0.0000 0.0000 18.0406
#
#
#
# Elastic Compliance Matrix: (Units=1/GPa)
#
#
# Indices 1 2 3 4 5 6 
#
# 1 0.012926 -0.003639 -0.003505 0.000000 0.000000 0.000000
# 2 -0.003639 0.011790 -0.003360 0.000000 0.000000 0.000000
# 3 -0.003505 -0.003360 0.011117 0.000000 0.000000 0.000000
# 4 0.000000 0.000000 0.000000 0.031490 0.000000 0.000000
# 5 0.000000 0.000000 0.000000 0.000000 0.028543 0.000000
# 6 0.000000 0.000000 0.000000 0.000000 0.000000 0.055430
#
#
# Mechanical properties :
#
#
# Convention : Reuss Voigt Hill
#
# Bulk Modulus (GPa) = 67.44851 67.79907 67.62379
# Shear Modulus (GPa) = 28.20949 29.97398 29.09174
#
# Velocity S-wave (km/s) = 3.79813 3.91511 3.85707
# Velocity P-wave (km/s) = 7.32982 7.42352 7.37682
#
# Compressibility (1/GPa) = 0.01482612
#
# Stress axis : x y z
#
# Youngs Moduli (GPa) = 77.36251 84.81563 89.95518
#
# Poissons Ratio (x) = 0.30863 0.31527
# Poissons Ratio (y) = 0.28151 0.30224
# Poissons Ratio (z) = 0.27114 0.28497
#
# Static dielectric constant tensor:
#      x y z
#    x 3.495260 0.000000 0.000000 
#    y 0.000000 3.775040 0.000000 
#    z 0.000000 0.000000 3.437030 
# 
# 
# High freq. dielectric constant tensor:
#      x y z
#    x 1.753190 0.000000 0.000000 
#    y 0.000000 1.768050 0.000000 
#    z 0.000000 0.000000 1.759250 
# 
# From -- ./inp_files/38853.got.cif
#   From: 2010.03.12/outbox.cif.g09.slc.cpg/sg70_20_cif.got.tgz:38853.got - 2010.04.16 13:46:32.
