data_PCOD8286158
_publ_section_title
;
Structure prediction by ZEFSAII (Michael W. Deem and Ramdas Pophale) SiO2 
 PCOD8286158
Probable space group: F D D D
;
_chemical_formula_sum "Si O2"
_cell_formula_units_Z 136
_cell_length_a 8.767116
_cell_length_b 31.604505
_cell_length_c 24.551378
_cell_angle_alpha 90.000000
_cell_angle_beta 90.000000
_cell_angle_gamma 90.000000
_cell_volume 6802.704691
_symmetry_space_group_name_H-M "F D D D"
_symmetry_group_IT_number 70
_space_group.IT_coordinate_system_code '2'
_symmetry_cell_setting 'orthorhombic'
loop_
_space_group_symop_operation_xyz
x,y,z
1/4-x,1/4-y,z
x,1/4-y,1/4-z
1/4-x,y,1/4-z
-x,-y,-z
3/4+x,3/4+y,-z
-x,3/4+y,3/4+z
3/4+x,-y,3/4+z
x,1/2+y,1/2+z
1/4-x,3/4-y,1/2+z
x,3/4-y,3/4-z
1/4-x,1/2+y,3/4-z
-x,1/2-y,1/2-z
3/4+x,1/4+y,1/2-z
-x,1/4+y,1/4+z
3/4+x,1/2-y,1/4+z
1/2+x,y,1/2+z
3/4-x,1/4-y,1/2+z
1/2+x,1/4-y,3/4-z
3/4-x,y,3/4-z
1/2-x,-y,1/2-z
1/4+x,3/4+y,1/2-z
1/2-x,3/4+y,1/4+z
1/4+x,-y,1/4+z
1/2+x,1/2+y,z
3/4-x,3/4-y,z
1/2+x,3/4-y,1/4-z
3/4-x,1/2+y,1/4-z
1/2-x,1/2-y,-z
1/4+x,1/4+y,-z
1/2-x,1/4+y,3/4+z
1/4+x,1/2-y,3/4+z
loop_
_atom_site_type_symbol
_atom_site_label
_atom_site_fract_x
_atom_site_fract_y
_atom_site_fract_z
Si Si1 0.611402 0.455735 0.047974
Si Si2 0.375000 0.279549 0.875000
Si Si3 0.641847 0.173281 0.368879
Si Si4 0.323557 0.553357 0.075979
Si Si5 0.875000 0.375000 0.875000
Si Si6 0.625000 0.982027 0.125000
O O1 0.657482 0.502037 0.070451
O O2 0.447788 0.445816 0.075296
O O3 0.735788 0.422820 0.070340
O O4 0.604319 0.451564 0.983662
O O5 0.219230 0.306143 0.883327
O O6 0.625000 0.125000 0.385047
O O7 0.495020 0.199508 0.347150
O O8 0.227807 0.596118 0.085155
O O9 0.213770 0.512722 0.083308
#
# Coordination Sequence:
#
# PCOD8286158 Si02
#       6
#    32  16  32  32   8  16
#     4  10  21  40  65  91 122 168 205 257 316 384
#     4  10  20  42  66  93 121 159 213 264 295 391
#     4  10  21  39  60  98 127 153 208 267 316 375
#     4  11  23  44  64  89 130 169 215 250 319 364
#     4  10  28  46  56  98 128 166 214 272 284 382
#     4  11  20  38  64  90 127 163 206 267 301 375
#
# _framework density 19.992046999999999
#
# number of rings (size 3 to 8) (size 9 to 14) (size 15 to 20)
#    0.000    1.882    4.706    2.118    1.647    1.412 
#    4.235    0.000    0.000    0.000    0.000    0.000 
#    0.000    0.000    0.000    0.000    0.000    0.000 
#
# Total GULP energy -421247.671732 kJ/mol
# GULP energy per Si atom -12389.637404 kJ/mol
# Density = 1.994654 g / cm^3
# Si number density = 19.992047 Si / 1000 Ang^3
#
#
#
# Elastic Constant Matrix: (Units=GPa)
#
#
# Indices 1 2 3 4 5 6 
#
# 1 132.1551 57.3429 37.8911 0.0000 0.0000 0.0000
# 2 57.3429 109.3363 33.9618 0.0000 0.0000 0.0000
# 3 37.8911 33.9618 90.2147 0.0000 0.0000 0.0000
# 4 0.0000 0.0000 0.0000 7.7130 0.0000 0.0000
# 5 0.0000 0.0000 0.0000 0.0000 15.0341 0.0000
# 6 0.0000 0.0000 0.0000 0.0000 0.0000 30.6570
#
#
#
# Elastic Compliance Matrix: (Units=1/GPa)
#
#
# Indices 1 2 3 4 5 6 
#
# 1 0.010307 -0.004599 -0.002598 0.000000 0.000000 0.000000
# 2 -0.004599 0.012409 -0.002740 0.000000 0.000000 0.000000
# 3 -0.002598 -0.002740 0.013207 0.000000 0.000000 0.000000
# 4 0.000000 0.000000 0.000000 0.129651 0.000000 0.000000
# 5 0.000000 0.000000 0.000000 0.000000 0.066515 0.000000
# 6 0.000000 0.000000 0.000000 0.000000 0.000000 0.032619
#
#
# Mechanical properties :
#
#
# Convention : Reuss Voigt Hill
#
# Bulk Modulus (GPa) = 62.30407 65.56642 63.93524
# Shear Modulus (GPa) = 17.24543 24.18151 20.71347
#
# Velocity S-wave (km/s) = 2.94022 3.48164 3.22232
# Velocity P-wave (km/s) = 6.53900 7.00213 6.77453
#
# Compressibility (1/GPa) = 0.01605032
#
# Stress axis : x y z
#
# Youngs Moduli (GPa) = 97.01992 80.58629 75.71598
#
# Poissons Ratio (x) = 0.37060 0.19670
# Poissons Ratio (y) = 0.44617 0.20746
# Poissons Ratio (z) = 0.25205 0.22080
#
# Static dielectric constant tensor:
#      x y z
#    x 4.054520 0.000000 0.000000 
#    y 0.000000 3.644560 0.000000 
#    z 0.000000 0.000000 3.339670 
# 
# 
# High freq. dielectric constant tensor:
#      x y z
#    x 1.799070 0.000000 0.000000 
#    y 0.000000 1.779390 0.000000 
#    z 0.000000 0.000000 1.744810 
# 
# From -- ./inp_files/56651.got.cif
#   From: 2010.03.12/outbox.cif.g09.slc.cpg/sg70_29_cif.got.tgz:56651.got - 2010.04.16 13:46:32.
