data_PCOD8286435
_publ_section_title
;
Structure prediction by ZEFSAII (Michael W. Deem and Ramdas Pophale) SiO2 
 PCOD8286435
Probable space group: F D D D
;
_chemical_formula_sum "Si O2"
_cell_formula_units_Z 160
_cell_length_a 19.361551
_cell_length_b 21.145290
_cell_length_c 17.288257
_cell_angle_alpha 90.000000
_cell_angle_beta 90.000000
_cell_angle_gamma 90.000000
_cell_volume 7077.909416
_symmetry_space_group_name_H-M "F D D D"
_symmetry_group_IT_number 70
_space_group.IT_coordinate_system_code '2'
_symmetry_cell_setting 'orthorhombic'
loop_
_space_group_symop_operation_xyz
x,y,z
1/4-x,1/4-y,z
x,1/4-y,1/4-z
1/4-x,y,1/4-z
-x,-y,-z
3/4+x,3/4+y,-z
-x,3/4+y,3/4+z
3/4+x,-y,3/4+z
x,1/2+y,1/2+z
1/4-x,3/4-y,1/2+z
x,3/4-y,3/4-z
1/4-x,1/2+y,3/4-z
-x,1/2-y,1/2-z
3/4+x,1/4+y,1/2-z
-x,1/4+y,1/4+z
3/4+x,1/2-y,1/4+z
1/2+x,y,1/2+z
3/4-x,1/4-y,1/2+z
1/2+x,1/4-y,3/4-z
3/4-x,y,3/4-z
1/2-x,-y,1/2-z
1/4+x,3/4+y,1/2-z
1/2-x,3/4+y,1/4+z
1/4+x,-y,1/4+z
1/2+x,1/2+y,z
3/4-x,3/4-y,z
1/2+x,3/4-y,1/4-z
3/4-x,1/2+y,1/4-z
1/2-x,1/2-y,-z
1/4+x,1/4+y,-z
1/2-x,1/4+y,3/4+z
1/4+x,1/2-y,3/4+z
loop_
_atom_site_type_symbol
_atom_site_label
_atom_site_fract_x
_atom_site_fract_y
_atom_site_fract_z
Si Si1 0.359948 0.983426 0.715922
Si Si2 0.739622 0.773255 0.218758
Si Si3 0.108499 0.227889 0.295988
Si Si4 0.256817 0.652659 0.040443
Si Si5 0.007911 0.688354 0.673377
O O1 0.320984 0.049650 0.705784
O O2 0.434926 0.994792 0.755069
O O3 0.383687 0.952586 0.633586
O O4 0.314346 0.935828 0.765523
O O5 0.686514 0.734631 0.270110
O O6 0.726463 0.848363 0.227626
O O7 0.727014 0.749902 0.130715
O O8 0.066358 0.180004 0.239537
O O9 0.067411 0.295503 0.290886
O O10 0.244469 0.625000 0.125000
O O11 0.004000 0.625000 0.625000
#
# Coordination Sequence:
#
# PCOD8286435 Si02
#       5
#    32  32  32  32  32
#     4  10  24  44  70 104 141 188 238 297 369 426
#     4  11  23  40  71 105 134 185 242 291 354 433
#     4  10  22  45  69 101 139 182 240 290 355 434
#     4  11  23  47  71  98 149 188 236 302 369 434
#     4  10  24  46  69 101 143 193 233 293 368 431
#
# _framework density 22.605543999999998
#
# number of rings (size 3 to 8) (size 9 to 14) (size 15 to 20)
#    0.000    1.600    2.000    1.200    5.600    3.200 
#   18.000    2.000    0.000    0.000    0.000    0.000 
#    0.000    0.000    0.000    0.000    0.000    0.000 
#
# Total GULP energy -495744.959352 kJ/mol
# GULP energy per Si atom -12393.623984 kJ/mol
# Density = 2.255409 g / cm^3
# Si number density = 22.605544 Si / 1000 Ang^3
#
#
#
# Elastic Constant Matrix: (Units=GPa)
#
#
# Indices 1 2 3 4 5 6 
#
# 1 139.9322 14.6865 35.4596 0.0000 0.0000 0.0000
# 2 14.6865 77.0165 47.8007 0.0000 0.0000 0.0000
# 3 35.4596 47.8007 89.0708 0.0000 0.0000 0.0000
# 4 0.0000 0.0000 0.0000 41.5876 0.0000 0.0000
# 5 0.0000 0.0000 0.0000 0.0000 37.7501 0.0000
# 6 0.0000 0.0000 0.0000 0.0000 0.0000 17.2322
#
#
#
# Elastic Compliance Matrix: (Units=1/GPa)
#
#
# Indices 1 2 3 4 5 6 
#
# 1 0.007971 0.000674 -0.003535 0.000000 0.000000 0.000000
# 2 0.000674 0.019526 -0.010747 0.000000 0.000000 0.000000
# 3 -0.003535 -0.010747 0.018402 0.000000 0.000000 0.000000
# 4 0.000000 0.000000 0.000000 0.024046 0.000000 0.000000
# 5 0.000000 0.000000 0.000000 0.000000 0.026490 0.000000
# 6 0.000000 0.000000 0.000000 0.000000 0.000000 0.058031
#
#
# Mechanical properties :
#
#
# Convention : Reuss Voigt Hill
#
# Bulk Modulus (GPa) = 53.52528 55.76811 54.64670
# Shear Modulus (GPa) = 26.60845 33.18548 29.89696
#
# Velocity S-wave (km/s) = 3.43458 3.83564 3.64063
# Velocity P-wave (km/s) = 6.28154 6.65881 6.47293
#
# Compressibility (1/GPa) = 0.01868276
#
# Stress axis : x y z
#
# Youngs Moduli (GPa) = 125.44829 51.21379 54.34200
#
# Poissons Ratio (x) = -0.03452 0.19211
# Poissons Ratio (y) = -0.08456 0.58402
# Poissons Ratio (z) = 0.44348 0.55040
#
# Static dielectric constant tensor:
#      x y z
#    x 4.497390 0.000000 0.000000 
#    y 0.000000 3.972810 0.000000 
#    z 0.000000 0.000000 4.223470 
# 
# 
# High freq. dielectric constant tensor:
#      x y z
#    x 1.915320 0.000000 0.000000 
#    y 0.000000 1.872030 0.000000 
#    z 0.000000 0.000000 1.887480 
# 
# From -- ./inp_files/36321.got.cif
#   From: 2010.03.12/outbox.cif.g09.slc.cpg/sg70_19_cif.got.tgz:36321.got - 2010.04.16 13:46:32.
