data_PCOD8286305
_publ_section_title
;
Structure prediction by ZEFSAII (Michael W. Deem and Ramdas Pophale) SiO2 
 PCOD8286305
Probable space group: F D D D
;
_chemical_formula_sum "Si O2"
_cell_formula_units_Z 160
_cell_length_a 17.789615
_cell_length_b 19.482468
_cell_length_c 21.309423
_cell_angle_alpha 90.000000
_cell_angle_beta 90.000000
_cell_angle_gamma 90.000000
_cell_volume 7385.539262
_symmetry_space_group_name_H-M "F D D D"
_symmetry_group_IT_number 70
_space_group.IT_coordinate_system_code '2'
_symmetry_cell_setting 'orthorhombic'
loop_
_space_group_symop_operation_xyz
x,y,z
1/4-x,1/4-y,z
x,1/4-y,1/4-z
1/4-x,y,1/4-z
-x,-y,-z
3/4+x,3/4+y,-z
-x,3/4+y,3/4+z
3/4+x,-y,3/4+z
x,1/2+y,1/2+z
1/4-x,3/4-y,1/2+z
x,3/4-y,3/4-z
1/4-x,1/2+y,3/4-z
-x,1/2-y,1/2-z
3/4+x,1/4+y,1/2-z
-x,1/4+y,1/4+z
3/4+x,1/2-y,1/4+z
1/2+x,y,1/2+z
3/4-x,1/4-y,1/2+z
1/2+x,1/4-y,3/4-z
3/4-x,y,3/4-z
1/2-x,-y,1/2-z
1/4+x,3/4+y,1/2-z
1/2-x,3/4+y,1/4+z
1/4+x,-y,1/4+z
1/2+x,1/2+y,z
3/4-x,3/4-y,z
1/2+x,3/4-y,1/4-z
3/4-x,1/2+y,1/4-z
1/2-x,1/2-y,-z
1/4+x,1/4+y,-z
1/2-x,1/4+y,3/4+z
1/4+x,1/2-y,3/4+z
loop_
_atom_site_type_symbol
_atom_site_label
_atom_site_fract_x
_atom_site_fract_y
_atom_site_fract_z
Si Si1 0.460574 0.485781 0.876246
Si Si2 0.288255 0.863633 0.680179
Si Si3 0.550233 0.934022 0.160066
Si Si4 0.706107 0.658251 0.685190
Si Si5 0.288534 0.371681 0.978600
O O1 0.375000 0.512754 0.875000
O O2 0.517053 0.548896 0.864021
O O3 0.472474 0.430907 0.821942
O O4 0.478201 0.451022 0.944072
O O5 0.375000 0.875000 0.689832
O O6 0.260667 0.932290 0.645849
O O7 0.250518 0.857297 0.749645
O O8 0.625000 0.906515 0.125000
O O9 0.522671 0.883388 0.216151
O O10 0.556730 0.010865 0.183217
O O11 0.625000 0.625000 0.686015
O O12 0.750195 0.625000 0.625000
O O13 0.375000 0.375000 0.004365
#
# Coordination Sequence:
#
# PCOD8286305 Si02
#       5
#    32  32  32  32  32
#     4   9  18  39  69 101 134 171 206 270 350 408
#     4  11  24  41  65  96 132 169 223 273 326 398
#     4  12  23  41  68  95 126 176 227 267 324 400
#     4  10  21  44  64  81 123 173 219 276 320 364
#     4   9  19  38  69 101 137 167 207 272 346 406
#
# _framework density 21.663955000000001
#
# number of rings (size 3 to 8) (size 9 to 14) (size 15 to 20)
#    0.000    1.800    4.000    2.400    0.000    1.600 
#    3.600    0.000    0.000    0.000    0.000    0.000 
#    0.000    0.000    0.000    0.000    0.000    0.000 
#
# Total GULP energy -495570.310923 kJ/mol
# GULP energy per Si atom -12389.257773 kJ/mol
# Density = 2.161465 g / cm^3
# Si number density = 21.663955 Si / 1000 Ang^3
#
#
#
# Elastic Constant Matrix: (Units=GPa)
#
#
# Indices 1 2 3 4 5 6 
#
# 1 68.1610 27.5776 55.8753 0.0000 0.0000 0.0000
# 2 27.5776 98.7989 57.1388 0.0000 0.0000 0.0000
# 3 55.8753 57.1388 168.6514 0.0000 0.0000 0.0000
# 4 0.0000 0.0000 0.0000 27.9842 0.0000 0.0000
# 5 0.0000 0.0000 0.0000 0.0000 43.6664 0.0000
# 6 0.0000 0.0000 0.0000 0.0000 0.0000 26.7224
#
#
#
# Elastic Compliance Matrix: (Units=1/GPa)
#
#
# Indices 1 2 3 4 5 6 
#
# 1 0.020531 -0.002235 -0.006045 0.000000 0.000000 0.000000
# 2 -0.002235 0.012831 -0.003607 0.000000 0.000000 0.000000
# 3 -0.006045 -0.003607 0.009154 0.000000 0.000000 0.000000
# 4 0.000000 0.000000 0.000000 0.035734 0.000000 0.000000
# 5 0.000000 0.000000 0.000000 0.000000 0.022901 0.000000
# 6 0.000000 0.000000 0.000000 0.000000 0.000000 0.037422
#
#
# Mechanical properties :
#
#
# Convention : Reuss Voigt Hill
#
# Bulk Modulus (GPa) = 53.35274 68.53272 60.94273
# Shear Modulus (GPa) = 29.65712 32.67591 31.16651
#
# Velocity S-wave (km/s) = 3.70396 3.88791 3.79705
# Velocity P-wave (km/s) = 6.55541 7.20122 6.88589
#
# Compressibility (1/GPa) = 0.01874318
#
# Stress axis : x y z
#
# Youngs Moduli (GPa) = 48.70793 77.93438 109.24129
#
# Poissons Ratio (x) = 0.17416 0.66034
# Poissons Ratio (y) = 0.10885 0.39401
# Poissons Ratio (z) = 0.29443 0.28110
#
# Static dielectric constant tensor:
#      x y z
#    x 3.670460 0.000000 0.000000 
#    y 0.000000 3.893180 0.000000 
#    z 0.000000 0.000000 5.327160 
# 
# 
# High freq. dielectric constant tensor:
#      x y z
#    x 1.815350 0.000000 0.000000 
#    y 0.000000 1.854300 0.000000 
#    z 0.000000 0.000000 1.877810 
# 
# From -- ./inp_files/43674.got.cif
#   From: 2010.03.12/outbox.cif.g09.slc.cpg/sg70_22_cif.got.tgz:43674.got - 2010.04.16 13:46:32.
