data_PCOD8286990
_publ_section_title
;
Structure prediction by ZEFSAII (Michael W. Deem and Ramdas Pophale) SiO2 
 PCOD8286990
Probable space group: I M M M
;
_chemical_formula_sum "Si O2"
_cell_formula_units_Z 120
_cell_length_a 13.267451
_cell_length_b 20.062027
_cell_length_c 31.096442
_cell_angle_alpha 90.000000
_cell_angle_beta 90.000000
_cell_angle_gamma 90.000000
_cell_volume 8277.000922
_symmetry_space_group_name_H-M "I M M M"
_symmetry_group_IT_number 71
_symmetry_cell_setting 'orthorhombic'
loop_
_space_group_symop_operation_xyz
x,y,z
-x,-y,z
x,-y,-z
-x,y,-z
-x,-y,-z
x,y,-z
-x,y,z
x,-y,z
1/2+x,1/2+y,1/2+z
1/2-x,1/2-y,1/2+z
1/2+x,1/2-y,1/2-z
1/2-x,1/2+y,1/2-z
1/2-x,1/2-y,1/2-z
1/2+x,1/2+y,1/2-z
1/2-x,1/2+y,1/2+z
1/2+x,1/2-y,1/2+z
loop_
_atom_site_type_symbol
_atom_site_label
_atom_site_fract_x
_atom_site_fract_y
_atom_site_fract_z
Si Si1 0.268865 0.576092 0.785150
Si Si2 0.114398 0.076803 0.629115
Si Si3 0.117953 0.757812 0.047877
Si Si4 0.883993 0.668238 0.171630
Si Si5 0.618804 0.691518 0.362446
Si Si6 0.200719 0.628912 0.084901
Si Si7 0.117657 0.075709 0.802286
Si Si8 0.609048 0.000000 0.450685
O O1 0.226778 0.500000 0.785695
O O2 0.353589 0.584929 0.821380
O O3 0.178552 0.628913 0.791940
O O4 0.320393 0.593183 0.740134
O O5 0.182548 0.124732 0.599474
O O6 0.000000 0.101144 0.624150
O O7 0.126842 0.000000 0.614816
O O8 0.149901 0.807921 0.086711
O O9 0.183484 0.691213 0.053557
O O10 0.000000 0.739194 0.052032
O O11 0.140171 0.787814 0.000000
O O12 0.841004 0.743445 0.163579
O O13 0.872242 0.630597 0.126326
O O14 0.000000 0.668409 0.186313
O O15 0.500000 0.694472 0.359605
O O16 0.658391 0.623921 0.340272
O O17 0.175508 0.563239 0.059567
O O18 0.000000 0.087750 0.792550
O O19 0.136794 0.000000 0.817393
O O20 0.500000 0.000000 0.426594
O O21 0.585103 0.000000 0.500000
#
# Coordination Sequence:
#
# PCOD8286990 Si02
#       8
#    16  16  16  16  16  16  16   8
#     4   9  17  26  38  60  80 104 142 170 196 231
#     4   9  16  27  40  52  73 104 138 174 204 230
#     4   9  16  27  43  60  79 101 125 157 196 243
#     4   9  17  27  39  56  82 110 135 165 198 237
#     4   8  15  27  41  59  80 104 133 160 196 242
#     4  10  17  27  38  56  75 102 136 166 202 241
#     4   9  16  27  43  60  80 103 130 168 203 232
#     4  11  20  26  35  53  75  97 128 172 211 239
#
# _framework density 14.498004999999999
#
# number of rings (size 3 to 8) (size 9 to 14) (size 15 to 20)
#    0.000    2.867    0.667    2.800    0.933    3.467 
#    0.000    0.000    0.000    2.400    0.000    2.800 
#    0.000    0.000    0.000    0.000    0.000    0.000 
#
# Total GULP energy -743567.323195 kJ/mol
# GULP energy per Si atom -12392.788720 kJ/mol
# Density = 1.446501 g / cm^3
# Si number density = 14.498005 Si / 1000 Ang^3
#
#
#
# Elastic Constant Matrix: (Units=GPa)
#
#
# Indices 1 2 3 4 5 6 
#
# 1 63.1164 29.8791 33.8691 0.0000 0.0000 0.0000
# 2 29.8791 74.9786 55.7847 0.0000 0.0000 0.0000
# 3 33.8691 55.7847 95.4677 0.0000 0.0000 0.0000
# 4 0.0000 0.0000 0.0000 18.2972 0.0000 0.0000
# 5 0.0000 0.0000 0.0000 0.0000 16.6239 0.0000
# 6 0.0000 0.0000 0.0000 0.0000 0.0000 13.1548
#
#
#
# Elastic Compliance Matrix: (Units=1/GPa)
#
#
# Indices 1 2 3 4 5 6 
#
# 1 0.020534 -0.004888 -0.004429 0.000000 0.000000 0.000000
# 2 -0.004888 0.024758 -0.012733 0.000000 0.000000 0.000000
# 3 -0.004429 -0.012733 0.019486 0.000000 0.000000 0.000000
# 4 0.000000 0.000000 0.000000 0.054653 0.000000 0.000000
# 5 0.000000 0.000000 0.000000 0.000000 0.060154 0.000000
# 6 0.000000 0.000000 0.000000 0.000000 0.000000 0.076018
#
#
# Mechanical properties :
#
#
# Convention : Reuss Voigt Hill
#
# Bulk Modulus (GPa) = 48.35707 52.51429 50.43568
# Shear Modulus (GPa) = 16.30808 17.21718 16.76263
#
# Velocity S-wave (km/s) = 3.35752 3.44983 3.40399
# Velocity P-wave (km/s) = 6.96112 7.22280 7.09317
#
# Compressibility (1/GPa) = 0.02067950
#
# Stress axis : x y z
#
# Youngs Moduli (GPa) = 48.69925 40.39026 51.31818
#
# Poissons Ratio (x) = 0.19742 0.22728
# Poissons Ratio (y) = 0.23803 0.65344
# Poissons Ratio (z) = 0.21568 0.51429
#
# Static dielectric constant tensor:
#      x y z
#    x 2.651580 0.000000 0.000000 
#    y 0.000000 2.863760 0.000000 
#    z 0.000000 0.000000 2.872040 
# 
# 
# High freq. dielectric constant tensor:
#      x y z
#    x 1.527160 0.000000 0.000000 
#    y 0.000000 1.536940 0.000000 
#    z 0.000000 0.000000 1.546070 
# 
# From -- ./inp_files/38583.got.cif
#   From: 2010.06.25/outbox.cif.g09.slc.cpg/sg71_20_cif.got.tgz:38583.got - 2010.06.28 04:59:45.
