data_PCOD8286155
_publ_section_title
;
Structure prediction by ZEFSAII (Michael W. Deem and Ramdas Pophale) SiO2 
 PCOD8286155
Probable space group: F D D D
;
_chemical_formula_sum "Si O2"
_cell_formula_units_Z 128
_cell_length_a 9.675578
_cell_length_b 25.393602
_cell_length_c 25.678728
_cell_angle_alpha 90.000000
_cell_angle_beta 90.000000
_cell_angle_gamma 90.000000
_cell_volume 6309.206382
_symmetry_space_group_name_H-M "F D D D"
_symmetry_group_IT_number 70
_space_group.IT_coordinate_system_code '2'
_symmetry_cell_setting 'orthorhombic'
loop_
_space_group_symop_operation_xyz
x,y,z
1/4-x,1/4-y,z
x,1/4-y,1/4-z
1/4-x,y,1/4-z
-x,-y,-z
3/4+x,3/4+y,-z
-x,3/4+y,3/4+z
3/4+x,-y,3/4+z
x,1/2+y,1/2+z
1/4-x,3/4-y,1/2+z
x,3/4-y,3/4-z
1/4-x,1/2+y,3/4-z
-x,1/2-y,1/2-z
3/4+x,1/4+y,1/2-z
-x,1/4+y,1/4+z
3/4+x,1/2-y,1/4+z
1/2+x,y,1/2+z
3/4-x,1/4-y,1/2+z
1/2+x,1/4-y,3/4-z
3/4-x,y,3/4-z
1/2-x,-y,1/2-z
1/4+x,3/4+y,1/2-z
1/2-x,3/4+y,1/4+z
1/4+x,-y,1/4+z
1/2+x,1/2+y,z
3/4-x,3/4-y,z
1/2+x,3/4-y,1/4-z
3/4-x,1/2+y,1/4-z
1/2-x,1/2-y,-z
1/4+x,1/4+y,-z
1/2-x,1/4+y,3/4+z
1/4+x,1/2-y,3/4+z
loop_
_atom_site_type_symbol
_atom_site_label
_atom_site_fract_x
_atom_site_fract_y
_atom_site_fract_z
Si Si1 0.206953 0.208472 0.173985
Si Si2 0.625000 0.625000 0.751018
Si Si3 0.878523 0.075878 0.815172
Si Si4 0.375000 0.875000 0.244296
Si Si5 0.001198 0.570770 0.093869
O O1 0.125000 0.184420 0.125000
O O2 0.136871 0.262971 0.190550
O O3 0.204362 0.167560 0.220959
O O4 0.367281 0.216451 0.157371
O O5 0.511233 0.599416 0.787497
O O6 0.551424 0.668533 0.714870
O O7 0.875000 0.093570 0.875000
O O8 0.736682 0.095107 0.790186
O O9 0.967683 0.625000 0.125000
O O10 0.125000 0.540988 0.125000
#
# Coordination Sequence:
#
# PCOD8286155 Si02
#       5
#    32  16  32  16  32
#     4  11  23  39  66 100 124 161 213 270 318 379
#     4  10  20  42  64  84 132 164 210 256 318 380
#     4  11  25  42  61  91 128 170 216 254 315 385
#     4  12  22  44  66  90 128 174 204 268 322 372
#     4   9  19  37  64  94 122 161 208 270 323 364
#
# _framework density 20.287811999999999
#
# number of rings (size 3 to 8) (size 9 to 14) (size 15 to 20)
#    0.000    1.750    2.500    3.375    3.500    1.000 
#    0.000    1.250    0.000    0.000    0.000    0.000 
#    0.000    0.000    0.000    0.000    0.000    0.000 
#
# Total GULP energy -396813.558733 kJ/mol
# GULP energy per Si atom -12400.423710 kJ/mol
# Density = 2.024164 g / cm^3
# Si number density = 20.287812 Si / 1000 Ang^3
#
#
#
# Elastic Constant Matrix: (Units=GPa)
#
#
# Indices 1 2 3 4 5 6 
#
# 1 174.0909 56.1892 67.2081 0.0000 0.0000 0.0000
# 2 56.1892 73.8184 46.2689 0.0000 0.0000 0.0000
# 3 67.2081 46.2689 139.4262 0.0000 0.0000 0.0000
# 4 0.0000 0.0000 0.0000 11.8857 0.0000 0.0000
# 5 0.0000 0.0000 0.0000 0.0000 36.2997 0.0000
# 6 0.0000 0.0000 0.0000 0.0000 0.0000 29.8154
#
#
#
# Elastic Compliance Matrix: (Units=1/GPa)
#
#
# Indices 1 2 3 4 5 6 
#
# 1 0.008193 -0.004749 -0.002373 0.000000 0.000000 0.000000
# 2 -0.004749 0.019857 -0.004301 0.000000 0.000000 0.000000
# 3 -0.002373 -0.004301 0.009743 0.000000 0.000000 0.000000
# 4 0.000000 0.000000 0.000000 0.084135 0.000000 0.000000
# 5 0.000000 0.000000 0.000000 0.000000 0.027548 0.000000
# 6 0.000000 0.000000 0.000000 0.000000 0.000000 0.033540
#
#
# Mechanical properties :
#
#
# Convention : Reuss Voigt Hill
#
# Bulk Modulus (GPa) = 66.89830 80.74086 73.81958
# Shear Modulus (GPa) = 23.71416 30.11146 26.91281
#
# Velocity S-wave (km/s) = 3.42261 3.85673 3.64614
# Velocity P-wave (km/s) = 6.97605 7.72765 7.36145
#
# Compressibility (1/GPa) = 0.01494806
#
# Stress axis : x y z
#
# Youngs Moduli (GPa) = 122.05383 50.36015 102.63283
#
# Poissons Ratio (x) = 0.23915 0.24359
# Poissons Ratio (y) = 0.57961 0.44137
# Poissons Ratio (z) = 0.28969 0.21657
#
# Static dielectric constant tensor:
#      x y z
#    x 3.961830 0.000000 0.000000 
#    y 0.000000 3.346900 0.000000 
#    z 0.000000 0.000000 3.923940 
# 
# 
# High freq. dielectric constant tensor:
#      x y z
#    x 1.814510 0.000000 0.000000 
#    y 0.000000 1.760300 0.000000 
#    z 0.000000 0.000000 1.807220 
# 
# From -- ./inp_files/56620.got.cif
#   From: 2010.03.12/outbox.cif.g09.slc.cpg/sg70_29_cif.got.tgz:56620.got - 2010.04.16 13:46:32.
