data_PCOD8286697
_publ_section_title
;
Structure prediction by ZEFSAII (Michael W. Deem and Ramdas Pophale) SiO2 
 PCOD8286697
Probable space group: F D D D
;
_chemical_formula_sum "Si O2"
_cell_formula_units_Z 176
_cell_length_a 10.475890
_cell_length_b 24.978532
_cell_length_c 28.285579
_cell_angle_alpha 90.000000
_cell_angle_beta 90.000000
_cell_angle_gamma 90.000000
_cell_volume 7401.554030
_symmetry_space_group_name_H-M "F D D D"
_symmetry_group_IT_number 70
_space_group.IT_coordinate_system_code '2'
_symmetry_cell_setting 'orthorhombic'
loop_
_space_group_symop_operation_xyz
x,y,z
1/4-x,1/4-y,z
x,1/4-y,1/4-z
1/4-x,y,1/4-z
-x,-y,-z
3/4+x,3/4+y,-z
-x,3/4+y,3/4+z
3/4+x,-y,3/4+z
x,1/2+y,1/2+z
1/4-x,3/4-y,1/2+z
x,3/4-y,3/4-z
1/4-x,1/2+y,3/4-z
-x,1/2-y,1/2-z
3/4+x,1/4+y,1/2-z
-x,1/4+y,1/4+z
3/4+x,1/2-y,1/4+z
1/2+x,y,1/2+z
3/4-x,1/4-y,1/2+z
1/2+x,1/4-y,3/4-z
3/4-x,y,3/4-z
1/2-x,-y,1/2-z
1/4+x,3/4+y,1/2-z
1/2-x,3/4+y,1/4+z
1/4+x,-y,1/4+z
1/2+x,1/2+y,z
3/4-x,3/4-y,z
1/2+x,3/4-y,1/4-z
3/4-x,1/2+y,1/4-z
1/2-x,1/2-y,-z
1/4+x,1/4+y,-z
1/2-x,1/4+y,3/4+z
1/4+x,1/2-y,3/4+z
loop_
_atom_site_type_symbol
_atom_site_label
_atom_site_fract_x
_atom_site_fract_y
_atom_site_fract_z
Si Si1 0.271743 0.739052 0.115042
Si Si2 0.283680 0.470318 0.682391
Si Si3 0.976871 0.829796 0.783142
Si Si4 0.625000 0.895066 0.625000
Si Si5 0.022410 0.893423 0.447545
Si Si6 0.735581 0.667825 0.451295
O O1 0.331400 0.756196 0.165155
O O2 0.310595 0.679274 0.098048
O O3 0.313035 0.777640 0.072026
O O4 0.125000 0.741891 0.125000
O O5 0.290249 0.431799 0.727562
O O6 0.194926 0.522849 0.691620
O O7 0.240046 0.434271 0.638522
O O8 0.875000 0.875000 0.799035
O O9 0.122682 0.846131 0.796829
O O10 0.596850 0.857624 0.669489
O O11 0.875000 0.875000 0.440565
O O12 0.034736 0.928706 0.495528
O O13 0.625000 0.625000 0.455186
#
# Coordination Sequence:
#
# PCOD8286697 Si02
#       6
#    32  32  32  16  32  32
#     4  12  26  43  74 107 140 189 243 297 356 438
#     4  11  27  46  71 107 143 182 245 295 358 433
#     4  11  27  48  74 103 146 193 233 299 365 429
#     4  12  22  44  71 102 135 182 240 298 346 426
#     4  11  26  49  70 105 149 190 236 297 369 429
#     4  11  23  41  70 102 139 184 235 299 355 422
#
# _framework density 23.778789
#
# number of rings (size 3 to 8) (size 9 to 14) (size 15 to 20)
#    0.000    0.727    4.545    1.636    7.636    2.545 
#    3.273    0.000    0.000    0.000    0.000    0.000 
#    0.000    0.000    0.000    0.000    0.000    0.000 
#
# Total GULP energy -545311.757956 kJ/mol
# GULP energy per Si atom -12393.449044 kJ/mol
# Density = 2.372467 g / cm^3
# Si number density = 23.778789 Si / 1000 Ang^3
#
#
#
# Elastic Constant Matrix: (Units=GPa)
#
#
# Indices 1 2 3 4 5 6 
#
# 1 103.0582 28.1828 28.4615 0.0000 0.0000 0.0000
# 2 28.1828 111.8948 19.3266 0.0000 0.0000 0.0000
# 3 28.4615 19.3266 60.3637 0.0000 0.0000 0.0000
# 4 0.0000 0.0000 0.0000 39.6576 0.0000 0.0000
# 5 0.0000 0.0000 0.0000 0.0000 -4.1673 0.0000
# 6 0.0000 0.0000 0.0000 0.0000 0.0000 32.2140
#
#
#
# Elastic Compliance Matrix: (Units=1/GPa)
#
#
# Indices 1 2 3 4 5 6 
#
# 1 0.011601 -0.002093 -0.004800 0.000000 0.000000 0.000000
# 2 -0.002093 0.009838 -0.002163 0.000000 0.000000 0.000000
# 3 -0.004800 -0.002163 0.019522 0.000000 0.000000 0.000000
# 4 0.000000 0.000000 0.000000 0.025216 0.000000 0.000000
# 5 0.000000 0.000000 0.000000 0.000000 -0.239961 0.000000
# 6 0.000000 0.000000 0.000000 0.000000 0.000000 0.031042
#
#
# Mechanical properties :
#
#
# Convention : Reuss Voigt Hill
#
# Bulk Modulus (GPa) = 43.76496 47.47317 45.61906
# Shear Modulus (GPa) = -42.72994 26.83057 -7.94969
#
# Velocity S-wave (km/s) = -4.24368 3.36272 -1.83042
# Velocity P-wave (km/s) = 2.35939 5.92326 3.84177
#
# Compressibility (1/GPa) = 0.02284933
#
# Stress axis : x y z
#
# Youngs Moduli (GPa) = 86.19820 101.64988 51.22463
#
# Poissons Ratio (x) = 0.21275 0.24587
# Poissons Ratio (y) = 0.18041 0.11079
# Poissons Ratio (z) = 0.41374 0.21986
#
# Static dielectric constant tensor:
#      x y z
#    x 4.160100 0.000000 0.000000 
#    y 0.000000 4.678490 0.000000 
#    z 0.000000 0.000000 5.041490 
# 
# 
# High freq. dielectric constant tensor:
#      x y z
#    x 1.921010 0.000000 0.000000 
#    y 0.000000 1.957190 0.000000 
#    z 0.000000 0.000000 1.952880 
# 
# From -- ./inp_files/64758.got.cif
#   From: 2010.03.12/outbox.cif.g09.slc.cpg/sg70_33_cif.got.tgz:64758.got - 2010.04.16 13:46:32.
