data_PCOD8286621
_publ_section_title
;
Structure prediction by ZEFSAII (Michael W. Deem and Ramdas Pophale) SiO2 
 PCOD8286621
Probable space group: F D D D
;
_chemical_formula_sum "Si O2"
_cell_formula_units_Z 160
_cell_length_a 26.139443
_cell_length_b 12.004499
_cell_length_c 20.904230
_cell_angle_alpha 90.000000
_cell_angle_beta 90.000000
_cell_angle_gamma 90.000000
_cell_volume 6559.557508
_symmetry_space_group_name_H-M "F D D D"
_symmetry_group_IT_number 70
_space_group.IT_coordinate_system_code '2'
_symmetry_cell_setting 'orthorhombic'
loop_
_space_group_symop_operation_xyz
x,y,z
1/4-x,1/4-y,z
x,1/4-y,1/4-z
1/4-x,y,1/4-z
-x,-y,-z
3/4+x,3/4+y,-z
-x,3/4+y,3/4+z
3/4+x,-y,3/4+z
x,1/2+y,1/2+z
1/4-x,3/4-y,1/2+z
x,3/4-y,3/4-z
1/4-x,1/2+y,3/4-z
-x,1/2-y,1/2-z
3/4+x,1/4+y,1/2-z
-x,1/4+y,1/4+z
3/4+x,1/2-y,1/4+z
1/2+x,y,1/2+z
3/4-x,1/4-y,1/2+z
1/2+x,1/4-y,3/4-z
3/4-x,y,3/4-z
1/2-x,-y,1/2-z
1/4+x,3/4+y,1/2-z
1/2-x,3/4+y,1/4+z
1/4+x,-y,1/4+z
1/2+x,1/2+y,z
3/4-x,3/4-y,z
1/2+x,3/4-y,1/4-z
3/4-x,1/2+y,1/4-z
1/2-x,1/2-y,-z
1/4+x,1/4+y,-z
1/2-x,1/4+y,3/4+z
1/4+x,1/2-y,3/4+z
loop_
_atom_site_type_symbol
_atom_site_label
_atom_site_fract_x
_atom_site_fract_y
_atom_site_fract_z
Si Si1 0.464532 0.062835 0.748317
Si Si2 0.452452 0.335408 0.174113
Si Si3 0.429017 0.916334 0.219096
Si Si4 0.105604 0.902565 0.492850
Si Si5 0.056017 0.750311 0.139056
O O1 0.520868 0.120128 0.738126
O O2 0.414744 0.132330 0.724890
O O3 0.456000 0.062245 0.823915
O O4 0.463459 0.941815 0.717295
O O5 0.435974 0.374899 0.103301
O O6 0.406174 0.263079 0.202287
O O7 0.502714 0.256913 0.178106
O O8 0.375000 0.875000 0.249011
O O9 0.429997 0.050908 0.221668
O O10 0.099443 0.936865 0.568151
O O11 0.073716 0.625000 0.125000
#
# Coordination Sequence:
#
# PCOD8286621 Si02
#       5
#    32  32  32  32  32
#     4  11  23  38  64  95 130 173 221 278 340 403
#     4  11  21  39  63  99 134 170 219 275 347 402
#     4  11  25  43  62  91 131 179 230 277 327 398
#     4  12  22  38  64  95 134 173 219 283 337 399
#     4  11  21  35  61  96 135 168 212 271 344 401
#
# _framework density 24.391888999999999
#
# number of rings (size 3 to 8) (size 9 to 14) (size 15 to 20)
#    0.000    0.800    4.000    6.000    0.000    1.600 
#    0.000    0.000    0.000    2.400    0.000    0.000 
#    0.000    0.000    0.000    0.000    0.000    0.000 
#
# Total GULP energy -495708.027790 kJ/mol
# GULP energy per Si atom -12392.700695 kJ/mol
# Density = 2.433637 g / cm^3
# Si number density = 24.391889 Si / 1000 Ang^3
#
#
#
# Elastic Constant Matrix: (Units=GPa)
#
#
# Indices 1 2 3 4 5 6 
#
# 1 204.6328 7.3362 18.9963 0.0000 0.0000 0.0000
# 2 7.3362 16.5485 16.0108 0.0000 0.0000 0.0000
# 3 18.9963 16.0108 69.3660 0.0000 0.0000 0.0000
# 4 0.0000 0.0000 0.0000 21.7168 0.0000 0.0000
# 5 0.0000 0.0000 0.0000 0.0000 22.6646 0.0000
# 6 0.0000 0.0000 0.0000 0.0000 0.0000 20.5697
#
#
#
# Elastic Compliance Matrix: (Units=1/GPa)
#
#
# Indices 1 2 3 4 5 6 
#
# 1 0.005031 -0.001155 -0.001111 0.000000 0.000000 0.000000
# 2 -0.001155 0.078068 -0.017703 0.000000 0.000000 0.000000
# 3 -0.001111 -0.017703 0.018807 0.000000 0.000000 0.000000
# 4 0.000000 0.000000 0.000000 0.046047 0.000000 0.000000
# 5 0.000000 0.000000 0.000000 0.000000 0.044122 0.000000
# 6 0.000000 0.000000 0.000000 0.000000 0.000000 0.048615
#
#
# Mechanical properties :
#
#
# Convention : Reuss Voigt Hill
#
# Bulk Modulus (GPa) = 16.13755 41.69267 28.91511
# Shear Modulus (GPa) = 16.59554 29.53716 23.06635
#
# Velocity S-wave (km/s) = 2.61122 3.48363 3.07849
# Velocity P-wave (km/s) = 3.96505 5.77156 4.95139
#
# Compressibility (1/GPa) = 0.06196728
#
# Stress axis : x y z
#
# Youngs Moduli (GPa) = 198.75279 12.80927 53.17242
#
# Poissons Ratio (x) = 0.01480 0.05908
# Poissons Ratio (y) = 0.22964 0.94131
# Poissons Ratio (z) = 0.22085 0.22676
#
# Static dielectric constant tensor:
#      x y z
#    x 5.267680 0.000000 0.000000 
#    y 0.000000 3.855850 0.000000 
#    z 0.000000 0.000000 4.233240 
# 
# 
# High freq. dielectric constant tensor:
#      x y z
#    x 2.010100 0.000000 0.000000 
#    y 0.000000 1.929820 0.000000 
#    z 0.000000 0.000000 1.952490 
# 
# From -- ./inp_files/54884.got.cif
#   From: 2010.03.12/outbox.cif.g09.slc.cpg/sg70_28_cif.got.tgz:54884.got - 2010.04.16 13:46:32.
