data_PCOD8286488
_publ_section_title
;
Structure prediction by ZEFSAII (Michael W. Deem and Ramdas Pophale) SiO2 
 PCOD8286488
Probable space group: F D D D
;
_chemical_formula_sum "Si O2"
_cell_formula_units_Z 176
_cell_length_a 28.917740
_cell_length_b 11.218625
_cell_length_c 23.956194
_cell_angle_alpha 90.000000
_cell_angle_beta 90.000000
_cell_angle_gamma 90.000000
_cell_volume 7771.803318
_symmetry_space_group_name_H-M "F D D D"
_symmetry_group_IT_number 70
_space_group.IT_coordinate_system_code '2'
_symmetry_cell_setting 'orthorhombic'
loop_
_space_group_symop_operation_xyz
x,y,z
1/4-x,1/4-y,z
x,1/4-y,1/4-z
1/4-x,y,1/4-z
-x,-y,-z
3/4+x,3/4+y,-z
-x,3/4+y,3/4+z
3/4+x,-y,3/4+z
x,1/2+y,1/2+z
1/4-x,3/4-y,1/2+z
x,3/4-y,3/4-z
1/4-x,1/2+y,3/4-z
-x,1/2-y,1/2-z
3/4+x,1/4+y,1/2-z
-x,1/4+y,1/4+z
3/4+x,1/2-y,1/4+z
1/2+x,y,1/2+z
3/4-x,1/4-y,1/2+z
1/2+x,1/4-y,3/4-z
3/4-x,y,3/4-z
1/2-x,-y,1/2-z
1/4+x,3/4+y,1/2-z
1/2-x,3/4+y,1/4+z
1/4+x,-y,1/4+z
1/2+x,1/2+y,z
3/4-x,3/4-y,z
1/2+x,3/4-y,1/4-z
3/4-x,1/2+y,1/4-z
1/2-x,1/2-y,-z
1/4+x,1/4+y,-z
1/2-x,1/4+y,3/4+z
1/4+x,1/2-y,3/4+z
loop_
_atom_site_type_symbol
_atom_site_label
_atom_site_fract_x
_atom_site_fract_y
_atom_site_fract_z
Si Si1 0.657294 0.397709 0.034297
Si Si2 0.375000 0.875000 0.227041
Si Si3 0.512180 0.867798 0.625146
Si Si4 0.937211 0.215737 0.974473
Si Si5 0.947765 0.045996 0.075228
Si Si6 0.953906 0.789047 0.220224
O O1 0.695840 0.390069 0.082063
O O2 0.608864 0.339872 0.053673
O O3 0.652249 0.534701 0.017440
O O4 0.669309 0.321839 0.978029
O O5 0.411393 0.807636 0.188125
O O6 0.526698 0.775478 0.576801
O O7 0.466538 0.815856 0.656032
O O8 0.496749 0.991278 0.595819
O O9 0.957637 0.128010 0.021595
O O10 0.930719 0.346491 0.999928
O O11 0.926293 0.125000 0.125000
O O12 0.000000 0.750000 0.250000
#
# Coordination Sequence:
#
# PCOD8286488 Si02
#       6
#    32  16  32  32  32  32
#     4  10  24  46  70 103 137 186 230 285 347 417
#     4  10  26  46  69 100 144 180 233 284 358 420
#     4  11  24  42  72 105 135 180 234 287 345 408
#     4  11  23  45  69 102 141 183 228 290 347 414
#     4  11  24  43  68 102 136 184 233 285 354 413
#     4  10  23  42  68 102 138 178 230 282 345 410
#
# _framework density 22.645968
#
# number of rings (size 3 to 8) (size 9 to 14) (size 15 to 20)
#    0.000    1.455    1.818    1.636    5.091    8.727 
#    0.000    7.273    0.000    0.000    0.000    0.000 
#    0.000    0.000    0.000    0.000    0.000    0.000 
#
# Total GULP energy -545491.119089 kJ/mol
# GULP energy per Si atom -12397.525434 kJ/mol
# Density = 2.259442 g / cm^3
# Si number density = 22.645968 Si / 1000 Ang^3
#
#
#
# Elastic Constant Matrix: (Units=GPa)
#
#
# Indices 1 2 3 4 5 6 
#
# 1 62.8322 36.1814 43.0991 0.0000 0.0000 0.0000
# 2 36.1814 135.2804 49.6514 0.0000 0.0000 0.0000
# 3 43.0991 49.6514 132.1814 0.0000 0.0000 0.0000
# 4 0.0000 0.0000 0.0000 24.8925 0.0000 0.0000
# 5 0.0000 0.0000 0.0000 0.0000 40.6983 0.0000
# 6 0.0000 0.0000 0.0000 0.0000 0.0000 40.1056
#
#
#
# Elastic Compliance Matrix: (Units=1/GPa)
#
#
# Indices 1 2 3 4 5 6 
#
# 1 0.022050 -0.003780 -0.005770 0.000000 0.000000 0.000000
# 2 -0.003780 0.009222 -0.002232 0.000000 0.000000 0.000000
# 3 -0.005770 -0.002232 0.010285 0.000000 0.000000 0.000000
# 4 0.000000 0.000000 0.000000 0.040173 0.000000 0.000000
# 5 0.000000 0.000000 0.000000 0.000000 0.024571 0.000000
# 6 0.000000 0.000000 0.000000 0.000000 0.000000 0.024934
#
#
# Mechanical properties :
#
#
# Convention : Reuss Voigt Hill
#
# Bulk Modulus (GPa) = 55.57281 65.35086 60.46183
# Shear Modulus (GPa) = 31.09555 34.56342 32.82948
#
# Velocity S-wave (km/s) = 3.70958 3.91096 3.81160
# Velocity P-wave (km/s) = 6.55294 7.02242 6.79174
#
# Compressibility (1/GPa) = 0.01799441
#
# Stress axis : x y z
#
# Youngs Moduli (GPa) = 45.35242 108.43613 97.22960
#
# Poissons Ratio (x) = 0.40985 0.56099
# Poissons Ratio (y) = 0.17141 0.21699
# Poissons Ratio (z) = 0.26167 0.24200
#
# Static dielectric constant tensor:
#      x y z
#    x 4.546350 0.000000 0.000000 
#    y 0.000000 4.427760 0.000000 
#    z 0.000000 0.000000 4.301540 
# 
# 
# High freq. dielectric constant tensor:
#      x y z
#    x 1.891790 0.000000 0.000000 
#    y 0.000000 1.898480 0.000000 
#    z 0.000000 0.000000 1.894320 
# 
# From -- ./inp_files/22284.got.cif
#   From: 2010.03.12/outbox.cif.g09.slc.cpg/sg70_12_cif.got.tgz:22284.got - 2010.04.16 13:46:32.
