data_PCOD8286162
_publ_section_title
;
Structure prediction by ZEFSAII (Michael W. Deem and Ramdas Pophale) SiO2 
 PCOD8286162
Probable space group: F D D D
;
_chemical_formula_sum "Si O2"
_cell_formula_units_Z 160
_cell_length_a 12.695509
_cell_length_b 19.149688
_cell_length_c 30.818769
_cell_angle_alpha 90.000000
_cell_angle_beta 90.000000
_cell_angle_gamma 90.000000
_cell_volume 7492.506146
_symmetry_space_group_name_H-M "F D D D"
_symmetry_group_IT_number 70
_space_group.IT_coordinate_system_code '2'
_symmetry_cell_setting 'orthorhombic'
loop_
_space_group_symop_operation_xyz
x,y,z
1/4-x,1/4-y,z
x,1/4-y,1/4-z
1/4-x,y,1/4-z
-x,-y,-z
3/4+x,3/4+y,-z
-x,3/4+y,3/4+z
3/4+x,-y,3/4+z
x,1/2+y,1/2+z
1/4-x,3/4-y,1/2+z
x,3/4-y,3/4-z
1/4-x,1/2+y,3/4-z
-x,1/2-y,1/2-z
3/4+x,1/4+y,1/2-z
-x,1/4+y,1/4+z
3/4+x,1/2-y,1/4+z
1/2+x,y,1/2+z
3/4-x,1/4-y,1/2+z
1/2+x,1/4-y,3/4-z
3/4-x,y,3/4-z
1/2-x,-y,1/2-z
1/4+x,3/4+y,1/2-z
1/2-x,3/4+y,1/4+z
1/4+x,-y,1/4+z
1/2+x,1/2+y,z
3/4-x,3/4-y,z
1/2+x,3/4-y,1/4-z
3/4-x,1/2+y,1/4-z
1/2-x,1/2-y,-z
1/4+x,1/4+y,-z
1/2-x,1/4+y,3/4+z
1/4+x,1/2-y,3/4+z
loop_
_atom_site_type_symbol
_atom_site_label
_atom_site_fract_x
_atom_site_fract_y
_atom_site_fract_z
Si Si1 0.968393 0.094337 0.451189
Si Si2 0.375000 0.513555 0.375000
Si Si3 0.571455 0.520344 0.822390
Si Si4 0.159683 0.993234 0.912653
Si Si5 0.822008 0.121080 0.528076
Si Si6 0.625000 0.125000 0.778350
O O1 0.890553 0.061123 0.416767
O O2 0.918480 0.094867 0.498702
O O3 0.980316 0.174538 0.436903
O O4 0.075126 0.049420 0.452167
O O5 0.270942 0.470023 0.389469
O O6 0.582591 0.515354 0.874058
O O7 0.533625 0.446112 0.804665
O O8 0.168506 0.060529 0.943536
O O9 0.114304 0.928343 0.938661
O O10 0.723182 0.150888 0.500979
#
# Coordination Sequence:
#
# PCOD8286162 Si02
#       6
#    32  16  32  32  32  16
#     4  10  21  40  68  91 127 174 220 268 326 402
#     4  10  20  42  69  98 127 180 228 268 330 408
#     4  10  23  42  63  93 130 171 217 274 335 397
#     4  11  23  43  67  97 133 175 224 274 335 401
#     4  12  24  42  65 100 135 166 221 281 332 387
#     4  12  24  44  67  96 136 180 230 265 330 406
#
# _framework density 21.354671
#
# number of rings (size 3 to 8) (size 9 to 14) (size 15 to 20)
#    0.000    1.200    2.000    5.400    0.000    0.000 
#    3.600    5.000    0.000    0.000    0.000    0.000 
#    0.000    0.000    0.000    0.000    0.000    0.000 
#
# Total GULP energy -495960.017989 kJ/mol
# GULP energy per Si atom -12399.000450 kJ/mol
# Density = 2.130607 g / cm^3
# Si number density = 21.354671 Si / 1000 Ang^3
#
#
#
# Elastic Constant Matrix: (Units=GPa)
#
#
# Indices 1 2 3 4 5 6 
#
# 1 52.0282 6.2334 44.8871 0.0000 0.0000 0.0000
# 2 6.2334 88.5590 41.1816 0.0000 0.0000 0.0000
# 3 44.8871 41.1816 102.2863 0.0000 0.0000 0.0000
# 4 0.0000 0.0000 0.0000 38.4904 0.0000 0.0000
# 5 0.0000 0.0000 0.0000 0.0000 74.9185 0.0000
# 6 0.0000 0.0000 0.0000 0.0000 0.0000 45.6423
#
#
#
# Elastic Compliance Matrix: (Units=1/GPa)
#
#
# Indices 1 2 3 4 5 6 
#
# 1 0.032913 0.005413 -0.016623 0.000000 0.000000 0.000000
# 2 0.005413 0.014783 -0.008328 0.000000 0.000000 0.000000
# 3 -0.016623 -0.008328 0.020424 0.000000 0.000000 0.000000
# 4 0.000000 0.000000 0.000000 0.025981 0.000000 0.000000
# 5 0.000000 0.000000 0.000000 0.000000 0.013348 0.000000
# 6 0.000000 0.000000 0.000000 0.000000 0.000000 0.021909
#
#
# Mechanical properties :
#
#
# Convention : Reuss Voigt Hill
#
# Bulk Modulus (GPa) = 34.42791 47.49752 40.96272
# Shear Modulus (GPa) = 28.07177 41.84833 34.96005
#
# Velocity S-wave (km/s) = 3.62960 4.43163 4.05052
# Velocity P-wave (km/s) = 5.80709 6.96249 6.41087
#
# Compressibility (1/GPa) = 0.02904620
#
# Stress axis : x y z
#
# Youngs Moduli (GPa) = 30.38294 67.64373 48.96187
#
# Poissons Ratio (x) = -0.36618 0.81390
# Poissons Ratio (y) = -0.16447 0.40773
# Poissons Ratio (z) = 0.50506 0.56331
#
# Static dielectric constant tensor:
#      x y z
#    x 3.814010 0.000000 0.000000 
#    y 0.000000 3.750370 0.000000 
#    z 0.000000 0.000000 3.944150 
# 
# 
# High freq. dielectric constant tensor:
#      x y z
#    x 1.832970 0.000000 0.000000 
#    y 0.000000 1.832570 0.000000 
#    z 0.000000 0.000000 1.851970 
# 
# From -- ./inp_files/34025.got.cif
#   From: 2010.03.12/outbox.cif.g09.slc.cpg/sg70_18_cif.got.tgz:34025.got - 2010.04.16 13:46:32.
