data_PCOD8286373
_publ_section_title
;
Structure prediction by ZEFSAII (Michael W. Deem and Ramdas Pophale) SiO2 
 PCOD8286373
Probable space group: F D D D
;
_chemical_formula_sum "Si O2"
_cell_formula_units_Z 176
_cell_length_a 14.524170
_cell_length_b 24.953076
_cell_length_c 23.842818
_cell_angle_alpha 90.000000
_cell_angle_beta 90.000000
_cell_angle_gamma 90.000000
_cell_volume 8641.178901
_symmetry_space_group_name_H-M "F D D D"
_symmetry_group_IT_number 70
_space_group.IT_coordinate_system_code '2'
_symmetry_cell_setting 'orthorhombic'
loop_
_space_group_symop_operation_xyz
x,y,z
1/4-x,1/4-y,z
x,1/4-y,1/4-z
1/4-x,y,1/4-z
-x,-y,-z
3/4+x,3/4+y,-z
-x,3/4+y,3/4+z
3/4+x,-y,3/4+z
x,1/2+y,1/2+z
1/4-x,3/4-y,1/2+z
x,3/4-y,3/4-z
1/4-x,1/2+y,3/4-z
-x,1/2-y,1/2-z
3/4+x,1/4+y,1/2-z
-x,1/4+y,1/4+z
3/4+x,1/2-y,1/4+z
1/2+x,y,1/2+z
3/4-x,1/4-y,1/2+z
1/2+x,1/4-y,3/4-z
3/4-x,y,3/4-z
1/2-x,-y,1/2-z
1/4+x,3/4+y,1/2-z
1/2-x,3/4+y,1/4+z
1/4+x,-y,1/4+z
1/2+x,1/2+y,z
3/4-x,3/4-y,z
1/2+x,3/4-y,1/4-z
3/4-x,1/2+y,1/4-z
1/2-x,1/2-y,-z
1/4+x,1/4+y,-z
1/2-x,1/4+y,3/4+z
1/4+x,1/2-y,3/4+z
loop_
_atom_site_type_symbol
_atom_site_label
_atom_site_fract_x
_atom_site_fract_y
_atom_site_fract_z
Si Si1 0.328704 0.510205 0.820636
Si Si2 0.869731 0.242279 0.198791
Si Si3 0.935816 0.947055 0.497740
Si Si4 0.625000 0.886349 0.625000
Si Si5 0.765255 0.347942 0.814662
Si Si6 0.059669 0.670698 0.368971
O O1 0.375000 0.482358 0.875000
O O2 0.381313 0.492010 0.764467
O O3 0.223554 0.492519 0.822678
O O4 0.338064 0.575168 0.824790
O O5 0.830228 0.183643 0.185634
O O6 0.805401 0.283302 0.165378
O O7 0.848093 0.943519 0.454591
O O8 0.895988 0.941110 0.560633
O O9 0.997132 0.895598 0.480675
O O10 0.000000 0.000000 0.500000
O O11 0.707074 0.848442 0.604914
O O12 0.785711 0.375000 0.875000
O O13 0.125000 0.625000 0.394206
#
# Coordination Sequence:
#
# PCOD8286373 Si02
#       6
#    32  32  32  16  32  32
#     4   9  21  43  68  89 134 177 226 286 343 403
#     4  11  23  40  70  98 131 184 226 282 353 408
#     4  11  24  41  67  93 138 182 217 280 347 407
#     4  10  22  40  68  90 134 172 228 290 328 398
#     4  11  24  44  65  97 145 176 225 284 347 423
#     4  12  22  40  63 100 128 175 235 281 334 411
#
# _framework density 20.367591000000001
#
# number of rings (size 3 to 8) (size 9 to 14) (size 15 to 20)
#    0.545    0.727    3.636    3.273    5.091    0.000 
#    0.000    0.000    0.000    0.000    0.000    0.000 
#    0.000    0.000    0.000    0.000    0.000    0.000 
#
# Total GULP energy -545206.984141 kJ/mol
# GULP energy per Si atom -12391.067821 kJ/mol
# Density = 2.032123 g / cm^3
# Si number density = 20.367591 Si / 1000 Ang^3
#
#
#
# Elastic Constant Matrix: (Units=GPa)
#
#
# Indices 1 2 3 4 5 6 
#
# 1 129.7256 60.3922 55.5211 0.0000 0.0000 0.0000
# 2 60.3922 110.4376 44.5932 0.0000 0.0000 0.0000
# 3 55.5211 44.5932 150.4080 0.0000 0.0000 0.0000
# 4 0.0000 0.0000 0.0000 30.5490 0.0000 0.0000
# 5 0.0000 0.0000 0.0000 0.0000 24.1859 0.0000
# 6 0.0000 0.0000 0.0000 0.0000 0.0000 45.5927
#
#
#
# Elastic Compliance Matrix: (Units=1/GPa)
#
#
# Indices 1 2 3 4 5 6 
#
# 1 0.011188 -0.005056 -0.002631 0.000000 0.000000 0.000000
# 2 -0.005056 0.012571 -0.001861 0.000000 0.000000 0.000000
# 3 -0.002631 -0.001861 0.008171 0.000000 0.000000 0.000000
# 4 0.000000 0.000000 0.000000 0.032734 0.000000 0.000000
# 5 0.000000 0.000000 0.000000 0.000000 0.041346 0.000000
# 6 0.000000 0.000000 0.000000 0.000000 0.000000 0.021933
#
#
# Mechanical properties :
#
#
# Convention : Reuss Voigt Hill
#
# Bulk Modulus (GPa) = 77.90931 79.06491 78.48711
# Shear Modulus (GPa) = 33.04281 35.40317 34.22299
#
# Velocity S-wave (km/s) = 4.03218 4.17371 4.10355
# Velocity P-wave (km/s) = 7.74678 7.88224 7.81480
#
# Compressibility (1/GPa) = 0.01283544
#
# Stress axis : x y z
#
# Youngs Moduli (GPa) = 89.37861 79.54796 122.37687
#
# Poissons Ratio (x) = 0.40219 0.32198
# Poissons Ratio (y) = 0.45189 0.22771
# Poissons Ratio (z) = 0.23516 0.14802
#
# Static dielectric constant tensor:
#      x y z
#    x 3.569600 0.000000 0.000000 
#    y 0.000000 3.636480 0.000000 
#    z 0.000000 0.000000 3.874300 
# 
# 
# High freq. dielectric constant tensor:
#      x y z
#    x 1.793900 0.000000 0.000000 
#    y 0.000000 1.777220 0.000000 
#    z 0.000000 0.000000 1.805370 
# 
# From -- ./inp_files/51361.got.cif
#   From: 2010.03.12/outbox.cif.g09.slc.cpg/sg70_26_cif.got.tgz:51361.got - 2010.04.16 13:46:32.
