data_PCOD8286988
_publ_section_title
;
Structure prediction by ZEFSAII (Michael W. Deem and Ramdas Pophale) SiO2 
 PCOD8286988
Probable space group: I M M M
;
_chemical_formula_sum "Si O2"
_cell_formula_units_Z 80
_cell_length_a 22.667356
_cell_length_b 23.165474
_cell_length_c 9.492785
_cell_angle_alpha 90.000000
_cell_angle_beta 90.000000
_cell_angle_gamma 90.000000
_cell_volume 4984.661841
_symmetry_space_group_name_H-M "I M M M"
_symmetry_group_IT_number 71
_symmetry_cell_setting 'orthorhombic'
loop_
_space_group_symop_operation_xyz
x,y,z
-x,-y,z
x,-y,-z
-x,y,-z
-x,-y,-z
x,y,-z
-x,y,z
x,-y,z
1/2+x,1/2+y,1/2+z
1/2-x,1/2-y,1/2+z
1/2+x,1/2-y,1/2-z
1/2-x,1/2+y,1/2-z
1/2-x,1/2-y,1/2-z
1/2+x,1/2+y,1/2-z
1/2-x,1/2+y,1/2+z
1/2+x,1/2-y,1/2+z
loop_
_atom_site_type_symbol
_atom_site_label
_atom_site_fract_x
_atom_site_fract_y
_atom_site_fract_z
Si Si1 0.069367 0.338629 0.163014
Si Si2 0.355610 0.500000 0.832314
Si Si3 0.873206 0.563847 0.342505
Si Si4 0.429856 0.731766 0.843240
Si Si5 0.760134 0.500000 0.657048
Si Si6 0.565771 0.395085 0.832506
O O1 0.101841 0.393903 0.225463
O O2 0.093758 0.280866 0.238086
O O3 0.000000 0.346104 0.188207
O O4 0.085473 0.333766 0.000000
O O5 0.289969 0.500000 0.773458
O O6 0.389931 0.556324 0.774873
O O7 0.351656 0.500000 0.000000
O O8 0.887741 0.587263 0.500000
O O9 0.902392 0.500000 0.323557
O O10 0.802108 0.556674 0.324520
O O11 0.500000 0.732278 0.849437
O O12 0.410213 0.668361 0.787497
O O13 0.404431 0.743690 0.000000
O O14 0.732308 0.500000 0.500000
O O15 0.500000 0.406387 0.771020
O O16 0.562191 0.397789 0.000000
#
# Coordination Sequence:
#
# PCOD8286988 Si02
#       6
#    16   8  16  16   8  16
#     4  10  19  28  42  68  97 119 141 178 228 269
#     4  10  17  26  48  75  93 114 147 187 227 266
#     4   8  17  33  49  63  82 116 155 186 217 259
#     4   8  14  26  43  61  87 125 158 177 202 254
#     4   8  18  35  48  62  86 117 151 186 225 264
#     4   8  14  25  43  70  99 122 147 180 216 257
#
# _framework density 16.049233000000001
#
# number of rings (size 3 to 8) (size 9 to 14) (size 15 to 20)
#    0.600    2.800    0.000    2.100    0.000    4.000 
#    0.000    3.000    0.000    3.600    0.000    0.000 
#    0.000    0.000    0.000    0.000    0.000    0.000 
#
# Total GULP energy -495603.891887 kJ/mol
# GULP energy per Si atom -12390.097297 kJ/mol
# Density = 1.601270 g / cm^3
# Si number density = 16.049233 Si / 1000 Ang^3
#
#
#
# Elastic Constant Matrix: (Units=GPa)
#
#
# Indices 1 2 3 4 5 6 
#
# 1 48.3907 42.6330 36.8442 0.0000 0.0000 0.0000
# 2 42.6330 127.7905 61.8313 0.0000 0.0000 0.0000
# 3 36.8442 61.8313 79.6312 0.0000 0.0000 0.0000
# 4 0.0000 0.0000 0.0000 13.4041 0.0000 0.0000
# 5 0.0000 0.0000 0.0000 0.0000 20.4410 0.0000
# 6 0.0000 0.0000 0.0000 0.0000 0.0000 -9.1705
#
#
#
# Elastic Compliance Matrix: (Units=1/GPa)
#
#
# Indices 1 2 3 4 5 6 
#
# 1 0.034628 -0.006087 -0.011295 0.000000 0.000000 0.000000
# 2 -0.006087 0.013605 -0.007747 0.000000 0.000000 0.000000
# 3 -0.011295 -0.007747 0.023799 0.000000 0.000000 0.000000
# 4 0.000000 0.000000 0.000000 0.074604 0.000000 0.000000
# 5 0.000000 0.000000 0.000000 0.000000 0.048921 0.000000
# 6 0.000000 0.000000 0.000000 0.000000 0.000000 -0.109045
#
#
# Mechanical properties :
#
#
# Convention : Reuss Voigt Hill
#
# Bulk Modulus (GPa) = 45.92873 59.82550 52.87711
# Shear Modulus (GPa) = 34.71506 12.56850 23.64178
#
# Velocity S-wave (km/s) = 4.65589 2.80147 3.84223
# Velocity P-wave (km/s) = 7.58832 6.91531 7.25962
#
# Compressibility (1/GPa) = 0.02177287
#
# Stress axis : x y z
#
# Youngs Moduli (GPa) = 28.87801 73.50502 42.01770
#
# Poissons Ratio (x) = 0.44745 0.47461
# Poissons Ratio (y) = 0.17579 0.32551
# Poissons Ratio (z) = 0.32619 0.56944
#
# Static dielectric constant tensor:
#      x y z
#    x 2.690960 0.000000 0.000000 
#    y 0.000000 3.275430 0.000000 
#    z 0.000000 0.000000 2.852310 
# 
# 
# High freq. dielectric constant tensor:
#      x y z
#    x 1.575370 0.000000 0.000000 
#    y 0.000000 1.622340 0.000000 
#    z 0.000000 0.000000 1.599020 
# 
# From -- ./inp_files/14761.got.cif
#   From: 2010.06.25/outbox.cif.g09.slc.cpg/sg71_8_cif.got.tgz:14761.got - 2010.06.28 04:59:45.
