data_PCOD8286096
_publ_section_title
;
Structure prediction by ZEFSAII (Michael W. Deem and Ramdas Pophale) SiO2 
 PCOD8286096
Probable space group: F D D D
;
_chemical_formula_sum "Si O2"
_cell_formula_units_Z 240
_cell_length_a 26.252299
_cell_length_b 20.191604
_cell_length_c 19.704274
_cell_angle_alpha 90.000000
_cell_angle_beta 90.000000
_cell_angle_gamma 90.000000
_cell_volume 10444.763247
_symmetry_space_group_name_H-M "F D D D"
_symmetry_group_IT_number 70
_space_group.IT_coordinate_system_code '2'
_symmetry_cell_setting 'orthorhombic'
loop_
_space_group_symop_operation_xyz
x,y,z
1/4-x,1/4-y,z
x,1/4-y,1/4-z
1/4-x,y,1/4-z
-x,-y,-z
3/4+x,3/4+y,-z
-x,3/4+y,3/4+z
3/4+x,-y,3/4+z
x,1/2+y,1/2+z
1/4-x,3/4-y,1/2+z
x,3/4-y,3/4-z
1/4-x,1/2+y,3/4-z
-x,1/2-y,1/2-z
3/4+x,1/4+y,1/2-z
-x,1/4+y,1/4+z
3/4+x,1/2-y,1/4+z
1/2+x,y,1/2+z
3/4-x,1/4-y,1/2+z
1/2+x,1/4-y,3/4-z
3/4-x,y,3/4-z
1/2-x,-y,1/2-z
1/4+x,3/4+y,1/2-z
1/2-x,3/4+y,1/4+z
1/4+x,-y,1/4+z
1/2+x,1/2+y,z
3/4-x,3/4-y,z
1/2+x,3/4-y,1/4-z
3/4-x,1/2+y,1/4-z
1/2-x,1/2-y,-z
1/4+x,1/4+y,-z
1/2-x,1/4+y,3/4+z
1/4+x,1/2-y,3/4+z
loop_
_atom_site_type_symbol
_atom_site_label
_atom_site_fract_x
_atom_site_fract_y
_atom_site_fract_z
Si Si1 0.240218 0.179084 0.288065
Si Si2 0.253861 0.102381 0.768990
Si Si3 0.567963 0.485374 0.609559
Si Si4 0.843831 0.548847 0.141884
Si Si5 0.163375 0.067357 0.847844
Si Si6 0.454920 0.205885 0.774552
Si Si7 0.528777 0.125000 0.125000
Si Si8 0.988531 0.239876 0.411079
O O1 0.278657 0.225722 0.328970
O O2 0.191920 0.159482 0.333582
O O3 0.274409 0.117923 0.266782
O O4 0.216895 0.216877 0.222844
O O5 0.301012 0.055929 0.792465
O O6 0.202850 0.059070 0.785070
O O7 0.258415 0.127777 0.691226
O O8 0.247959 0.165796 0.816960
O O9 0.625000 0.461143 0.625000
O O10 0.566112 0.564686 0.605424
O O11 0.855661 0.625000 0.125000
O O12 0.887134 0.503777 0.108068
O O13 0.843862 0.538295 0.224453
O O14 0.788952 0.526977 0.114516
O O15 0.125000 0.125000 0.827307
O O16 0.500000 0.250000 0.750000
O O17 0.445106 0.229969 0.852344
#
# Coordination Sequence:
#
# PCOD8286096 Si02
#       8
#    32  32  32  32  32  32  16  32
#     4  11  22  43  68  96 140 181 228 287 354 422
#     4  11  24  46  73 101 142 194 232 295 353 422
#     4  11  25  46  70 104 139 184 239 297 355 423
#     4  11  22  39  68 105 135 177 239 293 342 429
#     4  11  22  43  68 103 140 184 233 290 359 422
#     4  10  20  38  68  99 129 177 226 274 345 421
#     4  12  25  46  72 104 142 192 244 286 357 432
#     4  11  20  42  70  93 137 186 224 277 359 426
#
# _framework density 22.978023
#
# number of rings (size 3 to 8) (size 9 to 14) (size 15 to 20)
#    0.000    1.067    6.667    1.400    0.000    2.133 
#    7.200    0.667    0.000    0.800    0.000    0.000 
#    0.000    0.000    0.000    0.000    0.000    0.000 
#
# Total GULP energy -743463.996797 kJ/mol
# GULP energy per Si atom -12391.066613 kJ/mol
# Density = 2.292572 g / cm^3
# Si number density = 22.978023 Si / 1000 Ang^3
#
#
#
# Elastic Constant Matrix: (Units=GPa)
#
#
# Indices 1 2 3 4 5 6 
#
# 1 76.3522 8.3897 25.6555 0.0000 0.0000 0.0000
# 2 8.3897 98.4524 23.0723 0.0000 0.0000 0.0000
# 3 25.6555 23.0723 162.4905 0.0000 0.0000 0.0000
# 4 0.0000 0.0000 0.0000 40.5593 0.0000 0.0000
# 5 0.0000 0.0000 0.0000 0.0000 14.4796 0.0000
# 6 0.0000 0.0000 0.0000 0.0000 0.0000 18.4641
#
#
#
# Elastic Compliance Matrix: (Units=1/GPa)
#
#
# Indices 1 2 3 4 5 6 
#
# 1 0.013876 -0.000692 -0.002093 0.000000 0.000000 0.000000
# 2 -0.000692 0.010541 -0.001388 0.000000 0.000000 0.000000
# 3 -0.002093 -0.001388 0.006682 0.000000 0.000000 0.000000
# 4 0.000000 0.000000 0.000000 0.024655 0.000000 0.000000
# 5 0.000000 0.000000 0.000000 0.000000 0.069063 0.000000
# 6 0.000000 0.000000 0.000000 0.000000 0.000000 0.054159
#
#
# Mechanical properties :
#
#
# Convention : Reuss Voigt Hill
#
# Bulk Modulus (GPa) = 43.94661 50.17000 47.05831
# Shear Modulus (GPa) = 25.65342 33.37911 29.51627
#
# Velocity S-wave (km/s) = 3.34493 3.81550 3.58794
# Velocity P-wave (km/s) = 5.83825 6.42589 6.13910
#
# Compressibility (1/GPa) = 0.02275488
#
# Stress axis : x y z
#
# Youngs Moduli (GPa) = 72.06470 94.86472 149.66410
#
# Poissons Ratio (x) = 0.06565 0.31320
# Poissons Ratio (y) = 0.04987 0.20766
# Poissons Ratio (z) = 0.15081 0.13163
#
# Static dielectric constant tensor:
#      x y z
#    x 3.758300 0.000000 0.000000 
#    y 0.000000 4.193500 0.000000 
#    z 0.000000 0.000000 5.013970 
# 
# 
# High freq. dielectric constant tensor:
#      x y z
#    x 1.866490 0.000000 0.000000 
#    y 0.000000 1.925800 0.000000 
#    z 0.000000 0.000000 1.922580 
# 
# From -- ./inp_files/47136.got.cif
#   From: 2010.03.12/outbox.cif.g09.slc.cpg/sg70_24_cif.got.tgz:47136.got - 2010.04.16 13:46:32.
