data_PCOD8286075
_publ_section_title
;
Structure prediction by ZEFSAII (Michael W. Deem and Ramdas Pophale) SiO2 
 PCOD8286075
Probable space group: F D D D
;
_chemical_formula_sum "Si O2"
_cell_formula_units_Z 240
_cell_length_a 13.237586
_cell_length_b 30.453327
_cell_length_c 30.229694
_cell_angle_alpha 90.000000
_cell_angle_beta 90.000000
_cell_angle_gamma 90.000000
_cell_volume 12186.452260
_symmetry_space_group_name_H-M "F D D D"
_symmetry_group_IT_number 70
_space_group.IT_coordinate_system_code '2'
_symmetry_cell_setting 'orthorhombic'
loop_
_space_group_symop_operation_xyz
x,y,z
1/4-x,1/4-y,z
x,1/4-y,1/4-z
1/4-x,y,1/4-z
-x,-y,-z
3/4+x,3/4+y,-z
-x,3/4+y,3/4+z
3/4+x,-y,3/4+z
x,1/2+y,1/2+z
1/4-x,3/4-y,1/2+z
x,3/4-y,3/4-z
1/4-x,1/2+y,3/4-z
-x,1/2-y,1/2-z
3/4+x,1/4+y,1/2-z
-x,1/4+y,1/4+z
3/4+x,1/2-y,1/4+z
1/2+x,y,1/2+z
3/4-x,1/4-y,1/2+z
1/2+x,1/4-y,3/4-z
3/4-x,y,3/4-z
1/2-x,-y,1/2-z
1/4+x,3/4+y,1/2-z
1/2-x,3/4+y,1/4+z
1/4+x,-y,1/4+z
1/2+x,1/2+y,z
3/4-x,3/4-y,z
1/2+x,3/4-y,1/4-z
3/4-x,1/2+y,1/4-z
1/2-x,1/2-y,-z
1/4+x,1/4+y,-z
1/2-x,1/4+y,3/4+z
1/4+x,1/2-y,3/4+z
loop_
_atom_site_type_symbol
_atom_site_label
_atom_site_fract_x
_atom_site_fract_y
_atom_site_fract_z
Si Si1 0.288946 0.710999 0.225551
Si Si2 0.137780 0.268186 0.497180
Si Si3 0.089106 0.975852 0.852197
Si Si4 0.625000 0.503726 0.125000
Si Si5 0.084540 0.931243 0.054785
Si Si6 0.129566 0.542686 0.421046
Si Si7 0.837098 0.082891 0.422603
Si Si8 0.729429 0.076400 0.108789
O O1 0.192073 0.729002 0.250919
O O2 0.371441 0.687160 0.255850
O O3 0.342941 0.750245 0.199651
O O4 0.238179 0.674563 0.194004
O O5 0.250000 0.250000 0.500000
O O6 0.111900 0.286022 0.448548
O O7 0.127835 0.304237 0.536143
O O8 0.167469 0.944928 0.876066
O O9 0.973374 0.965130 0.867799
O O10 0.107214 0.026095 0.870365
O O11 0.626083 0.472036 0.082655
O O12 0.120249 0.883604 0.072267
O O13 0.963728 0.933234 0.055499
O O14 0.216477 0.578946 0.421053
O O15 0.875000 0.064779 0.375000
O O16 0.723422 0.125000 0.125000
O O17 0.625000 0.052023 0.125000
#
# Coordination Sequence:
#
# PCOD8286075 Si02
#       8
#    32  32  32  16  32  32  32  32
#     4  10  21  38  60  90 113 157 207 241 295 374
#     4  11  22  37  60  88 119 156 201 251 296 368
#     4  10  20  38  63  89 117 163 205 249 307 370
#     4  10  20  38  63  88 126 158 194 254 307 376
#     4  11  20  38  60  89 123 152 201 249 309 364
#     4   9  21  38  63  83 118 163 199 246 304 371
#     4  11  23  38  57  90 123 159 200 254 311 362
#     4  10  22  40  62  86 122 162 205 257 311 357
#
# _framework density 19.693999999999999
#
# number of rings (size 3 to 8) (size 9 to 14) (size 15 to 20)
#    0.000    1.733    2.000    2.400    1.867    3.733 
#    0.000    0.333    0.000    0.000    0.000    0.000 
#    0.000    0.000    0.000    0.000    0.000    0.000 
#
# Total GULP energy -743371.147858 kJ/mol
# GULP energy per Si atom -12389.519131 kJ/mol
# Density = 1.964918 g / cm^3
# Si number density = 19.694000 Si / 1000 Ang^3
#
#
#
# Elastic Constant Matrix: (Units=GPa)
#
#
# Indices 1 2 3 4 5 6 
#
# 1 157.0989 30.3059 40.2751 0.0000 0.0000 0.0000
# 2 30.3059 54.2420 15.5709 0.0000 0.0000 0.0000
# 3 40.2751 15.5709 106.5359 0.0000 0.0000 0.0000
# 4 0.0000 0.0000 0.0000 18.2758 0.0000 0.0000
# 5 0.0000 0.0000 0.0000 0.0000 33.0169 0.0000
# 6 0.0000 0.0000 0.0000 0.0000 0.0000 15.1587
#
#
#
# Elastic Compliance Matrix: (Units=1/GPa)
#
#
# Indices 1 2 3 4 5 6 
#
# 1 0.007669 -0.003604 -0.002372 0.000000 0.000000 0.000000
# 2 -0.003604 0.020937 -0.001698 0.000000 0.000000 0.000000
# 3 -0.002372 -0.001698 0.010532 0.000000 0.000000 0.000000
# 4 0.000000 0.000000 0.000000 0.054717 0.000000 0.000000
# 5 0.000000 0.000000 0.000000 0.000000 0.030287 0.000000
# 6 0.000000 0.000000 0.000000 0.000000 0.000000 0.065969
#
#
# Mechanical properties :
#
#
# Convention : Reuss Voigt Hill
#
# Bulk Modulus (GPa) = 42.03548 54.46451 48.25000
# Shear Modulus (GPa) = 23.43153 28.73861 26.08507
#
# Velocity S-wave (km/s) = 3.45306 3.82417 3.64334
# Velocity P-wave (km/s) = 6.10646 6.87128 6.50012
#
# Compressibility (1/GPa) = 0.02378943
#
# Stress axis : x y z
#
# Youngs Moduli (GPa) = 130.39816 47.76310 94.95301
#
# Poissons Ratio (x) = 0.17212 0.22527
# Poissons Ratio (y) = 0.46991 0.16120
# Poissons Ratio (z) = 0.30936 0.08109
#
# Static dielectric constant tensor:
#      x y z
#    x 4.314910 0.000000 0.000000 
#    y 0.000000 3.316780 0.000000 
#    z 0.000000 0.000000 3.821470 
# 
# 
# High freq. dielectric constant tensor:
#      x y z
#    x 1.787840 0.000000 0.000000 
#    y 0.000000 1.739250 0.000000 
#    z 0.000000 0.000000 1.777190 
# 
# From -- ./inp_files/66133.got.cif
#   From: 2010.03.12/outbox.cif.g09.slc.cpg/sg70_34_cif.got.tgz:66133.got - 2010.04.16 13:46:32.
