data_PCOD8286439
_publ_section_title
;
Structure prediction by ZEFSAII (Michael W. Deem and Ramdas Pophale) SiO2 
 PCOD8286439
Probable space group: F D D D
;
_chemical_formula_sum "Si O2"
_cell_formula_units_Z 176
_cell_length_a 13.696496
_cell_length_b 23.198383
_cell_length_c 24.732670
_cell_angle_alpha 90.000000
_cell_angle_beta 90.000000
_cell_angle_gamma 90.000000
_cell_volume 7858.473485
_symmetry_space_group_name_H-M "F D D D"
_symmetry_group_IT_number 70
_space_group.IT_coordinate_system_code '2'
_symmetry_cell_setting 'orthorhombic'
loop_
_space_group_symop_operation_xyz
x,y,z
1/4-x,1/4-y,z
x,1/4-y,1/4-z
1/4-x,y,1/4-z
-x,-y,-z
3/4+x,3/4+y,-z
-x,3/4+y,3/4+z
3/4+x,-y,3/4+z
x,1/2+y,1/2+z
1/4-x,3/4-y,1/2+z
x,3/4-y,3/4-z
1/4-x,1/2+y,3/4-z
-x,1/2-y,1/2-z
3/4+x,1/4+y,1/2-z
-x,1/4+y,1/4+z
3/4+x,1/2-y,1/4+z
1/2+x,y,1/2+z
3/4-x,1/4-y,1/2+z
1/2+x,1/4-y,3/4-z
3/4-x,y,3/4-z
1/2-x,-y,1/2-z
1/4+x,3/4+y,1/2-z
1/2-x,3/4+y,1/4+z
1/4+x,-y,1/4+z
1/2+x,1/2+y,z
3/4-x,3/4-y,z
1/2+x,3/4-y,1/4-z
3/4-x,1/2+y,1/4-z
1/2-x,1/2-y,-z
1/4+x,1/4+y,-z
1/2-x,1/4+y,3/4+z
1/4+x,1/2-y,3/4+z
loop_
_atom_site_type_symbol
_atom_site_label
_atom_site_fract_x
_atom_site_fract_y
_atom_site_fract_z
Si Si1 0.404384 0.212809 0.759877
Si Si2 0.878219 0.104854 0.184370
Si Si3 0.721617 0.162483 0.868789
Si Si4 0.712673 0.778993 0.735447
Si Si5 0.625000 0.327619 0.625000
Si Si6 0.046430 0.023948 0.578791
O O1 0.500000 0.250000 0.750000
O O2 0.402191 0.152576 0.728939
O O3 0.307686 0.240394 0.735237
O O4 0.407302 0.210700 0.824658
O O5 0.909594 0.125000 0.125000
O O6 0.948834 0.053481 0.204057
O O7 0.766078 0.081457 0.184281
O O8 0.625000 0.125000 0.863563
O O9 0.767871 0.171850 0.809343
O O10 0.791664 0.118648 0.900088
O O11 0.720828 0.223462 0.900996
O O12 0.610713 0.745188 0.722856
O O13 0.125000 0.038714 0.625000
#
# Coordination Sequence:
#
# PCOD8286439 Si02
#       6
#    32  32  32  32  16  32
#     4  12  29  48  73 105 147 198 252 303 369 448
#     4  12  26  45  71 110 146 186 241 303 374 440
#     4  11  21  42  75 104 142 190 238 300 364 445
#     4  11  24  45  70 104 144 190 241 303 362 437
#     4  12  24  48  70 107 139 192 250 290 366 454
#     4  10  22  45  73 107 146 183 236 304 376 434
#
# _framework density 22.396207
#
# number of rings (size 3 to 8) (size 9 to 14) (size 15 to 20)
#    0.000    0.727    4.545    3.818    5.091    2.545 
#    0.000    0.909    0.000    0.000    0.000    0.000 
#    0.000    0.000    0.000    0.000    0.000    0.000 
#
# Total GULP energy -545178.446339 kJ/mol
# GULP energy per Si atom -12390.419235 kJ/mol
# Density = 2.234523 g / cm^3
# Si number density = 22.396207 Si / 1000 Ang^3
#
#
#
# Elastic Constant Matrix: (Units=GPa)
#
#
# Indices 1 2 3 4 5 6 
#
# 1 84.4073 44.7747 18.8366 0.0000 0.0000 0.0000
# 2 44.7747 79.6983 45.1465 0.0000 0.0000 0.0000
# 3 18.8366 45.1465 136.4256 0.0000 0.0000 0.0000
# 4 0.0000 0.0000 0.0000 69.2113 0.0000 0.0000
# 5 0.0000 0.0000 0.0000 0.0000 27.8812 0.0000
# 6 0.0000 0.0000 0.0000 0.0000 0.0000 50.2033
#
#
#
# Elastic Compliance Matrix: (Units=1/GPa)
#
#
# Indices 1 2 3 4 5 6 
#
# 1 0.016987 -0.010110 0.001000 0.000000 0.000000 0.000000
# 2 -0.010110 0.021459 -0.005705 0.000000 0.000000 0.000000
# 3 0.001000 -0.005705 0.009080 0.000000 0.000000 0.000000
# 4 0.000000 0.000000 0.000000 0.014449 0.000000 0.000000
# 5 0.000000 0.000000 0.000000 0.000000 0.035866 0.000000
# 6 0.000000 0.000000 0.000000 0.000000 0.000000 0.019919
#
#
# Mechanical properties :
#
#
# Convention : Reuss Voigt Hill
#
# Bulk Modulus (GPa) = 55.87931 57.56076 56.72003
# Shear Modulus (GPa) = 32.60396 42.24407 37.42402
#
# Velocity S-wave (km/s) = 3.81961 4.34777 4.09222
# Velocity P-wave (km/s) = 6.66761 7.13870 6.90717
#
# Compressibility (1/GPa) = 0.01789571
#
# Stress axis : x y z
#
# Youngs Moduli (GPa) = 58.86845 46.60037 110.13258
#
# Poissons Ratio (x) = 0.47113 -0.11015
# Poissons Ratio (y) = 0.59516 0.62835
# Poissons Ratio (z) = -0.05888 0.26587
#
# Static dielectric constant tensor:
#      x y z
#    x 3.683860 0.000000 0.000000 
#    y 0.000000 4.010670 0.000000 
#    z 0.000000 0.000000 4.054100 
# 
# 
# High freq. dielectric constant tensor:
#      x y z
#    x 1.883330 0.000000 0.000000 
#    y 0.000000 1.884450 0.000000 
#    z 0.000000 0.000000 1.887460 
# 
# From -- ./inp_files/51215.got.cif
#   From: 2010.03.12/outbox.cif.g09.slc.cpg/sg70_26_cif.got.tgz:51215.got - 2010.04.16 13:46:32.
