data_PCOD8286746
_publ_section_title
;
Structure prediction by ZEFSAII (Michael W. Deem and Ramdas Pophale) SiO2 
 PCOD8286746
Probable space group: F D D D
;
_chemical_formula_sum "Si O2"
_cell_formula_units_Z 216
_cell_length_a 23.122922
_cell_length_b 29.782841
_cell_length_c 14.870117
_cell_angle_alpha 90.000000
_cell_angle_beta 90.000000
_cell_angle_gamma 90.000000
_cell_volume 10240.548594
_symmetry_space_group_name_H-M "F D D D"
_symmetry_group_IT_number 70
_space_group.IT_coordinate_system_code '2'
_symmetry_cell_setting 'orthorhombic'
loop_
_space_group_symop_operation_xyz
x,y,z
1/4-x,1/4-y,z
x,1/4-y,1/4-z
1/4-x,y,1/4-z
-x,-y,-z
3/4+x,3/4+y,-z
-x,3/4+y,3/4+z
3/4+x,-y,3/4+z
x,1/2+y,1/2+z
1/4-x,3/4-y,1/2+z
x,3/4-y,3/4-z
1/4-x,1/2+y,3/4-z
-x,1/2-y,1/2-z
3/4+x,1/4+y,1/2-z
-x,1/4+y,1/4+z
3/4+x,1/2-y,1/4+z
1/2+x,y,1/2+z
3/4-x,1/4-y,1/2+z
1/2+x,1/4-y,3/4-z
3/4-x,y,3/4-z
1/2-x,-y,1/2-z
1/4+x,3/4+y,1/2-z
1/2-x,3/4+y,1/4+z
1/4+x,-y,1/4+z
1/2+x,1/2+y,z
3/4-x,3/4-y,z
1/2+x,3/4-y,1/4-z
3/4-x,1/2+y,1/4-z
1/2-x,1/2-y,-z
1/4+x,1/4+y,-z
1/2-x,1/4+y,3/4+z
1/4+x,1/2-y,3/4+z
loop_
_atom_site_type_symbol
_atom_site_label
_atom_site_fract_x
_atom_site_fract_y
_atom_site_fract_z
Si Si1 0.625000 0.625000 0.625000
Si Si2 0.148131 0.745087 0.720340
Si Si3 0.815750 0.350226 0.226758
Si Si4 0.409760 0.531705 0.136783
Si Si5 0.960498 0.361618 0.728577
Si Si6 0.976409 0.625000 0.625000
Si Si7 0.989190 0.786941 0.505714
Si Si8 0.471756 0.038222 0.058253
O O1 0.664244 0.654065 0.555541
O O2 0.125000 0.731333 0.625000
O O3 0.183414 0.702039 0.752359
O O4 0.096686 0.758906 0.788301
O O5 0.195044 0.784653 0.707350
O O6 0.875000 0.375000 0.252231
O O7 0.806914 0.348017 0.120589
O O8 0.765375 0.374549 0.284252
O O9 0.436246 0.581056 0.123563
O O10 0.449599 0.501271 0.199874
O O11 0.346727 0.533739 0.181449
O O12 0.964216 0.414795 0.722486
O O13 0.018933 0.336682 0.760126
O O14 0.992732 0.782124 0.399458
O O15 0.500000 0.000000 0.000000
#
# Coordination Sequence:
#
# PCOD8286746 Si02
#       8
#     8  32  32  32  32  16  32  32
#     4  12  24  42  72 106 138 184 220 292 350 406
#     4  11  25  45  69 101 137 182 234 291 354 418
#     4  12  25  46  72 104 139 185 242 298 353 433
#     4  11  27  45  71 101 146 185 240 296 359 434
#     4  12  25  43  72 105 140 184 238 285 358 423
#     4  12  27  47  70 104 147 193 238 298 370 420
#     4  11  24  45  67 103 138 182 235 283 356 426
#     4  11  26  45  72 102 149 183 232 298 357 428
#
# _framework density 21.09262
#
# number of rings (size 3 to 8) (size 9 to 14) (size 15 to 20)
#    0.000    0.593    3.704    3.778    8.296    1.185 
#    0.000    0.000    0.000    0.000    0.000    0.000 
#    0.000    0.000    0.000    0.000    0.000    0.000 
#
# Total GULP energy -669361.218345 kJ/mol
# GULP energy per Si atom -12395.578117 kJ/mol
# Density = 2.104461 g / cm^3
# Si number density = 21.092620 Si / 1000 Ang^3
#
#
#
# Elastic Constant Matrix: (Units=GPa)
#
#
# Indices 1 2 3 4 5 6 
#
# 1 104.1187 49.4923 65.2213 0.0000 0.0000 0.0000
# 2 49.4923 132.3956 56.1484 0.0000 0.0000 0.0000
# 3 65.2213 56.1484 158.3681 0.0000 0.0000 0.0000
# 4 0.0000 0.0000 0.0000 34.5235 0.0000 0.0000
# 5 0.0000 0.0000 0.0000 0.0000 31.4224 0.0000
# 6 0.0000 0.0000 0.0000 0.0000 0.0000 40.8034
#
#
#
# Elastic Compliance Matrix: (Units=1/GPa)
#
#
# Indices 1 2 3 4 5 6 
#
# 1 0.014069 -0.003298 -0.004625 0.000000 0.000000 0.000000
# 2 -0.003298 0.009663 -0.002068 0.000000 0.000000 0.000000
# 3 -0.004625 -0.002068 0.008952 0.000000 0.000000 0.000000
# 4 0.000000 0.000000 0.000000 0.028966 0.000000 0.000000
# 5 0.000000 0.000000 0.000000 0.000000 0.031824 0.000000
# 6 0.000000 0.000000 0.000000 0.000000 0.000000 0.024508
#
#
# Mechanical properties :
#
#
# Convention : Reuss Voigt Hill
#
# Bulk Modulus (GPa) = 78.72076 81.84515 80.28296
# Shear Modulus (GPa) = 35.16231 36.28455 35.72343
#
# Velocity S-wave (km/s) = 4.08737 4.15209 4.11986
# Velocity P-wave (km/s) = 7.72515 7.86597 7.79588
#
# Compressibility (1/GPa) = 0.01270313
#
# Stress axis : x y z
#
# Youngs Moduli (GPa) = 71.07732 103.48884 111.70466
#
# Poissons Ratio (x) = 0.34130 0.51662
# Poissons Ratio (y) = 0.23441 0.23097
# Poissons Ratio (z) = 0.32872 0.21398
#
# Static dielectric constant tensor:
#      x y z
#    x 4.049720 0.000000 0.000000 
#    y 0.000000 4.336720 0.000000 
#    z 0.000000 0.000000 2.984330 
# 
# 
# High freq. dielectric constant tensor:
#      x y z
#    x 1.831090 0.000000 0.000000 
#    y 0.000000 1.833950 0.000000 
#    z 0.000000 0.000000 1.845120 
# 
# From -- ./inp_files/29136.got.cif
#   From: 2010.03.12/outbox.cif.g09.slc.cpg/sg70_15_cif.got.tgz:29136.got - 2010.04.16 13:46:32.
