data_PCOD8286563
_publ_section_title
;
Structure prediction by ZEFSAII (Michael W. Deem and Ramdas Pophale) SiO2 
 PCOD8286563
Probable space group: F D D D
;
_chemical_formula_sum "Si O2"
_cell_formula_units_Z 72
_cell_length_a 17.355929
_cell_length_b 8.640400
_cell_length_c 20.380886
_cell_angle_alpha 90.000000
_cell_angle_beta 90.000000
_cell_angle_gamma 90.000000
_cell_volume 3056.361869
_symmetry_space_group_name_H-M "F D D D"
_symmetry_group_IT_number 70
_space_group.IT_coordinate_system_code '2'
_symmetry_cell_setting 'orthorhombic'
loop_
_space_group_symop_operation_xyz
x,y,z
1/4-x,1/4-y,z
x,1/4-y,1/4-z
1/4-x,y,1/4-z
-x,-y,-z
3/4+x,3/4+y,-z
-x,3/4+y,3/4+z
3/4+x,-y,3/4+z
x,1/2+y,1/2+z
1/4-x,3/4-y,1/2+z
x,3/4-y,3/4-z
1/4-x,1/2+y,3/4-z
-x,1/2-y,1/2-z
3/4+x,1/4+y,1/2-z
-x,1/4+y,1/4+z
3/4+x,1/2-y,1/4+z
1/2+x,y,1/2+z
3/4-x,1/4-y,1/2+z
1/2+x,1/4-y,3/4-z
3/4-x,y,3/4-z
1/2-x,-y,1/2-z
1/4+x,3/4+y,1/2-z
1/2-x,3/4+y,1/4+z
1/4+x,-y,1/4+z
1/2+x,1/2+y,z
3/4-x,3/4-y,z
1/2+x,3/4-y,1/4-z
3/4-x,1/2+y,1/4-z
1/2-x,1/2-y,-z
1/4+x,1/4+y,-z
1/2-x,1/4+y,3/4+z
1/4+x,1/2-y,3/4+z
loop_
_atom_site_type_symbol
_atom_site_label
_atom_site_fract_x
_atom_site_fract_y
_atom_site_fract_z
Si Si1 0.417592 0.538415 0.692550
Si Si2 0.125000 0.625000 0.625000
Si Si3 0.583277 0.912913 0.188375
O O1 0.403231 0.625000 0.625000
O O2 0.375000 0.375000 0.692693
O O3 0.389405 0.657416 0.748763
O O4 0.507451 0.506945 0.705813
O O5 0.067869 0.731321 0.669211
O O6 0.625000 0.991371 0.125000
#
# Coordination Sequence:
#
# PCOD8286563 Si02
#       3
#    32   8  32
#     4  12  27  44  76 107 145 189 245 290 364 426
#     4   8  20  44  74  92 148 180 234 284 348 420
#     4  10  24  47  73 101 148 189 238 293 357 429
#
# _framework density 23.557421000000001
#
# number of rings (size 3 to 8) (size 9 to 14) (size 15 to 20)
#    1.333    0.000    2.222    1.333    9.333    2.667 
#    0.000    0.000    0.000    0.000    0.000    0.000 
#    0.000    0.000    0.000    0.000    0.000    0.000 
#
# Total GULP energy -223010.453448 kJ/mol
# GULP energy per Si atom -12389.469636 kJ/mol
# Density = 2.350380 g / cm^3
# Si number density = 23.557421 Si / 1000 Ang^3
#
#
#
# Elastic Constant Matrix: (Units=GPa)
#
#
# Indices 1 2 3 4 5 6 
#
# 1 165.1529 29.1997 95.1147 0.0000 0.0000 0.0000
# 2 29.1997 50.9993 35.6815 0.0000 0.0000 0.0000
# 3 95.1147 35.6815 226.2470 0.0000 0.0000 0.0000
# 4 0.0000 0.0000 0.0000 15.4004 0.0000 0.0000
# 5 0.0000 0.0000 0.0000 0.0000 34.2274 0.0000
# 6 0.0000 0.0000 0.0000 0.0000 0.0000 34.4850
#
#
#
# Elastic Compliance Matrix: (Units=1/GPa)
#
#
# Indices 1 2 3 4 5 6 
#
# 1 0.008283 -0.002592 -0.003074 0.000000 0.000000 0.000000
# 2 -0.002592 0.022851 -0.002514 0.000000 0.000000 0.000000
# 3 -0.003074 -0.002514 0.006109 0.000000 0.000000 0.000000
# 4 0.000000 0.000000 0.000000 0.064933 0.000000 0.000000
# 5 0.000000 0.000000 0.000000 0.000000 0.029216 0.000000
# 6 0.000000 0.000000 0.000000 0.000000 0.000000 0.028998
#
#
# Mechanical properties :
#
#
# Convention : Reuss Voigt Hill
#
# Bulk Modulus (GPa) = 47.88476 84.71012 66.29744
# Shear Modulus (GPa) = 27.21650 35.64945 31.43298
#
# Velocity S-wave (km/s) = 3.40270 3.89434 3.65679
# Velocity P-wave (km/s) = 5.98404 7.50055 6.78480
#
# Compressibility (1/GPa) = 0.02088347
#
# Stress axis : x y z
#
# Youngs Moduli (GPa) = 120.72284 43.76118 163.70453
#
# Poissons Ratio (x) = 0.11344 0.50315
# Poissons Ratio (y) = 0.31295 0.41157
# Poissons Ratio (z) = 0.37105 0.11002
#
# Static dielectric constant tensor:
#      x y z
#    x 4.005800 0.000000 0.000000 
#    y 0.000000 4.246220 0.000000 
#    z 0.000000 0.000000 4.508340 
# 
# 
# High freq. dielectric constant tensor:
#      x y z
#    x 1.910160 0.000000 0.000000 
#    y 0.000000 1.937670 0.000000 
#    z 0.000000 0.000000 1.952650 
# 
# From -- ./inp_files/6562.got.cif
#   From: 2010.03.12/outbox.cif.g09.slc.cpg/sg70_4_cif.got.tgz:6562.got - 2010.04.16 13:46:32.
