data_PCOD8286724
_publ_section_title
;
Structure prediction by ZEFSAII (Michael W. Deem and Ramdas Pophale) SiO2 
 PCOD8286724
Probable space group: F D D D
;
_chemical_formula_sum "Si O2"
_cell_formula_units_Z 176
_cell_length_a 11.703289
_cell_length_b 23.136545
_cell_length_c 26.537380
_cell_angle_alpha 90.000000
_cell_angle_beta 90.000000
_cell_angle_gamma 90.000000
_cell_volume 7185.623844
_symmetry_space_group_name_H-M "F D D D"
_symmetry_group_IT_number 70
_space_group.IT_coordinate_system_code '2'
_symmetry_cell_setting 'orthorhombic'
loop_
_space_group_symop_operation_xyz
x,y,z
1/4-x,1/4-y,z
x,1/4-y,1/4-z
1/4-x,y,1/4-z
-x,-y,-z
3/4+x,3/4+y,-z
-x,3/4+y,3/4+z
3/4+x,-y,3/4+z
x,1/2+y,1/2+z
1/4-x,3/4-y,1/2+z
x,3/4-y,3/4-z
1/4-x,1/2+y,3/4-z
-x,1/2-y,1/2-z
3/4+x,1/4+y,1/2-z
-x,1/4+y,1/4+z
3/4+x,1/2-y,1/4+z
1/2+x,y,1/2+z
3/4-x,1/4-y,1/2+z
1/2+x,1/4-y,3/4-z
3/4-x,y,3/4-z
1/2-x,-y,1/2-z
1/4+x,3/4+y,1/2-z
1/2-x,3/4+y,1/4+z
1/4+x,-y,1/4+z
1/2+x,1/2+y,z
3/4-x,3/4-y,z
1/2+x,3/4-y,1/4-z
3/4-x,1/2+y,1/4-z
1/2-x,1/2-y,-z
1/4+x,1/4+y,-z
1/2-x,1/4+y,3/4+z
1/4+x,1/2-y,3/4+z
loop_
_atom_site_type_symbol
_atom_site_label
_atom_site_fract_x
_atom_site_fract_y
_atom_site_fract_z
Si Si1 0.312995 0.006270 0.301617
Si Si2 0.875000 0.375000 0.096987
Si Si3 0.598598 0.377327 0.219315
Si Si4 0.882887 0.747037 0.123218
Si Si5 0.438919 0.021948 0.729503
Si Si6 0.712729 0.174402 0.196926
O O1 0.329598 0.074920 0.311345
O O2 0.237536 0.978650 0.346620
O O3 0.250000 0.000000 0.250000
O O4 0.434564 0.975245 0.294406
O O5 0.766163 0.368484 0.061386
O O6 0.881733 0.432994 0.130985
O O7 0.672971 0.319845 0.227207
O O8 0.573251 0.395572 0.277275
O O9 0.892974 0.724974 0.180769
O O10 0.992582 0.716543 0.097528
O O11 0.407658 0.962264 0.757832
O O12 0.625000 0.125000 0.177237
#
# Coordination Sequence:
#
# PCOD8286724 Si02
#       6
#    32  16  32  32  32  32
#     4  11  23  48  74 107 154 199 252 323 385 461
#     4  12  26  48  80 113 148 207 262 328 398 456
#     4  11  24  49  75 105 154 205 247 326 391 458
#     4  12  25  47  78 114 148 205 266 315 393 477
#     4  11  25  46  77 111 152 204 252 319 395 460
#     4  11  24  50  72 108 158 198 250 324 385 463
#
# _framework density 24.49335
#
# number of rings (size 3 to 8) (size 9 to 14) (size 15 to 20)
#    0.000    0.727    8.182    0.545    2.545    4.364 
#    1.636    2.727    4.000    0.000    0.000    0.000 
#    0.000    0.000    0.000    0.000    0.000    0.000 
#
# Total GULP energy -545212.086108 kJ/mol
# GULP energy per Si atom -12391.183775 kJ/mol
# Density = 2.443760 g / cm^3
# Si number density = 24.493350 Si / 1000 Ang^3
#
#
#
# Elastic Constant Matrix: (Units=GPa)
#
#
# Indices 1 2 3 4 5 6 
#
# 1 84.8515 68.6560 56.0741 0.0000 0.0000 0.0000
# 2 68.6560 105.3162 32.7574 0.0000 0.0000 0.0000
# 3 56.0741 32.7574 119.5742 0.0000 0.0000 0.0000
# 4 0.0000 0.0000 0.0000 34.9027 0.0000 0.0000
# 5 0.0000 0.0000 0.0000 0.0000 37.4758 0.0000
# 6 0.0000 0.0000 0.0000 0.0000 0.0000 45.1350
#
#
#
# Elastic Compliance Matrix: (Units=1/GPa)
#
#
# Indices 1 2 3 4 5 6 
#
# 1 0.034395 -0.019026 -0.010917 0.000000 0.000000 0.000000
# 2 -0.019026 0.020905 0.003196 0.000000 0.000000 0.000000
# 3 -0.010917 0.003196 0.012607 0.000000 0.000000 0.000000
# 4 0.000000 0.000000 0.000000 0.028651 0.000000 0.000000
# 5 0.000000 0.000000 0.000000 0.000000 0.026684 0.000000
# 6 0.000000 0.000000 0.000000 0.000000 0.000000 0.022156
#
#
# Mechanical properties :
#
#
# Convention : Reuss Voigt Hill
#
# Bulk Modulus (GPa) = 69.39294 69.41300 69.40297
# Shear Modulus (GPa) = 24.54633 33.65297 29.09965
#
# Velocity S-wave (km/s) = 3.16913 3.71072 3.45057
# Velocity P-wave (km/s) = 6.46406 6.83815 6.65373
#
# Compressibility (1/GPa) = 0.01441069
#
# Stress axis : x y z
#
# Youngs Moduli (GPa) = 29.07429 47.83623 79.32040
#
# Poissons Ratio (x) = 0.91015 0.86594
# Poissons Ratio (y) = 0.55318 -0.25347
# Poissons Ratio (z) = 0.31740 -0.15286
#
# Static dielectric constant tensor:
#      x y z
#    x 5.962920 0.000000 0.000000 
#    y 0.000000 6.116290 0.000000 
#    z 0.000000 0.000000 4.480130 
# 
# 
# High freq. dielectric constant tensor:
#      x y z
#    x 1.967600 0.000000 0.000000 
#    y 0.000000 1.968730 0.000000 
#    z 0.000000 0.000000 1.980520 
# 
# From -- ./inp_files/64754.got.cif
#   From: 2010.03.12/outbox.cif.g09.slc.cpg/sg70_33_cif.got.tgz:64754.got - 2010.04.16 13:46:32.
