data_PCOD8286651
_publ_section_title
;
Structure prediction by ZEFSAII (Michael W. Deem and Ramdas Pophale) SiO2 
 PCOD8286651
Probable space group: F D D D
;
_chemical_formula_sum "Si O2"
_cell_formula_units_Z 168
_cell_length_a 14.638274
_cell_length_b 24.769296
_cell_length_c 20.461950
_cell_angle_alpha 90.000000
_cell_angle_beta 90.000000
_cell_angle_gamma 90.000000
_cell_volume 7419.088544
_symmetry_space_group_name_H-M "F D D D"
_symmetry_group_IT_number 70
_space_group.IT_coordinate_system_code '2'
_symmetry_cell_setting 'orthorhombic'
loop_
_space_group_symop_operation_xyz
x,y,z
1/4-x,1/4-y,z
x,1/4-y,1/4-z
1/4-x,y,1/4-z
-x,-y,-z
3/4+x,3/4+y,-z
-x,3/4+y,3/4+z
3/4+x,-y,3/4+z
x,1/2+y,1/2+z
1/4-x,3/4-y,1/2+z
x,3/4-y,3/4-z
1/4-x,1/2+y,3/4-z
-x,1/2-y,1/2-z
3/4+x,1/4+y,1/2-z
-x,1/4+y,1/4+z
3/4+x,1/2-y,1/4+z
1/2+x,y,1/2+z
3/4-x,1/4-y,1/2+z
1/2+x,1/4-y,3/4-z
3/4-x,y,3/4-z
1/2-x,-y,1/2-z
1/4+x,3/4+y,1/2-z
1/2-x,3/4+y,1/4+z
1/4+x,-y,1/4+z
1/2+x,1/2+y,z
3/4-x,3/4-y,z
1/2+x,3/4-y,1/4-z
3/4-x,1/2+y,1/4-z
1/2-x,1/2-y,-z
1/4+x,1/4+y,-z
1/2-x,1/4+y,3/4+z
1/4+x,1/2-y,3/4+z
loop_
_atom_site_type_symbol
_atom_site_label
_atom_site_fract_x
_atom_site_fract_y
_atom_site_fract_z
Si Si1 0.072599 0.454752 0.979156
Si Si2 0.861858 0.740110 0.659154
Si Si3 0.247019 0.412758 0.486837
Si Si4 0.875000 0.375000 0.875000
Si Si5 0.729273 0.809388 0.119927
Si Si6 0.041227 0.427362 0.172252
O O1 0.092497 0.453068 0.903102
O O2 0.030533 0.398125 0.000797
O O3 0.173557 0.456636 0.011408
O O4 0.000000 0.500000 0.000000
O O5 0.838562 0.701510 0.720014
O O6 0.800540 0.793334 0.651744
O O7 0.965369 0.761486 0.665745
O O8 0.318667 0.414184 0.425215
O O9 0.279775 0.432339 0.558790
O O10 0.625000 0.789725 0.125000
O O11 0.730677 0.863578 0.075575
O O12 0.125000 0.439288 0.125000
#
# Coordination Sequence:
#
# PCOD8286651 Si02
#       6
#    32  32  32   8  32  32
#     4  12  23  41  67  99 144 178 225 287 365 444
#     4  12  25  39  68 100 135 180 232 294 359 414
#     4  12  26  42  65 107 143 180 233 291 367 441
#     4  12  28  40  68 112 158 172 212 310 392 436
#     4  11  25  48  68  92 137 192 248 288 340 430
#     4  11  22  40  66  98 134 181 230 282 354 437
#
# _framework density 22.644290999999999
#
# number of rings (size 3 to 8) (size 9 to 14) (size 15 to 20)
#    0.000    0.381    7.619    1.714    9.333    0.762 
#    0.000    0.000    0.000    1.143    0.000    0.000 
#    0.000    0.000    0.000    0.000    0.000    0.000 
#
# Total GULP energy -520516.327697 kJ/mol
# GULP energy per Si atom -12393.245898 kJ/mol
# Density = 2.259275 g / cm^3
# Si number density = 22.644291 Si / 1000 Ang^3
#
#
#
# Elastic Constant Matrix: (Units=GPa)
#
#
# Indices 1 2 3 4 5 6 
#
# 1 95.2448 44.4885 16.1629 0.0000 0.0000 0.0000
# 2 44.4885 108.8849 19.1744 0.0000 0.0000 0.0000
# 3 16.1629 19.1744 72.7638 0.0000 0.0000 0.0000
# 4 0.0000 0.0000 0.0000 24.0748 0.0000 0.0000
# 5 0.0000 0.0000 0.0000 0.0000 31.0630 0.0000
# 6 0.0000 0.0000 0.0000 0.0000 0.0000 34.2437
#
#
#
# Elastic Compliance Matrix: (Units=1/GPa)
#
#
# Indices 1 2 3 4 5 6 
#
# 1 0.013146 -0.005093 -0.001578 0.000000 0.000000 0.000000
# 2 -0.005093 0.011604 -0.001927 0.000000 0.000000 0.000000
# 3 -0.001578 -0.001927 0.014601 0.000000 0.000000 0.000000
# 4 0.000000 0.000000 0.000000 0.041537 0.000000 0.000000
# 5 0.000000 0.000000 0.000000 0.000000 0.032193 0.000000
# 6 0.000000 0.000000 0.000000 0.000000 0.000000 0.029202
#
#
# Mechanical properties :
#
#
# Convention : Reuss Voigt Hill
#
# Bulk Modulus (GPa) = 45.13451 48.50502 46.81977
# Shear Modulus (GPa) = 29.96428 31.01412 30.48920
#
# Velocity S-wave (km/s) = 3.64161 3.70486 3.67337
# Velocity P-wave (km/s) = 6.13653 6.30620 6.22194
#
# Compressibility (1/GPa) = 0.02215599
#
# Stress axis : x y z
#
# Youngs Moduli (GPa) = 76.06785 86.17454 68.48716
#
# Poissons Ratio (x) = 0.43892 0.10807
# Poissons Ratio (y) = 0.38745 0.13194
# Poissons Ratio (z) = 0.12003 0.16602
#
# Static dielectric constant tensor:
#      x y z
#    x 4.513640 0.000000 0.000000 
#    y 0.000000 3.944070 0.000000 
#    z 0.000000 0.000000 4.869150 
# 
# 
# High freq. dielectric constant tensor:
#      x y z
#    x 1.881420 0.000000 0.000000 
#    y 0.000000 1.893890 0.000000 
#    z 0.000000 0.000000 1.892570 
# 
# From -- ./inp_files/42837.got.cif
#   From: 2010.03.12/outbox.cif.g09.slc.cpg/sg70_22_cif.got.tgz:42837.got - 2010.04.16 13:46:32.
