data_PCOD8286635
_publ_section_title
;
Structure prediction by ZEFSAII (Michael W. Deem and Ramdas Pophale) SiO2 
 PCOD8286635
Probable space group: F D D D
;
_chemical_formula_sum "Si O2"
_cell_formula_units_Z 192
_cell_length_a 11.605548
_cell_length_b 23.760781
_cell_length_c 32.169473
_cell_angle_alpha 90.000000
_cell_angle_beta 90.000000
_cell_angle_gamma 90.000000
_cell_volume 8870.953648
_symmetry_space_group_name_H-M "F D D D"
_symmetry_group_IT_number 70
_space_group.IT_coordinate_system_code '2'
_symmetry_cell_setting 'orthorhombic'
loop_
_space_group_symop_operation_xyz
x,y,z
1/4-x,1/4-y,z
x,1/4-y,1/4-z
1/4-x,y,1/4-z
-x,-y,-z
3/4+x,3/4+y,-z
-x,3/4+y,3/4+z
3/4+x,-y,3/4+z
x,1/2+y,1/2+z
1/4-x,3/4-y,1/2+z
x,3/4-y,3/4-z
1/4-x,1/2+y,3/4-z
-x,1/2-y,1/2-z
3/4+x,1/4+y,1/2-z
-x,1/4+y,1/4+z
3/4+x,1/2-y,1/4+z
1/2+x,y,1/2+z
3/4-x,1/4-y,1/2+z
1/2+x,1/4-y,3/4-z
3/4-x,y,3/4-z
1/2-x,-y,1/2-z
1/4+x,3/4+y,1/2-z
1/2-x,3/4+y,1/4+z
1/4+x,-y,1/4+z
1/2+x,1/2+y,z
3/4-x,3/4-y,z
1/2+x,3/4-y,1/4-z
3/4-x,1/2+y,1/4-z
1/2-x,1/2-y,-z
1/4+x,1/4+y,-z
1/2-x,1/4+y,3/4+z
1/4+x,1/2-y,3/4+z
loop_
_atom_site_type_symbol
_atom_site_label
_atom_site_fract_x
_atom_site_fract_y
_atom_site_fract_z
Si Si1 0.503084 0.255454 0.113059
Si Si2 0.493980 0.620974 0.318637
Si Si3 0.897178 0.666321 0.240315
Si Si4 0.748020 0.895074 0.421116
Si Si5 0.875000 0.875000 0.221258
Si Si6 0.680636 0.737379 0.816771
Si Si7 0.875000 0.211910 0.375000
O O1 0.625000 0.228400 0.125000
O O2 0.521860 0.318183 0.098365
O O3 0.468654 0.212157 0.076468
O O4 0.428928 0.252445 0.154501
O O5 0.625000 0.625000 0.304627
O O6 0.424080 0.612879 0.276547
O O7 0.458338 0.675296 0.345284
O O8 0.894921 0.628828 0.199066
O O9 0.840354 0.726031 0.225598
O O10 0.032287 0.664580 0.254241
O O11 0.724895 0.875000 0.375000
O O12 0.875000 0.875000 0.437048
O O13 0.805984 0.829114 0.193952
O O14 0.795589 0.750551 0.844383
#
# Coordination Sequence:
#
# PCOD8286635 Si02
#       7
#    32  32  32  32  16  32  16
#     4  12  22  38  73 102 132 180 232 285 351 412
#     4  12  26  46  69 102 139 184 237 292 351 425
#     4  12  26  43  68 105 144 182 234 293 365 412
#     4  11  21  41  64 101 143 178 226 284 345 417
#     4  12  24  42  71 104 148 174 228 308 357 410
#     4  12  25  45  69 104 140 188 237 288 351 429
#     4  12  24  48  72  99 143 190 246 290 348 432
#
# _framework density 21.643671000000001
#
# number of rings (size 3 to 8) (size 9 to 14) (size 15 to 20)
#    0.000    0.167    8.333    2.500    2.333    0.000 
#    3.000    1.667    0.000    0.000    0.000    0.000 
#    0.000    0.000    0.000    0.000    0.000    0.000 
#
# Total GULP energy -594659.225773 kJ/mol
# GULP energy per Si atom -12388.733870 kJ/mol
# Density = 2.159441 g / cm^3
# Si number density = 21.643671 Si / 1000 Ang^3
#
#
#
# Elastic Constant Matrix: (Units=GPa)
#
#
# Indices 1 2 3 4 5 6 
#
# 1 106.8385 13.3194 47.4180 0.0000 0.0000 0.0000
# 2 13.3194 71.6392 11.6680 0.0000 0.0000 0.0000
# 3 47.4180 11.6680 95.4969 0.0000 0.0000 0.0000
# 4 0.0000 0.0000 0.0000 24.2891 0.0000 0.0000
# 5 0.0000 0.0000 0.0000 0.0000 24.3163 0.0000
# 6 0.0000 0.0000 0.0000 0.0000 0.0000 20.2442
#
#
#
# Elastic Compliance Matrix: (Units=1/GPa)
#
#
# Indices 1 2 3 4 5 6 
#
# 1 0.012123 -0.001299 -0.005861 0.000000 0.000000 0.000000
# 2 -0.001299 0.014382 -0.001112 0.000000 0.000000 0.000000
# 3 -0.005861 -0.001112 0.013518 0.000000 0.000000 0.000000
# 4 0.000000 0.000000 0.000000 0.041171 0.000000 0.000000
# 5 0.000000 0.000000 0.000000 0.000000 0.041125 0.000000
# 6 0.000000 0.000000 0.000000 0.000000 0.000000 0.049397
#
#
# Mechanical properties :
#
#
# Convention : Reuss Voigt Hill
#
# Bulk Modulus (GPa) = 42.59345 46.53171 44.56258
# Shear Modulus (GPa) = 25.49919 27.20789 26.35354
#
# Velocity S-wave (km/s) = 3.43612 3.54938 3.49321
# Velocity P-wave (km/s) = 5.95523 6.19218 6.07486
#
# Compressibility (1/GPa) = 0.02347779
#
# Stress axis : x y z
#
# Youngs Moduli (GPa) = 82.48697 69.53363 73.97797
#
# Poissons Ratio (x) = 0.09035 0.43357
# Poissons Ratio (y) = 0.10718 0.08226
# Poissons Ratio (z) = 0.48344 0.07732
#
# Static dielectric constant tensor:
#      x y z
#    x 3.839740 0.000000 0.000000 
#    y 0.000000 4.302570 0.000000 
#    z 0.000000 0.000000 4.135510 
# 
# 
# High freq. dielectric constant tensor:
#      x y z
#    x 1.836670 0.000000 0.000000 
#    y 0.000000 1.843340 0.000000 
#    z 0.000000 0.000000 1.861220 
# 
# From -- ./inp_files/64991.got.cif
#   From: 2010.03.12/outbox.cif.g09.slc.cpg/sg70_33_cif.got.tgz:64991.got - 2010.04.16 13:46:32.
