data_PCOD8286308
_publ_section_title
;
Structure prediction by ZEFSAII (Michael W. Deem and Ramdas Pophale) SiO2 
 PCOD8286308
Probable space group: F D D D
;
_chemical_formula_sum "Si O2"
_cell_formula_units_Z 240
_cell_length_a 23.419944
_cell_length_b 16.444004
_cell_length_c 27.909754
_cell_angle_alpha 90.000000
_cell_angle_beta 90.000000
_cell_angle_gamma 90.000000
_cell_volume 10748.538951
_symmetry_space_group_name_H-M "F D D D"
_symmetry_group_IT_number 70
_space_group.IT_coordinate_system_code '2'
_symmetry_cell_setting 'orthorhombic'
loop_
_space_group_symop_operation_xyz
x,y,z
1/4-x,1/4-y,z
x,1/4-y,1/4-z
1/4-x,y,1/4-z
-x,-y,-z
3/4+x,3/4+y,-z
-x,3/4+y,3/4+z
3/4+x,-y,3/4+z
x,1/2+y,1/2+z
1/4-x,3/4-y,1/2+z
x,3/4-y,3/4-z
1/4-x,1/2+y,3/4-z
-x,1/2-y,1/2-z
3/4+x,1/4+y,1/2-z
-x,1/4+y,1/4+z
3/4+x,1/2-y,1/4+z
1/2+x,y,1/2+z
3/4-x,1/4-y,1/2+z
1/2+x,1/4-y,3/4-z
3/4-x,y,3/4-z
1/2-x,-y,1/2-z
1/4+x,3/4+y,1/2-z
1/2-x,3/4+y,1/4+z
1/4+x,-y,1/4+z
1/2+x,1/2+y,z
3/4-x,3/4-y,z
1/2+x,3/4-y,1/4-z
3/4-x,1/2+y,1/4-z
1/2-x,1/2-y,-z
1/4+x,1/4+y,-z
1/2-x,1/4+y,3/4+z
1/4+x,1/2-y,3/4+z
loop_
_atom_site_type_symbol
_atom_site_label
_atom_site_fract_x
_atom_site_fract_y
_atom_site_fract_z
Si Si1 0.420809 0.938585 0.972567
Si Si2 0.279992 0.219786 0.386965
Si Si3 0.199730 0.534643 0.717301
Si Si4 0.989528 0.070066 0.696072
Si Si5 0.069141 0.724063 0.524670
Si Si6 0.150444 0.036164 0.830332
Si Si7 0.398851 0.125000 0.125000
Si Si8 0.310036 0.541329 0.877529
O O1 0.375000 0.875000 0.953003
O O2 0.479673 0.887788 0.979034
O O3 0.430204 0.006863 0.932076
O O4 0.399825 0.977645 0.022770
O O5 0.283447 0.285560 0.344043
O O6 0.214492 0.212244 0.401223
O O7 0.302928 0.135864 0.366236
O O8 0.250000 0.500000 0.750000
O O9 0.136198 0.499971 0.730196
O O10 0.192746 0.630031 0.719681
O O11 0.220659 0.509956 0.664084
O O12 0.936604 0.114789 0.672155
O O13 0.965289 0.997424 0.727545
O O14 0.038258 0.769038 0.569385
O O15 0.125000 0.125000 0.843470
O O16 0.117115 0.960903 0.859193
O O17 0.375000 0.512993 0.875000
#
# Coordination Sequence:
#
# PCOD8286308 Si02
#       8
#    32  32  32  32  32  32  16  32
#     4  11  23  38  67  97 136 171 220 279 344 414
#     4  11  22  39  63  92 137 168 219 275 332 410
#     4  10  21  44  65  98 128 164 222 282 332 398
#     4  11  21  40  62  96 128 176 216 266 341 413
#     4  10  22  40  70  90 129 176 215 276 339 393
#     4  10  22  42  64  93 129 185 228 278 343 410
#     4  10  22  42  63  90 134 174 227 280 334 412
#     4  10  22  38  63  95 125 171 216 267 331 395
#
# _framework density 22.328614999999999
#
# number of rings (size 3 to 8) (size 9 to 14) (size 15 to 20)
#    0.000    1.600    2.667    2.400    3.733    2.133 
#   14.400    1.333    0.000    0.000    0.000    0.000 
#    0.000    0.000    0.000    0.000    0.000    0.000 
#
# Total GULP energy -743494.953226 kJ/mol
# GULP energy per Si atom -12391.582554 kJ/mol
# Density = 2.227779 g / cm^3
# Si number density = 22.328615 Si / 1000 Ang^3
#
#
#
# Elastic Constant Matrix: (Units=GPa)
#
#
# Indices 1 2 3 4 5 6 
#
# 1 41.2115 20.8353 34.8330 0.0000 0.0000 0.0000
# 2 20.8353 127.3892 55.7752 0.0000 0.0000 0.0000
# 3 34.8330 55.7752 113.2298 0.0000 0.0000 0.0000
# 4 0.0000 0.0000 0.0000 47.6972 0.0000 0.0000
# 5 0.0000 0.0000 0.0000 0.0000 81.2749 0.0000
# 6 0.0000 0.0000 0.0000 0.0000 0.0000 32.6834
#
#
#
# Elastic Compliance Matrix: (Units=1/GPa)
#
#
# Indices 1 2 3 4 5 6 
#
# 1 0.032938 -0.001212 -0.009536 0.000000 0.000000 0.000000
# 2 -0.001212 0.010053 -0.004579 0.000000 0.000000 0.000000
# 3 -0.009536 -0.004579 0.014021 0.000000 0.000000 0.000000
# 4 0.000000 0.000000 0.000000 0.020966 0.000000 0.000000
# 5 0.000000 0.000000 0.000000 0.000000 0.012304 0.000000
# 6 0.000000 0.000000 0.000000 0.000000 0.000000 0.030597
#
#
# Mechanical properties :
#
#
# Convention : Reuss Voigt Hill
#
# Bulk Modulus (GPa) = 37.93959 56.07972 47.00965
# Shear Modulus (GPa) = 31.18822 43.69023 37.43923
#
# Velocity S-wave (km/s) = 3.74141 4.42825 4.09924
# Velocity P-wave (km/s) = 5.97432 7.16352 6.59578
#
# Compressibility (1/GPa) = 0.02635769
#
# Stress axis : x y z
#
# Youngs Moduli (GPa) = 30.36043 99.47185 71.32353
#
# Poissons Ratio (x) = 0.12058 0.68011
# Poissons Ratio (y) = 0.03680 0.32660
# Poissons Ratio (z) = 0.28950 0.45549
#
# Static dielectric constant tensor:
#      x y z
#    x 3.903900 0.000000 0.000000 
#    y 0.000000 4.134900 0.000000 
#    z 0.000000 0.000000 4.274550 
# 
# 
# High freq. dielectric constant tensor:
#      x y z
#    x 1.851610 0.000000 0.000000 
#    y 0.000000 1.892560 0.000000 
#    z 0.000000 0.000000 1.886760 
# 
# From -- ./inp_files/61868.got.cif
#   From: 2010.03.12/outbox.cif.g09.slc.cpg/sg70_31_cif.got.tgz:61868.got - 2010.04.16 13:46:32.
