data_PCOD8286106
_publ_section_title
;
Structure prediction by ZEFSAII (Michael W. Deem and Ramdas Pophale) SiO2 
 PCOD8286106
Probable space group: F D D D
;
_chemical_formula_sum "Si O2"
_cell_formula_units_Z 240
_cell_length_a 31.193068
_cell_length_b 26.391047
_cell_length_c 14.378161
_cell_angle_alpha 90.000000
_cell_angle_beta 90.000000
_cell_angle_gamma 90.000000
_cell_volume 11836.356969
_symmetry_space_group_name_H-M "F D D D"
_symmetry_group_IT_number 70
_space_group.IT_coordinate_system_code '2'
_symmetry_cell_setting 'orthorhombic'
loop_
_space_group_symop_operation_xyz
x,y,z
1/4-x,1/4-y,z
x,1/4-y,1/4-z
1/4-x,y,1/4-z
-x,-y,-z
3/4+x,3/4+y,-z
-x,3/4+y,3/4+z
3/4+x,-y,3/4+z
x,1/2+y,1/2+z
1/4-x,3/4-y,1/2+z
x,3/4-y,3/4-z
1/4-x,1/2+y,3/4-z
-x,1/2-y,1/2-z
3/4+x,1/4+y,1/2-z
-x,1/4+y,1/4+z
3/4+x,1/2-y,1/4+z
1/2+x,y,1/2+z
3/4-x,1/4-y,1/2+z
1/2+x,1/4-y,3/4-z
3/4-x,y,3/4-z
1/2-x,-y,1/2-z
1/4+x,3/4+y,1/2-z
1/2-x,3/4+y,1/4+z
1/4+x,-y,1/4+z
1/2+x,1/2+y,z
3/4-x,3/4-y,z
1/2+x,3/4-y,1/4-z
3/4-x,1/2+y,1/4-z
1/2-x,1/2-y,-z
1/4+x,1/4+y,-z
1/2-x,1/4+y,3/4+z
1/4+x,1/2-y,3/4+z
loop_
_atom_site_type_symbol
_atom_site_label
_atom_site_fract_x
_atom_site_fract_y
_atom_site_fract_z
Si Si1 0.742057 0.315322 0.710144
Si Si2 0.550393 0.021489 0.822871
Si Si3 0.530740 0.837766 0.594258
Si Si4 0.267664 0.125000 0.625000
Si Si5 0.208092 0.239955 0.937505
Si Si6 0.179259 0.954518 0.766460
Si Si7 0.088787 0.324254 0.421472
Si Si8 0.381037 0.315507 0.770806
O O1 0.708384 0.273821 0.749029
O O2 0.720689 0.355948 0.639408
O O3 0.761487 0.342687 0.803057
O O4 0.780114 0.286145 0.660050
O O5 0.516535 0.067053 0.820714
O O6 0.597251 0.040948 0.798579
O O7 0.551652 0.003153 0.930152
O O8 0.556474 0.797007 0.658414
O O9 0.553934 0.841473 0.496267
O O10 0.299740 0.094521 0.689345
O O11 0.182708 0.290776 0.910394
O O12 0.250000 0.250000 0.000000
O O13 0.178735 0.200646 0.992798
O O14 0.127908 0.954270 0.777890
O O15 0.107105 0.375000 0.375000
O O16 0.375000 0.295428 0.875000
O O17 0.375000 0.375000 0.765167
#
# Coordination Sequence:
#
# PCOD8286106 Si02
#       8
#    32  32  32  16  32  32  32  32
#     4  10  21  40  64  94 127 167 211 266 323 385
#     4  11  21  42  64  94 127 169 221 261 327 396
#     4  11  23  39  65  95 125 167 216 274 325 395
#     4   8  18  36  64  88 121 160 214 255 310 396
#     4  12  24  43  64  93 133 169 216 270 330 389
#     4  10  20  39  62  90 123 167 211 265 328 383
#     4  12  24  40  62  95 132 165 212 276 331 391
#     4  11  25  42  66  93 130 176 218 264 322 406
#
# _framework density 20.276509000000001
#
# number of rings (size 3 to 8) (size 9 to 14) (size 15 to 20)
#    0.000    1.200    3.333    3.200    0.000    0.000 
#    0.000    1.333    0.000    0.000    0.000    0.000 
#    0.000    0.000    0.000    0.000    0.000    0.000 
#
# Total GULP energy -743810.130330 kJ/mol
# GULP energy per Si atom -12396.835505 kJ/mol
# Density = 2.023036 g / cm^3
# Si number density = 20.276509 Si / 1000 Ang^3
#
#
#
# Elastic Constant Matrix: (Units=GPa)
#
#
# Indices 1 2 3 4 5 6 
#
# 1 104.0393 24.5634 23.3504 0.0000 0.0000 0.0000
# 2 24.5634 69.7876 21.5221 0.0000 0.0000 0.0000
# 3 23.3504 21.5221 74.9060 0.0001 -0.0001 0.0000
# 4 0.0000 0.0000 0.0001 22.6642 -0.0001 0.0000
# 5 0.0000 0.0000 -0.0001 -0.0001 33.7773 0.0000
# 6 0.0000 0.0000 0.0000 0.0000 0.0000 24.6965
#
#
#
# Elastic Compliance Matrix: (Units=1/GPa)
#
#
# Indices 1 2 3 4 5 6 
#
# 1 0.010899 -0.003060 -0.002519 0.000000 0.000000 0.000000
# 2 -0.003060 0.016581 -0.003810 0.000000 0.000000 0.000000
# 3 -0.002519 -0.003810 0.015230 0.000000 0.000000 0.000000
# 4 0.000000 0.000000 0.000000 0.044122 0.000000 0.000000
# 5 0.000000 0.000000 0.000000 0.000000 0.029606 0.000000
# 6 0.000000 0.000000 0.000000 0.000000 0.000000 0.040492
#
#
# Mechanical properties :
#
#
# Convention : Reuss Voigt Hill
#
# Bulk Modulus (GPa) = 41.78246 43.06721 42.42483
# Shear Modulus (GPa) = 27.22049 28.18072 27.70061
#
# Velocity S-wave (km/s) = 3.66794 3.73208 3.70015
# Velocity P-wave (km/s) = 6.21204 6.31326 6.26285
#
# Compressibility (1/GPa) = 0.02393349
#
# Stress axis : x y z
#
# Youngs Moduli (GPa) = 91.74839 60.30932 65.65994
#
# Poissons Ratio (x) = 0.18452 0.16537
# Poissons Ratio (y) = 0.28071 0.25019
# Poissons Ratio (z) = 0.23108 0.22980
#
# Static dielectric constant tensor:
#      x y z
#    x 3.489060 0.000000 0.000000 
#    y 0.000000 3.848130 0.000000 
#    z 0.000000 0.000000 4.063540 
# 
# 
# High freq. dielectric constant tensor:
#      x y z
#    x 1.777600 0.000000 0.000000 
#    y 0.000000 1.794160 0.000000 
#    z 0.000000 0.000000 1.805140 
# 
# From -- ./inp_files/31363.got.cif
#   From: 2010.03.12/outbox.cif.g09.slc.cpg/sg70_16_cif.got.tgz:31363.got - 2010.04.16 13:46:32.
