data_PCOD8286490
_publ_section_title
;
Structure prediction by ZEFSAII (Michael W. Deem and Ramdas Pophale) SiO2 
 PCOD8286490
Probable space group: F D D D
;
_chemical_formula_sum "Si O2"
_cell_formula_units_Z 216
_cell_length_a 14.768935
_cell_length_b 27.382414
_cell_length_c 24.693473
_cell_angle_alpha 90.000000
_cell_angle_beta 90.000000
_cell_angle_gamma 90.000000
_cell_volume 9986.265007
_symmetry_space_group_name_H-M "F D D D"
_symmetry_group_IT_number 70
_space_group.IT_coordinate_system_code '2'
_symmetry_cell_setting 'orthorhombic'
loop_
_space_group_symop_operation_xyz
x,y,z
1/4-x,1/4-y,z
x,1/4-y,1/4-z
1/4-x,y,1/4-z
-x,-y,-z
3/4+x,3/4+y,-z
-x,3/4+y,3/4+z
3/4+x,-y,3/4+z
x,1/2+y,1/2+z
1/4-x,3/4-y,1/2+z
x,3/4-y,3/4-z
1/4-x,1/2+y,3/4-z
-x,1/2-y,1/2-z
3/4+x,1/4+y,1/2-z
-x,1/4+y,1/4+z
3/4+x,1/2-y,1/4+z
1/2+x,y,1/2+z
3/4-x,1/4-y,1/2+z
1/2+x,1/4-y,3/4-z
3/4-x,y,3/4-z
1/2-x,-y,1/2-z
1/4+x,3/4+y,1/2-z
1/2-x,3/4+y,1/4+z
1/4+x,-y,1/4+z
1/2+x,1/2+y,z
3/4-x,3/4-y,z
1/2+x,3/4-y,1/4-z
3/4-x,1/2+y,1/4-z
1/2-x,1/2-y,-z
1/4+x,1/4+y,-z
1/2-x,1/4+y,3/4+z
1/4+x,1/2-y,3/4+z
loop_
_atom_site_type_symbol
_atom_site_label
_atom_site_fract_x
_atom_site_fract_y
_atom_site_fract_z
Si Si1 0.230060 0.814104 0.812839
Si Si2 0.601073 0.392994 0.682997
Si Si3 0.125000 0.125000 0.625000
Si Si4 0.281333 0.894467 0.040480
Si Si5 0.230940 0.192284 0.902010
Si Si6 0.539287 0.709160 0.093537
Si Si7 0.337425 0.125000 0.125000
Si Si8 0.193127 0.038367 0.968440
O O1 0.316761 0.836965 0.841047
O O2 0.248229 0.812515 0.748491
O O3 0.144396 0.846578 0.829540
O O4 0.213756 0.756737 0.822669
O O5 0.625000 0.416387 0.625000
O O6 0.698214 0.394506 0.713549
O O7 0.568291 0.336080 0.676526
O O8 0.523992 0.423035 0.713133
O O9 0.375000 0.875000 0.015635
O O10 0.303585 0.911496 0.100825
O O11 0.255494 0.245897 0.880737
O O12 0.153072 0.191034 0.947804
O O13 0.625000 0.687386 0.125000
O O14 0.467851 0.665198 0.091492
O O15 0.564731 0.724684 0.032160
#
# Coordination Sequence:
#
# PCOD8286490 Si02
#       8
#    32  32   8  32  32  32  16  32
#     4  11  23  42  69  94 141 180 229 278 336 410
#     4  10  23  42  70 100 137 173 226 281 343 399
#     4  10  24  44  62  96 138 192 226 272 346 404
#     4  11  21  42  67  99 136 180 224 277 342 405
#     4  11  23  44  69 100 138 180 225 285 346 406
#     4  12  26  44  68 102 139 182 231 280 344 418
#     4  11  25  47  65  98 142 186 221 285 343 407
#     4  12  25  44  72 104 136 178 232 288 343 405
#
# _framework density 21.629708000000001
#
# number of rings (size 3 to 8) (size 9 to 14) (size 15 to 20)
#    0.000    0.889    3.704    4.667    1.037    4.148 
#    0.000    0.741    0.000    0.000    0.000    0.000 
#    0.000    0.000    0.000    0.000    0.000    0.000 
#
# Total GULP energy -669132.512606 kJ/mol
# GULP energy per Si atom -12391.342826 kJ/mol
# Density = 2.158048 g / cm^3
# Si number density = 21.629708 Si / 1000 Ang^3
#
#
#
# Elastic Constant Matrix: (Units=GPa)
#
#
# Indices 1 2 3 4 5 6 
#
# 1 146.8304 47.3545 51.3094 0.0000 0.0000 0.0000
# 2 47.3545 109.5265 27.6526 0.0000 0.0000 0.0000
# 3 51.3094 27.6526 98.2333 0.0000 0.0000 0.0000
# 4 0.0000 0.0000 0.0000 22.1982 0.0000 0.0000
# 5 0.0000 0.0000 0.0000 0.0000 19.1422 0.0000
# 6 0.0000 0.0000 0.0000 0.0000 0.0000 26.5846
#
#
#
# Elastic Compliance Matrix: (Units=1/GPa)
#
#
# Indices 1 2 3 4 5 6 
#
# 1 0.009142 -0.002957 -0.003943 0.000000 0.000000 0.000000
# 2 -0.002957 0.010785 -0.001491 0.000000 0.000000 0.000000
# 3 -0.003943 -0.001491 0.012659 0.000000 0.000000 0.000000
# 4 0.000000 0.000000 0.000000 0.045049 0.000000 0.000000
# 5 0.000000 0.000000 0.000000 0.000000 0.052241 0.000000
# 6 0.000000 0.000000 0.000000 0.000000 0.000000 0.037616
#
#
# Mechanical properties :
#
#
# Convention : Reuss Voigt Hill
#
# Bulk Modulus (GPa) = 63.27590 67.46925 65.37258
# Shear Modulus (GPa) = 26.37938 28.80325 27.59132
#
# Velocity S-wave (km/s) = 3.49605 3.65314 3.57546
# Velocity P-wave (km/s) = 6.75383 7.00389 6.88000
#
# Compressibility (1/GPa) = 0.01580380
#
# Stress axis : x y z
#
# Youngs Moduli (GPa) = 109.38457 92.71859 78.99506
#
# Poissons Ratio (x) = 0.27419 0.31145
# Poissons Ratio (y) = 0.32347 0.11782
# Poissons Ratio (z) = 0.43127 0.13828
#
# Static dielectric constant tensor:
#      x y z
#    x 4.014670 0.000000 0.000000 
#    y 0.000000 3.729670 0.000000 
#    z 0.000000 0.000000 3.846240 
# 
# 
# High freq. dielectric constant tensor:
#      x y z
#    x 1.864150 0.000000 0.000000 
#    y 0.000000 1.838690 0.000000 
#    z 0.000000 0.000000 1.851980 
# 
# From -- ./inp_files/58805.got.cif
#   From: 2010.03.12/outbox.cif.g09.slc.cpg/sg70_30_cif.got.tgz:58805.got - 2010.04.16 13:46:32.
