data_PCOD8286869
_publ_section_title
;
Structure prediction by ZEFSAII (Michael W. Deem and Ramdas Pophale) SiO2 
 PCOD8286869
Probable space group: I M M M
;
_chemical_formula_sum "Si O2"
_cell_formula_units_Z 120
_cell_length_a 20.317096
_cell_length_b 25.826922
_cell_length_c 13.970330
_cell_angle_alpha 90.000000
_cell_angle_beta 90.000000
_cell_angle_gamma 90.000000
_cell_volume 7330.624070
_symmetry_space_group_name_H-M "I M M M"
_symmetry_group_IT_number 71
_symmetry_cell_setting 'orthorhombic'
loop_
_space_group_symop_operation_xyz
x,y,z
-x,-y,z
x,-y,-z
-x,y,-z
-x,-y,-z
x,y,-z
-x,y,z
x,-y,z
1/2+x,1/2+y,1/2+z
1/2-x,1/2-y,1/2+z
1/2+x,1/2-y,1/2-z
1/2-x,1/2+y,1/2-z
1/2-x,1/2-y,1/2-z
1/2+x,1/2+y,1/2-z
1/2-x,1/2+y,1/2+z
1/2+x,1/2-y,1/2+z
loop_
_atom_site_type_symbol
_atom_site_label
_atom_site_fract_x
_atom_site_fract_y
_atom_site_fract_z
Si Si1 0.835740 0.860246 0.612133
Si Si2 0.121695 0.256591 0.395069
Si Si3 0.739170 0.268898 0.642962
Si Si4 0.078075 0.000000 0.892299
Si Si5 0.072401 0.701618 0.204598
Si Si6 0.808429 0.338447 0.896303
Si Si7 0.106333 0.808704 0.110679
Si Si8 0.574115 0.595783 0.732932
O O1 0.843846 0.873354 0.500000
O O2 0.862480 0.802583 0.634082
O O3 0.758351 0.866086 0.642782
O O4 0.878739 0.899915 0.674456
O O5 0.087866 0.259866 0.500000
O O6 0.191174 0.287624 0.399012
O O7 0.075674 0.282748 0.316282
O O8 0.750000 0.250000 0.750000
O O9 0.711043 0.220914 0.582812
O O10 0.684762 0.314012 0.633698
O O11 0.102448 0.050490 0.834718
O O12 0.000000 0.000000 0.899982
O O13 0.108229 0.000000 0.000000
O O14 0.129259 0.659572 0.176799
O O15 0.079954 0.752342 0.139807
O O16 0.000000 0.677307 0.186877
O O17 0.829097 0.361970 0.000000
O O18 0.069838 0.851765 0.172121
O O19 0.090534 0.818543 0.000000
O O20 0.500000 0.583100 0.768741
#
# Coordination Sequence:
#
# PCOD8286869 Si02
#       8
#    16  16  16   8  16  16  16  16
#     4   9  18  32  49  66  85 112 147 186 225 264
#     4  10  18  28  41  57  83 117 150 185 227 267
#     4  10  14  26  42  57  80 107 141 184 223 258
#     4   9  20  38  53  65  89 121 143 168 222 288
#     4  11  20  28  39  60  88 120 155 190 222 253
#     4   9  17  29  43  59  84 117 146 179 224 265
#     4  11  20  28  42  63  84 107 145 193 228 253
#     4  11  21  33  49  68  87 112 145 182 223 268
#
# _framework density 16.369683999999999
#
# number of rings (size 3 to 8) (size 9 to 14) (size 15 to 20)
#    0.000    1.933    4.000    4.800    0.000    2.933 
#    0.000    1.667    0.000    1.200    0.000    0.000 
#    0.000    0.000    0.000    0.600    0.000    5.467 
#
# Total GULP energy -743473.746338 kJ/mol
# GULP energy per Si atom -12391.229106 kJ/mol
# Density = 1.633243 g / cm^3
# Si number density = 16.369684 Si / 1000 Ang^3
#
#
#
# Elastic Constant Matrix: (Units=GPa)
#
#
# Indices 1 2 3 4 5 6 
#
# 1 100.4638 21.1366 43.7024 0.0000 0.0000 0.0000
# 2 21.1366 27.7452 18.3447 0.0000 0.0000 0.0000
# 3 43.7024 18.3447 112.6059 0.0000 0.0000 0.0000
# 4 0.0000 0.0000 0.0000 18.0334 0.0000 0.0000
# 5 0.0000 0.0000 0.0000 0.0000 15.8323 0.0000
# 6 0.0000 0.0000 0.0000 0.0000 0.0000 10.7173
#
#
#
# Elastic Compliance Matrix: (Units=1/GPa)
#
#
# Indices 1 2 3 4 5 6 
#
# 1 0.013233 -0.007493 -0.003915 0.000000 0.000000 0.000000
# 2 -0.007493 0.044636 -0.004364 0.000000 0.000000 0.000000
# 3 -0.003915 -0.004364 0.011111 0.000000 0.000000 0.000000
# 4 0.000000 0.000000 0.000000 0.055453 0.000000 0.000000
# 5 0.000000 0.000000 0.000000 0.000000 0.063162 0.000000
# 6 0.000000 0.000000 0.000000 0.000000 0.000000 0.093307
#
#
# Mechanical properties :
#
#
# Convention : Reuss Voigt Hill
#
# Bulk Modulus (GPa) = 26.71180 45.24247 35.97714
# Shear Modulus (GPa) = 15.38823 19.42535 17.40679
#
# Velocity S-wave (km/s) = 3.06934 3.44854 3.26445
# Velocity P-wave (km/s) = 5.37721 6.59959 6.01951
#
# Compressibility (1/GPa) = 0.03743663
#
# Stress axis : x y z
#
# Youngs Moduli (GPa) = 75.56662 22.40369 90.00148
#
# Poissons Ratio (x) = 0.16786 0.35238
# Poissons Ratio (y) = 0.56619 0.39274
# Poissons Ratio (z) = 0.29586 0.09776
#
# Static dielectric constant tensor:
#      x y z
#    x 3.289060 0.000000 0.000000 
#    y 0.000000 2.532020 0.000000 
#    z 0.000000 0.000000 3.325270 
# 
# 
# High freq. dielectric constant tensor:
#      x y z
#    x 1.629480 0.000000 0.000000 
#    y 0.000000 1.537650 0.000000 
#    z 0.000000 0.000000 1.651160 
# 
# From -- ./inp_files/38573.got.cif
#   From: 2010.06.25/outbox.cif.g09.slc.cpg/sg71_20_cif.got.tgz:38573.got - 2010.06.28 04:59:45.
