data_PCOD8286940
_publ_section_title
;
Structure prediction by ZEFSAII (Michael W. Deem and Ramdas Pophale) SiO2 
 PCOD8286940
Probable space group: I M M M
;
_chemical_formula_sum "Si O2"
_cell_formula_units_Z 96
_cell_length_a 28.858250
_cell_length_b 9.200196
_cell_length_c 28.220779
_cell_angle_alpha 90.000000
_cell_angle_beta 90.000000
_cell_angle_gamma 90.000000
_cell_volume 7492.660742
_symmetry_space_group_name_H-M "I M M M"
_symmetry_group_IT_number 71
_symmetry_cell_setting 'orthorhombic'
loop_
_space_group_symop_operation_xyz
x,y,z
-x,-y,z
x,-y,-z
-x,y,-z
-x,-y,-z
x,y,-z
-x,y,z
x,-y,z
1/2+x,1/2+y,1/2+z
1/2-x,1/2-y,1/2+z
1/2+x,1/2-y,1/2-z
1/2-x,1/2+y,1/2-z
1/2-x,1/2-y,1/2-z
1/2+x,1/2+y,1/2-z
1/2-x,1/2+y,1/2+z
1/2+x,1/2-y,1/2+z
loop_
_atom_site_type_symbol
_atom_site_label
_atom_site_fract_x
_atom_site_fract_y
_atom_site_fract_z
Si Si1 0.284887 0.831574 0.602703
Si Si2 0.808584 0.334541 0.000000
Si Si3 0.903776 0.826996 0.000000
Si Si4 0.224024 0.838517 0.684456
Si Si5 0.551301 0.671838 0.403714
Si Si6 0.363542 0.672059 0.341988
Si Si7 0.679508 0.837118 0.739732
O O1 0.277265 0.805868 0.546670
O O2 0.237210 0.790843 0.630595
O O3 0.326901 0.731682 0.620052
O O4 0.297310 0.000000 0.614261
O O5 0.851630 0.228102 0.000000
O O6 0.827065 0.500000 0.000000
O O7 0.930076 0.765942 0.046315
O O8 0.901687 0.000000 0.000000
O O9 0.271946 0.834784 0.712962
O O10 0.186479 0.731382 0.707899
O O11 0.202597 0.000000 0.685684
O O12 0.500000 0.735816 0.393409
O O13 0.548864 0.500000 0.408340
O O14 0.585446 0.714841 0.360807
O O15 0.356528 0.500000 0.337491
O O16 0.357397 0.743918 0.290339
O O17 0.660471 0.000000 0.746008
#
# Coordination Sequence:
#
# PCOD8286940 Si02
#       7
#    16   8   8  16  16  16  16
#     4   9  17  27  38  51  70  92 112 138 172 208
#     4  10  18  27  39  53  72  94 114 142 181 217
#     4  10  17  28  42  54  64  84 118 152 184 217
#     4   8  14  24  36  51  68  87 110 133 160 198
#     4   9  17  27  39  54  69  86 113 150 186 217
#     4  10  17  25  39  54  67  85 111 142 175 212
#     4   9  16  25  37  52  70  87 104 130 169 210
#
# _framework density 12.812537000000001
#
# number of rings (size 3 to 8) (size 9 to 14) (size 15 to 20)
#    0.000    2.833    1.667    2.250    0.000    5.000 
#    0.000    0.000    0.000    5.000    0.000    0.000 
#    0.000    0.000    0.000    0.000    0.000    0.000 
#
# Total GULP energy -594875.609810 kJ/mol
# GULP energy per Si atom -12393.241871 kJ/mol
# Density = 1.278338 g / cm^3
# Si number density = 12.812537 Si / 1000 Ang^3
#
#
#
# Elastic Constant Matrix: (Units=GPa)
#
#
# Indices 1 2 3 4 5 6 
#
# 1 44.9770 26.7004 53.0017 0.0000 0.0000 0.0000
# 2 26.7004 57.9786 39.3320 0.0000 0.0000 0.0000
# 3 53.0017 39.3320 102.1390 0.0000 0.0000 0.0000
# 4 0.0000 0.0000 0.0000 15.2665 0.0000 0.0000
# 5 0.0000 0.0000 0.0000 0.0000 16.8379 0.0000
# 6 0.0000 0.0000 0.0000 0.0000 0.0000 9.2544
#
#
#
# Elastic Compliance Matrix: (Units=1/GPa)
#
#
# Indices 1 2 3 4 5 6 
#
# 1 0.060424 -0.008874 -0.027938 0.000000 0.000000 0.000000
# 2 -0.008874 0.024650 -0.004888 0.000000 0.000000 0.000000
# 3 -0.027938 -0.004888 0.026170 0.000000 0.000000 0.000000
# 4 0.000000 0.000000 0.000000 0.065503 0.000000 0.000000
# 5 0.000000 0.000000 0.000000 0.000000 0.059390 0.000000
# 6 0.000000 0.000000 0.000000 0.000000 0.000000 0.108057
#
#
# Mechanical properties :
#
#
# Convention : Reuss Voigt Hill
#
# Bulk Modulus (GPa) = 35.91223 49.24032 42.57627
# Shear Modulus (GPa) = 11.44494 14.00913 12.72704
#
# Velocity S-wave (km/s) = 2.99199 3.31024 3.15513
# Velocity P-wave (km/s) = 6.32660 7.28869 6.82462
#
# Compressibility (1/GPa) = 0.02784567
#
# Stress axis : x y z
#
# Youngs Moduli (GPa) = 16.54965 40.56798 38.21138
#
# Poissons Ratio (x) = 0.35999 1.06755
# Poissons Ratio (y) = 0.14686 0.18676
# Poissons Ratio (z) = 0.46236 0.19828
#
# Static dielectric constant tensor:
#      x y z
#    x 2.396000 0.000000 0.000000 
#    y 0.000000 2.625200 0.000000 
#    z 0.000000 0.000000 2.822060 
# 
# 
# High freq. dielectric constant tensor:
#      x y z
#    x 1.433230 0.000000 0.000000 
#    y 0.000000 1.487100 0.000000 
#    z 0.000000 0.000000 1.481320 
# 
# From -- ./inp_files/17542.got.cif
#   From: 2010.06.25/outbox.cif.g09.slc.cpg/sg71_9_cif.got.tgz:17542.got - 2010.06.28 04:59:45.
