data_PCOD8286466
_publ_section_title
;
Structure prediction by ZEFSAII (Michael W. Deem and Ramdas Pophale) SiO2 
 PCOD8286466
Probable space group: F D D D
;
_chemical_formula_sum "Si O2"
_cell_formula_units_Z 192
_cell_length_a 20.838405
_cell_length_b 18.832804
_cell_length_c 22.072722
_cell_angle_alpha 90.000000
_cell_angle_beta 90.000000
_cell_angle_gamma 90.000000
_cell_volume 8662.342564
_symmetry_space_group_name_H-M "F D D D"
_symmetry_group_IT_number 70
_space_group.IT_coordinate_system_code '2'
_symmetry_cell_setting 'orthorhombic'
loop_
_space_group_symop_operation_xyz
x,y,z
1/4-x,1/4-y,z
x,1/4-y,1/4-z
1/4-x,y,1/4-z
-x,-y,-z
3/4+x,3/4+y,-z
-x,3/4+y,3/4+z
3/4+x,-y,3/4+z
x,1/2+y,1/2+z
1/4-x,3/4-y,1/2+z
x,3/4-y,3/4-z
1/4-x,1/2+y,3/4-z
-x,1/2-y,1/2-z
3/4+x,1/4+y,1/2-z
-x,1/4+y,1/4+z
3/4+x,1/2-y,1/4+z
1/2+x,y,1/2+z
3/4-x,1/4-y,1/2+z
1/2+x,1/4-y,3/4-z
3/4-x,y,3/4-z
1/2-x,-y,1/2-z
1/4+x,3/4+y,1/2-z
1/2-x,3/4+y,1/4+z
1/4+x,-y,1/4+z
1/2+x,1/2+y,z
3/4-x,3/4-y,z
1/2+x,3/4-y,1/4-z
3/4-x,1/2+y,1/4-z
1/2-x,1/2-y,-z
1/4+x,1/4+y,-z
1/2-x,1/4+y,3/4+z
1/4+x,1/2-y,3/4+z
loop_
_atom_site_type_symbol
_atom_site_label
_atom_site_fract_x
_atom_site_fract_y
_atom_site_fract_z
Si Si1 0.489305 0.001588 0.780976
Si Si2 0.959570 0.522553 0.424434
Si Si3 0.670772 0.918221 0.547017
Si Si4 0.239562 0.951054 0.843349
Si Si5 0.906660 0.237374 0.764728
Si Si6 0.801611 0.393849 0.251787
O O1 0.415750 0.985140 0.765389
O O2 0.510241 0.072369 0.745770
O O3 0.532926 0.935612 0.759081
O O4 0.499804 0.008932 0.853198
O O5 0.901048 0.553857 0.464846
O O6 0.950353 0.542247 0.354977
O O7 0.957940 0.437100 0.434969
O O8 0.026365 0.555414 0.447680
O O9 0.666368 0.833823 0.554735
O O10 0.234189 0.875000 0.875000
O O11 0.176352 0.972737 0.805217
O O12 0.299563 0.952598 0.796533
O O13 0.875000 0.375000 0.238945
#
# Coordination Sequence:
#
# PCOD8286466 Si02
#       6
#    32  32  32  32  32  32
#     4  12  24  42  70 102 138 185 230 295 350 417
#     4  10  23  40  65  92 134 186 229 280 343 421
#     4  11  22  44  66  99 137 182 235 277 352 423
#     4  11  25  48  73 101 142 180 236 290 354 431
#     4  11  25  46  72 104 140 185 230 293 357 423
#     4  11  22  40  63  97 131 178 233 283 344 407
#
# _framework density 22.164905000000001
#
# number of rings (size 3 to 8) (size 9 to 14) (size 15 to 20)
#    0.000    1.000    5.000    1.500    2.333    3.333 
#    3.000    0.000    0.000    0.000    0.000    0.000 
#    0.000    0.000    0.000    0.000    0.000    0.000 
#
# Total GULP energy -595243.733639 kJ/mol
# GULP energy per Si atom -12400.911117 kJ/mol
# Density = 2.211446 g / cm^3
# Si number density = 22.164905 Si / 1000 Ang^3
#
#
#
# Elastic Constant Matrix: (Units=GPa)
#
#
# Indices 1 2 3 4 5 6 
#
# 1 117.5923 15.4060 54.5591 0.0000 0.0000 0.0000
# 2 15.4060 56.9106 21.0188 0.0000 0.0000 0.0000
# 3 54.5591 21.0188 107.7931 0.0000 0.0000 0.0000
# 4 0.0000 0.0000 0.0000 37.6411 0.0000 0.0000
# 5 0.0000 0.0000 0.0000 0.0000 29.0530 0.0000
# 6 0.0000 0.0000 0.0000 0.0000 0.0000 35.0872
#
#
#
# Elastic Compliance Matrix: (Units=1/GPa)
#
#
# Indices 1 2 3 4 5 6 
#
# 1 0.011167 -0.001008 -0.005456 0.000000 0.000000 0.000000
# 2 -0.001008 0.019026 -0.003200 0.000000 0.000000 0.000000
# 3 -0.005456 -0.003200 0.012662 0.000000 0.000000 0.000000
# 4 0.000000 0.000000 0.000000 0.026567 0.000000 0.000000
# 5 0.000000 0.000000 0.000000 0.000000 0.034420 0.000000
# 6 0.000000 0.000000 0.000000 0.000000 0.000000 0.028500
#
#
# Mechanical properties :
#
#
# Convention : Reuss Voigt Hill
#
# Bulk Modulus (GPa) = 42.50127 51.58485 47.04306
# Shear Modulus (GPa) = 31.34548 33.11039 32.22794
#
# Velocity S-wave (km/s) = 3.76466 3.86919 3.81728
# Velocity P-wave (km/s) = 6.17361 6.57910 6.37958
#
# Compressibility (1/GPa) = 0.02352871
#
# Stress axis : x y z
#
# Youngs Moduli (GPa) = 89.54707 52.55952 78.97433
#
# Poissons Ratio (x) = 0.05298 0.43086
# Poissons Ratio (y) = 0.09027 0.25269
# Poissons Ratio (z) = 0.48854 0.16817
#
# Static dielectric constant tensor:
#      x y z
#    x 4.088910 0.000000 0.000000 
#    y 0.000000 4.029240 0.000000 
#    z 0.000000 0.000000 3.951400 
# 
# 
# High freq. dielectric constant tensor:
#      x y z
#    x 1.875110 0.000000 0.000000 
#    y 0.000000 1.877720 0.000000 
#    z 0.000000 0.000000 1.864250 
# 
# From -- ./inp_files/53001.got.cif
#   From: 2010.03.12/outbox.cif.g09.slc.cpg/sg70_27_cif.got.tgz:53001.got - 2010.04.16 13:46:32.
