data_PCOD8286398
_publ_section_title
;
Structure prediction by ZEFSAII (Michael W. Deem and Ramdas Pophale) SiO2 
 PCOD8286398
Probable space group: F D D D
;
_chemical_formula_sum "Si O2"
_cell_formula_units_Z 96
_cell_length_a 4.836909
_cell_length_b 34.767186
_cell_length_c 25.645617
_cell_angle_alpha 90.000000
_cell_angle_beta 90.000000
_cell_angle_gamma 90.000000
_cell_volume 4312.713516
_symmetry_space_group_name_H-M "F D D D"
_symmetry_group_IT_number 70
_space_group.IT_coordinate_system_code '2'
_symmetry_cell_setting 'orthorhombic'
loop_
_space_group_symop_operation_xyz
x,y,z
1/4-x,1/4-y,z
x,1/4-y,1/4-z
1/4-x,y,1/4-z
-x,-y,-z
3/4+x,3/4+y,-z
-x,3/4+y,3/4+z
3/4+x,-y,3/4+z
x,1/2+y,1/2+z
1/4-x,3/4-y,1/2+z
x,3/4-y,3/4-z
1/4-x,1/2+y,3/4-z
-x,1/2-y,1/2-z
3/4+x,1/4+y,1/2-z
-x,1/4+y,1/4+z
3/4+x,1/2-y,1/4+z
1/2+x,y,1/2+z
3/4-x,1/4-y,1/2+z
1/2+x,1/4-y,3/4-z
3/4-x,y,3/4-z
1/2-x,-y,1/2-z
1/4+x,3/4+y,1/2-z
1/2-x,3/4+y,1/4+z
1/4+x,-y,1/4+z
1/2+x,1/2+y,z
3/4-x,3/4-y,z
1/2+x,3/4-y,1/4-z
3/4-x,1/2+y,1/4-z
1/2-x,1/2-y,-z
1/4+x,1/4+y,-z
1/2-x,1/4+y,3/4+z
1/4+x,1/2-y,3/4+z
loop_
_atom_site_type_symbol
_atom_site_label
_atom_site_fract_x
_atom_site_fract_y
_atom_site_fract_z
Si Si1 0.625000 0.224723 0.625000
Si Si2 0.333042 0.417936 0.970249
Si Si3 0.375000 0.722532 0.875000
Si Si4 0.845045 0.332335 0.709012
O O1 0.667946 0.198663 0.675025
O O2 0.367612 0.250018 0.645158
O O3 0.375000 0.375000 0.947839
O O4 0.533176 0.426509 0.020594
O O5 0.020138 0.420272 0.988800
O O6 0.535893 0.697548 0.832228
O O7 0.875000 0.375000 0.683917
#
# Coordination Sequence:
#
# PCOD8286398 Si02
#       4
#    16  32  16  32
#     4  12  25  39  62  94 129 162 199 254 316 373
#     4  10  22  42  65  89 120 165 212 254 301 363
#     4  12  26  39  61  96 127 162 199 252 319 369
#     4  10  23  42  64  88 120 163 212 258 302 364
#
# _framework density 22.259768000000001
#
# number of rings (size 3 to 8) (size 9 to 14) (size 15 to 20)
#    0.000    1.333    0.000    4.500    0.000   13.333 
#    0.000    6.667    0.000    0.000    0.000    0.000 
#    0.000    0.000    0.000    0.000    0.000    0.000 
#
# Total GULP energy -297358.997174 kJ/mol
# GULP energy per Si atom -12389.958216 kJ/mol
# Density = 2.220910 g / cm^3
# Si number density = 22.259768 Si / 1000 Ang^3
#
#
#
# Elastic Constant Matrix: (Units=GPa)
#
#
# Indices 1 2 3 4 5 6 
#
# 1 95.7364 33.2571 2.1853 0.0000 0.0000 0.0000
# 2 33.2571 144.3730 57.0997 0.0000 0.0000 0.0000
# 3 2.1853 57.0997 62.2127 0.0000 0.0000 0.0000
# 4 0.0000 0.0000 0.0000 17.6790 0.0000 0.0000
# 5 0.0000 0.0000 0.0000 0.0000 17.6349 0.0000
# 6 0.0000 0.0000 0.0000 0.0000 0.0000 43.2069
#
#
#
# Elastic Compliance Matrix: (Units=1/GPa)
#
#
# Indices 1 2 3 4 5 6 
#
# 1 0.011759 -0.003996 0.003254 0.000000 0.000000 0.000000
# 2 -0.003996 0.012231 -0.011086 0.000000 0.000000 0.000000
# 3 0.003254 -0.011086 0.026134 0.000000 0.000000 0.000000
# 4 0.000000 0.000000 0.000000 0.056564 0.000000 0.000000
# 5 0.000000 0.000000 0.000000 0.000000 0.056706 0.000000
# 6 0.000000 0.000000 0.000000 0.000000 0.000000 0.023144
#
#
# Mechanical properties :
#
#
# Convention : Reuss Voigt Hill
#
# Bulk Modulus (GPa) = 37.77810 54.15626 45.96718
# Shear Modulus (GPa) = 22.82920 29.68948 26.25934
#
# Velocity S-wave (km/s) = 3.20594 3.65605 3.43837
# Velocity P-wave (km/s) = 5.54188 6.49648 6.03807
#
# Compressibility (1/GPa) = 0.02647036
#
# Stress axis : x y z
#
# Youngs Moduli (GPa) = 85.03986 81.75628 38.26381
#
# Poissons Ratio (x) = 0.32669 -0.12453
# Poissons Ratio (y) = 0.33982 0.42419
# Poissons Ratio (z) = -0.27676 0.90634
#
# Static dielectric constant tensor:
#      x y z
#    x 4.513570 0.000000 0.000000 
#    y 0.000000 4.601630 0.000000 
#    z 0.000000 0.000000 3.626450 
# 
# 
# High freq. dielectric constant tensor:
#      x y z
#    x 1.901400 0.000000 0.000000 
#    y 0.000000 1.896010 0.000000 
#    z 0.000000 0.000000 1.856830 
# 
# From -- ./inp_files/62889.got.cif
#   From: 2010.03.12/outbox.cif.g09.slc.cpg/sg70_32_cif.got.tgz:62889.got - 2010.04.16 13:46:32.
