data_PCOD8286326
_publ_section_title
;
Structure prediction by ZEFSAII (Michael W. Deem and Ramdas Pophale) SiO2 
 PCOD8286326
Probable space group: F D D D
;
_chemical_formula_sum "Si O2"
_cell_formula_units_Z 176
_cell_length_a 18.312907
_cell_length_b 17.717833
_cell_length_c 28.212637
_cell_angle_alpha 90.000000
_cell_angle_beta 90.000000
_cell_angle_gamma 90.000000
_cell_volume 9154.014053
_symmetry_space_group_name_H-M "F D D D"
_symmetry_group_IT_number 70
_space_group.IT_coordinate_system_code '2'
_symmetry_cell_setting 'orthorhombic'
loop_
_space_group_symop_operation_xyz
x,y,z
1/4-x,1/4-y,z
x,1/4-y,1/4-z
1/4-x,y,1/4-z
-x,-y,-z
3/4+x,3/4+y,-z
-x,3/4+y,3/4+z
3/4+x,-y,3/4+z
x,1/2+y,1/2+z
1/4-x,3/4-y,1/2+z
x,3/4-y,3/4-z
1/4-x,1/2+y,3/4-z
-x,1/2-y,1/2-z
3/4+x,1/4+y,1/2-z
-x,1/4+y,1/4+z
3/4+x,1/2-y,1/4+z
1/2+x,y,1/2+z
3/4-x,1/4-y,1/2+z
1/2+x,1/4-y,3/4-z
3/4-x,y,3/4-z
1/2-x,-y,1/2-z
1/4+x,3/4+y,1/2-z
1/2-x,3/4+y,1/4+z
1/4+x,-y,1/4+z
1/2+x,1/2+y,z
3/4-x,3/4-y,z
1/2+x,3/4-y,1/4-z
3/4-x,1/2+y,1/4-z
1/2-x,1/2-y,-z
1/4+x,1/4+y,-z
1/2-x,1/4+y,3/4+z
1/4+x,1/2-y,3/4+z
loop_
_atom_site_type_symbol
_atom_site_label
_atom_site_fract_x
_atom_site_fract_y
_atom_site_fract_z
Si Si1 0.907699 0.453615 0.237552
Si Si2 0.234808 0.375000 0.875000
Si Si3 0.382722 0.640078 0.552086
Si Si4 0.625000 0.748947 0.625000
Si Si5 0.916957 0.745017 0.830577
Si Si6 0.933960 0.658604 0.461187
Si Si7 0.256692 0.375000 0.375000
O O1 0.875000 0.375000 0.219205
O O2 0.872272 0.519730 0.205656
O O3 0.888114 0.465248 0.293127
O O4 0.995293 0.452600 0.230621
O O5 0.181679 0.398846 0.917748
O O6 0.281255 0.442983 0.854003
O O7 0.378289 0.598827 0.501538
O O8 0.459904 0.628659 0.577121
O O9 0.640948 0.799038 0.670437
O O10 0.695812 0.698747 0.616106
O O11 0.875000 0.708653 0.875000
O O12 0.959339 0.675684 0.805447
#
# Coordination Sequence:
#
# PCOD8286326 Si02
#       7
#    32  16  32  16  32  32  16
#     4  11  21  36  58  87 122 159 196 244 300 358
#     4  11  21  37  57  87 121 164 198 238 289 369
#     4  10  22  38  61  88 120 155 203 247 296 360
#     4  11  22  42  66  85 118 154 202 253 306 360
#     4  11  21  34  56  87 121 159 196 238 295 360
#     4  11  22  38  60  89 120 157 197 253 302 355
#     4  10  22  43  67  86 110 162 202 246 308 358
#
# _framework density 19.226537
#
# number of rings (size 3 to 8) (size 9 to 14) (size 15 to 20)
#    0.000    1.273    2.727    4.636    0.000    3.636 
#    0.000    0.000    0.000    0.000    0.000    0.000 
#    0.000    0.000    0.000    0.000    0.000    0.000 
#
# Total GULP energy -545352.397661 kJ/mol
# GULP energy per Si atom -12394.372674 kJ/mol
# Density = 1.918278 g / cm^3
# Si number density = 19.226537 Si / 1000 Ang^3
#
#
#
# Elastic Constant Matrix: (Units=GPa)
#
#
# Indices 1 2 3 4 5 6 
#
# 1 109.6093 52.0603 71.6999 0.0000 0.0000 0.0000
# 2 52.0603 98.6620 72.0407 0.0000 0.0000 0.0000
# 3 71.6999 72.0407 143.1134 0.0000 0.0000 0.0000
# 4 0.0000 0.0000 0.0000 28.7445 0.0000 0.0000
# 5 0.0000 0.0000 0.0000 0.0000 25.4333 0.0000
# 6 0.0000 0.0000 0.0000 0.0000 0.0000 -68.8485
#
#
#
# Elastic Compliance Matrix: (Units=1/GPa)
#
#
# Indices 1 2 3 4 5 6 
#
# 1 0.014368 -0.003677 -0.005347 0.000000 0.000000 0.000000
# 2 -0.003677 0.016967 -0.006699 0.000000 0.000000 0.000000
# 3 -0.005347 -0.006699 0.013039 0.000000 0.000000 0.000000
# 4 0.000000 0.000000 0.000000 0.034789 0.000000 0.000000
# 5 0.000000 0.000000 0.000000 0.000000 0.039319 0.000000
# 6 0.000000 0.000000 0.000000 0.000000 0.000000 -0.014525
#
#
# Mechanical properties :
#
#
# Convention : Reuss Voigt Hill
#
# Bulk Modulus (GPa) = 77.35569 82.55405 79.95487
# Shear Modulus (GPa) = 35.78811 7.43811 21.61311
#
# Velocity S-wave (km/s) = 4.31907 1.96903 3.35644
# Velocity P-wave (km/s) = 8.07425 6.94264 7.52973
#
# Compressibility (1/GPa) = 0.01292730
#
# Stress axis : x y z
#
# Youngs Moduli (GPa) = 69.60135 58.93785 76.69542
#
# Poissons Ratio (x) = 0.21670 0.41012
# Poissons Ratio (y) = 0.25590 0.51377
# Poissons Ratio (z) = 0.37218 0.39482
#
# Static dielectric constant tensor:
#      x y z
#    x 3.539740 0.000000 0.000000 
#    y 0.000000 3.552440 0.000000 
#    z 0.000000 0.000000 3.850770 
# 
# 
# High freq. dielectric constant tensor:
#      x y z
#    x 1.743230 0.000000 0.000000 
#    y 0.000000 1.745360 0.000000 
#    z 0.000000 0.000000 1.762620 
# 
# From -- ./inp_files/35288.got.cif
#   From: 2010.03.12/outbox.cif.g09.slc.cpg/sg70_18_cif.got.tgz:35288.got - 2010.04.16 13:46:32.
