data_PCOD8286593
_publ_section_title
;
Structure prediction by ZEFSAII (Michael W. Deem and Ramdas Pophale) SiO2 
 PCOD8286593
Probable space group: F D D D
;
_chemical_formula_sum "Si O2"
_cell_formula_units_Z 192
_cell_length_a 30.736449
_cell_length_b 17.664935
_cell_length_c 22.871936
_cell_angle_alpha 90.000000
_cell_angle_beta 90.000000
_cell_angle_gamma 90.000000
_cell_volume 12418.486302
_symmetry_space_group_name_H-M "F D D D"
_symmetry_group_IT_number 70
_space_group.IT_coordinate_system_code '2'
_symmetry_cell_setting 'orthorhombic'
loop_
_space_group_symop_operation_xyz
x,y,z
1/4-x,1/4-y,z
x,1/4-y,1/4-z
1/4-x,y,1/4-z
-x,-y,-z
3/4+x,3/4+y,-z
-x,3/4+y,3/4+z
3/4+x,-y,3/4+z
x,1/2+y,1/2+z
1/4-x,3/4-y,1/2+z
x,3/4-y,3/4-z
1/4-x,1/2+y,3/4-z
-x,1/2-y,1/2-z
3/4+x,1/4+y,1/2-z
-x,1/4+y,1/4+z
3/4+x,1/2-y,1/4+z
1/2+x,y,1/2+z
3/4-x,1/4-y,1/2+z
1/2+x,1/4-y,3/4-z
3/4-x,y,3/4-z
1/2-x,-y,1/2-z
1/4+x,3/4+y,1/2-z
1/2-x,3/4+y,1/4+z
1/4+x,-y,1/4+z
1/2+x,1/2+y,z
3/4-x,3/4-y,z
1/2+x,3/4-y,1/4-z
3/4-x,1/2+y,1/4-z
1/2-x,1/2-y,-z
1/4+x,1/4+y,-z
1/2-x,1/4+y,3/4+z
1/4+x,1/2-y,3/4+z
loop_
_atom_site_type_symbol
_atom_site_label
_atom_site_fract_x
_atom_site_fract_y
_atom_site_fract_z
Si Si1 0.773262 0.335243 0.286281
Si Si2 0.270509 0.491776 0.840638
Si Si3 0.572952 0.829592 0.463633
Si Si4 0.148156 0.410775 0.683143
Si Si5 0.326883 0.009362 0.152006
Si Si6 0.139519 0.203990 0.253364
O O1 0.775680 0.427221 0.290460
O O2 0.783379 0.297269 0.348675
O O3 0.725709 0.308615 0.265778
O O4 0.808171 0.302966 0.239247
O O5 0.302400 0.561606 0.826777
O O6 0.221460 0.526869 0.842524
O O7 0.602370 0.839570 0.521617
O O8 0.590432 0.767506 0.416875
O O9 0.571592 0.909027 0.430463
O O10 0.125000 0.380870 0.625000
O O11 0.120262 0.479438 0.708577
O O12 0.364779 0.962522 0.184382
O O13 0.125000 0.125000 0.223684
#
# Coordination Sequence:
#
# PCOD8286593 Si02
#       6
#    32  32  32  32  32  32
#     4   9  16  26  37  55  80 114 138 164 194 233
#     4   9  16  26  37  52  84 115 138 160 195 236
#     4   8  17  30  41  49  79 118 145 160 197 245
#     4  11  19  25  38  60  84 109 141 168 199 236
#     4   8  17  30  39  52  77 119 146 163 194 243
#     4  11  19  23  37  61  85 104 138 171 203 230
#
# _framework density 15.460820999999999
#
# number of rings (size 3 to 8) (size 9 to 14) (size 15 to 20)
#    0.000    2.667    3.333    2.000    2.333    2.333 
#    0.000    0.000    0.000    0.000    0.000    1.167 
#    0.000    0.667    0.000    0.000    0.000    0.000 
#
# Total GULP energy -594700.592192 kJ/mol
# GULP energy per Si atom -12389.595671 kJ/mol
# Density = 1.542563 g / cm^3
# Si number density = 15.460821 Si / 1000 Ang^3
#
#
#
# Elastic Constant Matrix: (Units=GPa)
#
#
# Indices 1 2 3 4 5 6 
#
# 1 81.1128 21.6409 52.9536 0.0000 0.0000 0.0000
# 2 21.6409 17.3600 19.5601 0.0000 0.0000 0.0000
# 3 52.9536 19.5601 91.0670 0.0000 0.0000 0.0000
# 4 0.0000 0.0000 0.0000 14.2190 0.0000 0.0000
# 5 0.0000 0.0000 0.0000 0.0000 23.5308 0.0000
# 6 0.0000 0.0000 0.0000 0.0000 0.0000 14.3944
#
#
#
# Elastic Compliance Matrix: (Units=1/GPa)
#
#
# Indices 1 2 3 4 5 6 
#
# 1 0.023635 -0.018441 -0.009782 0.000000 0.000000 0.000000
# 2 -0.018441 0.090384 -0.008690 0.000000 0.000000 0.000000
# 3 -0.009782 -0.008690 0.018536 0.000000 0.000000 0.000000
# 4 0.000000 0.000000 0.000000 0.070328 0.000000 0.000000
# 5 0.000000 0.000000 0.000000 0.000000 0.042498 0.000000
# 6 0.000000 0.000000 0.000000 0.000000 0.000000 0.069472
#
#
# Mechanical properties :
#
#
# Convention : Reuss Voigt Hill
#
# Bulk Modulus (GPa) = 17.02790 41.98323 29.50556
# Shear Modulus (GPa) = 12.24726 16.78784 14.51755
#
# Velocity S-wave (km/s) = 2.81757 3.29877 3.06762
# Velocity P-wave (km/s) = 4.64999 6.45931 5.62784
#
# Compressibility (1/GPa) = 0.05872716
#
# Stress axis : x y z
#
# Youngs Moduli (GPa) = 42.31042 11.06393 53.94996
#
# Poissons Ratio (x) = 0.20403 0.52775
# Poissons Ratio (y) = 0.78025 0.46884
# Poissons Ratio (z) = 0.41389 0.09615
#
# Static dielectric constant tensor:
#      x y z
#    x 3.033730 0.000000 0.000000 
#    y 0.000000 2.636340 0.000000 
#    z 0.000000 0.000000 3.142500 
# 
# 
# High freq. dielectric constant tensor:
#      x y z
#    x 1.590560 0.000000 0.000000 
#    y 0.000000 1.529380 0.000000 
#    z 0.000000 0.000000 1.578510 
# 
# From -- ./inp_files/46107.got.cif
#   From: 2010.03.12/outbox.cif.g09.slc.cpg/sg70_24_cif.got.tgz:46107.got - 2010.04.16 13:46:32.
