data_PCOD8286470
_publ_section_title
;
Structure prediction by ZEFSAII (Michael W. Deem and Ramdas Pophale) SiO2 
 PCOD8286470
Probable space group: F D D D
;
_chemical_formula_sum "Si O2"
_cell_formula_units_Z 136
_cell_length_a 17.104355
_cell_length_b 17.573420
_cell_length_c 21.608833
_cell_angle_alpha 90.000000
_cell_angle_beta 90.000000
_cell_angle_gamma 90.000000
_cell_volume 6495.226549
_symmetry_space_group_name_H-M "F D D D"
_symmetry_group_IT_number 70
_space_group.IT_coordinate_system_code '2'
_symmetry_cell_setting 'orthorhombic'
loop_
_space_group_symop_operation_xyz
x,y,z
1/4-x,1/4-y,z
x,1/4-y,1/4-z
1/4-x,y,1/4-z
-x,-y,-z
3/4+x,3/4+y,-z
-x,3/4+y,3/4+z
3/4+x,-y,3/4+z
x,1/2+y,1/2+z
1/4-x,3/4-y,1/2+z
x,3/4-y,3/4-z
1/4-x,1/2+y,3/4-z
-x,1/2-y,1/2-z
3/4+x,1/4+y,1/2-z
-x,1/4+y,1/4+z
3/4+x,1/2-y,1/4+z
1/2+x,y,1/2+z
3/4-x,1/4-y,1/2+z
1/2+x,1/4-y,3/4-z
3/4-x,y,3/4-z
1/2-x,-y,1/2-z
1/4+x,3/4+y,1/2-z
1/2-x,3/4+y,1/4+z
1/4+x,-y,1/4+z
1/2+x,1/2+y,z
3/4-x,3/4-y,z
1/2+x,3/4-y,1/4-z
3/4-x,1/2+y,1/4-z
1/2-x,1/2-y,-z
1/4+x,1/4+y,-z
1/2-x,1/4+y,3/4+z
1/4+x,1/2-y,3/4+z
loop_
_atom_site_type_symbol
_atom_site_label
_atom_site_fract_x
_atom_site_fract_y
_atom_site_fract_z
Si Si1 0.718811 0.749512 0.694929
Si Si2 0.625000 0.625000 0.625000
Si Si3 0.625000 0.625000 0.043064
Si Si4 0.987068 0.998347 0.831253
Si Si5 0.875000 0.126032 0.375000
Si Si6 0.639557 0.043761 0.825289
O O1 0.678830 0.674636 0.669190
O O2 0.711966 0.749258 0.769048
O O3 0.676498 0.825331 0.671058
O O4 0.809039 0.746818 0.674390
O O5 0.686413 0.579291 0.085543
O O6 0.665656 0.686989 0.996100
O O7 0.931450 0.071976 0.833442
O O8 0.044269 0.995449 0.890309
O O9 0.625000 0.125000 0.860171
#
# Coordination Sequence:
#
# PCOD8286470 Si02
#       6
#    32   8  16  32  16  32
#     4  10  23  41  60  92 125 155 204 260 301 359
#     4  10  24  38  60  94 124 150 212 250 308 370
#     4   8  20  38  56  98 124 150 208 258 288 360
#     4  11  20  39  65  83 122 169 197 245 314 356
#     4  11  22  40  62  89 122 164 202 255 300 368
#     4   9  18  40  62  87 122 155 203 247 298 357
#
# _framework density 20.938452999999999
#
# number of rings (size 3 to 8) (size 9 to 14) (size 15 to 20)
#    0.706    1.412    2.353    0.000    1.647    2.353 
#    0.000   30.588    0.000    0.000    0.000    0.000 
#    0.000    0.000    0.000    0.000    0.000    0.000 
#
# Total GULP energy -421449.298036 kJ/mol
# GULP energy per Si atom -12395.567589 kJ/mol
# Density = 2.089080 g / cm^3
# Si number density = 20.938453 Si / 1000 Ang^3
#
#
#
# Elastic Constant Matrix: (Units=GPa)
#
#
# Indices 1 2 3 4 5 6 
#
# 1 115.6664 65.7961 50.6294 0.0000 0.0000 0.0000
# 2 65.7961 118.8171 51.9402 0.0000 0.0000 0.0000
# 3 50.6294 51.9402 94.7277 0.0000 0.0000 0.0000
# 4 0.0000 0.0000 0.0000 28.6720 0.0000 0.0000
# 5 0.0000 0.0000 0.0000 0.0000 27.5057 0.0000
# 6 0.0000 0.0000 0.0000 0.0000 0.0000 23.9528
#
#
#
# Elastic Compliance Matrix: (Units=1/GPa)
#
#
# Indices 1 2 3 4 5 6 
#
# 1 0.013776 -0.005800 -0.004182 0.000000 0.000000 0.000000
# 2 -0.005800 0.013512 -0.004309 0.000000 0.000000 0.000000
# 3 -0.004182 -0.004309 0.015154 0.000000 0.000000 0.000000
# 4 0.000000 0.000000 0.000000 0.034877 0.000000 0.000000
# 5 0.000000 0.000000 0.000000 0.000000 0.036356 0.000000
# 6 0.000000 0.000000 0.000000 0.000000 0.000000 0.041749
#
#
# Mechanical properties :
#
#
# Convention : Reuss Voigt Hill
#
# Bulk Modulus (GPa) = 72.15290 73.99361 73.07326
# Shear Modulus (GPa) = 26.50751 26.74913 26.62832
#
# Velocity S-wave (km/s) = 3.56191 3.57811 3.57002
# Velocity P-wave (km/s) = 7.17291 7.24471 7.20890
#
# Compressibility (1/GPa) = 0.01385946
#
# Stress axis : x y z
#
# Youngs Moduli (GPa) = 72.59213 74.01049 65.98724
#
# Poissons Ratio (x) = 0.42926 0.27599
# Poissons Ratio (y) = 0.42104 0.28431
# Poissons Ratio (z) = 0.30361 0.31888
#
# Static dielectric constant tensor:
#      x y z
#    x 3.724690 0.000000 0.000000 
#    y 0.000000 3.835580 0.000000 
#    z 0.000000 0.000000 3.722200 
# 
# 
# High freq. dielectric constant tensor:
#      x y z
#    x 1.816390 0.000000 0.000000 
#    y 0.000000 1.821660 0.000000 
#    z 0.000000 0.000000 1.820800 
# 
# From -- ./inp_files/43474.got.cif
#   From: 2010.03.12/outbox.cif.g09.slc.cpg/sg70_22_cif.got.tgz:43474.got - 2010.04.16 13:46:32.
