data_PCOD8286790
_publ_section_title
;
Structure prediction by ZEFSAII (Michael W. Deem and Ramdas Pophale) SiO2 
 PCOD8286790
Probable space group: F D D D
;
_chemical_formula_sum "Si O2"
_cell_formula_units_Z 160
_cell_length_a 16.920358
_cell_length_b 19.241608
_cell_length_c 20.105437
_cell_angle_alpha 90.000000
_cell_angle_beta 90.000000
_cell_angle_gamma 90.000000
_cell_volume 6545.825557
_symmetry_space_group_name_H-M "F D D D"
_symmetry_group_IT_number 70
_space_group.IT_coordinate_system_code '2'
_symmetry_cell_setting 'orthorhombic'
loop_
_space_group_symop_operation_xyz
x,y,z
1/4-x,1/4-y,z
x,1/4-y,1/4-z
1/4-x,y,1/4-z
-x,-y,-z
3/4+x,3/4+y,-z
-x,3/4+y,3/4+z
3/4+x,-y,3/4+z
x,1/2+y,1/2+z
1/4-x,3/4-y,1/2+z
x,3/4-y,3/4-z
1/4-x,1/2+y,3/4-z
-x,1/2-y,1/2-z
3/4+x,1/4+y,1/2-z
-x,1/4+y,1/4+z
3/4+x,1/2-y,1/4+z
1/2+x,y,1/2+z
3/4-x,1/4-y,1/2+z
1/2+x,1/4-y,3/4-z
3/4-x,y,3/4-z
1/2-x,-y,1/2-z
1/4+x,3/4+y,1/2-z
1/2-x,3/4+y,1/4+z
1/4+x,-y,1/4+z
1/2+x,1/2+y,z
3/4-x,3/4-y,z
1/2+x,3/4-y,1/4-z
3/4-x,1/2+y,1/4-z
1/2-x,1/2-y,-z
1/4+x,1/4+y,-z
1/2-x,1/4+y,3/4+z
1/4+x,1/2-y,3/4+z
loop_
_atom_site_type_symbol
_atom_site_label
_atom_site_fract_x
_atom_site_fract_y
_atom_site_fract_z
Si Si1 0.875000 0.738422 0.375000
Si Si2 0.546966 0.758385 0.850346
Si Si3 0.112086 0.852226 0.005069
Si Si4 0.625000 0.625000 0.789160
Si Si5 0.769027 0.041480 0.002685
Si Si6 0.708199 0.606183 0.049526
O O1 0.798354 0.773997 0.410445
O O2 0.917964 0.696974 0.434934
O O3 0.594599 0.811680 0.804830
O O4 0.572741 0.678469 0.834403
O O5 0.562180 0.776656 0.927205
O O6 0.173506 0.906047 0.036542
O O7 0.034087 0.895196 0.981410
O O8 0.682286 0.672220 0.742273
O O9 0.765235 0.974000 0.956743
O O10 0.625000 0.625000 0.013100
O O11 0.698213 0.625000 0.125000
#
# Coordination Sequence:
#
# PCOD8286790 Si02
#       6
#    16  32  32  16  32  32
#     4  12  24  42  73 106 155 202 256 298 396 476
#     4  12  25  47  74 111 157 199 257 315 401 471
#     4  12  26  49  74 113 154 199 253 330 388 473
#     4  12  26  48  77 112 163 196 262 332 384 482
#     4  12  27  46  78 116 146 212 254 322 401 463
#     4  11  26  51  76 107 149 202 266 313 385 464
#
# _framework density 24.443059000000002
#
# number of rings (size 3 to 8) (size 9 to 14) (size 15 to 20)
#    0.000    0.200    6.000    2.400    4.200    2.400 
#    0.000    0.000    0.000    0.000    0.000    0.000 
#    0.000    0.000    0.000    0.000    0.000    0.000 
#
# Total GULP energy -495603.014284 kJ/mol
# GULP energy per Si atom -12390.075357 kJ/mol
# Density = 2.438743 g / cm^3
# Si number density = 24.443059 Si / 1000 Ang^3
#
#
#
# Elastic Constant Matrix: (Units=GPa)
#
#
# Indices 1 2 3 4 5 6 
#
# 1 203.6507 31.3320 28.5550 0.0000 0.0000 0.0000
# 2 31.3320 86.1075 20.6537 0.0000 0.0000 0.0000
# 3 28.5550 20.6537 105.3883 0.0000 0.0000 0.0000
# 4 0.0000 0.0000 0.0000 8.4308 0.0000 0.0000
# 5 0.0000 0.0000 0.0000 0.0000 33.5220 0.0000
# 6 0.0000 0.0000 0.0000 0.0000 0.0000 25.1619
#
#
#
# Elastic Compliance Matrix: (Units=1/GPa)
#
#
# Indices 1 2 3 4 5 6 
#
# 1 0.005324 -0.001670 -0.001115 0.000000 0.000000 0.000000
# 2 -0.001670 0.012710 -0.002038 0.000000 0.000000 0.000000
# 3 -0.001115 -0.002038 0.010190 0.000000 0.000000 0.000000
# 4 0.000000 0.000000 0.000000 0.118612 0.000000 0.000000
# 5 0.000000 0.000000 0.000000 0.000000 0.029831 0.000000
# 6 0.000000 0.000000 0.000000 0.000000 0.000000 0.039743
#
#
# Mechanical properties :
#
#
# Convention : Reuss Voigt Hill
#
# Bulk Modulus (GPa) = 53.82925 61.80309 57.81617
# Shear Modulus (GPa) = 21.52863 34.39667 27.96265
#
# Velocity S-wave (km/s) = 2.97099 3.75536 3.38596
# Velocity P-wave (km/s) = 5.81714 6.64402 6.24428
#
# Compressibility (1/GPa) = 0.01857726
#
# Stress axis : x y z
#
# Youngs Moduli (GPa) = 187.84235 78.67907 98.13176
#
# Poissons Ratio (x) = 0.13136 0.10944
# Poissons Ratio (y) = 0.31362 0.20004
# Poissons Ratio (z) = 0.20949 0.16038
#
# Static dielectric constant tensor:
#      x y z
#    x 5.372890 0.000000 0.000000 
#    y 0.000000 4.593820 0.000000 
#    z 0.000000 0.000000 4.198450 
# 
# 
# High freq. dielectric constant tensor:
#      x y z
#    x 2.008790 0.000000 0.000000 
#    y 0.000000 1.955470 0.000000 
#    z 0.000000 0.000000 1.958810 
# 
# From -- ./inp_files/43681.got.cif
#   From: 2010.03.12/outbox.cif.g09.slc.cpg/sg70_22_cif.got.tgz:43681.got - 2010.04.16 13:46:32.
