data_PCOD8286100
_publ_section_title
;
Structure prediction by ZEFSAII (Michael W. Deem and Ramdas Pophale) SiO2 
 PCOD8286100
Probable space group: F D D D
;
_chemical_formula_sum "Si O2"
_cell_formula_units_Z 160
_cell_length_a 19.835032
_cell_length_b 18.754296
_cell_length_c 21.004750
_cell_angle_alpha 90.000000
_cell_angle_beta 90.000000
_cell_angle_gamma 90.000000
_cell_volume 7813.600250
_symmetry_space_group_name_H-M "F D D D"
_symmetry_group_IT_number 70
_space_group.IT_coordinate_system_code '2'
_symmetry_cell_setting 'orthorhombic'
loop_
_space_group_symop_operation_xyz
x,y,z
1/4-x,1/4-y,z
x,1/4-y,1/4-z
1/4-x,y,1/4-z
-x,-y,-z
3/4+x,3/4+y,-z
-x,3/4+y,3/4+z
3/4+x,-y,3/4+z
x,1/2+y,1/2+z
1/4-x,3/4-y,1/2+z
x,3/4-y,3/4-z
1/4-x,1/2+y,3/4-z
-x,1/2-y,1/2-z
3/4+x,1/4+y,1/2-z
-x,1/4+y,1/4+z
3/4+x,1/2-y,1/4+z
1/2+x,y,1/2+z
3/4-x,1/4-y,1/2+z
1/2+x,1/4-y,3/4-z
3/4-x,y,3/4-z
1/2-x,-y,1/2-z
1/4+x,3/4+y,1/2-z
1/2-x,3/4+y,1/4+z
1/4+x,-y,1/4+z
1/2+x,1/2+y,z
3/4-x,3/4-y,z
1/2+x,3/4-y,1/4-z
3/4-x,1/2+y,1/4-z
1/2-x,1/2-y,-z
1/4+x,1/4+y,-z
1/2-x,1/4+y,3/4+z
1/4+x,1/2-y,3/4+z
loop_
_atom_site_type_symbol
_atom_site_label
_atom_site_fract_x
_atom_site_fract_y
_atom_site_fract_z
Si Si1 0.040879 0.936915 0.966430
Si Si2 0.519741 0.089205 0.881817
Si Si3 0.096496 0.230336 0.398135
Si Si4 0.343471 0.574992 0.941462
Si Si5 0.751549 0.042630 0.507632
O O1 0.079132 0.957418 0.901835
O O2 0.096178 0.900806 0.013316
O O3 0.991776 0.868909 0.956187
O O4 0.000000 0.000000 0.000000
O O5 0.559745 0.161945 0.867265
O O6 0.573877 0.032673 0.909900
O O7 0.458885 0.108999 0.930449
O O8 0.491126 0.054010 0.817819
O O9 0.067486 0.250732 0.467046
O O10 0.375000 0.549449 0.875000
O O11 0.312512 0.505358 0.974989
#
# Coordination Sequence:
#
# PCOD8286100 Si02
#       5
#    32  32  32  32  32
#     4  12  21  36  58  88 124 157 200 254 313 375
#     4  10  20  39  58  85 123 158 202 252 306 376
#     4  10  21  36  58  87 120 164 201 248 315 367
#     4  11  22  38  61  89 119 163 202 249 318 375
#     4  11  21  37  60  84 123 165 198 255 305 372
#
# _framework density 20.477115999999999
#
# number of rings (size 3 to 8) (size 9 to 14) (size 15 to 20)
#    0.000    1.200    6.000    1.800    0.000    0.800 
#    0.000    4.000    0.000    0.000    0.000    0.000 
#    0.000    0.000    0.000    0.000    0.000    0.000 
#
# Total GULP energy -495687.782280 kJ/mol
# GULP energy per Si atom -12392.194557 kJ/mol
# Density = 2.043051 g / cm^3
# Si number density = 20.477116 Si / 1000 Ang^3
#
#
#
# Elastic Constant Matrix: (Units=GPa)
#
#
# Indices 1 2 3 4 5 6 
#
# 1 103.9125 26.9619 36.2964 0.0000 0.0000 0.0000
# 2 26.9619 70.6727 20.4277 0.0000 0.0000 0.0000
# 3 36.2964 20.4277 77.1226 0.0000 0.0000 0.0000
# 4 0.0000 0.0000 0.0000 32.0970 0.0000 0.0000
# 5 0.0000 0.0000 0.0000 0.0000 34.7240 0.0000
# 6 0.0000 0.0000 0.0000 0.0000 0.0000 27.1839
#
#
#
# Elastic Compliance Matrix: (Units=1/GPa)
#
#
# Indices 1 2 3 4 5 6 
#
# 1 0.012163 -0.003233 -0.004868 0.000000 0.000000 0.000000
# 2 -0.003233 0.016182 -0.002765 0.000000 0.000000 0.000000
# 3 -0.004868 -0.002765 0.015990 0.000000 0.000000 0.000000
# 4 0.000000 0.000000 0.000000 0.031156 0.000000 0.000000
# 5 0.000000 0.000000 0.000000 0.000000 0.028799 0.000000
# 6 0.000000 0.000000 0.000000 0.000000 0.000000 0.036787
#
#
# Mechanical properties :
#
#
# Convention : Reuss Voigt Hill
#
# Bulk Modulus (GPa) = 44.24097 46.56443 45.40270
# Shear Modulus (GPa) = 29.35293 30.00242 29.67767
#
# Velocity S-wave (km/s) = 3.79020 3.83190 3.81111
# Velocity P-wave (km/s) = 6.38797 6.50900 6.44877
#
# Compressibility (1/GPa) = 0.02260348
#
# Stress axis : x y z
#
# Youngs Moduli (GPa) = 82.21877 61.79592 62.54066
#
# Poissons Ratio (x) = 0.19979 0.30443
# Poissons Ratio (y) = 0.26582 0.17290
# Poissons Ratio (z) = 0.40022 0.17084
#
# Static dielectric constant tensor:
#      x y z
#    x 3.968950 0.000000 0.000000 
#    y 0.000000 3.729910 0.000000 
#    z 0.000000 0.000000 3.547590 
# 
# 
# High freq. dielectric constant tensor:
#      x y z
#    x 1.803170 0.000000 0.000000 
#    y 0.000000 1.792070 0.000000 
#    z 0.000000 0.000000 1.783250 
# 
# From -- ./inp_files/36283.got.cif
#   From: 2010.03.12/outbox.cif.g09.slc.cpg/sg70_19_cif.got.tgz:36283.got - 2010.04.16 13:46:32.
