data_PCOD8286257
_publ_section_title
;
Structure prediction by ZEFSAII (Michael W. Deem and Ramdas Pophale) SiO2 
 PCOD8286257
Probable space group: F D D D
;
_chemical_formula_sum "Si O2"
_cell_formula_units_Z 240
_cell_length_a 26.506076
_cell_length_b 20.133614
_cell_length_c 21.198274
_cell_angle_alpha 90.000000
_cell_angle_beta 90.000000
_cell_angle_gamma 90.000000
_cell_volume 11312.736678
_symmetry_space_group_name_H-M "F D D D"
_symmetry_group_IT_number 70
_space_group.IT_coordinate_system_code '2'
_symmetry_cell_setting 'orthorhombic'
loop_
_space_group_symop_operation_xyz
x,y,z
1/4-x,1/4-y,z
x,1/4-y,1/4-z
1/4-x,y,1/4-z
-x,-y,-z
3/4+x,3/4+y,-z
-x,3/4+y,3/4+z
3/4+x,-y,3/4+z
x,1/2+y,1/2+z
1/4-x,3/4-y,1/2+z
x,3/4-y,3/4-z
1/4-x,1/2+y,3/4-z
-x,1/2-y,1/2-z
3/4+x,1/4+y,1/2-z
-x,1/4+y,1/4+z
3/4+x,1/2-y,1/4+z
1/2+x,y,1/2+z
3/4-x,1/4-y,1/2+z
1/2+x,1/4-y,3/4-z
3/4-x,y,3/4-z
1/2-x,-y,1/2-z
1/4+x,3/4+y,1/2-z
1/2-x,3/4+y,1/4+z
1/4+x,-y,1/4+z
1/2+x,1/2+y,z
3/4-x,3/4-y,z
1/2+x,3/4-y,1/4-z
3/4-x,1/2+y,1/4-z
1/2-x,1/2-y,-z
1/4+x,1/4+y,-z
1/2-x,1/4+y,3/4+z
1/4+x,1/2-y,3/4+z
loop_
_atom_site_type_symbol
_atom_site_label
_atom_site_fract_x
_atom_site_fract_y
_atom_site_fract_z
Si Si1 0.808353 0.766683 0.565865
Si Si2 0.256484 0.196442 0.092652
Si Si3 0.681699 0.691559 0.297213
Si Si4 0.071276 0.204484 0.266058
Si Si5 0.102859 0.559167 0.227382
Si Si6 0.042981 0.839511 0.217898
Si Si7 0.625000 0.961235 0.125000
Si Si8 0.498760 0.025321 0.282767
O O1 0.823358 0.766217 0.638755
O O2 0.854239 0.797004 0.528270
O O3 0.801475 0.692934 0.536926
O O4 0.758082 0.809895 0.560413
O O5 0.270796 0.125000 0.125000
O O6 0.300629 0.227303 0.048014
O O7 0.249580 0.251362 0.145867
O O8 0.205273 0.191358 0.051711
O O9 0.631658 0.709666 0.256269
O O10 0.687681 0.612120 0.308699
O O11 0.732321 0.713867 0.260873
O O12 0.125000 0.625000 0.193765
O O13 0.093196 0.505697 0.173272
O O14 0.050694 0.561635 0.264554
O O15 0.086889 0.830819 0.166746
O O16 0.042795 0.917994 0.226811
#
# Coordination Sequence:
#
# PCOD8286257 Si02
#       8
#    32  32  32  32  32  32  16  32
#     4  10  21  40  62  91 134 171 220 273 326 399
#     4  11  23  46  69 100 132 176 224 285 340 410
#     4  11  23  42  66 101 129 179 226 276 338 411
#     4  10  24  44  70  96 135 175 228 285 342 400
#     4  11  22  40  67  96 126 177 225 271 333 411
#     4  10  22  40  61  93 135 177 216 277 336 393
#     4  10  23  42  62  94 137 176 218 276 338 410
#     4  12  24  41  68  98 130 177 225 281 339 407
#
# _framework density 21.215025000000001
#
# number of rings (size 3 to 8) (size 9 to 14) (size 15 to 20)
#    0.000    1.333    2.667    2.600    1.867    2.133 
#    9.600    0.000    0.000    0.000    0.000    0.000 
#    0.000    0.000    0.000    0.000    0.000    0.000 
#
# Total GULP energy -743576.730966 kJ/mol
# GULP energy per Si atom -12392.945516 kJ/mol
# Density = 2.116674 g / cm^3
# Si number density = 21.215025 Si / 1000 Ang^3
#
#
#
# Elastic Constant Matrix: (Units=GPa)
#
#
# Indices 1 2 3 4 5 6 
#
# 1 72.5292 44.2873 18.4568 0.0000 0.0000 0.0000
# 2 44.2873 110.9754 27.3746 0.0000 0.0000 0.0000
# 3 18.4568 27.3746 86.1924 0.0000 0.0000 0.0000
# 4 0.0000 0.0000 0.0000 -100.0747 0.0000 0.0000
# 5 0.0000 0.0000 0.0000 0.0000 26.9616 0.0000
# 6 0.0000 0.0000 0.0000 0.0000 0.0000 27.8655
#
#
#
# Elastic Compliance Matrix: (Units=1/GPa)
#
#
# Indices 1 2 3 4 5 6 
#
# 1 0.018470 -0.006939 -0.001751 0.000000 0.000000 0.000000
# 2 -0.006939 0.012384 -0.002447 0.000000 0.000000 0.000000
# 3 -0.001751 -0.002447 0.012754 0.000000 0.000000 0.000000
# 4 0.000000 0.000000 0.000000 -0.009993 0.000000 0.000000
# 5 0.000000 0.000000 0.000000 0.000000 0.037090 0.000000
# 6 0.000000 0.000000 0.000000 0.000000 0.000000 0.035887
#
#
# Mechanical properties :
#
#
# Convention : Reuss Voigt Hill
#
# Bulk Modulus (GPa) = 46.87515 49.99272 48.43394
# Shear Modulus (GPa) = 36.77055 2.92236 19.84645
#
# Velocity S-wave (km/s) = 4.16773 1.17494 3.06190
# Velocity P-wave (km/s) = 6.73076 5.04545 5.94810
#
# Compressibility (1/GPa) = 0.02133326
#
# Stress axis : x y z
#
# Youngs Moduli (GPa) = 54.14104 80.75043 78.40552
#
# Poissons Ratio (x) = 0.56033 0.13731
# Poissons Ratio (y) = 0.37568 0.19187
# Poissons Ratio (z) = 0.09482 0.19761
#
# Static dielectric constant tensor:
#      x y z
#    x 3.857220 0.000000 0.000000 
#    y 0.000000 3.909580 0.000000 
#    z 0.000000 0.000000 4.421800 
# 
# 
# High freq. dielectric constant tensor:
#      x y z
#    x 1.833560 0.000000 0.000000 
#    y 0.000000 1.832500 0.000000 
#    z 0.000000 0.000000 1.830670 
# 
# From -- ./inp_files/47115.got.cif
#   From: 2010.03.12/outbox.cif.g09.slc.cpg/sg70_24_cif.got.tgz:47115.got - 2010.04.16 13:46:32.
