data_PCOD8286269
_publ_section_title
;
Structure prediction by ZEFSAII (Michael W. Deem and Ramdas Pophale) SiO2 
 PCOD8286269
Probable space group: F D D D
;
_chemical_formula_sum "Si O2"
_cell_formula_units_Z 176
_cell_length_a 22.028550
_cell_length_b 11.501007
_cell_length_c 27.744733
_cell_angle_alpha 90.000000
_cell_angle_beta 90.000000
_cell_angle_gamma 90.000000
_cell_volume 7029.142193
_symmetry_space_group_name_H-M "F D D D"
_symmetry_group_IT_number 70
_space_group.IT_coordinate_system_code '2'
_symmetry_cell_setting 'orthorhombic'
loop_
_space_group_symop_operation_xyz
x,y,z
1/4-x,1/4-y,z
x,1/4-y,1/4-z
1/4-x,y,1/4-z
-x,-y,-z
3/4+x,3/4+y,-z
-x,3/4+y,3/4+z
3/4+x,-y,3/4+z
x,1/2+y,1/2+z
1/4-x,3/4-y,1/2+z
x,3/4-y,3/4-z
1/4-x,1/2+y,3/4-z
-x,1/2-y,1/2-z
3/4+x,1/4+y,1/2-z
-x,1/4+y,1/4+z
3/4+x,1/2-y,1/4+z
1/2+x,y,1/2+z
3/4-x,1/4-y,1/2+z
1/2+x,1/4-y,3/4-z
3/4-x,y,3/4-z
1/2-x,-y,1/2-z
1/4+x,3/4+y,1/2-z
1/2-x,3/4+y,1/4+z
1/4+x,-y,1/4+z
1/2+x,1/2+y,z
3/4-x,3/4-y,z
1/2+x,3/4-y,1/4-z
3/4-x,1/2+y,1/4-z
1/2-x,1/2-y,-z
1/4+x,1/4+y,-z
1/2-x,1/4+y,3/4+z
1/4+x,1/2-y,3/4+z
loop_
_atom_site_type_symbol
_atom_site_label
_atom_site_fract_x
_atom_site_fract_y
_atom_site_fract_z
Si Si1 0.117324 0.445056 0.522763
Si Si2 0.527742 0.119161 0.752397
Si Si3 0.667708 0.472435 0.802639
Si Si4 0.244558 0.625000 0.125000
Si Si5 0.712529 0.882063 0.099947
Si Si6 0.708536 0.031514 0.930856
O O1 0.050028 0.494242 0.505459
O O2 0.164523 0.546260 0.515728
O O3 0.142384 0.329462 0.497311
O O4 0.102863 0.411667 0.578875
O O5 0.512608 0.099112 0.808013
O O6 0.474820 0.071048 0.717817
O O7 0.712068 0.381633 0.828154
O O8 0.703563 0.593075 0.792058
O O9 0.609277 0.498162 0.837512
O O10 0.203173 0.509855 0.122802
O O11 0.741827 0.791247 0.137985
#
# Coordination Sequence:
#
# PCOD8286269 Si02
#       6
#    32  32  32  16  32  32
#     4  11  24  41  70 100 134 181 232 283 361 430
#     4  11  24  43  67 100 138 178 228 297 354 426
#     4  10  21  40  66 101 129 180 232 287 344 413
#     4  10  22  40  68 101 136 169 236 290 340 420
#     4  11  23  43  66 101 136 181 228 286 359 422
#     4  10  24  40  66 100 139 181 229 285 358 423
#
# _framework density 25.038616000000001
#
# number of rings (size 3 to 8) (size 9 to 14) (size 15 to 20)
#    0.000    1.455    3.636    0.545    2.545    3.636 
#    0.000    1.818    4.000    0.000    0.000    0.000 
#    0.000    0.000    0.000    0.000    0.000    0.000 
#
# Total GULP energy -545251.754662 kJ/mol
# GULP energy per Si atom -12392.085333 kJ/mol
# Density = 2.498163 g / cm^3
# Si number density = 25.038616 Si / 1000 Ang^3
#
#
#
# Elastic Constant Matrix: (Units=GPa)
#
#
# Indices 1 2 3 4 5 6 
#
# 1 65.2903 23.9115 8.9171 0.0000 0.0000 0.0000
# 2 23.9115 128.6882 43.1360 0.0000 0.0000 0.0000
# 3 8.9171 43.1360 97.2370 0.0000 0.0000 0.0000
# 4 0.0000 0.0000 0.0000 34.7083 0.0000 0.0000
# 5 0.0000 0.0000 0.0000 0.0000 35.4430 0.0000
# 6 0.0000 0.0000 0.0000 0.0000 0.0000 28.8847
#
#
#
# Elastic Compliance Matrix: (Units=1/GPa)
#
#
# Indices 1 2 3 4 5 6 
#
# 1 0.016437 -0.002994 -0.000179 0.000000 0.000000 0.000000
# 2 -0.002994 0.009673 -0.004017 0.000000 0.000000 0.000000
# 3 -0.000179 -0.004017 0.012082 0.000000 0.000000 0.000000
# 4 0.000000 0.000000 0.000000 0.028812 0.000000 0.000000
# 5 0.000000 0.000000 0.000000 0.000000 0.028214 0.000000
# 6 0.000000 0.000000 0.000000 0.000000 0.000000 0.034620
#
#
# Mechanical properties :
#
#
# Convention : Reuss Voigt Hill
#
# Bulk Modulus (GPa) = 41.99360 49.23830 45.61595
# Shear Modulus (GPa) = 32.86076 34.15726 33.50901
#
# Velocity S-wave (km/s) = 3.62664 3.69749 3.66224
# Velocity P-wave (km/s) = 5.86043 6.15924 6.01169
#
# Compressibility (1/GPa) = 0.02381315
#
# Stress axis : x y z
#
# Youngs Moduli (GPa) = 60.83750 103.37565 82.76459
#
# Poissons Ratio (x) = 0.30952 0.01482
# Poissons Ratio (y) = 0.18216 0.33244
# Poissons Ratio (z) = 0.01090 0.41523
#
# Static dielectric constant tensor:
#      x y z
#    x 5.022770 0.000000 0.000000 
#    y 0.000000 4.969700 0.000000 
#    z 0.000000 0.000000 4.116340 
# 
# 
# High freq. dielectric constant tensor:
#      x y z
#    x 2.022530 0.000000 0.000000 
#    y 0.000000 2.024660 0.000000 
#    z 0.000000 0.000000 1.963210 
# 
# From -- ./inp_files/61681.got.cif
#   From: 2010.03.12/outbox.cif.g09.slc.cpg/sg70_31_cif.got.tgz:61681.got - 2010.04.16 13:46:32.
