data_PCOD8286465
_publ_section_title
;
Structure prediction by ZEFSAII (Michael W. Deem and Ramdas Pophale) SiO2 
 PCOD8286465
Probable space group: F D D D
;
_chemical_formula_sum "Si O2"
_cell_formula_units_Z 176
_cell_length_a 11.210394
_cell_length_b 30.519979
_cell_length_c 23.187018
_cell_angle_alpha 90.000000
_cell_angle_beta 90.000000
_cell_angle_gamma 90.000000
_cell_volume 7933.229281
_symmetry_space_group_name_H-M "F D D D"
_symmetry_group_IT_number 70
_space_group.IT_coordinate_system_code '2'
_symmetry_cell_setting 'orthorhombic'
loop_
_space_group_symop_operation_xyz
x,y,z
1/4-x,1/4-y,z
x,1/4-y,1/4-z
1/4-x,y,1/4-z
-x,-y,-z
3/4+x,3/4+y,-z
-x,3/4+y,3/4+z
3/4+x,-y,3/4+z
x,1/2+y,1/2+z
1/4-x,3/4-y,1/2+z
x,3/4-y,3/4-z
1/4-x,1/2+y,3/4-z
-x,1/2-y,1/2-z
3/4+x,1/4+y,1/2-z
-x,1/4+y,1/4+z
3/4+x,1/2-y,1/4+z
1/2+x,y,1/2+z
3/4-x,1/4-y,1/2+z
1/2+x,1/4-y,3/4-z
3/4-x,y,3/4-z
1/2-x,-y,1/2-z
1/4+x,3/4+y,1/2-z
1/2-x,3/4+y,1/4+z
1/4+x,-y,1/4+z
1/2+x,1/2+y,z
3/4-x,3/4-y,z
1/2+x,3/4-y,1/4-z
3/4-x,1/2+y,1/4-z
1/2-x,1/2-y,-z
1/4+x,1/4+y,-z
1/2-x,1/4+y,3/4+z
1/4+x,1/2-y,3/4+z
loop_
_atom_site_type_symbol
_atom_site_label
_atom_site_fract_x
_atom_site_fract_y
_atom_site_fract_z
Si Si1 0.925377 0.938956 0.654487
Si Si2 0.478297 0.784494 0.921878
Si Si3 0.292051 0.661961 0.580736
Si Si4 0.875000 0.982248 0.875000
Si Si5 0.773993 0.300833 0.696137
Si Si6 0.451448 0.106168 0.451611
O O1 0.898789 0.938317 0.585718
O O2 0.796713 0.931151 0.684133
O O3 0.021288 0.901963 0.670372
O O4 0.975356 0.985202 0.673561
O O5 0.375000 0.790296 0.875000
O O6 0.577964 0.819303 0.903732
O O7 0.438947 0.794324 0.987511
O O8 0.252741 0.625000 0.625000
O O9 0.201263 0.702401 0.581557
O O10 0.288584 0.637781 0.519726
O O11 0.963107 0.008502 0.832787
O O12 0.681672 0.340880 0.685622
#
# Coordination Sequence:
#
# PCOD8286465 Si02
#       6
#    32  32  32  16  32  32
#     4  11  22  40  67 101 132 180 232 284 344 417
#     4  11  26  46  67  97 137 190 231 278 347 420
#     4  11  25  42  68 101 136 181 232 290 339 413
#     4  12  21  40  72 104 136 180 228 286 363 398
#     4  11  22  44  69  97 143 180 224 294 346 413
#     4  10  23  40  65 102 140 176 229 285 356 404
#
# _framework density 22.185165000000001
#
# number of rings (size 3 to 8) (size 9 to 14) (size 15 to 20)
#    0.000    1.091    3.636    1.364    7.636    6.909 
#    0.000    9.091    0.000    0.000    0.000    0.000 
#    0.000    0.000    0.000    0.000    0.000    0.000 
#
# Total GULP energy -545640.211770 kJ/mol
# GULP energy per Si atom -12400.913904 kJ/mol
# Density = 2.213467 g / cm^3
# Si number density = 22.185165 Si / 1000 Ang^3
#
#
#
# Elastic Constant Matrix: (Units=GPa)
#
#
# Indices 1 2 3 4 5 6 
#
# 1 73.2115 44.8775 61.6201 0.0000 0.0000 0.0000
# 2 44.8775 111.3287 73.5876 0.0000 0.0000 0.0000
# 3 61.6201 73.5876 125.8421 0.0000 0.0000 0.0000
# 4 0.0000 0.0000 0.0000 25.4798 0.0000 0.0000
# 5 0.0000 0.0000 0.0000 0.0000 38.7588 0.0000
# 6 0.0000 0.0000 0.0000 0.0000 0.0000 11.2656
#
#
#
# Elastic Compliance Matrix: (Units=1/GPa)
#
#
# Indices 1 2 3 4 5 6 
#
# 1 0.023870 -0.003091 -0.009881 0.000000 0.000000 0.000000
# 2 -0.003091 0.015042 -0.007282 0.000000 0.000000 0.000000
# 3 -0.009881 -0.007282 0.017043 0.000000 0.000000 0.000000
# 4 0.000000 0.000000 0.000000 0.039247 0.000000 0.000000
# 5 0.000000 0.000000 0.000000 0.000000 0.025801 0.000000
# 6 0.000000 0.000000 0.000000 0.000000 0.000000 0.088765
#
#
# Mechanical properties :
#
#
# Convention : Reuss Voigt Hill
#
# Bulk Modulus (GPa) = 64.73810 74.50586 69.62198
# Shear Modulus (GPa) = 19.57514 23.78732 21.68123
#
# Velocity S-wave (km/s) = 2.97366 3.27803 3.12955
# Velocity P-wave (km/s) = 6.40581 6.92704 6.67151
#
# Compressibility (1/GPa) = 0.01544685
#
# Stress axis : x y z
#
# Youngs Moduli (GPa) = 41.89311 66.47994 58.67447
#
# Poissons Ratio (x) = 0.20550 0.57975
# Poissons Ratio (y) = 0.12950 0.42729
# Poissons Ratio (z) = 0.41394 0.48414
#
# Static dielectric constant tensor:
#      x y z
#    x 3.956920 0.000000 0.000000 
#    y 0.000000 3.947100 0.000000 
#    z 0.000000 0.000000 4.294580 
# 
# 
# High freq. dielectric constant tensor:
#      x y z
#    x 1.865480 0.000000 0.000000 
#    y 0.000000 1.876740 0.000000 
#    z 0.000000 0.000000 1.885370 
# 
# From -- ./inp_files/50419.got.cif
#   From: 2010.03.12/outbox.cif.g09.slc.cpg/sg70_26_cif.got.tgz:50419.got - 2010.04.16 13:46:32.
