data_PCOD8286831
_publ_section_title
;
Structure prediction by ZEFSAII (Michael W. Deem and Ramdas Pophale) SiO2 
 PCOD8286831
Probable space group: F D D D
;
_chemical_formula_sum "Si O2"
_cell_formula_units_Z 160
_cell_length_a 20.175545
_cell_length_b 27.235456
_cell_length_c 14.644526
_cell_angle_alpha 90.000000
_cell_angle_beta 90.000000
_cell_angle_gamma 90.000000
_cell_volume 8047.023054
_symmetry_space_group_name_H-M "F D D D"
_symmetry_group_IT_number 70
_space_group.IT_coordinate_system_code '2'
_symmetry_cell_setting 'orthorhombic'
loop_
_space_group_symop_operation_xyz
x,y,z
1/4-x,1/4-y,z
x,1/4-y,1/4-z
1/4-x,y,1/4-z
-x,-y,-z
3/4+x,3/4+y,-z
-x,3/4+y,3/4+z
3/4+x,-y,3/4+z
x,1/2+y,1/2+z
1/4-x,3/4-y,1/2+z
x,3/4-y,3/4-z
1/4-x,1/2+y,3/4-z
-x,1/2-y,1/2-z
3/4+x,1/4+y,1/2-z
-x,1/4+y,1/4+z
3/4+x,1/2-y,1/4+z
1/2+x,y,1/2+z
3/4-x,1/4-y,1/2+z
1/2+x,1/4-y,3/4-z
3/4-x,y,3/4-z
1/2-x,-y,1/2-z
1/4+x,3/4+y,1/2-z
1/2-x,3/4+y,1/4+z
1/4+x,-y,1/4+z
1/2+x,1/2+y,z
3/4-x,3/4-y,z
1/2+x,3/4-y,1/4-z
3/4-x,1/2+y,1/4-z
1/2-x,1/2-y,-z
1/4+x,1/4+y,-z
1/2-x,1/4+y,3/4+z
1/4+x,1/2-y,3/4+z
loop_
_atom_site_type_symbol
_atom_site_label
_atom_site_fract_x
_atom_site_fract_y
_atom_site_fract_z
Si Si1 0.831029 0.328410 0.112777
Si Si2 0.611839 0.419222 0.027352
Si Si3 0.506135 0.903419 0.281341
Si Si4 0.775759 0.152814 0.038803
Si Si5 0.364912 0.724209 0.647283
O O1 0.875000 0.375000 0.094501
O O2 0.804432 0.328447 0.217724
O O3 0.879181 0.282469 0.092365
O O4 0.773491 0.328213 0.038019
O O5 0.625000 0.443346 0.125000
O O6 0.546558 0.385558 0.028993
O O7 0.673297 0.385912 0.000953
O O8 0.602983 0.464199 0.959301
O O9 0.483902 0.875000 0.375000
O O10 0.551799 0.951323 0.299841
O O11 0.740327 0.125000 0.125000
O O12 0.816135 0.200516 0.070933
#
# Coordination Sequence:
#
# PCOD8286831 Si02
#       5
#    32  32  32  32  32
#     4  12  24  38  57  89 126 157 194 244 303 347
#     4   9  15  35  65  85 108 156 203 242 285 354
#     4   9  20  41  61  81 119 156 197 245 295 346
#     4   9  19  37  62  88 119 152 199 248 297 351
#     4   9  21  37  60  91 112 155 207 238 290 361
#
# _framework density 19.883129
#
# number of rings (size 3 to 8) (size 9 to 14) (size 15 to 20)
#    0.000    2.400    2.000    3.000    0.000    4.000 
#    3.600    4.000    0.000    0.000    0.000    0.000 
#    0.000    0.000    0.000    0.000    0.000    0.000 
#
# Total GULP energy -495742.592216 kJ/mol
# GULP energy per Si atom -12393.564805 kJ/mol
# Density = 1.983787 g / cm^3
# Si number density = 19.883129 Si / 1000 Ang^3
#
#
#
# Elastic Constant Matrix: (Units=GPa)
#
#
# Indices 1 2 3 4 5 6 
#
# 1 31.4876 17.0237 1.9359 0.0000 0.0000 0.0000
# 2 17.0237 114.0185 9.1524 0.0000 0.0000 0.0000
# 3 1.9359 9.1524 87.1416 0.0000 0.0000 0.0000
# 4 0.0000 0.0000 0.0000 21.6192 0.0000 0.0000
# 5 0.0000 0.0000 0.0000 0.0000 -3.8899 0.0000
# 6 0.0000 0.0000 0.0000 0.0000 0.0000 9.8000
#
#
#
# Elastic Compliance Matrix: (Units=1/GPa)
#
#
# Indices 1 2 3 4 5 6 
#
# 1 0.034552 -0.005141 -0.000228 0.000000 0.000000 0.000000
# 2 -0.005141 0.009610 -0.000895 0.000000 0.000000 0.000000
# 3 -0.000228 -0.000895 0.011575 0.000000 0.000000 0.000000
# 4 0.000000 0.000000 0.000000 0.046255 0.000000 0.000000
# 5 0.000000 0.000000 0.000000 0.000000 -0.257074 0.000000
# 6 0.000000 0.000000 0.000000 0.000000 0.000000 0.102040
#
#
# Mechanical properties :
#
#
# Convention : Reuss Voigt Hill
#
# Bulk Modulus (GPa) = 23.14301 32.09688 27.61994
# Shear Modulus (GPa) = -191.48092 19.14157 -86.16968
#
# Velocity S-wave (km/s) = -9.82407 3.10611 -6.59031
# Velocity P-wave (km/s) = 10.81750 5.38904 6.63236
#
# Compressibility (1/GPa) = 0.04320959
#
# Stress axis : x y z
#
# Youngs Moduli (GPa) = 28.94208 104.05959 86.39572
#
# Poissons Ratio (x) = 0.53492 0.01967
# Poissons Ratio (y) = 0.14878 0.07733
# Poissons Ratio (z) = 0.00659 0.09315
#
# Static dielectric constant tensor:
#      x y z
#    x 3.432800 0.000000 0.000000 
#    y 0.000000 3.402160 0.000000 
#    z 0.000000 0.000000 4.377880 
# 
# 
# High freq. dielectric constant tensor:
#      x y z
#    x 1.752200 0.000000 0.000000 
#    y 0.000000 1.763290 0.000000 
#    z 0.000000 0.000000 1.788590 
# 
# From -- ./inp_files/28616.got.cif
#   From: 2010.03.12/outbox.cif.g09.slc.cpg/sg70_15_cif.got.tgz:28616.got - 2010.04.16 13:46:32.
