data_PCOD8286320
_publ_section_title
;
Structure prediction by ZEFSAII (Michael W. Deem and Ramdas Pophale) SiO2 
 PCOD8286320
Probable space group: F D D D
;
_chemical_formula_sum "Si O2"
_cell_formula_units_Z 120
_cell_length_a 29.719701
_cell_length_b 14.054979
_cell_length_c 13.439346
_cell_angle_alpha 90.000000
_cell_angle_beta 90.000000
_cell_angle_gamma 90.000000
_cell_volume 5613.746173
_symmetry_space_group_name_H-M "F D D D"
_symmetry_group_IT_number 70
_space_group.IT_coordinate_system_code '2'
_symmetry_cell_setting 'orthorhombic'
loop_
_space_group_symop_operation_xyz
x,y,z
1/4-x,1/4-y,z
x,1/4-y,1/4-z
1/4-x,y,1/4-z
-x,-y,-z
3/4+x,3/4+y,-z
-x,3/4+y,3/4+z
3/4+x,-y,3/4+z
x,1/2+y,1/2+z
1/4-x,3/4-y,1/2+z
x,3/4-y,3/4-z
1/4-x,1/2+y,3/4-z
-x,1/2-y,1/2-z
3/4+x,1/4+y,1/2-z
-x,1/4+y,1/4+z
3/4+x,1/2-y,1/4+z
1/2+x,y,1/2+z
3/4-x,1/4-y,1/2+z
1/2+x,1/4-y,3/4-z
3/4-x,y,3/4-z
1/2-x,-y,1/2-z
1/4+x,3/4+y,1/2-z
1/2-x,3/4+y,1/4+z
1/4+x,-y,1/4+z
1/2+x,1/2+y,z
3/4-x,3/4-y,z
1/2+x,3/4-y,1/4-z
3/4-x,1/2+y,1/4-z
1/2-x,1/2-y,-z
1/4+x,1/4+y,-z
1/2-x,1/4+y,3/4+z
1/4+x,1/2-y,3/4+z
loop_
_atom_site_type_symbol
_atom_site_label
_atom_site_fract_x
_atom_site_fract_y
_atom_site_fract_z
Si Si1 0.226011 0.976510 0.392655
Si Si2 0.360146 0.125000 0.125000
Si Si3 0.498459 0.319366 0.104940
Si Si4 0.821045 0.017692 0.241948
Si Si5 0.375000 0.875000 0.875000
O O1 0.251928 0.875000 0.375000
O O2 0.173493 0.965118 0.358159
O O3 0.231380 0.990323 0.512492
O O4 0.244429 0.066908 0.331613
O O5 0.391907 0.151480 0.217819
O O6 0.450602 0.275737 0.140294
O O7 0.532535 0.318240 0.196212
O O8 0.842954 0.934612 0.304516
#
# Coordination Sequence:
#
# PCOD8286320 Si02
#       5
#    32  16  32  32   8
#     4  10  23  38  59  83 118 164 197 248 291 368
#     4  10  22  37  56  92 122 156 190 244 312 355
#     4  11  21  40  62  88 119 157 208 244 306 360
#     4  11  22  36  64  92 119 154 197 260 302 369
#     4  12  24  42  60 100 124 152 200 260 324 338
#
# _framework density 21.376100000000001
#
# number of rings (size 3 to 8) (size 9 to 14) (size 15 to 20)
#    0.800    0.533    0.000    7.200    0.000    4.267 
#    0.000    0.000    0.000    0.000    0.000    0.000 
#    0.000    0.000    0.000    0.000    0.000    0.000 
#
# Total GULP energy -371678.972096 kJ/mol
# GULP energy per Si atom -12389.299070 kJ/mol
# Density = 2.132745 g / cm^3
# Si number density = 21.376100 Si / 1000 Ang^3
#
#
#
# Elastic Constant Matrix: (Units=GPa)
#
#
# Indices 1 2 3 4 5 6 
#
# 1 102.7515 43.2339 21.0268 0.0000 0.0000 0.0000
# 2 43.2339 83.2945 18.4026 0.0000 0.0000 0.0000
# 3 21.0268 18.4026 55.4681 0.0000 0.0000 0.0000
# 4 0.0000 0.0000 0.0000 31.1707 0.0000 0.0000
# 5 0.0000 0.0000 0.0000 0.0000 37.7743 0.0000
# 6 0.0000 0.0000 0.0000 0.0000 0.0000 24.2114
#
#
#
# Elastic Compliance Matrix: (Units=1/GPa)
#
#
# Indices 1 2 3 4 5 6 
#
# 1 0.012862 -0.006042 -0.002871 0.000000 0.000000 0.000000
# 2 -0.006042 0.015793 -0.002949 0.000000 0.000000 0.000000
# 3 -0.002871 -0.002949 0.020095 0.000000 0.000000 0.000000
# 4 0.000000 0.000000 0.000000 0.032081 0.000000 0.000000
# 5 0.000000 0.000000 0.000000 0.000000 0.026473 0.000000
# 6 0.000000 0.000000 0.000000 0.000000 0.000000 0.041303
#
#
# Mechanical properties :
#
#
# Convention : Reuss Voigt Hill
#
# Bulk Modulus (GPa) = 39.95881 45.20455 42.58168
# Shear Modulus (GPa) = 27.67414 29.22132 28.44773
#
# Velocity S-wave (km/s) = 3.60200 3.70132 3.65200
# Velocity P-wave (km/s) = 6.00275 6.28168 6.14380
#
# Compressibility (1/GPa) = 0.02502577
#
# Stress axis : x y z
#
# Youngs Moduli (GPa) = 77.74927 63.31884 49.76282
#
# Poissons Ratio (x) = 0.38255 0.14288
# Poissons Ratio (y) = 0.46973 0.14677
# Poissons Ratio (z) = 0.22324 0.18675
#
# Static dielectric constant tensor:
#      x y z
#    x 4.163280 0.000000 0.000000 
#    y 0.000000 3.815610 0.000000 
#    z 0.000000 0.000000 3.918060 
# 
# 
# High freq. dielectric constant tensor:
#      x y z
#    x 1.833290 0.000000 0.000000 
#    y 0.000000 1.839010 0.000000 
#    z 0.000000 0.000000 1.829720 
# 
# From -- ./inp_files/16518.got.cif
#   From: 2010.03.12/outbox.cif.g09.slc.cpg/sg70_9_cif.got.tgz:16518.got - 2010.04.16 13:46:32.
