data_PCOD8286875
_publ_section_title
;
Structure prediction by ZEFSAII (Michael W. Deem and Ramdas Pophale) SiO2 
 PCOD8286875
Probable space group: I M M M
;
_chemical_formula_sum "Si O2"
_cell_formula_units_Z 68
_cell_length_a 11.487674
_cell_length_b 34.022427
_cell_length_c 9.789137
_cell_angle_alpha 90.000000
_cell_angle_beta 90.000000
_cell_angle_gamma 90.000000
_cell_volume 3825.972111
_symmetry_space_group_name_H-M "I M M M"
_symmetry_group_IT_number 71
_symmetry_cell_setting 'orthorhombic'
loop_
_space_group_symop_operation_xyz
x,y,z
-x,-y,z
x,-y,-z
-x,y,-z
-x,-y,-z
x,y,-z
-x,y,z
x,-y,z
1/2+x,1/2+y,1/2+z
1/2-x,1/2-y,1/2+z
1/2+x,1/2-y,1/2-z
1/2-x,1/2+y,1/2-z
1/2-x,1/2-y,1/2-z
1/2+x,1/2+y,1/2-z
1/2-x,1/2+y,1/2+z
1/2+x,1/2-y,1/2+z
loop_
_atom_site_type_symbol
_atom_site_label
_atom_site_fract_x
_atom_site_fract_y
_atom_site_fract_z
Si Si1 0.249997 0.196794 0.000000
Si Si2 0.770936 0.162781 0.292596
Si Si3 0.865181 0.615503 0.000000
Si Si4 0.500000 0.457093 0.776917
Si Si5 0.500000 0.689233 0.500000
Si Si6 0.500000 0.626400 0.734253
Si Si7 0.862824 0.221868 0.500000
Si Si8 0.195007 0.043252 0.500000
O O1 0.264552 0.169672 0.134564
O O2 0.117660 0.215151 0.000000
O O3 0.343084 0.231406 0.000000
O O4 0.663534 0.141493 0.366087
O O5 0.881376 0.133761 0.318464
O O6 0.803068 0.204151 0.364329
O O7 0.797709 0.574527 0.000000
O O8 0.000000 0.605194 0.000000
O O9 0.500000 0.500000 0.701401
O O10 0.500000 0.418786 0.677127
O O11 0.614777 0.452770 0.867279
O O12 0.500000 0.660269 0.625078
O O13 0.000000 0.213534 0.500000
O O14 0.253387 0.000000 0.500000
#
# Coordination Sequence:
#
# PCOD8286875 Si02
#       8
#     8  16   8   8   4   8   8   8
#     4  10  21  39  54  74 105 138 173 217 262 322
#     4  10  21  36  55  77 103 136 177 215 266 314
#     4  11  22  34  51  79 107 135 178 216 255 307
#     4   9  16  26  51  83 103 130 167 214 263 304
#     4   8  20  32  51  78  98 138 176 208 263 316
#     4  10  15  32  56  72 104 135 172 213 256 318
#     4  11  21  34  54  78  99 138 179 218 266 314
#     4   9  17  29  48  76 107 135 165 208 259 303
#
# _framework density 17.773258999999999
#
# number of rings (size 3 to 8) (size 9 to 14) (size 15 to 20)
#    0.000    2.118    3.529    1.412    0.000    1.176 
#    4.235    0.294    0.000    0.000    0.000    0.824 
#    0.000    1.882    0.000    0.000    0.000    0.000 
#
# Total GULP energy -421250.735566 kJ/mol
# GULP energy per Si atom -12389.727517 kJ/mol
# Density = 1.773281 g / cm^3
# Si number density = 17.773259 Si / 1000 Ang^3
#
#
#
# Elastic Constant Matrix: (Units=GPa)
#
#
# Indices 1 2 3 4 5 6 
#
# 1 100.9951 41.0029 25.7375 -0.0007 0.0001 0.0002
# 2 41.0029 113.4877 29.1917 -0.0010 0.0004 -0.0003
# 3 25.7375 29.1917 92.5898 0.0015 -0.0012 -0.0012
# 4 -0.0007 -0.0010 0.0015 35.3259 -0.0010 -0.0011
# 5 0.0001 0.0004 -0.0012 -0.0010 14.9966 0.0002
# 6 0.0002 -0.0003 -0.0012 -0.0011 0.0002 29.6519
#
#
#
# Elastic Compliance Matrix: (Units=1/GPa)
#
#
# Indices 1 2 3 4 5 6 
#
# 1 0.011981 -0.003778 -0.002139 0.000000 0.000000 0.000000
# 2 -0.003778 0.010781 -0.002349 0.000000 0.000000 0.000000
# 3 -0.002139 -0.002349 0.012135 -0.000001 0.000001 0.000000
# 4 0.000000 0.000000 -0.000001 0.028308 0.000002 0.000001
# 5 0.000000 0.000000 0.000001 0.000002 0.066682 0.000000
# 6 0.000000 0.000000 0.000000 0.000001 0.000000 0.033725
#
#
# Mechanical properties :
#
#
# Convention : Reuss Voigt Hill
#
# Bulk Modulus (GPa) = 54.45256 55.43744 54.94500
# Shear Modulus (GPa) = 26.84355 30.07092 28.45724
#
# Velocity S-wave (km/s) = 3.89052 4.11776 4.00575
# Velocity P-wave (km/s) = 7.13340 7.33942 7.23714
#
# Compressibility (1/GPa) = 0.01836461
#
# Stress axis : x y z
#
# Youngs Moduli (GPa) = 83.46869 92.75771 82.40343
#
# Poissons Ratio (x) = 0.35047 0.17626
# Poissons Ratio (y) = 0.31537 0.19354
# Poissons Ratio (z) = 0.17854 0.21786
#
# Static dielectric constant tensor:
#      x y z
#    x 3.316120 0.000000 0.000000 
#    y 0.000000 3.323950 0.000000 
#    z 0.000000 0.000000 3.074630 
# 
# 
# High freq. dielectric constant tensor:
#      x y z
#    x 1.671300 0.000000 0.000000 
#    y 0.000000 1.688750 0.000000 
#    z 0.000000 0.000000 1.670260 
# 
# From -- ./inp_files/19963.got.cif
#   From: 2010.06.25/outbox.cif.g09.slc.cpg/sg71_10_cif.got.tgz:19963.got - 2010.06.28 04:59:45.
