data_PCOD8286947
_publ_section_title
;
Structure prediction by ZEFSAII (Michael W. Deem and Ramdas Pophale) SiO2 
 PCOD8286947
Probable space group: I M M M
;
_chemical_formula_sum "Si O2"
_cell_formula_units_Z 120
_cell_length_a 13.980982
_cell_length_b 23.226238
_cell_length_c 24.077443
_cell_angle_alpha 90.000000
_cell_angle_beta 90.000000
_cell_angle_gamma 90.000000
_cell_volume 7818.562496
_symmetry_space_group_name_H-M "I M M M"
_symmetry_group_IT_number 71
_symmetry_cell_setting 'orthorhombic'
loop_
_space_group_symop_operation_xyz
x,y,z
-x,-y,z
x,-y,-z
-x,y,-z
-x,-y,-z
x,y,-z
-x,y,z
x,-y,z
1/2+x,1/2+y,1/2+z
1/2-x,1/2-y,1/2+z
1/2+x,1/2-y,1/2-z
1/2-x,1/2+y,1/2-z
1/2-x,1/2-y,1/2-z
1/2+x,1/2+y,1/2-z
1/2-x,1/2+y,1/2+z
1/2+x,1/2-y,1/2+z
loop_
_atom_site_type_symbol
_atom_site_label
_atom_site_fract_x
_atom_site_fract_y
_atom_site_fract_z
Si Si1 0.273375 0.390352 0.434091
Si Si2 0.714259 0.067815 0.631339
Si Si3 0.893950 0.068212 0.437592
Si Si4 0.893278 0.000000 0.065849
Si Si5 0.606732 0.717793 0.433813
Si Si6 0.110767 0.566784 0.637835
Si Si7 0.605844 0.932170 0.738407
Si Si8 0.387743 0.842649 0.439345
O O1 0.258557 0.391210 0.500000
O O2 0.339086 0.443091 0.413477
O O3 0.322121 0.331664 0.412601
O O4 0.170429 0.395103 0.405327
O O5 0.818803 0.088931 0.609801
O O6 0.691392 0.084007 0.695488
O O7 0.635928 0.102406 0.597232
O O8 0.699848 0.000000 0.620365
O O9 0.865195 0.089444 0.500000
O O10 0.000000 0.091934 0.422295
O O11 0.896470 0.000000 0.437761
O O12 0.000000 0.000000 0.091346
O O13 0.899208 0.000000 0.000000
O O14 0.602031 0.717083 0.500000
O O15 0.500000 0.705690 0.410165
O O16 0.646271 0.780672 0.414178
O O17 0.138676 0.500000 0.630839
O O18 0.133979 0.589557 0.700167
O O19 0.000000 0.576329 0.623889
O O20 0.500000 0.907547 0.720993
O O21 0.594855 0.000000 0.741710
O O22 0.341060 0.852125 0.500000
O O23 0.500000 0.838042 0.445467
#
# Coordination Sequence:
#
# PCOD8286947 Si02
#       8
#    16  16  16   8  16  16  16  16
#     4  10  17  26  43  65  84 108 140 175 211 251
#     4  10  17  25  42  65  84 108 144 187 219 246
#     4   8  14  24  37  55  80 108 137 169 209 256
#     4   9  16  24  37  63  91 105 122 162 210 249
#     4   8  15  28  43  58  82 118 148 165 195 254
#     4   9  17  29  43  61  88 117 140 170 212 263
#     4   8  15  27  41  58  82 114 145 170 208 263
#     4   9  17  27  39  60  90 117 139 168 211 260
#
# _framework density 15.348089999999999
#
# number of rings (size 3 to 8) (size 9 to 14) (size 15 to 20)
#    0.000    3.133    0.667    3.200    0.000    3.467 
#    0.000    1.333    0.000    3.200    0.000    1.867 
#    0.000    0.000    0.000    0.000    0.000    0.000 
#
# Total GULP energy -743326.120597 kJ/mol
# GULP energy per Si atom -12388.768677 kJ/mol
# Density = 1.531316 g / cm^3
# Si number density = 15.348090 Si / 1000 Ang^3
#
#
#
# Elastic Constant Matrix: (Units=GPa)
#
#
# Indices 1 2 3 4 5 6 
#
# 1 81.1234 27.8446 45.6391 0.0000 0.0000 0.0000
# 2 27.8446 62.8197 22.2635 0.0000 0.0000 0.0000
# 3 45.6391 22.2635 60.9278 0.0000 0.0000 0.0000
# 4 0.0000 0.0000 0.0000 8.3752 0.0000 0.0000
# 5 0.0000 0.0000 0.0000 0.0000 21.8797 0.0000
# 6 0.0000 0.0000 0.0000 0.0000 0.0000 15.7020
#
#
#
# Elastic Compliance Matrix: (Units=1/GPa)
#
#
# Indices 1 2 3 4 5 6 
#
# 1 0.022393 -0.004573 -0.015103 0.000000 0.000000 0.000000
# 2 -0.004573 0.019221 -0.003598 0.000000 0.000000 0.000000
# 3 -0.015103 -0.003598 0.029041 0.000000 0.000000 0.000000
# 4 0.000000 0.000000 0.000000 0.119400 0.000000 0.000000
# 5 0.000000 0.000000 0.000000 0.000000 0.045704 0.000000
# 6 0.000000 0.000000 0.000000 0.000000 0.000000 0.063686
#
#
# Mechanical properties :
#
#
# Convention : Reuss Voigt Hill
#
# Bulk Modulus (GPa) = 41.48215 44.04058 42.76136
# Shear Modulus (GPa) = 14.12313 16.46630 15.29471
#
# Velocity S-wave (km/s) = 3.03675 3.27900 3.16020
# Velocity P-wave (km/s) = 6.27551 6.56450 6.42163
#
# Compressibility (1/GPa) = 0.02410675
#
# Stress axis : x y z
#
# Youngs Moduli (GPa) = 44.65589 52.02734 34.43429
#
# Poissons Ratio (x) = 0.23793 0.52007
# Poissons Ratio (y) = 0.20422 0.12388
# Poissons Ratio (z) = 0.67444 0.18718
#
# Static dielectric constant tensor:
#      x y z
#    x 3.023020 0.000000 0.000000 
#    y 0.000000 2.850510 0.000000 
#    z 0.000000 0.000000 2.861060 
# 
# 
# High freq. dielectric constant tensor:
#      x y z
#    x 1.584490 0.000000 0.000000 
#    y 0.000000 1.559950 0.000000 
#    z 0.000000 0.000000 1.559370 
# 
# From -- ./inp_files/60286.got.cif
#   From: 2010.06.25/outbox.cif.g09.slc.cpg/sg71_31_cif.got.tgz:60286.got - 2010.06.28 04:59:45.
