data_PCOD8286996
_publ_section_title
;
Structure prediction by ZEFSAII (Michael W. Deem and Ramdas Pophale) SiO2 
 PCOD8286996
Probable space group: I M M M
;
_chemical_formula_sum "Si O2"
_cell_formula_units_Z 64
_cell_length_a 12.703620
_cell_length_b 23.436114
_cell_length_c 14.075631
_cell_angle_alpha 90.000000
_cell_angle_beta 90.000000
_cell_angle_gamma 90.000000
_cell_volume 4190.645936
_symmetry_space_group_name_H-M "I M M M"
_symmetry_group_IT_number 71
_symmetry_cell_setting 'orthorhombic'
loop_
_space_group_symop_operation_xyz
x,y,z
-x,-y,z
x,-y,-z
-x,y,-z
-x,-y,-z
x,y,-z
-x,y,z
x,-y,z
1/2+x,1/2+y,1/2+z
1/2-x,1/2-y,1/2+z
1/2+x,1/2-y,1/2-z
1/2-x,1/2+y,1/2-z
1/2-x,1/2-y,1/2-z
1/2+x,1/2+y,1/2-z
1/2-x,1/2+y,1/2+z
1/2+x,1/2-y,1/2+z
loop_
_atom_site_type_symbol
_atom_site_label
_atom_site_fract_x
_atom_site_fract_y
_atom_site_fract_z
Si Si1 0.879981 0.936304 0.680399
Si Si2 0.236662 0.245065 0.605828
Si Si3 0.262138 0.063234 0.500000
Si Si4 0.119664 0.670218 0.000000
Si Si5 0.378439 0.317664 0.266885
O O1 0.808592 0.923720 0.590463
O O2 0.859302 0.885699 0.755476
O O3 0.000000 0.933432 0.645020
O O4 0.856245 0.000000 0.723303
O O5 0.192479 0.261760 0.500000
O O6 0.325859 0.196214 0.594288
O O7 0.295492 0.299251 0.652317
O O8 0.144259 0.219269 0.671258
O O9 0.365267 0.102399 0.500000
O O10 0.307455 0.000000 0.500000
O O11 0.000000 0.687675 0.000000
O O12 0.500000 0.306180 0.295760
#
# Coordination Sequence:
#
# PCOD8286996 Si02
#       5
#    16  16   8   8  16
#     4   9  16  26  42  64  89 114 141 178 224 267
#     4   9  19  32  44  66  91 120 147 180 223 267
#     4  10  17  27  40  61  89 117 146 180 217 264
#     4  10  18  30  43  58  85 121 149 176 218 265
#     4  10  18  29  48  69  90 117 150 183 219 263
#
# _framework density 15.272109
#
# number of rings (size 3 to 8) (size 9 to 14) (size 15 to 20)
#    0.750    1.750    2.500    1.125    0.000    2.250 
#    0.000    0.000    0.000    0.750    0.000    3.500 
#    0.000    0.000    0.000    6.500    0.000    0.000 
#
# Total GULP energy -396431.795313 kJ/mol
# GULP energy per Si atom -12388.493604 kJ/mol
# Density = 1.523735 g / cm^3
# Si number density = 15.272109 Si / 1000 Ang^3
#
#
#
# Elastic Constant Matrix: (Units=GPa)
#
#
# Indices 1 2 3 4 5 6 
#
# 1 31.5210 16.8766 -2.9517 0.0000 0.0000 0.0000
# 2 16.8766 91.7202 19.3442 0.0001 0.0000 0.0000
# 3 -2.9517 19.3442 55.4537 0.0002 0.0001 0.0000
# 4 0.0000 0.0001 0.0002 18.8204 0.0000 0.0000
# 5 0.0000 0.0000 0.0001 0.0000 18.2577 0.0000
# 6 0.0000 0.0000 0.0000 0.0000 0.0000 24.7558
#
#
#
# Elastic Compliance Matrix: (Units=1/GPa)
#
#
# Indices 1 2 3 4 5 6 
#
# 1 0.036244 -0.007638 0.004594 0.000000 0.000000 0.000000
# 2 -0.007638 0.013378 -0.005073 0.000000 0.000000 0.000000
# 3 0.004594 -0.005073 0.020047 0.000000 0.000000 0.000000
# 4 0.000000 0.000000 0.000000 0.053134 0.000000 0.000000
# 5 0.000000 0.000000 0.000000 0.000000 0.054771 0.000000
# 6 0.000000 0.000000 0.000000 0.000000 0.000000 0.040395
#
#
# Mechanical properties :
#
#
# Convention : Reuss Voigt Hill
#
# Bulk Modulus (GPa) = 18.71443 27.24812 22.98127
# Shear Modulus (GPa) = 19.83998 22.06182 20.95090
#
# Velocity S-wave (km/s) = 3.60821 3.80489 3.70786
# Velocity P-wave (km/s) = 5.44422 6.09782 5.78026
#
# Compressibility (1/GPa) = 0.05343471
#
# Stress axis : x y z
#
# Youngs Moduli (GPa) = 27.59048 74.74914 49.88196
#
# Poissons Ratio (x) = 0.57092 -0.22914
# Poissons Ratio (y) = 0.21073 0.25307
# Poissons Ratio (z) = -0.12674 0.37922
#
# Static dielectric constant tensor:
#      x y z
#    x 2.723470 0.000000 0.000000 
#    y 0.000000 3.079040 0.000000 
#    z 0.000000 0.000000 2.708870 
# 
# 
# High freq. dielectric constant tensor:
#      x y z
#    x 1.571590 0.000000 0.000000 
#    y 0.000000 1.590020 0.000000 
#    z 0.000000 0.000000 1.556940 
# 
# From -- ./inp_files/34203.got.cif
#   From: 2010.06.25/outbox.cif.g09.slc.cpg/sg71_18_cif.got.tgz:34203.got - 2010.06.28 04:59:45.
