data_PCOD8286403
_publ_section_title
;
Structure prediction by ZEFSAII (Michael W. Deem and Ramdas Pophale) SiO2 
 PCOD8286403
Probable space group: F D D D
;
_chemical_formula_sum "Si O2"
_cell_formula_units_Z 168
_cell_length_a 26.437192
_cell_length_b 11.482849
_cell_length_c 27.398420
_cell_angle_alpha 90.000000
_cell_angle_beta 90.000000
_cell_angle_gamma 90.000000
_cell_volume 8317.455727
_symmetry_space_group_name_H-M "F D D D"
_symmetry_group_IT_number 70
_space_group.IT_coordinate_system_code '2'
_symmetry_cell_setting 'orthorhombic'
loop_
_space_group_symop_operation_xyz
x,y,z
1/4-x,1/4-y,z
x,1/4-y,1/4-z
1/4-x,y,1/4-z
-x,-y,-z
3/4+x,3/4+y,-z
-x,3/4+y,3/4+z
3/4+x,-y,3/4+z
x,1/2+y,1/2+z
1/4-x,3/4-y,1/2+z
x,3/4-y,3/4-z
1/4-x,1/2+y,3/4-z
-x,1/2-y,1/2-z
3/4+x,1/4+y,1/2-z
-x,1/4+y,1/4+z
3/4+x,1/2-y,1/4+z
1/2+x,y,1/2+z
3/4-x,1/4-y,1/2+z
1/2+x,1/4-y,3/4-z
3/4-x,y,3/4-z
1/2-x,-y,1/2-z
1/4+x,3/4+y,1/2-z
1/2-x,3/4+y,1/4+z
1/4+x,-y,1/4+z
1/2+x,1/2+y,z
3/4-x,3/4-y,z
1/2+x,3/4-y,1/4-z
3/4-x,1/2+y,1/4-z
1/2-x,1/2-y,-z
1/4+x,1/4+y,-z
1/2-x,1/4+y,3/4+z
1/4+x,1/2-y,3/4+z
loop_
_atom_site_type_symbol
_atom_site_label
_atom_site_fract_x
_atom_site_fract_y
_atom_site_fract_z
Si Si1 0.625000 0.125000 0.295087
Si Si2 0.968963 0.873982 0.615917
Si Si3 0.061590 0.875000 0.375000
Si Si4 0.139026 0.879422 0.772558
Si Si5 0.779947 0.697312 0.043588
Si Si6 0.797294 0.241620 0.309351
Si Si7 0.625000 0.125000 0.625000
O O1 0.672523 0.153856 0.329918
O O2 0.614257 0.233538 0.258279
O O3 0.965911 0.784984 0.661091
O O4 0.022802 0.865008 0.588582
O O5 0.970790 0.008096 0.633120
O O6 0.097345 0.885911 0.421035
O O7 0.084646 0.820599 0.769543
O O8 0.180138 0.806442 0.741564
O O9 0.750157 0.579817 0.056600
O O10 0.750000 0.750000 0.000000
O O11 0.842484 0.294037 0.340248
#
# Coordination Sequence:
#
# PCOD8286403 Si02
#       7
#    16  32  16  32  32  32   8
#     4  10  22  42  73  93 136 178 226 286 348 406
#     4  11  22  43  66 100 132 181 224 288 344 412
#     4  10  24  41  70  97 136 171 233 286 344 404
#     4  11  24  43  65 106 131 180 229 292 340 419
#     4  12  23  41  68  98 134 179 232 283 342 415
#     4  12  25  42  68  99 141 175 232 281 356 408
#     4  12  24  46  66 102 140 188 220 296 342 412
#
# _framework density 20.198484000000001
#
# number of rings (size 3 to 8) (size 9 to 14) (size 15 to 20)
#    0.000    0.762    3.810    4.571    0.000    4.571 
#    3.429    0.000    0.000    0.000    0.000    0.000 
#    0.000    0.000    0.000    0.000    0.000    0.000 
#
# Total GULP energy -520569.628635 kJ/mol
# GULP energy per Si atom -12394.514967 kJ/mol
# Density = 2.015251 g / cm^3
# Si number density = 20.198484 Si / 1000 Ang^3
#
#
#
# Elastic Constant Matrix: (Units=GPa)
#
#
# Indices 1 2 3 4 5 6 
#
# 1 122.6983 50.7902 34.3096 0.0000 0.0000 0.0000
# 2 50.7902 139.6400 31.4288 0.0000 0.0000 0.0000
# 3 34.3096 31.4288 67.2248 0.0000 0.0000 0.0000
# 4 0.0000 0.0000 0.0000 -149.6129 0.0000 0.0000
# 5 0.0000 0.0000 0.0000 0.0000 49.0175 0.0000
# 6 0.0000 0.0000 0.0000 0.0000 0.0000 40.8696
#
#
#
# Elastic Compliance Matrix: (Units=1/GPa)
#
#
# Indices 1 2 3 4 5 6 
#
# 1 0.010469 -0.002912 -0.003982 0.000000 0.000000 0.000000
# 2 -0.002912 0.008813 -0.002634 0.000000 0.000000 0.000000
# 3 -0.003982 -0.002634 0.018139 0.000000 0.000000 0.000000
# 4 0.000000 0.000000 0.000000 -0.006684 0.000000 0.000000
# 5 0.000000 0.000000 0.000000 0.000000 0.020401 0.000000
# 6 0.000000 0.000000 0.000000 0.000000 0.000000 0.024468
#
#
# Mechanical properties :
#
#
# Convention : Reuss Voigt Hill
#
# Bulk Modulus (GPa) = 54.44884 62.51337 58.48110
# Shear Modulus (GPa) = 49.61142 2.25714 25.93428
#
# Velocity S-wave (km/s) = 4.96138 1.05826 3.58714
# Velocity P-wave (km/s) = 7.73536 5.70175 6.79506
#
# Compressibility (1/GPa) = 0.01836587
#
# Stress axis : x y z
#
# Youngs Moduli (GPa) = 95.52309 113.46644 55.12918
#
# Poissons Ratio (x) = 0.33036 0.21951
# Poissons Ratio (y) = 0.27812 0.14523
# Poissons Ratio (z) = 0.38035 0.29891
#
# Static dielectric constant tensor:
#      x y z
#    x 3.689940 0.000000 0.000000 
#    y 0.000000 4.447640 0.000000 
#    z 0.000000 0.000000 3.305330 
# 
# 
# High freq. dielectric constant tensor:
#      x y z
#    x 1.796380 0.000000 0.000000 
#    y 0.000000 1.807590 0.000000 
#    z 0.000000 0.000000 1.779500 
# 
# From -- ./inp_files/67819.got.cif
#   From: 2010.03.12/outbox.cif.g09.slc.cpg/sg70_34_cif.got.tgz:67819.got - 2010.04.16 13:46:32.
