data_PCOD8286153
_publ_section_title
;
Structure prediction by ZEFSAII (Michael W. Deem and Ramdas Pophale) SiO2 
 PCOD8286153
Probable space group: F D D D
;
_chemical_formula_sum "Si O2"
_cell_formula_units_Z 72
_cell_length_a 30.283894
_cell_length_b 5.003476
_cell_length_c 20.298616
_cell_angle_alpha 90.000000
_cell_angle_beta 90.000000
_cell_angle_gamma 90.000000
_cell_volume 3075.742447
_symmetry_space_group_name_H-M "F D D D"
_symmetry_group_IT_number 70
_space_group.IT_coordinate_system_code '2'
_symmetry_cell_setting 'orthorhombic'
loop_
_space_group_symop_operation_xyz
x,y,z
1/4-x,1/4-y,z
x,1/4-y,1/4-z
1/4-x,y,1/4-z
-x,-y,-z
3/4+x,3/4+y,-z
-x,3/4+y,3/4+z
3/4+x,-y,3/4+z
x,1/2+y,1/2+z
1/4-x,3/4-y,1/2+z
x,3/4-y,3/4-z
1/4-x,1/2+y,3/4-z
-x,1/2-y,1/2-z
3/4+x,1/4+y,1/2-z
-x,1/4+y,1/4+z
3/4+x,1/2-y,1/4+z
1/2+x,y,1/2+z
3/4-x,1/4-y,1/2+z
1/2+x,1/4-y,3/4-z
3/4-x,y,3/4-z
1/2-x,-y,1/2-z
1/4+x,3/4+y,1/2-z
1/2-x,3/4+y,1/4+z
1/4+x,-y,1/4+z
1/2+x,1/2+y,z
3/4-x,3/4-y,z
1/2+x,3/4-y,1/4-z
3/4-x,1/2+y,1/4-z
1/2-x,1/2-y,-z
1/4+x,1/4+y,-z
1/2-x,1/4+y,3/4+z
1/4+x,1/2-y,3/4+z
loop_
_atom_site_type_symbol
_atom_site_label
_atom_site_fract_x
_atom_site_fract_y
_atom_site_fract_z
Si Si1 0.542730 0.995380 0.305984
Si Si2 0.875000 0.375000 0.375000
Si Si3 0.943927 0.518360 0.275134
O O1 0.559620 0.875000 0.375000
O O2 0.555666 0.784704 0.250096
O O3 0.565604 0.275170 0.285080
O O4 0.490870 0.068229 0.310180
O O5 0.905890 0.560288 0.329213
#
# Coordination Sequence:
#
# PCOD8286153 Si02
#       3
#    32   8  32
#     4  10  20  42  62  95 124 183 218 267 318 428
#     4  12  24  46  60 110 132 178 216 308 320 418
#     4  10  23  36  67  92 134 169 222 269 342 378
#
# _framework density 23.408981000000001
#
# number of rings (size 3 to 8) (size 9 to 14) (size 15 to 20)
#    0.000    1.778    2.222    1.333    0.000    5.333 
#    0.000    4.444    0.000    0.000    0.000    0.000 
#    0.000    0.000    0.000    0.000    0.000    0.000 
#
# Total GULP energy -223173.911771 kJ/mol
# GULP energy per Si atom -12398.550654 kJ/mol
# Density = 2.335570 g / cm^3
# Si number density = 23.408981 Si / 1000 Ang^3
#
#
#
# Elastic Constant Matrix: (Units=GPa)
#
#
# Indices 1 2 3 4 5 6 
#
# 1 98.1321 41.9581 66.5338 -0.0010 0.0029 0.0072
# 2 41.9581 121.3342 35.3255 -0.0102 0.0077 0.0069
# 3 66.5338 35.3255 133.1606 -0.0073 0.0021 0.0013
# 4 -0.0010 -0.0102 -0.0073 45.5027 0.0035 0.0010
# 5 0.0029 0.0077 0.0021 0.0035 49.4941 -0.0012
# 6 0.0072 0.0069 0.0013 0.0010 -0.0012 12.8742
#
#
#
# Elastic Compliance Matrix: (Units=1/GPa)
#
#
# Indices 1 2 3 4 5 6 
#
# 1 0.016775 -0.003642 -0.007416 -0.000002 0.000000 -0.000007
# 2 -0.003642 0.009722 -0.000759 0.000002 -0.000001 -0.000003
# 3 -0.007416 -0.000759 0.011416 0.000002 0.000000 0.000003
# 4 -0.000002 0.000002 0.000002 0.021977 -0.000002 -0.000002
# 5 0.000000 -0.000001 0.000000 -0.000002 0.020204 0.000002
# 6 -0.000007 -0.000003 0.000003 -0.000002 0.000002 0.077675
#
#
# Mechanical properties :
#
#
# Convention : Reuss Voigt Hill
#
# Bulk Modulus (GPa) = 70.02876 71.14017 70.58447
# Shear Modulus (GPa) = 26.85802 35.49484 31.17643
#
# Velocity S-wave (km/s) = 3.39091 3.89818 3.65336
# Velocity P-wave (km/s) = 6.73137 7.12160 6.92923
#
# Compressibility (1/GPa) = 0.01427985
#
# Stress axis : x y z
#
# Youngs Moduli (GPa) = 59.61111 102.85705 87.59301
#
# Poissons Ratio (x) = 0.37461 0.64956
# Poissons Ratio (y) = 0.21710 0.06652
# Poissons Ratio (z) = 0.44206 0.07811
#
# Static dielectric constant tensor:
#      x y z
#    x 4.102500 0.000010 0.000000 
#    y 0.000010 4.191880 -0.000010 
#    z 0.000000 -0.000010 4.054580 
# 
# 
# High freq. dielectric constant tensor:
#      x y z
#    x 1.901900 0.000000 0.000000 
#    y 0.000000 1.926730 0.000000 
#    z 0.000000 0.000000 1.922450 
# 
# From -- ./inp_files/1718.got.cif
#   From: 2010.03.12/outbox.cif.g09.slc.cpg/sg70_1_cif.got.tgz:1718.got - 2010.04.16 13:46:32.
