data_PCOD8286384
_publ_section_title
;
Structure prediction by ZEFSAII (Michael W. Deem and Ramdas Pophale) SiO2 
 PCOD8286384
Probable space group: F D D D
;
_chemical_formula_sum "Si O2"
_cell_formula_units_Z 200
_cell_length_a 17.424940
_cell_length_b 26.226486
_cell_length_c 21.318595
_cell_angle_alpha 90.000000
_cell_angle_beta 90.000000
_cell_angle_gamma 90.000000
_cell_volume 9742.490149
_symmetry_space_group_name_H-M "F D D D"
_symmetry_group_IT_number 70
_space_group.IT_coordinate_system_code '2'
_symmetry_cell_setting 'orthorhombic'
loop_
_space_group_symop_operation_xyz
x,y,z
1/4-x,1/4-y,z
x,1/4-y,1/4-z
1/4-x,y,1/4-z
-x,-y,-z
3/4+x,3/4+y,-z
-x,3/4+y,3/4+z
3/4+x,-y,3/4+z
x,1/2+y,1/2+z
1/4-x,3/4-y,1/2+z
x,3/4-y,3/4-z
1/4-x,1/2+y,3/4-z
-x,1/2-y,1/2-z
3/4+x,1/4+y,1/2-z
-x,1/4+y,1/4+z
3/4+x,1/2-y,1/4+z
1/2+x,y,1/2+z
3/4-x,1/4-y,1/2+z
1/2+x,1/4-y,3/4-z
3/4-x,y,3/4-z
1/2-x,-y,1/2-z
1/4+x,3/4+y,1/2-z
1/2-x,3/4+y,1/4+z
1/4+x,-y,1/4+z
1/2+x,1/2+y,z
3/4-x,3/4-y,z
1/2+x,3/4-y,1/4-z
3/4-x,1/2+y,1/4-z
1/2-x,1/2-y,-z
1/4+x,1/4+y,-z
1/2-x,1/4+y,3/4+z
1/4+x,1/2-y,3/4+z
loop_
_atom_site_type_symbol
_atom_site_label
_atom_site_fract_x
_atom_site_fract_y
_atom_site_fract_z
Si Si1 0.375000 0.629924 0.875000
Si Si2 0.635024 0.756705 0.456140
Si Si3 0.485118 0.681010 0.795754
Si Si4 0.710404 0.931936 0.858309
Si Si5 0.132562 0.947812 0.233346
Si Si6 0.717510 0.079513 0.018393
Si Si7 0.125000 0.721054 0.625000
Si Si8 0.125000 0.125000 0.625000
O O1 0.450176 0.663205 0.861699
O O2 0.353551 0.598540 0.813503
O O3 0.712518 0.728383 0.435292
O O4 0.662640 0.801771 0.502539
O O5 0.592415 0.779284 0.396519
O O6 0.579437 0.714592 0.484827
O O7 0.534996 0.634883 0.765773
O O8 0.683344 0.875000 0.875000
O O9 0.700364 0.946845 0.784856
O O10 0.799137 0.936741 0.878122
O O11 0.054414 0.940194 0.272681
O O12 0.130236 0.997580 0.189881
O O13 0.680499 0.087676 0.086251
#
# Coordination Sequence:
#
# PCOD8286384 Si02
#       8
#    16  32  32  32  32  32  16   8
#     4   9  20  41  65  90 132 172 219 273 317 392
#     4  11  23  41  65  97 138 176 218 276 338 406
#     4  10  22  41  64  97 137 176 222 269 333 407
#     4  12  25  43  67  96 132 170 222 280 331 395
#     4  10  23  42  71  92 125 173 223 268 337 387
#     4  11  22  42  64 100 136 178 219 275 332 406
#     4  11  23  48  69  91 126 171 221 282 326 390
#     4  12  24  34  72 102 144 176 220 268 336 416
#
# _framework density 20.528632000000002
#
# number of rings (size 3 to 8) (size 9 to 14) (size 15 to 20)
#    0.000    1.280    3.200    2.640    3.360    1.920 
#    2.880    0.000    0.000    0.000    0.000    0.000 
#    0.000    0.000    0.000    0.000    0.000    0.000 
#
# Total GULP energy -619904.300602 kJ/mol
# GULP energy per Si atom -12398.086012 kJ/mol
# Density = 2.048191 g / cm^3
# Si number density = 20.528632 Si / 1000 Ang^3
#
#
#
# Elastic Constant Matrix: (Units=GPa)
#
#
# Indices 1 2 3 4 5 6 
#
# 1 99.8509 33.8910 58.0582 0.0000 0.0000 0.0000
# 2 33.8910 106.2774 50.7664 0.0000 0.0000 0.0000
# 3 58.0582 50.7664 129.6945 0.0000 0.0000 0.0000
# 4 0.0000 0.0000 0.0000 15.2223 0.0000 0.0000
# 5 0.0000 0.0000 0.0000 0.0000 42.3407 0.0000
# 6 0.0000 0.0000 0.0000 0.0000 0.0000 2.6724
#
#
#
# Elastic Compliance Matrix: (Units=1/GPa)
#
#
# Indices 1 2 3 4 5 6 
#
# 1 0.013809 -0.001784 -0.005483 0.000000 0.000000 0.000000
# 2 -0.001784 0.011804 -0.003822 0.000000 0.000000 0.000000
# 3 -0.005483 -0.003822 0.011661 0.000000 0.000000 0.000000
# 4 0.000000 0.000000 0.000000 0.065693 0.000000 0.000000
# 5 0.000000 0.000000 0.000000 0.000000 0.023618 0.000000
# 6 0.000000 0.000000 0.000000 0.000000 0.000000 0.374194
#
#
# Mechanical properties :
#
#
# Convention : Reuss Voigt Hill
#
# Bulk Modulus (GPa) = 66.24566 69.02824 67.63695
# Shear Modulus (GPa) = 9.46990 24.92089 17.19540
#
# Velocity S-wave (km/s) = 2.15012 3.48797 2.89732
# Velocity P-wave (km/s) = 6.20516 7.06538 6.64919
#
# Compressibility (1/GPa) = 0.01509533
#
# Stress axis : x y z
#
# Youngs Moduli (GPa) = 72.41816 84.71801 85.75707
#
# Poissons Ratio (x) = 0.15117 0.47021
# Poissons Ratio (y) = 0.12922 0.32773
# Poissons Ratio (z) = 0.39707 0.32376
#
# Static dielectric constant tensor:
#      x y z
#    x 3.974170 0.000000 0.000000 
#    y 0.000000 3.931770 0.000000 
#    z 0.000000 0.000000 5.124010 
# 
# 
# High freq. dielectric constant tensor:
#      x y z
#    x 1.811120 0.000000 0.000000 
#    y 0.000000 1.812890 0.000000 
#    z 0.000000 0.000000 1.793560 
# 
# From -- ./inp_files/43977.got.cif
#   From: 2010.03.12/outbox.cif.g09.slc.cpg/sg70_22_cif.got.tgz:43977.got - 2010.04.16 13:46:32.
