data_PCOD8286925
_publ_section_title
;
Structure prediction by ZEFSAII (Michael W. Deem and Ramdas Pophale) SiO2 
 PCOD8286925
Probable space group: I M M M
;
_chemical_formula_sum "Si O2"
_cell_formula_units_Z 96
_cell_length_a 16.919802
_cell_length_b 23.056927
_cell_length_c 18.981657
_cell_angle_alpha 90.000000
_cell_angle_beta 90.000000
_cell_angle_gamma 90.000000
_cell_volume 7405.098206
_symmetry_space_group_name_H-M "I M M M"
_symmetry_group_IT_number 71
_symmetry_cell_setting 'orthorhombic'
loop_
_space_group_symop_operation_xyz
x,y,z
-x,-y,z
x,-y,-z
-x,y,-z
-x,-y,-z
x,y,-z
-x,y,z
x,-y,z
1/2+x,1/2+y,1/2+z
1/2-x,1/2-y,1/2+z
1/2+x,1/2-y,1/2-z
1/2-x,1/2+y,1/2-z
1/2-x,1/2-y,1/2-z
1/2+x,1/2+y,1/2-z
1/2-x,1/2+y,1/2+z
1/2+x,1/2-y,1/2+z
loop_
_atom_site_type_symbol
_atom_site_label
_atom_site_fract_x
_atom_site_fract_y
_atom_site_fract_z
Si Si1 0.912358 0.783479 0.416576
Si Si2 0.809780 0.890845 0.416167
Si Si3 0.843995 0.432563 0.845247
Si Si4 0.500000 0.068958 0.579197
Si Si5 0.906136 0.344753 0.421870
Si Si6 0.408446 0.065968 0.193994
Si Si7 0.587952 0.500000 0.083265
O O1 0.919594 0.787051 0.500000
O O2 0.850812 0.831588 0.390137
O O3 0.881040 0.719468 0.395146
O O4 0.000000 0.795176 0.384469
O O5 0.793994 0.892530 0.500000
O O6 0.728094 0.894951 0.374320
O O7 0.865972 0.943105 0.391440
O O8 0.830311 0.500000 0.864562
O O9 0.853879 0.423796 0.761895
O O10 0.922152 0.407515 0.882464
O O11 0.500000 0.092399 0.500000
O O12 0.500000 0.000000 0.583166
O O13 0.871040 0.357413 0.500000
O O14 0.874662 0.392688 0.367347
O O15 0.000000 0.347491 0.426337
O O16 0.500000 0.079568 0.212814
O O17 0.400674 0.000000 0.167364
O O18 0.500000 0.500000 0.116580
O O19 0.580882 0.500000 0.000000
#
# Coordination Sequence:
#
# PCOD8286925 Si02
#       7
#    16  16  16   8  16  16   8
#     4   8  14  25  39  54  73  97 122 149 184 222
#     4  10  17  24  36  53  73  98 130 161 182 211
#     4  10  17  26  35  50  74 100 129 157 189 217
#     4   9  16  24  36  48  65  97 133 165 187 209
#     4   8  14  25  41  58  73  92 121 151 180 225
#     4   9  16  26  39  54  74  99 122 149 189 226
#     4   9  16  24  34  51  73  95 122 158 191 213
#
# _framework density 12.964041999999999
#
# number of rings (size 3 to 8) (size 9 to 14) (size 15 to 20)
#    0.000    3.000    1.667    2.000    0.000    3.000 
#    0.000    2.500    0.000    0.000    0.000    0.000 
#    0.000    0.000    0.000    0.000    0.000    1.833 
#
# Total GULP energy -594971.194388 kJ/mol
# GULP energy per Si atom -12395.233216 kJ/mol
# Density = 1.293454 g / cm^3
# Si number density = 12.964042 Si / 1000 Ang^3
#
#
#
# Elastic Constant Matrix: (Units=GPa)
#
#
# Indices 1 2 3 4 5 6 
#
# 1 78.0028 42.8680 32.6322 0.0000 0.0000 0.0000
# 2 42.8680 88.7497 43.6405 -0.0001 0.0000 0.0000
# 3 32.6322 43.6405 54.5430 -0.0003 0.0000 0.0000
# 4 0.0000 -0.0001 -0.0003 13.0413 0.0000 0.0000
# 5 0.0000 0.0000 0.0000 0.0000 10.0235 0.0000
# 6 0.0000 0.0000 0.0000 0.0000 0.0000 9.0936
#
#
#
# Elastic Compliance Matrix: (Units=1/GPa)
#
#
# Indices 1 2 3 4 5 6 
#
# 1 0.018775 -0.005845 -0.006556 0.000000 0.000000 0.000000
# 2 -0.005845 0.020396 -0.012822 0.000000 0.000000 0.000000
# 3 -0.006556 -0.012822 0.032516 0.000001 0.000000 0.000000
# 4 0.000000 0.000000 0.000001 0.076680 0.000000 0.000000
# 5 0.000000 0.000000 0.000000 0.000000 0.099766 0.000000
# 6 0.000000 0.000000 0.000000 0.000000 0.000000 0.109967
#
#
# Mechanical properties :
#
#
# Convention : Reuss Voigt Hill
#
# Bulk Modulus (GPa) = 47.08044 51.06409 49.07226
# Shear Modulus (GPa) = 12.03007 13.24200 12.63604
#
# Velocity S-wave (km/s) = 3.04954 3.19947 3.12540
# Velocity P-wave (km/s) = 6.98532 7.28857 7.13856
#
# Compressibility (1/GPa) = 0.02124024
#
# Stress axis : x y z
#
# Youngs Moduli (GPa) = 53.26243 49.02994 30.75448
#
# Poissons Ratio (x) = 0.28657 0.20163
# Poissons Ratio (y) = 0.31131 0.39433
# Poissons Ratio (z) = 0.34920 0.62866
#
# Static dielectric constant tensor:
#      x y z
#    x 2.527850 0.000000 0.000000 
#    y 0.000000 2.713220 0.000000 
#    z 0.000000 0.000000 2.479510 
# 
# 
# High freq. dielectric constant tensor:
#      x y z
#    x 1.471490 0.000000 0.000000 
#    y 0.000000 1.483370 0.000000 
#    z 0.000000 0.000000 1.464810 
# 
# From -- ./inp_files/46542.got.cif
#   From: 2010.06.25/outbox.cif.g09.slc.cpg/sg71_24_cif.got.tgz:46542.got - 2010.06.28 04:59:45.
