data_PCOD8286097
_publ_section_title
;
Structure prediction by ZEFSAII (Michael W. Deem and Ramdas Pophale) SiO2 
 PCOD8286097
Probable space group: F D D D
;
_chemical_formula_sum "Si O2"
_cell_formula_units_Z 176
_cell_length_a 21.294146
_cell_length_b 23.309365
_cell_length_c 16.107527
_cell_angle_alpha 90.000000
_cell_angle_beta 90.000000
_cell_angle_gamma 90.000000
_cell_volume 7995.019695
_symmetry_space_group_name_H-M "F D D D"
_symmetry_group_IT_number 70
_space_group.IT_coordinate_system_code '2'
_symmetry_cell_setting 'orthorhombic'
loop_
_space_group_symop_operation_xyz
x,y,z
1/4-x,1/4-y,z
x,1/4-y,1/4-z
1/4-x,y,1/4-z
-x,-y,-z
3/4+x,3/4+y,-z
-x,3/4+y,3/4+z
3/4+x,-y,3/4+z
x,1/2+y,1/2+z
1/4-x,3/4-y,1/2+z
x,3/4-y,3/4-z
1/4-x,1/2+y,3/4-z
-x,1/2-y,1/2-z
3/4+x,1/4+y,1/2-z
-x,1/4+y,1/4+z
3/4+x,1/2-y,1/4+z
1/2+x,y,1/2+z
3/4-x,1/4-y,1/2+z
1/2+x,1/4-y,3/4-z
3/4-x,y,3/4-z
1/2-x,-y,1/2-z
1/4+x,3/4+y,1/2-z
1/2-x,3/4+y,1/4+z
1/4+x,-y,1/4+z
1/2+x,1/2+y,z
3/4-x,3/4-y,z
1/2+x,3/4-y,1/4-z
3/4-x,1/2+y,1/4-z
1/2-x,1/2-y,-z
1/4+x,1/4+y,-z
1/2-x,1/4+y,3/4+z
1/4+x,1/2-y,3/4+z
loop_
_atom_site_type_symbol
_atom_site_label
_atom_site_fract_x
_atom_site_fract_y
_atom_site_fract_z
Si Si1 0.840821 0.510097 0.952803
Si Si2 0.375000 0.768032 0.375000
Si Si3 0.717317 0.803003 0.238460
Si Si4 0.700571 0.548085 0.273597
Si Si5 0.846127 0.498176 0.634169
Si Si6 0.994232 0.649869 0.379851
O O1 0.875000 0.477847 0.875000
O O2 0.785159 0.473149 0.991874
O O3 0.817423 0.570885 0.917378
O O4 0.892655 0.522859 0.023835
O O5 0.319089 0.729893 0.335531
O O6 0.404322 0.808568 0.304269
O O7 0.676595 0.799402 0.323032
O O8 0.727590 0.867663 0.206325
O O9 0.750000 0.500000 0.250000
O O10 0.661839 0.527114 0.352927
O O11 0.732714 0.607565 0.297472
O O12 0.796004 0.447369 0.639531
#
# Coordination Sequence:
#
# PCOD8286097 Si02
#       6
#    32  16  32  32  32  32
#     4  11  25  45  68  98 141 181 237 297 344 427
#     4  10  20  38  69 102 144 176 224 305 350 410
#     4  10  22  42  69  99 137 182 234 289 351 423
#     4  11  20  38  68 100 142 175 233 295 351 430
#     4  10  23  44  67  98 141 180 228 295 348 421
#     4  11  23  42  72  97 134 198 228 282 367 416
#
# _framework density 22.013705000000002
#
# number of rings (size 3 to 8) (size 9 to 14) (size 15 to 20)
#    0.000    1.455    3.636    0.545    1.273    2.909 
#    0.000   32.727    0.000    0.000    0.000    0.000 
#    0.000    0.000    0.000    0.000    0.000    0.000 
#
# Total GULP energy -545510.693003 kJ/mol
# GULP energy per Si atom -12397.970296 kJ/mol
# Density = 2.196360 g / cm^3
# Si number density = 22.013705 Si / 1000 Ang^3
#
#
#
# Elastic Constant Matrix: (Units=GPa)
#
#
# Indices 1 2 3 4 5 6 
#
# 1 114.3079 53.7966 66.8571 0.0000 0.0000 0.0000
# 2 53.7966 108.3925 57.6058 0.0000 0.0000 0.0000
# 3 66.8571 57.6058 182.9133 0.0000 0.0000 0.0000
# 4 0.0000 0.0000 0.0000 36.8710 0.0000 0.0000
# 5 0.0000 0.0000 0.0000 0.0000 39.7314 0.0000
# 6 0.0000 0.0000 0.0000 0.0000 0.0000 17.5014
#
#
#
# Elastic Compliance Matrix: (Units=1/GPa)
#
#
# Indices 1 2 3 4 5 6 
#
# 1 0.012822 -0.004651 -0.003222 0.000000 0.000000 0.000000
# 2 -0.004651 0.012768 -0.002321 0.000000 0.000000 0.000000
# 3 -0.003222 -0.002321 0.007376 0.000000 0.000000 0.000000
# 4 0.000000 0.000000 0.000000 0.027122 0.000000 0.000000
# 5 0.000000 0.000000 0.000000 0.000000 0.025169 0.000000
# 6 0.000000 0.000000 0.000000 0.000000 0.000000 0.057138
#
#
# Mechanical properties :
#
#
# Convention : Reuss Voigt Hill
#
# Bulk Modulus (GPa) = 79.50903 84.68139 82.09521
# Shear Modulus (GPa) = 29.94478 33.97770 31.96124
#
# Velocity S-wave (km/s) = 3.69220 3.93298 3.81449
# Velocity P-wave (km/s) = 7.37379 7.69256 7.53486
#
# Compressibility (1/GPa) = 0.01257719
#
# Stress axis : x y z
#
# Youngs Moduli (GPa) = 77.99312 78.32252 135.58382
#
# Poissons Ratio (x) = 0.36431 0.43679
# Poissons Ratio (y) = 0.36278 0.31467
# Poissons Ratio (z) = 0.25126 0.18177
#
# Static dielectric constant tensor:
#      x y z
#    x 4.239050 0.000000 0.000000 
#    y 0.000000 3.525680 0.000000 
#    z 0.000000 0.000000 4.331640 
# 
# 
# High freq. dielectric constant tensor:
#      x y z
#    x 1.889250 0.000000 0.000000 
#    y 0.000000 1.829890 0.000000 
#    z 0.000000 0.000000 1.883360 
# 
# From -- ./inp_files/28787.got.cif
#   From: 2010.03.12/outbox.cif.g09.slc.cpg/sg70_15_cif.got.tgz:28787.got - 2010.04.16 13:46:32.
