data_PCOD8286803
_publ_section_title
;
Structure prediction by ZEFSAII (Michael W. Deem and Ramdas Pophale) SiO2 
 PCOD8286803
Probable space group: F D D D
;
_chemical_formula_sum "Si O2"
_cell_formula_units_Z 104
_cell_length_a 17.407849
_cell_length_b 26.951125
_cell_length_c 9.530716
_cell_angle_alpha 90.000000
_cell_angle_beta 90.000000
_cell_angle_gamma 90.000000
_cell_volume 4471.441339
_symmetry_space_group_name_H-M "F D D D"
_symmetry_group_IT_number 70
_space_group.IT_coordinate_system_code '2'
_symmetry_cell_setting 'orthorhombic'
loop_
_space_group_symop_operation_xyz
x,y,z
1/4-x,1/4-y,z
x,1/4-y,1/4-z
1/4-x,y,1/4-z
-x,-y,-z
3/4+x,3/4+y,-z
-x,3/4+y,3/4+z
3/4+x,-y,3/4+z
x,1/2+y,1/2+z
1/4-x,3/4-y,1/2+z
x,3/4-y,3/4-z
1/4-x,1/2+y,3/4-z
-x,1/2-y,1/2-z
3/4+x,1/4+y,1/2-z
-x,1/4+y,1/4+z
3/4+x,1/2-y,1/4+z
1/2+x,y,1/2+z
3/4-x,1/4-y,1/2+z
1/2+x,1/4-y,3/4-z
3/4-x,y,3/4-z
1/2-x,-y,1/2-z
1/4+x,3/4+y,1/2-z
1/2-x,3/4+y,1/4+z
1/4+x,-y,1/4+z
1/2+x,1/2+y,z
3/4-x,3/4-y,z
1/2+x,3/4-y,1/4-z
3/4-x,1/2+y,1/4-z
1/2-x,1/2-y,-z
1/4+x,1/4+y,-z
1/2-x,1/4+y,3/4+z
1/4+x,1/2-y,3/4+z
loop_
_atom_site_type_symbol
_atom_site_label
_atom_site_fract_x
_atom_site_fract_y
_atom_site_fract_z
Si Si1 0.697747 0.370297 0.035081
Si Si2 0.875000 0.375000 0.375000
Si Si3 0.520163 0.526156 0.854553
Si Si4 0.440575 0.450162 0.660965
O O1 0.625000 0.353325 0.125000
O O2 0.731520 0.420154 0.102546
O O3 0.760859 0.326458 0.039175
O O4 0.671776 0.375000 0.875000
O O5 0.820969 0.409934 0.466914
O O6 0.488218 0.495884 0.722938
O O7 0.611867 0.530751 0.842559
O O8 0.500000 0.500000 0.000000
#
# Coordination Sequence:
#
# PCOD8286803 Si02
#       4
#    32   8  32  32
#     4  12  30  50  75 111 157 204 264 331 392 463
#     4  12  20  44  78 108 144 204 244 316 372 464
#     4  12  24  46  80 114 151 205 256 318 386 475
#     4  12  25  45  77 109 156 200 260 309 394 457
#
# _framework density 23.258717999999998
#
# number of rings (size 3 to 8) (size 9 to 14) (size 15 to 20)
#    0.000    0.000    6.154    1.846   10.769    3.692 
#    0.000    0.000    0.000    0.000    0.000    0.000 
#    0.000    0.000    0.000    0.000    0.000    0.000 
#
# Total GULP energy -322608.183500 kJ/mol
# GULP energy per Si atom -12408.007058 kJ/mol
# Density = 2.320578 g / cm^3
# Si number density = 23.258718 Si / 1000 Ang^3
#
#
#
# Elastic Constant Matrix: (Units=GPa)
#
#
# Indices 1 2 3 4 5 6 
#
# 1 177.5795 55.4198 48.3773 0.0000 0.0000 0.0000
# 2 55.4198 96.4034 1.6483 0.0000 0.0000 0.0000
# 3 48.3773 1.6483 79.6004 0.0000 0.0000 0.0000
# 4 0.0000 0.0000 0.0000 27.7855 0.0000 0.0000
# 5 0.0000 0.0000 0.0000 0.0000 42.8560 0.0000
# 6 0.0000 0.0000 0.0000 0.0000 0.0000 46.1952
#
#
#
# Elastic Compliance Matrix: (Units=1/GPa)
#
#
# Indices 1 2 3 4 5 6 
#
# 1 0.008514 -0.004808 -0.005075 0.000000 0.000000 0.000000
# 2 -0.004808 0.013092 0.002651 0.000000 0.000000 0.000000
# 3 -0.005075 0.002651 0.015592 0.000000 0.000000 0.000000
# 4 0.000000 0.000000 0.000000 0.035990 0.000000 0.000000
# 5 0.000000 0.000000 0.000000 0.000000 0.023334 0.000000
# 6 0.000000 0.000000 0.000000 0.000000 0.000000 0.021647
#
#
# Mechanical properties :
#
#
# Convention : Reuss Voigt Hill
#
# Bulk Modulus (GPa) = 43.98659 62.71934 53.35296
# Shear Modulus (GPa) = 35.66039 39.90986 37.78513
#
# Velocity S-wave (km/s) = 3.91986 4.14685 4.03495
# Velocity P-wave (km/s) = 6.28013 7.06774 6.68554
#
# Compressibility (1/GPa) = 0.02273420
#
# Stress axis : x y z
#
# Youngs Moduli (GPa) = 117.44909 76.38433 64.13453
#
# Poissons Ratio (x) = 0.36725 0.32549
# Poissons Ratio (y) = 0.56468 -0.17002
# Poissons Ratio (z) = 0.59606 -0.20249
#
# Static dielectric constant tensor:
#      x y z
#    x 4.389340 0.000000 0.000000 
#    y 0.000000 4.601430 0.000000 
#    z 0.000000 0.000000 4.048710 
# 
# 
# High freq. dielectric constant tensor:
#      x y z
#    x 1.929190 0.000000 0.000000 
#    y 0.000000 1.940310 0.000000 
#    z 0.000000 0.000000 1.915330 
# 
# From -- ./inp_files/8195.got.cif
#   From: 2010.03.12/outbox.cif.g09.slc.cpg/sg70_5_cif.got.tgz:8195.got - 2010.04.16 13:46:32.
