data_PCOD8286212
_publ_section_title
;
Structure prediction by ZEFSAII (Michael W. Deem and Ramdas Pophale) SiO2 
 PCOD8286212
Probable space group: F D D D
;
_chemical_formula_sum "Si O2"
_cell_formula_units_Z 160
_cell_length_a 10.130886
_cell_length_b 29.512680
_cell_length_c 23.704107
_cell_angle_alpha 90.000000
_cell_angle_beta 90.000000
_cell_angle_gamma 90.000000
_cell_volume 7087.281391
_symmetry_space_group_name_H-M "F D D D"
_symmetry_group_IT_number 70
_space_group.IT_coordinate_system_code '2'
_symmetry_cell_setting 'orthorhombic'
loop_
_space_group_symop_operation_xyz
x,y,z
1/4-x,1/4-y,z
x,1/4-y,1/4-z
1/4-x,y,1/4-z
-x,-y,-z
3/4+x,3/4+y,-z
-x,3/4+y,3/4+z
3/4+x,-y,3/4+z
x,1/2+y,1/2+z
1/4-x,3/4-y,1/2+z
x,3/4-y,3/4-z
1/4-x,1/2+y,3/4-z
-x,1/2-y,1/2-z
3/4+x,1/4+y,1/2-z
-x,1/4+y,1/4+z
3/4+x,1/2-y,1/4+z
1/2+x,y,1/2+z
3/4-x,1/4-y,1/2+z
1/2+x,1/4-y,3/4-z
3/4-x,y,3/4-z
1/2-x,-y,1/2-z
1/4+x,3/4+y,1/2-z
1/2-x,3/4+y,1/4+z
1/4+x,-y,1/4+z
1/2+x,1/2+y,z
3/4-x,3/4-y,z
1/2+x,3/4-y,1/4-z
3/4-x,1/2+y,1/4-z
1/2-x,1/2-y,-z
1/4+x,1/4+y,-z
1/2-x,1/4+y,3/4+z
1/4+x,1/2-y,3/4+z
loop_
_atom_site_type_symbol
_atom_site_label
_atom_site_fract_x
_atom_site_fract_y
_atom_site_fract_z
Si Si1 0.611547 0.307954 0.779113
Si Si2 0.585503 0.543950 0.274077
Si Si3 0.771730 0.054130 0.145131
Si Si4 0.070082 0.901373 0.506267
Si Si5 0.725016 0.044881 0.354593
O O1 0.455943 0.306143 0.766539
O O2 0.687302 0.260447 0.767916
O O3 0.631709 0.320881 0.844849
O O4 0.667113 0.347120 0.737595
O O5 0.458721 0.572054 0.255255
O O6 0.614813 0.556537 0.340220
O O7 0.625000 0.047638 0.125000
O O8 0.762013 0.090475 0.194527
O O9 0.819023 0.004634 0.167923
O O10 0.967073 0.918573 0.553979
O O11 0.875000 0.044742 0.375000
#
# Coordination Sequence:
#
# PCOD8286212 Si02
#       5
#    32  32  32  32  32
#     4  10  21  37  63  90 122 162 206 255 317 378
#     4   9  20  40  61  85 131 161 199 262 314 377
#     4  10  21  38  60  87 122 155 204 261 308 369
#     4  11  20  35  67  90 117 161 209 253 314 379
#     4   8  17  35  61  83 116 159 193 245 315 361
#
# _framework density 22.575652000000002
#
# number of rings (size 3 to 8) (size 9 to 14) (size 15 to 20)
#    0.000    2.400    0.000    3.000    0.000    2.400 
#    0.000    2.000   83.600    0.000    0.000    0.000 
#    0.000    0.000    0.000    0.000    0.000    0.000 
#
# Total GULP energy -495641.085692 kJ/mol
# GULP energy per Si atom -12391.027142 kJ/mol
# Density = 2.252427 g / cm^3
# Si number density = 22.575652 Si / 1000 Ang^3
#
#
#
# Elastic Constant Matrix: (Units=GPa)
#
#
# Indices 1 2 3 4 5 6 
#
# 1 53.2905 18.7537 41.4794 0.0000 0.0000 0.0000
# 2 18.7537 146.6737 56.2928 0.0000 0.0000 0.0000
# 3 41.4794 56.2928 123.8989 0.0000 0.0000 0.0000
# 4 0.0000 0.0000 0.0000 26.1565 0.0000 0.0000
# 5 0.0000 0.0000 0.0000 0.0000 40.0096 0.0000
# 6 0.0000 0.0000 0.0000 0.0000 0.0000 21.7545
#
#
#
# Elastic Compliance Matrix: (Units=1/GPa)
#
#
# Indices 1 2 3 4 5 6 
#
# 1 0.025378 0.000019 -0.008505 0.000000 0.000000 0.000000
# 2 0.000019 0.008258 -0.003758 0.000000 0.000000 0.000000
# 3 -0.008505 -0.003758 0.012626 0.000000 0.000000 0.000000
# 4 0.000000 0.000000 0.000000 0.038231 0.000000 0.000000
# 5 0.000000 0.000000 0.000000 0.000000 0.024994 0.000000
# 6 0.000000 0.000000 0.000000 0.000000 0.000000 0.045967
#
#
# Mechanical properties :
#
#
# Convention : Reuss Voigt Hill
#
# Bulk Modulus (GPa) = 45.92631 61.87943 53.90287
# Shear Modulus (GPa) = 26.70923 31.40660 29.05792
#
# Velocity S-wave (km/s) = 3.44335 3.73389 3.59156
# Velocity P-wave (km/s) = 6.01634 6.78664 6.41307
#
# Compressibility (1/GPa) = 0.02177401
#
# Stress axis : x y z
#
# Youngs Moduli (GPa) = 39.40377 121.09709 79.20135
#
# Poissons Ratio (x) = -0.00234 0.67361
# Poissons Ratio (y) = -0.00076 0.29767
# Poissons Ratio (z) = 0.33513 0.45513
#
# Static dielectric constant tensor:
#      x y z
#    x 3.723050 0.000000 0.000000 
#    y 0.000000 4.371470 0.000000 
#    z 0.000000 0.000000 4.375370 
# 
# 
# High freq. dielectric constant tensor:
#      x y z
#    x 1.860000 0.000000 0.000000 
#    y 0.000000 1.899970 0.000000 
#    z 0.000000 0.000000 1.887200 
# 
# From -- ./inp_files/50293.got.cif
#   From: 2010.03.12/outbox.cif.g09.slc.cpg/sg70_26_cif.got.tgz:50293.got - 2010.04.16 13:46:32.
