data_PCOD8286778
_publ_section_title
;
Structure prediction by ZEFSAII (Michael W. Deem and Ramdas Pophale) SiO2 
 PCOD8286778
Probable space group: F D D D
;
_chemical_formula_sum "Si O2"
_cell_formula_units_Z 160
_cell_length_a 23.283442
_cell_length_b 18.560144
_cell_length_c 16.607534
_cell_angle_alpha 90.000000
_cell_angle_beta 90.000000
_cell_angle_gamma 90.000000
_cell_volume 7176.846776
_symmetry_space_group_name_H-M "F D D D"
_symmetry_group_IT_number 70
_space_group.IT_coordinate_system_code '2'
_symmetry_cell_setting 'orthorhombic'
loop_
_space_group_symop_operation_xyz
x,y,z
1/4-x,1/4-y,z
x,1/4-y,1/4-z
1/4-x,y,1/4-z
-x,-y,-z
3/4+x,3/4+y,-z
-x,3/4+y,3/4+z
3/4+x,-y,3/4+z
x,1/2+y,1/2+z
1/4-x,3/4-y,1/2+z
x,3/4-y,3/4-z
1/4-x,1/2+y,3/4-z
-x,1/2-y,1/2-z
3/4+x,1/4+y,1/2-z
-x,1/4+y,1/4+z
3/4+x,1/2-y,1/4+z
1/2+x,y,1/2+z
3/4-x,1/4-y,1/2+z
1/2+x,1/4-y,3/4-z
3/4-x,y,3/4-z
1/2-x,-y,1/2-z
1/4+x,3/4+y,1/2-z
1/2-x,3/4+y,1/4+z
1/4+x,-y,1/4+z
1/2+x,1/2+y,z
3/4-x,3/4-y,z
1/2+x,3/4-y,1/4-z
3/4-x,1/2+y,1/4-z
1/2-x,1/2-y,-z
1/4+x,1/4+y,-z
1/2-x,1/4+y,3/4+z
1/4+x,1/2-y,3/4+z
loop_
_atom_site_type_symbol
_atom_site_label
_atom_site_fract_x
_atom_site_fract_y
_atom_site_fract_z
Si Si1 0.266828 0.327959 0.593006
Si Si2 0.125000 0.125000 0.926499
Si Si3 0.660329 0.013307 0.702956
Si Si4 0.188165 0.423750 0.297558
Si Si5 0.933544 0.647144 0.484853
Si Si6 0.256016 0.875000 0.375000
O O1 0.317131 0.381491 0.622871
O O2 0.239729 0.356510 0.508955
O O3 0.296895 0.252050 0.579142
O O4 0.214731 0.320889 0.656564
O O5 0.120033 0.197475 0.980737
O O6 0.625000 0.989943 0.625000
O O7 0.707521 0.071512 0.679629
O O8 0.686751 0.940154 0.737115
O O9 0.178159 0.375000 0.375000
O O10 0.131287 0.426004 0.241774
O O11 0.967595 0.672678 0.564384
#
# Coordination Sequence:
#
# PCOD8286778 Si02
#       6
#    32  16  32  32  32  16
#     4  11  26  43  68  99 133 175 241 282 345 414
#     4  12  23  40  65 102 138 182 218 306 351 421
#     4  12  22  42  66 103 147 176 224 282 356 435
#     4  11  25  48  67  95 132 182 237 293 342 422
#     4  12  25  44  71 101 139 189 224 285 364 427
#     4  12  23  40  66 104 140 175 226 278 352 444
#
# _framework density 22.293913
#
# number of rings (size 3 to 8) (size 9 to 14) (size 15 to 20)
#    0.000    0.400    5.000    3.600    0.000    3.200 
#    0.000    2.500    0.000    0.000    0.000    0.000 
#    0.000    0.000    0.000    0.000    0.000    0.000 
#
# Total GULP energy -496073.047977 kJ/mol
# GULP energy per Si atom -12401.826199 kJ/mol
# Density = 2.224317 g / cm^3
# Si number density = 22.293913 Si / 1000 Ang^3
#
#
#
# Elastic Constant Matrix: (Units=GPa)
#
#
# Indices 1 2 3 4 5 6 
#
# 1 135.3430 36.1758 53.8620 0.0000 0.0000 0.0000
# 2 36.1758 76.8558 17.8659 0.0000 0.0000 0.0000
# 3 53.8620 17.8659 108.0901 0.0000 0.0000 0.0000
# 4 0.0000 0.0000 0.0000 26.4002 0.0000 0.0000
# 5 0.0000 0.0000 0.0000 0.0000 62.7394 0.0000
# 6 0.0000 0.0000 0.0000 0.0000 0.0000 -458.0177
#
#
#
# Elastic Compliance Matrix: (Units=1/GPa)
#
#
# Indices 1 2 3 4 5 6 
#
# 1 0.010159 -0.003749 -0.004442 0.000000 0.000000 0.000000
# 2 -0.003749 0.014915 -0.000597 0.000000 0.000000 0.000000
# 3 -0.004442 -0.000597 0.011564 0.000000 0.000000 0.000000
# 4 0.000000 0.000000 0.000000 0.037879 0.000000 0.000000
# 5 0.000000 0.000000 0.000000 0.000000 0.015939 0.000000
# 6 0.000000 0.000000 0.000000 0.000000 0.000000 -0.002183
#
#
# Mechanical properties :
#
#
# Convention : Reuss Voigt Hill
#
# Bulk Modulus (GPa) = 52.46488 59.56626 56.01557
# Shear Modulus (GPa) = 44.56246 -59.61661 -7.52708
#
# Velocity S-wave (km/s) = 4.47571 -5.17680 -1.83946
# Velocity P-wave (km/s) = 7.09181 2.99261 4.54632
#
# Compressibility (1/GPa) = 0.01906037
#
# Stress axis : x y z
#
# Youngs Moduli (GPa) = 98.43832 67.04746 86.47569
#
# Poissons Ratio (x) = 0.25136 0.38417
# Poissons Ratio (y) = 0.36904 0.05163
# Poissons Ratio (z) = 0.43731 0.04003
#
# Static dielectric constant tensor:
#      x y z
#    x 4.228610 0.000000 0.000000 
#    y 0.000000 3.719710 0.000000 
#    z 0.000000 0.000000 4.364070 
# 
# 
# High freq. dielectric constant tensor:
#      x y z
#    x 1.894400 0.000000 0.000000 
#    y 0.000000 1.850450 0.000000 
#    z 0.000000 0.000000 1.897080 
# 
# From -- ./inp_files/36335.got.cif
#   From: 2010.03.12/outbox.cif.g09.slc.cpg/sg70_19_cif.got.tgz:36335.got - 2010.04.16 13:46:32.
