data_PCOD8286896
_publ_section_title
;
Structure prediction by ZEFSAII (Michael W. Deem and Ramdas Pophale) SiO2 
 PCOD8286896
Probable space group: I M M M
;
_chemical_formula_sum "Si O2"
_cell_formula_units_Z 80
_cell_length_a 19.062233
_cell_length_b 8.785720
_cell_length_c 33.456141
_cell_angle_alpha 90.000000
_cell_angle_beta 90.000000
_cell_angle_gamma 90.000000
_cell_volume 5603.081992
_symmetry_space_group_name_H-M "I M M M"
_symmetry_group_IT_number 71
_symmetry_cell_setting 'orthorhombic'
loop_
_space_group_symop_operation_xyz
x,y,z
-x,-y,z
x,-y,-z
-x,y,-z
-x,-y,-z
x,y,-z
-x,y,z
x,-y,z
1/2+x,1/2+y,1/2+z
1/2-x,1/2-y,1/2+z
1/2+x,1/2-y,1/2-z
1/2-x,1/2+y,1/2-z
1/2-x,1/2-y,1/2-z
1/2+x,1/2+y,1/2-z
1/2-x,1/2+y,1/2+z
1/2+x,1/2-y,1/2+z
loop_
_atom_site_type_symbol
_atom_site_label
_atom_site_fract_x
_atom_site_fract_y
_atom_site_fract_z
Si Si1 0.000000 0.180540 0.757717
Si Si2 0.078743 0.819386 0.543884
Si Si3 0.139436 0.819542 0.624884
Si Si4 0.000000 0.180039 0.668041
Si Si5 0.228273 0.321123 0.690116
Si Si6 0.855721 0.321002 0.231700
O O1 0.929995 0.243693 0.778503
O O2 0.000000 0.245002 0.712675
O O3 0.000000 0.000000 0.760113
O O4 0.105318 0.764506 0.500000
O O5 0.133270 0.767123 0.578361
O O6 0.000000 0.755610 0.551861
O O7 0.073980 0.000000 0.545245
O O8 0.203347 0.734279 0.646488
O O9 0.068407 0.760639 0.645466
O O10 0.150068 0.000000 0.629341
O O11 0.000000 0.000000 0.668555
O O12 0.241382 0.500000 0.690124
O O13 0.171331 0.274046 0.723966
O O14 0.301309 0.238111 0.698770
O O15 0.863743 0.500000 0.227576
#
# Coordination Sequence:
#
# PCOD8286896 Si02
#       6
#     8  16  16   8  16  16
#     4  11  19  29  45  62  83 107 135 173 212 249
#     4   8  13  21  36  59  83 106 137 176 211 244
#     4  10  16  26  42  59  80 108 141 177 214 249
#     4   9  16  23  36  59  80 103 139 174 206 243
#     4  10  20  31  42  58  80 106 138 175 213 249
#     4  10  20  32  44  59  80 106 137 172 210 250
#
# _framework density 14.277856999999999
#
# number of rings (size 3 to 8) (size 9 to 14) (size 15 to 20)
#    0.000    2.400    3.000    2.100    0.000    1.600 
#    0.000    0.500    0.000    0.600    0.000    1.400 
#    0.000    0.000    0.000    0.900    0.000   18.600 
#
# Total GULP energy -495837.774933 kJ/mol
# GULP energy per Si atom -12395.944373 kJ/mol
# Density = 1.424536 g / cm^3
# Si number density = 14.277857 Si / 1000 Ang^3
#
#
#
# Elastic Constant Matrix: (Units=GPa)
#
#
# Indices 1 2 3 4 5 6 
#
# 1 96.0228 32.5489 45.0144 0.0000 0.0000 0.0000
# 2 32.5489 45.7827 20.9959 0.0000 0.0000 0.0000
# 3 45.0144 20.9959 95.9773 0.0000 0.0000 0.0000
# 4 0.0000 0.0000 0.0000 13.3966 0.0000 0.0000
# 5 0.0000 0.0000 0.0000 0.0000 21.3921 0.0000
# 6 0.0000 0.0000 0.0000 0.0000 0.0000 20.7248
#
#
#
# Elastic Compliance Matrix: (Units=1/GPa)
#
#
# Indices 1 2 3 4 5 6 
#
# 1 0.016026 -0.008833 -0.005584 0.000000 0.000000 0.000000
# 2 -0.008833 0.029146 -0.002233 0.000000 0.000000 0.000000
# 3 -0.005584 -0.002233 0.013527 0.000000 0.000000 0.000000
# 4 0.000000 0.000000 0.000000 0.074646 0.000000 0.000000
# 5 0.000000 0.000000 0.000000 0.000000 0.046746 0.000000
# 6 0.000000 0.000000 0.000000 0.000000 0.000000 0.048251
#
#
# Mechanical properties :
#
#
# Convention : Reuss Voigt Hill
#
# Bulk Modulus (GPa) = 39.37251 48.32236 43.84744
# Shear Modulus (GPa) = 18.51108 20.38427 19.44768
#
# Velocity S-wave (km/s) = 3.60458 3.78257 3.69465
# Velocity P-wave (km/s) = 6.70521 7.27976 6.99838
#
# Compressibility (1/GPa) = 0.02539843
#
# Stress axis : x y z
#
# Youngs Moduli (GPa) = 62.39856 34.30999 73.92780
#
# Poissons Ratio (x) = 0.30305 0.41282
# Poissons Ratio (y) = 0.55115 0.16510
# Poissons Ratio (z) = 0.34844 0.07663
#
# Static dielectric constant tensor:
#      x y z
#    x 2.657150 0.000000 0.000000 
#    y 0.000000 2.567430 0.000000 
#    z 0.000000 0.000000 2.884740 
# 
# 
# High freq. dielectric constant tensor:
#      x y z
#    x 1.520950 0.000000 0.000000 
#    y 0.000000 1.532440 0.000000 
#    z 0.000000 0.000000 1.522790 
# 
# From -- ./inp_files/70299.got.cif
#   From: 2010.06.25/outbox.cif.g09.slc.cpg/sg71_36_cif.got.tgz:70299.got - 2010.06.28 04:59:45.
