data_PCOD8286708
_publ_section_title
;
Structure prediction by ZEFSAII (Michael W. Deem and Ramdas Pophale) SiO2 
 PCOD8286708
Probable space group: F D D D
;
_chemical_formula_sum "Si O2"
_cell_formula_units_Z 176
_cell_length_a 29.625470
_cell_length_b 15.879942
_cell_length_c 16.503577
_cell_angle_alpha 90.000000
_cell_angle_beta 90.000000
_cell_angle_gamma 90.000000
_cell_volume 7764.120100
_symmetry_space_group_name_H-M "F D D D"
_symmetry_group_IT_number 70
_space_group.IT_coordinate_system_code '2'
_symmetry_cell_setting 'orthorhombic'
loop_
_space_group_symop_operation_xyz
x,y,z
1/4-x,1/4-y,z
x,1/4-y,1/4-z
1/4-x,y,1/4-z
-x,-y,-z
3/4+x,3/4+y,-z
-x,3/4+y,3/4+z
3/4+x,-y,3/4+z
x,1/2+y,1/2+z
1/4-x,3/4-y,1/2+z
x,3/4-y,3/4-z
1/4-x,1/2+y,3/4-z
-x,1/2-y,1/2-z
3/4+x,1/4+y,1/2-z
-x,1/4+y,1/4+z
3/4+x,1/2-y,1/4+z
1/2+x,y,1/2+z
3/4-x,1/4-y,1/2+z
1/2+x,1/4-y,3/4-z
3/4-x,y,3/4-z
1/2-x,-y,1/2-z
1/4+x,3/4+y,1/2-z
1/2-x,3/4+y,1/4+z
1/4+x,-y,1/4+z
1/2+x,1/2+y,z
3/4-x,3/4-y,z
1/2+x,3/4-y,1/4-z
3/4-x,1/2+y,1/4-z
1/2-x,1/2-y,-z
1/4+x,1/4+y,-z
1/2-x,1/4+y,3/4+z
1/4+x,1/2-y,3/4+z
loop_
_atom_site_type_symbol
_atom_site_label
_atom_site_fract_x
_atom_site_fract_y
_atom_site_fract_z
Si Si1 0.625000 0.422041 0.125000
Si Si2 0.067544 0.507441 0.340655
Si Si3 0.506990 0.125000 0.625000
Si Si4 0.942833 0.082994 0.477604
Si Si5 0.608701 0.375000 0.375000
Si Si6 0.835047 0.939397 0.765421
Si Si7 0.958397 0.356476 0.779438
O O1 0.668027 0.364811 0.102972
O O2 0.605722 0.473357 0.048125
O O3 0.112565 0.452844 0.342888
O O4 0.069240 0.560427 0.422995
O O5 0.070109 0.568775 0.262683
O O6 0.023721 0.447554 0.334958
O O7 0.538714 0.084121 0.558313
O O8 0.923852 0.141897 0.549621
O O9 0.995810 0.102195 0.476818
O O10 0.933593 0.982742 0.483697
O O11 0.875000 0.875000 0.782641
O O12 0.965640 0.375000 0.875000
#
# Coordination Sequence:
#
# PCOD8286708 Si02
#       7
#    16  32  16  32  16  32  32
#     4  12  23  46  73 106 144 184 234 316 355 443
#     4  11  27  42  71 103 145 187 238 303 361 428
#     4  11  23  44  69 110 144 184 240 297 362 449
#     4  11  26  46  75 101 147 191 245 296 372 431
#     4  11  24  48  69 104 137 191 236 299 370 434
#     4  12  24  43  72 108 139 184 241 293 379 432
#     4  11  27  48  71 104 142 202 247 299 359 442
#
# _framework density 22.668377
#
# number of rings (size 3 to 8) (size 9 to 14) (size 15 to 20)
#    0.000    0.727    4.545    1.636    5.091    2.909 
#    0.000    0.000    0.000    0.000    0.000    0.000 
#    0.000    0.000    0.000    0.000    0.000    0.000 
#
# Total GULP energy -545464.372927 kJ/mol
# GULP energy per Si atom -12396.917567 kJ/mol
# Density = 2.261678 g / cm^3
# Si number density = 22.668377 Si / 1000 Ang^3
#
#
#
# Elastic Constant Matrix: (Units=GPa)
#
#
# Indices 1 2 3 4 5 6 
#
# 1 92.7538 48.2280 24.2342 0.0000 0.0000 0.0000
# 2 48.2280 133.8722 44.1015 0.0000 0.0000 0.0000
# 3 24.2342 44.1015 103.3537 0.0000 0.0000 0.0000
# 4 0.0000 0.0000 0.0000 38.9777 0.0000 0.0000
# 5 0.0000 0.0000 0.0000 0.0000 35.1140 0.0000
# 6 0.0000 0.0000 0.0000 0.0000 0.0000 -8.2732
#
#
#
# Elastic Compliance Matrix: (Units=1/GPa)
#
#
# Indices 1 2 3 4 5 6 
#
# 1 0.013406 -0.004414 -0.001260 0.000000 0.000000 0.000000
# 2 -0.004414 0.010145 -0.003294 0.000000 0.000000 0.000000
# 3 -0.001260 -0.003294 0.011376 0.000000 0.000000 0.000000
# 4 0.000000 0.000000 0.000000 0.025656 0.000000 0.000000
# 5 0.000000 0.000000 0.000000 0.000000 0.028479 0.000000
# 6 0.000000 0.000000 0.000000 0.000000 0.000000 -0.120873
#
#
# Mechanical properties :
#
#
# Convention : Reuss Voigt Hill
#
# Bulk Modulus (GPa) = 58.85395 62.56745 60.71070
# Shear Modulus (GPa) = -608.92382 27.39144 -290.76619
#
# Velocity S-wave (km/s) = -16.40749 3.47991 -11.33790
# Velocity P-wave (km/s) = 18.24614 6.61872 12.02319
#
# Compressibility (1/GPa) = 0.01699121
#
# Stress axis : x y z
#
# Youngs Moduli (GPa) = 74.59518 98.56819 87.90119
#
# Poissons Ratio (x) = 0.43513 0.11073
# Poissons Ratio (y) = 0.32930 0.28954
# Poissons Ratio (z) = 0.09396 0.32468
#
# Static dielectric constant tensor:
#      x y z
#    x 4.150610 0.000000 0.000000 
#    y 0.000000 4.141790 0.000000 
#    z 0.000000 0.000000 5.484290 
# 
# 
# High freq. dielectric constant tensor:
#      x y z
#    x 1.907240 0.000000 0.000000 
#    y 0.000000 1.897740 0.000000 
#    z 0.000000 0.000000 1.894450 
# 
# From -- ./inp_files/38588.got.cif
#   From: 2010.03.12/outbox.cif.g09.slc.cpg/sg70_20_cif.got.tgz:38588.got - 2010.04.16 13:46:32.
