data_PCOD8286723
_publ_section_title
;
Structure prediction by ZEFSAII (Michael W. Deem and Ramdas Pophale) SiO2 
 PCOD8286723
Probable space group: F D D D
;
_chemical_formula_sum "Si O2"
_cell_formula_units_Z 104
_cell_length_a 31.057958
_cell_length_b 21.544585
_cell_length_c 7.042409
_cell_angle_alpha 90.000000
_cell_angle_beta 90.000000
_cell_angle_gamma 90.000000
_cell_volume 4712.292881
_symmetry_space_group_name_H-M "F D D D"
_symmetry_group_IT_number 70
_space_group.IT_coordinate_system_code '2'
_symmetry_cell_setting 'orthorhombic'
loop_
_space_group_symop_operation_xyz
x,y,z
1/4-x,1/4-y,z
x,1/4-y,1/4-z
1/4-x,y,1/4-z
-x,-y,-z
3/4+x,3/4+y,-z
-x,3/4+y,3/4+z
3/4+x,-y,3/4+z
x,1/2+y,1/2+z
1/4-x,3/4-y,1/2+z
x,3/4-y,3/4-z
1/4-x,1/2+y,3/4-z
-x,1/2-y,1/2-z
3/4+x,1/4+y,1/2-z
-x,1/4+y,1/4+z
3/4+x,1/2-y,1/4+z
1/2+x,y,1/2+z
3/4-x,1/4-y,1/2+z
1/2+x,1/4-y,3/4-z
3/4-x,y,3/4-z
1/2-x,-y,1/2-z
1/4+x,3/4+y,1/2-z
1/2-x,3/4+y,1/4+z
1/4+x,-y,1/4+z
1/2+x,1/2+y,z
3/4-x,3/4-y,z
1/2+x,3/4-y,1/4-z
3/4-x,1/2+y,1/4-z
1/2-x,1/2-y,-z
1/4+x,1/4+y,-z
1/2-x,1/4+y,3/4+z
1/4+x,1/2-y,3/4+z
loop_
_atom_site_type_symbol
_atom_site_label
_atom_site_fract_x
_atom_site_fract_y
_atom_site_fract_z
Si Si1 0.875000 0.875000 0.875000
Si Si2 0.875000 0.524979 0.875000
Si Si3 0.562589 0.210143 0.870236
Si Si4 0.276999 0.167462 0.943263
Si Si5 0.838484 0.625000 0.625000
O O1 0.904066 0.832179 0.742412
O O2 0.915863 0.482173 0.819106
O O3 0.867388 0.565665 0.682958
O O4 0.518632 0.173169 0.916901
O O5 0.547825 0.266569 0.737835
O O6 0.310391 0.133211 0.810369
O O7 0.269230 0.125000 0.125000
#
# Coordination Sequence:
#
# PCOD8286723 Si02
#       5
#     8  16  32  32  16
#     4  12  24  44  66 104 146 186 220 302 348 412
#     4  12  24  42  68 110 133 185 232 296 350 404
#     4  11  25  43  70  99 145 180 232 285 354 409
#     4  11  23  48  70 100 134 191 232 285 345 421
#     4  12  24  42  75  97 138 176 238 289 341 416
#
# _framework density 22.069936999999999
#
# number of rings (size 3 to 8) (size 9 to 14) (size 15 to 20)
#    0.000    0.615    4.615    3.692    0.000    4.308 
#    0.000    0.000    0.000    0.000    0.000    0.000 
#    0.000    0.000    0.000    0.000    0.000    0.000 
#
# Total GULP energy -322430.787894 kJ/mol
# GULP energy per Si atom -12401.184150 kJ/mol
# Density = 2.201970 g / cm^3
# Si number density = 22.069937 Si / 1000 Ang^3
#
#
#
# Elastic Constant Matrix: (Units=GPa)
#
#
# Indices 1 2 3 4 5 6 
#
# 1 132.7029 44.4513 37.2902 0.0000 0.0006 0.0840
# 2 44.4513 97.0525 26.9658 -0.0027 0.0013 -0.2259
# 3 37.2902 26.9658 84.0158 -0.0032 0.0010 -0.5782
# 4 0.0000 -0.0027 -0.0032 45.1244 0.0012 -0.4644
# 5 0.0006 0.0013 0.0010 0.0012 41.0881 -0.0353
# 6 0.0840 -0.2259 -0.5782 -0.4644 -0.0353 539.3770
#
#
#
# Elastic Compliance Matrix: (Units=1/GPa)
#
#
# Indices 1 2 3 4 5 6 
#
# 1 0.009596 -0.003526 -0.003127 -0.000001 0.000000 -0.000006
# 2 -0.003526 0.012608 -0.002482 0.000001 0.000000 0.000003
# 3 -0.003127 -0.002482 0.014087 0.000001 0.000000 0.000015
# 4 -0.000001 0.000001 0.000001 0.022161 -0.000001 0.000019
# 5 0.000000 0.000000 0.000000 -0.000001 0.024338 0.000002
# 6 -0.000006 0.000003 0.000015 0.000019 0.000002 0.001854
#
#
# Mechanical properties :
#
#
# Convention : Reuss Voigt Hill
#
# Bulk Modulus (GPa) = 55.49102 59.02065 57.25583
# Shear Modulus (GPa) = 45.90482 138.78882 92.34682
#
# Velocity S-wave (km/s) = 4.56562 7.93867 6.47562
# Velocity P-wave (km/s) = 7.27949 10.52761 9.05046
#
# Compressibility (1/GPa) = 0.01802094
#
# Stress axis : x y z
#
# Youngs Moduli (GPa) = 104.21543 79.31346 70.98638
#
# Poissons Ratio (x) = 0.27966 0.22199
# Poissons Ratio (y) = 0.36746 0.17617
# Poissons Ratio (z) = 0.32591 0.19683
#
# Static dielectric constant tensor:
#      x y z
#    x 4.447740 0.000000 0.000000 
#    y 0.000000 4.222630 -0.000010 
#    z 0.000000 -0.000010 3.638720 
# 
# 
# High freq. dielectric constant tensor:
#      x y z
#    x 1.897100 0.000000 0.000000 
#    y 0.000000 1.877080 0.000000 
#    z 0.000000 0.000000 1.849600 
# 
# From -- ./inp_files/8221.got.cif
#   From: 2010.03.12/outbox.cif.g09.slc.cpg/sg70_5_cif.got.tgz:8221.got - 2010.04.16 13:46:32.
