data_PCOD8286801
_publ_section_title
;
Structure prediction by ZEFSAII (Michael W. Deem and Ramdas Pophale) SiO2 
 PCOD8286801
Probable space group: F D D D
;
_chemical_formula_sum "Si O2"
_cell_formula_units_Z 176
_cell_length_a 23.929379
_cell_length_b 25.293520
_cell_length_c 13.691824
_cell_angle_alpha 90.000000
_cell_angle_beta 90.000000
_cell_angle_gamma 90.000000
_cell_volume 8287.089109
_symmetry_space_group_name_H-M "F D D D"
_symmetry_group_IT_number 70
_space_group.IT_coordinate_system_code '2'
_symmetry_cell_setting 'orthorhombic'
loop_
_space_group_symop_operation_xyz
x,y,z
1/4-x,1/4-y,z
x,1/4-y,1/4-z
1/4-x,y,1/4-z
-x,-y,-z
3/4+x,3/4+y,-z
-x,3/4+y,3/4+z
3/4+x,-y,3/4+z
x,1/2+y,1/2+z
1/4-x,3/4-y,1/2+z
x,3/4-y,3/4-z
1/4-x,1/2+y,3/4-z
-x,1/2-y,1/2-z
3/4+x,1/4+y,1/2-z
-x,1/4+y,1/4+z
3/4+x,1/2-y,1/4+z
1/2+x,y,1/2+z
3/4-x,1/4-y,1/2+z
1/2+x,1/4-y,3/4-z
3/4-x,y,3/4-z
1/2-x,-y,1/2-z
1/4+x,3/4+y,1/2-z
1/2-x,3/4+y,1/4+z
1/4+x,-y,1/4+z
1/2+x,1/2+y,z
3/4-x,3/4-y,z
1/2+x,3/4-y,1/4-z
3/4-x,1/2+y,1/4-z
1/2-x,1/2-y,-z
1/4+x,1/4+y,-z
1/2-x,1/4+y,3/4+z
1/4+x,1/2-y,3/4+z
loop_
_atom_site_type_symbol
_atom_site_label
_atom_site_fract_x
_atom_site_fract_y
_atom_site_fract_z
Si Si1 0.163109 0.752990 0.217280
Si Si2 0.374884 0.315598 0.102898
Si Si3 0.771159 0.307313 0.470018
Si Si4 0.423360 0.123085 0.736650
Si Si5 0.375000 0.548019 0.875000
Si Si6 0.967505 0.980164 0.771112
O O1 0.125000 0.733432 0.125000
O O2 0.139147 0.725760 0.313239
O O3 0.160757 0.816113 0.218518
O O4 0.230055 0.738961 0.219687
O O5 0.375000 0.375000 0.145919
O O6 0.435539 0.298902 0.065453
O O7 0.334200 0.312750 0.009043
O O8 0.750000 0.250000 0.500000
O O9 0.735264 0.355368 0.515380
O O10 0.761767 0.313480 0.351365
O O11 0.407517 0.125000 0.625000
O O12 0.381615 0.165879 0.780796
O O13 0.429386 0.514640 0.844648
#
# Coordination Sequence:
#
# PCOD8286801 Si02
#       6
#    32  32  32  32  16  32
#     4  12  27  47  67  95 140 190 237 280 332 423
#     4  12  26  44  70 102 136 182 236 289 356 416
#     4  12  20  40  69 106 142 169 218 296 364 421
#     4  12  22  38  68 100 138 182 223 279 351 410
#     4  12  22  40  69 108 139 172 232 290 344 426
#     4  12  23  42  71 106 142 174 222 292 362 421
#
# _framework density 21.237856000000001
#
# number of rings (size 3 to 8) (size 9 to 14) (size 15 to 20)
#    0.000    0.000    8.182    2.182    0.000    1.818 
#    0.000    0.000    4.000    0.000    0.000    0.000 
#    0.000    0.000    0.000    0.000    0.000    0.000 
#
# Total GULP energy -545240.286312 kJ/mol
# GULP energy per Si atom -12391.824689 kJ/mol
# Density = 2.118952 g / cm^3
# Si number density = 21.237856 Si / 1000 Ang^3
#
#
#
# Elastic Constant Matrix: (Units=GPa)
#
#
# Indices 1 2 3 4 5 6 
#
# 1 121.2002 30.0444 59.4197 0.0000 0.0000 0.0000
# 2 30.0444 103.6453 26.9109 0.0000 0.0000 0.0000
# 3 59.4197 26.9109 110.4719 0.0000 0.0000 0.0000
# 4 0.0000 0.0000 0.0000 33.4907 0.0000 0.0000
# 5 0.0000 0.0000 0.0000 0.0000 41.8424 0.0000
# 6 0.0000 0.0000 0.0000 0.0000 0.0000 12.2654
#
#
#
# Elastic Compliance Matrix: (Units=1/GPa)
#
#
# Indices 1 2 3 4 5 6 
#
# 1 0.011528 -0.001849 -0.005750 0.000000 0.000000 0.000000
# 2 -0.001849 0.010596 -0.001587 0.000000 0.000000 0.000000
# 3 -0.005750 -0.001587 0.012532 0.000000 0.000000 0.000000
# 4 0.000000 0.000000 0.000000 0.029859 0.000000 0.000000
# 5 0.000000 0.000000 0.000000 0.000000 0.023899 0.000000
# 6 0.000000 0.000000 0.000000 0.000000 0.000000 0.081530
#
#
# Mechanical properties :
#
#
# Convention : Reuss Voigt Hill
#
# Bulk Modulus (GPa) = 61.40938 63.11860 62.26399
# Shear Modulus (GPa) = 25.80718 32.11586 28.96152
#
# Velocity S-wave (km/s) = 3.48968 3.89292 3.69680
# Velocity P-wave (km/s) = 6.72421 7.07042 6.89949
#
# Compressibility (1/GPa) = 0.01628416
#
# Stress axis : x y z
#
# Youngs Moduli (GPa) = 86.74318 94.37338 79.79833
#
# Poissons Ratio (x) = 0.17447 0.45887
# Poissons Ratio (y) = 0.16037 0.12663
# Poissons Ratio (z) = 0.49881 0.14976
#
# Static dielectric constant tensor:
#      x y z
#    x 4.172460 0.000000 0.000000 
#    y 0.000000 3.991640 0.000000 
#    z 0.000000 0.000000 3.845470 
# 
# 
# High freq. dielectric constant tensor:
#      x y z
#    x 1.840220 0.000000 0.000000 
#    y 0.000000 1.840330 0.000000 
#    z 0.000000 0.000000 1.820810 
# 
# From -- ./inp_files/20950.got.cif
#   From: 2010.03.12/outbox.cif.g09.slc.cpg/sg70_11_cif.got.tgz:20950.got - 2010.04.16 13:46:32.
