data_PCOD8286004
_publ_section_title
;
Structure prediction by ZEFSAII (Michael W. Deem and Ramdas Pophale) SiO2 
 PCOD8286004
Probable space group: F D D D
;
_chemical_formula_sum "Si O2"
_cell_formula_units_Z 128
_cell_length_a 32.587892
_cell_length_b 8.654813
_cell_length_c 22.952383
_cell_angle_alpha 90.000000
_cell_angle_beta 90.000000
_cell_angle_gamma 90.000000
_cell_volume 6473.538561
_symmetry_space_group_name_H-M "F D D D"
_symmetry_group_IT_number 70
_space_group.IT_coordinate_system_code '2'
_symmetry_cell_setting 'orthorhombic'
loop_
_space_group_symop_operation_xyz
x,y,z
1/4-x,1/4-y,z
x,1/4-y,1/4-z
1/4-x,y,1/4-z
-x,-y,-z
3/4+x,3/4+y,-z
-x,3/4+y,3/4+z
3/4+x,-y,3/4+z
x,1/2+y,1/2+z
1/4-x,3/4-y,1/2+z
x,3/4-y,3/4-z
1/4-x,1/2+y,3/4-z
-x,1/2-y,1/2-z
3/4+x,1/4+y,1/2-z
-x,1/4+y,1/4+z
3/4+x,1/2-y,1/4+z
1/2+x,y,1/2+z
3/4-x,1/4-y,1/2+z
1/2+x,1/4-y,3/4-z
3/4-x,y,3/4-z
1/2-x,-y,1/2-z
1/4+x,3/4+y,1/2-z
1/2-x,3/4+y,1/4+z
1/4+x,-y,1/4+z
1/2+x,1/2+y,z
3/4-x,3/4-y,z
1/2+x,3/4-y,1/4-z
3/4-x,1/2+y,1/4-z
1/2-x,1/2-y,-z
1/4+x,1/4+y,-z
1/2-x,1/4+y,3/4+z
1/4+x,1/2-y,3/4+z
loop_
_atom_site_type_symbol
_atom_site_label
_atom_site_fract_x
_atom_site_fract_y
_atom_site_fract_z
Si Si1 0.442247 0.607475 0.008843
Si Si2 0.135038 0.804095 0.936411
Si Si3 0.996809 0.035428 0.906474
Si Si4 0.279751 0.308799 0.548941
O O1 0.392473 0.602376 0.015557
O O2 0.464480 0.479805 0.049568
O O3 0.454577 0.773953 0.032058
O O4 0.455913 0.583833 0.942127
O O5 0.125000 0.625000 0.935662
O O6 0.122325 0.875000 0.875000
O O7 0.183660 0.818262 0.948456
O O8 0.006959 0.173495 0.861305
O O9 0.986589 0.875000 0.875000
O O10 0.250000 0.250000 0.500000
#
# Coordination Sequence:
#
# PCOD8286004 Si02
#       4
#    32  32  32  32
#     4   9  18  35  58  78 110 149 182 234 289 327
#     4  10  20  36  56  84 113 142 190 241 283 333
#     4   9  18  35  58  80 113 151 191 227 283 349
#     4  10  21  33  53  85 111 144 190 228 282 344
#
# _framework density 19.772801999999999
#
# number of rings (size 3 to 8) (size 9 to 14) (size 15 to 20)
#    0.000    2.500    0.000    3.750    3.500    0.000 
#    4.500    1.250    0.000    9.000    0.000    0.000 
#    0.000    0.000    0.000    0.000    0.000    0.000 
#
# Total GULP energy -396634.659269 kJ/mol
# GULP energy per Si atom -12394.833102 kJ/mol
# Density = 1.972780 g / cm^3
# Si number density = 19.772802 Si / 1000 Ang^3
#
#
#
# Elastic Constant Matrix: (Units=GPa)
#
#
# Indices 1 2 3 4 5 6 
#
# 1 153.7517 30.5456 90.8753 0.0000 0.0000 -0.0001
# 2 30.5456 23.5791 24.8915 0.0001 0.0000 -0.0001
# 3 90.8753 24.8915 139.2351 0.0000 0.0000 -0.0001
# 4 0.0000 0.0001 0.0000 35.8210 0.0000 -0.0001
# 5 0.0000 0.0000 0.0000 0.0000 31.9578 0.0001
# 6 -0.0001 -0.0001 -0.0001 -0.0001 0.0001 1.9959
#
#
#
# Elastic Compliance Matrix: (Units=1/GPa)
#
#
# Indices 1 2 3 4 5 6 
#
# 1 0.011940 -0.008926 -0.006197 0.000000 0.000000 0.000000
# 2 -0.008926 0.058948 -0.004713 0.000000 0.000000 0.000003
# 3 -0.006197 -0.004713 0.012070 0.000000 0.000000 0.000000
# 4 0.000000 0.000000 0.000000 0.027917 0.000000 0.000001
# 5 0.000000 0.000000 0.000000 0.000000 0.031291 -0.000001
# 6 0.000000 0.000003 0.000000 0.000001 -0.000001 0.501016
#
#
# Mechanical properties :
#
#
# Convention : Reuss Voigt Hill
#
# Bulk Modulus (GPa) = 23.10198 67.68786 45.39492
# Shear Modulus (GPa) = 7.17069 25.30518 16.23794
#
# Velocity S-wave (km/s) = 1.90641 3.58131 2.86881
# Velocity P-wave (km/s) = 4.06878 7.16995 5.82937
#
# Compressibility (1/GPa) = 0.04328633
#
# Stress axis : x y z
#
# Youngs Moduli (GPa) = 83.75050 16.96399 82.85320
#
# Poissons Ratio (x) = 0.15141 0.51348
# Poissons Ratio (y) = 0.74752 0.39048
# Poissons Ratio (z) = 0.51904 0.07995
#
# Static dielectric constant tensor:
#      x y z
#    x 3.693210 0.000000 0.000000 
#    y 0.000000 1.316950 0.000000 
#    z 0.000000 0.000000 3.631660 
# 
# 
# High freq. dielectric constant tensor:
#      x y z
#    x 1.763210 0.000000 0.000000 
#    y 0.000000 1.762610 0.000000 
#    z 0.000000 0.000000 1.759640 
# 
# From -- ./inp_files/50090.got.cif
#   From: 2010.03.12/outbox.cif.g09.slc.cpg/sg70_26_cif.got.tgz:50090.got - 2010.04.16 13:46:32.
