data_PCOD8286748
_publ_section_title
;
Structure prediction by ZEFSAII (Michael W. Deem and Ramdas Pophale) SiO2 
 PCOD8286748
Probable space group: F D D D
;
_chemical_formula_sum "Si O2"
_cell_formula_units_Z 144
_cell_length_a 15.596008
_cell_length_b 18.190290
_cell_length_c 22.244858
_cell_angle_alpha 90.000000
_cell_angle_beta 90.000000
_cell_angle_gamma 90.000000
_cell_volume 6310.775197
_symmetry_space_group_name_H-M "F D D D"
_symmetry_group_IT_number 70
_space_group.IT_coordinate_system_code '2'
_symmetry_cell_setting 'orthorhombic'
loop_
_space_group_symop_operation_xyz
x,y,z
1/4-x,1/4-y,z
x,1/4-y,1/4-z
1/4-x,y,1/4-z
-x,-y,-z
3/4+x,3/4+y,-z
-x,3/4+y,3/4+z
3/4+x,-y,3/4+z
x,1/2+y,1/2+z
1/4-x,3/4-y,1/2+z
x,3/4-y,3/4-z
1/4-x,1/2+y,3/4-z
-x,1/2-y,1/2-z
3/4+x,1/4+y,1/2-z
-x,1/4+y,1/4+z
3/4+x,1/2-y,1/4+z
1/2+x,y,1/2+z
3/4-x,1/4-y,1/2+z
1/2+x,1/4-y,3/4-z
3/4-x,y,3/4-z
1/2-x,-y,1/2-z
1/4+x,3/4+y,1/2-z
1/2-x,3/4+y,1/4+z
1/4+x,-y,1/4+z
1/2+x,1/2+y,z
3/4-x,3/4-y,z
1/2+x,3/4-y,1/4-z
3/4-x,1/2+y,1/4-z
1/2-x,1/2-y,-z
1/4+x,1/4+y,-z
1/2-x,1/4+y,3/4+z
1/4+x,1/2-y,3/4+z
loop_
_atom_site_type_symbol
_atom_site_label
_atom_site_fract_x
_atom_site_fract_y
_atom_site_fract_z
Si Si1 0.647056 0.949170 0.407535
Si Si2 0.397821 0.585666 0.962355
Si Si3 0.666583 0.001998 0.064191
Si Si4 0.009279 0.552785 0.359482
Si Si5 0.125000 0.625000 0.278913
O O1 0.678265 0.875000 0.375000
O O2 0.593074 0.930374 0.467481
O O3 0.730253 0.995006 0.428461
O O4 0.583930 0.990951 0.360762
O O5 0.380897 0.671453 0.950351
O O6 0.325125 0.534020 0.930335
O O7 0.487392 0.568037 0.929041
O O8 0.625000 0.031864 0.125000
O O9 0.630941 0.052252 0.010738
O O10 0.043975 0.625473 0.324529
#
# Coordination Sequence:
#
# PCOD8286748 Si02
#       5
#    32  32  32  32  16
#     4  12  26  45  75 105 140 190 244 295 363 433
#     4  11  25  48  69 104 144 186 243 296 358 435
#     4  12  25  44  71 107 148 184 237 302 360 429
#     4  11  24  45  70 101 145 187 235 295 356 428
#     4  12  23  42  70 106 141 188 234 288 366 420
#
# _framework density 22.818116
#
# number of rings (size 3 to 8) (size 9 to 14) (size 15 to 20)
#    0.000    0.444    4.444    5.000    0.000    0.889 
#    0.000    2.222    0.000    0.000    0.000    0.000 
#    0.000    0.000    0.000    0.000    0.000    0.000 
#
# Total GULP energy -446111.485287 kJ/mol
# GULP energy per Si atom -12391.985702 kJ/mol
# Density = 2.276618 g / cm^3
# Si number density = 22.818116 Si / 1000 Ang^3
#
#
#
# Elastic Constant Matrix: (Units=GPa)
#
#
# Indices 1 2 3 4 5 6 
#
# 1 99.0325 48.4168 43.9589 0.0000 0.0000 0.0000
# 2 48.4168 77.5217 26.8644 0.0000 0.0000 0.0000
# 3 43.9589 26.8644 134.2956 0.0000 0.0000 0.0000
# 4 0.0000 0.0000 0.0000 18.2086 0.0000 0.0000
# 5 0.0000 0.0000 0.0000 0.0000 37.7812 0.0000
# 6 0.0000 0.0000 0.0000 0.0000 0.0000 29.1952
#
#
#
# Elastic Compliance Matrix: (Units=1/GPa)
#
#
# Indices 1 2 3 4 5 6 
#
# 1 0.015903 -0.008734 -0.003458 0.000000 0.000000 0.000000
# 2 -0.008734 0.018657 -0.000873 0.000000 0.000000 0.000000
# 3 -0.003458 -0.000873 0.008753 0.000000 0.000000 0.000000
# 4 0.000000 0.000000 0.000000 0.054919 0.000000 0.000000
# 5 0.000000 0.000000 0.000000 0.000000 0.026468 0.000000
# 6 0.000000 0.000000 0.000000 0.000000 0.000000 0.034252
#
#
# Mechanical properties :
#
#
# Convention : Reuss Voigt Hill
#
# Bulk Modulus (GPa) = 58.20078 61.03666 59.61872
# Shear Modulus (GPa) = 26.20405 29.81098 28.00752
#
# Velocity S-wave (km/s) = 3.39246 3.61842 3.50726
# Velocity P-wave (km/s) = 6.39585 6.65316 6.52577
#
# Compressibility (1/GPa) = 0.01718190
#
# Stress axis : x y z
#
# Youngs Moduli (GPa) = 62.88247 53.59927 114.24687
#
# Poissons Ratio (x) = 0.46812 0.39510
# Poissons Ratio (y) = 0.54920 0.09978
# Poissons Ratio (z) = 0.21747 0.04681
#
# Static dielectric constant tensor:
#      x y z
#    x 4.189510 0.000000 0.000000 
#    y 0.000000 3.814780 0.000000 
#    z 0.000000 0.000000 4.388040 
# 
# 
# High freq. dielectric constant tensor:
#      x y z
#    x 1.902920 0.000000 0.000000 
#    y 0.000000 1.873420 0.000000 
#    z 0.000000 0.000000 1.926040 
# 
# From -- ./inp_files/52045.got.cif
#   From: 2010.03.12/outbox.cif.g09.slc.cpg/sg70_27_cif.got.tgz:52045.got - 2010.04.16 13:46:32.
