data_PCOD8286458
_publ_section_title
;
Structure prediction by ZEFSAII (Michael W. Deem and Ramdas Pophale) SiO2 
 PCOD8286458
Probable space group: F D D D
;
_chemical_formula_sum "Si O2"
_cell_formula_units_Z 208
_cell_length_a 16.529654
_cell_length_b 27.290806
_cell_length_c 21.702372
_cell_angle_alpha 90.000000
_cell_angle_beta 90.000000
_cell_angle_gamma 90.000000
_cell_volume 9790.104525
_symmetry_space_group_name_H-M "F D D D"
_symmetry_group_IT_number 70
_space_group.IT_coordinate_system_code '2'
_symmetry_cell_setting 'orthorhombic'
loop_
_space_group_symop_operation_xyz
x,y,z
1/4-x,1/4-y,z
x,1/4-y,1/4-z
1/4-x,y,1/4-z
-x,-y,-z
3/4+x,3/4+y,-z
-x,3/4+y,3/4+z
3/4+x,-y,3/4+z
x,1/2+y,1/2+z
1/4-x,3/4-y,1/2+z
x,3/4-y,3/4-z
1/4-x,1/2+y,3/4-z
-x,1/2-y,1/2-z
3/4+x,1/4+y,1/2-z
-x,1/4+y,1/4+z
3/4+x,1/2-y,1/4+z
1/2+x,y,1/2+z
3/4-x,1/4-y,1/2+z
1/2+x,1/4-y,3/4-z
3/4-x,y,3/4-z
1/2-x,-y,1/2-z
1/4+x,3/4+y,1/2-z
1/2-x,3/4+y,1/4+z
1/4+x,-y,1/4+z
1/2+x,1/2+y,z
3/4-x,3/4-y,z
1/2+x,3/4-y,1/4-z
3/4-x,1/2+y,1/4-z
1/2-x,1/2-y,-z
1/4+x,1/4+y,-z
1/2-x,1/4+y,3/4+z
1/4+x,1/2-y,3/4+z
loop_
_atom_site_type_symbol
_atom_site_label
_atom_site_fract_x
_atom_site_fract_y
_atom_site_fract_z
Si Si1 0.452645 0.468320 0.091506
Si Si2 0.892951 0.131019 0.052754
Si Si3 0.727741 0.477198 0.460229
Si Si4 0.496649 0.825332 0.728546
Si Si5 0.644223 0.240731 0.057276
Si Si6 0.645757 0.279350 0.520075
Si Si7 0.875000 0.875000 0.606555
O O1 0.430700 0.503359 0.149279
O O2 0.549627 0.462343 0.081443
O O3 0.401738 0.418950 0.099772
O O4 0.425454 0.487990 0.025929
O O5 0.879472 0.125000 0.125000
O O6 0.971638 0.167341 0.043148
O O7 0.812759 0.154728 0.025148
O O8 0.899928 0.079992 0.017522
O O9 0.686701 0.490805 0.524538
O O10 0.811364 0.506710 0.456961
O O11 0.423427 0.805581 0.769109
O O12 0.537168 0.782568 0.687788
O O13 0.456013 0.864924 0.683598
O O14 0.625000 0.222101 0.125000
#
# Coordination Sequence:
#
# PCOD8286458 Si02
#       7
#    32  32  32  32  32  32  16
#     4  11  25  45  67  98 136 178 233 289 355 421
#     4  11  24  43  70 101 140 181 233 292 362 430
#     4  11  23  44  71  99 140 183 227 300 358 424
#     4  10  24  39  62 101 129 174 229 269 345 421
#     4  10  23  39  64  97 136 175 219 276 350 417
#     4  11  26  44  70 101 133 182 234 289 355 432
#     4  12  24  42  71  96 141 180 228 300 348 424
#
# _framework density 21.245943
#
# number of rings (size 3 to 8) (size 9 to 14) (size 15 to 20)
#    0.000    1.231    3.077    1.385    6.462    1.231 
#    0.000    0.000    0.000    0.000    0.000    0.000 
#    0.000    0.000    0.000    0.000    0.000    0.000 
#
# Total GULP energy -644356.281529 kJ/mol
# GULP energy per Si atom -12391.466952 kJ/mol
# Density = 2.119759 g / cm^3
# Si number density = 21.245943 Si / 1000 Ang^3
#
#
#
# Elastic Constant Matrix: (Units=GPa)
#
#
# Indices 1 2 3 4 5 6 
#
# 1 82.1254 39.5521 23.7270 0.0000 0.0000 0.0000
# 2 39.5521 129.3418 24.1690 0.0000 0.0000 0.0000
# 3 23.7270 24.1690 86.7551 0.0000 0.0000 0.0000
# 4 0.0000 0.0000 0.0000 31.3770 0.0000 0.0000
# 5 0.0000 0.0000 0.0000 0.0000 27.1643 0.0000
# 6 0.0000 0.0000 0.0000 0.0000 0.0000 29.7588
#
#
#
# Elastic Compliance Matrix: (Units=1/GPa)
#
#
# Indices 1 2 3 4 5 6 
#
# 1 0.014973 -0.004023 -0.002974 0.000000 0.000000 0.000000
# 2 -0.004023 0.009237 -0.001473 0.000000 0.000000 0.000000
# 3 -0.002974 -0.001473 0.012751 0.000000 0.000000 0.000000
# 4 0.000000 0.000000 0.000000 0.031870 0.000000 0.000000
# 5 0.000000 0.000000 0.000000 0.000000 0.036813 0.000000
# 6 0.000000 0.000000 0.000000 0.000000 0.000000 0.033603
#
#
# Mechanical properties :
#
#
# Convention : Reuss Voigt Hill
#
# Bulk Modulus (GPa) = 49.95000 52.56873 51.25937
# Shear Modulus (GPa) = 30.70085 31.71162 31.20624
#
# Velocity S-wave (km/s) = 3.80547 3.86760 3.83666
# Velocity P-wave (km/s) = 6.54753 6.68888 6.61859
#
# Compressibility (1/GPa) = 0.02002002
#
# Stress axis : x y z
#
# Youngs Moduli (GPa) = 66.78550 108.26123 78.42799
#
# Poissons Ratio (x) = 0.43553 0.23327
# Poissons Ratio (y) = 0.26868 0.11553
# Poissons Ratio (z) = 0.19864 0.15947
#
# Static dielectric constant tensor:
#      x y z
#    x 4.017730 0.000000 0.000000 
#    y 0.000000 3.618390 0.000000 
#    z 0.000000 0.000000 4.086650 
# 
# 
# High freq. dielectric constant tensor:
#      x y z
#    x 1.829070 0.000000 0.000000 
#    y 0.000000 1.837070 0.000000 
#    z 0.000000 0.000000 1.845750 
# 
# From -- ./inp_files/38720.got.cif
#   From: 2010.03.12/outbox.cif.g09.slc.cpg/sg70_20_cif.got.tgz:38720.got - 2010.04.16 13:46:32.
