data_PCOD8286675
_publ_section_title
;
Structure prediction by ZEFSAII (Michael W. Deem and Ramdas Pophale) SiO2 
 PCOD8286675
Probable space group: F D D D
;
_chemical_formula_sum "Si O2"
_cell_formula_units_Z 168
_cell_length_a 14.626034
_cell_length_b 22.107925
_cell_length_c 22.742937
_cell_angle_alpha 90.000000
_cell_angle_beta 90.000000
_cell_angle_gamma 90.000000
_cell_volume 7353.957397
_symmetry_space_group_name_H-M "F D D D"
_symmetry_group_IT_number 70
_space_group.IT_coordinate_system_code '2'
_symmetry_cell_setting 'orthorhombic'
loop_
_space_group_symop_operation_xyz
x,y,z
1/4-x,1/4-y,z
x,1/4-y,1/4-z
1/4-x,y,1/4-z
-x,-y,-z
3/4+x,3/4+y,-z
-x,3/4+y,3/4+z
3/4+x,-y,3/4+z
x,1/2+y,1/2+z
1/4-x,3/4-y,1/2+z
x,3/4-y,3/4-z
1/4-x,1/2+y,3/4-z
-x,1/2-y,1/2-z
3/4+x,1/4+y,1/2-z
-x,1/4+y,1/4+z
3/4+x,1/2-y,1/4+z
1/2+x,y,1/2+z
3/4-x,1/4-y,1/2+z
1/2+x,1/4-y,3/4-z
3/4-x,y,3/4-z
1/2-x,-y,1/2-z
1/4+x,3/4+y,1/2-z
1/2-x,3/4+y,1/4+z
1/4+x,-y,1/4+z
1/2+x,1/2+y,z
3/4-x,3/4-y,z
1/2+x,3/4-y,1/4-z
3/4-x,1/2+y,1/4-z
1/2-x,1/2-y,-z
1/4+x,1/4+y,-z
1/2-x,1/4+y,3/4+z
1/4+x,1/2-y,3/4+z
loop_
_atom_site_type_symbol
_atom_site_label
_atom_site_fract_x
_atom_site_fract_y
_atom_site_fract_z
Si Si1 0.711029 0.668128 0.804872
Si Si2 0.327502 0.254865 0.082184
Si Si3 0.375000 0.875000 0.875000
Si Si4 0.461893 0.836675 0.271937
Si Si5 0.387721 0.645687 0.939056
Si Si6 0.529774 0.520377 0.689638
O O1 0.625000 0.625000 0.799882
O O2 0.712976 0.698991 0.869562
O O3 0.791971 0.623273 0.782937
O O4 0.719069 0.724341 0.760432
O O5 0.266399 0.193125 0.077363
O O6 0.433791 0.241186 0.093738
O O7 0.328942 0.283455 0.017509
O O8 0.436895 0.915774 0.833765
O O9 0.375000 0.875000 0.295485
O O10 0.528162 0.875319 0.229608
O O11 0.375000 0.613558 0.875000
O O12 0.399016 0.716808 0.926734
#
# Coordination Sequence:
#
# PCOD8286675 Si02
#       6
#    32  32   8  32  32  32
#     4  12  26  45  73 110 143 195 251 297 373 451
#     4  11  24  44  73 104 148 190 246 306 362 444
#     4  12  28  48  68 108 146 184 248 312 372 440
#     4  11  22  43  74 105 145 191 245 298 367 433
#     4  12  23  43  76 102 141 194 245 297 362 441
#     4  12  26  46  73 105 146 193 240 317 372 437
#
# _framework density 22.844843000000001
#
# number of rings (size 3 to 8) (size 9 to 14) (size 15 to 20)
#    0.000    0.381    7.619    1.714    0.000    2.286 
#    0.000    0.000    4.190    0.000    0.000    0.000 
#    0.000    0.000    0.000    0.000    0.000    0.000 
#
# Total GULP energy -520413.808453 kJ/mol
# GULP energy per Si atom -12390.804963 kJ/mol
# Density = 2.279285 g / cm^3
# Si number density = 22.844843 Si / 1000 Ang^3
#
#
#
# Elastic Constant Matrix: (Units=GPa)
#
#
# Indices 1 2 3 4 5 6 
#
# 1 140.1984 79.8349 47.6010 0.0000 0.0000 0.0000
# 2 79.8349 119.9544 21.7636 0.0000 0.0000 0.0000
# 3 47.6010 21.7636 52.4007 0.0000 0.0000 0.0000
# 4 0.0000 0.0000 0.0000 110.6293 0.0000 0.0000
# 5 0.0000 0.0000 0.0000 0.0000 10.0718 0.0000
# 6 0.0000 0.0000 0.0000 0.0000 0.0000 55.4919
#
#
#
# Elastic Compliance Matrix: (Units=1/GPa)
#
#
# Indices 1 2 3 4 5 6 
#
# 1 0.015521 -0.008405 -0.010608 0.000000 0.000000 0.000000
# 2 -0.008405 0.013568 0.002000 0.000000 0.000000 0.000000
# 3 -0.010608 0.002000 0.027890 0.000000 0.000000 0.000000
# 4 0.000000 0.000000 0.000000 0.009039 0.000000 0.000000
# 5 0.000000 0.000000 0.000000 0.000000 0.099287 0.000000
# 6 0.000000 0.000000 0.000000 0.000000 0.000000 0.018021
#
#
# Mechanical properties :
#
#
# Convention : Reuss Voigt Hill
#
# Bulk Modulus (GPa) = 43.56996 67.88359 55.72677
# Shear Modulus (GPa) = 22.22208 46.12885 34.17547
#
# Velocity S-wave (km/s) = 3.12226 4.49845 3.87199
# Velocity P-wave (km/s) = 5.66670 7.53399 6.66605
#
# Compressibility (1/GPa) = 0.02295159
#
# Stress axis : x y z
#
# Youngs Moduli (GPa) = 64.43022 73.70546 35.85577
#
# Poissons Ratio (x) = 0.61950 0.38036
# Poissons Ratio (y) = 0.54154 -0.07172
# Poissons Ratio (z) = 0.68349 -0.14742
#
# Static dielectric constant tensor:
#      x y z
#    x 4.356440 0.000000 0.000000 
#    y 0.000000 4.133820 0.000000 
#    z 0.000000 0.000000 4.090940 
# 
# 
# High freq. dielectric constant tensor:
#      x y z
#    x 1.913520 0.000000 0.000000 
#    y 0.000000 1.904820 0.000000 
#    z 0.000000 0.000000 1.891000 
# 
# From -- ./inp_files/42830.got.cif
#   From: 2010.03.12/outbox.cif.g09.slc.cpg/sg70_22_cif.got.tgz:42830.got - 2010.04.16 13:46:32.
