data_PCOD8286725
_publ_section_title
;
Structure prediction by ZEFSAII (Michael W. Deem and Ramdas Pophale) SiO2 
 PCOD8286725
Probable space group: F D D D
;
_chemical_formula_sum "Si O2"
_cell_formula_units_Z 160
_cell_length_a 20.982990
_cell_length_b 19.869275
_cell_length_c 16.450459
_cell_angle_alpha 90.000000
_cell_angle_beta 90.000000
_cell_angle_gamma 90.000000
_cell_volume 6858.472702
_symmetry_space_group_name_H-M "F D D D"
_symmetry_group_IT_number 70
_space_group.IT_coordinate_system_code '2'
_symmetry_cell_setting 'orthorhombic'
loop_
_space_group_symop_operation_xyz
x,y,z
1/4-x,1/4-y,z
x,1/4-y,1/4-z
1/4-x,y,1/4-z
-x,-y,-z
3/4+x,3/4+y,-z
-x,3/4+y,3/4+z
3/4+x,-y,3/4+z
x,1/2+y,1/2+z
1/4-x,3/4-y,1/2+z
x,3/4-y,3/4-z
1/4-x,1/2+y,3/4-z
-x,1/2-y,1/2-z
3/4+x,1/4+y,1/2-z
-x,1/4+y,1/4+z
3/4+x,1/2-y,1/4+z
1/2+x,y,1/2+z
3/4-x,1/4-y,1/2+z
1/2+x,1/4-y,3/4-z
3/4-x,y,3/4-z
1/2-x,-y,1/2-z
1/4+x,3/4+y,1/2-z
1/2-x,3/4+y,1/4+z
1/4+x,-y,1/4+z
1/2+x,1/2+y,z
3/4-x,3/4-y,z
1/2+x,3/4-y,1/4-z
3/4-x,1/2+y,1/4-z
1/2-x,1/2-y,-z
1/4+x,1/4+y,-z
1/2-x,1/4+y,3/4+z
1/4+x,1/2-y,3/4+z
loop_
_atom_site_type_symbol
_atom_site_label
_atom_site_fract_x
_atom_site_fract_y
_atom_site_fract_z
Si Si1 0.126000 0.719765 0.453313
Si Si2 0.048240 0.354589 0.960795
Si Si3 0.419835 0.933457 0.726788
Si Si4 0.651900 0.324991 0.211187
Si Si5 0.472463 0.866001 0.278243
O O1 0.099693 0.794442 0.460872
O O2 0.145090 0.704873 0.360870
O O3 0.190124 0.706717 0.507639
O O4 0.070719 0.670825 0.483505
O O5 0.016388 0.375000 0.875000
O O6 0.090344 0.419741 0.981147
O O7 0.992565 0.343041 0.026599
O O8 0.375000 0.875000 0.763103
O O9 0.422822 0.997146 0.787712
O O10 0.625000 0.348899 0.125000
O O11 0.707387 0.375572 0.241000
O O12 0.474792 0.875000 0.375000
#
# Coordination Sequence:
#
# PCOD8286725 Si02
#       5
#    32  32  32  32  32
#     4  11  23  48  76 108 146 194 243 300 376 437
#     4  12  27  46  74 109 144 194 252 303 366 444
#     4  12  27  46  74 102 148 196 245 302 365 429
#     4  12  28  46  72 112 146 193 253 302 364 445
#     4  11  24  47  79 111 149 189 244 309 374 445
#
# _framework density 23.328807999999999
#
# number of rings (size 3 to 8) (size 9 to 14) (size 15 to 20)
#    0.000    0.400    6.000    3.000    2.800    3.200 
#    0.000    0.000    0.000    0.000    0.000    0.000 
#    0.000    0.000    0.000    0.000    0.000    0.000 
#
# Total GULP energy -495814.640619 kJ/mol
# GULP energy per Si atom -12395.366015 kJ/mol
# Density = 2.327571 g / cm^3
# Si number density = 23.328808 Si / 1000 Ang^3
#
#
#
# Elastic Constant Matrix: (Units=GPa)
#
#
# Indices 1 2 3 4 5 6 
#
# 1 173.3827 48.1910 56.7283 0.0000 0.0000 0.0000
# 2 48.1910 79.6295 8.2251 0.0000 0.0000 0.0000
# 3 56.7283 8.2251 122.0425 0.0000 0.0000 0.0000
# 4 0.0000 0.0000 0.0000 21.6661 0.0000 0.0000
# 5 0.0000 0.0000 0.0000 0.0000 39.1170 0.0000
# 6 0.0000 0.0000 0.0000 0.0000 0.0000 25.3920
#
#
#
# Elastic Compliance Matrix: (Units=1/GPa)
#
#
# Indices 1 2 3 4 5 6 
#
# 1 0.008189 -0.004595 -0.003497 0.000000 0.000000 0.000000
# 2 -0.004595 0.015224 0.001110 0.000000 0.000000 0.000000
# 3 -0.003497 0.001110 0.009744 0.000000 0.000000 0.000000
# 4 0.000000 0.000000 0.000000 0.046155 0.000000 0.000000
# 5 0.000000 0.000000 0.000000 0.000000 0.025564 0.000000
# 6 0.000000 0.000000 0.000000 0.000000 0.000000 0.039382
#
#
# Mechanical properties :
#
#
# Convention : Reuss Voigt Hill
#
# Bulk Modulus (GPa) = 52.09941 66.81595 59.45768
# Shear Modulus (GPa) = 30.37292 34.69569 32.53431
#
# Velocity S-wave (km/s) = 3.61217 3.86067 3.73848
# Velocity P-wave (km/s) = 6.30699 6.96966 6.64659
#
# Compressibility (1/GPa) = 0.01919407
#
# Stress axis : x y z
#
# Youngs Moduli (GPa) = 122.11997 65.68528 102.62299
#
# Poissons Ratio (x) = 0.30179 0.35884
# Poissons Ratio (y) = 0.56108 -0.11387
# Poissons Ratio (z) = 0.42701 -0.07289
#
# Static dielectric constant tensor:
#      x y z
#    x 4.432450 0.000000 0.000000 
#    y 0.000000 4.328590 0.000000 
#    z 0.000000 0.000000 4.146830 
# 
# 
# High freq. dielectric constant tensor:
#      x y z
#    x 1.942240 0.000000 0.000000 
#    y 0.000000 1.923250 0.000000 
#    z 0.000000 0.000000 1.920920 
# 
# From -- ./inp_files/36327.got.cif
#   From: 2010.03.12/outbox.cif.g09.slc.cpg/sg70_19_cif.got.tgz:36327.got - 2010.04.16 13:46:32.
