data_PCOD8286976
_publ_section_title
;
Structure prediction by ZEFSAII (Michael W. Deem and Ramdas Pophale) SiO2 
 PCOD8286976
Probable space group: I M M M
;
_chemical_formula_sum "Si O2"
_cell_formula_units_Z 88
_cell_length_a 13.927925
_cell_length_b 12.083538
_cell_length_c 33.625993
_cell_angle_alpha 90.000000
_cell_angle_beta 90.000000
_cell_angle_gamma 90.000000
_cell_volume 5659.207915
_symmetry_space_group_name_H-M "I M M M"
_symmetry_group_IT_number 71
_symmetry_cell_setting 'orthorhombic'
loop_
_space_group_symop_operation_xyz
x,y,z
-x,-y,z
x,-y,-z
-x,y,-z
-x,-y,-z
x,y,-z
-x,y,z
x,-y,z
1/2+x,1/2+y,1/2+z
1/2-x,1/2-y,1/2+z
1/2+x,1/2-y,1/2-z
1/2-x,1/2+y,1/2-z
1/2-x,1/2-y,1/2-z
1/2+x,1/2+y,1/2-z
1/2-x,1/2+y,1/2+z
1/2+x,1/2-y,1/2+z
loop_
_atom_site_type_symbol
_atom_site_label
_atom_site_fract_x
_atom_site_fract_y
_atom_site_fract_z
Si Si1 0.805239 0.257686 0.191828
Si Si2 0.606026 0.275067 0.774015
Si Si3 0.612986 0.000000 0.575648
Si Si4 0.399053 0.500000 0.817950
Si Si5 0.699126 0.000000 0.660834
Si Si6 0.386998 0.628240 0.618115
Si Si7 0.385951 0.769111 0.543986
O O1 0.696153 0.218773 0.203096
O O2 0.877456 0.224913 0.226788
O O3 0.820332 0.389661 0.186362
O O4 0.830800 0.192571 0.152131
O O5 0.500000 0.221162 0.783142
O O6 0.606121 0.400201 0.787572
O O7 0.656613 0.110105 0.555483
O O8 0.500000 0.000000 0.570136
O O9 0.634638 0.000000 0.622167
O O10 0.500000 0.500000 0.842083
O O11 0.313154 0.500000 0.850120
O O12 0.500000 0.646614 0.624155
O O13 0.358921 0.500000 0.619054
O O14 0.352195 0.677551 0.575757
O O15 0.348016 0.736271 0.500000
O O16 0.500000 0.775701 0.543905
#
# Coordination Sequence:
#
# PCOD8286976 Si02
#       7
#    16  16   8   8   8  16  16
#     4  10  19  31  47  65  90 118 150 188 222 261
#     4   9  18  31  46  66  89 118 152 185 223 262
#     4  10  17  26  42  66  94 120 144 174 213 265
#     4   8  16  30  47  65  86 113 149 186 219 262
#     4  10  18  29  46  66  89 117 146 181 223 260
#     4  10  20  31  45  65  88 118 153 186 222 262
#     4   9  17  29  44  63  89 120 149 176 212 261
#
# _framework density 15.54988
#
# number of rings (size 3 to 8) (size 9 to 14) (size 15 to 20)
#    0.000    2.545    1.818    0.818    1.273    2.182 
#    1.636    1.818    0.000    0.000    0.000    0.000 
#    0.000    3.636    0.000    1.636    0.000    0.182 
#
# Total GULP energy -545168.552155 kJ/mol
# GULP energy per Si atom -12390.194367 kJ/mol
# Density = 1.551449 g / cm^3
# Si number density = 15.549880 Si / 1000 Ang^3
#
#
#
# Elastic Constant Matrix: (Units=GPa)
#
#
# Indices 1 2 3 4 5 6 
#
# 1 54.6230 24.2778 20.9541 0.0000 0.0000 0.0000
# 2 24.2778 70.8006 23.4645 0.0000 0.0000 0.0000
# 3 20.9541 23.4645 83.3672 0.0000 0.0000 0.0000
# 4 0.0000 0.0000 0.0000 15.3414 0.0000 0.0000
# 5 0.0000 0.0000 0.0000 0.0000 15.3314 0.0000
# 6 0.0000 0.0000 0.0000 0.0000 0.0000 14.2167
#
#
#
# Elastic Compliance Matrix: (Units=1/GPa)
#
#
# Indices 1 2 3 4 5 6 
#
# 1 0.022679 -0.006493 -0.003873 0.000000 0.000000 0.000000
# 2 -0.006493 0.017436 -0.003276 0.000000 0.000000 0.000000
# 3 -0.003873 -0.003276 0.013890 0.000000 0.000000 0.000000
# 4 0.000000 0.000000 0.000000 0.065183 0.000000 0.000000
# 5 0.000000 0.000000 0.000000 0.000000 0.065226 0.000000
# 6 0.000000 0.000000 0.000000 0.000000 0.000000 0.070340
#
#
# Mechanical properties :
#
#
# Convention : Reuss Voigt Hill
#
# Bulk Modulus (GPa) = 37.42137 38.46486 37.94312
# Shear Modulus (GPa) = 17.18540 18.31753 17.75147
#
# Velocity S-wave (km/s) = 3.32803 3.43590 3.38240
# Velocity P-wave (km/s) = 6.23581 6.36637 6.30143
#
# Compressibility (1/GPa) = 0.02672270
#
# Stress axis : x y z
#
# Youngs Moduli (GPa) = 44.09388 57.35167 71.99181
#
# Poissons Ratio (x) = 0.37240 0.27880
# Poissons Ratio (y) = 0.28631 0.23581
# Poissons Ratio (z) = 0.17076 0.18786
#
# Static dielectric constant tensor:
#      x y z
#    x 3.152820 0.000000 0.000000 
#    y 0.000000 3.077130 0.000000 
#    z 0.000000 0.000000 2.977900 
# 
# 
# High freq. dielectric constant tensor:
#      x y z
#    x 1.567980 0.000000 0.000000 
#    y 0.000000 1.597700 0.000000 
#    z 0.000000 0.000000 1.589670 
# 
# From -- ./inp_files/69234.got.cif
#   From: 2010.06.25/outbox.cif.g09.slc.cpg/sg71_35_cif.got.tgz:69234.got - 2010.06.28 04:59:45.
