data_PCOD8286732
_publ_section_title
;
Structure prediction by ZEFSAII (Michael W. Deem and Ramdas Pophale) SiO2 
 PCOD8286732
Probable space group: F D D D
;
_chemical_formula_sum "Si O2"
_cell_formula_units_Z 184
_cell_length_a 19.271063
_cell_length_b 14.631407
_cell_length_c 28.884342
_cell_angle_alpha 90.000000
_cell_angle_beta 90.000000
_cell_angle_gamma 90.000000
_cell_volume 8144.308967
_symmetry_space_group_name_H-M "F D D D"
_symmetry_group_IT_number 70
_space_group.IT_coordinate_system_code '2'
_symmetry_cell_setting 'orthorhombic'
loop_
_space_group_symop_operation_xyz
x,y,z
1/4-x,1/4-y,z
x,1/4-y,1/4-z
1/4-x,y,1/4-z
-x,-y,-z
3/4+x,3/4+y,-z
-x,3/4+y,3/4+z
3/4+x,-y,3/4+z
x,1/2+y,1/2+z
1/4-x,3/4-y,1/2+z
x,3/4-y,3/4-z
1/4-x,1/2+y,3/4-z
-x,1/2-y,1/2-z
3/4+x,1/4+y,1/2-z
-x,1/4+y,1/4+z
3/4+x,1/2-y,1/4+z
1/2+x,y,1/2+z
3/4-x,1/4-y,1/2+z
1/2+x,1/4-y,3/4-z
3/4-x,y,3/4-z
1/2-x,-y,1/2-z
1/4+x,3/4+y,1/2-z
1/2-x,3/4+y,1/4+z
1/4+x,-y,1/4+z
1/2+x,1/2+y,z
3/4-x,3/4-y,z
1/2+x,3/4-y,1/4-z
3/4-x,1/2+y,1/4-z
1/2-x,1/2-y,-z
1/4+x,1/4+y,-z
1/2-x,1/4+y,3/4+z
1/4+x,1/2-y,3/4+z
loop_
_atom_site_type_symbol
_atom_site_label
_atom_site_fract_x
_atom_site_fract_y
_atom_site_fract_z
Si Si1 0.125000 0.125000 0.625000
Si Si2 0.192590 0.777393 0.400994
Si Si3 0.337677 0.539953 0.826394
Si Si4 0.659501 0.789341 0.268995
Si Si5 0.939584 0.501860 0.803605
Si Si6 0.326422 0.002630 0.731702
Si Si7 0.375000 0.875000 0.657112
O O1 0.069382 0.186541 0.597527
O O2 0.179601 0.875000 0.375000
O O3 0.269956 0.774526 0.421998
O O4 0.141528 0.749863 0.442665
O O5 0.180233 0.690017 0.368291
O O6 0.375000 0.524064 0.875000
O O7 0.386354 0.510092 0.783012
O O8 0.318185 0.645074 0.820257
O O9 0.737348 0.756117 0.277552
O O10 0.651289 0.895648 0.279326
O O11 0.880737 0.465183 0.768978
O O12 0.325468 0.940687 0.686443
O O13 0.250000 0.000000 0.750000
#
# Coordination Sequence:
#
# PCOD8286732 Si02
#       7
#     8  32  32  32  32  32  16
#     4  12  22  40  72 112 162 176 246 290 384 444
#     4  12  27  48  72 111 143 200 255 308 373 455
#     4  11  27  48  76 102 144 197 250 309 373 439
#     4  11  25  47  71 105 151 187 250 307 370 441
#     4  11  25  42  72 112 147 194 239 304 370 450
#     4  11  24  42  71 108 150 196 239 301 378 445
#     4  12  25  44  78 107 153 190 250 307 380 442
#
# _framework density 22.592464
#
# number of rings (size 3 to 8) (size 9 to 14) (size 15 to 20)
#    0.000    0.696    2.609    4.174    8.522    3.130 
#    0.000    3.478    0.000    0.000    0.000    0.000 
#    0.000    0.000    0.000    0.000    0.000    0.000 
#
# Total GULP energy -570335.432926 kJ/mol
# GULP energy per Si atom -12398.596368 kJ/mol
# Density = 2.254104 g / cm^3
# Si number density = 22.592464 Si / 1000 Ang^3
#
#
#
# Elastic Constant Matrix: (Units=GPa)
#
#
# Indices 1 2 3 4 5 6 
#
# 1 189.1540 21.4044 86.6344 0.0000 0.0000 0.0000
# 2 21.4044 40.3414 15.9692 0.0000 0.0000 0.0000
# 3 86.6344 15.9692 143.6914 0.0000 0.0000 0.0000
# 4 0.0000 0.0000 0.0000 30.0385 0.0000 0.0000
# 5 0.0000 0.0000 0.0000 0.0000 28.9793 0.0000
# 6 0.0000 0.0000 0.0000 0.0000 0.0000 31.1210
#
#
#
# Elastic Compliance Matrix: (Units=1/GPa)
#
#
# Indices 1 2 3 4 5 6 
#
# 1 0.007500 -0.002290 -0.004268 0.000000 0.000000 0.000000
# 2 -0.002290 0.026628 -0.001579 0.000000 0.000000 0.000000
# 3 -0.004268 -0.001579 0.009708 0.000000 0.000000 0.000000
# 4 0.000000 0.000000 0.000000 0.033291 0.000000 0.000000
# 5 0.000000 0.000000 0.000000 0.000000 0.034507 0.000000
# 6 0.000000 0.000000 0.000000 0.000000 0.000000 0.032133
#
#
# Mechanical properties :
#
#
# Convention : Reuss Voigt Hill
#
# Bulk Modulus (GPa) = 36.27932 69.02254 52.65093
# Shear Modulus (GPa) = 29.54586 34.63966 32.09276
#
# Velocity S-wave (km/s) = 3.62024 3.91991 3.77305
# Velocity P-wave (km/s) = 5.79378 7.14878 6.50665
#
# Compressibility (1/GPa) = 0.02756391
#
# Stress axis : x y z
#
# Youngs Moduli (GPa) = 133.32447 37.55378 103.00937
#
# Poissons Ratio (x) = 0.08601 0.43961
# Poissons Ratio (y) = 0.30535 0.16260
# Poissons Ratio (z) = 0.56899 0.05928
#
# Static dielectric constant tensor:
#      x y z
#    x 4.050250 0.000000 0.000000 
#    y 0.000000 4.101770 0.000000 
#    z 0.000000 0.000000 4.221590 
# 
# 
# High freq. dielectric constant tensor:
#      x y z
#    x 1.896460 0.000000 0.000000 
#    y 0.000000 1.902610 0.000000 
#    z 0.000000 0.000000 1.903090 
# 
# From -- ./inp_files/60394.got.cif
#   From: 2010.03.12/outbox.cif.g09.slc.cpg/sg70_31_cif.got.tgz:60394.got - 2010.04.16 13:46:32.
