data_PCOD8286339
_publ_section_title
;
Structure prediction by ZEFSAII (Michael W. Deem and Ramdas Pophale) SiO2 
 PCOD8286339
Probable space group: F D D D
;
_chemical_formula_sum "Si O2"
_cell_formula_units_Z 216
_cell_length_a 29.105046
_cell_length_b 11.570094
_cell_length_c 30.696483
_cell_angle_alpha 90.000000
_cell_angle_beta 90.000000
_cell_angle_gamma 90.000000
_cell_volume 10336.982882
_symmetry_space_group_name_H-M "F D D D"
_symmetry_group_IT_number 70
_space_group.IT_coordinate_system_code '2'
_symmetry_cell_setting 'orthorhombic'
loop_
_space_group_symop_operation_xyz
x,y,z
1/4-x,1/4-y,z
x,1/4-y,1/4-z
1/4-x,y,1/4-z
-x,-y,-z
3/4+x,3/4+y,-z
-x,3/4+y,3/4+z
3/4+x,-y,3/4+z
x,1/2+y,1/2+z
1/4-x,3/4-y,1/2+z
x,3/4-y,3/4-z
1/4-x,1/2+y,3/4-z
-x,1/2-y,1/2-z
3/4+x,1/4+y,1/2-z
-x,1/4+y,1/4+z
3/4+x,1/2-y,1/4+z
1/2+x,y,1/2+z
3/4-x,1/4-y,1/2+z
1/2+x,1/4-y,3/4-z
3/4-x,y,3/4-z
1/2-x,-y,1/2-z
1/4+x,3/4+y,1/2-z
1/2-x,3/4+y,1/4+z
1/4+x,-y,1/4+z
1/2+x,1/2+y,z
3/4-x,3/4-y,z
1/2+x,3/4-y,1/4-z
3/4-x,1/2+y,1/4-z
1/2-x,1/2-y,-z
1/4+x,1/4+y,-z
1/2-x,1/4+y,3/4+z
1/4+x,1/2-y,3/4+z
loop_
_atom_site_type_symbol
_atom_site_label
_atom_site_fract_x
_atom_site_fract_y
_atom_site_fract_z
Si Si1 0.255727 0.125000 0.125000
Si Si2 0.761757 0.622568 0.372481
Si Si3 0.835518 0.134110 0.028587
Si Si4 0.058973 0.237988 0.693278
Si Si5 0.006884 0.508385 0.213137
Si Si6 0.875000 0.375000 0.875000
Si Si7 0.812614 0.075999 0.540352
Si Si8 0.077178 0.599395 0.914141
O O1 0.222741 0.237934 0.120685
O O2 0.287666 0.126004 0.082498
O O3 0.775434 0.673348 0.419258
O O4 0.775055 0.699175 0.331291
O O5 0.706752 0.623692 0.374652
O O6 0.798683 0.027285 0.031716
O O7 0.889874 0.100728 0.032843
O O8 0.821647 0.219950 0.067707
O O9 0.833668 0.195254 0.981873
O O10 0.030202 0.133745 0.713886
O O11 0.095325 0.205033 0.656385
O O12 0.026591 0.422313 0.250089
O O13 0.824406 0.940479 0.545875
O O14 0.125000 0.625000 0.890429
#
# Coordination Sequence:
#
# PCOD8286339 Si02
#       8
#    16  32  32  32  32   8  32  32
#     4  10  24  46  63  83 126 172 224 272 324 378
#     4  11  23  39  62  90 128 173 215 264 319 389
#     4  11  21  34  62  90 134 165 207 262 337 394
#     4  12  22  38  60 101 133 165 204 266 335 399
#     4  12  22  38  63  97 130 165 218 269 328 405
#     4  12  24  36  62  98 144 160 204 274 330 400
#     4  10  22  39  59  91 125 171 212 264 322 388
#     4   9  18  33  55  86 123 165 200 250 319 383
#
# _framework density 20.895845000000001
#
# number of rings (size 3 to 8) (size 9 to 14) (size 15 to 20)
#    0.000    1.185    4.444    3.111    1.037    4.148 
#    0.000    0.000    0.000    0.444    0.000    0.000 
#    0.000    0.000    0.000    0.000    0.000    0.000 
#
# Total GULP energy -669174.673577 kJ/mol
# GULP energy per Si atom -12392.123585 kJ/mol
# Density = 2.084829 g / cm^3
# Si number density = 20.895845 Si / 1000 Ang^3
#
#
#
# Elastic Constant Matrix: (Units=GPa)
#
#
# Indices 1 2 3 4 5 6 
#
# 1 61.6294 8.3514 4.8362 0.0000 0.0000 0.0000
# 2 8.3514 62.9906 16.9239 0.0000 0.0000 0.0000
# 3 4.8362 16.9239 86.8587 0.0000 0.0000 0.0000
# 4 0.0000 0.0000 0.0000 27.8625 0.0000 0.0000
# 5 0.0000 0.0000 0.0000 0.0000 26.0691 0.0000
# 6 0.0000 0.0000 0.0000 0.0000 0.0000 17.2853
#
#
#
# Elastic Compliance Matrix: (Units=1/GPa)
#
#
# Indices 1 2 3 4 5 6 
#
# 1 0.016545 -0.002054 -0.000521 0.000000 0.000000 0.000000
# 2 -0.002054 0.017007 -0.003199 0.000000 0.000000 0.000000
# 3 -0.000521 -0.003199 0.012165 0.000000 0.000000 0.000000
# 4 0.000000 0.000000 0.000000 0.035891 0.000000 0.000000
# 5 0.000000 0.000000 0.000000 0.000000 0.038360 0.000000
# 6 0.000000 0.000000 0.000000 0.000000 0.000000 0.057852
#
#
# Mechanical properties :
#
#
# Convention : Reuss Voigt Hill
#
# Bulk Modulus (GPa) = 29.26577 30.18908 29.72742
# Shear Modulus (GPa) = 24.90554 26.33452 25.62003
#
# Velocity S-wave (km/s) = 3.45612 3.55389 3.50534
# Velocity P-wave (km/s) = 5.47378 5.59633 5.53540
#
# Compressibility (1/GPa) = 0.03416961
#
# Stress axis : x y z
#
# Youngs Moduli (GPa) = 60.44051 58.79843 82.20063
#
# Poissons Ratio (x) = 0.12075 0.04283
# Poissons Ratio (y) = 0.12412 0.26300
# Poissons Ratio (z) = 0.03149 0.18812
#
# Static dielectric constant tensor:
#      x y z
#    x 4.077370 0.000000 0.000000 
#    y 0.000000 3.858160 0.000000 
#    z 0.000000 0.000000 3.667970 
# 
# 
# High freq. dielectric constant tensor:
#      x y z
#    x 1.815030 0.000000 0.000000 
#    y 0.000000 1.786600 0.000000 
#    z 0.000000 0.000000 1.824650 
# 
# From -- ./inp_files/69023.got.cif
#   From: 2010.03.12/outbox.cif.g09.slc.cpg/sg70_35_cif.got.tgz:69023.got - 2010.04.16 13:46:32.
