data_PCOD8286359
_publ_section_title
;
Structure prediction by ZEFSAII (Michael W. Deem and Ramdas Pophale) SiO2 
 PCOD8286359
Probable space group: F D D D
;
_chemical_formula_sum "Si O2"
_cell_formula_units_Z 240
_cell_length_a 28.935675
_cell_length_b 19.269554
_cell_length_c 19.745320
_cell_angle_alpha 90.000000
_cell_angle_beta 90.000000
_cell_angle_gamma 90.000000
_cell_volume 11009.547188
_symmetry_space_group_name_H-M "F D D D"
_symmetry_group_IT_number 70
_space_group.IT_coordinate_system_code '2'
_symmetry_cell_setting 'orthorhombic'
loop_
_space_group_symop_operation_xyz
x,y,z
1/4-x,1/4-y,z
x,1/4-y,1/4-z
1/4-x,y,1/4-z
-x,-y,-z
3/4+x,3/4+y,-z
-x,3/4+y,3/4+z
3/4+x,-y,3/4+z
x,1/2+y,1/2+z
1/4-x,3/4-y,1/2+z
x,3/4-y,3/4-z
1/4-x,1/2+y,3/4-z
-x,1/2-y,1/2-z
3/4+x,1/4+y,1/2-z
-x,1/4+y,1/4+z
3/4+x,1/2-y,1/4+z
1/2+x,y,1/2+z
3/4-x,1/4-y,1/2+z
1/2+x,1/4-y,3/4-z
3/4-x,y,3/4-z
1/2-x,-y,1/2-z
1/4+x,3/4+y,1/2-z
1/2-x,3/4+y,1/4+z
1/4+x,-y,1/4+z
1/2+x,1/2+y,z
3/4-x,3/4-y,z
1/2+x,3/4-y,1/4-z
3/4-x,1/2+y,1/4-z
1/2-x,1/2-y,-z
1/4+x,1/4+y,-z
1/2-x,1/4+y,3/4+z
1/4+x,1/2-y,3/4+z
loop_
_atom_site_type_symbol
_atom_site_label
_atom_site_fract_x
_atom_site_fract_y
_atom_site_fract_z
Si Si1 0.716443 0.856325 0.297268
Si Si2 0.214499 0.559035 0.273191
Si Si3 0.570636 0.860881 0.221927
Si Si4 0.528595 0.620595 0.913032
Si Si5 0.386356 0.538333 0.526789
Si Si6 0.662841 0.990483 0.834549
Si Si7 0.125000 0.486992 0.625000
Si Si8 0.079242 0.531912 0.749445
O O1 0.722145 0.875000 0.375000
O O2 0.766986 0.871868 0.263819
O O3 0.674664 0.902040 0.268358
O O4 0.704553 0.777979 0.278282
O O5 0.250000 0.500000 0.250000
O O6 0.214327 0.573286 0.353489
O O7 0.161702 0.534278 0.255342
O O8 0.525009 0.866404 0.178624
O O9 0.593819 0.937828 0.228835
O O10 0.564062 0.825910 0.296483
O O11 0.604076 0.810937 0.182066
O O12 0.547447 0.544514 0.892262
O O13 0.554382 0.646363 0.980887
O O14 0.367309 0.535668 0.602718
O O15 0.628877 0.031327 0.784810
O O16 0.086884 0.531580 0.667425
#
# Coordination Sequence:
#
# PCOD8286359 Si02
#       8
#    32  32  32  32  32  32  16  32
#     4  11  18  38  66  97 133 169 223 264 337 416
#     4  10  23  38  66  98 127 167 223 279 329 404
#     4  11  24  40  65  93 130 171 218 273 331 404
#     4  12  25  41  63  98 133 166 224 281 330 385
#     4  11  20  41  67  93 125 178 224 265 335 408
#     4  11  22  42  65  90 125 175 223 265 320 403
#     4  10  22  40  63  88 128 171 216 260 330 390
#     4  11  21  39  65  90 129 178 212 267 333 399
#
# _framework density 21.799261999999999
#
# number of rings (size 3 to 8) (size 9 to 14) (size 15 to 20)
#    0.000    1.067    5.333    2.800    1.867    2.133 
#    0.000    8.000    0.000    1.600    0.000    0.000 
#    0.000    0.000    0.000    0.000    0.000    0.000 
#
# Total GULP energy -743543.966241 kJ/mol
# GULP energy per Si atom -12392.399437 kJ/mol
# Density = 2.174965 g / cm^3
# Si number density = 21.799262 Si / 1000 Ang^3
#
#
#
# Elastic Constant Matrix: (Units=GPa)
#
#
# Indices 1 2 3 4 5 6 
#
# 1 87.7052 42.8048 15.1286 0.0000 0.0000 0.0000
# 2 42.8048 69.8291 16.1683 0.0000 0.0000 0.0000
# 3 15.1286 16.1683 76.2513 0.0000 0.0000 0.0000
# 4 0.0000 0.0000 0.0000 26.1233 0.0000 0.0000
# 5 0.0000 0.0000 0.0000 0.0000 32.3857 0.0000
# 6 0.0000 0.0000 0.0000 0.0000 0.0000 31.6385
#
#
#
# Elastic Compliance Matrix: (Units=1/GPa)
#
#
# Indices 1 2 3 4 5 6 
#
# 1 0.016369 -0.009761 -0.001178 0.000000 0.000000 0.000000
# 2 -0.009761 0.020881 -0.002491 0.000000 0.000000 0.000000
# 3 -0.001178 -0.002491 0.013876 0.000000 0.000000 0.000000
# 4 0.000000 0.000000 0.000000 0.038280 0.000000 0.000000
# 5 0.000000 0.000000 0.000000 0.000000 0.030878 0.000000
# 6 0.000000 0.000000 0.000000 0.000000 0.000000 0.031607
#
#
# Mechanical properties :
#
#
# Convention : Reuss Voigt Hill
#
# Bulk Modulus (GPa) = 41.20967 42.44323 41.82645
# Shear Modulus (GPa) = 26.76076 28.67508 27.71792
#
# Velocity S-wave (km/s) = 3.50751 3.63080 3.56969
# Velocity P-wave (km/s) = 5.94548 6.09009 6.01822
#
# Compressibility (1/GPa) = 0.02426615
#
# Stress axis : x y z
#
# Youngs Moduli (GPa) = 61.09068 47.89018 72.06475
#
# Poissons Ratio (x) = 0.46748 0.08489
# Poissons Ratio (y) = 0.59633 0.17951
# Poissons Ratio (z) = 0.07196 0.11929
#
# Static dielectric constant tensor:
#      x y z
#    x 4.123520 0.000000 0.000000 
#    y 0.000000 4.063770 0.000000 
#    z 0.000000 0.000000 4.127620 
# 
# 
# High freq. dielectric constant tensor:
#      x y z
#    x 1.849200 0.000000 0.000000 
#    y 0.000000 1.847980 0.000000 
#    z 0.000000 0.000000 1.849940 
# 
# From -- ./inp_files/47119.got.cif
#   From: 2010.03.12/outbox.cif.g09.slc.cpg/sg70_24_cif.got.tgz:47119.got - 2010.04.16 13:46:32.
