data_PCOD8287759
_publ_section_title
;
Structure prediction by ZEFSAII (Michael W. Deem and Ramdas Pophale) SiO2 
 PCOD8287759
Probable space group: I M M M
;
_chemical_formula_sum "Si O2"
_cell_formula_units_Z 120
_cell_length_a 25.252134
_cell_length_b 24.747492
_cell_length_c 11.191543
_cell_angle_alpha 90.000000
_cell_angle_beta 90.000000
_cell_angle_gamma 90.000000
_cell_volume 6993.897215
_symmetry_space_group_name_H-M "I M M M"
_symmetry_group_IT_number 71
_symmetry_cell_setting 'orthorhombic'
loop_
_space_group_symop_operation_xyz
x,y,z
-x,-y,z
x,-y,-z
-x,y,-z
-x,-y,-z
x,y,-z
-x,y,z
x,-y,z
1/2+x,1/2+y,1/2+z
1/2-x,1/2-y,1/2+z
1/2+x,1/2-y,1/2-z
1/2-x,1/2+y,1/2-z
1/2-x,1/2-y,1/2-z
1/2+x,1/2+y,1/2-z
1/2-x,1/2+y,1/2+z
1/2+x,1/2-y,1/2+z
loop_
_atom_site_type_symbol
_atom_site_label
_atom_site_fract_x
_atom_site_fract_y
_atom_site_fract_z
Si Si1 0.058894 0.351920 0.641860
Si Si2 0.254516 0.897377 0.863509
Si Si3 0.355692 0.439198 0.640351
Si Si4 0.399345 0.739386 0.864057
Si Si5 0.861846 0.440551 0.642379
Si Si6 0.221761 0.727469 0.366187
Si Si7 0.062971 0.127832 0.271975
Si Si8 0.562528 0.560339 0.000000
O O1 0.065627 0.350723 0.500000
O O2 0.071677 0.292036 0.689995
O O3 0.098179 0.396461 0.698175
O O4 0.000000 0.368363 0.680766
O O5 0.197826 0.911796 0.802774
O O6 0.302494 0.931961 0.805968
O O7 0.273264 0.836153 0.851597
O O8 0.248409 0.914564 0.000000
O O9 0.350257 0.442505 0.500000
O O10 0.362943 0.500000 0.692740
O O11 0.406647 0.401578 0.664493
O O12 0.337409 0.750795 0.858861
O O13 0.416846 0.689180 0.782768
O O14 0.417890 0.727681 0.000000
O O15 0.860752 0.433764 0.500000
O O16 0.881811 0.500000 0.679543
O O17 0.244344 0.743615 0.500000
O O18 0.250000 0.750000 0.250000
O O19 0.081709 0.093761 0.386294
O O20 0.000000 0.126336 0.250135
O O21 0.587475 0.500000 0.000000
O O22 0.500000 0.555684 0.000000
#
# Coordination Sequence:
#
# PCOD8287759 Si02
#       8
#    16  16  16  16  16  16  16   8
#     4   9  16  25  39  61  93 130 163 198 240 290
#     4   9  16  30  48  68  94 126 164 204 246 291
#     4  10  21  35  51  71  95 126 164 206 252 304
#     4  10  18  31  48  70  98 128 167 207 246 297
#     4   9  15  24  40  63  92 127 164 198 237 288
#     4  10  19  31  50  74 103 135 167 209 255 304
#     4  11  21  33  50  70  93 125 164 206 250 298
#     4   9  18  32  48  66  88 116 155 201 242 282
#
# _framework density 17.157814999999999
#
# number of rings (size 3 to 8) (size 9 to 14) (size 15 to 20)
#    0.000    2.333    2.000    2.000    0.000    3.467 
#    0.000    2.000    0.000    0.000    0.000    0.000 
#    0.000    0.000    0.000    0.000    0.000    2.000 
#
# Total GULP energy -743463.478955 kJ/mol
# GULP energy per Si atom -12391.057983 kJ/mol
# Density = 1.711876 g / cm^3
# Si number density = 17.157815 Si / 1000 Ang^3
#
#
#
# Elastic Constant Matrix: (Units=GPa)
#
#
# Indices 1 2 3 4 5 6 
#
# 1 112.0759 68.7623 19.0436 0.0000 0.0000 0.0000
# 2 68.7623 138.7861 22.7166 0.0000 0.0000 0.0000
# 3 19.0436 22.7166 30.4591 0.0000 0.0000 0.0000
# 4 0.0000 0.0000 0.0000 17.6413 0.0000 0.0000
# 5 0.0000 0.0000 0.0000 0.0000 15.5673 0.0000
# 6 0.0000 0.0000 0.0000 0.0000 0.0000 28.1261
#
#
#
# Elastic Compliance Matrix: (Units=1/GPa)
#
#
# Indices 1 2 3 4 5 6 
#
# 1 0.013203 -0.005912 -0.003846 0.000000 0.000000 0.000000
# 2 -0.005912 0.010855 -0.004399 0.000000 0.000000 0.000000
# 3 -0.003846 -0.004399 0.038516 0.000000 0.000000 0.000000
# 4 0.000000 0.000000 0.000000 0.056685 0.000000 0.000000
# 5 0.000000 0.000000 0.000000 0.000000 0.064237 0.000000
# 6 0.000000 0.000000 0.000000 0.000000 0.000000 0.035554
#
#
# Mechanical properties :
#
#
# Convention : Reuss Voigt Hill
#
# Bulk Modulus (GPa) = 29.18827 55.81844 42.50335
# Shear Modulus (GPa) = 19.32110 23.65350 21.48730
#
# Velocity S-wave (km/s) = 3.35935 3.71696 3.54267
# Velocity P-wave (km/s) = 5.66530 7.14311 6.44669
#
# Compressibility (1/GPa) = 0.03426034
#
# Stress axis : x y z
#
# Youngs Moduli (GPa) = 75.73883 92.12697 25.96322
#
# Poissons Ratio (x) = 0.54467 0.09984
# Poissons Ratio (y) = 0.44778 0.11421
# Poissons Ratio (z) = 0.29126 0.40527
#
# Static dielectric constant tensor:
#      x y z
#    x 3.314820 0.000000 0.000000 
#    y 0.000000 3.380020 0.000000 
#    z 0.000000 0.000000 2.788850 
# 
# 
# High freq. dielectric constant tensor:
#      x y z
#    x 1.670140 0.000000 0.000000 
#    y 0.000000 1.680590 0.000000 
#    z 0.000000 0.000000 1.590740 
# 
# From -- ./inp_files/29149.got.cif
#   From: 2010.06.25/outbox.cif.g09.slc.cpg/sg71_15_cif.got.tgz:29149.got - 2010.06.28 04:59:45.
