data_PCOD8287987
_publ_section_title
;
Structure prediction by ZEFSAII (Michael W. Deem and Ramdas Pophale) SiO2 
 PCOD8287987
Probable space group: I M M M
;
_chemical_formula_sum "Si O2"
_cell_formula_units_Z 72
_cell_length_a 23.680385
_cell_length_b 11.442856
_cell_length_c 14.143782
_cell_angle_alpha 90.000000
_cell_angle_beta 90.000000
_cell_angle_gamma 90.000000
_cell_volume 3832.558084
_symmetry_space_group_name_H-M "I M M M"
_symmetry_group_IT_number 71
_symmetry_cell_setting 'orthorhombic'
loop_
_space_group_symop_operation_xyz
x,y,z
-x,-y,z
x,-y,-z
-x,y,-z
-x,-y,-z
x,y,-z
-x,y,z
x,-y,z
1/2+x,1/2+y,1/2+z
1/2-x,1/2-y,1/2+z
1/2+x,1/2-y,1/2-z
1/2-x,1/2+y,1/2-z
1/2-x,1/2-y,1/2-z
1/2+x,1/2+y,1/2-z
1/2-x,1/2+y,1/2+z
1/2+x,1/2-y,1/2+z
loop_
_atom_site_type_symbol
_atom_site_label
_atom_site_fract_x
_atom_site_fract_y
_atom_site_fract_z
Si Si1 0.327649 0.863595 0.263146
Si Si2 0.264584 0.731278 0.887067
Si Si3 0.938808 0.000000 0.682919
Si Si4 0.564204 0.732067 0.696511
Si Si5 0.177379 0.000000 0.605334
Si Si6 0.066523 0.869943 0.000000
O O1 0.296243 0.839950 0.162809
O O2 0.298518 0.787107 0.346946
O O3 0.393488 0.826805 0.257964
O O4 0.323792 0.000000 0.286881
O O5 0.298743 0.617616 0.848285
O O6 0.264472 0.750173 0.000000
O O7 0.932135 0.888300 0.748107
O O8 0.890456 0.000000 0.604364
O O9 0.000000 0.000000 0.631953
O O10 0.500000 0.781984 0.699770
O O11 0.584823 0.705316 0.590408
O O12 0.200853 0.000000 0.500000
O O13 0.000000 0.888417 0.000000
O O14 0.094710 0.000000 0.000000
#
# Coordination Sequence:
#
# PCOD8287987 Si02
#       6
#    16  16   8  16   8   8
#     4  11  23  38  60  84 114 152 189 230 279 340
#     4  10  22  40  60  83 112 146 187 234 285 337
#     4  10  18  32  56  84 111 142 185 233 279 327
#     4  10  20  34  54  82 115 149 188 231 277 328
#     4  10  18  35  59  81 109 142 177 228 289 334
#     4   9  16  30  51  77 111 149 186 229 275 320
#
# _framework density 18.786408999999999
#
# number of rings (size 3 to 8) (size 9 to 14) (size 15 to 20)
#    0.000    1.889    4.444    0.000    1.556    1.111 
#    0.000    0.000    0.000    2.667    0.000    1.556 
#    0.000    0.000    0.000    0.000    0.000    0.000 
#
# Total GULP energy -446237.428369 kJ/mol
# GULP energy per Si atom -12395.484121 kJ/mol
# Density = 1.874365 g / cm^3
# Si number density = 18.786409 Si / 1000 Ang^3
#
#
#
# Elastic Constant Matrix: (Units=GPa)
#
#
# Indices 1 2 3 4 5 6 
#
# 1 113.5485 32.0955 28.3696 0.0000 0.0000 0.0000
# 2 32.0955 65.6277 18.8979 0.0000 0.0000 0.0000
# 3 28.3696 18.8979 84.4864 0.0000 0.0000 0.0000
# 4 0.0000 0.0000 0.0000 22.7420 0.0000 0.0000
# 5 0.0000 0.0000 0.0000 0.0000 23.3639 0.0000
# 6 0.0000 0.0000 0.0000 0.0000 0.0000 -95.5209
#
#
#
# Elastic Compliance Matrix: (Units=1/GPa)
#
#
# Indices 1 2 3 4 5 6 
#
# 1 0.010727 -0.004499 -0.002596 0.000000 0.000000 0.000000
# 2 -0.004499 0.018173 -0.002554 0.000000 0.000000 0.000000
# 3 -0.002596 -0.002554 0.013279 0.000000 0.000000 0.000000
# 4 0.000000 0.000000 0.000000 0.043971 0.000000 0.000000
# 5 0.000000 0.000000 0.000000 0.000000 0.042801 0.000000
# 6 0.000000 0.000000 0.000000 0.000000 0.000000 -0.010469
#
#
# Mechanical properties :
#
#
# Convention : Reuss Voigt Hill
#
# Bulk Modulus (GPa) = 43.70284 46.93206 45.31745
# Shear Modulus (GPa) = 34.38613 2.40365 18.39489
#
# Velocity S-wave (km/s) = 4.28293 1.13236 3.13255
# Velocity P-wave (km/s) = 6.91169 5.17163 6.10399
#
# Compressibility (1/GPa) = 0.02288181
#
# Stress axis : x y z
#
# Youngs Moduli (GPa) = 93.22350 55.02647 75.30567
#
# Poissons Ratio (x) = 0.24754 0.19547
# Poissons Ratio (y) = 0.41937 0.19236
# Poissons Ratio (z) = 0.24198 0.14056
#
# Static dielectric constant tensor:
#      x y z
#    x 3.552940 0.000000 0.000000 
#    y 0.000000 3.319560 0.000000 
#    z 0.000000 0.000000 3.308910 
# 
# 
# High freq. dielectric constant tensor:
#      x y z
#    x 1.733730 0.000000 0.000000 
#    y 0.000000 1.713180 0.000000 
#    z 0.000000 0.000000 1.716430 
# 
# From -- ./inp_files/21829.got.cif
#   From: 2010.06.25/outbox.cif.g09.slc.cpg/sg71_11_cif.got.tgz:21829.got - 2010.06.28 04:59:45.
