data_PCOD8287534
_publ_section_title
;
Structure prediction by ZEFSAII (Michael W. Deem and Ramdas Pophale) SiO2 
 PCOD8287534
Probable space group: I M M M
;
_chemical_formula_sum "Si O2"
_cell_formula_units_Z 88
_cell_length_a 20.333363
_cell_length_b 24.249601
_cell_length_c 10.076659
_cell_angle_alpha 90.000000
_cell_angle_beta 90.000000
_cell_angle_gamma 90.000000
_cell_volume 4968.558106
_symmetry_space_group_name_H-M "I M M M"
_symmetry_group_IT_number 71
_symmetry_cell_setting 'orthorhombic'
loop_
_space_group_symop_operation_xyz
x,y,z
-x,-y,z
x,-y,-z
-x,y,-z
-x,-y,-z
x,y,-z
-x,y,z
x,-y,z
1/2+x,1/2+y,1/2+z
1/2-x,1/2-y,1/2+z
1/2+x,1/2-y,1/2-z
1/2-x,1/2+y,1/2-z
1/2-x,1/2-y,1/2-z
1/2+x,1/2+y,1/2-z
1/2-x,1/2+y,1/2+z
1/2+x,1/2-y,1/2+z
loop_
_atom_site_type_symbol
_atom_site_label
_atom_site_fract_x
_atom_site_fract_y
_atom_site_fract_z
Si Si1 0.000000 0.315659 0.353091
Si Si2 0.379641 0.641771 0.353208
Si Si3 0.576536 0.000000 0.840719
Si Si4 0.000000 0.782812 0.154308
Si Si5 0.630306 0.884858 0.849314
Si Si6 0.740668 0.801546 0.151817
Si Si7 0.424935 0.563210 0.853025
O O1 0.000000 0.271868 0.238231
O O2 0.937484 0.353546 0.335177
O O3 0.000000 0.288050 0.500000
O O4 0.397648 0.619515 0.500000
O O5 0.435066 0.684149 0.304736
O O6 0.310181 0.669929 0.354489
O O7 0.376592 0.591658 0.250792
O O8 0.617034 0.945984 0.786869
O O9 0.500000 0.000000 0.790208
O O10 0.574568 0.000000 0.000000
O O11 0.000000 0.766648 0.000000
O O12 0.687953 0.845879 0.787053
O O13 0.652075 0.894143 0.000000
O O14 0.750000 0.750000 0.250000
O O15 0.720476 0.783143 0.000000
O O16 0.500000 0.570785 0.805871
O O17 0.404875 0.500000 0.856368
O O18 0.415506 0.588685 0.000000
#
# Coordination Sequence:
#
# PCOD8287534 Si02
#       7
#     8  16   8   8  16  16  16
#     4  10  18  29  50  77  99 124 164 212 256 305
#     4  10  20  34  50  71 102 136 172 211 256 309
#     4   9  14  26  50  78 108 135 159 208 277 322
#     4  10  20  32  46  68  99 133 168 207 250 303
#     4   9  17  30  49  76 106 132 167 213 261 314
#     4  10  21  36  52  75 106 140 178 218 261 314
#     4   9  18  33  53  76 100 127 164 209 255 304
#
# _framework density 17.711376000000001
#
# number of rings (size 3 to 8) (size 9 to 14) (size 15 to 20)
#    0.000    2.455    1.818    1.636    0.000    1.818 
#    1.636    0.909    0.000    0.000    0.000    2.545 
#    0.000    0.000    0.000    0.000    0.000    0.000 
#
# Total GULP energy -545233.849284 kJ/mol
# GULP energy per Si atom -12391.678393 kJ/mol
# Density = 1.767106 g / cm^3
# Si number density = 17.711376 Si / 1000 Ang^3
#
#
#
# Elastic Constant Matrix: (Units=GPa)
#
#
# Indices 1 2 3 4 5 6 
#
# 1 94.5485 44.4320 15.5141 0.0000 0.0000 0.0000
# 2 44.4320 110.1091 52.2141 0.0000 0.0000 0.0000
# 3 15.5141 52.2141 68.5072 0.0000 0.0000 0.0000
# 4 0.0000 0.0000 0.0000 27.6626 0.0000 0.0000
# 5 0.0000 0.0000 0.0000 0.0000 21.0932 0.0000
# 6 0.0000 0.0000 0.0000 0.0000 0.0000 14.3403
#
#
#
# Elastic Compliance Matrix: (Units=1/GPa)
#
#
# Indices 1 2 3 4 5 6 
#
# 1 0.013173 -0.006109 0.001673 0.000000 0.000000 0.000000
# 2 -0.006109 0.017055 -0.011615 0.000000 0.000000 0.000000
# 3 0.001673 -0.011615 0.023071 0.000000 0.000000 0.000000
# 4 0.000000 0.000000 0.000000 0.036150 0.000000 0.000000
# 5 0.000000 0.000000 0.000000 0.000000 0.047409 0.000000
# 6 0.000000 0.000000 0.000000 0.000000 0.000000 0.069733
#
#
# Mechanical properties :
#
#
# Convention : Reuss Voigt Hill
#
# Bulk Modulus (GPa) = 47.17836 55.27614 51.22725
# Shear Modulus (GPa) = 20.34510 23.35287 21.84898
#
# Velocity S-wave (km/s) = 3.39293 3.63509 3.51609
# Velocity P-wave (km/s) = 6.48417 6.99254 6.74315
#
# Compressibility (1/GPa) = 0.02119616
#
# Stress axis : x y z
#
# Youngs Moduli (GPa) = 75.91351 58.63346 43.34419
#
# Poissons Ratio (x) = 0.35819 -0.07251
# Poissons Ratio (y) = 0.46375 0.50346
# Poissons Ratio (z) = -0.12700 0.68106
#
# Static dielectric constant tensor:
#      x y z
#    x 3.349850 0.000000 0.000000 
#    y 0.000000 3.378360 0.000000 
#    z 0.000000 0.000000 3.307620 
# 
# 
# High freq. dielectric constant tensor:
#      x y z
#    x 1.687270 0.000000 0.000000 
#    y 0.000000 1.683820 0.000000 
#    z 0.000000 0.000000 1.655360 
# 
# From -- ./inp_files/10545.got.cif
#   From: 2010.06.25/outbox.cif.g09.slc.cpg/sg71_6_cif.got.tgz:10545.got - 2010.06.28 04:59:45.
