data_PCOD8287960
_publ_section_title
;
Structure prediction by ZEFSAII (Michael W. Deem and Ramdas Pophale) SiO2 
 PCOD8287960
Probable space group: I M M M
;
_chemical_formula_sum "Si O2"
_cell_formula_units_Z 88
_cell_length_a 21.831520
_cell_length_b 13.676925
_cell_length_c 16.438231
_cell_angle_alpha 90.000000
_cell_angle_beta 90.000000
_cell_angle_gamma 90.000000
_cell_volume 4908.259532
_symmetry_space_group_name_H-M "I M M M"
_symmetry_group_IT_number 71
_symmetry_cell_setting 'orthorhombic'
loop_
_space_group_symop_operation_xyz
x,y,z
-x,-y,z
x,-y,-z
-x,y,-z
-x,-y,-z
x,y,-z
-x,y,z
x,-y,z
1/2+x,1/2+y,1/2+z
1/2-x,1/2-y,1/2+z
1/2+x,1/2-y,1/2-z
1/2-x,1/2+y,1/2-z
1/2-x,1/2-y,1/2-z
1/2+x,1/2+y,1/2-z
1/2-x,1/2+y,1/2+z
1/2+x,1/2-y,1/2+z
loop_
_atom_site_type_symbol
_atom_site_label
_atom_site_fract_x
_atom_site_fract_y
_atom_site_fract_z
Si Si1 0.568443 0.699429 0.841753
Si Si2 0.657734 0.222316 0.288788
Si Si3 0.926658 0.000000 0.409084
Si Si4 0.251630 0.882672 0.828589
Si Si5 0.434211 0.170919 0.000000
Si Si6 0.697271 0.892400 0.000000
Si Si7 0.568813 0.887865 0.595608
O O1 0.500000 0.686870 0.807690
O O2 0.606271 0.755932 0.775944
O O3 0.598008 0.593841 0.860524
O O4 0.569004 0.759669 0.923563
O O5 0.705218 0.147149 0.247099
O O6 0.688461 0.323472 0.318485
O O7 0.623320 0.173383 0.364205
O O8 0.899100 0.000000 0.500000
O O9 0.000000 0.000000 0.414416
O O10 0.279499 0.844325 0.915379
O O11 0.241206 0.000000 0.826626
O O12 0.500000 0.113617 0.000000
O O13 0.376591 0.098950 0.000000
O O14 0.725028 0.000000 0.000000
O O15 0.577607 0.876620 0.500000
O O16 0.500000 0.851891 0.620224
O O17 0.576078 0.000000 0.622847
#
# Coordination Sequence:
#
# PCOD8287960 Si02
#       7
#    16  16   8  16   8   8  16
#     4  10  19  31  51  79 108 138 174 216 267 320
#     4  11  21  35  58  80 108 142 177 236 268 319
#     4   9  16  28  46  72 107 145 173 203 256 321
#     4  10  23  38  54  78 105 145 188 222 265 315
#     4  10  18  32  54  80 107 134 174 214 259 327
#     4  10  20  39  55  69 105 143 178 216 258 319
#     4   9  19  37  61  86 110 138 174 222 284 342
#
# _framework density 17.928961999999999
#
# number of rings (size 3 to 8) (size 9 to 14) (size 15 to 20)
#    0.000    2.091    2.727    1.636    2.545    0.182 
#    0.000    0.000    0.000    0.000    0.000    1.273 
#    0.000    0.000    0.000    0.000    0.000    0.000 
#
# Total GULP energy -545311.768002 kJ/mol
# GULP energy per Si atom -12393.449273 kJ/mol
# Density = 1.788816 g / cm^3
# Si number density = 17.928962 Si / 1000 Ang^3
#
#
#
# Elastic Constant Matrix: (Units=GPa)
#
#
# Indices 1 2 3 4 5 6 
#
# 1 98.0264 40.5577 44.0622 0.0000 0.0000 0.0000
# 2 40.5577 86.0790 30.6274 0.0000 0.0000 0.0000
# 3 44.0622 30.6274 72.2400 0.0000 0.0000 0.0000
# 4 0.0000 0.0000 0.0000 29.5588 0.0000 0.0000
# 5 0.0000 0.0000 0.0000 0.0000 29.5179 0.0000
# 6 0.0000 0.0000 0.0000 0.0000 0.0000 28.8671
#
#
#
# Elastic Compliance Matrix: (Units=1/GPa)
#
#
# Indices 1 2 3 4 5 6 
#
# 1 0.015479 -0.004633 -0.007477 0.000000 0.000000 0.000000
# 2 -0.004633 0.015068 -0.003562 0.000000 0.000000 0.000000
# 3 -0.007477 -0.003562 0.019914 0.000000 0.000000 0.000000
# 4 0.000000 0.000000 0.000000 0.033831 0.000000 0.000000
# 5 0.000000 0.000000 0.000000 0.000000 0.033878 0.000000
# 6 0.000000 0.000000 0.000000 0.000000 0.000000 0.034641
#
#
# Mechanical properties :
#
#
# Convention : Reuss Voigt Hill
#
# Bulk Modulus (GPa) = 52.31335 54.09335 53.20335
# Shear Modulus (GPa) = 26.24296 26.99529 26.61913
#
# Velocity S-wave (km/s) = 3.83001 3.88452 3.85736
# Velocity P-wave (km/s) = 6.98571 7.09618 7.04116
#
# Compressibility (1/GPa) = 0.01911558
#
# Stress axis : x y z
#
# Youngs Moduli (GPa) = 64.60326 66.36750 50.21653
#
# Poissons Ratio (x) = 0.30747 0.37548
# Poissons Ratio (y) = 0.29930 0.17889
# Poissons Ratio (z) = 0.48305 0.23643
#
# Static dielectric constant tensor:
#      x y z
#    x 3.365270 0.000000 0.000000 
#    y 0.000000 3.263440 0.000000 
#    z 0.000000 0.000000 3.314090 
# 
# 
# High freq. dielectric constant tensor:
#      x y z
#    x 1.687230 0.000000 0.000000 
#    y 0.000000 1.686380 0.000000 
#    z 0.000000 0.000000 1.697630 
# 
# From -- ./inp_files/25704.got.cif
#   From: 2010.06.25/outbox.cif.g09.slc.cpg/sg71_13_cif.got.tgz:25704.got - 2010.06.28 04:59:45.
