data_PCOD8287395
_publ_section_title
;
Structure prediction by ZEFSAII (Michael W. Deem and Ramdas Pophale) SiO2 
 PCOD8287395
Probable space group: I M M M
;
_chemical_formula_sum "Si O2"
_cell_formula_units_Z 88
_cell_length_a 8.828632
_cell_length_b 30.450219
_cell_length_c 23.868432
_cell_angle_alpha 90.000000
_cell_angle_beta 90.000000
_cell_angle_gamma 90.000000
_cell_volume 6416.640746
_symmetry_space_group_name_H-M "I M M M"
_symmetry_group_IT_number 71
_symmetry_cell_setting 'orthorhombic'
loop_
_space_group_symop_operation_xyz
x,y,z
-x,-y,z
x,-y,-z
-x,y,-z
-x,-y,-z
x,y,-z
-x,y,z
x,-y,z
1/2+x,1/2+y,1/2+z
1/2-x,1/2-y,1/2+z
1/2+x,1/2-y,1/2-z
1/2-x,1/2+y,1/2-z
1/2-x,1/2-y,1/2-z
1/2+x,1/2+y,1/2-z
1/2-x,1/2+y,1/2+z
1/2+x,1/2-y,1/2+z
loop_
_atom_site_type_symbol
_atom_site_label
_atom_site_fract_x
_atom_site_fract_y
_atom_site_fract_z
Si Si1 0.320124 0.749986 0.115848
Si Si2 0.677082 0.162671 0.821135
Si Si3 0.178059 0.000000 0.063645
Si Si4 0.331032 0.145054 0.000000
Si Si5 0.326279 0.914668 0.106949
Si Si6 0.822184 0.711026 0.215413
Si Si7 0.677537 0.264874 0.500000
O O1 0.500000 0.747829 0.113202
O O2 0.259437 0.796192 0.142207
O O3 0.259226 0.709751 0.154931
O O4 0.251559 0.742770 0.054567
O O5 0.500000 0.162573 0.834122
O O6 0.739668 0.115310 0.841843
O O7 0.709002 0.167967 0.754331
O O8 0.228521 0.041879 0.099488
O O9 0.000000 0.000000 0.058940
O O10 0.247393 0.000000 0.000000
O O11 0.306805 0.115005 0.052952
O O12 0.500000 0.166229 0.000000
O O13 0.208207 0.183256 0.000000
O O14 0.500000 0.928873 0.116569
O O15 0.750000 0.750000 0.250000
O O16 0.000000 0.718793 0.207348
O O17 0.500000 0.255786 0.500000
#
# Coordination Sequence:
#
# PCOD8287395 Si02
#       7
#    16  16   8   8  16  16   8
#     4  10  18  30  43  57  79 106 134 166 199 237
#     4   8  15  27  44  60  75  96 128 166 200 237
#     4  11  23  33  39  55  81 103 127 172 219 248
#     4  10  18  29  45  58  75 100 134 170 203 247
#     4  10  18  31  47  59  71 101 138 166 202 253
#     4   9  16  27  41  60  81 102 127 161 202 241
#     4  12  22  28  39  61  84 106 133 167 209 250
#
# _framework density 13.714342
#
# number of rings (size 3 to 8) (size 9 to 14) (size 15 to 20)
#    0.000    2.273    2.727    3.273    0.000    1.091 
#    0.000    1.818    0.000    0.000    0.000    0.000 
#    0.000    0.000    0.000    0.000    0.000    0.909 
#
# Total GULP energy -545222.169370 kJ/mol
# GULP energy per Si atom -12391.412940 kJ/mol
# Density = 1.368313 g / cm^3
# Si number density = 13.714342 Si / 1000 Ang^3
#
#
#
# Elastic Constant Matrix: (Units=GPa)
#
#
# Indices 1 2 3 4 5 6 
#
# 1 64.9773 24.3328 39.9459 0.0000 0.0000 0.0000
# 2 24.3328 60.9704 48.2065 0.0000 0.0000 0.0000
# 3 39.9459 48.2065 108.3827 0.0000 0.0000 0.0000
# 4 0.0000 0.0000 0.0000 26.6167 0.0000 0.0000
# 5 0.0000 0.0000 0.0000 0.0000 22.6462 0.0000
# 6 0.0000 0.0000 0.0000 0.0000 0.0000 16.0691
#
#
#
# Elastic Compliance Matrix: (Units=1/GPa)
#
#
# Indices 1 2 3 4 5 6 
#
# 1 0.020340 -0.003378 -0.005994 0.000000 0.000000 0.000000
# 2 -0.003378 0.025859 -0.010256 0.000000 0.000000 0.000000
# 3 -0.005994 -0.010256 0.015998 0.000000 0.000000 0.000000
# 4 0.000000 0.000000 0.000000 0.037570 0.000000 0.000000
# 5 0.000000 0.000000 0.000000 0.000000 0.044158 0.000000
# 6 0.000000 0.000000 0.000000 0.000000 0.000000 0.062231
#
#
# Mechanical properties :
#
#
# Convention : Reuss Voigt Hill
#
# Bulk Modulus (GPa) = 43.59378 51.03341 47.31359
# Shear Modulus (GPa) = 19.75819 21.18941 20.47380
#
# Velocity S-wave (km/s) = 3.79977 3.93498 3.86797
# Velocity P-wave (km/s) = 7.14891 7.61170 7.38393
#
# Compressibility (1/GPa) = 0.02293905
#
# Stress axis : x y z
#
# Youngs Moduli (GPa) = 49.16416 38.67130 62.50955
#
# Poissons Ratio (x) = 0.13065 0.37468
# Poissons Ratio (y) = 0.16610 0.64112
# Poissons Ratio (z) = 0.29469 0.39663
#
# Static dielectric constant tensor:
#      x y z
#    x 2.716420 0.000000 0.000000 
#    y 0.000000 2.657510 0.000000 
#    z 0.000000 0.000000 3.016060 
# 
# 
# High freq. dielectric constant tensor:
#      x y z
#    x 1.521440 0.000000 0.000000 
#    y 0.000000 1.476320 0.000000 
#    z 0.000000 0.000000 1.517470 
# 
# From -- ./inp_files/17404.got.cif
#   From: 2010.06.25/outbox.cif.g09.slc.cpg/sg71_9_cif.got.tgz:17404.got - 2010.06.28 04:59:45.
