data_PCOD8287914
_publ_section_title
;
Structure prediction by ZEFSAII (Michael W. Deem and Ramdas Pophale) SiO2 
 PCOD8287914
Probable space group: I M M M
;
_chemical_formula_sum "Si O2"
_cell_formula_units_Z 128
_cell_length_a 23.875878
_cell_length_b 15.732015
_cell_length_c 18.723900
_cell_angle_alpha 90.000000
_cell_angle_beta 90.000000
_cell_angle_gamma 90.000000
_cell_volume 7032.990259
_symmetry_space_group_name_H-M "I M M M"
_symmetry_group_IT_number 71
_symmetry_cell_setting 'orthorhombic'
loop_
_space_group_symop_operation_xyz
x,y,z
-x,-y,z
x,-y,-z
-x,y,-z
-x,-y,-z
x,y,-z
-x,y,z
x,-y,z
1/2+x,1/2+y,1/2+z
1/2-x,1/2-y,1/2+z
1/2+x,1/2-y,1/2-z
1/2-x,1/2+y,1/2-z
1/2-x,1/2-y,1/2-z
1/2+x,1/2+y,1/2-z
1/2-x,1/2+y,1/2+z
1/2+x,1/2-y,1/2+z
loop_
_atom_site_type_symbol
_atom_site_label
_atom_site_fract_x
_atom_site_fract_y
_atom_site_fract_z
Si Si1 0.367922 0.675716 0.698194
Si Si2 0.062039 0.093214 0.319709
Si Si3 0.065084 0.733665 0.082517
Si Si4 0.347171 0.093268 0.583571
Si Si5 0.062876 0.753490 0.582873
Si Si6 0.755516 0.904864 0.819495
Si Si7 0.233415 0.096897 0.653098
Si Si8 0.166572 0.264190 0.669440
O O1 0.395323 0.615073 0.756937
O O2 0.413016 0.694819 0.636654
O O3 0.317273 0.627476 0.658566
O O4 0.345091 0.757018 0.744635
O O5 0.066041 0.149937 0.390302
O O6 0.000000 0.099339 0.286244
O O7 0.076965 0.000000 0.347161
O O8 0.099657 0.650094 0.103746
O O9 0.000000 0.715367 0.096468
O O10 0.075380 0.760941 0.000000
O O11 0.340225 0.088003 0.500000
O O12 0.288858 0.129924 0.612873
O O13 0.358424 0.000000 0.616512
O O14 0.078471 0.749288 0.500000
O O15 0.109944 0.704623 0.629139
O O16 0.000000 0.716097 0.596346
O O17 0.750523 0.906801 0.735136
O O18 0.710790 0.837423 0.849256
O O19 0.745040 0.000000 0.850903
O O20 0.186492 0.170248 0.640454
O O21 0.215368 0.000000 0.628113
#
# Coordination Sequence:
#
# PCOD8287914 Si02
#       8
#    16  16  16  16  16  16  16  16
#     4  10  18  32  50  71  98 129 162 201 246 296
#     4   9  17  29  48  74 101 131 165 196 228 276
#     4  10  20  32  48  70  95 128 170 212 252 292
#     4   9  17  29  45  67  99 135 165 197 240 291
#     4   9  19  34  50  71 100 131 159 191 239 294
#     4  10  19  31  50  73  96 124 160 207 256 295
#     4   9  17  30  48  73 104 133 162 197 241 296
#     4  10  19  31  51  75  98 129 165 200 241 293
#
# _framework density 18.199939000000001
#
# number of rings (size 3 to 8) (size 9 to 14) (size 15 to 20)
#    0.000    2.500    0.000    3.750    0.000    4.500 
#    0.000    3.125    0.000    3.000    0.000    5.250 
#    0.000    0.000    0.000    0.000    0.000    0.000 
#
# Total GULP energy -792984.141607 kJ/mol
# GULP energy per Si atom -12390.377213 kJ/mol
# Density = 1.815852 g / cm^3
# Si number density = 18.199939 Si / 1000 Ang^3
#
#
#
# Elastic Constant Matrix: (Units=GPa)
#
#
# Indices 1 2 3 4 5 6 
#
# 1 113.3714 37.5858 24.7816 0.0000 0.0000 0.0000
# 2 37.5858 60.6065 17.8141 0.0000 0.0000 0.0000
# 3 24.7816 17.8141 33.3993 0.0000 0.0000 0.0000
# 4 0.0000 0.0000 0.0000 13.5234 0.0000 0.0000
# 5 0.0000 0.0000 0.0000 0.0000 30.8454 0.0000
# 6 0.0000 0.0000 0.0000 0.0000 0.0000 20.4694
#
#
#
# Elastic Compliance Matrix: (Units=1/GPa)
#
#
# Indices 1 2 3 4 5 6 
#
# 1 0.011995 -0.005720 -0.005850 0.000000 0.000000 0.000000
# 2 -0.005720 0.022295 -0.007647 0.000000 0.000000 0.000000
# 3 -0.005850 -0.007647 0.038360 0.000000 0.000000 0.000000
# 4 0.000000 0.000000 0.000000 0.073946 0.000000 0.000000
# 5 0.000000 0.000000 0.000000 0.000000 0.032420 0.000000
# 6 0.000000 0.000000 0.000000 0.000000 0.000000 0.048853
#
#
# Mechanical properties :
#
#
# Convention : Reuss Voigt Hill
#
# Bulk Modulus (GPa) = 29.22555 40.86003 35.04279
# Shear Modulus (GPa) = 18.00449 21.44735 19.72592
#
# Velocity S-wave (km/s) = 3.14866 3.43655 3.29575
# Velocity P-wave (km/s) = 5.41403 6.18433 5.81195
#
# Compressibility (1/GPa) = 0.03421663
#
# Stress axis : x y z
#
# Youngs Moduli (GPa) = 83.36463 44.85342 26.06885
#
# Poissons Ratio (x) = 0.25655 0.15249
# Poissons Ratio (y) = 0.47682 0.19936
# Poissons Ratio (z) = 0.48766 0.34301
#
# Static dielectric constant tensor:
#      x y z
#    x 3.616240 0.000000 0.000000 
#    y 0.000000 3.442980 0.000000 
#    z 0.000000 0.000000 3.134670 
# 
# 
# High freq. dielectric constant tensor:
#      x y z
#    x 1.724070 0.000000 0.000000 
#    y 0.000000 1.680830 0.000000 
#    z 0.000000 0.000000 1.676100 
# 
# From -- ./inp_files/48408.got.cif
#   From: 2010.06.25/outbox.cif.g09.slc.cpg/sg71_25_cif.got.tgz:48408.got - 2010.06.28 04:59:45.
