data_PCOD8287006
_publ_section_title
;
Structure prediction by ZEFSAII (Michael W. Deem and Ramdas Pophale) SiO2 
 PCOD8287006
Probable space group: I M M M
;
_chemical_formula_sum "Si O2"
_cell_formula_units_Z 120
_cell_length_a 20.200045
_cell_length_b 29.473107
_cell_length_c 12.860360
_cell_angle_alpha 90.000000
_cell_angle_beta 90.000000
_cell_angle_gamma 90.000000
_cell_volume 7656.519337
_symmetry_space_group_name_H-M "I M M M"
_symmetry_group_IT_number 71
_symmetry_cell_setting 'orthorhombic'
loop_
_space_group_symop_operation_xyz
x,y,z
-x,-y,z
x,-y,-z
-x,y,-z
-x,-y,-z
x,y,-z
-x,y,z
x,-y,z
1/2+x,1/2+y,1/2+z
1/2-x,1/2-y,1/2+z
1/2+x,1/2-y,1/2-z
1/2-x,1/2+y,1/2-z
1/2-x,1/2-y,1/2-z
1/2+x,1/2+y,1/2-z
1/2-x,1/2+y,1/2+z
1/2+x,1/2-y,1/2+z
loop_
_atom_site_type_symbol
_atom_site_label
_atom_site_fract_x
_atom_site_fract_y
_atom_site_fract_z
Si Si1 0.328436 0.624239 0.381081
Si Si2 0.663281 0.779133 0.813325
Si Si3 0.578415 0.551683 0.000000
Si Si4 0.812371 0.228348 0.884129
Si Si5 0.323247 0.876460 0.123245
Si Si6 0.427714 0.296922 0.116776
Si Si7 0.926593 0.449497 0.623470
Si Si8 0.078826 0.108137 0.298032
O O1 0.339807 0.607765 0.500000
O O2 0.342172 0.678028 0.373141
O O3 0.252846 0.613959 0.345529
O O4 0.378988 0.596402 0.306219
O O5 0.735424 0.772026 0.859181
O O6 0.652977 0.763254 0.694310
O O7 0.646000 0.831965 0.822106
O O8 0.616386 0.747751 0.881909
O O9 0.602663 0.576720 0.105601
O O10 0.605519 0.500000 0.000000
O O11 0.500000 0.552284 0.000000
O O12 0.824156 0.246961 0.000000
O O13 0.369014 0.916970 0.166289
O O14 0.327999 0.869247 0.000000
O O15 0.500000 0.283447 0.159641
O O16 0.400410 0.339815 0.180488
O O17 0.432921 0.315025 0.000000
O O18 0.923626 0.450000 0.500000
O O19 0.912942 0.500000 0.666691
O O20 0.000000 0.433158 0.659187
O O21 0.000000 0.102582 0.277881
#
# Coordination Sequence:
#
# PCOD8287006 Si02
#       8
#    16  16   8  16  16  16  16  16
#     4   9  17  30  45  64  93 125 157 192 227 265
#     4  10  17  27  42  60  87 119 151 180 221 271
#     4   9  18  34  54  70  86 112 145 189 242 286
#     4   9  17  28  42  60  84 118 157 188 214 262
#     4   9  17  28  42  64  94 123 153 186 224 272
#     4  10  18  27  40  63  92 115 141 184 229 270
#     4   8  14  26  45  67  90 117 147 177 215 270
#     4  10  18  30  47  67  88 114 155 194 228 277
#
# _framework density 15.672917999999999
#
# number of rings (size 3 to 8) (size 9 to 14) (size 15 to 20)
#    0.000    2.733    2.000    2.400    0.000    0.800 
#    0.000    2.000    0.000    1.600    0.000    1.867 
#    0.000    0.000    0.000    1.467    1.067    0.133 
#
# Total GULP energy -743554.413433 kJ/mol
# GULP energy per Si atom -12392.573557 kJ/mol
# Density = 1.563725 g / cm^3
# Si number density = 15.672918 Si / 1000 Ang^3
#
#
#
# Elastic Constant Matrix: (Units=GPa)
#
#
# Indices 1 2 3 4 5 6 
#
# 1 53.3606 42.8922 31.8570 0.0000 0.0000 0.0000
# 2 42.8922 78.5683 31.0347 0.0000 0.0000 0.0000
# 3 31.8570 31.0347 82.7100 0.0001 0.0001 0.0000
# 4 0.0000 0.0000 0.0001 14.9983 0.0000 0.0000
# 5 0.0000 0.0000 0.0001 0.0000 19.7454 0.0000
# 6 0.0000 0.0000 0.0000 0.0000 0.0000 17.7128
#
#
#
# Elastic Compliance Matrix: (Units=1/GPa)
#
#
# Indices 1 2 3 4 5 6 
#
# 1 0.037331 -0.017258 -0.007903 0.000000 0.000000 0.000000
# 2 -0.017258 0.022921 -0.001953 0.000000 0.000000 0.000000
# 3 -0.007903 -0.001953 0.015867 0.000000 0.000000 0.000000
# 4 0.000000 0.000000 0.000000 0.066674 0.000000 0.000000
# 5 0.000000 0.000000 0.000000 0.000000 0.050645 0.000000
# 6 0.000000 0.000000 0.000000 0.000000 0.000000 0.056456
#
#
# Mechanical properties :
#
#
# Convention : Reuss Voigt Hill
#
# Bulk Modulus (GPa) = 45.68178 47.35629 46.51904
# Shear Modulus (GPa) = 16.05551 17.74832 16.90192
#
# Velocity S-wave (km/s) = 3.20411 3.36879 3.28749
# Velocity P-wave (km/s) = 6.54971 6.73889 6.64497
#
# Compressibility (1/GPa) = 0.02189057
#
# Stress axis : x y z
#
# Youngs Moduli (GPa) = 26.78744 43.62833 63.02285
#
# Poissons Ratio (x) = 0.75294 0.49806
# Poissons Ratio (y) = 0.46230 0.12310
# Poissons Ratio (z) = 0.21170 0.08522
#
# Static dielectric constant tensor:
#      x y z
#    x 2.920060 0.000000 0.000000 
#    y 0.000000 3.025630 0.000000 
#    z 0.000000 0.000000 2.945760 
# 
# 
# High freq. dielectric constant tensor:
#      x y z
#    x 1.587950 0.000000 0.000000 
#    y 0.000000 1.585350 0.000000 
#    z 0.000000 0.000000 1.581460 
# 
# From -- ./inp_files/26604.got.cif
#   From: 2010.06.25/outbox.cif.g09.slc.cpg/sg71_14_cif.got.tgz:26604.got - 2010.06.28 04:59:45.
