data_PCOD8287322
_publ_section_title
;
Structure prediction by ZEFSAII (Michael W. Deem and Ramdas Pophale) SiO2 
 PCOD8287322
Probable space group: I M M M
;
_chemical_formula_sum "Si O2"
_cell_formula_units_Z 104
_cell_length_a 9.731104
_cell_length_b 23.677075
_cell_length_c 27.930589
_cell_angle_alpha 90.000000
_cell_angle_beta 90.000000
_cell_angle_gamma 90.000000
_cell_volume 6435.321641
_symmetry_space_group_name_H-M "I M M M"
_symmetry_group_IT_number 71
_symmetry_cell_setting 'orthorhombic'
loop_
_space_group_symop_operation_xyz
x,y,z
-x,-y,z
x,-y,-z
-x,y,-z
-x,-y,-z
x,y,-z
-x,y,z
x,-y,z
1/2+x,1/2+y,1/2+z
1/2-x,1/2-y,1/2+z
1/2+x,1/2-y,1/2-z
1/2-x,1/2+y,1/2-z
1/2-x,1/2-y,1/2-z
1/2+x,1/2+y,1/2-z
1/2-x,1/2+y,1/2+z
1/2+x,1/2-y,1/2+z
loop_
_atom_site_type_symbol
_atom_site_label
_atom_site_fract_x
_atom_site_fract_y
_atom_site_fract_z
Si Si1 0.341834 0.729552 0.944718
Si Si2 0.838313 0.633729 0.909210
Si Si3 0.841123 0.565293 0.814801
Si Si4 0.161225 0.935087 0.123059
Si Si5 0.652147 0.567100 0.270283
Si Si6 0.162913 0.562811 0.000000
Si Si7 0.656897 0.140702 0.055576
O O1 0.500000 0.712878 0.935837
O O2 0.243871 0.692405 0.910877
O O3 0.316312 0.794358 0.930738
O O4 0.302243 0.719363 0.000000
O O5 0.799811 0.601534 0.860755
O O6 0.000000 0.646522 0.912785
O O7 0.786016 0.595054 0.952864
O O8 0.805333 0.500000 0.825591
O O9 0.757277 0.589710 0.769604
O O10 0.000000 0.572360 0.801975
O O11 0.198310 0.913516 0.176669
O O12 0.242650 0.898072 0.085490
O O13 0.000000 0.927904 0.113568
O O14 0.205491 0.000000 0.116327
O O15 0.500000 0.590707 0.258480
O O16 0.648369 0.500000 0.270051
O O17 0.227021 0.500000 0.000000
O O18 0.000000 0.558607 0.000000
O O19 0.500000 0.124320 0.067193
O O20 0.688600 0.130626 0.000000
#
# Coordination Sequence:
#
# PCOD8287322 Si02
#       7
#    16  16  16  16  16   8  16
#     4   9  18  33  49  64  88 122 159 197 234 271
#     4  10  18  28  45  68  91 120 159 197 232 277
#     4   9  17  28  43  67  96 122 153 194 235 275
#     4   9  18  32  50  74 101 125 150 184 228 274
#     4   8  15  29  47  66  91 123 155 185 223 275
#     4   9  16  26  41  63  93 125 152 185 234 283
#     4   9  19  34  50  70  96 126 157 188 226 274
#
# _framework density 16.160807999999999
#
# number of rings (size 3 to 8) (size 9 to 14) (size 15 to 20)
#    0.000    3.000    0.769    2.308    0.000    4.615 
#    0.000    4.615    0.000    2.769    0.000    0.000 
#    0.000    0.000    0.000    0.000    0.000    0.000 
#
# Total GULP energy -644697.860241 kJ/mol
# GULP energy per Si atom -12398.035774 kJ/mol
# Density = 1.612403 g / cm^3
# Si number density = 16.160808 Si / 1000 Ang^3
#
#
#
# Elastic Constant Matrix: (Units=GPa)
#
#
# Indices 1 2 3 4 5 6 
#
# 1 68.1733 51.5500 62.1502 0.0000 0.0000 0.0000
# 2 51.5500 77.8412 58.4154 0.0000 0.0000 0.0000
# 3 62.1502 58.4154 112.1773 0.0000 0.0000 0.0000
# 4 0.0000 0.0000 0.0000 10.3261 0.0000 0.0000
# 5 0.0000 0.0000 0.0000 0.0000 32.3325 0.0000
# 6 0.0000 0.0000 0.0000 0.0000 0.0000 28.0815
#
#
#
# Elastic Compliance Matrix: (Units=1/GPa)
#
#
# Indices 1 2 3 4 5 6 
#
# 1 0.038494 -0.015574 -0.013217 0.000000 0.000000 0.000000
# 2 -0.015574 0.027388 -0.005634 0.000000 0.000000 0.000000
# 3 -0.013217 -0.005634 0.019171 0.000000 0.000000 0.000000
# 4 0.000000 0.000000 0.000000 0.096842 0.000000 0.000000
# 5 0.000000 0.000000 0.000000 0.000000 0.030929 0.000000
# 6 0.000000 0.000000 0.000000 0.000000 0.000000 0.035611
#
#
# Mechanical properties :
#
#
# Convention : Reuss Voigt Hill
#
# Bulk Modulus (GPa) = 61.71376 66.93589 64.32483
# Shear Modulus (GPa) = 15.49497 19.88646 17.69072
#
# Velocity S-wave (km/s) = 3.09981 3.51171 3.31217
# Velocity P-wave (km/s) = 7.14716 7.61258 7.38354
#
# Compressibility (1/GPa) = 0.01620384
#
# Stress axis : x y z
#
# Youngs Moduli (GPa) = 25.97778 36.51214 52.16223
#
# Poissons Ratio (x) = 0.56864 0.68944
# Poissons Ratio (y) = 0.40458 0.29386
# Poissons Ratio (z) = 0.34336 0.20570
#
# Static dielectric constant tensor:
#      x y z
#    x 3.002830 0.000000 0.000000 
#    y 0.000000 2.872250 0.000000 
#    z 0.000000 0.000000 3.097430 
# 
# 
# High freq. dielectric constant tensor:
#      x y z
#    x 1.615450 0.000000 0.000000 
#    y 0.000000 1.600490 0.000000 
#    z 0.000000 0.000000 1.619430 
# 
# From -- ./inp_files/11510.got.cif
#   From: 2010.06.25/outbox.cif.g09.slc.cpg/sg71_6_cif.got.tgz:11510.got - 2010.06.28 04:59:45.
