data_PCOD8287819
_publ_section_title
;
Structure prediction by ZEFSAII (Michael W. Deem and Ramdas Pophale) SiO2 
 PCOD8287819
Probable space group: I M M M
;
_chemical_formula_sum "Si O2"
_cell_formula_units_Z 104
_cell_length_a 26.569913
_cell_length_b 9.460259
_cell_length_c 23.864369
_cell_angle_alpha 90.000000
_cell_angle_beta 90.000000
_cell_angle_gamma 90.000000
_cell_volume 5998.506234
_symmetry_space_group_name_H-M "I M M M"
_symmetry_group_IT_number 71
_symmetry_cell_setting 'orthorhombic'
loop_
_space_group_symop_operation_xyz
x,y,z
-x,-y,z
x,-y,-z
-x,y,-z
-x,-y,-z
x,y,-z
-x,y,z
x,-y,z
1/2+x,1/2+y,1/2+z
1/2-x,1/2-y,1/2+z
1/2+x,1/2-y,1/2-z
1/2-x,1/2+y,1/2-z
1/2-x,1/2-y,1/2-z
1/2+x,1/2+y,1/2-z
1/2-x,1/2+y,1/2+z
1/2+x,1/2-y,1/2+z
loop_
_atom_site_type_symbol
_atom_site_label
_atom_site_fract_x
_atom_site_fract_y
_atom_site_fract_z
Si Si1 0.444338 0.842279 0.757586
Si Si2 0.123268 0.666524 0.360250
Si Si3 0.443694 0.656199 0.933992
Si Si4 0.210481 0.837434 0.319180
Si Si5 0.000000 0.166881 0.063441
Si Si6 0.307621 0.338610 0.689918
Si Si7 0.581294 0.334803 0.653419
O O1 0.500000 0.842445 0.784185
O O2 0.406176 0.787806 0.804349
O O3 0.445212 0.741812 0.704482
O O4 0.428822 0.000000 0.738192
O O5 0.132094 0.500000 0.364710
O O6 0.092238 0.719774 0.413215
O O7 0.176008 0.747631 0.360904
O O8 0.500000 0.685850 0.912149
O O9 0.426336 0.500000 0.912780
O O10 0.442408 0.659878 0.000000
O O11 0.265760 0.773085 0.328306
O O12 0.187375 0.821976 0.256907
O O13 0.212556 0.000000 0.337815
O O14 0.051494 0.213408 0.096634
O O15 0.000000 0.000000 0.057981
O O16 0.000000 0.232466 0.000000
O O17 0.291529 0.500000 0.675856
O O18 0.358869 0.299192 0.656018
O O19 0.573277 0.500000 0.662753
#
# Coordination Sequence:
#
# PCOD8287819 Si02
#       7
#    16  16  16  16   8  16  16
#     4  10  20  31  44  69 105 137 165 202 253 305
#     4  11  21  32  49  74 106 138 170 213 260 307
#     4   9  19  36  55  74  99 135 177 216 253 298
#     4  10  19  31  49  72 101 135 173 212 257 312
#     4   9  18  32  53  81 107 133 170 213 256 301
#     4   9  18  31  47  71 101 134 172 211 254 310
#     4  10  18  31  52  74 100 133 168 207 252 308
#
# _framework density 17.33765
#
# number of rings (size 3 to 8) (size 9 to 14) (size 15 to 20)
#    0.000    2.231    2.308    1.846    0.000    3.077 
#    0.000    0.769    0.000    1.846    0.000    2.154 
#    0.000    0.000    0.000    0.000    0.000    0.000 
#
# Total GULP energy -644486.702455 kJ/mol
# GULP energy per Si atom -12393.975047 kJ/mol
# Density = 1.729819 g / cm^3
# Si number density = 17.337650 Si / 1000 Ang^3
#
#
#
# Elastic Constant Matrix: (Units=GPa)
#
#
# Indices 1 2 3 4 5 6 
#
# 1 115.8411 58.5058 38.1827 0.0000 0.0000 0.0000
# 2 58.5058 88.2141 28.8074 0.0000 0.0000 0.0000
# 3 38.1827 28.8074 52.9759 0.0000 0.0000 0.0000
# 4 0.0000 0.0000 0.0000 19.8269 0.0000 0.0000
# 5 0.0000 0.0000 0.0000 0.0000 10.4787 0.0000
# 6 0.0000 0.0000 0.0000 0.0000 0.0000 29.5614
#
#
#
# Elastic Compliance Matrix: (Units=1/GPa)
#
#
# Indices 1 2 3 4 5 6 
#
# 1 0.014559 -0.007574 -0.006375 0.000000 0.000000 0.000000
# 2 -0.007574 0.017724 -0.004179 0.000000 0.000000 0.000000
# 3 -0.006375 -0.004179 0.025744 0.000000 0.000000 0.000000
# 4 0.000000 0.000000 0.000000 0.050437 0.000000 0.000000
# 5 0.000000 0.000000 0.000000 0.000000 0.095431 0.000000
# 6 0.000000 0.000000 0.000000 0.000000 0.000000 0.033828
#
#
# Mechanical properties :
#
#
# Convention : Reuss Voigt Hill
#
# Bulk Modulus (GPa) = 45.93280 56.44701 51.18991
# Shear Modulus (GPa) = 17.77868 20.74241 19.26054
#
# Velocity S-wave (km/s) = 3.20572 3.46262 3.33665
# Velocity P-wave (km/s) = 6.34451 6.97241 6.66586
#
# Compressibility (1/GPa) = 0.02177093
#
# Stress axis : x y z
#
# Youngs Moduli (GPa) = 68.68555 56.42026 38.84450
#
# Poissons Ratio (x) = 0.42734 0.24763
# Poissons Ratio (y) = 0.52024 0.16233
# Poissons Ratio (z) = 0.43786 0.23578
#
# Static dielectric constant tensor:
#      x y z
#    x 3.350730 0.000000 0.000000 
#    y 0.000000 3.274050 0.000000 
#    z 0.000000 0.000000 3.005450 
# 
# 
# High freq. dielectric constant tensor:
#      x y z
#    x 1.676130 0.000000 0.000000 
#    y 0.000000 1.670710 0.000000 
#    z 0.000000 0.000000 1.629260 
# 
# From -- ./inp_files/57965.got.cif
#   From: 2010.06.25/outbox.cif.g09.slc.cpg/sg71_29_cif.got.tgz:57965.got - 2010.06.28 04:59:45.
