data_PCOD8287881
_publ_section_title
;
Structure prediction by ZEFSAII (Michael W. Deem and Ramdas Pophale) SiO2 
 PCOD8287881
Probable space group: I M M M
;
_chemical_formula_sum "Si O2"
_cell_formula_units_Z 88
_cell_length_a 9.771034
_cell_length_b 24.068171
_cell_length_c 19.660918
_cell_angle_alpha 90.000000
_cell_angle_beta 90.000000
_cell_angle_gamma 90.000000
_cell_volume 4623.676118
_symmetry_space_group_name_H-M "I M M M"
_symmetry_group_IT_number 71
_symmetry_cell_setting 'orthorhombic'
loop_
_space_group_symop_operation_xyz
x,y,z
-x,-y,z
x,-y,-z
-x,y,-z
-x,-y,-z
x,y,-z
-x,y,z
x,-y,z
1/2+x,1/2+y,1/2+z
1/2-x,1/2-y,1/2+z
1/2+x,1/2-y,1/2-z
1/2-x,1/2+y,1/2-z
1/2-x,1/2-y,1/2-z
1/2+x,1/2+y,1/2-z
1/2-x,1/2+y,1/2+z
1/2+x,1/2-y,1/2+z
loop_
_atom_site_type_symbol
_atom_site_label
_atom_site_fract_x
_atom_site_fract_y
_atom_site_fract_z
Si Si1 0.349349 0.176784 0.794004
Si Si2 0.269980 0.563903 0.681548
Si Si3 0.157177 0.267086 0.847991
Si Si4 0.157348 0.156334 0.577546
Si Si5 0.153873 0.059173 0.667967
Si Si6 0.500000 0.434796 0.423906
O O1 0.500000 0.198532 0.816727
O O2 0.347481 0.110790 0.811760
O O3 0.225574 0.207861 0.831406
O O4 0.331470 0.189219 0.713950
O O5 0.213968 0.500000 0.672713
O O6 0.353592 0.569798 0.751449
O O7 0.364927 0.581794 0.618222
O O8 0.245059 0.290841 0.910772
O O9 0.000000 0.256644 0.869386
O O10 0.166133 0.137270 0.500000
O O11 0.223198 0.107807 0.624443
O O12 0.000000 0.170767 0.597997
O O13 0.000000 0.055417 0.640669
O O14 0.229219 0.000000 0.653754
O O15 0.500000 0.500000 0.432206
O O16 0.500000 0.407435 0.500000
#
# Coordination Sequence:
#
# PCOD8287881 Si02
#       6
#    16  16  16  16  16   8
#     4  10  21  36  56  84 112 140 184 236 284 334
#     4  10  18  31  56  84 112 147 182 225 278 335
#     4  10  21  36  56  80 106 146 193 237 281 334
#     4  10  20  34  54  80 114 153 190 237 288 329
#     4   9  16  28  49  80 113 147 191 233 273 326
#     4   9  18  32  52  84 119 145 177 223 277 335
#
# _framework density 19.032475000000002
#
# number of rings (size 3 to 8) (size 9 to 14) (size 15 to 20)
#    0.000    2.273    2.727    0.545    1.273    1.818 
#    0.000    2.727    0.000    2.182    0.000    3.818 
#    0.000    0.000    0.000    0.000    0.000    0.000 
#
# Total GULP energy -545097.490140 kJ/mol
# GULP energy per Si atom -12388.579321 kJ/mol
# Density = 1.898916 g / cm^3
# Si number density = 19.032475 Si / 1000 Ang^3
#
#
#
# Elastic Constant Matrix: (Units=GPa)
#
#
# Indices 1 2 3 4 5 6 
#
# 1 97.0167 44.5762 29.9605 0.0000 0.0000 0.0000
# 2 44.5762 95.8365 37.2348 0.0000 0.0000 0.0000
# 3 29.9605 37.2348 82.0838 -0.0001 0.0000 0.0000
# 4 0.0000 0.0000 -0.0001 21.8528 0.0000 0.0000
# 5 0.0000 0.0000 0.0000 0.0000 19.9273 0.0000
# 6 0.0000 0.0000 0.0000 0.0000 0.0000 22.7523
#
#
#
# Elastic Compliance Matrix: (Units=1/GPa)
#
#
# Indices 1 2 3 4 5 6 
#
# 1 0.013528 -0.005310 -0.002529 0.000000 0.000000 0.000000
# 2 -0.005310 0.014751 -0.004753 0.000000 0.000000 0.000000
# 3 -0.002529 -0.004753 0.015262 0.000000 0.000000 0.000000
# 4 0.000000 0.000000 0.000000 0.045761 0.000000 0.000000
# 5 0.000000 0.000000 0.000000 0.000000 0.050182 0.000000
# 6 0.000000 0.000000 0.000000 0.000000 0.000000 0.043952
#
#
# Mechanical properties :
#
#
# Convention : Reuss Voigt Hill
#
# Bulk Modulus (GPa) = 54.47575 55.38667 54.93121
# Shear Modulus (GPa) = 23.28407 23.78417 23.53412
#
# Velocity S-wave (km/s) = 3.50149 3.53889 3.52024
# Velocity P-wave (km/s) = 6.71058 6.77220 6.74146
#
# Compressibility (1/GPa) = 0.01835679
#
# Stress axis : x y z
#
# Youngs Moduli (GPa) = 73.91959 67.79256 65.52229
#
# Poissons Ratio (x) = 0.35996 0.16572
# Poissons Ratio (y) = 0.39249 0.31144
# Poissons Ratio (z) = 0.18696 0.32224
#
# Static dielectric constant tensor:
#      x y z
#    x 3.221250 0.000000 0.000000 
#    y 0.000000 3.565070 0.000000 
#    z 0.000000 0.000000 3.443910 
# 
# 
# High freq. dielectric constant tensor:
#      x y z
#    x 1.712080 0.000000 0.000000 
#    y 0.000000 1.740540 0.000000 
#    z 0.000000 0.000000 1.718190 
# 
# From -- ./inp_files/50531.got.cif
#   From: 2010.06.25/outbox.cif.g09.slc.cpg/sg71_26_cif.got.tgz:50531.got - 2010.06.28 04:59:45.
