data_PCOD8287353
_publ_section_title
;
Structure prediction by ZEFSAII (Michael W. Deem and Ramdas Pophale) SiO2 
 PCOD8287353
Probable space group: I M M M
;
_chemical_formula_sum "Si O2"
_cell_formula_units_Z 128
_cell_length_a 21.094117
_cell_length_b 16.036788
_cell_length_c 23.773577
_cell_angle_alpha 90.000000
_cell_angle_beta 90.000000
_cell_angle_gamma 90.000000
_cell_volume 8042.170378
_symmetry_space_group_name_H-M "I M M M"
_symmetry_group_IT_number 71
_symmetry_cell_setting 'orthorhombic'
loop_
_space_group_symop_operation_xyz
x,y,z
-x,-y,z
x,-y,-z
-x,y,-z
-x,-y,-z
x,y,-z
-x,y,z
x,-y,z
1/2+x,1/2+y,1/2+z
1/2-x,1/2-y,1/2+z
1/2+x,1/2-y,1/2-z
1/2-x,1/2+y,1/2-z
1/2-x,1/2-y,1/2-z
1/2+x,1/2+y,1/2-z
1/2-x,1/2+y,1/2+z
1/2+x,1/2-y,1/2+z
loop_
_atom_site_type_symbol
_atom_site_label
_atom_site_fract_x
_atom_site_fract_y
_atom_site_fract_z
Si Si1 0.605520 0.910270 0.762440
Si Si2 0.700249 0.404733 0.562382
Si Si3 0.427365 0.731696 0.745565
Si Si4 0.243436 0.624839 0.735929
Si Si5 0.686796 0.714854 0.823102
Si Si6 0.179228 0.708481 0.563298
Si Si7 0.633234 0.408109 0.671638
Si Si8 0.572739 0.904447 0.891083
O O1 0.583702 0.829167 0.725964
O O2 0.680360 0.929099 0.757033
O O3 0.587123 0.887117 0.825958
O O4 0.573344 0.000000 0.745060
O O5 0.673586 0.385784 0.500000
O O6 0.722606 0.500000 0.568202
O O7 0.761566 0.350304 0.575350
O O8 0.643792 0.385256 0.606080
O O9 0.500000 0.717248 0.761653
O O10 0.385085 0.711349 0.799948
O O11 0.408483 0.667109 0.696388
O O12 0.272519 0.637918 0.798882
O O13 0.223335 0.706963 0.702558
O O14 0.297625 0.581207 0.699576
O O15 0.683419 0.716488 0.891006
O O16 0.180208 0.745688 0.500000
O O17 0.115415 0.655250 0.570817
O O18 0.600127 0.500000 0.677716
O O19 0.500000 0.882598 0.903892
O O20 0.587721 0.000000 0.906657
#
# Coordination Sequence:
#
# PCOD8287353 Si02
#       8
#    16  16  16  16  16  16  16  16
#     4  10  18  28  47  69  89 119 155 190 233 278
#     4   9  17  28  43  65  93 122 151 184 222 267
#     4  10  20  32  46  64  91 125 156 194 230 267
#     4   9  15  27  46  64  87 114 146 191 235 279
#     4   9  17  28  43  64  87 117 154 187 231 277
#     4  11  19  27  41  60  88 121 158 198 225 261
#     4  10  18  29  48  70  94 123 153 187 230 276
#     4  10  19  29  39  54  84 126 167 198 220 252
#
# _framework density 15.916102
#
# number of rings (size 3 to 8) (size 9 to 14) (size 15 to 20)
#    0.000    2.250    3.750    1.875    0.000    4.000 
#    0.000    0.625    0.000    0.375    0.000    1.750 
#    0.000   14.000    0.000    5.625    0.000    0.000 
#
# Total GULP energy -792843.400152 kJ/mol
# GULP energy per Si atom -12388.178127 kJ/mol
# Density = 1.587988 g / cm^3
# Si number density = 15.916102 Si / 1000 Ang^3
#
#
#
# Elastic Constant Matrix: (Units=GPa)
#
#
# Indices 1 2 3 4 5 6 
#
# 1 45.4841 14.5103 18.7847 0.0000 0.0000 0.0000
# 2 14.5103 54.5962 33.3919 0.0000 0.0000 0.0000
# 3 18.7847 33.3919 98.5785 0.0000 0.0000 0.0000
# 4 0.0000 0.0000 0.0000 5.4094 0.0000 0.0000
# 5 0.0000 0.0000 0.0000 0.0000 6.7035 0.0000
# 6 0.0000 0.0000 0.0000 0.0000 0.0000 8.1596
#
#
#
# Elastic Compliance Matrix: (Units=1/GPa)
#
#
# Indices 1 2 3 4 5 6 
#
# 1 0.024770 -0.004662 -0.003141 0.000000 0.000000 0.000000
# 2 -0.004662 0.023980 -0.007234 0.000000 0.000000 0.000000
# 3 -0.003141 -0.007234 0.013193 0.000000 0.000000 0.000000
# 4 0.000000 0.000000 0.000000 0.184862 0.000000 0.000000
# 5 0.000000 0.000000 0.000000 0.000000 0.149176 0.000000
# 6 0.000000 0.000000 0.000000 0.000000 0.000000 0.122554
#
#
# Mechanical properties :
#
#
# Convention : Reuss Voigt Hill
#
# Bulk Modulus (GPa) = 31.37906 36.89252 34.13579
# Shear Modulus (GPa) = 8.94081 12.85264 10.89673
#
# Velocity S-wave (km/s) = 2.37269 2.84478 2.61939
# Velocity P-wave (km/s) = 5.22152 5.83267 5.53554
#
# Compressibility (1/GPa) = 0.03186839
#
# Stress axis : x y z
#
# Youngs Moduli (GPa) = 40.37103 41.70121 75.79629
#
# Poissons Ratio (x) = 0.19443 0.23806
# Poissons Ratio (y) = 0.18822 0.54834
# Poissons Ratio (z) = 0.12680 0.30168
#
# Static dielectric constant tensor:
#      x y z
#    x 3.012850 0.000000 0.000000 
#    y 0.000000 2.980980 0.000000 
#    z 0.000000 0.000000 3.029000 
# 
# 
# High freq. dielectric constant tensor:
#      x y z
#    x 1.605150 0.000000 0.000000 
#    y 0.000000 1.590450 0.000000 
#    z 0.000000 0.000000 1.584460 
# 
# From -- ./inp_files/61436.got.cif
#   From: 2010.06.25/outbox.cif.g09.slc.cpg/sg71_31_cif.got.tgz:61436.got - 2010.06.28 04:59:45.
