data_PCOD8287525
_publ_section_title
;
Structure prediction by ZEFSAII (Michael W. Deem and Ramdas Pophale) SiO2 
 PCOD8287525
Probable space group: I M M M
;
_chemical_formula_sum "Si O2"
_cell_formula_units_Z 80
_cell_length_a 13.859975
_cell_length_b 16.544290
_cell_length_c 18.658093
_cell_angle_alpha 90.000000
_cell_angle_beta 90.000000
_cell_angle_gamma 90.000000
_cell_volume 4278.365017
_symmetry_space_group_name_H-M "I M M M"
_symmetry_group_IT_number 71
_symmetry_cell_setting 'orthorhombic'
loop_
_space_group_symop_operation_xyz
x,y,z
-x,-y,z
x,-y,-z
-x,y,-z
-x,-y,-z
x,y,-z
-x,y,z
x,-y,z
1/2+x,1/2+y,1/2+z
1/2-x,1/2-y,1/2+z
1/2+x,1/2-y,1/2-z
1/2-x,1/2+y,1/2-z
1/2-x,1/2-y,1/2-z
1/2+x,1/2+y,1/2-z
1/2-x,1/2+y,1/2+z
1/2+x,1/2-y,1/2+z
loop_
_atom_site_type_symbol
_atom_site_label
_atom_site_fract_x
_atom_site_fract_y
_atom_site_fract_z
Si Si1 0.606908 0.500000 0.273143
Si Si2 0.267485 0.323995 0.580997
Si Si3 0.389884 0.725875 0.855769
Si Si4 0.264941 0.589584 0.176043
Si Si5 0.168430 0.000000 0.078083
Si Si6 0.111558 0.277855 0.807062
O O1 0.500000 0.500000 0.237834
O O2 0.668634 0.421722 0.247786
O O3 0.590200 0.500000 0.358526
O O4 0.293409 0.297051 0.500000
O O5 0.158396 0.298874 0.600724
O O6 0.265996 0.420819 0.587061
O O7 0.344634 0.282440 0.633927
O O8 0.500000 0.718123 0.879566
O O9 0.330983 0.644189 0.876762
O O10 0.376172 0.739549 0.771085
O O11 0.243551 0.500000 0.142677
O O12 0.165262 0.635316 0.192817
O O13 0.116278 0.000000 0.000000
O O14 0.000000 0.293070 0.825597
#
# Coordination Sequence:
#
# PCOD8287525 Si02
#       6
#     8  16  16  16   8  16
#     4  10  18  29  49  79 109 137 170 214 267 314
#     4  10  21  36  54  78 111 149 184 220 267 322
#     4  10  19  34  55  79 108 142 183 228 274 320
#     4   9  19  31  53  80 106 133 171 222 273 321
#     4  10  20  33  49  72 109 148 182 219 258 311
#     4  10  20  36  55  78 108 142 183 228 272 319
#
# _framework density 18.698732
#
# number of rings (size 3 to 8) (size 9 to 14) (size 15 to 20)
#    0.600    1.600    0.000    5.400    0.000    3.800 
#    0.000    2.500    0.000   11.400    0.000   11.200 
#    0.000    0.000    0.000    0.000    0.000    0.000 
#
# Total GULP energy -495566.667532 kJ/mol
# GULP energy per Si atom -12389.166688 kJ/mol
# Density = 1.865617 g / cm^3
# Si number density = 18.698732 Si / 1000 Ang^3
#
#
#
# Elastic Constant Matrix: (Units=GPa)
#
#
# Indices 1 2 3 4 5 6 
#
# 1 126.2216 66.8359 17.6805 0.0000 0.0000 0.0000
# 2 66.8359 138.4230 28.0452 0.0000 0.0000 0.0000
# 3 17.6805 28.0452 69.6418 0.0000 0.0000 0.0000
# 4 0.0000 0.0000 0.0000 22.2674 0.0000 0.0000
# 5 0.0000 0.0000 0.0000 0.0000 13.7273 0.0000
# 6 0.0000 0.0000 0.0000 0.0000 0.0000 14.0946
#
#
#
# Elastic Compliance Matrix: (Units=1/GPa)
#
#
# Indices 1 2 3 4 5 6 
#
# 1 0.010674 -0.005014 -0.000691 0.000000 0.000000 0.000000
# 2 -0.005014 0.010221 -0.002843 0.000000 0.000000 0.000000
# 3 -0.000691 -0.002843 0.015680 0.000000 0.000000 0.000000
# 4 0.000000 0.000000 0.000000 0.044909 0.000000 0.000000
# 5 0.000000 0.000000 0.000000 0.000000 0.072847 0.000000
# 6 0.000000 0.000000 0.000000 0.000000 0.000000 0.070949
#
#
# Mechanical properties :
#
#
# Convention : Reuss Voigt Hill
#
# Bulk Modulus (GPa) = 51.33714 62.15661 56.74687
# Shear Modulus (GPa) = 20.09089 24.79954 22.44522
#
# Velocity S-wave (km/s) = 3.28144 3.64575 3.46838
# Velocity P-wave (km/s) = 6.47083 7.14389 6.81567
#
# Compressibility (1/GPa) = 0.01947907
#
# Stress axis : x y z
#
# Youngs Moduli (GPa) = 93.68285 97.83559 63.77732
#
# Poissons Ratio (x) = 0.49055 0.04406
# Poissons Ratio (y) = 0.46973 0.18133
# Poissons Ratio (z) = 0.06472 0.27817
#
# Static dielectric constant tensor:
#      x y z
#    x 3.390440 0.000000 0.000000 
#    y 0.000000 3.564810 0.000000 
#    z 0.000000 0.000000 3.299570 
# 
# 
# High freq. dielectric constant tensor:
#      x y z
#    x 1.718360 0.000000 0.000000 
#    y 0.000000 1.735020 0.000000 
#    z 0.000000 0.000000 1.700980 
# 
# From -- ./inp_files/44648.got.cif
#   From: 2010.06.25/outbox.cif.g09.slc.cpg/sg71_23_cif.got.tgz:44648.got - 2010.06.28 04:59:45.
