data_PCOD8287910
_publ_section_title
;
Structure prediction by ZEFSAII (Michael W. Deem and Ramdas Pophale) SiO2 
 PCOD8287910
Probable space group: I M M M
;
_chemical_formula_sum "Si O2"
_cell_formula_units_Z 96
_cell_length_a 25.968149
_cell_length_b 18.086483
_cell_length_c 11.745900
_cell_angle_alpha 90.000000
_cell_angle_beta 90.000000
_cell_angle_gamma 90.000000
_cell_volume 5516.726047
_symmetry_space_group_name_H-M "I M M M"
_symmetry_group_IT_number 71
_symmetry_cell_setting 'orthorhombic'
loop_
_space_group_symop_operation_xyz
x,y,z
-x,-y,z
x,-y,-z
-x,y,-z
-x,-y,-z
x,y,-z
-x,y,z
x,-y,z
1/2+x,1/2+y,1/2+z
1/2-x,1/2-y,1/2+z
1/2+x,1/2-y,1/2-z
1/2-x,1/2+y,1/2-z
1/2-x,1/2-y,1/2-z
1/2+x,1/2+y,1/2-z
1/2-x,1/2+y,1/2+z
1/2+x,1/2-y,1/2+z
loop_
_atom_site_type_symbol
_atom_site_label
_atom_site_fract_x
_atom_site_fract_y
_atom_site_fract_z
Si Si1 0.243114 0.085261 0.000000
Si Si2 0.556285 0.417962 0.134816
Si Si3 0.245937 0.162128 0.234434
Si Si4 0.849447 0.178603 0.635093
Si Si5 0.557482 0.916842 0.634323
Si Si6 0.364884 0.918385 0.000000
Si Si7 0.639937 0.840498 0.224667
O O1 0.226068 0.133231 0.889290
O O2 0.303874 0.080384 0.000000
O O3 0.220954 0.000000 0.000000
O O4 0.500000 0.386455 0.171347
O O5 0.563344 0.500000 0.185746
O O6 0.601922 0.367298 0.180398
O O7 0.559800 0.421918 0.000000
O O8 0.250000 0.250000 0.250000
O O9 0.203215 0.136365 0.327207
O O10 0.302970 0.127797 0.257248
O O11 0.848675 0.192052 0.500000
O O12 0.854225 0.254064 0.703808
O O13 0.558047 0.913113 0.500000
O O14 0.500000 0.896362 0.678622
O O15 0.599532 0.858010 0.676638
O O16 0.571957 0.000000 0.674971
O O17 0.384324 0.876927 0.111994
O O18 0.388753 0.000000 0.000000
#
# Coordination Sequence:
#
# PCOD8287910 Si02
#       7
#     8  16  16  16  16   8  16
#     4   9  18  34  52  73 102 142 185 215 251 315
#     4   8  15  29  48  68  93 127 160 193 245 304
#     4   9  20  32  51  76 106 141 174 212 264 318
#     4  10  19  32  49  77 108 132 166 213 260 305
#     4   9  19  36  54  71  96 132 173 217 262 307
#     4   9  16  28  49  70  98 133 166 205 251 302
#     4  10  18  32  49  74 100 133 170 209 252 309
#
# _framework density 17.401624999999999
#
# number of rings (size 3 to 8) (size 9 to 14) (size 15 to 20)
#    0.000    2.833    0.833    1.500    3.500    2.667 
#    4.500    0.417    0.000    3.500    0.000    0.000 
#    0.000    2.000    0.000    0.000    0.000    0.000 
#
# Total GULP energy -594682.454023 kJ/mol
# GULP energy per Si atom -12389.217792 kJ/mol
# Density = 1.736202 g / cm^3
# Si number density = 17.401625 Si / 1000 Ang^3
#
#
#
# Elastic Constant Matrix: (Units=GPa)
#
#
# Indices 1 2 3 4 5 6 
#
# 1 136.0085 40.8616 41.8654 0.0000 0.0000 0.0000
# 2 40.8616 71.2081 31.5641 0.0000 0.0000 0.0000
# 3 41.8654 31.5641 50.9607 0.0000 0.0000 0.0000
# 4 0.0000 0.0000 0.0000 20.5123 0.0000 0.0000
# 5 0.0000 0.0000 0.0000 0.0000 25.3474 0.0000
# 6 0.0000 0.0000 0.0000 0.0000 0.0000 25.9382
#
#
#
# Elastic Compliance Matrix: (Units=1/GPa)
#
#
# Indices 1 2 3 4 5 6 
#
# 1 0.010278 -0.002971 -0.006603 0.000000 0.000000 0.000000
# 2 -0.002971 0.020217 -0.010081 0.000000 0.000000 0.000000
# 3 -0.006603 -0.010081 0.031292 0.000000 0.000000 0.000000
# 4 0.000000 0.000000 0.000000 0.048751 0.000000 0.000000
# 5 0.000000 0.000000 0.000000 0.000000 0.039452 0.000000
# 6 0.000000 0.000000 0.000000 0.000000 0.000000 0.038553
#
#
# Mechanical properties :
#
#
# Convention : Reuss Voigt Hill
#
# Bulk Modulus (GPa) = 44.49278 54.08440 49.28859
# Shear Modulus (GPa) = 21.24540 23.95199 22.59869
#
# Velocity S-wave (km/s) = 3.49791 3.71404 3.60759
# Velocity P-wave (km/s) = 6.47592 7.03844 6.76303
#
# Compressibility (1/GPa) = 0.02247556
#
# Stress axis : x y z
#
# Youngs Moduli (GPa) = 97.29958 49.46399 31.95704
#
# Poissons Ratio (x) = 0.14694 0.21102
# Poissons Ratio (y) = 0.28904 0.32217
# Poissons Ratio (z) = 0.64250 0.49867
#
# Static dielectric constant tensor:
#      x y z
#    x 3.576920 0.000000 0.000000 
#    y 0.000000 3.284330 0.000000 
#    z 0.000000 0.000000 3.084490 
# 
# 
# High freq. dielectric constant tensor:
#      x y z
#    x 1.670800 0.000000 0.000000 
#    y 0.000000 1.662470 0.000000 
#    z 0.000000 0.000000 1.645400 
# 
# From -- ./inp_files/26034.got.cif
#   From: 2010.06.25/outbox.cif.g09.slc.cpg/sg71_14_cif.got.tgz:26034.got - 2010.06.28 04:59:45.
