data_PCOD8287931
_publ_section_title
;
Structure prediction by ZEFSAII (Michael W. Deem and Ramdas Pophale) SiO2 
 PCOD8287931
Probable space group: I M M M
;
_chemical_formula_sum "Si O2"
_cell_formula_units_Z 120
_cell_length_a 8.851823
_cell_length_b 26.959521
_cell_length_c 28.197971
_cell_angle_alpha 90.000000
_cell_angle_beta 90.000000
_cell_angle_gamma 90.000000
_cell_volume 6729.189405
_symmetry_space_group_name_H-M "I M M M"
_symmetry_group_IT_number 71
_symmetry_cell_setting 'orthorhombic'
loop_
_space_group_symop_operation_xyz
x,y,z
-x,-y,z
x,-y,-z
-x,y,-z
-x,-y,-z
x,y,-z
-x,y,z
x,-y,z
1/2+x,1/2+y,1/2+z
1/2-x,1/2-y,1/2+z
1/2+x,1/2-y,1/2-z
1/2-x,1/2+y,1/2-z
1/2-x,1/2-y,1/2-z
1/2+x,1/2+y,1/2-z
1/2-x,1/2+y,1/2+z
1/2+x,1/2-y,1/2+z
loop_
_atom_site_type_symbol
_atom_site_label
_atom_site_fract_x
_atom_site_fract_y
_atom_site_fract_z
Si Si1 0.667275 0.310829 0.216719
Si Si2 0.162167 0.000000 0.552427
Si Si3 0.823975 0.444430 0.713198
Si Si4 0.680373 0.346776 0.683840
Si Si5 0.320918 0.760497 0.136520
Si Si6 0.830596 0.921270 0.689756
Si Si7 0.177950 0.411639 0.905988
Si Si8 0.677395 0.312753 0.945309
O O1 0.500000 0.290675 0.226938
O O2 0.745735 0.319977 0.268024
O O3 0.747025 0.272183 0.180694
O O4 0.661644 0.362227 0.189370
O O5 0.265455 0.951560 0.556931
O O6 0.104492 0.000000 0.500000
O O7 0.000000 0.000000 0.581757
O O8 0.798409 0.500000 0.692043
O O9 0.743497 0.402968 0.680303
O O10 0.755197 0.443673 0.765543
O O11 0.000000 0.431564 0.716118
O O12 0.500000 0.350364 0.684841
O O13 0.740314 0.314356 0.639530
O O14 0.500000 0.766530 0.141249
O O15 0.280674 0.735981 0.085774
O O16 0.738517 0.934734 0.643121
O O17 0.000000 0.943413 0.688670
O O18 0.239734 0.358334 0.920910
O O19 0.000000 0.407771 0.903865
O O20 0.500000 0.323588 0.942744
O O21 0.729240 0.304550 0.000000
#
# Coordination Sequence:
#
# PCOD8287931 Si02
#       8
#    16   8  16  16  16  16  16  16
#     4   8  15  29  48  70  96 129 167 206 245 293
#     4  11  25  43  59  71  87 121 169 221 277 331
#     4  10  21  36  53  75 106 140 177 219 262 306
#     4  10  20  32  49  76 106 138 177 213 257 316
#     4  10  18  32  52  74 104 138 173 216 262 308
#     4  10  19  34  53  74 100 134 175 212 253 307
#     4  12  24  37  55  77 102 130 167 220 278 328
#     4  10  21  38  59  79 102 138 181 220 264 323
#
# _framework density 17.832757999999998
#
# number of rings (size 3 to 8) (size 9 to 14) (size 15 to 20)
#    0.000    1.933    1.333    4.200    0.933    4.000 
#    0.000    0.667    0.000    0.000    0.000    0.000 
#    0.000    0.533    0.000    6.133    0.000    1.733 
#
# Total GULP energy -743526.591442 kJ/mol
# GULP energy per Si atom -12392.109857 kJ/mol
# Density = 1.779217 g / cm^3
# Si number density = 17.832758 Si / 1000 Ang^3
#
#
#
# Elastic Constant Matrix: (Units=GPa)
#
#
# Indices 1 2 3 4 5 6 
#
# 1 83.4626 47.2812 33.0938 0.0000 0.0000 0.0000
# 2 47.2812 108.9079 42.4087 0.0000 0.0000 0.0000
# 3 33.0938 42.4087 47.1846 0.0000 0.0000 0.0000
# 4 0.0000 0.0000 0.0000 42.0400 0.0000 0.0000
# 5 0.0000 0.0000 0.0000 0.0000 17.3909 0.0000
# 6 0.0000 0.0000 0.0000 0.0000 0.0000 90.2210
#
#
#
# Elastic Compliance Matrix: (Units=1/GPa)
#
#
# Indices 1 2 3 4 5 6 
#
# 1 0.017887 -0.004431 -0.008563 0.000000 0.000000 0.000000
# 2 -0.004431 0.015224 -0.010575 0.000000 0.000000 0.000000
# 3 -0.008563 -0.010575 0.036704 0.000000 0.000000 0.000000
# 4 0.000000 0.000000 0.000000 0.023787 0.000000 0.000000
# 5 0.000000 0.000000 0.000000 0.000000 0.057501 0.000000
# 6 0.000000 0.000000 0.000000 0.000000 0.000000 0.011084
#
#
# Mechanical properties :
#
#
# Convention : Reuss Voigt Hill
#
# Bulk Modulus (GPa) = 44.09828 53.90248 49.00038
# Shear Modulus (GPa) = 23.05396 37.71514 30.38455
#
# Velocity S-wave (km/s) = 3.59944 4.60383 4.13226
# Velocity P-wave (km/s) = 6.48514 7.65197 7.09259
#
# Compressibility (1/GPa) = 0.02267662
#
# Stress axis : x y z
#
# Youngs Moduli (GPa) = 55.90727 65.68718 27.24528
#
# Poissons Ratio (x) = 0.29106 0.23329
# Poissons Ratio (y) = 0.24773 0.28812
# Poissons Ratio (z) = 0.47872 0.69464
#
# Static dielectric constant tensor:
#      x y z
#    x 3.225090 0.000000 0.000000 
#    y 0.000000 3.332080 0.000000 
#    z 0.000000 0.000000 3.168150 
# 
# 
# High freq. dielectric constant tensor:
#      x y z
#    x 1.688620 0.000000 0.000000 
#    y 0.000000 1.686990 0.000000 
#    z 0.000000 0.000000 1.652180 
# 
# From -- ./inp_files/63751.got.cif
#   From: 2010.06.25/outbox.cif.g09.slc.cpg/sg71_32_cif.got.tgz:63751.got - 2010.06.28 04:59:45.
