data_PCOD8287188
_publ_section_title
;
Structure prediction by ZEFSAII (Michael W. Deem and Ramdas Pophale) SiO2 
 PCOD8287188
Probable space group: I M M M
;
_chemical_formula_sum "Si O2"
_cell_formula_units_Z 80
_cell_length_a 9.222488
_cell_length_b 23.947027
_cell_length_c 24.260218
_cell_angle_alpha 90.000000
_cell_angle_beta 90.000000
_cell_angle_gamma 90.000000
_cell_volume 5357.897509
_symmetry_space_group_name_H-M "I M M M"
_symmetry_group_IT_number 71
_symmetry_cell_setting 'orthorhombic'
loop_
_space_group_symop_operation_xyz
x,y,z
-x,-y,z
x,-y,-z
-x,y,-z
-x,-y,-z
x,y,-z
-x,y,z
x,-y,z
1/2+x,1/2+y,1/2+z
1/2-x,1/2-y,1/2+z
1/2+x,1/2-y,1/2-z
1/2-x,1/2+y,1/2-z
1/2-x,1/2-y,1/2-z
1/2+x,1/2+y,1/2-z
1/2-x,1/2+y,1/2+z
1/2+x,1/2-y,1/2+z
loop_
_atom_site_type_symbol
_atom_site_label
_atom_site_fract_x
_atom_site_fract_y
_atom_site_fract_z
Si Si1 0.827835 0.880925 0.559886
Si Si2 0.668535 0.266069 0.665356
Si Si3 0.171773 0.938601 0.668366
Si Si4 0.330743 0.746837 0.938188
Si Si5 0.831910 0.169985 0.727941
O O1 0.771700 0.902675 0.500000
O O2 0.764128 0.918735 0.609150
O O3 0.779315 0.817082 0.568205
O O4 0.000000 0.882802 0.560583
O O5 0.500000 0.254823 0.656168
O O6 0.741766 0.282440 0.607054
O O7 0.738690 0.210128 0.689509
O O8 0.695416 0.317281 0.707673
O O9 0.215043 0.894008 0.715670
O O10 0.000000 0.942397 0.663791
O O11 0.235886 0.000000 0.682747
O O12 0.500000 0.753575 0.925798
O O13 0.294961 0.768409 0.000000
O O14 0.000000 0.179756 0.712018
#
# Coordination Sequence:
#
# PCOD8287188 Si02
#       5
#    16  16  16  16  16
#     4   8  13  21  34  53  76 101 130 164 198 226
#     4  10  18  26  41  61  81 107 135 167 203 241
#     4   9  15  23  38  57  77 103 136 174 206 231
#     4   9  16  27  43  60  81 108 133 164 205 242
#     4   9  17  29  41  57  82 107 136 170 204 241
#
# _framework density 14.931229999999999
#
# number of rings (size 3 to 8) (size 9 to 14) (size 15 to 20)
#    0.000    3.000    2.000    1.800    0.000    1.600 
#    0.000    2.000    0.000    0.600    0.000    0.000 
#    0.000    4.000    0.000   10.000    0.000    1.600 
#
# Total GULP energy -495652.768091 kJ/mol
# GULP energy per Si atom -12391.319202 kJ/mol
# Density = 1.489725 g / cm^3
# Si number density = 14.931230 Si / 1000 Ang^3
#
#
#
# Elastic Constant Matrix: (Units=GPa)
#
#
# Indices 1 2 3 4 5 6 
#
# 1 41.3040 18.8971 44.5430 0.0000 0.0000 0.0000
# 2 18.8971 77.9331 61.9923 0.0000 0.0000 0.0000
# 3 44.5430 61.9923 131.5336 0.0000 0.0000 0.0000
# 4 0.0000 0.0000 0.0000 21.9674 0.0000 0.0000
# 5 0.0000 0.0000 0.0000 0.0000 23.3632 0.0000
# 6 0.0000 0.0000 0.0000 0.0000 0.0000 9.6650
#
#
#
# Elastic Compliance Matrix: (Units=1/GPa)
#
#
# Indices 1 2 3 4 5 6 
#
# 1 0.038271 0.001647 -0.013736 0.000000 0.000000 0.000000
# 2 0.001647 0.020598 -0.010266 0.000000 0.000000 0.000000
# 3 -0.013736 -0.010266 0.017093 0.000000 0.000000 0.000000
# 4 0.000000 0.000000 0.000000 0.045522 0.000000 0.000000
# 5 0.000000 0.000000 0.000000 0.000000 0.042802 0.000000
# 6 0.000000 0.000000 0.000000 0.000000 0.000000 0.103466
#
#
# Mechanical properties :
#
#
# Convention : Reuss Voigt Hill
#
# Bulk Modulus (GPa) = 31.99883 55.73729 43.86806
# Shear Modulus (GPa) = 15.48568 19.35502 17.42035
#
# Velocity S-wave (km/s) = 3.22395 3.60429 3.41941
# Velocity P-wave (km/s) = 5.94439 7.39808 6.71072
#
# Compressibility (1/GPa) = 0.03125114
#
# Stress axis : x y z
#
# Youngs Moduli (GPa) = 26.12958 48.54825 58.50501
#
# Poissons Ratio (x) = -0.07995 0.80364
# Poissons Ratio (y) = -0.04303 0.60059
# Poissons Ratio (z) = 0.35892 0.49838
#
# Static dielectric constant tensor:
#      x y z
#    x 2.596050 0.000000 0.000000 
#    y 0.000000 2.829800 0.000000 
#    z 0.000000 0.000000 3.172080 
# 
# 
# High freq. dielectric constant tensor:
#      x y z
#    x 1.538100 0.000000 0.000000 
#    y 0.000000 1.529920 0.000000 
#    z 0.000000 0.000000 1.579000 
# 
# From -- ./inp_files/51007.got.cif
#   From: 2010.06.25/outbox.cif.g09.slc.cpg/sg71_26_cif.got.tgz:51007.got - 2010.06.28 04:59:45.
