data_PCOD8287760
_publ_section_title
;
Structure prediction by ZEFSAII (Michael W. Deem and Ramdas Pophale) SiO2 
 PCOD8287760
Probable space group: I M M M
;
_chemical_formula_sum "Si O2"
_cell_formula_units_Z 72
_cell_length_a 31.096533
_cell_length_b 18.040807
_cell_length_c 7.514249
_cell_angle_alpha 90.000000
_cell_angle_beta 90.000000
_cell_angle_gamma 90.000000
_cell_volume 4215.542909
_symmetry_space_group_name_H-M "I M M M"
_symmetry_group_IT_number 71
_symmetry_cell_setting 'orthorhombic'
loop_
_space_group_symop_operation_xyz
x,y,z
-x,-y,z
x,-y,-z
-x,y,-z
-x,-y,-z
x,y,-z
-x,y,z
x,-y,z
1/2+x,1/2+y,1/2+z
1/2-x,1/2-y,1/2+z
1/2+x,1/2-y,1/2-z
1/2-x,1/2+y,1/2-z
1/2-x,1/2-y,1/2-z
1/2+x,1/2+y,1/2-z
1/2-x,1/2+y,1/2+z
1/2+x,1/2-y,1/2+z
loop_
_atom_site_type_symbol
_atom_site_label
_atom_site_fract_x
_atom_site_fract_y
_atom_site_fract_z
Si Si1 0.751637 0.583970 0.702915
Si Si2 0.867277 0.272007 0.000000
Si Si3 0.582700 0.415171 0.203836
Si Si4 0.679810 0.084385 0.500000
Si Si5 0.547896 0.313500 0.500000
Si Si6 0.167176 0.170330 0.702357
O O1 0.766298 0.595340 0.500000
O O2 0.735655 0.500000 0.738158
O O3 0.713639 0.639619 0.749356
O O4 0.792243 0.601665 0.825471
O O5 0.844194 0.239549 0.174250
O O6 0.861108 0.360704 0.000000
O O7 0.918075 0.253883 0.000000
O O8 0.576340 0.500000 0.260992
O O9 0.552976 0.363972 0.325347
O O10 0.632649 0.394957 0.233599
O O11 0.568803 0.402273 0.000000
O O12 0.662657 0.000000 0.500000
O O13 0.500000 0.279392 0.500000
O O14 0.166549 0.198825 0.500000
#
# Coordination Sequence:
#
# PCOD8287760 Si02
#       6
#    16   8  16   8   8  16
#     4  10  19  31  48  72 102 138 174 203 232 272
#     4  10  22  37  52  73  97 126 164 206 255 299
#     4   9  18  30  47  72 103 138 172 201 229 271
#     4  10  22  38  53  70  96 130 165 204 252 300
#     4  10  21  36  52  71  96 125 161 206 258 304
#     4  10  18  31  48  73 103 139 173 204 234 272
#
# _framework density 17.079650000000001
#
# number of rings (size 3 to 8) (size 9 to 14) (size 15 to 20)
#    0.000    2.222    2.222    1.000    0.000    4.000 
#    0.000    1.111    0.000    0.333    0.000    0.000 
#    0.000    0.000    0.000   16.667    0.000    0.000 
#
# Total GULP energy -446434.715331 kJ/mol
# GULP energy per Si atom -12400.964315 kJ/mol
# Density = 1.704078 g / cm^3
# Si number density = 17.079650 Si / 1000 Ang^3
#
#
#
# Elastic Constant Matrix: (Units=GPa)
#
#
# Indices 1 2 3 4 5 6 
#
# 1 90.2266 66.4627 37.7898 0.0000 0.0000 0.0000
# 2 66.4627 97.0917 39.6052 0.0000 0.0000 0.0000
# 3 37.7898 39.6052 114.3781 0.0000 0.0000 0.0000
# 4 0.0000 0.0000 0.0000 12.5493 0.0000 0.0000
# 5 0.0000 0.0000 0.0000 0.0000 12.9383 0.0000
# 6 0.0000 0.0000 0.0000 0.0000 0.0000 13.2537
#
#
#
# Elastic Compliance Matrix: (Units=1/GPa)
#
#
# Indices 1 2 3 4 5 6 
#
# 1 0.022952 -0.014693 -0.002495 0.000000 0.000000 0.000000
# 2 -0.014693 0.021400 -0.002556 0.000000 0.000000 0.000000
# 3 -0.002495 -0.002556 0.010452 0.000000 0.000000 0.000000
# 4 0.000000 0.000000 0.000000 0.079686 0.000000 0.000000
# 5 0.000000 0.000000 0.000000 0.000000 0.077290 0.000000
# 6 0.000000 0.000000 0.000000 0.000000 0.000000 0.075451
#
#
# Mechanical properties :
#
#
# Convention : Reuss Voigt Hill
#
# Bulk Modulus (GPa) = 65.29251 65.49020 65.39136
# Shear Modulus (GPa) = 15.06821 18.27083 16.66952
#
# Velocity S-wave (km/s) = 2.97346 3.27424 3.12747
# Velocity P-wave (km/s) = 7.07813 7.26095 7.17012
#
# Compressibility (1/GPa) = 0.01531569
#
# Stress axis : x y z
#
# Youngs Moduli (GPa) = 43.56951 46.72858 95.67321
#
# Poissons Ratio (x) = 0.68661 0.23873
# Poissons Ratio (y) = 0.64019 0.24449
# Poissons Ratio (z) = 0.10872 0.11942
#
# Static dielectric constant tensor:
#      x y z
#    x 2.910440 0.000000 0.000000 
#    y 0.000000 2.957240 0.000000 
#    z 0.000000 0.000000 3.557250 
# 
# 
# High freq. dielectric constant tensor:
#      x y z
#    x 1.627800 0.000000 0.000000 
#    y 0.000000 1.630510 0.000000 
#    z 0.000000 0.000000 1.682810 
# 
# From -- ./inp_files/16403.got.cif
#   From: 2010.06.25/outbox.cif.g09.slc.cpg/sg71_9_cif.got.tgz:16403.got - 2010.06.28 04:59:45.
