data_PCOD8287462
_publ_section_title
;
Structure prediction by ZEFSAII (Michael W. Deem and Ramdas Pophale) SiO2 
 PCOD8287462
Probable space group: I M M M
;
_chemical_formula_sum "Si O2"
_cell_formula_units_Z 120
_cell_length_a 21.857940
_cell_length_b 18.339288
_cell_length_c 18.238527
_cell_angle_alpha 90.000000
_cell_angle_beta 90.000000
_cell_angle_gamma 90.000000
_cell_volume 7311.078730
_symmetry_space_group_name_H-M "I M M M"
_symmetry_group_IT_number 71
_symmetry_cell_setting 'orthorhombic'
loop_
_space_group_symop_operation_xyz
x,y,z
-x,-y,z
x,-y,-z
-x,y,-z
-x,-y,-z
x,y,-z
-x,y,z
x,-y,z
1/2+x,1/2+y,1/2+z
1/2-x,1/2-y,1/2+z
1/2+x,1/2-y,1/2-z
1/2-x,1/2+y,1/2-z
1/2-x,1/2-y,1/2-z
1/2+x,1/2+y,1/2-z
1/2-x,1/2+y,1/2+z
1/2+x,1/2-y,1/2+z
loop_
_atom_site_type_symbol
_atom_site_label
_atom_site_fract_x
_atom_site_fract_y
_atom_site_fract_z
Si Si1 0.068454 0.279847 0.332047
Si Si2 0.932455 0.913288 0.000000
Si Si3 0.569281 0.637333 0.080273
Si Si4 0.107581 0.582738 0.416561
Si Si5 0.349877 0.419818 0.202054
Si Si6 0.266796 0.156073 0.083191
Si Si7 0.696070 0.731759 0.195225
Si Si8 0.852004 0.916712 0.866361
O O1 0.075060 0.222353 0.398327
O O2 0.072093 0.361746 0.363437
O O3 0.127312 0.260431 0.279042
O O4 0.000000 0.271379 0.295146
O O5 0.899192 0.885036 0.073785
O O6 0.000000 0.878926 0.000000
O O7 0.936273 0.000000 0.000000
O O8 0.500000 0.612437 0.074984
O O9 0.597641 0.584492 0.141322
O O10 0.600416 0.627319 0.000000
O O11 0.084762 0.594148 0.500000
O O12 0.093976 0.500000 0.390681
O O13 0.180237 0.595784 0.412200
O O14 0.318443 0.500000 0.197459
O O15 0.301646 0.355662 0.185537
O O16 0.378542 0.409197 0.283878
O O17 0.290593 0.232082 0.116595
O O18 0.210341 0.128587 0.131257
O O19 0.245840 0.169682 0.000000
O O20 0.750000 0.750000 0.250000
O O21 0.836998 0.000000 0.886839
#
# Coordination Sequence:
#
# PCOD8287462 Si02
#       8
#    16   8  16  16  16  16  16  16
#     4   9  18  31  47  67  94 125 162 202 243 288
#     4   9  18  30  44  66  98 134 164 194 242 299
#     4   9  18  33  51  68  91 129 172 207 240 285
#     4   9  17  26  40  67  97 125 158 198 238 281
#     4  10  21  33  48  72  99 124 157 202 252 293
#     4  10  18  30  50  70  92 123 166 207 243 287
#     4  10  19  34  52  70  95 126 164 203 239 290
#     4  10  18  29  47  69  95 128 161 201 246 296
#
# _framework density 16.413446
#
# number of rings (size 3 to 8) (size 9 to 14) (size 15 to 20)
#    0.000    2.467    2.000    0.800    0.000    5.867 
#    0.000    2.667    0.000    0.000    0.000    0.000 
#    0.000    0.000    0.000    0.000    0.000    0.667 
#
# Total GULP energy -743396.073064 kJ/mol
# GULP energy per Si atom -12389.934551 kJ/mol
# Density = 1.637609 g / cm^3
# Si number density = 16.413446 Si / 1000 Ang^3
#
#
#
# Elastic Constant Matrix: (Units=GPa)
#
#
# Indices 1 2 3 4 5 6 
#
# 1 100.3488 26.0098 34.2382 0.0000 0.0000 0.0000
# 2 26.0098 104.2918 25.9980 0.0000 0.0000 0.0000
# 3 34.2382 25.9980 82.5747 0.0000 0.0000 0.0000
# 4 0.0000 0.0000 0.0000 19.1624 0.0000 0.0000
# 5 0.0000 0.0000 0.0000 0.0000 24.5745 0.0000
# 6 0.0000 0.0000 0.0000 0.0000 0.0000 15.3070
#
#
#
# Elastic Compliance Matrix: (Units=1/GPa)
#
#
# Indices 1 2 3 4 5 6 
#
# 1 0.011942 -0.001892 -0.004356 0.000000 0.000000 0.000000
# 2 -0.001892 0.010705 -0.002586 0.000000 0.000000 0.000000
# 3 -0.004356 -0.002586 0.014730 0.000000 0.000000 0.000000
# 4 0.000000 0.000000 0.000000 0.052186 0.000000 0.000000
# 5 0.000000 0.000000 0.000000 0.000000 0.040693 0.000000
# 6 0.000000 0.000000 0.000000 0.000000 0.000000 0.065329
#
#
# Mechanical properties :
#
#
# Convention : Reuss Voigt Hill
#
# Bulk Modulus (GPa) = 50.73680 51.07858 50.90769
# Shear Modulus (GPa) = 22.74564 25.20674 23.97619
#
# Velocity S-wave (km/s) = 3.72666 3.92310 3.82614
# Velocity P-wave (km/s) = 7.03535 7.19086 7.11353
#
# Compressibility (1/GPa) = 0.01970956
#
# Stress axis : x y z
#
# Youngs Moduli (GPa) = 83.73896 93.41411 67.88709
#
# Poissons Ratio (x) = 0.17678 0.29569
# Poissons Ratio (y) = 0.15847 0.17554
# Poissons Ratio (z) = 0.36474 0.24154
#
# Static dielectric constant tensor:
#      x y z
#    x 3.182170 0.000000 0.000000 
#    y 0.000000 3.087700 0.000000 
#    z 0.000000 0.000000 3.075910 
# 
# 
# High freq. dielectric constant tensor:
#      x y z
#    x 1.622350 0.000000 0.000000 
#    y 0.000000 1.624490 0.000000 
#    z 0.000000 0.000000 1.611410 
# 
# From -- ./inp_files/47561.got.cif
#   From: 2010.06.25/outbox.cif.g09.slc.cpg/sg71_24_cif.got.tgz:47561.got - 2010.06.28 04:59:45.
