data_PCOD8287055
_publ_section_title
;
Structure prediction by ZEFSAII (Michael W. Deem and Ramdas Pophale) SiO2 
 PCOD8287055
Probable space group: I M M M
;
_chemical_formula_sum "Si O2"
_cell_formula_units_Z 80
_cell_length_a 12.544739
_cell_length_b 16.881553
_cell_length_c 23.026416
_cell_angle_alpha 90.000000
_cell_angle_beta 90.000000
_cell_angle_gamma 90.000000
_cell_volume 4876.411795
_symmetry_space_group_name_H-M "I M M M"
_symmetry_group_IT_number 71
_symmetry_cell_setting 'orthorhombic'
loop_
_space_group_symop_operation_xyz
x,y,z
-x,-y,z
x,-y,-z
-x,y,-z
-x,-y,-z
x,y,-z
-x,y,z
x,-y,z
1/2+x,1/2+y,1/2+z
1/2-x,1/2-y,1/2+z
1/2+x,1/2-y,1/2-z
1/2-x,1/2+y,1/2-z
1/2-x,1/2-y,1/2-z
1/2+x,1/2+y,1/2-z
1/2-x,1/2+y,1/2+z
1/2+x,1/2-y,1/2+z
loop_
_atom_site_type_symbol
_atom_site_label
_atom_site_fract_x
_atom_site_fract_y
_atom_site_fract_z
Si Si1 0.000000 0.412054 0.431130
Si Si2 0.801258 0.310278 0.432265
Si Si3 0.873757 0.000000 0.564796
Si Si4 0.126237 0.842156 0.629691
Si Si5 0.376620 0.407228 0.623022
Si Si6 0.874060 0.087171 0.252212
O O1 0.895488 0.366637 0.409162
O O2 0.000000 0.500000 0.403788
O O3 0.000000 0.417586 0.500000
O O4 0.814500 0.290442 0.500000
O O5 0.805822 0.229098 0.396629
O O6 0.689864 0.354653 0.421980
O O7 0.834993 0.078193 0.597936
O O8 0.825403 0.000000 0.500000
O O9 0.000000 0.000000 0.562696
O O10 0.158249 0.850619 0.697705
O O11 0.000000 0.827223 0.620767
O O12 0.500000 0.386319 0.613299
O O13 0.356355 0.500000 0.611213
O O14 0.338210 0.384073 0.688298
O O15 0.000000 0.077213 0.251897
O O16 0.825084 0.000000 0.265534
#
# Coordination Sequence:
#
# PCOD8287055 Si02
#       6
#     8  16   8  16  16  16
#     4   9  18  32  46  61  91 133 165 188 228 291
#     4  11  21  31  46  71 101 131 162 198 240 289
#     4   9  16  24  40  66  99 135 160 184 230 286
#     4  10  17  28  46  71 102 132 158 192 237 290
#     4   9  19  35  53  71  92 122 165 213 249 279
#     4   8  14  28  49  71  95 124 160 199 242 287
#
# _framework density 16.405505000000002
#
# number of rings (size 3 to 8) (size 9 to 14) (size 15 to 20)
#    0.000    2.600    2.000    2.400    0.000    3.200 
#    0.000    1.000    0.000    0.000    0.000    0.700 
#    0.000    2.400    0.000    0.000    0.000    0.000 
#
# Total GULP energy -495855.634360 kJ/mol
# GULP energy per Si atom -12396.390859 kJ/mol
# Density = 1.636817 g / cm^3
# Si number density = 16.405505 Si / 1000 Ang^3
#
#
#
# Elastic Constant Matrix: (Units=GPa)
#
#
# Indices 1 2 3 4 5 6 
#
# 1 53.9451 34.9178 15.0857 0.0000 0.0000 0.0000
# 2 34.9178 98.4668 22.3985 0.0000 0.0000 0.0000
# 3 15.0857 22.3985 46.3976 0.0000 0.0000 0.0000
# 4 0.0000 0.0000 0.0000 23.6982 0.0000 0.0000
# 5 0.0000 0.0000 0.0000 0.0000 18.3466 0.0000
# 6 0.0000 0.0000 0.0000 0.0000 0.0000 20.6832
#
#
#
# Elastic Compliance Matrix: (Units=1/GPa)
#
#
# Indices 1 2 3 4 5 6 
#
# 1 0.024797 -0.007818 -0.004288 0.000000 0.000000 0.000000
# 2 -0.007818 0.013873 -0.004155 0.000000 0.000000 0.000000
# 3 -0.004288 -0.004155 0.024953 0.000000 0.000000 0.000000
# 4 0.000000 0.000000 0.000000 0.042197 0.000000 0.000000
# 5 0.000000 0.000000 0.000000 0.000000 0.054506 0.000000
# 6 0.000000 0.000000 0.000000 0.000000 0.000000 0.048348
#
#
# Mechanical properties :
#
#
# Convention : Reuss Voigt Hill
#
# Bulk Modulus (GPa) = 32.15427 38.17926 35.16676
# Shear Modulus (GPa) = 19.87557 20.97279 20.42418
#
# Velocity S-wave (km/s) = 3.48446 3.57935 3.53223
# Velocity P-wave (km/s) = 5.98589 6.35650 6.17398
#
# Compressibility (1/GPa) = 0.03110007
#
# Stress axis : x y z
#
# Youngs Moduli (GPa) = 40.32750 72.08099 40.07503
#
# Poissons Ratio (x) = 0.56352 0.17186
# Poissons Ratio (y) = 0.31528 0.16653
# Poissons Ratio (z) = 0.17294 0.29953
#
# Static dielectric constant tensor:
#      x y z
#    x 2.657350 0.000000 0.000000 
#    y 0.000000 3.092350 0.000000 
#    z 0.000000 0.000000 3.294050 
# 
# 
# High freq. dielectric constant tensor:
#      x y z
#    x 1.580840 0.000000 0.000000 
#    y 0.000000 1.629770 0.000000 
#    z 0.000000 0.000000 1.634530 
# 
# From -- ./inp_files/27354.got.cif
#   From: 2010.06.25/outbox.cif.g09.slc.cpg/sg71_14_cif.got.tgz:27354.got - 2010.06.28 04:59:45.
