data_PCOD8287456
_publ_section_title
;
Structure prediction by ZEFSAII (Michael W. Deem and Ramdas Pophale) SiO2 
 PCOD8287456
Probable space group: I M M M
;
_chemical_formula_sum "Si O2"
_cell_formula_units_Z 104
_cell_length_a 28.280965
_cell_length_b 9.250277
_cell_length_c 24.212686
_cell_angle_alpha 90.000000
_cell_angle_beta 90.000000
_cell_angle_gamma 90.000000
_cell_volume 6334.202337
_symmetry_space_group_name_H-M "I M M M"
_symmetry_group_IT_number 71
_symmetry_cell_setting 'orthorhombic'
loop_
_space_group_symop_operation_xyz
x,y,z
-x,-y,z
x,-y,-z
-x,y,-z
-x,-y,-z
x,y,-z
-x,y,z
x,-y,z
1/2+x,1/2+y,1/2+z
1/2-x,1/2-y,1/2+z
1/2+x,1/2-y,1/2-z
1/2-x,1/2+y,1/2-z
1/2-x,1/2-y,1/2-z
1/2+x,1/2+y,1/2-z
1/2-x,1/2+y,1/2+z
1/2+x,1/2-y,1/2+z
loop_
_atom_site_type_symbol
_atom_site_label
_atom_site_fract_x
_atom_site_fract_y
_atom_site_fract_z
Si Si1 0.728968 0.160181 0.565621
Si Si2 0.054830 0.830608 0.265623
Si Si3 0.000000 0.671430 0.438521
Si Si4 0.554408 0.168065 0.654488
Si Si5 0.589523 0.171228 0.869006
Si Si6 0.181130 0.330539 0.436976
Si Si7 0.874555 0.672101 0.061376
O O1 0.730294 0.153666 0.500000
O O2 0.771305 0.260040 0.587869
O O3 0.677410 0.223293 0.582724
O O4 0.736377 0.000000 0.590493
O O5 0.068788 0.761838 0.207242
O O6 0.087337 0.754264 0.311183
O O7 0.000000 0.798849 0.279054
O O8 0.065792 0.000000 0.264052
O O9 0.953584 0.725635 0.406903
O O10 0.000000 0.500000 0.442403
O O11 0.000000 0.738420 0.500000
O O12 0.500000 0.192489 0.638133
O O13 0.585534 0.226696 0.603510
O O14 0.564527 0.000000 0.667467
O O15 0.637383 0.218164 0.899482
O O16 0.586896 0.000000 0.858348
O O17 0.171289 0.280643 0.500000
O O18 0.188533 0.500000 0.434444
O O19 0.874149 0.500000 0.058142
O O20 0.885503 0.734547 0.000000
#
# Coordination Sequence:
#
# PCOD8287456 Si02
#       7
#    16  16   8  16  16  16  16
#     4   8  14  26  44  64  89 123 155 179 212 265
#     4  10  20  33  47  63  88 121 157 193 227 265
#     4   9  16  26  43  67  91 115 144 181 228 277
#     4   9  17  29  48  72  95 120 151 186 223 266
#     4  10  18  29  47  67  88 117 153 191 227 271
#     4   9  17  28  43  67  95 118 146 188 232 269
#     4   8  14  26  46  73 100 122 147 181 221 266
#
# _framework density 16.418800000000001
#
# number of rings (size 3 to 8) (size 9 to 14) (size 15 to 20)
#    0.000    3.000    0.769    1.846    0.000    3.385 
#    0.000    2.308    0.000    4.154    0.000    2.154 
#    0.000    0.000    0.000    0.000    0.000    0.000 
#
# Total GULP energy -644639.125590 kJ/mol
# GULP energy per Si atom -12396.906261 kJ/mol
# Density = 1.638143 g / cm^3
# Si number density = 16.418800 Si / 1000 Ang^3
#
#
#
# Elastic Constant Matrix: (Units=GPa)
#
#
# Indices 1 2 3 4 5 6 
#
# 1 131.9814 40.0931 77.8677 0.0000 0.0000 0.0000
# 2 40.0931 41.5384 40.2392 0.0000 0.0000 0.0000
# 3 77.8677 40.2392 109.7673 0.0000 0.0000 0.0000
# 4 0.0000 0.0000 0.0000 12.9370 0.0000 0.0000
# 5 0.0000 0.0000 0.0000 0.0000 13.2971 0.0000
# 6 0.0000 0.0000 0.0000 0.0000 0.0000 21.8479
#
#
#
# Elastic Compliance Matrix: (Units=1/GPa)
#
#
# Indices 1 2 3 4 5 6 
#
# 1 0.013934 -0.006007 -0.007683 0.000000 0.000000 0.000000
# 2 -0.006007 0.039921 -0.010373 0.000000 0.000000 0.000000
# 3 -0.007683 -0.010373 0.018363 0.000000 0.000000 0.000000
# 4 0.000000 0.000000 0.000000 0.077298 0.000000 0.000000
# 5 0.000000 0.000000 0.000000 0.000000 0.075204 0.000000
# 6 0.000000 0.000000 0.000000 0.000000 0.000000 0.045771
#
#
# Mechanical properties :
#
#
# Convention : Reuss Voigt Hill
#
# Bulk Modulus (GPa) = 41.50716 66.63189 54.06953
# Shear Modulus (GPa) = 15.30700 17.95554 16.63127
#
# Velocity S-wave (km/s) = 3.05665 3.31054 3.18613
# Velocity P-wave (km/s) = 6.14757 7.43530 6.82189
#
# Compressibility (1/GPa) = 0.02409223
#
# Stress axis : x y z
#
# Youngs Moduli (GPa) = 71.76471 25.04961 54.45760
#
# Poissons Ratio (x) = 0.15047 0.41839
# Poissons Ratio (y) = 0.43109 0.56489
# Poissons Ratio (z) = 0.55136 0.25984
#
# Static dielectric constant tensor:
#      x y z
#    x 3.287530 0.000000 0.000000 
#    y 0.000000 2.886310 0.000000 
#    z 0.000000 0.000000 3.043350 
# 
# 
# High freq. dielectric constant tensor:
#      x y z
#    x 1.632180 0.000000 0.000000 
#    y 0.000000 1.606060 0.000000 
#    z 0.000000 0.000000 1.613070 
# 
# From -- ./inp_files/15533.got.cif
#   From: 2010.06.25/outbox.cif.g09.slc.cpg/sg71_8_cif.got.tgz:15533.got - 2010.06.28 04:59:45.
