data_PCOD8287192
_publ_section_title
;
Structure prediction by ZEFSAII (Michael W. Deem and Ramdas Pophale) SiO2 
 PCOD8287192
Probable space group: I M M M
;
_chemical_formula_sum "Si O2"
_cell_formula_units_Z 112
_cell_length_a 13.200483
_cell_length_b 18.581918
_cell_length_c 28.694848
_cell_angle_alpha 90.000000
_cell_angle_beta 90.000000
_cell_angle_gamma 90.000000
_cell_volume 7038.567664
_symmetry_space_group_name_H-M "I M M M"
_symmetry_group_IT_number 71
_symmetry_cell_setting 'orthorhombic'
loop_
_space_group_symop_operation_xyz
x,y,z
-x,-y,z
x,-y,-z
-x,y,-z
-x,-y,-z
x,y,-z
-x,y,z
x,-y,z
1/2+x,1/2+y,1/2+z
1/2-x,1/2-y,1/2+z
1/2+x,1/2-y,1/2-z
1/2-x,1/2+y,1/2-z
1/2-x,1/2-y,1/2-z
1/2+x,1/2+y,1/2-z
1/2-x,1/2+y,1/2+z
1/2+x,1/2-y,1/2+z
loop_
_atom_site_type_symbol
_atom_site_label
_atom_site_fract_x
_atom_site_fract_y
_atom_site_fract_z
Si Si1 0.881008 0.844168 0.947126
Si Si2 0.112004 0.418690 0.305901
Si Si3 0.617645 0.083231 0.366026
Si Si4 0.120205 0.318196 0.948879
Si Si5 0.116455 0.814289 0.220047
Si Si6 0.809735 0.917356 0.857928
Si Si7 0.802092 0.659504 0.779767
O O1 0.844997 0.762733 0.936820
O O2 0.824692 0.896918 0.911675
O O3 0.000000 0.851728 0.938975
O O4 0.852703 0.866290 0.000000
O O5 0.123312 0.500000 0.286446
O O6 0.191197 0.404851 0.347242
O O7 0.129639 0.364336 0.263644
O O8 0.000000 0.405243 0.326393
O O9 0.500000 0.102016 0.355873
O O10 0.661228 0.126940 0.410194
O O11 0.685326 0.103613 0.321668
O O12 0.631902 0.000000 0.377532
O O13 0.000000 0.320980 0.950394
O O14 0.162394 0.340480 0.000000
O O15 0.123020 0.868778 0.176593
O O16 0.159049 0.737231 0.203131
O O17 0.184144 0.840275 0.264044
O O18 0.000000 0.809191 0.236180
O O19 0.842035 0.000000 0.850132
#
# Coordination Sequence:
#
# PCOD8287192 Si02
#       7
#    16  16  16  16  16  16  16
#     4   9  17  29  45  63  84 112 143 177 218 260
#     4   9  17  30  47  64  85 114 144 175 213 256
#     4  10  18  26  41  65  91 118 144 174 213 254
#     4   8  15  28  43  60  85 115 144 172 206 253
#     4  10  20  32  46  63  85 116 148 177 214 256
#     4  10  20  31  44  64  87 112 144 180 217 258
#     4  10  19  30  45  65  88 113 145 182 212 247
#
# _framework density 15.912329
#
# number of rings (size 3 to 8) (size 9 to 14) (size 15 to 20)
#    0.000    2.571    0.000    3.857    0.000    4.571 
#    0.000    2.143    0.000    0.429    0.000    2.000 
#    0.000    1.714    0.000    1.286    0.000    0.143 
#
# Total GULP energy -694325.403343 kJ/mol
# GULP energy per Si atom -12398.667917 kJ/mol
# Density = 1.587611 g / cm^3
# Si number density = 15.912329 Si / 1000 Ang^3
#
#
#
# Elastic Constant Matrix: (Units=GPa)
#
#
# Indices 1 2 3 4 5 6 
#
# 1 76.0415 25.6235 37.5535 0.0000 0.0000 0.0000
# 2 25.6235 83.3884 53.2536 0.0000 0.0000 0.0000
# 3 37.5535 53.2536 106.7415 0.0000 0.0000 0.0000
# 4 0.0000 0.0000 0.0000 26.3140 0.0000 0.0000
# 5 0.0000 0.0000 0.0000 0.0000 18.3102 0.0000
# 6 0.0000 0.0000 0.0000 0.0000 0.0000 18.2069
#
#
#
# Elastic Compliance Matrix: (Units=1/GPa)
#
#
# Indices 1 2 3 4 5 6 
#
# 1 0.016130 -0.001955 -0.004699 0.000000 0.000000 0.000000
# 2 -0.001955 0.017836 -0.008211 0.000000 0.000000 0.000000
# 3 -0.004699 -0.008211 0.015118 0.000000 0.000000 0.000000
# 4 0.000000 0.000000 0.000000 0.038003 0.000000 0.000000
# 5 0.000000 0.000000 0.000000 0.000000 0.054614 0.000000
# 6 0.000000 0.000000 0.000000 0.000000 0.000000 0.054924
#
#
# Mechanical properties :
#
#
# Convention : Reuss Voigt Hill
#
# Bulk Modulus (GPa) = 51.66901 55.44808 53.55854
# Shear Modulus (GPa) = 21.47689 22.54895 22.01292
#
# Velocity S-wave (km/s) = 3.67781 3.76849 3.72343
# Velocity P-wave (km/s) = 7.11172 7.33873 7.22612
#
# Compressibility (1/GPa) = 0.01935396
#
# Stress axis : x y z
#
# Youngs Moduli (GPa) = 61.99454 56.06487 66.14581
#
# Poissons Ratio (x) = 0.10963 0.31085
# Poissons Ratio (y) = 0.12122 0.54311
# Poissons Ratio (z) = 0.29134 0.46033
#
# Static dielectric constant tensor:
#      x y z
#    x 2.816860 0.000000 0.000000 
#    y 0.000000 3.146600 0.000000 
#    z 0.000000 0.000000 3.117530 
# 
# 
# High freq. dielectric constant tensor:
#      x y z
#    x 1.574950 0.000000 0.000000 
#    y 0.000000 1.622610 0.000000 
#    z 0.000000 0.000000 1.604130 
# 
# From -- ./inp_files/64795.got.cif
#   From: 2010.06.25/outbox.cif.g09.slc.cpg/sg71_33_cif.got.tgz:64795.got - 2010.06.28 04:59:45.
