data_PCOD8287145
_publ_section_title
;
Structure prediction by ZEFSAII (Michael W. Deem and Ramdas Pophale) SiO2 
 PCOD8287145
Probable space group: I M M M
;
_chemical_formula_sum "Si O2"
_cell_formula_units_Z 96
_cell_length_a 22.335163
_cell_length_b 16.054275
_cell_length_c 15.316122
_cell_angle_alpha 90.000000
_cell_angle_beta 90.000000
_cell_angle_gamma 90.000000
_cell_volume 5491.976133
_symmetry_space_group_name_H-M "I M M M"
_symmetry_group_IT_number 71
_symmetry_cell_setting 'orthorhombic'
loop_
_space_group_symop_operation_xyz
x,y,z
-x,-y,z
x,-y,-z
-x,y,-z
-x,-y,-z
x,y,-z
-x,y,z
x,-y,z
1/2+x,1/2+y,1/2+z
1/2-x,1/2-y,1/2+z
1/2+x,1/2-y,1/2-z
1/2-x,1/2+y,1/2-z
1/2-x,1/2-y,1/2-z
1/2+x,1/2+y,1/2-z
1/2-x,1/2+y,1/2+z
1/2+x,1/2-y,1/2+z
loop_
_atom_site_type_symbol
_atom_site_label
_atom_site_fract_x
_atom_site_fract_y
_atom_site_fract_z
Si Si1 0.276317 0.182240 0.094832
Si Si2 0.777422 0.401977 0.770504
Si Si3 0.840502 0.284666 0.099575
Si Si4 0.397856 0.500000 0.905779
Si Si5 0.158713 0.162913 0.348024
Si Si6 0.565575 0.500000 0.712932
Si Si7 0.428150 0.680810 0.700493
O O1 0.296565 0.119523 0.171159
O O2 0.208571 0.212653 0.110164
O O3 0.319145 0.262947 0.090598
O O4 0.281620 0.137771 0.000000
O O5 0.777187 0.500000 0.785056
O O6 0.824629 0.362781 0.838759
O O7 0.711915 0.363091 0.782571
O O8 0.904192 0.244655 0.127889
O O9 0.845560 0.316475 0.000000
O O10 0.357016 0.417331 0.905819
O O11 0.438840 0.500000 0.819541
O O12 0.432552 0.500000 0.000000
O O13 0.102203 0.199686 0.293911
O O14 0.500000 0.500000 0.673962
O O15 0.594904 0.414374 0.678385
O O16 0.500000 0.687112 0.707907
#
# Coordination Sequence:
#
# PCOD8287145 Si02
#       7
#    16  16  16   8  16   8  16
#     4  10  19  32  53  76 104 136 169 213 269 319
#     4  11  20  34  55  76 106 139 169 220 275 324
#     4  10  20  35  53  78 108 139 177 222 265 315
#     4  10  18  25  44  73 101 136 173 207 253 306
#     4  10  17  33  48  73 110 138 172 212 259 314
#     4   8  18  31  47  70 100 141 183 217 253 298
#     4  10  18  32  54  76 105 148 184 213 256 312
#
# _framework density 17.480046999999999
#
# number of rings (size 3 to 8) (size 9 to 14) (size 15 to 20)
#    0.000    2.000    4.167    1.500    0.000    1.833 
#    0.000    0.417    0.000    3.500    0.000    1.167 
#    0.000    1.333    0.000    0.000    0.000    0.000 
#
# Total GULP energy -594734.041321 kJ/mol
# GULP energy per Si atom -12390.292528 kJ/mol
# Density = 1.744026 g / cm^3
# Si number density = 17.480047 Si / 1000 Ang^3
#
#
#
# Elastic Constant Matrix: (Units=GPa)
#
#
# Indices 1 2 3 4 5 6 
#
# 1 81.0513 29.0460 25.2750 0.0000 0.0000 0.0000
# 2 29.0460 43.9370 42.5822 0.0000 0.0000 0.0000
# 3 25.2750 42.5822 122.9314 0.0000 0.0000 0.0000
# 4 0.0000 0.0000 0.0000 10.9500 0.0000 0.0000
# 5 0.0000 0.0000 0.0000 0.0000 11.2727 0.0000
# 6 0.0000 0.0000 0.0000 0.0000 0.0000 18.6721
#
#
#
# Elastic Compliance Matrix: (Units=1/GPa)
#
#
# Indices 1 2 3 4 5 6 
#
# 1 0.016195 -0.011259 0.000570 0.000000 0.000000 0.000000
# 2 -0.011259 0.042089 -0.012264 0.000000 0.000000 0.000000
# 3 0.000570 -0.012264 0.012266 0.000000 0.000000 0.000000
# 4 0.000000 0.000000 0.000000 0.091325 0.000000 0.000000
# 5 0.000000 0.000000 0.000000 0.000000 0.088710 0.000000
# 6 0.000000 0.000000 0.000000 0.000000 0.000000 0.053556
#
#
# Mechanical properties :
#
#
# Convention : Reuss Voigt Hill
#
# Bulk Modulus (GPa) = 40.57839 49.08068 44.82954
# Shear Modulus (GPa) = 13.95633 18.24672 16.10152
#
# Velocity S-wave (km/s) = 2.82869 3.23439 3.03832
# Velocity P-wave (km/s) = 5.82522 6.48748 6.16525
#
# Compressibility (1/GPa) = 0.02464366
#
# Stress axis : x y z
#
# Youngs Moduli (GPa) = 61.74817 23.75910 81.52855
#
# Poissons Ratio (x) = 0.26750 -0.04649
# Poissons Ratio (y) = 0.69521 0.99990
# Poissons Ratio (z) = -0.03521 0.29139
#
# Static dielectric constant tensor:
#      x y z
#    x 3.066640 0.000000 0.000000 
#    y 0.000000 3.186160 0.000000 
#    z 0.000000 0.000000 3.194810 
# 
# 
# High freq. dielectric constant tensor:
#      x y z
#    x 1.647930 0.000000 0.000000 
#    y 0.000000 1.658410 0.000000 
#    z 0.000000 0.000000 1.674840 
# 
# From -- ./inp_files/34782.got.cif
#   From: 2010.06.25/outbox.cif.g09.slc.cpg/sg71_18_cif.got.tgz:34782.got - 2010.06.28 04:59:45.
