data_PCOD8287993
_publ_section_title
;
Structure prediction by ZEFSAII (Michael W. Deem and Ramdas Pophale) SiO2 
 PCOD8287993
Probable space group: I M M M
;
_chemical_formula_sum "Si O2"
_cell_formula_units_Z 80
_cell_length_a 14.009837
_cell_length_b 27.025639
_cell_length_c 11.969399
_cell_angle_alpha 90.000000
_cell_angle_beta 90.000000
_cell_angle_gamma 90.000000
_cell_volume 4531.911269
_symmetry_space_group_name_H-M "I M M M"
_symmetry_group_IT_number 71
_symmetry_cell_setting 'orthorhombic'
loop_
_space_group_symop_operation_xyz
x,y,z
-x,-y,z
x,-y,-z
-x,y,-z
-x,-y,-z
x,y,-z
-x,y,z
x,-y,z
1/2+x,1/2+y,1/2+z
1/2-x,1/2-y,1/2+z
1/2+x,1/2-y,1/2-z
1/2-x,1/2+y,1/2-z
1/2-x,1/2-y,1/2-z
1/2+x,1/2+y,1/2-z
1/2-x,1/2+y,1/2+z
1/2+x,1/2-y,1/2+z
loop_
_atom_site_type_symbol
_atom_site_label
_atom_site_fract_x
_atom_site_fract_y
_atom_site_fract_z
Si Si1 0.111591 0.732146 0.372994
Si Si2 0.221594 0.365134 0.631855
Si Si3 0.801554 0.443108 0.000000
Si Si4 0.108257 0.834951 0.275374
Si Si5 0.894235 0.104590 0.500000
Si Si6 0.388118 0.057997 0.728787
O O1 0.142398 0.744504 0.500000
O O2 0.164545 0.683432 0.329060
O O3 0.138685 0.777773 0.292532
O O4 0.000000 0.721033 0.367583
O O5 0.231895 0.368974 0.500000
O O6 0.326785 0.362148 0.684432
O O7 0.166066 0.413759 0.672480
O O8 0.849366 0.420050 0.110942
O O9 0.828819 0.500000 0.000000
O O10 0.687139 0.437098 0.000000
O O11 0.119033 0.861080 0.393682
O O12 0.000000 0.838478 0.231315
O O13 0.000000 0.079697 0.500000
O O14 0.500000 0.068422 0.737487
O O15 0.364675 0.000000 0.741508
#
# Coordination Sequence:
#
# PCOD8287993 Si02
#       6
#    16  16   8  16   8  16
#     4   9  17  31  52  78 105 135 175 220 263 311
#     4  11  22  34  52  78 107 144 182 216 256 309
#     4  10  19  35  58  83 109 134 169 222 275 316
#     4  10  19  34  55  77 105 140 177 217 264 315
#     4  10  18  32  57  84 104 135 176 217 267 313
#     4  10  21  37  57  80 106 137 173 217 269 320
#
# _framework density 17.652595999999999
#
# number of rings (size 3 to 8) (size 9 to 14) (size 15 to 20)
#    0.000    2.000    3.000    1.500    0.000    3.400 
#    0.000    1.000    0.000    0.600    0.000    1.400 
#    0.000    0.000    0.000    0.000    0.000    0.000 
#
# Total GULP energy -496015.947545 kJ/mol
# GULP energy per Si atom -12400.398689 kJ/mol
# Density = 1.761242 g / cm^3
# Si number density = 17.652596 Si / 1000 Ang^3
#
#
#
# Elastic Constant Matrix: (Units=GPa)
#
#
# Indices 1 2 3 4 5 6 
#
# 1 110.2970 51.1994 55.1250 0.0000 0.0002 0.0000
# 2 51.1994 60.9326 39.0103 -0.0001 0.0008 0.0000
# 3 55.1250 39.0103 99.8202 -0.0001 0.0056 0.0001
# 4 0.0000 -0.0001 -0.0001 23.5636 0.0030 0.0000
# 5 0.0002 0.0008 0.0056 0.0030 -167.0662 -0.0001
# 6 0.0000 0.0000 0.0001 0.0000 -0.0001 31.2706
#
#
#
# Elastic Compliance Matrix: (Units=1/GPa)
#
#
# Indices 1 2 3 4 5 6 
#
# 1 0.016500 -0.010711 -0.004926 0.000000 0.000000 0.000000
# 2 -0.010711 0.028840 -0.005356 0.000000 0.000000 0.000000
# 3 -0.004926 -0.005356 0.014832 0.000000 0.000000 0.000000
# 4 0.000000 0.000000 0.000000 0.042438 0.000001 0.000000
# 5 0.000000 0.000000 0.000000 0.000001 -0.005986 0.000000
# 6 0.000000 0.000000 0.000000 0.000000 0.000000 0.031979
#
#
# Mechanical properties :
#
#
# Convention : Reuss Voigt Hill
#
# Bulk Modulus (GPa) = 54.98674 62.41324 58.69999
# Shear Modulus (GPa) = 28.30407 -14.06539 7.11934
#
# Velocity S-wave (km/s) = 4.00858 -2.82581 2.01042
# Velocity P-wave (km/s) = 7.25548 4.97858 6.22207
#
# Compressibility (1/GPa) = 0.01818620
#
# Stress axis : x y z
#
# Youngs Moduli (GPa) = 60.60434 34.67347 67.42263
#
# Poissons Ratio (x) = 0.37138 0.33215
# Poissons Ratio (y) = 0.64912 0.36112
# Poissons Ratio (z) = 0.29856 0.18572
#
# Static dielectric constant tensor:
#      x y z
#    x 3.352730 0.000000 0.000000 
#    y 0.000000 3.190440 0.000000 
#    z 0.000000 0.000000 3.183360 
# 
# 
# High freq. dielectric constant tensor:
#      x y z
#    x 1.689370 0.000000 0.000000 
#    y 0.000000 1.673140 0.000000 
#    z 0.000000 0.000000 1.674060 
# 
# From -- ./inp_files/20162.got.cif
#   From: 2010.06.25/outbox.cif.g09.slc.cpg/sg71_11_cif.got.tgz:20162.got - 2010.06.28 04:59:45.
