data_PCOD8287418
_publ_section_title
;
Structure prediction by ZEFSAII (Michael W. Deem and Ramdas Pophale) SiO2 
 PCOD8287418
Probable space group: I M M M
;
_chemical_formula_sum "Si O2"
_cell_formula_units_Z 128
_cell_length_a 18.194117
_cell_length_b 19.484419
_cell_length_c 21.487438
_cell_angle_alpha 90.000000
_cell_angle_beta 90.000000
_cell_angle_gamma 90.000000
_cell_volume 7617.335426
_symmetry_space_group_name_H-M "I M M M"
_symmetry_group_IT_number 71
_symmetry_cell_setting 'orthorhombic'
loop_
_space_group_symop_operation_xyz
x,y,z
-x,-y,z
x,-y,-z
-x,y,-z
-x,-y,-z
x,y,-z
-x,y,z
x,-y,z
1/2+x,1/2+y,1/2+z
1/2-x,1/2-y,1/2+z
1/2+x,1/2-y,1/2-z
1/2-x,1/2+y,1/2-z
1/2-x,1/2-y,1/2-z
1/2+x,1/2+y,1/2-z
1/2-x,1/2+y,1/2+z
1/2+x,1/2-y,1/2+z
loop_
_atom_site_type_symbol
_atom_site_label
_atom_site_fract_x
_atom_site_fract_y
_atom_site_fract_z
Si Si1 0.308122 0.921899 0.681506
Si Si2 0.083777 0.814251 0.432685
Si Si3 0.915904 0.076533 0.873606
Si Si4 0.584783 0.293899 0.799577
Si Si5 0.086050 0.783786 0.067800
Si Si6 0.662477 0.423074 0.753350
Si Si7 0.209173 0.077874 0.568786
Si Si8 0.587522 0.200643 0.312595
O O1 0.250439 0.914627 0.738546
O O2 0.269079 0.896021 0.618151
O O3 0.378826 0.874856 0.692527
O O4 0.336508 0.000000 0.675440
O O5 0.098248 0.776232 0.500000
O O6 0.097425 0.766527 0.371062
O O7 0.134254 0.880455 0.427711
O O8 0.000000 0.840456 0.430325
O O9 0.897870 0.134888 0.923993
O O10 0.859613 0.089233 0.817690
O O11 0.000000 0.085260 0.849275
O O12 0.905107 0.000000 0.902290
O O13 0.500000 0.304334 0.783664
O O14 0.622589 0.368163 0.796842
O O15 0.616885 0.241937 0.748095
O O16 0.117720 0.739261 0.125266
O O17 0.000000 0.770364 0.066202
O O18 0.119747 0.762511 0.000000
O O19 0.639053 0.500000 0.774399
O O20 0.244609 0.083918 0.500000
O O21 0.188148 0.000000 0.585590
O O22 0.500000 0.193450 0.312806
#
# Coordination Sequence:
#
# PCOD8287418 Si02
#       8
#    16  16  16  16  16  16  16  16
#     4  10  21  35  50  69  90 117 157 203 248 288
#     4   9  17  28  43  66  98 133 162 186 214 260
#     4   9  16  27  44  67  99 135 164 189 221 269
#     4  10  18  30  48  71  99 129 158 188 226 274
#     4   9  17  30  47  68  95 124 158 201 241 276
#     4  10  18  29  45  70  99 126 155 186 225 275
#     4   9  17  30  45  63  92 126 158 193 232 273
#     4  10  21  36  52  69  90 120 158 200 249 295
#
# _framework density 16.803777
#
# number of rings (size 3 to 8) (size 9 to 14) (size 15 to 20)
#    0.000    2.500    2.500    0.375    0.000    2.500 
#    0.000    3.750    0.000    0.000    0.000    3.500 
#    0.000    0.500    0.000    4.875    0.000    0.000 
#
# Total GULP energy -792871.103028 kJ/mol
# GULP energy per Si atom -12388.610985 kJ/mol
# Density = 1.676553 g / cm^3
# Si number density = 16.803777 Si / 1000 Ang^3
#
#
#
# Elastic Constant Matrix: (Units=GPa)
#
#
# Indices 1 2 3 4 5 6 
#
# 1 36.9704 30.2158 29.7632 0.0000 0.0000 0.0000
# 2 30.2158 78.1994 46.1808 0.0000 0.0000 0.0000
# 3 29.7632 46.1808 133.2777 0.0000 0.0000 0.0000
# 4 0.0000 0.0000 0.0000 13.2745 0.0000 0.0000
# 5 0.0000 0.0000 0.0000 0.0000 12.2959 0.0000
# 6 0.0000 0.0000 0.0000 0.0000 0.0000 22.6043
#
#
#
# Elastic Compliance Matrix: (Units=1/GPa)
#
#
# Indices 1 2 3 4 5 6 
#
# 1 0.041745 -0.013358 -0.004694 0.000000 0.000000 0.000000
# 2 -0.013358 0.020352 -0.004069 0.000000 0.000000 0.000000
# 3 -0.004694 -0.004069 0.009961 0.000000 0.000000 0.000000
# 4 0.000000 0.000000 0.000000 0.075333 0.000000 0.000000
# 5 0.000000 0.000000 0.000000 0.000000 0.081328 0.000000
# 6 0.000000 0.000000 0.000000 0.000000 0.000000 0.044239
#
#
# Mechanical properties :
#
#
# Convention : Reuss Voigt Hill
#
# Bulk Modulus (GPa) = 35.94954 51.19633 43.57294
# Shear Modulus (GPa) = 15.31523 19.12078 17.21800
#
# Velocity S-wave (km/s) = 3.02224 3.37692 3.20449
# Velocity P-wave (km/s) = 5.79817 6.76299 6.29908
#
# Compressibility (1/GPa) = 0.02781676
#
# Stress axis : x y z
#
# Youngs Moduli (GPa) = 23.95497 49.13458 100.38918
#
# Poissons Ratio (x) = 0.65635 0.47120
# Poissons Ratio (y) = 0.31999 0.40848
# Poissons Ratio (z) = 0.11244 0.19993
#
# Static dielectric constant tensor:
#      x y z
#    x 2.817460 0.000000 0.000000 
#    y 0.000000 2.949970 0.000000 
#    z 0.000000 0.000000 3.622830 
# 
# 
# High freq. dielectric constant tensor:
#      x y z
#    x 1.612890 0.000000 0.000000 
#    y 0.000000 1.620870 0.000000 
#    z 0.000000 0.000000 1.661000 
# 
# From -- ./inp_files/54457.got.cif
#   From: 2010.06.25/outbox.cif.g09.slc.cpg/sg71_28_cif.got.tgz:54457.got - 2010.06.28 04:59:45.
