data_PCOD8287872
_publ_section_title
;
Structure prediction by ZEFSAII (Michael W. Deem and Ramdas Pophale) SiO2 
 PCOD8287872
Probable space group: I M M M
;
_chemical_formula_sum "Si O2"
_cell_formula_units_Z 64
_cell_length_a 8.321168
_cell_length_b 24.878084
_cell_length_c 15.143047
_cell_angle_alpha 90.000000
_cell_angle_beta 90.000000
_cell_angle_gamma 90.000000
_cell_volume 3134.833581
_symmetry_space_group_name_H-M "I M M M"
_symmetry_group_IT_number 71
_symmetry_cell_setting 'orthorhombic'
loop_
_space_group_symop_operation_xyz
x,y,z
-x,-y,z
x,-y,-z
-x,y,-z
-x,-y,-z
x,y,-z
-x,y,z
x,-y,z
1/2+x,1/2+y,1/2+z
1/2-x,1/2-y,1/2+z
1/2+x,1/2-y,1/2-z
1/2-x,1/2+y,1/2-z
1/2-x,1/2-y,1/2-z
1/2+x,1/2+y,1/2-z
1/2-x,1/2+y,1/2+z
1/2+x,1/2-y,1/2+z
loop_
_atom_site_type_symbol
_atom_site_label
_atom_site_fract_x
_atom_site_fract_y
_atom_site_fract_z
Si Si1 0.308159 0.884968 0.349450
Si Si2 0.683032 0.000000 0.645703
Si Si3 0.691478 0.807533 0.500000
Si Si4 0.313990 0.500000 0.334498
Si Si5 0.190274 0.186132 0.000000
Si Si6 0.689397 0.889811 0.148828
O O1 0.500000 0.886847 0.351744
O O2 0.242109 0.837916 0.412536
O O3 0.251464 0.875820 0.248517
O O4 0.240133 0.943097 0.386052
O O5 0.500000 0.000000 0.615193
O O6 0.694008 0.000000 0.751587
O O7 0.500000 0.808508 0.500000
O O8 0.756761 0.747081 0.500000
O O9 0.500000 0.500000 0.306750
O O10 0.272412 0.554980 0.387000
O O11 0.255767 0.158841 0.087958
O O12 0.000000 0.184716 0.000000
O O13 0.500000 0.896804 0.142897
#
# Coordination Sequence:
#
# PCOD8287872 Si02
#       6
#    16   8   8   8   8  16
#     4   8  15  29  51  78 107 139 172 212 261 309
#     4   8  14  27  49  79 111 140 173 207 250 311
#     4   9  18  32  50  77 110 138 175 225 264 299
#     4  10  18  31  54  83 110 134 166 209 261 317
#     4  11  23  36  51  75 104 138 182 225 264 307
#     4  10  20  36  56  78 106 139 174 213 260 313
#
# _framework density 20.415755999999998
#
# number of rings (size 3 to 8) (size 9 to 14) (size 15 to 20)
#    0.000    2.750    0.000    3.750    0.000    2.000 
#    0.000    5.000    0.000   13.500    0.000   14.000 
#    0.000    0.000    0.000    0.000    0.000    0.000 
#
# Total GULP energy -396460.568484 kJ/mol
# GULP energy per Si atom -12389.392765 kJ/mol
# Density = 2.036929 g / cm^3
# Si number density = 20.415756 Si / 1000 Ang^3
#
#
#
# Elastic Constant Matrix: (Units=GPa)
#
#
# Indices 1 2 3 4 5 6 
#
# 1 47.8519 27.0646 19.8784 0.0000 0.0000 0.0000
# 2 27.0646 222.6842 95.6513 0.0001 0.0000 0.0000
# 3 19.8784 95.6513 119.5736 0.0000 -0.0001 0.0000
# 4 0.0000 0.0001 0.0000 38.0298 -0.0001 0.0000
# 5 0.0000 0.0000 -0.0001 -0.0001 14.0644 -0.0002
# 6 0.0000 0.0000 0.0000 0.0000 -0.0002 21.1751
#
#
#
# Elastic Compliance Matrix: (Units=1/GPa)
#
#
# Indices 1 2 3 4 5 6 
#
# 1 0.022886 -0.001748 -0.002407 0.000000 0.000000 0.000000
# 2 -0.001748 0.006975 -0.005289 0.000000 0.000000 0.000000
# 3 -0.002407 -0.005289 0.012994 0.000000 0.000000 0.000000
# 4 0.000000 0.000000 0.000000 0.026295 0.000000 0.000000
# 5 0.000000 0.000000 0.000000 0.000000 0.071101 0.000001
# 6 0.000000 0.000000 0.000000 0.000000 0.000001 0.047225
#
#
# Mechanical properties :
#
#
# Convention : Reuss Voigt Hill
#
# Bulk Modulus (GPa) = 41.72167 75.03315 58.37741
# Shear Modulus (GPa) = 23.32605 31.15488 27.24046
#
# Velocity S-wave (km/s) = 3.38383 3.91067 3.65675
# Velocity P-wave (km/s) = 5.97892 7.56462 6.81803
#
# Compressibility (1/GPa) = 0.02396836
#
# Stress axis : x y z
#
# Youngs Moduli (GPa) = 43.69466 143.37179 76.95920
#
# Poissons Ratio (x) = 0.25059 0.18520
# Poissons Ratio (y) = 0.07637 0.40703
# Poissons Ratio (z) = 0.10515 0.75828
#
# Static dielectric constant tensor:
#      x y z
#    x 3.248960 0.000000 0.000000 
#    y 0.000000 4.212790 0.000000 
#    z 0.000000 0.000000 3.385170 
# 
# 
# High freq. dielectric constant tensor:
#      x y z
#    x 1.757350 0.000000 0.000000 
#    y 0.000000 1.811310 0.000000 
#    z 0.000000 0.000000 1.782410 
# 
# From -- ./inp_files/7575.got.cif
#   From: 2010.06.25/outbox.cif.g09.slc.cpg/sg71_4_cif.got.tgz:7575.got - 2010.06.28 04:59:45.
