data_PCOD8287601
_publ_section_title
;
Structure prediction by ZEFSAII (Michael W. Deem and Ramdas Pophale) SiO2 
 PCOD8287601
Probable space group: I M M M
;
_chemical_formula_sum "Si O2"
_cell_formula_units_Z 120
_cell_length_a 11.899486
_cell_length_b 21.121643
_cell_length_c 30.304166
_cell_angle_alpha 90.000000
_cell_angle_beta 90.000000
_cell_angle_gamma 90.000000
_cell_volume 7616.548932
_symmetry_space_group_name_H-M "I M M M"
_symmetry_group_IT_number 71
_symmetry_cell_setting 'orthorhombic'
loop_
_space_group_symop_operation_xyz
x,y,z
-x,-y,z
x,-y,-z
-x,y,-z
-x,-y,-z
x,y,-z
-x,y,z
x,-y,z
1/2+x,1/2+y,1/2+z
1/2-x,1/2-y,1/2+z
1/2+x,1/2-y,1/2-z
1/2-x,1/2+y,1/2-z
1/2-x,1/2-y,1/2-z
1/2+x,1/2+y,1/2-z
1/2-x,1/2+y,1/2+z
1/2+x,1/2-y,1/2+z
loop_
_atom_site_type_symbol
_atom_site_label
_atom_site_fract_x
_atom_site_fract_y
_atom_site_fract_z
Si Si1 0.868306 0.736245 0.375224
Si Si2 0.237663 0.687615 0.189004
Si Si3 0.710231 0.153375 0.948246
Si Si4 0.629657 0.928049 0.732782
Si Si5 0.876278 0.208348 0.229223
Si Si6 0.870319 0.071556 0.103072
Si Si7 0.000000 0.430240 0.448031
Si Si8 0.278424 0.120354 0.820947
O O1 0.797964 0.798328 0.358032
O O2 0.813451 0.719332 0.422828
O O3 0.852207 0.675180 0.343777
O O4 0.000000 0.753101 0.379471
O O5 0.208211 0.614860 0.200286
O O6 0.125859 0.729972 0.196864
O O7 0.322298 0.721556 0.223262
O O8 0.828035 0.120686 0.934523
O O9 0.610704 0.106401 0.932663
O O10 0.710043 0.167817 0.000000
O O11 0.500000 0.914791 0.721337
O O12 0.645638 0.916742 0.785311
O O13 0.662793 0.000000 0.721721
O O14 0.823041 0.148410 0.206418
O O15 0.000000 0.187904 0.240039
O O16 0.783711 0.075279 0.143981
O O17 0.000000 0.088841 0.115466
O O18 0.865071 0.000000 0.084540
O O19 0.000000 0.500000 0.425960
O O20 0.000000 0.437034 0.500000
#
# Coordination Sequence:
#
# PCOD8287601 Si02
#       8
#    16  16  16  16  16  16   8  16
#     4  10  18  30  48  67  89 118 149 194 240 281
#     4   9  18  27  41  65  87 113 149 184 223 273
#     4  10  20  33  48  68  90 117 155 198 242 289
#     4  10  19  31  47  66  93 126 155 189 232 278
#     4   9  15  25  41  59  82 113 144 182 222 259
#     4  10  20  32  45  62  89 127 166 201 235 275
#     4   9  16  28  46  66  90 118 149 189 231 275
#     4   9  18  29  44  66  89 116 156 196 228 265
#
# _framework density 15.755167999999999
#
# number of rings (size 3 to 8) (size 9 to 14) (size 15 to 20)
#    0.000    2.467    0.667    3.200    0.000    1.067 
#    0.000    1.333    0.000    8.000    0.000    0.000 
#    0.000    0.533    0.000    2.667    0.000    0.000 
#
# Total GULP energy -743406.998917 kJ/mol
# GULP energy per Si atom -12390.116649 kJ/mol
# Density = 1.571931 g / cm^3
# Si number density = 15.755168 Si / 1000 Ang^3
#
#
#
# Elastic Constant Matrix: (Units=GPa)
#
#
# Indices 1 2 3 4 5 6 
#
# 1 72.3375 29.2539 26.7211 0.0000 0.0000 0.0000
# 2 29.2539 70.7688 37.6561 0.0000 0.0000 0.0000
# 3 26.7211 37.6561 81.8205 0.0000 0.0000 0.0000
# 4 0.0000 0.0000 0.0000 19.6365 0.0000 0.0000
# 5 0.0000 0.0000 0.0000 0.0000 16.1566 0.0000
# 6 0.0000 0.0000 0.0000 0.0000 0.0000 12.5624
#
#
#
# Elastic Compliance Matrix: (Units=1/GPa)
#
#
# Indices 1 2 3 4 5 6 
#
# 1 0.017173 -0.005449 -0.003101 0.000000 0.000000 0.000000
# 2 -0.005449 0.020442 -0.007628 0.000000 0.000000 0.000000
# 3 -0.003101 -0.007628 0.016745 0.000000 0.000000 0.000000
# 4 0.000000 0.000000 0.000000 0.050925 0.000000 0.000000
# 5 0.000000 0.000000 0.000000 0.000000 0.061894 0.000000
# 6 0.000000 0.000000 0.000000 0.000000 0.000000 0.079602
#
#
# Mechanical properties :
#
#
# Convention : Reuss Voigt Hill
#
# Bulk Modulus (GPa) = 45.44578 45.79877 45.62227
# Shear Modulus (GPa) = 17.45362 18.42417 17.93890
#
# Velocity S-wave (km/s) = 3.33198 3.42337 3.37798
# Velocity P-wave (km/s) = 6.61138 6.69015 6.65088
#
# Compressibility (1/GPa) = 0.02200425
#
# Stress axis : x y z
#
# Youngs Moduli (GPa) = 58.23070 48.91856 59.71823
#
# Poissons Ratio (x) = 0.26656 0.18516
# Poissons Ratio (y) = 0.31730 0.45556
# Poissons Ratio (z) = 0.18055 0.37317
#
# Static dielectric constant tensor:
#      x y z
#    x 3.091830 0.000000 0.000000 
#    y 0.000000 2.951220 0.000000 
#    z 0.000000 0.000000 2.924880 
# 
# 
# High freq. dielectric constant tensor:
#      x y z
#    x 1.613340 0.000000 0.000000 
#    y 0.000000 1.574820 0.000000 
#    z 0.000000 0.000000 1.577880 
# 
# From -- ./inp_files/30308.got.cif
#   From: 2010.06.25/outbox.cif.g09.slc.cpg/sg71_16_cif.got.tgz:30308.got - 2010.06.28 04:59:45.
