data_PCOD8287464
_publ_section_title
;
Structure prediction by ZEFSAII (Michael W. Deem and Ramdas Pophale) SiO2 
 PCOD8287464
Probable space group: I M M M
;
_chemical_formula_sum "Si O2"
_cell_formula_units_Z 120
_cell_length_a 24.539229
_cell_length_b 13.442221
_cell_length_c 22.484421
_cell_angle_alpha 90.000000
_cell_angle_beta 90.000000
_cell_angle_gamma 90.000000
_cell_volume 7416.750220
_symmetry_space_group_name_H-M "I M M M"
_symmetry_group_IT_number 71
_symmetry_cell_setting 'orthorhombic'
loop_
_space_group_symop_operation_xyz
x,y,z
-x,-y,z
x,-y,-z
-x,y,-z
-x,-y,-z
x,y,-z
-x,y,z
x,-y,z
1/2+x,1/2+y,1/2+z
1/2-x,1/2-y,1/2+z
1/2+x,1/2-y,1/2-z
1/2-x,1/2+y,1/2-z
1/2-x,1/2-y,1/2-z
1/2+x,1/2+y,1/2-z
1/2-x,1/2+y,1/2+z
1/2+x,1/2-y,1/2+z
loop_
_atom_site_type_symbol
_atom_site_label
_atom_site_fract_x
_atom_site_fract_y
_atom_site_fract_z
Si Si1 0.245620 0.200888 0.348204
Si Si2 0.061059 0.288247 0.931599
Si Si3 0.937417 0.118330 0.500000
Si Si4 0.562286 0.608442 0.356276
Si Si5 0.232997 0.115209 0.775219
Si Si6 0.830763 0.387549 0.931467
Si Si7 0.115216 0.884491 0.259286
Si Si8 0.632813 0.618598 0.112539
O O1 0.257584 0.131087 0.290810
O O2 0.239145 0.315481 0.325703
O O3 0.296979 0.189369 0.391724
O O4 0.192532 0.168513 0.386250
O O5 0.086839 0.192028 0.898796
O O6 0.104008 0.376383 0.920210
O O7 0.000000 0.317383 0.908085
O O8 0.057217 0.259280 0.000000
O O9 0.904497 0.157275 0.441948
O O10 0.000000 0.159192 0.500000
O O11 0.939489 0.000000 0.500000
O O12 0.500000 0.597132 0.372910
O O13 0.591221 0.500000 0.365745
O O14 0.567181 0.641056 0.286822
O O15 0.170954 0.155531 0.769906
O O16 0.239400 0.000000 0.794344
O O17 0.814528 0.500000 0.915090
O O18 0.817447 0.364035 0.000000
O O19 0.103228 0.845046 0.325991
O O20 0.124627 0.000000 0.268272
O O21 0.640232 0.500000 0.107580
#
# Coordination Sequence:
#
# PCOD8287464 Si02
#       8
#    16  16   8  16  16  16  16  16
#     4  10  18  29  47  70  94 120 151 184 225 270
#     4   9  18  31  43  57  81 113 149 187 226 268
#     4   9  18  30  44  64  91 125 156 184 231 288
#     4   9  16  25  40  61  82 109 145 184 224 263
#     4   9  17  29  46  67  93 123 151 181 219 270
#     4  10  20  31  45  65  86 111 147 189 228 270
#     4   8  14  25  39  58  85 114 145 179 218 264
#     4   9  17  28  43  64  90 119 149 183 224 273
#
# _framework density 16.179593000000001
#
# number of rings (size 3 to 8) (size 9 to 14) (size 15 to 20)
#    0.000    2.867    0.000    2.800    0.933    1.067 
#    0.000    5.333    0.000    1.200    0.000    0.000 
#    0.000    1.067    0.000    0.000    0.000    0.000 
#
# Total GULP energy -743298.727508 kJ/mol
# GULP energy per Si atom -12388.312125 kJ/mol
# Density = 1.614277 g / cm^3
# Si number density = 16.179593 Si / 1000 Ang^3
#
#
#
# Elastic Constant Matrix: (Units=GPa)
#
#
# Indices 1 2 3 4 5 6 
#
# 1 69.8102 24.8602 42.9970 0.0000 0.0000 0.0000
# 2 24.8602 61.0766 31.1240 0.0000 0.0000 0.0000
# 3 42.9970 31.1240 71.4622 0.0000 0.0000 0.0000
# 4 0.0000 0.0000 0.0000 18.1770 0.0000 0.0000
# 5 0.0000 0.0000 0.0000 0.0000 28.9021 0.0000
# 6 0.0000 0.0000 0.0000 0.0000 0.0000 13.8474
#
#
#
# Elastic Compliance Matrix: (Units=1/GPa)
#
#
# Indices 1 2 3 4 5 6 
#
# 1 0.023176 -0.002991 -0.012642 0.000000 0.000000 0.000000
# 2 -0.002991 0.021429 -0.007533 0.000000 0.000000 0.000000
# 3 -0.012642 -0.007533 0.024880 0.000000 0.000000 0.000000
# 4 0.000000 0.000000 0.000000 0.055015 0.000000 0.000000
# 5 0.000000 0.000000 0.000000 0.000000 0.034600 0.000000
# 6 0.000000 0.000000 0.000000 0.000000 0.000000 0.072216
#
#
# Mechanical properties :
#
#
# Convention : Reuss Voigt Hill
#
# Bulk Modulus (GPa) = 43.19033 44.47905 43.83469
# Shear Modulus (GPa) = 17.52137 19.07649 18.29893
#
# Velocity S-wave (km/s) = 3.29436 3.43745 3.36667
# Velocity P-wave (km/s) = 6.42049 6.58067 6.50108
#
# Compressibility (1/GPa) = 0.02315333
#
# Stress axis : x y z
#
# Youngs Moduli (GPa) = 43.14833 46.66487 40.19212
#
# Poissons Ratio (x) = 0.13959 0.50809
# Poissons Ratio (y) = 0.12907 0.30278
# Poissons Ratio (z) = 0.54546 0.35154
#
# Static dielectric constant tensor:
#      x y z
#    x 3.036750 0.000000 0.000000 
#    y 0.000000 2.981580 0.000000 
#    z 0.000000 0.000000 3.154110 
# 
# 
# High freq. dielectric constant tensor:
#      x y z
#    x 1.611030 0.000000 0.000000 
#    y 0.000000 1.585580 0.000000 
#    z 0.000000 0.000000 1.623680 
# 
# From -- ./inp_files/61737.got.cif
#   From: 2010.06.25/outbox.cif.g09.slc.cpg/sg71_31_cif.got.tgz:61737.got - 2010.06.28 04:59:45.
