data_PCOD8287955
_publ_section_title
;
Structure prediction by ZEFSAII (Michael W. Deem and Ramdas Pophale) SiO2 
 PCOD8287955
Probable space group: I M M M
;
_chemical_formula_sum "Si O2"
_cell_formula_units_Z 88
_cell_length_a 8.932040
_cell_length_b 25.441162
_cell_length_c 20.499702
_cell_angle_alpha 90.000000
_cell_angle_beta 90.000000
_cell_angle_gamma 90.000000
_cell_volume 4658.382553
_symmetry_space_group_name_H-M "I M M M"
_symmetry_group_IT_number 71
_symmetry_cell_setting 'orthorhombic'
loop_
_space_group_symop_operation_xyz
x,y,z
-x,-y,z
x,-y,-z
-x,y,-z
-x,-y,-z
x,y,-z
-x,y,z
x,-y,z
1/2+x,1/2+y,1/2+z
1/2-x,1/2-y,1/2+z
1/2+x,1/2-y,1/2-z
1/2-x,1/2+y,1/2-z
1/2-x,1/2-y,1/2-z
1/2+x,1/2+y,1/2-z
1/2-x,1/2+y,1/2+z
1/2+x,1/2-y,1/2+z
loop_
_atom_site_type_symbol
_atom_site_label
_atom_site_fract_x
_atom_site_fract_y
_atom_site_fract_z
Si Si1 0.830613 0.693928 0.318136
Si Si2 0.826464 0.604528 0.925042
Si Si3 0.329417 0.200949 0.335117
Si Si4 0.322129 0.500000 0.125203
Si Si5 0.321678 0.500000 0.272794
Si Si6 0.832919 0.938290 0.000000
Si Si7 0.677282 0.592564 0.636810
O O1 0.777374 0.749450 0.347518
O O2 0.818764 0.687984 0.240801
O O3 0.719133 0.651316 0.346354
O O4 0.000000 0.684532 0.341553
O O5 0.770615 0.651865 0.878124
O O6 0.734755 0.551872 0.911070
O O7 0.000000 0.592498 0.911313
O O8 0.799931 0.621479 0.000000
O O9 0.500000 0.214830 0.354914
O O10 0.500000 0.500000 0.123015
O O11 0.259849 0.500000 0.199195
O O12 0.500000 0.500000 0.271869
O O13 0.258817 0.551608 0.309789
O O14 0.750336 0.919396 0.065861
O O15 0.000000 0.914306 0.000000
O O16 0.840180 0.000000 0.000000
O O17 0.500000 0.585532 0.634125
#
# Coordination Sequence:
#
# PCOD8287955 Si02
#       7
#    16  16  16   8   8   8  16
#     4  10  20  34  54  80 108 137 170 214 268 316
#     4  10  21  38  58  78 103 137 177 218 256 300
#     4   9  19  37  58  78 102 136 178 220 259 304
#     4  11  22  34  52  82 113 140 169 206 260 318
#     4   9  18  31  52  80 107 136 175 220 258 299
#     4   9  16  30  53  77 101 135 181 222 255 296
#     4  10  18  32  54  78 104 137 178 220 258 304
#
# _framework density 18.890675999999999
#
# number of rings (size 3 to 8) (size 9 to 14) (size 15 to 20)
#    0.000    2.273    0.909    2.182    0.000    2.909 
#    1.636    1.818    0.000    0.545    0.000    0.000 
#    0.000    0.000    0.000    0.000    0.000    0.000 
#
# Total GULP energy -545532.541694 kJ/mol
# GULP energy per Si atom -12398.466857 kJ/mol
# Density = 1.884768 g / cm^3
# Si number density = 18.890676 Si / 1000 Ang^3
#
#
#
# Elastic Constant Matrix: (Units=GPa)
#
#
# Indices 1 2 3 4 5 6 
#
# 1 34.2867 26.7444 23.7394 0.0000 0.0000 0.0000
# 2 26.7444 127.1651 53.2219 0.0000 0.0000 0.0000
# 3 23.7394 53.2219 90.0481 -0.0002 -0.0001 0.0000
# 4 0.0000 0.0000 -0.0002 8.8667 0.0000 0.0000
# 5 0.0000 0.0000 -0.0001 0.0000 -76.4317 0.0000
# 6 0.0000 0.0000 0.0000 0.0000 0.0000 20.0051
#
#
#
# Elastic Compliance Matrix: (Units=1/GPa)
#
#
# Indices 1 2 3 4 5 6 
#
# 1 0.037966 -0.005043 -0.007028 0.000000 0.000000 0.000000
# 2 -0.005043 0.011118 -0.005242 0.000000 0.000000 0.000000
# 3 -0.007028 -0.005242 0.016056 0.000000 0.000000 0.000000
# 4 0.000000 0.000000 0.000000 0.112782 0.000000 0.000000
# 5 0.000000 0.000000 0.000000 0.000000 -0.013084 0.000000
# 6 0.000000 0.000000 0.000000 0.000000 0.000000 0.049987
#
#
# Mechanical properties :
#
#
# Convention : Reuss Voigt Hill
#
# Bulk Modulus (GPa) = 32.77204 50.99015 41.88109
# Shear Modulus (GPa) = 19.25867 0.34096 9.79981
#
# Velocity S-wave (km/s) = 3.19639 0.42530 2.28011
# Velocity P-wave (km/s) = 5.56853 5.22417 5.39910
#
# Compressibility (1/GPa) = 0.03051382
#
# Stress axis : x y z
#
# Youngs Moduli (GPa) = 26.33951 89.94213 62.28153
#
# Poissons Ratio (x) = 0.45359 0.43773
# Poissons Ratio (y) = 0.13283 0.32647
# Poissons Ratio (z) = 0.18512 0.47146
#
# Static dielectric constant tensor:
#      x y z
#    x 3.227000 0.000000 0.000000 
#    y 0.000000 3.398770 0.000000 
#    z 0.000000 0.000000 3.207460 
# 
# 
# High freq. dielectric constant tensor:
#      x y z
#    x 1.706190 0.000000 0.000000 
#    y 0.000000 1.738760 0.000000 
#    z 0.000000 0.000000 1.739810 
# 
# From -- ./inp_files/12650.got.cif
#   From: 2010.06.25/outbox.cif.g09.slc.cpg/sg71_7_cif.got.tgz:12650.got - 2010.06.28 04:59:45.
