data_PCOD8287487
_publ_section_title
;
Structure prediction by ZEFSAII (Michael W. Deem and Ramdas Pophale) SiO2 
 PCOD8287487
Probable space group: I M M M
;
_chemical_formula_sum "Si O2"
_cell_formula_units_Z 128
_cell_length_a 24.365216
_cell_length_b 18.634364
_cell_length_c 16.952604
_cell_angle_alpha 90.000000
_cell_angle_beta 90.000000
_cell_angle_gamma 90.000000
_cell_volume 7696.995946
_symmetry_space_group_name_H-M "I M M M"
_symmetry_group_IT_number 71
_symmetry_cell_setting 'orthorhombic'
loop_
_space_group_symop_operation_xyz
x,y,z
-x,-y,z
x,-y,-z
-x,y,-z
-x,-y,-z
x,y,-z
-x,y,z
x,-y,z
1/2+x,1/2+y,1/2+z
1/2-x,1/2-y,1/2+z
1/2+x,1/2-y,1/2-z
1/2-x,1/2+y,1/2-z
1/2-x,1/2-y,1/2-z
1/2+x,1/2+y,1/2-z
1/2-x,1/2+y,1/2+z
1/2+x,1/2-y,1/2+z
loop_
_atom_site_type_symbol
_atom_site_label
_atom_site_fract_x
_atom_site_fract_y
_atom_site_fract_z
Si Si1 0.841690 0.801619 0.646794
Si Si2 0.296949 0.715107 0.305205
Si Si3 0.389561 0.081862 0.149880
Si Si4 0.766233 0.922004 0.591571
Si Si5 0.713124 0.845378 0.906692
Si Si6 0.059674 0.277785 0.409573
Si Si7 0.436343 0.083363 0.322723
Si Si8 0.840970 0.340345 0.093253
O O1 0.838467 0.815883 0.740521
O O2 0.819402 0.873015 0.605792
O O3 0.808411 0.735177 0.608602
O O4 0.905059 0.783968 0.632178
O O5 0.250000 0.750000 0.250000
O O6 0.271872 0.652921 0.361985
O O7 0.332490 0.766915 0.360258
O O8 0.324737 0.094989 0.136018
O O9 0.419322 0.140108 0.095310
O O10 0.407557 0.097616 0.238968
O O11 0.404880 0.000000 0.125822
O O12 0.758035 0.931855 0.500000
O O13 0.709082 0.890005 0.624519
O O14 0.775687 0.000000 0.631279
O O15 0.718498 0.860747 0.000000
O O16 0.057780 0.256858 0.500000
O O17 0.000000 0.274176 0.370088
O O18 0.500000 0.109829 0.322181
O O19 0.400467 0.125868 0.387117
O O20 0.434429 0.000000 0.344901
O O21 0.837855 0.325895 0.000000
#
# Coordination Sequence:
#
# PCOD8287487 Si02
#       8
#    16  16  16  16  16  16  16  16
#     4  10  18  31  50  68  95 124 159 198 247 296
#     4  10  18  29  48  69  90 119 155 192 247 296
#     4  10  20  32  49  70  96 131 171 211 245 284
#     4  10  19  29  46  72  98 124 154 199 253 298
#     4  10  18  30  47  67  94 125 157 197 251 304
#     4  10  20  32  49  71  95 129 169 207 249 296
#     4  10  21  35  48  64  94 136 174 207 244 287
#     4  11  20  32  49  71  95 123 163 210 250 291
#
# _framework density 16.629864000000001
#
# number of rings (size 3 to 8) (size 9 to 14) (size 15 to 20)
#    0.000    1.875    2.500    5.625    0.000    2.750 
#    0.000    1.250    0.000    0.375    0.000    1.750 
#    0.000    0.000    0.000    0.000    0.000    0.000 
#
# Total GULP energy -793031.862797 kJ/mol
# GULP energy per Si atom -12391.122856 kJ/mol
# Density = 1.659201 g / cm^3
# Si number density = 16.629864 Si / 1000 Ang^3
#
#
#
# Elastic Constant Matrix: (Units=GPa)
#
#
# Indices 1 2 3 4 5 6 
#
# 1 104.2040 40.7954 33.9570 0.0000 0.0000 0.0000
# 2 40.7954 48.7992 10.4198 0.0000 0.0000 0.0000
# 3 33.9570 10.4198 68.0575 0.0000 0.0000 0.0000
# 4 0.0000 0.0000 0.0000 18.7423 0.0000 0.0000
# 5 0.0000 0.0000 0.0000 0.0000 26.1031 0.0000
# 6 0.0000 0.0000 0.0000 0.0000 0.0000 21.6412
#
#
#
# Elastic Compliance Matrix: (Units=1/GPa)
#
#
# Indices 1 2 3 4 5 6 
#
# 1 0.016551 -0.012481 -0.006347 0.000000 0.000000 0.000000
# 2 -0.012481 0.030597 0.001543 0.000000 0.000000 0.000000
# 3 -0.006347 0.001543 0.017624 0.000000 0.000000 0.000000
# 4 0.000000 0.000000 0.000000 0.053355 0.000000 0.000000
# 5 0.000000 0.000000 0.000000 0.000000 0.038310 0.000000
# 6 0.000000 0.000000 0.000000 0.000000 0.000000 0.046208
#
#
# Mechanical properties :
#
#
# Convention : Reuss Voigt Hill
#
# Bulk Modulus (GPa) = 33.11127 43.48945 38.30036
# Shear Modulus (GPa) = 20.21968 22.35655 21.28811
#
# Velocity S-wave (km/s) = 3.49071 3.67053 3.58175
# Velocity P-wave (km/s) = 6.01670 6.64620 6.33927
#
# Compressibility (1/GPa) = 0.03020120
#
# Stress axis : x y z
#
# Youngs Moduli (GPa) = 60.41798 32.68307 56.74023
#
# Poissons Ratio (x) = 0.40793 0.36015
# Poissons Ratio (y) = 0.75410 -0.08755
# Poissons Ratio (z) = 0.38349 -0.05043
#
# Static dielectric constant tensor:
#      x y z
#    x 3.468120 0.000000 0.000000 
#    y 0.000000 3.045840 0.000000 
#    z 0.000000 0.000000 3.420830 
# 
# 
# High freq. dielectric constant tensor:
#      x y z
#    x 1.624710 0.000000 0.000000 
#    y 0.000000 1.607610 0.000000 
#    z 0.000000 0.000000 1.646490 
# 
# From -- ./inp_files/48427.got.cif
#   From: 2010.06.25/outbox.cif.g09.slc.cpg/sg71_25_cif.got.tgz:48427.got - 2010.06.28 04:59:45.
