data_PCOD8287978
_publ_section_title
;
Structure prediction by ZEFSAII (Michael W. Deem and Ramdas Pophale) SiO2 
 PCOD8287978
Probable space group: I M M M
;
_chemical_formula_sum "Si O2"
_cell_formula_units_Z 104
_cell_length_a 18.579894
_cell_length_b 17.608566
_cell_length_c 17.004797
_cell_angle_alpha 90.000000
_cell_angle_beta 90.000000
_cell_angle_gamma 90.000000
_cell_volume 5563.379338
_symmetry_space_group_name_H-M "I M M M"
_symmetry_group_IT_number 71
_symmetry_cell_setting 'orthorhombic'
loop_
_space_group_symop_operation_xyz
x,y,z
-x,-y,z
x,-y,-z
-x,y,-z
-x,-y,-z
x,y,-z
-x,y,z
x,-y,z
1/2+x,1/2+y,1/2+z
1/2-x,1/2-y,1/2+z
1/2+x,1/2-y,1/2-z
1/2-x,1/2+y,1/2-z
1/2-x,1/2-y,1/2-z
1/2+x,1/2+y,1/2-z
1/2-x,1/2+y,1/2+z
1/2+x,1/2-y,1/2+z
loop_
_atom_site_type_symbol
_atom_site_label
_atom_site_fract_x
_atom_site_fract_y
_atom_site_fract_z
Si Si1 0.706532 0.313279 0.205495
Si Si2 0.647932 0.157598 0.639520
Si Si3 0.785801 0.085182 0.152455
Si Si4 0.117102 0.084627 0.000000
Si Si5 0.580772 0.211610 0.802376
Si Si6 0.919809 0.251753 0.000000
Si Si7 0.080581 0.500000 0.092581
Si Si8 0.368099 0.088149 0.907459
O O1 0.750000 0.250000 0.250000
O O2 0.764235 0.346329 0.142607
O O3 0.681614 0.372551 0.272246
O O4 0.633537 0.279387 0.166331
O O5 0.611863 0.181057 0.720869
O O6 0.623766 0.219842 0.575779
O O7 0.622877 0.073608 0.620070
O O8 0.836114 0.091261 0.077622
O O9 0.708243 0.116625 0.126497
O O10 0.776433 0.000000 0.180920
O O11 0.068065 0.160001 0.000000
O O12 0.078529 0.000000 0.000000
O O13 0.500000 0.243779 0.791006
O O14 0.574891 0.142560 0.864780
O O15 0.000000 0.288048 0.000000
O O16 0.000000 0.500000 0.128574
O O17 0.076073 0.500000 0.000000
O O18 0.383864 0.000000 0.887731
O O19 0.371171 0.101563 0.000000
#
# Coordination Sequence:
#
# PCOD8287978 Si02
#       8
#    16  16  16   8  16   8   8  16
#     4  10  20  36  55  83 109 144 191 234 269 328
#     4  11  23  37  59  84 112 158 192 228 280 343
#     4  10  18  32  55  84 111 141 182 231 275 325
#     4  10  20  33  57  83 110 151 190 228 278 332
#     4  11  23  38  56  80 113 150 190 234 285 332
#     4  12  24  38  56  82 119 153 186 230 283 331
#     4  11  22  38  56  84 124 150 186 232 279 338
#     4  10  20  34  55  82 114 145 181 225 281 340
#
# _framework density 18.693674000000001
#
# number of rings (size 3 to 8) (size 9 to 14) (size 15 to 20)
#    0.000    1.462    4.615    3.231    2.154    0.769 
#    0.000    0.769    0.000    1.385    0.000    0.000 
#    0.000    0.615    0.000    0.000    0.000    0.000 
#
# Total GULP energy -644443.234555 kJ/mol
# GULP energy per Si atom -12393.139126 kJ/mol
# Density = 1.865113 g / cm^3
# Si number density = 18.693674 Si / 1000 Ang^3
#
#
#
# Elastic Constant Matrix: (Units=GPa)
#
#
# Indices 1 2 3 4 5 6 
#
# 1 126.2710 47.0844 36.3853 0.0000 0.0000 0.0000
# 2 47.0844 100.6303 46.5771 0.0000 0.0000 0.0000
# 3 36.3853 46.5771 84.3360 0.0000 0.0000 0.0000
# 4 0.0000 0.0000 0.0000 33.4493 0.0000 0.0000
# 5 0.0000 0.0000 0.0000 0.0000 10.1160 0.0000
# 6 0.0000 0.0000 0.0000 0.0000 0.0000 25.9267
#
#
#
# Elastic Compliance Matrix: (Units=1/GPa)
#
#
# Indices 1 2 3 4 5 6 
#
# 1 0.009916 -0.003573 -0.002305 0.000000 0.000000 0.000000
# 2 -0.003573 0.014637 -0.006542 0.000000 0.000000 0.000000
# 3 -0.002305 -0.006542 0.016465 0.000000 0.000000 0.000000
# 4 0.000000 0.000000 0.000000 0.029896 0.000000 0.000000
# 5 0.000000 0.000000 0.000000 0.000000 0.098854 0.000000
# 6 0.000000 0.000000 0.000000 0.000000 0.000000 0.038570
#
#
# Mechanical properties :
#
#
# Convention : Reuss Voigt Hill
#
# Bulk Modulus (GPa) = 61.81256 63.48122 62.64689
# Shear Modulus (GPa) = 20.95815 25.97778 23.46797
#
# Velocity S-wave (km/s) = 3.35197 3.73185 3.54700
# Velocity P-wave (km/s) = 6.93677 7.25268 7.09648
#
# Compressibility (1/GPa) = 0.01617794
#
# Stress axis : x y z
#
# Youngs Moduli (GPa) = 100.84867 68.31890 60.73492
#
# Poissons Ratio (x) = 0.24409 0.13998
# Poissons Ratio (y) = 0.36031 0.39736
# Poissons Ratio (z) = 0.23244 0.44697
#
# Static dielectric constant tensor:
#      x y z
#    x 3.512670 0.000000 0.000000 
#    y 0.000000 3.643810 0.000000 
#    z 0.000000 0.000000 3.332200 
# 
# 
# High freq. dielectric constant tensor:
#      x y z
#    x 1.714910 0.000000 0.000000 
#    y 0.000000 1.727220 0.000000 
#    z 0.000000 0.000000 1.716970 
# 
# From -- ./inp_files/46198.got.cif
#   From: 2010.06.25/outbox.cif.g09.slc.cpg/sg71_24_cif.got.tgz:46198.got - 2010.06.28 04:59:45.
