data_PCOD8287651
_publ_section_title
;
Structure prediction by ZEFSAII (Michael W. Deem and Ramdas Pophale) SiO2 
 PCOD8287651
Probable space group: I M M M
;
_chemical_formula_sum "Si O2"
_cell_formula_units_Z 88
_cell_length_a 18.011947
_cell_length_b 27.704504
_cell_length_c 9.228354
_cell_angle_alpha 90.000000
_cell_angle_beta 90.000000
_cell_angle_gamma 90.000000
_cell_volume 4605.059919
_symmetry_space_group_name_H-M "I M M M"
_symmetry_group_IT_number 71
_symmetry_cell_setting 'orthorhombic'
loop_
_space_group_symop_operation_xyz
x,y,z
-x,-y,z
x,-y,-z
-x,y,-z
-x,-y,-z
x,y,-z
-x,y,z
x,-y,z
1/2+x,1/2+y,1/2+z
1/2-x,1/2-y,1/2+z
1/2+x,1/2-y,1/2-z
1/2-x,1/2+y,1/2-z
1/2-x,1/2-y,1/2-z
1/2+x,1/2+y,1/2-z
1/2-x,1/2+y,1/2+z
1/2+x,1/2-y,1/2+z
loop_
_atom_site_type_symbol
_atom_site_label
_atom_site_fract_x
_atom_site_fract_y
_atom_site_fract_z
Si Si1 0.417881 0.176394 0.830774
Si Si2 0.178084 0.411117 0.672020
Si Si3 0.323420 0.267550 0.830872
Si Si4 0.417658 0.643534 0.169718
Si Si5 0.821478 0.055146 0.331511
Si Si6 0.081660 0.500000 0.328274
O O1 0.500000 0.170553 0.760285
O O2 0.358600 0.138122 0.767706
O O3 0.389100 0.229829 0.800387
O O4 0.424854 0.165607 0.000000
O O5 0.189338 0.411068 0.500000
O O6 0.257013 0.419086 0.743413
O O7 0.124345 0.453221 0.726768
O O8 0.250000 0.250000 0.750000
O O9 0.356272 0.318351 0.769272
O O10 0.303078 0.270707 0.000000
O O11 0.500000 0.650854 0.238711
O O12 0.393646 0.588120 0.199322
O O13 0.423023 0.653984 0.000000
O O14 0.800230 0.055765 0.500000
O O15 0.836181 0.000000 0.279189
O O16 0.076122 0.500000 0.500000
O O17 0.000000 0.500000 0.258616
#
# Coordination Sequence:
#
# PCOD8287651 Si02
#       6
#    16  16  16  16  16   8
#     4   9  17  29  48  74  99 124 160 203 239 276
#     4  10  18  30  49  72  97 127 162 200 241 289
#     4  10  19  32  52  76 101 129 160 197 242 291
#     4   9  18  33  53  75  98 128 168 208 244 286
#     4  10  20  33  50  72  98 128 162 205 251 292
#     4   9  16  26  43  67  92 121 160 200 233 271
#
# _framework density 19.109414999999998
#
# number of rings (size 3 to 8) (size 9 to 14) (size 15 to 20)
#    0.000    2.455    0.909    2.182    0.000    4.727 
#    0.000    1.818    0.000    7.636    0.000    1.273 
#    0.000    0.000    0.000    0.000    0.000    0.000 
#
# Total GULP energy -545381.092912 kJ/mol
# GULP energy per Si atom -12395.024839 kJ/mol
# Density = 1.906592 g / cm^3
# Si number density = 19.109415 Si / 1000 Ang^3
#
#
#
# Elastic Constant Matrix: (Units=GPa)
#
#
# Indices 1 2 3 4 5 6 
#
# 1 140.4158 57.6479 28.9540 0.0000 0.0000 0.0000
# 2 57.6479 137.9516 21.0864 0.0001 0.0000 0.0000
# 3 28.9540 21.0864 22.9711 0.0002 0.0003 0.0003
# 4 0.0000 0.0001 0.0002 12.1139 0.0001 0.0000
# 5 0.0000 0.0000 0.0003 0.0001 21.6834 0.0001
# 6 0.0000 0.0000 0.0003 0.0000 0.0001 28.5620
#
#
#
# Elastic Compliance Matrix: (Units=1/GPa)
#
#
# Indices 1 2 3 4 5 6 
#
# 1 0.010440 -0.002735 -0.010649 0.000000 0.000000 0.000000
# 2 -0.002735 0.009149 -0.004950 0.000000 0.000000 0.000000
# 3 -0.010649 -0.004950 0.061500 -0.000001 -0.000001 -0.000001
# 4 0.000000 0.000000 -0.000001 0.082550 0.000000 0.000000
# 5 0.000000 0.000000 -0.000001 0.000000 0.046118 0.000000
# 6 0.000000 0.000000 -0.000001 0.000000 0.000000 0.035012
#
#
# Mechanical properties :
#
#
# Convention : Reuss Voigt Hill
#
# Bulk Modulus (GPa) = 22.51256 57.41277 39.96267
# Shear Modulus (GPa) = 16.87801 25.38190 21.12996
#
# Velocity S-wave (km/s) = 2.97514 3.64846 3.32887
# Velocity P-wave (km/s) = 4.85885 6.91793 5.97772
#
# Compressibility (1/GPa) = 0.04441964
#
# Stress axis : x y z
#
# Youngs Moduli (GPa) = 95.78120 109.30635 16.26027
#
# Poissons Ratio (x) = 0.29897 0.17315
# Poissons Ratio (y) = 0.26198 0.08049
# Poissons Ratio (z) = 1.01997 0.54111
#
# Static dielectric constant tensor:
#      x y z
#    x 3.630310 0.000000 0.000000 
#    y 0.000000 4.189900 0.000000 
#    z 0.000000 0.000000 2.978270 
# 
# 
# High freq. dielectric constant tensor:
#      x y z
#    x 1.752210 0.000000 0.000000 
#    y 0.000000 1.763830 0.000000 
#    z 0.000000 0.000000 1.677560 
# 
# From -- ./inp_files/22276.got.cif
#   From: 2010.06.25/outbox.cif.g09.slc.cpg/sg71_12_cif.got.tgz:22276.got - 2010.06.28 04:59:45.
