data_PCOD8287097
_publ_section_title
;
Structure prediction by ZEFSAII (Michael W. Deem and Ramdas Pophale) SiO2 
 PCOD8287097
Probable space group: I M M M
;
_chemical_formula_sum "Si O2"
_cell_formula_units_Z 64
_cell_length_a 21.712124
_cell_length_b 7.622588
_cell_length_c 24.094000
_cell_angle_alpha 90.000000
_cell_angle_beta 90.000000
_cell_angle_gamma 90.000000
_cell_volume 3987.619063
_symmetry_space_group_name_H-M "I M M M"
_symmetry_group_IT_number 71
_symmetry_cell_setting 'orthorhombic'
loop_
_space_group_symop_operation_xyz
x,y,z
-x,-y,z
x,-y,-z
-x,y,-z
-x,-y,-z
x,y,-z
-x,y,z
x,-y,z
1/2+x,1/2+y,1/2+z
1/2-x,1/2-y,1/2+z
1/2+x,1/2-y,1/2-z
1/2-x,1/2+y,1/2-z
1/2-x,1/2-y,1/2-z
1/2+x,1/2+y,1/2-z
1/2-x,1/2+y,1/2+z
1/2+x,1/2-y,1/2+z
loop_
_atom_site_type_symbol
_atom_site_label
_atom_site_fract_x
_atom_site_fract_y
_atom_site_fract_z
Si Si1 0.636513 0.000000 0.937552
Si Si2 0.150013 0.803375 0.726283
Si Si3 0.571756 0.000000 0.825655
Si Si4 0.734265 0.300315 0.938730
Si Si5 0.726157 0.295820 0.672073
O O1 0.582737 0.000000 0.891980
O O2 0.676529 0.174244 0.927656
O O3 0.608561 0.000000 0.000000
O O4 0.099691 0.672776 0.702323
O O5 0.212794 0.806266 0.691012
O O6 0.167688 0.746513 0.789651
O O7 0.122238 0.000000 0.725285
O O8 0.500000 0.000000 0.813770
O O9 0.710795 0.500000 0.934732
O O10 0.786321 0.259890 0.892040
O O11 0.762471 0.262642 0.000000
O O12 0.741253 0.500000 0.677456
#
# Coordination Sequence:
#
# PCOD8287097 Si02
#       5
#     8  16   8  16  16
#     4  10  20  35  48  66  98 129 171 211 239 278
#     4  10  20  32  49  73  96 125 160 205 256 294
#     4  12  24  37  50  70  97 132 182 209 239 290
#     4  10  18  27  45  72 101 131 157 194 247 295
#     4  10  17  29  50  74 100 123 158 200 250 311
#
# _framework density 16.049676999999999
#
# number of rings (size 3 to 8) (size 9 to 14) (size 15 to 20)
#    0.000    1.750    5.000    0.750    3.500    0.750 
#    0.000    0.000    0.000    0.000    0.000    5.250 
#    0.000    2.000    0.000    5.500    0.000    0.000 
#
# Total GULP energy -396638.716300 kJ/mol
# GULP energy per Si atom -12394.959884 kJ/mol
# Density = 1.601315 g / cm^3
# Si number density = 16.049677 Si / 1000 Ang^3
#
#
#
# Elastic Constant Matrix: (Units=GPa)
#
#
# Indices 1 2 3 4 5 6 
#
# 1 62.2783 40.1243 51.0216 0.0000 0.0000 0.0000
# 2 40.1243 99.9655 40.8584 0.0000 0.0000 0.0000
# 3 51.0216 40.8584 140.3927 0.0000 0.0000 0.0000
# 4 0.0000 0.0000 0.0000 24.8111 0.0000 0.0000
# 5 0.0000 0.0000 0.0000 0.0000 16.3613 0.0000
# 6 0.0000 0.0000 0.0000 0.0000 0.0000 10.7403
#
#
#
# Elastic Compliance Matrix: (Units=1/GPa)
#
#
# Indices 1 2 3 4 5 6 
#
# 1 0.027410 -0.007866 -0.007672 0.000000 0.000000 0.000000
# 2 -0.007866 0.013611 -0.001103 0.000000 0.000000 0.000000
# 3 -0.007672 -0.001103 0.010232 0.000000 0.000000 0.000000
# 4 0.000000 0.000000 0.000000 0.040305 0.000000 0.000000
# 5 0.000000 0.000000 0.000000 0.000000 0.061120 0.000000
# 6 0.000000 0.000000 0.000000 0.000000 0.000000 0.093107
#
#
# Mechanical properties :
#
#
# Convention : Reuss Voigt Hill
#
# Bulk Modulus (GPa) = 55.64258 62.96057 59.30158
# Shear Modulus (GPa) = 17.54029 21.75802 19.64916
#
# Velocity S-wave (km/s) = 3.30945 3.68593 3.50275
# Velocity P-wave (km/s) = 7.02478 7.57816 7.30671
#
# Compressibility (1/GPa) = 0.01797185
#
# Stress axis : x y z
#
# Youngs Moduli (GPa) = 36.48248 73.46748 97.73264
#
# Poissons Ratio (x) = 0.57791 0.74982
# Poissons Ratio (y) = 0.28698 0.10776
# Poissons Ratio (z) = 0.27990 0.08100
#
# Static dielectric constant tensor:
#      x y z
#    x 2.426970 0.000000 0.000000 
#    y 0.000000 3.210770 0.000000 
#    z 0.000000 0.000000 3.616730 
# 
# 
# High freq. dielectric constant tensor:
#      x y z
#    x 1.529910 0.000000 0.000000 
#    y 0.000000 1.642000 0.000000 
#    z 0.000000 0.000000 1.640830 
# 
# From -- ./inp_files/50291.got.cif
#   From: 2010.06.25/outbox.cif.g09.slc.cpg/sg71_26_cif.got.tgz:50291.got - 2010.06.28 04:59:45.
