data_PCOD8287187
_publ_section_title
;
Structure prediction by ZEFSAII (Michael W. Deem and Ramdas Pophale) SiO2 
 PCOD8287187
Probable space group: I M M M
;
_chemical_formula_sum "Si O2"
_cell_formula_units_Z 96
_cell_length_a 9.118072
_cell_length_b 23.207905
_cell_length_c 29.395956
_cell_angle_alpha 90.000000
_cell_angle_beta 90.000000
_cell_angle_gamma 90.000000
_cell_volume 6220.517897
_symmetry_space_group_name_H-M "I M M M"
_symmetry_group_IT_number 71
_symmetry_cell_setting 'orthorhombic'
loop_
_space_group_symop_operation_xyz
x,y,z
-x,-y,z
x,-y,-z
-x,y,-z
-x,-y,-z
x,y,-z
-x,y,z
x,-y,z
1/2+x,1/2+y,1/2+z
1/2-x,1/2-y,1/2+z
1/2+x,1/2-y,1/2-z
1/2-x,1/2+y,1/2-z
1/2-x,1/2-y,1/2-z
1/2+x,1/2+y,1/2-z
1/2-x,1/2+y,1/2+z
1/2+x,1/2-y,1/2+z
loop_
_atom_site_type_symbol
_atom_site_label
_atom_site_fract_x
_atom_site_fract_y
_atom_site_fract_z
Si Si1 0.669157 0.433644 0.314865
Si Si2 0.832483 0.233967 0.000000
Si Si3 0.830634 0.888960 0.088852
Si Si4 0.672728 0.116133 0.000000
Si Si5 0.328349 0.162101 0.238996
Si Si6 0.834511 0.753830 0.098037
Si Si7 0.170838 0.775950 0.316035
O O1 0.500000 0.414300 0.310272
O O2 0.691122 0.500000 0.302063
O O3 0.722551 0.423061 0.366485
O O4 0.765565 0.397361 0.279882
O O5 0.811156 0.270897 0.953578
O O6 0.715364 0.183074 0.000000
O O7 0.000000 0.208044 0.000000
O O8 0.800557 0.821617 0.097081
O O9 0.000000 0.901263 0.078469
O O10 0.738476 0.912566 0.045793
O O11 0.500000 0.107965 0.000000
O O12 0.500000 0.155610 0.247044
O O13 0.253459 0.175302 0.287275
O O14 0.290992 0.212951 0.203604
O O15 0.725066 0.721311 0.131946
O O16 0.000000 0.742659 0.115034
O O17 0.000000 0.789600 0.314201
#
# Coordination Sequence:
#
# PCOD8287187 Si02
#       7
#    16   8  16   8  16  16  16
#     4  10  20  34  51  67  84 111 147 186 227 271
#     4   8  16  28  40  59  87 120 147 172 214 267
#     4   9  17  30  45  60  82 111 143 180 225 273
#     4  10  18  26  41  61  80 105 142 187 227 263
#     4  10  20  32  46  65  89 115 144 180 225 269
#     4   9  15  26  44  63  86 116 147 180 218 261
#     4  10  19  29  45  67  90 114 145 182 221 262
#
# _framework density 15.432798
#
# number of rings (size 3 to 8) (size 9 to 14) (size 15 to 20)
#    0.000    2.500    1.667    2.750    0.000    5.000 
#    0.000    0.417    0.000    2.500    0.000    0.000 
#    0.000    0.000    0.000    0.750    0.000   14.500 
#
# Total GULP energy -595111.495643 kJ/mol
# GULP energy per Si atom -12398.156159 kJ/mol
# Density = 1.539767 g / cm^3
# Si number density = 15.432798 Si / 1000 Ang^3
#
#
#
# Elastic Constant Matrix: (Units=GPa)
#
#
# Indices 1 2 3 4 5 6 
#
# 1 81.6368 32.9835 53.5490 0.0000 0.0000 0.0000
# 2 32.9835 44.1818 40.0211 0.0000 0.0000 0.0000
# 3 53.5490 40.0211 113.1618 0.0000 0.0000 0.0000
# 4 0.0000 0.0000 0.0000 14.7562 0.0000 0.0000
# 5 0.0000 0.0000 0.0000 0.0000 29.2958 0.0000
# 6 0.0000 0.0000 0.0000 0.0000 0.0000 17.1399
#
#
#
# Elastic Compliance Matrix: (Units=1/GPa)
#
#
# Indices 1 2 3 4 5 6 
#
# 1 0.020110 -0.009406 -0.006189 0.000000 0.000000 0.000000
# 2 -0.009406 0.037702 -0.008883 0.000000 0.000000 0.000000
# 3 -0.006189 -0.008883 0.014907 0.000000 0.000000 0.000000
# 4 0.000000 0.000000 0.000000 0.067768 0.000000 0.000000
# 5 0.000000 0.000000 0.000000 0.000000 0.034135 0.000000
# 6 0.000000 0.000000 0.000000 0.000000 0.000000 0.058343
#
#
# Mechanical properties :
#
#
# Convention : Reuss Voigt Hill
#
# Bulk Modulus (GPa) = 42.08336 54.67641 48.37988
# Shear Modulus (GPa) = 17.25076 19.73351 18.49214
#
# Velocity S-wave (km/s) = 3.34698 3.57973 3.46531
# Velocity P-wave (km/s) = 6.50110 7.25201 6.88680
#
# Compressibility (1/GPa) = 0.02376236
#
# Stress axis : x y z
#
# Youngs Moduli (GPa) = 49.72757 26.52378 67.08115
#
# Poissons Ratio (x) = 0.24948 0.41519
# Poissons Ratio (y) = 0.46774 0.59587
# Poissons Ratio (z) = 0.30779 0.23561
#
# Static dielectric constant tensor:
#      x y z
#    x 2.903450 0.000000 0.000000 
#    y 0.000000 2.477910 0.000000 
#    z 0.000000 0.000000 3.173500 
# 
# 
# High freq. dielectric constant tensor:
#      x y z
#    x 1.595710 0.000000 0.000000 
#    y 0.000000 1.526790 0.000000 
#    z 0.000000 0.000000 1.599740 
# 
# From -- ./inp_files/63486.got.cif
#   From: 2010.06.25/outbox.cif.g09.slc.cpg/sg71_32_cif.got.tgz:63486.got - 2010.06.28 04:59:45.
