data_PCOD8287758
_publ_section_title
;
Structure prediction by ZEFSAII (Michael W. Deem and Ramdas Pophale) SiO2 
 PCOD8287758
Probable space group: I M M M
;
_chemical_formula_sum "Si O2"
_cell_formula_units_Z 96
_cell_length_a 26.115165
_cell_length_b 9.691434
_cell_length_c 22.111284
_cell_angle_alpha 90.000000
_cell_angle_beta 90.000000
_cell_angle_gamma 90.000000
_cell_volume 5596.220002
_symmetry_space_group_name_H-M "I M M M"
_symmetry_group_IT_number 71
_symmetry_cell_setting 'orthorhombic'
loop_
_space_group_symop_operation_xyz
x,y,z
-x,-y,z
x,-y,-z
-x,y,-z
-x,-y,-z
x,y,-z
-x,y,z
x,-y,z
1/2+x,1/2+y,1/2+z
1/2-x,1/2-y,1/2+z
1/2+x,1/2-y,1/2-z
1/2-x,1/2+y,1/2-z
1/2-x,1/2-y,1/2-z
1/2+x,1/2+y,1/2-z
1/2-x,1/2+y,1/2+z
1/2+x,1/2-y,1/2+z
loop_
_atom_site_type_symbol
_atom_site_label
_atom_site_fract_x
_atom_site_fract_y
_atom_site_fract_z
Si Si1 0.784722 0.662552 0.500000
Si Si2 0.858295 0.346841 0.890407
Si Si3 0.169485 0.165539 0.000000
Si Si4 0.784251 0.211387 0.806584
Si Si5 0.813629 0.652734 0.629051
Si Si6 0.441250 0.843070 0.707373
Si Si7 0.370072 0.348033 0.777720
O O1 0.778451 0.500000 0.500000
O O2 0.727460 0.722826 0.500000
O O3 0.815564 0.708327 0.559986
O O4 0.855838 0.500000 0.919347
O O5 0.857303 0.227786 0.940623
O O6 0.810575 0.337299 0.843118
O O7 0.911707 0.325606 0.855665
O O8 0.163728 0.000000 0.000000
O O9 0.750000 0.250000 0.750000
O O10 0.746420 0.132925 0.852509
O O11 0.831631 0.125514 0.778913
O O12 0.838854 0.500000 0.634989
O O13 0.842636 0.764929 0.668649
O O14 0.500000 0.804905 0.695542
O O15 0.419429 0.739180 0.757906
O O16 0.434997 0.000000 0.731421
O O17 0.386896 0.500000 0.800875
#
# Coordination Sequence:
#
# PCOD8287758 Si02
#       7
#     8  16   8  16  16  16  16
#     4   9  18  31  47  68  95 136 180 210 236 278
#     4  10  20  34  52  74  97 128 172 216 255 298
#     4  11  21  35  50  70 101 139 177 212 252 297
#     4   9  18  29  45  68  99 131 163 203 248 294
#     4  10  18  31  48  67  97 137 174 204 239 290
#     4   9  19  37  58  77  98 127 165 209 258 310
#     4  10  20  31  47  75 104 129 161 204 254 303
#
# _framework density 17.154436
#
# number of rings (size 3 to 8) (size 9 to 14) (size 15 to 20)
#    0.000    2.333    1.667    1.250    0.000    9.667 
#    0.000    0.833    0.000    2.500    0.000    0.583 
#    0.000    4.667    0.000    0.000    0.000    0.000 
#
# Total GULP energy -594696.015023 kJ/mol
# GULP energy per Si atom -12389.500313 kJ/mol
# Density = 1.711539 g / cm^3
# Si number density = 17.154436 Si / 1000 Ang^3
#
#
#
# Elastic Constant Matrix: (Units=GPa)
#
#
# Indices 1 2 3 4 5 6 
#
# 1 88.2009 47.5682 41.2747 0.0000 0.0000 0.0000
# 2 47.5682 125.9800 55.1724 0.0000 0.0000 0.0000
# 3 41.2747 55.1724 108.4905 0.0000 0.0000 0.0000
# 4 0.0000 0.0000 0.0000 26.2789 0.0000 0.0000
# 5 0.0000 0.0000 0.0000 0.0000 15.0309 0.0000
# 6 0.0000 0.0000 0.0000 0.0000 0.0000 18.4431
#
#
#
# Elastic Compliance Matrix: (Units=1/GPa)
#
#
# Indices 1 2 3 4 5 6 
#
# 1 0.015318 -0.004158 -0.003713 0.000000 0.000000 0.000000
# 2 -0.004158 0.011341 -0.004186 0.000000 0.000000 0.000000
# 3 -0.003713 -0.004186 0.012759 0.000000 0.000000 0.000000
# 4 0.000000 0.000000 0.000000 0.038053 0.000000 0.000000
# 5 0.000000 0.000000 0.000000 0.000000 0.066530 0.000000
# 6 0.000000 0.000000 0.000000 0.000000 0.000000 0.054221
#
#
# Mechanical properties :
#
#
# Convention : Reuss Voigt Hill
#
# Bulk Modulus (GPa) = 65.34104 67.85577 66.59841
# Shear Modulus (GPa) = 21.98435 23.86100 22.92267
#
# Velocity S-wave (km/s) = 3.58376 3.73359 3.65945
# Velocity P-wave (km/s) = 7.43620 7.63073 7.53409
#
# Compressibility (1/GPa) = 0.01530432
#
# Stress axis : x y z
#
# Youngs Moduli (GPa) = 65.28433 88.17870 78.37846
#
# Poissons Ratio (x) = 0.36660 0.29104
# Poissons Ratio (y) = 0.27142 0.32805
# Poissons Ratio (z) = 0.24242 0.36907
#
# Static dielectric constant tensor:
#      x y z
#    x 3.036000 0.000000 0.000000 
#    y 0.000000 3.115210 0.000000 
#    z 0.000000 0.000000 3.474460 
# 
# 
# High freq. dielectric constant tensor:
#      x y z
#    x 1.629750 0.000000 0.000000 
#    y 0.000000 1.658530 0.000000 
#    z 0.000000 0.000000 1.657710 
# 
# From -- ./inp_files/61914.got.cif
#   From: 2010.06.25/outbox.cif.g09.slc.cpg/sg71_31_cif.got.tgz:61914.got - 2010.06.28 04:59:45.
