data_PCOD8287352
_publ_section_title
;
Structure prediction by ZEFSAII (Michael W. Deem and Ramdas Pophale) SiO2 
 PCOD8287352
Probable space group: I M M M
;
_chemical_formula_sum "Si O2"
_cell_formula_units_Z 80
_cell_length_a 20.188345
_cell_length_b 8.795861
_cell_length_c 24.916423
_cell_angle_alpha 90.000000
_cell_angle_beta 90.000000
_cell_angle_gamma 90.000000
_cell_volume 4424.505819
_symmetry_space_group_name_H-M "I M M M"
_symmetry_group_IT_number 71
_symmetry_cell_setting 'orthorhombic'
loop_
_space_group_symop_operation_xyz
x,y,z
-x,-y,z
x,-y,-z
-x,y,-z
-x,-y,-z
x,y,-z
-x,y,z
x,-y,z
1/2+x,1/2+y,1/2+z
1/2-x,1/2-y,1/2+z
1/2+x,1/2-y,1/2-z
1/2-x,1/2+y,1/2-z
1/2-x,1/2-y,1/2-z
1/2+x,1/2+y,1/2-z
1/2-x,1/2+y,1/2+z
1/2+x,1/2-y,1/2+z
loop_
_atom_site_type_symbol
_atom_site_label
_atom_site_fract_x
_atom_site_fract_y
_atom_site_fract_z
Si Si1 0.272782 0.822640 0.000000
Si Si2 0.189556 0.678580 0.282308
Si Si3 0.223022 0.824182 0.609289
Si Si4 0.620293 0.828829 0.384256
Si Si5 0.135768 0.326132 0.000000
Si Si6 0.424310 0.326224 0.282181
O O1 0.303363 0.746948 0.053547
O O2 0.194294 0.795582 0.000000
O O3 0.288908 0.000000 0.000000
O O4 0.200217 0.500000 0.283010
O O5 0.250000 0.750000 0.250000
O O6 0.185606 0.740577 0.342512
O O7 0.120782 0.716925 0.253378
O O8 0.301277 0.799119 0.616220
O O9 0.203717 0.000000 0.610532
O O10 0.593328 0.803642 0.445414
O O11 0.583725 0.712769 0.345124
O O12 0.604711 0.000000 0.364921
O O13 0.165819 0.500000 0.000000
O O14 0.500000 0.300968 0.264920
O O15 0.402460 0.500000 0.273479
#
# Coordination Sequence:
#
# PCOD8287352 Si02
#       6
#     8  16  16  16   8  16
#     4  10  18  28  46  77 112 143 176 218 267 320
#     4  12  23  36  57  83 109 141 181 227 276 329
#     4  10  19  33  53  79 110 143 178 222 270 322
#     4   9  17  31  52  74 100 138 181 225 270 319
#     4   8  16  30  47  69 100 136 179 225 271 318
#     4  11  24  39  54  75 107 145 183 227 277 327
#
# _framework density 18.081115
#
# number of rings (size 3 to 8) (size 9 to 14) (size 15 to 20)
#    0.000    1.800    2.000    5.100    0.000    4.800 
#    0.000    0.500    0.000    3.000    0.000    0.700 
#    0.000    5.600    0.000    0.000    0.000    0.000 
#
# Total GULP energy -495984.916964 kJ/mol
# GULP energy per Si atom -12399.622924 kJ/mol
# Density = 1.803996 g / cm^3
# Si number density = 18.081115 Si / 1000 Ang^3
#
#
#
# Elastic Constant Matrix: (Units=GPa)
#
#
# Indices 1 2 3 4 5 6 
#
# 1 49.6267 32.5185 34.1844 0.0000 0.0000 0.0000
# 2 32.5185 132.9042 62.6349 0.0000 0.0000 0.0000
# 3 34.1844 62.6349 144.8938 0.0000 0.0000 0.0000
# 4 0.0000 0.0000 0.0000 36.7915 0.0000 0.0000
# 5 0.0000 0.0000 0.0000 0.0000 14.3416 0.0000
# 6 0.0000 0.0000 0.0000 0.0000 0.0000 20.8593
#
#
#
# Elastic Compliance Matrix: (Units=1/GPa)
#
#
# Indices 1 2 3 4 5 6 
#
# 1 0.025915 -0.004344 -0.004236 0.000000 0.000000 0.000000
# 2 -0.004344 0.010178 -0.003375 0.000000 0.000000 0.000000
# 3 -0.004236 -0.003375 0.009360 0.000000 0.000000 0.000000
# 4 0.000000 0.000000 0.000000 0.027180 0.000000 0.000000
# 5 0.000000 0.000000 0.000000 0.000000 0.069727 0.000000
# 6 0.000000 0.000000 0.000000 0.000000 0.000000 0.047940
#
#
# Mechanical properties :
#
#
# Convention : Reuss Voigt Hill
#
# Bulk Modulus (GPa) = 46.42040 65.12227 55.77134
# Shear Modulus (GPa) = 22.58448 27.60428 25.09438
#
# Velocity S-wave (km/s) = 3.53804 3.91153 3.72946
# Velocity P-wave (km/s) = 6.51303 7.51632 7.03258
#
# Compressibility (1/GPa) = 0.02154225
#
# Stress axis : x y z
#
# Youngs Moduli (GPa) = 38.58752 98.25517 106.83999
#
# Poissons Ratio (x) = 0.42686 0.45258
# Poissons Ratio (y) = 0.16764 0.36054
# Poissons Ratio (z) = 0.16346 0.33157
#
# Static dielectric constant tensor:
#      x y z
#    x 2.865510 0.000000 0.000000 
#    y 0.000000 3.389320 0.000000 
#    z 0.000000 0.000000 3.795640 
# 
# 
# High freq. dielectric constant tensor:
#      x y z
#    x 1.640560 0.000000 0.000000 
#    y 0.000000 1.710670 0.000000 
#    z 0.000000 0.000000 1.718050 
# 
# From -- ./inp_files/12411.got.cif
#   From: 2010.06.25/outbox.cif.g09.slc.cpg/sg71_7_cif.got.tgz:12411.got - 2010.06.28 04:59:45.
