data_PCOD8287628
_publ_section_title
;
Structure prediction by ZEFSAII (Michael W. Deem and Ramdas Pophale) SiO2 
 PCOD8287628
Probable space group: I M M M
;
_chemical_formula_sum "Si O2"
_cell_formula_units_Z 128
_cell_length_a 22.848778
_cell_length_b 12.040526
_cell_length_c 27.212320
_cell_angle_alpha 90.000000
_cell_angle_beta 90.000000
_cell_angle_gamma 90.000000
_cell_volume 7486.416883
_symmetry_space_group_name_H-M "I M M M"
_symmetry_group_IT_number 71
_symmetry_cell_setting 'orthorhombic'
loop_
_space_group_symop_operation_xyz
x,y,z
-x,-y,z
x,-y,-z
-x,y,-z
-x,-y,-z
x,y,-z
-x,y,z
x,-y,z
1/2+x,1/2+y,1/2+z
1/2-x,1/2-y,1/2+z
1/2+x,1/2-y,1/2-z
1/2-x,1/2+y,1/2-z
1/2-x,1/2-y,1/2-z
1/2+x,1/2+y,1/2-z
1/2-x,1/2+y,1/2+z
1/2+x,1/2-y,1/2+z
loop_
_atom_site_type_symbol
_atom_site_label
_atom_site_fract_x
_atom_site_fract_y
_atom_site_fract_z
Si Si1 0.563302 0.131113 0.054038
Si Si2 0.277483 0.629553 0.555221
Si Si3 0.859294 0.762651 0.127703
Si Si4 0.431333 0.368063 0.716392
Si Si5 0.780442 0.628735 0.197620
Si Si6 0.837471 0.244286 0.718998
Si Si7 0.332433 0.132334 0.117899
Si Si8 0.065488 0.630992 0.054091
O O1 0.500000 0.161959 0.076464
O O2 0.612920 0.179651 0.088032
O O3 0.570790 0.000000 0.049939
O O4 0.569715 0.183648 0.000000
O O5 0.278475 0.683075 0.500000
O O6 0.270030 0.500000 0.548521
O O7 0.336443 0.653445 0.585725
O O8 0.223717 0.675064 0.587801
O O9 0.899863 0.827118 0.166545
O O10 0.802895 0.703996 0.152380
O O11 0.896507 0.671054 0.099592
O O12 0.500000 0.332266 0.717095
O O13 0.425550 0.500000 0.719053
O O14 0.397498 0.315454 0.763374
O O15 0.786768 0.500000 0.183935
O O16 0.821884 0.658428 0.243045
O O17 0.713755 0.653052 0.213532
O O18 0.843069 0.307008 0.668441
O O19 0.330913 0.000000 0.126086
O O20 0.064552 0.500000 0.056923
O O21 0.000000 0.678556 0.060352
O O22 0.089617 0.668040 0.000000
#
# Coordination Sequence:
#
# PCOD8287628 Si02
#       8
#    16  16  16  16  16  16  16  16
#     4   8  14  25  42  65  94 129 164 194 230 282
#     4  10  20  32  48  74 107 139 169 205 250 302
#     4  11  19  33  53  76 100 131 170 211 250 299
#     4  10  22  38  55  74  99 132 171 215 258 301
#     4  10  20  33  50  73  98 127 163 205 253 301
#     4  10  20  34  51  74  97 129 165 208 251 298
#     4  10  18  30  48  73 104 135 165 200 249 302
#     4   9  18  32  50  73 101 134 170 206 247 297
#
# _framework density 17.097631
#
# number of rings (size 3 to 8) (size 9 to 14) (size 15 to 20)
#    0.000    2.250    1.250    3.375    0.000    2.000 
#    0.000    0.000    0.000    7.125    0.000    5.250 
#    0.000    0.000    0.000    6.000    0.000    0.500 
#
# Total GULP energy -793107.661325 kJ/mol
# GULP energy per Si atom -12392.307208 kJ/mol
# Density = 1.705872 g / cm^3
# Si number density = 17.097631 Si / 1000 Ang^3
#
#
#
# Elastic Constant Matrix: (Units=GPa)
#
#
# Indices 1 2 3 4 5 6 
#
# 1 113.3997 30.0620 57.6131 0.0000 0.0000 0.0000
# 2 30.0620 47.5779 28.8158 0.0000 0.0000 0.0000
# 3 57.6131 28.8158 122.2901 0.0000 0.0000 0.0000
# 4 0.0000 0.0000 0.0000 27.4695 0.0000 0.0000
# 5 0.0000 0.0000 0.0000 0.0000 23.3636 0.0000
# 6 0.0000 0.0000 0.0000 0.0000 0.0000 17.7782
#
#
#
# Elastic Compliance Matrix: (Units=1/GPa)
#
#
# Indices 1 2 3 4 5 6 
#
# 1 0.012564 -0.005078 -0.004722 0.000000 0.000000 0.000000
# 2 -0.005078 0.026570 -0.003868 0.000000 0.000000 0.000000
# 3 -0.004722 -0.003868 0.011314 0.000000 0.000000 0.000000
# 4 0.000000 0.000000 0.000000 0.036404 0.000000 0.000000
# 5 0.000000 0.000000 0.000000 0.000000 0.042802 0.000000
# 6 0.000000 0.000000 0.000000 0.000000 0.000000 0.056249
#
#
# Mechanical properties :
#
#
# Convention : Reuss Voigt Hill
#
# Bulk Modulus (GPa) = 43.27286 57.36107 50.31697
# Shear Modulus (GPa) = 22.63032 24.84071 23.73552
#
# Velocity S-wave (km/s) = 3.64207 3.81579 3.72994
# Velocity P-wave (km/s) = 6.56128 7.28256 6.93131
#
# Compressibility (1/GPa) = 0.02310917
#
# Stress axis : x y z
#
# Youngs Moduli (GPa) = 79.59335 37.63681 88.38911
#
# Poissons Ratio (x) = 0.19113 0.41741
# Poissons Ratio (y) = 0.40420 0.34191
# Poissons Ratio (z) = 0.37588 0.14559
#
# Static dielectric constant tensor:
#      x y z
#    x 3.451110 0.000000 0.000000 
#    y 0.000000 2.837740 0.000000 
#    z 0.000000 0.000000 3.476400 
# 
# 
# High freq. dielectric constant tensor:
#      x y z
#    x 1.666160 0.000000 0.000000 
#    y 0.000000 1.627340 0.000000 
#    z 0.000000 0.000000 1.672160 
# 
# From -- ./inp_files/67011.got.cif
#   From: 2010.06.25/outbox.cif.g09.slc.cpg/sg71_34_cif.got.tgz:67011.got - 2010.06.28 04:59:45.
