data_PCOD8287489
_publ_section_title
;
Structure prediction by ZEFSAII (Michael W. Deem and Ramdas Pophale) SiO2 
 PCOD8287489
Probable space group: I M M M
;
_chemical_formula_sum "Si O2"
_cell_formula_units_Z 64
_cell_length_a 39.976775
_cell_length_b 5.183251
_cell_length_c 16.925451
_cell_angle_alpha 90.000000
_cell_angle_beta 90.000000
_cell_angle_gamma 90.000000
_cell_volume 3507.116930
_symmetry_space_group_name_H-M "I M M M"
_symmetry_group_IT_number 71
_symmetry_cell_setting 'orthorhombic'
loop_
_space_group_symop_operation_xyz
x,y,z
-x,-y,z
x,-y,-z
-x,y,-z
-x,-y,-z
x,y,-z
-x,y,z
x,-y,z
1/2+x,1/2+y,1/2+z
1/2-x,1/2-y,1/2+z
1/2+x,1/2-y,1/2-z
1/2-x,1/2+y,1/2-z
1/2-x,1/2-y,1/2-z
1/2+x,1/2+y,1/2-z
1/2-x,1/2+y,1/2+z
1/2+x,1/2-y,1/2+z
loop_
_atom_site_type_symbol
_atom_site_label
_atom_site_fract_x
_atom_site_fract_y
_atom_site_fract_z
Si Si1 0.624686 0.000000 0.172666
Si Si2 0.689369 0.000000 0.593049
Si Si3 0.462926 0.500000 0.184784
Si Si4 0.604614 0.500000 0.734536
Si Si5 0.851705 0.000000 0.092910
Si Si6 0.442963 0.000000 0.908256
Si Si7 0.736015 0.500000 0.906005
Si Si8 0.196361 0.500000 0.406189
O O1 0.620952 0.250928 0.226148
O O2 0.596964 0.000000 0.103754
O O3 0.660268 0.000000 0.132011
O O4 0.669574 0.746937 0.620015
O O5 0.693106 0.000000 0.500000
O O6 0.726536 0.000000 0.630425
O O7 0.500000 0.500000 0.223091
O O8 0.435637 0.500000 0.255399
O O9 0.459119 0.250931 0.130318
O O10 0.613434 0.500000 0.641259
O O11 0.860384 0.000000 0.000000
O O12 0.451526 0.000000 0.000000
O O13 0.716557 0.248482 0.875915
O O14 0.738002 0.500000 0.000000
O O15 0.192168 0.500000 0.500000
#
# Coordination Sequence:
#
# PCOD8287489 Si02
#       8
#     8   8   8   8   8   8   8   8
#     4  10  20  34  50  70 101 137 169 203 246 287
#     4   9  17  30  50  76 100 121 155 205 255 295
#     4  10  21  35  52  75 104 138 166 195 243 293
#     4  10  21  36  53  73  99 129 160 198 245 301
#     4  10  19  33  56  78  94 119 158 205 250 296
#     4  10  20  33  51  76 104 135 176 216 239 266
#     4   9  17  28  45  71  98 126 164 208 248 287
#     4  10  18  29  48  70  95 132 175 210 237 276
#
# _framework density 18.248608999999998
#
# number of rings (size 3 to 8) (size 9 to 14) (size 15 to 20)
#    0.000    2.250    0.000    3.375    0.000    4.500 
#    0.000    3.750    0.000   15.375    0.000    0.000 
#    0.000    9.000    0.000    0.000    0.000    1.500 
#
# Total GULP energy -396793.048319 kJ/mol
# GULP energy per Si atom -12399.782760 kJ/mol
# Density = 1.820707 g / cm^3
# Si number density = 18.248609 Si / 1000 Ang^3
#
#
#
# Elastic Constant Matrix: (Units=GPa)
#
#
# Indices 1 2 3 4 5 6 
#
# 1 171.5317 64.8179 63.7671 0.0000 0.0000 0.0000
# 2 64.8179 171.4614 33.9238 0.0000 0.0000 0.0000
# 3 63.7671 33.9238 53.8168 0.0000 0.0000 0.0000
# 4 0.0000 0.0000 0.0000 7.3966 0.0000 0.0000
# 5 0.0000 0.0000 0.0000 0.0000 17.3210 0.0000
# 6 0.0000 0.0000 0.0000 0.0000 0.0000 25.4335
#
#
#
# Elastic Compliance Matrix: (Units=1/GPa)
#
#
# Indices 1 2 3 4 5 6 
#
# 1 0.010877 -0.001785 -0.011763 0.000000 0.000000 0.000000
# 2 -0.001785 0.006956 -0.002270 0.000000 0.000000 0.000000
# 3 -0.011763 -0.002270 0.033951 0.000000 0.000000 0.000000
# 4 0.000000 0.000000 0.000000 0.135198 0.000000 0.000000
# 5 0.000000 0.000000 0.000000 0.000000 0.057734 0.000000
# 6 0.000000 0.000000 0.000000 0.000000 0.000000 0.039318
#
#
# Mechanical properties :
#
#
# Convention : Reuss Voigt Hill
#
# Bulk Modulus (GPa) = 49.63328 80.20304 64.91816
# Shear Modulus (GPa) = 15.50933 25.65028 20.57980
#
# Velocity S-wave (km/s) = 2.91845 3.75320 3.36184
# Velocity P-wave (km/s) = 6.21401 7.92639 7.12185
#
# Compressibility (1/GPa) = 0.02014777
#
# Stress axis : x y z
#
# Youngs Moduli (GPa) = 91.93514 143.76060 29.45412
#
# Poissons Ratio (x) = 0.25654 0.34648
# Poissons Ratio (y) = 0.16406 0.06687
# Poissons Ratio (z) = 1.08148 0.32638
#
# Static dielectric constant tensor:
#      x y z
#    x 3.497990 0.000000 0.000000 
#    y 0.000000 3.633150 0.000000 
#    z 0.000000 0.000000 2.994310 
# 
# 
# High freq. dielectric constant tensor:
#      x y z
#    x 1.709630 0.000000 0.000000 
#    y 0.000000 1.734380 0.000000 
#    z 0.000000 0.000000 1.667410 
# 
# From -- ./inp_files/49097.got.cif
#   From: 2010.06.25/outbox.cif.g09.slc.cpg/sg71_25_cif.got.tgz:49097.got - 2010.06.28 04:59:45.
