data_PCOD8287220
_publ_section_title
;
Structure prediction by ZEFSAII (Michael W. Deem and Ramdas Pophale) SiO2 
 PCOD8287220
Probable space group: I M M M
;
_chemical_formula_sum "Si O2"
_cell_formula_units_Z 56
_cell_length_a 32.075205
_cell_length_b 9.322814
_cell_length_c 13.722974
_cell_angle_alpha 90.000000
_cell_angle_beta 90.000000
_cell_angle_gamma 90.000000
_cell_volume 4103.596974
_symmetry_space_group_name_H-M "I M M M"
_symmetry_group_IT_number 71
_symmetry_cell_setting 'orthorhombic'
loop_
_space_group_symop_operation_xyz
x,y,z
-x,-y,z
x,-y,-z
-x,y,-z
-x,-y,-z
x,y,-z
-x,y,z
x,-y,z
1/2+x,1/2+y,1/2+z
1/2-x,1/2-y,1/2+z
1/2+x,1/2-y,1/2-z
1/2-x,1/2+y,1/2-z
1/2-x,1/2-y,1/2-z
1/2+x,1/2+y,1/2-z
1/2-x,1/2+y,1/2+z
1/2+x,1/2-y,1/2+z
loop_
_atom_site_type_symbol
_atom_site_label
_atom_site_fract_x
_atom_site_fract_y
_atom_site_fract_z
Si Si1 0.622771 0.840199 0.389815
Si Si2 0.454423 0.000000 0.614613
Si Si3 0.230470 0.333849 0.388033
Si Si4 0.313451 0.666951 0.727208
O O1 0.626857 0.779751 0.500000
O O2 0.644108 0.731689 0.315346
O O3 0.643581 0.000000 0.384737
O O4 0.573565 0.858501 0.359620
O O5 0.500000 0.000000 0.667064
O O6 0.461172 0.000000 0.500000
O O7 0.228652 0.286948 0.500000
O O8 0.219186 0.500000 0.373798
O O9 0.276778 0.301342 0.349532
O O10 0.196659 0.240767 0.330128
O O11 0.320184 0.500000 0.745998
#
# Coordination Sequence:
#
# PCOD8287220 Si02
#       4
#    16   8  16  16
#     4   8  15  25  40  60  80 106 136 165 195 236
#     4   7  12  24  42  62  81 105 137 169 200 236
#     4   9  18  30  41  53  76 111 144 173 201 232
#     4  10  18  27  40  59  82 106 136 172 206 240
#
# _framework density 13.646564
#
# number of rings (size 3 to 8) (size 9 to 14) (size 15 to 20)
#    0.857    2.429    0.000    1.714    0.000    3.429 
#    0.000    0.000    0.000    0.857    0.000    4.000 
#    0.000    2.286    0.000    2.571    0.000    0.000 
#
# Total GULP energy -346891.599516 kJ/mol
# GULP energy per Si atom -12388.985697 kJ/mol
# Density = 1.361550 g / cm^3
# Si number density = 13.646564 Si / 1000 Ang^3
#
#
#
# Elastic Constant Matrix: (Units=GPa)
#
#
# Indices 1 2 3 4 5 6 
#
# 1 92.5547 41.7629 42.9772 0.0000 0.0000 0.0000
# 2 41.7629 60.5462 41.5627 0.0000 0.0000 0.0000
# 3 42.9772 41.5627 88.8068 0.0000 0.0000 0.0000
# 4 0.0000 0.0000 0.0000 19.2498 0.0000 0.0000
# 5 0.0000 0.0000 0.0000 0.0000 14.1265 0.0000
# 6 0.0000 0.0000 0.0000 0.0000 0.0000 10.9940
#
#
#
# Elastic Compliance Matrix: (Units=1/GPa)
#
#
# Indices 1 2 3 4 5 6 
#
# 1 0.016570 -0.008729 -0.003933 0.000000 0.000000 0.000000
# 2 -0.008729 0.028933 -0.009317 0.000000 0.000000 0.000000
# 3 -0.003933 -0.009317 0.017524 0.000000 0.000000 0.000000
# 4 0.000000 0.000000 0.000000 0.051949 0.000000 0.000000
# 5 0.000000 0.000000 0.000000 0.000000 0.070789 0.000000
# 6 0.000000 0.000000 0.000000 0.000000 0.000000 0.090959
#
#
# Mechanical properties :
#
#
# Convention : Reuss Voigt Hill
#
# Bulk Modulus (GPa) = 52.44232 54.94591 53.69411
# Shear Modulus (GPa) = 15.28877 16.58104 15.93490
#
# Velocity S-wave (km/s) = 3.35078 3.48952 3.42085
# Velocity P-wave (km/s) = 7.31318 7.52241 7.41853
#
# Compressibility (1/GPa) = 0.01906857
#
# Stress axis : x y z
#
# Youngs Moduli (GPa) = 60.35137 34.56282 57.06396
#
# Poissons Ratio (x) = 0.30170 0.22446
# Poissons Ratio (y) = 0.52681 0.53164
# Poissons Ratio (z) = 0.23739 0.32201
#
# Static dielectric constant tensor:
#      x y z
#    x 2.756060 0.000000 0.000000 
#    y 0.000000 2.575240 0.000000 
#    z 0.000000 0.000000 2.557970 
# 
# 
# High freq. dielectric constant tensor:
#      x y z
#    x 1.495430 0.000000 0.000000 
#    y 0.000000 1.510980 0.000000 
#    z 0.000000 0.000000 1.502000 
# 
# From -- ./inp_files/39837.got.cif
#   From: 2010.06.25/outbox.cif.g09.slc.cpg/sg71_20_cif.got.tgz:39837.got - 2010.06.28 04:59:45.
