data_PCOD8287900
_publ_section_title
;
Structure prediction by ZEFSAII (Michael W. Deem and Ramdas Pophale) SiO2 
 PCOD8287900
Probable space group: I M M M
;
_chemical_formula_sum "Si O2"
_cell_formula_units_Z 72
_cell_length_a 27.707539
_cell_length_b 8.955991
_cell_length_c 18.967803
_cell_angle_alpha 90.000000
_cell_angle_beta 90.000000
_cell_angle_gamma 90.000000
_cell_volume 4706.831292
_symmetry_space_group_name_H-M "I M M M"
_symmetry_group_IT_number 71
_symmetry_cell_setting 'orthorhombic'
loop_
_space_group_symop_operation_xyz
x,y,z
-x,-y,z
x,-y,-z
-x,y,-z
-x,-y,-z
x,y,-z
-x,y,z
x,-y,z
1/2+x,1/2+y,1/2+z
1/2-x,1/2-y,1/2+z
1/2+x,1/2-y,1/2-z
1/2-x,1/2+y,1/2-z
1/2-x,1/2-y,1/2-z
1/2+x,1/2+y,1/2-z
1/2-x,1/2+y,1/2+z
1/2+x,1/2-y,1/2+z
loop_
_atom_site_type_symbol
_atom_site_label
_atom_site_fract_x
_atom_site_fract_y
_atom_site_fract_z
Si Si1 0.405890 0.326503 0.129700
Si Si2 0.343046 0.323961 0.000000
Si Si3 0.231019 0.825475 0.140976
Si Si4 0.000000 0.676294 0.418655
Si Si5 0.734750 0.177143 0.500000
Si Si6 0.817448 0.827558 0.715884
O O1 0.419722 0.500000 0.121186
O O2 0.371750 0.267566 0.067560
O O3 0.454513 0.231889 0.126587
O O4 0.374360 0.296930 0.200568
O O5 0.289322 0.259019 0.000000
O O6 0.338319 0.500000 0.000000
O O7 0.192657 0.788576 0.202796
O O8 0.283720 0.767734 0.163939
O O9 0.234507 0.000000 0.125675
O O10 0.210914 0.742683 0.071192
O O11 0.000000 0.500000 0.420146
O O12 0.000000 0.737936 0.500000
O O13 0.729623 0.000000 0.500000
O O14 0.805169 0.000000 0.698964
#
# Coordination Sequence:
#
# PCOD8287900 Si02
#       6
#    16   8  16   8   8  16
#     4  10  18  32  49  62  81 119 160 188 219 265
#     4   9  16  26  44  63  82 114 156 190 213 250
#     4  10  19  29  44  68  93 117 149 189 230 268
#     4  11  23  33  41  63  93 116 145 194 239 261
#     4  11  19  31  46  64  91 123 158 190 222 267
#     4   9  18  32  47  64  89 120 153 187 225 272
#
# _framework density 15.296915
#
# number of rings (size 3 to 8) (size 9 to 14) (size 15 to 20)
#    0.000    2.111    3.333    1.333    0.000    2.222 
#    0.000    0.000    0.000    0.000    0.000    0.000 
#    0.000    0.889    0.000   10.222    0.000    4.000 
#
# Total GULP energy -446284.823397 kJ/mol
# GULP energy per Si atom -12396.800650 kJ/mol
# Density = 1.526210 g / cm^3
# Si number density = 15.296915 Si / 1000 Ang^3
#
#
#
# Elastic Constant Matrix: (Units=GPa)
#
#
# Indices 1 2 3 4 5 6 
#
# 1 80.9701 27.6017 40.3285 0.0000 0.0000 0.0000
# 2 27.6017 65.5414 44.8047 0.0000 0.0000 0.0000
# 3 40.3285 44.8047 108.6152 0.0000 0.0000 0.0000
# 4 0.0000 0.0000 0.0000 23.8373 0.0000 0.0000
# 5 0.0000 0.0000 0.0000 0.0000 28.5125 0.0000
# 6 0.0000 0.0000 0.0000 0.0000 0.0000 19.6649
#
#
#
# Elastic Compliance Matrix: (Units=1/GPa)
#
#
# Indices 1 2 3 4 5 6 
#
# 1 0.015763 -0.003673 -0.004337 0.000000 0.000000 0.000000
# 2 -0.003673 0.022106 -0.007755 0.000000 0.000000 0.000000
# 3 -0.004337 -0.007755 0.014016 0.000000 0.000000 0.000000
# 4 0.000000 0.000000 0.000000 0.041951 0.000000 0.000000
# 5 0.000000 0.000000 0.000000 0.000000 0.035072 0.000000
# 6 0.000000 0.000000 0.000000 0.000000 0.000000 0.050852
#
#
# Mechanical properties :
#
#
# Convention : Reuss Voigt Hill
#
# Bulk Modulus (GPa) = 49.13118 53.39960 51.26539
# Shear Modulus (GPa) = 22.92779 23.89573 23.41176
#
# Velocity S-wave (km/s) = 3.87570 3.95666 3.91639
# Velocity P-wave (km/s) = 7.22607 7.47383 7.35099
#
# Compressibility (1/GPa) = 0.02035367
#
# Stress axis : x y z
#
# Youngs Moduli (GPa) = 63.44097 45.23701 71.34539
#
# Poissons Ratio (x) = 0.16616 0.30946
# Poissons Ratio (y) = 0.23302 0.55329
# Poissons Ratio (z) = 0.27517 0.35081
#
# Static dielectric constant tensor:
#      x y z
#    x 2.818200 0.000000 0.000000 
#    y 0.000000 2.861700 0.000000 
#    z 0.000000 0.000000 3.055550 
# 
# 
# High freq. dielectric constant tensor:
#      x y z
#    x 1.553000 0.000000 0.000000 
#    y 0.000000 1.585460 0.000000 
#    z 0.000000 0.000000 1.578020 
# 
# From -- ./inp_files/8201.got.cif
#   From: 2010.06.25/outbox.cif.g09.slc.cpg/sg71_5_cif.got.tgz:8201.got - 2010.06.28 04:59:45.
