data_PCOD8287303
_publ_section_title
;
Structure prediction by ZEFSAII (Michael W. Deem and Ramdas Pophale) SiO2 
 PCOD8287303
Probable space group: I M M M
;
_chemical_formula_sum "Si O2"
_cell_formula_units_Z 112
_cell_length_a 29.154095
_cell_length_b 9.326278
_cell_length_c 25.690935
_cell_angle_alpha 90.000000
_cell_angle_beta 90.000000
_cell_angle_gamma 90.000000
_cell_volume 6985.344540
_symmetry_space_group_name_H-M "I M M M"
_symmetry_group_IT_number 71
_symmetry_cell_setting 'orthorhombic'
loop_
_space_group_symop_operation_xyz
x,y,z
-x,-y,z
x,-y,-z
-x,y,-z
-x,-y,-z
x,y,-z
-x,y,z
x,-y,z
1/2+x,1/2+y,1/2+z
1/2-x,1/2-y,1/2+z
1/2+x,1/2-y,1/2-z
1/2-x,1/2+y,1/2-z
1/2-x,1/2-y,1/2-z
1/2+x,1/2+y,1/2-z
1/2-x,1/2+y,1/2+z
1/2+x,1/2-y,1/2+z
loop_
_atom_site_type_symbol
_atom_site_label
_atom_site_fract_x
_atom_site_fract_y
_atom_site_fract_z
Si Si1 0.702343 0.831128 0.747593
Si Si2 0.703051 0.829205 0.942679
Si Si3 0.950190 0.329391 0.689130
Si Si4 0.644997 0.170492 0.152410
Si Si5 0.806494 0.834842 0.939963
Si Si6 0.550114 0.170008 0.306185
Si Si7 0.856670 0.669080 0.147179
O O1 0.750000 0.750000 0.750000
O O2 0.671809 0.779056 0.796226
O O3 0.676232 0.788000 0.694891
O O4 0.711640 0.000000 0.750365
O O5 0.669002 0.764369 0.899147
O O6 0.754745 0.778773 0.930262
O O7 0.702166 0.000000 0.942499
O O8 0.687978 0.773390 0.000000
O O9 0.948198 0.500000 0.690784
O O10 0.907608 0.271796 0.654586
O O11 0.944534 0.269649 0.747664
O O12 0.000000 0.279711 0.666406
O O13 0.645685 0.000000 0.149377
O O14 0.840888 0.742696 0.905641
O O15 0.810690 0.000000 0.923361
O O16 0.820231 0.814101 0.000000
O O17 0.500000 0.216259 0.328816
O O18 0.591794 0.227527 0.341462
O O19 0.553731 0.000000 0.303323
O O20 0.856364 0.500000 0.138421
#
# Coordination Sequence:
#
# PCOD8287303 Si02
#       7
#    16  16  16  16  16  16  16
#     4  10  19  28  39  60  88 115 140 170 212 259
#     4   8  14  24  38  54  72 103 147 181 200 232
#     4   8  12  19  33  53  77 105 135 165 201 247
#     4   9  14  22  36  54  79 106 133 169 209 245
#     4   9  18  32  47  62  82 113 150 177 204 252
#     4   8  13  23  39  59  84 109 133 167 211 257
#     4  10  18  28  44  67  89 107 137 180 221 257
#
# _framework density 16.033567999999999
#
# number of rings (size 3 to 8) (size 9 to 14) (size 15 to 20)
#    0.000    3.143    1.429    2.571    0.000    2.000 
#    0.000    0.000    0.000    1.286    0.000    6.000 
#    0.000    0.571    0.000    0.000    0.000    0.000 
#
# Total GULP energy -693920.578641 kJ/mol
# GULP energy per Si atom -12391.438904 kJ/mol
# Density = 1.599707 g / cm^3
# Si number density = 16.033568 Si / 1000 Ang^3
#
#
#
# Elastic Constant Matrix: (Units=GPa)
#
#
# Indices 1 2 3 4 5 6 
#
# 1 156.6553 24.8425 69.8328 0.0000 0.0000 0.0000
# 2 24.8425 14.9211 19.7743 0.0000 0.0000 0.0000
# 3 69.8328 19.7743 95.7339 0.0000 0.0000 0.0000
# 4 0.0000 0.0000 0.0000 15.6392 0.0000 0.0000
# 5 0.0000 0.0000 0.0000 0.0000 26.3844 0.0000
# 6 0.0000 0.0000 0.0000 0.0000 0.0000 15.4170
#
#
#
# Elastic Compliance Matrix: (Units=1/GPa)
#
#
# Indices 1 2 3 4 5 6 
#
# 1 0.010449 -0.010046 -0.005547 0.000000 0.000000 0.000000
# 2 -0.010046 0.101938 -0.013728 0.000000 0.000000 0.000000
# 3 -0.005547 -0.013728 0.017328 0.000000 0.000000 0.000000
# 4 0.000000 0.000000 0.000000 0.063942 0.000000 0.000000
# 5 0.000000 0.000000 0.000000 0.000000 0.037901 0.000000
# 6 0.000000 0.000000 0.000000 0.000000 0.000000 0.064863
#
#
# Mechanical properties :
#
#
# Convention : Reuss Voigt Hill
#
# Bulk Modulus (GPa) = 14.07007 55.13441 34.60224
# Shear Modulus (GPa) = 13.20119 21.67884 17.44001
#
# Velocity S-wave (km/s) = 2.87252 3.68107 3.30164
# Velocity P-wave (km/s) = 4.44929 7.24766 6.01352
#
# Compressibility (1/GPa) = 0.07107286
#
# Stress axis : x y z
#
# Youngs Moduli (GPa) = 95.69992 9.80991 57.71159
#
# Poissons Ratio (x) = 0.09855 0.32014
# Poissons Ratio (y) = 0.96139 0.79225
# Poissons Ratio (z) = 0.53087 0.13467
#
# Static dielectric constant tensor:
#      x y z
#    x 3.412440 0.000000 0.000000 
#    y 0.000000 2.470100 0.000000 
#    z 0.000000 0.000000 3.108390 
# 
# 
# High freq. dielectric constant tensor:
#      x y z
#    x 1.627260 0.000000 0.000000 
#    y 0.000000 1.554410 0.000000 
#    z 0.000000 0.000000 1.604040 
# 
# From -- ./inp_files/27950.got.cif
#   From: 2010.06.25/outbox.cif.g09.slc.cpg/sg71_14_cif.got.tgz:27950.got - 2010.06.28 04:59:45.
