data_PCOD8287075
_publ_section_title
;
Structure prediction by ZEFSAII (Michael W. Deem and Ramdas Pophale) SiO2 
 PCOD8287075
Probable space group: I M M M
;
_chemical_formula_sum "Si O2"
_cell_formula_units_Z 96
_cell_length_a 8.985325
_cell_length_b 28.887638
_cell_length_c 20.002544
_cell_angle_alpha 90.000000
_cell_angle_beta 90.000000
_cell_angle_gamma 90.000000
_cell_volume 5191.956651
_symmetry_space_group_name_H-M "I M M M"
_symmetry_group_IT_number 71
_symmetry_cell_setting 'orthorhombic'
loop_
_space_group_symop_operation_xyz
x,y,z
-x,-y,z
x,-y,-z
-x,y,-z
-x,-y,-z
x,y,-z
-x,y,z
x,-y,z
1/2+x,1/2+y,1/2+z
1/2-x,1/2-y,1/2+z
1/2+x,1/2-y,1/2-z
1/2-x,1/2+y,1/2-z
1/2-x,1/2-y,1/2-z
1/2+x,1/2+y,1/2-z
1/2-x,1/2+y,1/2+z
1/2+x,1/2-y,1/2+z
loop_
_atom_site_type_symbol
_atom_site_label
_atom_site_fract_x
_atom_site_fract_y
_atom_site_fract_z
Si Si1 0.323326 0.100727 0.298109
Si Si2 0.164413 0.195705 0.696934
Si Si3 0.665306 0.277771 0.651418
Si Si4 0.676738 0.948230 0.427639
Si Si5 0.175330 0.637802 0.577654
Si Si6 0.676548 0.051921 0.164790
O O1 0.500000 0.099821 0.297497
O O2 0.272421 0.152867 0.293503
O O3 0.254993 0.080901 0.366927
O O4 0.262308 0.070542 0.235938
O O5 0.234981 0.231475 0.642763
O O6 0.148291 0.217180 0.769741
O O7 0.000000 0.181722 0.670546
O O8 0.500000 0.271125 0.620101
O O9 0.742059 0.321264 0.616105
O O10 0.723367 0.927002 0.500000
O O11 0.500000 0.949166 0.421517
O O12 0.739578 0.000000 0.421973
O O13 0.219097 0.638782 0.500000
O O14 0.227035 0.587999 0.607242
O O15 0.000000 0.644792 0.588678
O O16 0.500000 0.049196 0.166922
O O17 0.740638 0.000000 0.150955
#
# Coordination Sequence:
#
# PCOD8287075 Si02
#       6
#    16  16  16  16  16  16
#     4  10  17  28  50  77 104 136 173 214 258 305
#     4  10  20  33  53  78 104 130 164 212 264 313
#     4  10  20  35  55  77 100 131 171 213 258 311
#     4   8  14  25  43  70 102 133 167 208 252 297
#     4  10  20  34  53  77 108 143 176 217 269 317
#     4   9  17  29  48  76 106 136 177 224 262 304
#
# _framework density 18.490138999999999
#
# number of rings (size 3 to 8) (size 9 to 14) (size 15 to 20)
#    0.000    2.500    1.667    2.000    0.000    4.000 
#    0.000    2.500    0.000    7.000    0.000    2.333 
#    0.000    0.000    0.000    0.000    0.000    0.000 
#
# Total GULP energy -594841.893500 kJ/mol
# GULP energy per Si atom -12392.539448 kJ/mol
# Density = 1.844805 g / cm^3
# Si number density = 18.490139 Si / 1000 Ang^3
#
#
#
# Elastic Constant Matrix: (Units=GPa)
#
#
# Indices 1 2 3 4 5 6 
#
# 1 40.6697 30.6822 33.4223 0.0000 0.0000 0.0000
# 2 30.6822 115.3268 40.3273 0.0000 0.0000 0.0000
# 3 33.4223 40.3273 82.6030 0.0001 0.0000 0.0000
# 4 0.0000 0.0000 0.0001 20.2701 0.0000 0.0000
# 5 0.0000 0.0000 0.0000 0.0000 12.6577 0.0000
# 6 0.0000 0.0000 0.0000 0.0000 0.0000 11.0291
#
#
#
# Elastic Compliance Matrix: (Units=1/GPa)
#
#
# Indices 1 2 3 4 5 6 
#
# 1 0.040018 -0.006011 -0.013257 0.000000 0.000000 0.000000
# 2 -0.006011 0.011359 -0.003113 0.000000 0.000000 0.000000
# 3 -0.013257 -0.003113 0.018990 0.000000 0.000000 0.000000
# 4 0.000000 0.000000 0.000000 0.049334 0.000000 0.000000
# 5 0.000000 0.000000 0.000000 0.000000 0.079004 0.000000
# 6 0.000000 0.000000 0.000000 0.000000 0.000000 0.090669
#
#
# Mechanical properties :
#
#
# Convention : Reuss Voigt Hill
#
# Bulk Modulus (GPa) = 39.05652 49.71813 44.38733
# Shear Modulus (GPa) = 14.59126 17.73588 16.16357
#
# Velocity S-wave (km/s) = 2.81221 3.10047 2.95985
# Velocity P-wave (km/s) = 5.63147 6.30592 5.97821
#
# Compressibility (1/GPa) = 0.02560392
#
# Stress axis : x y z
#
# Youngs Moduli (GPa) = 24.98881 88.03704 52.65888
#
# Poissons Ratio (x) = 0.52918 0.69811
# Poissons Ratio (y) = 0.15020 0.16395
# Poissons Ratio (z) = 0.33128 0.27409
#
# Static dielectric constant tensor:
#      x y z
#    x 3.212540 0.000000 0.000000 
#    y 0.000000 3.511680 0.000000 
#    z 0.000000 0.000000 3.535180 
# 
# 
# High freq. dielectric constant tensor:
#      x y z
#    x 1.681660 0.000000 0.000000 
#    y 0.000000 1.721080 0.000000 
#    z 0.000000 0.000000 1.706520 
# 
# From -- ./inp_files/14816.got.cif
#   From: 2010.06.25/outbox.cif.g09.slc.cpg/sg71_8_cif.got.tgz:14816.got - 2010.06.28 04:59:45.
