data_PCOD8287430
_publ_section_title
;
Structure prediction by ZEFSAII (Michael W. Deem and Ramdas Pophale) SiO2 
 PCOD8287430
Probable space group: I M M M
;
_chemical_formula_sum "Si O2"
_cell_formula_units_Z 88
_cell_length_a 15.426146
_cell_length_b 21.323375
_cell_length_c 18.294187
_cell_angle_alpha 90.000000
_cell_angle_beta 90.000000
_cell_angle_gamma 90.000000
_cell_volume 6017.644062
_symmetry_space_group_name_H-M "I M M M"
_symmetry_group_IT_number 71
_symmetry_cell_setting 'orthorhombic'
loop_
_space_group_symop_operation_xyz
x,y,z
-x,-y,z
x,-y,-z
-x,y,-z
-x,-y,-z
x,y,-z
-x,y,z
x,-y,z
1/2+x,1/2+y,1/2+z
1/2-x,1/2-y,1/2+z
1/2+x,1/2-y,1/2-z
1/2-x,1/2+y,1/2-z
1/2-x,1/2-y,1/2-z
1/2+x,1/2+y,1/2-z
1/2-x,1/2+y,1/2+z
1/2+x,1/2-y,1/2+z
loop_
_atom_site_type_symbol
_atom_site_label
_atom_site_fract_x
_atom_site_fract_y
_atom_site_fract_z
Si Si1 0.500000 0.074146 0.418981
Si Si2 0.599377 0.766220 0.917476
Si Si3 0.826463 0.134064 0.584959
Si Si4 0.832647 0.424736 0.169722
Si Si5 0.000000 0.929812 0.586826
Si Si6 0.102693 0.500000 0.580480
Si Si7 0.101781 0.385667 0.677979
O O1 0.500000 0.103872 0.500000
O O2 0.414945 0.097088 0.377204
O O3 0.500000 0.000000 0.423988
O O4 0.500000 0.743163 0.907905
O O5 0.665161 0.708810 0.904578
O O6 0.622305 0.818984 0.858442
O O7 0.611008 0.792819 0.000000
O O8 0.810846 0.116753 0.500000
O O9 0.750237 0.105513 0.632472
O O10 0.914271 0.103860 0.616194
O O11 0.824639 0.500000 0.174682
O O12 0.842497 0.393955 0.249111
O O13 0.000000 0.927110 0.500000
O O14 0.000000 0.000000 0.617245
O O15 0.144812 0.500000 0.500000
O O16 0.134537 0.438434 0.622272
O O17 0.000000 0.500000 0.574167
O O18 0.000000 0.393998 0.695859
#
# Coordination Sequence:
#
# PCOD8287430 Si02
#       7
#     8  16  16  16   8   8  16
#     4   9  18  30  43  58  84 124 165 193 217 252
#     4   9  17  31  49  68  91 119 154 193 233 284
#     4  10  19  31  47  67  91 121 159 194 230 276
#     4  11  20  30  45  66  94 126 157 196 229 268
#     4   9  16  28  45  64  86 113 148 193 235 269
#     4   9  16  26  44  68  90 117 154 191 229 278
#     4  10  18  29  46  66  93 124 153 189 234 278
#
# _framework density 14.623664
#
# number of rings (size 3 to 8) (size 9 to 14) (size 15 to 20)
#    0.000    2.273    2.727    1.636    0.000    4.727 
#    0.000    0.000    0.000    0.000    0.000    0.000 
#    0.000    0.000    0.000    3.273    0.000    0.000 
#
# Total GULP energy -545523.210465 kJ/mol
# GULP energy per Si atom -12398.254783 kJ/mol
# Density = 1.459038 g / cm^3
# Si number density = 14.623664 Si / 1000 Ang^3
#
#
#
# Elastic Constant Matrix: (Units=GPa)
#
#
# Indices 1 2 3 4 5 6 
#
# 1 91.9459 43.2822 55.5522 0.0000 0.0000 0.0000
# 2 43.2822 80.8874 50.2734 0.0000 0.0000 0.0000
# 3 55.5522 50.2734 113.9496 0.0001 0.0000 0.0000
# 4 0.0000 0.0000 0.0001 15.2236 0.0000 0.0000
# 5 0.0000 0.0000 0.0000 0.0000 19.0096 0.0000
# 6 0.0000 0.0000 0.0000 0.0000 0.0000 18.1485
#
#
#
# Elastic Compliance Matrix: (Units=1/GPa)
#
#
# Indices 1 2 3 4 5 6 
#
# 1 0.016989 -0.005433 -0.005886 0.000000 0.000000 0.000000
# 2 -0.005433 0.018771 -0.005633 0.000000 0.000000 0.000000
# 3 -0.005886 -0.005633 0.014130 0.000000 0.000000 0.000000
# 4 0.000000 0.000000 0.000000 0.065687 0.000000 0.000000
# 5 0.000000 0.000000 0.000000 0.000000 0.052605 0.000000
# 6 0.000000 0.000000 0.000000 0.000000 0.000000 0.055101
#
#
# Mechanical properties :
#
#
# Convention : Reuss Voigt Hill
#
# Bulk Modulus (GPa) = 62.54771 64.99981 63.77376
# Shear Modulus (GPa) = 19.04641 19.65467 19.35054
#
# Velocity S-wave (km/s) = 3.61285 3.67008 3.64158
# Velocity P-wave (km/s) = 7.76324 7.90596 7.83493
#
# Compressibility (1/GPa) = 0.01598779
#
# Stress axis : x y z
#
# Youngs Moduli (GPa) = 58.86013 53.27386 70.76942
#
# Poissons Ratio (x) = 0.28943 0.41653
# Poissons Ratio (y) = 0.31978 0.39864
# Poissons Ratio (z) = 0.34643 0.30009
#
# Static dielectric constant tensor:
#      x y z
#    x 2.655960 0.000000 0.000000 
#    y 0.000000 2.797590 0.000000 
#    z 0.000000 0.000000 2.838090 
# 
# 
# High freq. dielectric constant tensor:
#      x y z
#    x 1.533010 0.000000 0.000000 
#    y 0.000000 1.557150 0.000000 
#    z 0.000000 0.000000 1.553170 
# 
# From -- ./inp_files/36629.got.cif
#   From: 2010.06.25/outbox.cif.g09.slc.cpg/sg71_19_cif.got.tgz:36629.got - 2010.06.28 04:59:45.
