data_PCOD8287740
_publ_section_title
;
Structure prediction by ZEFSAII (Michael W. Deem and Ramdas Pophale) SiO2 
 PCOD8287740
Probable space group: I M M M
;
_chemical_formula_sum "Si O2"
_cell_formula_units_Z 96
_cell_length_a 14.014204
_cell_length_b 12.747167
_cell_length_c 28.496084
_cell_angle_alpha 90.000000
_cell_angle_beta 90.000000
_cell_angle_gamma 90.000000
_cell_volume 5090.580305
_symmetry_space_group_name_H-M "I M M M"
_symmetry_group_IT_number 71
_symmetry_cell_setting 'orthorhombic'
loop_
_space_group_symop_operation_xyz
x,y,z
-x,-y,z
x,-y,-z
-x,y,-z
-x,-y,-z
x,y,-z
-x,y,z
x,-y,z
1/2+x,1/2+y,1/2+z
1/2-x,1/2-y,1/2+z
1/2+x,1/2-y,1/2-z
1/2-x,1/2+y,1/2-z
1/2-x,1/2-y,1/2-z
1/2+x,1/2+y,1/2-z
1/2-x,1/2+y,1/2+z
1/2+x,1/2-y,1/2+z
loop_
_atom_site_type_symbol
_atom_site_label
_atom_site_fract_x
_atom_site_fract_y
_atom_site_fract_z
Si Si1 0.735256 0.000000 0.056018
Si Si2 0.393955 0.807539 0.054938
Si Si3 0.113661 0.000000 0.865616
Si Si4 0.392486 0.623093 0.199978
Si Si5 0.105953 0.382095 0.858597
Si Si6 0.389710 0.685172 0.298829
Si Si7 0.799797 0.880275 0.603103
O O1 0.674805 0.899295 0.073131
O O2 0.835418 0.000000 0.083551
O O3 0.755464 0.000000 0.000000
O O4 0.500000 0.817747 0.077495
O O5 0.349603 0.693903 0.065646
O O6 0.403932 0.818502 0.000000
O O7 0.149979 0.102224 0.836914
O O8 0.000000 0.000000 0.874984
O O9 0.500000 0.663878 0.190539
O O10 0.392060 0.500000 0.208063
O O11 0.345099 0.674409 0.246669
O O12 0.329036 0.655225 0.155490
O O13 0.114038 0.500000 0.837862
O O14 0.126453 0.303491 0.815977
O O15 0.184510 0.367928 0.899720
O O16 0.000000 0.361641 0.880007
O O17 0.500000 0.655977 0.292458
O O18 0.831834 0.000000 0.592640
#
# Coordination Sequence:
#
# PCOD8287740 Si02
#       7
#     8  16   8  16  16  16  16
#     4  10  21  37  56  77 105 144 181 210 255 319
#     4  10  21  38  59  80 104 135 171 212 263 324
#     4  10  18  30  53  84 110 135 178 229 263 292
#     4   9  16  28  46  71 103 132 165 213 266 313
#     4   9  18  32  48  67  99 141 178 208 248 308
#     4   9  16  28  48  72  99 135 176 217 257 300
#     4  10  20  33  53  80 103 132 172 217 265 310
#
# _framework density 18.858360999999999
#
# number of rings (size 3 to 8) (size 9 to 14) (size 15 to 20)
#    0.000    2.500    0.833    1.750    0.000    3.167 
#    0.000    0.833    1.833    1.500    0.000    2.333 
#    0.000    0.000    0.000    0.000    0.000    0.000 
#
# Total GULP energy -594981.863151 kJ/mol
# GULP energy per Si atom -12395.455482 kJ/mol
# Density = 1.881544 g / cm^3
# Si number density = 18.858361 Si / 1000 Ang^3
#
#
#
# Elastic Constant Matrix: (Units=GPa)
#
#
# Indices 1 2 3 4 5 6 
#
# 1 86.7131 31.5178 17.9783 0.0000 0.0000 0.0000
# 2 31.5178 95.0751 19.3979 0.0000 0.0000 0.0000
# 3 17.9783 19.3979 29.6163 0.0000 0.0000 0.0000
# 4 0.0000 0.0000 0.0000 25.7891 0.0000 0.0000
# 5 0.0000 0.0000 0.0000 0.0000 18.5723 0.0000
# 6 0.0000 0.0000 0.0000 0.0000 0.0000 22.6739
#
#
#
# Elastic Compliance Matrix: (Units=1/GPa)
#
#
# Indices 1 2 3 4 5 6 
#
# 1 0.014071 -0.003373 -0.006333 0.000000 0.000000 0.000000
# 2 -0.003373 0.012949 -0.006434 0.000000 0.000000 0.000000
# 3 -0.006333 -0.006434 0.041823 0.000000 0.000000 0.000000
# 4 0.000000 0.000000 0.000000 0.038776 0.000000 0.000000
# 5 0.000000 0.000000 0.000000 0.000000 0.053844 0.000000
# 6 0.000000 0.000000 0.000000 0.000000 0.000000 0.044104
#
#
# Mechanical properties :
#
#
# Convention : Reuss Voigt Hill
#
# Bulk Modulus (GPa) = 27.34860 38.79918 33.07389
# Shear Modulus (GPa) = 19.99734 22.90774 21.45254
#
# Velocity S-wave (km/s) = 3.25991 3.48907 3.37643
# Velocity P-wave (km/s) = 5.35751 6.07043 5.72508
#
# Compressibility (1/GPa) = 0.03656495
#
# Stress axis : x y z
#
# Youngs Moduli (GPa) = 71.06763 77.22789 23.91002
#
# Poissons Ratio (x) = 0.26046 0.15142
# Poissons Ratio (y) = 0.23968 0.15383
# Poissons Ratio (z) = 0.45006 0.49687
#
# Static dielectric constant tensor:
#      x y z
#    x 3.629550 0.000000 0.000000 
#    y 0.000000 3.470400 0.000000 
#    z 0.000000 0.000000 3.167620 
# 
# 
# High freq. dielectric constant tensor:
#      x y z
#    x 1.733620 0.000000 0.000000 
#    y 0.000000 1.737110 0.000000 
#    z 0.000000 0.000000 1.699260 
# 
# From -- ./inp_files/69903.got.cif
#   From: 2010.06.25/outbox.cif.g09.slc.cpg/sg71_35_cif.got.tgz:69903.got - 2010.06.28 04:59:45.
