data_PCOD8287853
_publ_section_title
;
Structure prediction by ZEFSAII (Michael W. Deem and Ramdas Pophale) SiO2 
 PCOD8287853
Probable space group: I M M M
;
_chemical_formula_sum "Si O2"
_cell_formula_units_Z 104
_cell_length_a 9.141738
_cell_length_b 26.401897
_cell_length_c 22.361127
_cell_angle_alpha 90.000000
_cell_angle_beta 90.000000
_cell_angle_gamma 90.000000
_cell_volume 5397.064285
_symmetry_space_group_name_H-M "I M M M"
_symmetry_group_IT_number 71
_symmetry_cell_setting 'orthorhombic'
loop_
_space_group_symop_operation_xyz
x,y,z
-x,-y,z
x,-y,-z
-x,y,-z
-x,-y,-z
x,y,-z
-x,y,z
x,-y,z
1/2+x,1/2+y,1/2+z
1/2-x,1/2-y,1/2+z
1/2+x,1/2-y,1/2-z
1/2-x,1/2+y,1/2-z
1/2-x,1/2-y,1/2-z
1/2+x,1/2+y,1/2-z
1/2-x,1/2+y,1/2+z
1/2+x,1/2-y,1/2+z
loop_
_atom_site_type_symbol
_atom_site_label
_atom_site_fract_x
_atom_site_fract_y
_atom_site_fract_z
Si Si1 0.332857 0.692163 0.196546
Si Si2 0.340014 0.942240 0.222676
Si Si3 0.170446 0.208190 0.830922
Si Si4 0.332031 0.852155 0.933879
Si Si5 0.829679 0.941054 0.890941
Si Si6 0.328034 0.500000 0.066096
Si Si7 0.668618 0.581221 0.838895
O O1 0.500000 0.711635 0.191129
O O2 0.223485 0.733839 0.171307
O O3 0.297094 0.681182 0.266787
O O4 0.309329 0.641739 0.156722
O O5 0.500000 0.914957 0.221640
O O6 0.229970 0.920255 0.172954
O O7 0.269830 0.939746 0.287256
O O8 0.364231 0.000000 0.205314
O O9 0.254066 0.182015 0.884839
O O10 0.000000 0.207436 0.846058
O O11 0.500000 0.859156 0.915174
O O12 0.255885 0.907419 0.939155
O O13 0.319328 0.827184 0.000000
O O14 0.000000 0.928441 0.892982
O O15 0.800254 0.000000 0.903805
O O16 0.500000 0.500000 0.058054
O O17 0.281735 0.551540 0.101095
O O18 0.254089 0.500000 0.000000
O O19 0.500000 0.568323 0.823815
#
# Coordination Sequence:
#
# PCOD8287853 Si02
#       7
#    16  16  16  16  16   8  16
#     4   9  19  34  55  84 113 140 177 228 289 343
#     4  10  19  30  48  77 111 143 178 225 278 328
#     4  10  20  36  58  83 112 145 183 230 282 339
#     4  11  24  40  58  80 110 150 190 229 276 328
#     4  10  21  36  55  80 111 146 186 229 272 322
#     4   9  18  32  51  77 109 147 190 233 280 335
#     4  10  18  31  53  78 107 145 188 232 276 336
#
# _framework density 19.269736000000002
#
# number of rings (size 3 to 8) (size 9 to 14) (size 15 to 20)
#    0.000    2.077    0.769    2.769    0.000    5.538 
#    0.000    2.308    0.000    3.692    0.000    0.000 
#    0.000    0.000    0.000    0.000    0.000    0.000 
#
# Total GULP energy -644581.154383 kJ/mol
# GULP energy per Si atom -12395.791430 kJ/mol
# Density = 1.922588 g / cm^3
# Si number density = 19.269736 Si / 1000 Ang^3
#
#
#
# Elastic Constant Matrix: (Units=GPa)
#
#
# Indices 1 2 3 4 5 6 
#
# 1 121.0483 45.4424 54.6180 0.0000 0.0000 0.0000
# 2 45.4424 93.9876 55.3777 0.0000 0.0000 0.0000
# 3 54.6180 55.3777 114.7697 0.0001 0.0000 0.0000
# 4 0.0000 0.0000 0.0001 21.3331 0.0000 0.0000
# 5 0.0000 0.0000 0.0000 0.0000 24.1697 0.0000
# 6 0.0000 0.0000 0.0000 0.0000 0.0000 29.4988
#
#
#
# Elastic Compliance Matrix: (Units=1/GPa)
#
#
# Indices 1 2 3 4 5 6 
#
# 1 0.011156 -0.003166 -0.003781 0.000000 0.000000 0.000000
# 2 -0.003166 0.015764 -0.006100 0.000000 0.000000 0.000000
# 3 -0.003781 -0.006100 0.013456 0.000000 0.000000 0.000000
# 4 0.000000 0.000000 0.000000 0.046876 0.000000 0.000000
# 5 0.000000 0.000000 0.000000 0.000000 0.041374 0.000000
# 6 0.000000 0.000000 0.000000 0.000000 0.000000 0.033900
#
#
# Mechanical properties :
#
#
# Convention : Reuss Voigt Hill
#
# Bulk Modulus (GPa) = 70.01871 71.18688 70.60279
# Shear Modulus (GPa) = 25.85576 26.62483 26.24030
#
# Velocity S-wave (km/s) = 3.66701 3.72114 3.69417
# Velocity P-wave (km/s) = 7.37185 7.44883 7.41044
#
# Compressibility (1/GPa) = 0.01428190
#
# Stress axis : x y z
#
# Youngs Moduli (GPa) = 89.63924 63.43403 74.31635
#
# Poissons Ratio (x) = 0.20081 0.28103
# Poissons Ratio (y) = 0.28377 0.45333
# Poissons Ratio (z) = 0.33897 0.38695
#
# Static dielectric constant tensor:
#      x y z
#    x 3.595540 0.000000 0.000000 
#    y 0.000000 3.506630 0.000000 
#    z 0.000000 0.000000 3.491900 
# 
# 
# High freq. dielectric constant tensor:
#      x y z
#    x 1.752540 0.000000 0.000000 
#    y 0.000000 1.744390 0.000000 
#    z 0.000000 0.000000 1.732400 
# 
# From -- ./inp_files/50896.got.cif
#   From: 2010.06.25/outbox.cif.g09.slc.cpg/sg71_26_cif.got.tgz:50896.got - 2010.06.28 04:59:45.
