data_PCOD8287563
_publ_section_title
;
Structure prediction by ZEFSAII (Michael W. Deem and Ramdas Pophale) SiO2 
 PCOD8287563
Probable space group: I M M M
;
_chemical_formula_sum "Si O2"
_cell_formula_units_Z 120
_cell_length_a 35.301205
_cell_length_b 10.396803
_cell_length_c 18.933386
_cell_angle_alpha 90.000000
_cell_angle_beta 90.000000
_cell_angle_gamma 90.000000
_cell_volume 6948.925158
_symmetry_space_group_name_H-M "I M M M"
_symmetry_group_IT_number 71
_symmetry_cell_setting 'orthorhombic'
loop_
_space_group_symop_operation_xyz
x,y,z
-x,-y,z
x,-y,-z
-x,y,-z
-x,-y,-z
x,y,-z
-x,y,z
x,-y,z
1/2+x,1/2+y,1/2+z
1/2-x,1/2-y,1/2+z
1/2+x,1/2-y,1/2-z
1/2-x,1/2+y,1/2-z
1/2-x,1/2-y,1/2-z
1/2+x,1/2+y,1/2-z
1/2-x,1/2+y,1/2+z
1/2+x,1/2-y,1/2+z
loop_
_atom_site_type_symbol
_atom_site_label
_atom_site_fract_x
_atom_site_fract_y
_atom_site_fract_z
Si Si1 0.389386 0.852541 0.417359
Si Si2 0.042305 0.647927 0.817468
Si Si3 0.543882 0.754217 0.834926
Si Si4 0.544836 0.000000 0.078806
Si Si5 0.187381 0.855227 0.583940
Si Si6 0.255034 0.143737 0.084088
Si Si7 0.105205 0.145979 0.423395
Si Si8 0.329961 0.356527 0.583806
O O1 0.396617 0.831905 0.500000
O O2 0.428677 0.817511 0.379132
O O3 0.357790 0.754883 0.387012
O O4 0.376996 0.000000 0.401652
O O5 0.045401 0.500000 0.793717
O O6 0.050697 0.732384 0.748280
O O7 0.000000 0.677480 0.845846
O O8 0.500000 0.722046 0.851224
O O9 0.558798 0.877829 0.877595
O O10 0.571574 0.646411 0.865755
O O11 0.500000 0.000000 0.075255
O O12 0.562332 0.000000 0.000000
O O13 0.191291 0.858731 0.500000
O O14 0.217620 0.753713 0.616340
O O15 0.145579 0.798360 0.604345
O O16 0.195040 0.000000 0.614282
O O17 0.212376 0.171506 0.111662
O O18 0.267657 0.000000 0.108596
O O19 0.255556 0.149416 0.000000
O O20 0.093074 0.207217 0.500000
O O21 0.115559 0.000000 0.437993
O O22 0.330257 0.350566 0.500000
O O23 0.343135 0.500000 0.608386
#
# Coordination Sequence:
#
# PCOD8287563 Si02
#       8
#    16  16  16   8  16  16  16  16
#     4   9  17  28  45  71  96 118 153 194 225 269
#     4   9  17  31  48  65  90 122 151 186 235 278
#     4  10  18  30  46  63  85 115 150 188 229 275
#     4   9  16  26  42  64  85 105 137 183 226 262
#     4   8  14  25  39  56  84 121 152 179 219 269
#     4   8  13  22  37  59  87 117 149 182 219 267
#     4   9  18  31  44  61  89 122 154 189 229 270
#     4   8  14  25  41  62  92 125 148 178 231 279
#
# _framework density 17.268858999999999
#
# number of rings (size 3 to 8) (size 9 to 14) (size 15 to 20)
#    0.000    3.267    0.667    2.000    0.000    1.867 
#    1.200    5.333    0.000    1.200    0.000    2.800 
#    0.000    0.000    0.000    0.000    0.000    0.000 
#
# Total GULP energy -743345.694183 kJ/mol
# GULP energy per Si atom -12389.094903 kJ/mol
# Density = 1.722955 g / cm^3
# Si number density = 17.268859 Si / 1000 Ang^3
#
#
#
# Elastic Constant Matrix: (Units=GPa)
#
#
# Indices 1 2 3 4 5 6 
#
# 1 131.6415 68.2383 39.2145 0.0000 0.0000 0.0000
# 2 68.2383 83.3493 23.6343 0.0000 0.0000 0.0000
# 3 39.2145 23.6343 37.3761 0.0000 0.0000 0.0000
# 4 0.0000 0.0000 0.0000 11.6886 0.0000 0.0000
# 5 0.0000 0.0000 0.0000 0.0000 8.0911 0.0000
# 6 0.0000 0.0000 0.0000 0.0000 0.0000 29.5147
#
#
#
# Elastic Compliance Matrix: (Units=1/GPa)
#
#
# Indices 1 2 3 4 5 6 
#
# 1 0.015896 -0.010095 -0.010294 0.000000 0.000000 0.000000
# 2 -0.010095 0.021030 -0.002707 0.000000 0.000000 0.000000
# 3 -0.010294 -0.002707 0.039267 0.000000 0.000000 0.000000
# 4 0.000000 0.000000 0.000000 0.085553 0.000000 0.000000
# 5 0.000000 0.000000 0.000000 0.000000 0.123593 0.000000
# 6 0.000000 0.000000 0.000000 0.000000 0.000000 0.033881
#
#
# Mechanical properties :
#
#
# Convention : Reuss Voigt Hill
#
# Bulk Modulus (GPa) = 33.33182 57.17123 45.25153
# Shear Modulus (GPa) = 13.31870 17.94419 15.63144
#
# Velocity S-wave (km/s) = 2.78016 3.22702 3.01189
# Velocity P-wave (km/s) = 5.44512 6.86027 6.19325
#
# Compressibility (1/GPa) = 0.03000136
#
# Stress axis : x y z
#
# Youngs Moduli (GPa) = 62.90986 47.55138 25.46661
#
# Poissons Ratio (x) = 0.48003 0.26216
# Poissons Ratio (y) = 0.63507 0.06893
# Poissons Ratio (z) = 0.64761 0.12870
#
# Static dielectric constant tensor:
#      x y z
#    x 3.334880 0.000000 0.000000 
#    y 0.000000 3.337000 0.000000 
#    z 0.000000 0.000000 2.747490 
# 
# 
# High freq. dielectric constant tensor:
#      x y z
#    x 1.666810 0.000000 0.000000 
#    y 0.000000 1.658870 0.000000 
#    z 0.000000 0.000000 1.615880 
# 
# From -- ./inp_files/52396.got.cif
#   From: 2010.06.25/outbox.cif.g09.slc.cpg/sg71_27_cif.got.tgz:52396.got - 2010.06.28 04:59:45.
