data_PCOD8287820
_publ_section_title
;
Structure prediction by ZEFSAII (Michael W. Deem and Ramdas Pophale) SiO2 
 PCOD8287820
Probable space group: I M M M
;
_chemical_formula_sum "Si O2"
_cell_formula_units_Z 80
_cell_length_a 24.769952
_cell_length_b 20.572550
_cell_length_c 8.834253
_cell_angle_alpha 90.000000
_cell_angle_beta 90.000000
_cell_angle_gamma 90.000000
_cell_volume 4501.768150
_symmetry_space_group_name_H-M "I M M M"
_symmetry_group_IT_number 71
_symmetry_cell_setting 'orthorhombic'
loop_
_space_group_symop_operation_xyz
x,y,z
-x,-y,z
x,-y,-z
-x,y,-z
-x,-y,-z
x,y,-z
-x,y,z
x,-y,z
1/2+x,1/2+y,1/2+z
1/2-x,1/2-y,1/2+z
1/2+x,1/2-y,1/2-z
1/2-x,1/2+y,1/2-z
1/2-x,1/2-y,1/2-z
1/2+x,1/2+y,1/2-z
1/2-x,1/2+y,1/2+z
1/2+x,1/2-y,1/2+z
loop_
_atom_site_type_symbol
_atom_site_label
_atom_site_fract_x
_atom_site_fract_y
_atom_site_fract_z
Si Si1 0.107283 0.256958 0.673768
Si Si2 0.384677 0.380232 0.318768
Si Si3 0.000000 0.113551 0.833310
Si Si4 0.778628 0.311001 0.326339
Si Si5 0.219809 0.073087 0.326412
Si Si6 0.000000 0.268334 0.168589
O O1 0.095553 0.238496 0.500000
O O2 0.125466 0.192771 0.763019
O O3 0.156727 0.307071 0.687924
O O4 0.054065 0.290970 0.743948
O O5 0.385019 0.380040 0.500000
O O6 0.443162 0.406887 0.255283
O O7 0.338065 0.425904 0.255914
O O8 0.000000 0.191140 0.840817
O O9 0.000000 0.082922 0.000000
O O10 0.759841 0.312515 0.500000
O O11 0.750000 0.250000 0.250000
O O12 0.761935 0.378240 0.249007
O O13 0.211530 0.093667 0.500000
O O14 0.242784 0.000000 0.311980
O O15 0.000000 0.298687 0.000000
#
# Coordination Sequence:
#
# PCOD8287820 Si02
#       6
#    16  16   8  16  16   8
#     4  10  19  31  50  78 109 138 171 216 267 317
#     4  10  18  31  52  74 100 136 178 222 268 317
#     4   7  14  27  44  70  97 127 170 215 258 303
#     4  11  22  35  56  82 108 139 178 222 270 321
#     4  11  24  39  53  73 105 143 182 225 273 322
#     4   9  17  29  47  74 107 140 173 210 258 313
#
# _framework density 17.770793999999999
#
# number of rings (size 3 to 8) (size 9 to 14) (size 15 to 20)
#    0.000    2.000    2.000    3.900    0.000    4.000 
#    0.000    2.000    0.000    3.000    0.000    0.700 
#    0.000    5.600    0.000    0.000    0.000    0.000 
#
# Total GULP energy -495818.727651 kJ/mol
# GULP energy per Si atom -12395.468191 kJ/mol
# Density = 1.773035 g / cm^3
# Si number density = 17.770794 Si / 1000 Ang^3
#
#
#
# Elastic Constant Matrix: (Units=GPa)
#
#
# Indices 1 2 3 4 5 6 
#
# 1 108.8085 39.4872 51.7727 0.0000 0.0000 0.0000
# 2 39.4872 69.8264 40.1229 0.0000 0.0000 0.0000
# 3 51.7727 40.1229 127.8089 0.0000 0.0000 0.0000
# 4 0.0000 0.0000 0.0000 21.4626 0.0000 0.0000
# 5 0.0000 0.0000 0.0000 0.0000 30.8839 0.0000
# 6 0.0000 0.0000 0.0000 0.0000 0.0000 16.5773
#
#
#
# Elastic Compliance Matrix: (Units=1/GPa)
#
#
# Indices 1 2 3 4 5 6 
#
# 1 0.012754 -0.005178 -0.003541 0.000000 0.000000 0.000000
# 2 -0.005178 0.019575 -0.004048 0.000000 0.000000 0.000000
# 3 -0.003541 -0.004048 0.010529 0.000000 0.000000 0.000000
# 4 0.000000 0.000000 0.000000 0.046593 0.000000 0.000000
# 5 0.000000 0.000000 0.000000 0.000000 0.032379 0.000000
# 6 0.000000 0.000000 0.000000 0.000000 0.000000 0.060324
#
#
# Mechanical properties :
#
#
# Convention : Reuss Voigt Hill
#
# Bulk Modulus (GPa) = 57.71854 63.24550 60.48202
# Shear Modulus (GPa) = 23.42322 25.45549 24.43935
#
# Velocity S-wave (km/s) = 3.63447 3.78886 3.71246
# Velocity P-wave (km/s) = 7.08254 7.40320 7.24465
#
# Compressibility (1/GPa) = 0.01732545
#
# Stress axis : x y z
#
# Youngs Moduli (GPa) = 78.40394 51.08484 94.97316
#
# Poissons Ratio (x) = 0.26452 0.33630
# Poissons Ratio (y) = 0.40598 0.38443
# Poissons Ratio (z) = 0.27763 0.20678
#
# Static dielectric constant tensor:
#      x y z
#    x 3.684620 0.000000 0.000000 
#    y 0.000000 3.836120 0.000000 
#    z 0.000000 0.000000 3.461490 
# 
# 
# High freq. dielectric constant tensor:
#      x y z
#    x 1.700710 0.000000 0.000000 
#    y 0.000000 1.635030 0.000000 
#    z 0.000000 0.000000 1.698000 
# 
# From -- ./inp_files/12426.got.cif
#   From: 2010.06.25/outbox.cif.g09.slc.cpg/sg71_7_cif.got.tgz:12426.got - 2010.06.28 04:59:45.
