data_PCOD8287636
_publ_section_title
;
Structure prediction by ZEFSAII (Michael W. Deem and Ramdas Pophale) SiO2 
 PCOD8287636
Probable space group: I M M M
;
_chemical_formula_sum "Si O2"
_cell_formula_units_Z 104
_cell_length_a 17.896033
_cell_length_b 28.815470
_cell_length_c 12.634762
_cell_angle_alpha 90.000000
_cell_angle_beta 90.000000
_cell_angle_gamma 90.000000
_cell_volume 6515.526944
_symmetry_space_group_name_H-M "I M M M"
_symmetry_group_IT_number 71
_symmetry_cell_setting 'orthorhombic'
loop_
_space_group_symop_operation_xyz
x,y,z
-x,-y,z
x,-y,-z
-x,y,-z
-x,-y,-z
x,y,-z
-x,y,z
x,-y,z
1/2+x,1/2+y,1/2+z
1/2-x,1/2-y,1/2+z
1/2+x,1/2-y,1/2-z
1/2-x,1/2+y,1/2-z
1/2-x,1/2-y,1/2-z
1/2+x,1/2+y,1/2-z
1/2-x,1/2+y,1/2+z
1/2+x,1/2-y,1/2+z
loop_
_atom_site_type_symbol
_atom_site_label
_atom_site_fract_x
_atom_site_fract_y
_atom_site_fract_z
Si Si1 0.204311 0.705097 0.118514
Si Si2 0.702193 0.691354 0.688301
Si Si3 0.411965 0.128259 0.327101
Si Si4 0.823881 0.623606 0.380014
Si Si5 0.297021 0.449501 0.374929
Si Si6 0.083717 0.878793 0.874371
Si Si7 0.087918 0.553073 0.000000
O O1 0.273033 0.687561 0.189578
O O2 0.183304 0.756946 0.152523
O O3 0.131210 0.672948 0.128200
O O4 0.234491 0.704263 0.000000
O O5 0.770608 0.669163 0.620775
O O6 0.624429 0.665023 0.676515
O O7 0.500000 0.137381 0.338837
O O8 0.392442 0.124033 0.202191
O O9 0.388134 0.082364 0.394752
O O10 0.854768 0.617731 0.500000
O O11 0.774257 0.580327 0.340928
O O12 0.297607 0.453990 0.500000
O O13 0.292065 0.500000 0.320911
O O14 0.373783 0.425363 0.337766
O O15 0.000000 0.881305 0.830374
O O16 0.086014 0.873078 0.000000
O O17 0.122268 0.500000 0.000000
O O18 0.000000 0.547630 0.000000
#
# Coordination Sequence:
#
# PCOD8287636 Si02
#       7
#    16  16  16  16  16  16   8
#     4  10  18  30  49  68  90 119 155 195 230 274
#     4   9  18  30  46  68  92 124 154 187 232 275
#     4  10  20  32  47  70  94 119 157 202 244 283
#     4   9  17  30  47  67  95 128 159 189 230 287
#     4   8  14  25  41  62  89 120 152 185 218 260
#     4   9  16  26  41  63  92 121 149 181 221 275
#     4   9  18  34  50  62  86 120 151 193 248 292
#
# _framework density 15.961871
#
# number of rings (size 3 to 8) (size 9 to 14) (size 15 to 20)
#    0.000    2.846    0.769    2.308    0.000    1.846 
#    0.000    1.538    0.000    0.462    0.000    4.308 
#    0.000    0.000    0.000    7.231    0.000    0.769 
#
# Total GULP energy -644428.149681 kJ/mol
# GULP energy per Si atom -12392.849032 kJ/mol
# Density = 1.592554 g / cm^3
# Si number density = 15.961871 Si / 1000 Ang^3
#
#
#
# Elastic Constant Matrix: (Units=GPa)
#
#
# Indices 1 2 3 4 5 6 
#
# 1 47.1444 29.7256 26.7965 0.0002 0.0000 0.0000
# 2 29.7256 110.9831 23.2626 0.0000 0.0000 -0.0002
# 3 26.7965 23.2626 89.2821 -0.0010 0.0000 0.0002
# 4 0.0002 0.0000 -0.0010 15.8228 0.0001 -0.0002
# 5 0.0000 0.0000 0.0000 0.0001 15.2744 0.0000
# 6 0.0000 -0.0002 0.0002 -0.0002 0.0000 15.5739
#
#
#
# Elastic Compliance Matrix: (Units=1/GPa)
#
#
# Indices 1 2 3 4 5 6 
#
# 1 0.029264 -0.006343 -0.007130 -0.000001 0.000000 0.000000
# 2 -0.006343 0.010906 -0.000938 0.000000 0.000000 0.000000
# 3 -0.007130 -0.000938 0.013585 0.000001 0.000000 0.000000
# 4 -0.000001 0.000000 0.000001 0.063200 0.000000 0.000001
# 5 0.000000 0.000000 0.000000 0.000000 0.065469 0.000000
# 6 0.000000 0.000000 0.000000 0.000001 0.000000 0.064210
#
#
# Mechanical properties :
#
#
# Convention : Reuss Voigt Hill
#
# Bulk Modulus (GPa) = 40.10937 45.21989 42.66463
# Shear Modulus (GPa) = 17.62011 20.50923 19.06467
#
# Velocity S-wave (km/s) = 3.32608 3.58842 3.45974
# Velocity P-wave (km/s) = 6.31928 6.74985 6.53811
#
# Compressibility (1/GPa) = 0.02493183
#
# Stress axis : x y z
#
# Youngs Moduli (GPa) = 34.17176 91.69297 73.61176
#
# Poissons Ratio (x) = 0.58165 0.52487
# Poissons Ratio (y) = 0.21677 0.06902
# Poissons Ratio (z) = 0.24365 0.08598
#
# Static dielectric constant tensor:
#      x y z
#    x 2.856120 0.000000 0.000000 
#    y 0.000000 3.544400 0.000000 
#    z 0.000000 0.000000 2.957810 
# 
# 
# High freq. dielectric constant tensor:
#      x y z
#    x 1.591990 0.000000 0.000000 
#    y 0.000000 1.623800 0.000000 
#    z 0.000000 0.000000 1.595470 
# 
# From -- ./inp_files/24782.got.cif
#   From: 2010.06.25/outbox.cif.g09.slc.cpg/sg71_13_cif.got.tgz:24782.got - 2010.06.28 04:59:45.
