data_PCOD8287137
_publ_section_title
;
Structure prediction by ZEFSAII (Michael W. Deem and Ramdas Pophale) SiO2 
 PCOD8287137
Probable space group: I M M M
;
_chemical_formula_sum "Si O2"
_cell_formula_units_Z 80
_cell_length_a 16.193602
_cell_length_b 9.562125
_cell_length_c 28.825707
_cell_angle_alpha 90.000000
_cell_angle_beta 90.000000
_cell_angle_gamma 90.000000
_cell_volume 4463.523707
_symmetry_space_group_name_H-M "I M M M"
_symmetry_group_IT_number 71
_symmetry_cell_setting 'orthorhombic'
loop_
_space_group_symop_operation_xyz
x,y,z
-x,-y,z
x,-y,-z
-x,y,-z
-x,-y,-z
x,y,-z
-x,y,z
x,-y,z
1/2+x,1/2+y,1/2+z
1/2-x,1/2-y,1/2+z
1/2+x,1/2-y,1/2-z
1/2-x,1/2+y,1/2-z
1/2-x,1/2-y,1/2-z
1/2+x,1/2+y,1/2-z
1/2-x,1/2+y,1/2+z
1/2+x,1/2-y,1/2+z
loop_
_atom_site_type_symbol
_atom_site_label
_atom_site_fract_x
_atom_site_fract_y
_atom_site_fract_z
Si Si1 0.639184 0.843746 0.712735
Si Si2 0.405146 0.841860 0.815229
Si Si3 0.500000 0.839230 0.419587
Si Si4 0.000000 0.834020 0.171389
Si Si5 0.722242 0.339253 0.861000
Si Si6 0.319827 0.836642 0.449914
O O1 0.648209 0.830104 0.768008
O O2 0.580178 0.719637 0.697581
O O3 0.724932 0.823422 0.685997
O O4 0.603827 0.000000 0.700814
O O5 0.500000 0.793803 0.806906
O O6 0.362621 0.745342 0.854152
O O7 0.403176 0.000000 0.833829
O O8 0.500000 0.727698 0.379317
O O9 0.417904 0.808706 0.448829
O O10 0.500000 0.000000 0.401034
O O11 0.000000 0.000000 0.170012
O O12 0.699080 0.500000 0.869974
O O13 0.771467 0.273290 0.905414
O O14 0.288338 0.776684 0.500000
O O15 0.303035 0.000000 0.448121
#
# Coordination Sequence:
#
# PCOD8287137 Si02
#       6
#    16  16   8   8  16  16
#     4  10  19  36  55  73 103 143 179 208 255 308
#     4  10  21  36  55  75 102 138 174 213 257 312
#     4  10  17  32  54  74 106 144 178 213 249 303
#     4  12  22  29  47  79 112 144 177 215 252 297
#     4  10  20  33  54  80 106 134 168 217 262 306
#     4   9  17  30  53  82 105 133 175 217 257 304
#
# _framework density 17.92306
#
# number of rings (size 3 to 8) (size 9 to 14) (size 15 to 20)
#    0.000    2.000    3.000    1.800    0.000    3.200 
#    0.000    0.000    0.000    3.600    0.000    4.200 
#    0.000    0.000    0.000    0.000    0.000    0.000 
#
# Total GULP energy -495694.360532 kJ/mol
# GULP energy per Si atom -12392.359013 kJ/mol
# Density = 1.788227 g / cm^3
# Si number density = 17.923060 Si / 1000 Ang^3
#
#
#
# Elastic Constant Matrix: (Units=GPa)
#
#
# Indices 1 2 3 4 5 6 
#
# 1 77.8887 33.0384 55.2311 0.0000 0.0000 0.0000
# 2 33.0384 82.7720 31.5865 0.0000 0.0000 0.0000
# 3 55.2311 31.5865 102.4406 0.0000 0.0000 0.0000
# 4 0.0000 0.0000 0.0000 16.1849 0.0000 0.0000
# 5 0.0000 0.0000 0.0000 0.0000 19.0392 0.0000
# 6 0.0000 0.0000 0.0000 0.0000 0.0000 29.1860
#
#
#
# Elastic Compliance Matrix: (Units=1/GPa)
#
#
# Indices 1 2 3 4 5 6 
#
# 1 0.022421 -0.004915 -0.010573 0.000000 0.000000 0.000000
# 2 -0.004915 0.014770 -0.001904 0.000000 0.000000 0.000000
# 3 -0.010573 -0.001904 0.016049 0.000000 0.000000 0.000000
# 4 0.000000 0.000000 0.000000 0.061786 0.000000 0.000000
# 5 0.000000 0.000000 0.000000 0.000000 0.052523 0.000000
# 6 0.000000 0.000000 0.000000 0.000000 0.000000 0.034263
#
#
# Mechanical properties :
#
#
# Convention : Reuss Voigt Hill
#
# Bulk Modulus (GPa) = 54.18227 55.86815 55.02521
# Shear Modulus (GPa) = 20.59754 22.43171 21.51463
#
# Velocity S-wave (km/s) = 3.39369 3.54157 3.46842
# Velocity P-wave (km/s) = 6.75665 6.92549 6.84159
#
# Compressibility (1/GPa) = 0.01845622
#
# Stress axis : x y z
#
# Youngs Moduli (GPa) = 44.60179 67.70593 62.30798
#
# Poissons Ratio (x) = 0.33274 0.65877
# Poissons Ratio (y) = 0.21920 0.11866
# Poissons Ratio (z) = 0.47157 0.12894
#
# Static dielectric constant tensor:
#      x y z
#    x 3.138000 0.000000 0.000000 
#    y 0.000000 3.089660 0.000000 
#    z 0.000000 0.000000 3.455130 
# 
# 
# High freq. dielectric constant tensor:
#      x y z
#    x 1.676890 0.000000 0.000000 
#    y 0.000000 1.666010 0.000000 
#    z 0.000000 0.000000 1.686070 
# 
# From -- ./inp_files/8682.got.cif
#   From: 2010.06.25/outbox.cif.g09.slc.cpg/sg71_5_cif.got.tgz:8682.got - 2010.06.28 04:59:45.
