data_PCOD8287850
_publ_section_title
;
Structure prediction by ZEFSAII (Michael W. Deem and Ramdas Pophale) SiO2 
 PCOD8287850
Probable space group: I M M M
;
_chemical_formula_sum "Si O2"
_cell_formula_units_Z 104
_cell_length_a 27.544026
_cell_length_b 9.073562
_cell_length_c 22.318692
_cell_angle_alpha 90.000000
_cell_angle_beta 90.000000
_cell_angle_gamma 90.000000
_cell_volume 5577.941686
_symmetry_space_group_name_H-M "I M M M"
_symmetry_group_IT_number 71
_symmetry_cell_setting 'orthorhombic'
loop_
_space_group_symop_operation_xyz
x,y,z
-x,-y,z
x,-y,-z
-x,y,-z
-x,-y,-z
x,y,-z
-x,y,z
x,-y,z
1/2+x,1/2+y,1/2+z
1/2-x,1/2-y,1/2+z
1/2+x,1/2-y,1/2-z
1/2-x,1/2+y,1/2-z
1/2-x,1/2-y,1/2-z
1/2+x,1/2+y,1/2-z
1/2-x,1/2+y,1/2+z
1/2+x,1/2-y,1/2+z
loop_
_atom_site_type_symbol
_atom_site_label
_atom_site_fract_x
_atom_site_fract_y
_atom_site_fract_z
Si Si1 0.556959 0.335127 0.000000
Si Si2 0.307520 0.670270 0.069608
Si Si3 0.601922 0.174570 0.111511
Si Si4 0.055368 0.324838 0.736301
Si Si5 0.114842 0.329102 0.152487
Si Si6 0.056779 0.160670 0.065598
Si Si7 0.197988 0.675615 0.067301
O O1 0.572546 0.247533 0.058286
O O2 0.580151 0.500000 0.000000
O O3 0.500000 0.347824 0.000000
O O4 0.313025 0.500000 0.087598
O O5 0.342728 0.767584 0.111115
O O6 0.252823 0.725691 0.081813
O O7 0.321671 0.693503 0.000000
O O8 0.575183 0.224917 0.172028
O O9 0.601773 0.000000 0.103987
O O10 0.053653 0.500000 0.741879
O O11 0.094858 0.261491 0.784680
O O12 0.000000 0.263691 0.745970
O O13 0.123884 0.500000 0.161628
O O14 0.072073 0.297632 0.105991
O O15 0.163362 0.259586 0.120767
O O16 0.000000 0.164535 0.060300
O O17 0.073406 0.000000 0.091419
O O18 0.079918 0.182489 0.000000
O O19 0.194811 0.500000 0.066743
O O20 0.183643 0.732123 0.000000
#
# Coordination Sequence:
#
# PCOD8287850 Si02
#       7
#     8  16  16  16  16  16  16
#     4  11  23  37  55  81 109 133 165 213 266 317
#     4   9  17  32  53  75 104 137 168 208 262 317
#     4  11  21  34  54  78 105 137 175 214 257 313
#     4   9  19  34  50  72 105 141 172 211 265 311
#     4  10  18  31  53  76  98 130 179 223 250 295
#     4   9  18  31  45  65  98 135 167 207 267 324
#     4   8  15  28  49  78 106 133 168 212 263 308
#
# _framework density 18.644870000000001
#
# number of rings (size 3 to 8) (size 9 to 14) (size 15 to 20)
#    0.000    2.538    0.769    3.462    0.000    3.077 
#    0.000    3.846    0.000    4.615    0.000    0.000 
#    0.000    0.000    0.000    0.000    0.000    0.000 
#
# Total GULP energy -644211.789959 kJ/mol
# GULP energy per Si atom -12388.688268 kJ/mol
# Density = 1.860243 g / cm^3
# Si number density = 18.644870 Si / 1000 Ang^3
#
#
#
# Elastic Constant Matrix: (Units=GPa)
#
#
# Indices 1 2 3 4 5 6 
#
# 1 122.3201 26.0657 74.9919 0.0000 0.0000 0.0000
# 2 26.0657 33.4373 24.6387 0.0000 0.0000 0.0000
# 3 74.9919 24.6387 123.8915 0.0000 0.0000 0.0000
# 4 0.0000 0.0000 0.0000 11.1350 0.0000 0.0000
# 5 0.0000 0.0000 0.0000 0.0000 13.7160 0.0000
# 6 0.0000 0.0000 0.0000 0.0000 0.0000 22.9976
#
#
#
# Elastic Compliance Matrix: (Units=1/GPa)
#
#
# Indices 1 2 3 4 5 6 
#
# 1 0.013780 -0.005385 -0.007270 0.000000 0.000000 0.000000
# 2 -0.005385 0.037146 -0.004128 0.000000 0.000000 0.000000
# 3 -0.007270 -0.004128 0.013293 0.000000 0.000000 0.000000
# 4 0.000000 0.000000 0.000000 0.089807 0.000000 0.000000
# 5 0.000000 0.000000 0.000000 0.000000 0.072907 0.000000
# 6 0.000000 0.000000 0.000000 0.000000 0.000000 0.043483
#
#
# Mechanical properties :
#
#
# Convention : Reuss Voigt Hill
#
# Bulk Modulus (GPa) = 32.62283 59.00462 45.81373
# Shear Modulus (GPa) = 15.91346 19.83324 17.87335
#
# Velocity S-wave (km/s) = 2.92465 3.26504 3.09952
# Velocity P-wave (km/s) = 5.37956 6.77711 6.11837
#
# Compressibility (1/GPa) = 0.03065338
#
# Stress axis : x y z
#
# Youngs Moduli (GPa) = 72.56944 26.92072 75.22688
#
# Poissons Ratio (x) = 0.14496 0.54691
# Poissons Ratio (y) = 0.39078 0.31053
# Poissons Ratio (z) = 0.52759 0.11113
#
# Static dielectric constant tensor:
#      x y z
#    x 3.682000 0.000000 0.000000 
#    y 0.000000 3.199470 0.000000 
#    z 0.000000 0.000000 4.465530 
# 
# 
# High freq. dielectric constant tensor:
#      x y z
#    x 1.733390 0.000000 0.000000 
#    y 0.000000 1.688870 0.000000 
#    z 0.000000 0.000000 1.713710 
# 
# From -- ./inp_files/56670.got.cif
#   From: 2010.06.25/outbox.cif.g09.slc.cpg/sg71_29_cif.got.tgz:56670.got - 2010.06.28 04:59:45.
