data_PCOD8287509
_publ_section_title
;
Structure prediction by ZEFSAII (Michael W. Deem and Ramdas Pophale) SiO2 
 PCOD8287509
Probable space group: I M M M
;
_chemical_formula_sum "Si O2"
_cell_formula_units_Z 104
_cell_length_a 9.242605
_cell_length_b 20.794648
_cell_length_c 30.126211
_cell_angle_alpha 90.000000
_cell_angle_beta 90.000000
_cell_angle_gamma 90.000000
_cell_volume 5790.158867
_symmetry_space_group_name_H-M "I M M M"
_symmetry_group_IT_number 71
_symmetry_cell_setting 'orthorhombic'
loop_
_space_group_symop_operation_xyz
x,y,z
-x,-y,z
x,-y,-z
-x,y,-z
-x,-y,-z
x,y,-z
-x,y,z
x,-y,z
1/2+x,1/2+y,1/2+z
1/2-x,1/2-y,1/2+z
1/2+x,1/2-y,1/2-z
1/2-x,1/2+y,1/2-z
1/2-x,1/2-y,1/2-z
1/2+x,1/2+y,1/2-z
1/2-x,1/2+y,1/2+z
1/2+x,1/2-y,1/2+z
loop_
_atom_site_type_symbol
_atom_site_label
_atom_site_fract_x
_atom_site_fract_y
_atom_site_fract_z
Si Si1 0.828552 0.571674 0.283289
Si Si2 0.328309 0.071374 0.951629
Si Si3 0.330558 0.126605 0.551242
Si Si4 0.165612 0.277578 0.871056
Si Si5 0.167291 0.309516 0.227489
Si Si6 0.338092 0.500000 0.052426
Si Si7 0.671456 0.853205 0.869275
O O1 0.762081 0.500000 0.275550
O O2 0.773702 0.622494 0.246462
O O3 0.776825 0.598807 0.330726
O O4 0.000000 0.566196 0.282041
O O5 0.500000 0.067973 0.947218
O O6 0.264309 0.118710 0.914964
O O7 0.264809 0.000000 0.944593
O O8 0.282897 0.097905 0.000000
O O9 0.291180 0.145422 0.500000
O O10 0.500000 0.111666 0.555340
O O11 0.284077 0.182769 0.585378
O O12 0.246597 0.063469 0.567867
O O13 0.186057 0.317026 0.825454
O O14 0.264739 0.216617 0.863733
O O15 0.000000 0.256075 0.877232
O O16 0.250000 0.250000 0.250000
O O17 0.000000 0.299617 0.240690
O O18 0.500000 0.500000 0.072811
O O19 0.346039 0.500000 0.000000
O O20 0.500000 0.846418 0.869573
#
# Coordination Sequence:
#
# PCOD8287509 Si02
#       7
#    16  16  16  16  16   8  16
#     4   9  17  30  50  75  97 121 161 208 248 293
#     4   8  14  25  42  67  98 126 156 201 249 287
#     4   9  18  34  53  72  99 136 173 206 247 302
#     4  10  21  34  49  73 101 132 168 204 243 294
#     4  10  19  34  54  75 100 132 166 205 252 301
#     4   9  17  31  53  79 103 129 165 211 259 301
#     4  10  18  29  49  73  95 127 166 202 244 295
#
# _framework density 17.961511999999999
#
# number of rings (size 3 to 8) (size 9 to 14) (size 15 to 20)
#    0.000    2.692    1.538    1.154    0.000    4.000 
#    1.385    0.000    0.000    3.231    0.000    1.077 
#    0.000    0.000    0.000    0.000    0.000    0.000 
#
# Total GULP energy -644474.691138 kJ/mol
# GULP energy per Si atom -12393.744060 kJ/mol
# Density = 1.792063 g / cm^3
# Si number density = 17.961512 Si / 1000 Ang^3
#
#
#
# Elastic Constant Matrix: (Units=GPa)
#
#
# Indices 1 2 3 4 5 6 
#
# 1 32.7152 32.6593 22.7154 0.0000 0.0000 0.0000
# 2 32.6593 145.6946 69.6854 0.0000 0.0000 0.0000
# 3 22.7154 69.6854 124.5848 0.0000 0.0000 0.0000
# 4 0.0000 0.0000 0.0000 36.5180 0.0000 0.0000
# 5 0.0000 0.0000 0.0000 0.0000 15.5068 0.0000
# 6 0.0000 0.0000 0.0000 0.0000 0.0000 18.1678
#
#
#
# Elastic Compliance Matrix: (Units=1/GPa)
#
#
# Indices 1 2 3 4 5 6 
#
# 1 0.040253 -0.007526 -0.003129 0.000000 0.000000 0.000000
# 2 -0.007526 0.010778 -0.004656 0.000000 0.000000 0.000000
# 3 -0.003129 -0.004656 0.011202 0.000000 0.000000 0.000000
# 4 0.000000 0.000000 0.000000 0.027384 0.000000 0.000000
# 5 0.000000 0.000000 0.000000 0.000000 0.064488 0.000000
# 6 0.000000 0.000000 0.000000 0.000000 0.000000 0.055042
#
#
# Mechanical properties :
#
#
# Convention : Reuss Voigt Hill
#
# Bulk Modulus (GPa) = 31.63701 61.45723 46.54712
# Shear Modulus (GPa) = 19.97545 25.90083 22.93814
#
# Velocity S-wave (km/s) = 3.33847 3.80151 3.57749
# Velocity P-wave (km/s) = 5.70198 7.31840 6.56017
#
# Compressibility (1/GPa) = 0.03160855
#
# Stress axis : x y z
#
# Youngs Moduli (GPa) = 24.84264 92.78254 89.27240
#
# Poissons Ratio (x) = 0.69833 0.27938
# Poissons Ratio (y) = 0.18698 0.41567
# Poissons Ratio (z) = 0.07774 0.43202
#
# Static dielectric constant tensor:
#      x y z
#    x 3.025740 0.000000 0.000000 
#    y 0.000000 3.443040 0.000000 
#    z 0.000000 0.000000 3.599480 
# 
# 
# High freq. dielectric constant tensor:
#      x y z
#    x 1.655400 0.000000 0.000000 
#    y 0.000000 1.694950 0.000000 
#    z 0.000000 0.000000 1.702880 
# 
# From -- ./inp_files/68293.got.cif
#   From: 2010.06.25/outbox.cif.g09.slc.cpg/sg71_35_cif.got.tgz:68293.got - 2010.06.28 04:59:45.
