data_PCOD8287332
_publ_section_title
;
Structure prediction by ZEFSAII (Michael W. Deem and Ramdas Pophale) SiO2 
 PCOD8287332
Probable space group: I M M M
;
_chemical_formula_sum "Si O2"
_cell_formula_units_Z 88
_cell_length_a 8.659645
_cell_length_b 26.876769
_cell_length_c 19.806811
_cell_angle_alpha 90.000000
_cell_angle_beta 90.000000
_cell_angle_gamma 90.000000
_cell_volume 4609.902125
_symmetry_space_group_name_H-M "I M M M"
_symmetry_group_IT_number 71
_symmetry_cell_setting 'orthorhombic'
loop_
_space_group_symop_operation_xyz
x,y,z
-x,-y,z
x,-y,-z
-x,y,-z
-x,-y,-z
x,y,-z
-x,y,z
x,-y,z
1/2+x,1/2+y,1/2+z
1/2-x,1/2-y,1/2+z
1/2+x,1/2-y,1/2-z
1/2-x,1/2+y,1/2-z
1/2-x,1/2-y,1/2-z
1/2+x,1/2+y,1/2-z
1/2-x,1/2+y,1/2+z
1/2+x,1/2-y,1/2+z
loop_
_atom_site_type_symbol
_atom_site_label
_atom_site_fract_x
_atom_site_fract_y
_atom_site_fract_z
Si Si1 0.816888 0.393073 0.386250
Si Si2 0.184604 0.318895 0.500000
Si Si3 0.817046 0.138090 0.605152
Si Si4 0.682610 0.100857 0.266922
Si Si5 0.817695 0.289549 0.000000
Si Si6 0.682487 0.500000 0.761071
Si Si7 0.682611 0.556179 0.000000
Si Si8 0.182678 0.500000 0.613801
O O1 0.756914 0.349193 0.434018
O O2 0.756856 0.386327 0.308988
O O3 0.761809 0.447144 0.417873
O O4 0.000000 0.391975 0.385946
O O5 0.275348 0.268039 0.500000
O O6 0.000000 0.310992 0.500000
O O7 0.742376 0.141582 0.679784
O O8 0.755160 0.186263 0.566494
O O9 0.765017 0.087636 0.565869
O O10 0.000000 0.141803 0.610276
O O11 0.500000 0.096969 0.267481
O O12 0.756675 0.049915 0.296504
O O13 0.000000 0.297026 0.000000
O O14 0.500000 0.500000 0.760215
O O15 0.757154 0.500000 0.688603
O O16 0.754853 0.500000 0.000000
O O17 0.500000 0.551334 0.000000
O O18 0.000000 0.500000 0.616087
#
# Coordination Sequence:
#
# PCOD8287332 Si02
#       8
#    16   8  16  16   8   8   8   8
#     4   8  16  30  53  82 112 144 179 222 271 326
#     4  10  19  36  60  82 103 136 185 234 277 331
#     4  10  20  35  57  81 106 142 183 223 268 323
#     4  10  19  33  51  78 114 147 179 222 275 326
#     4  11  23  41  59  77 104 141 179 226 285 330
#     4  10  18  28  45  72 106 150 189 216 253 310
#     4   8  16  30  48  75 108 135 167 213 254 301
#     4   8  14  29  48  74 111 143 171 212 269 325
#
# _framework density 19.089341999999998
#
# number of rings (size 3 to 8) (size 9 to 14) (size 15 to 20)
#    0.000    2.636    0.000    4.364    1.273    0.364 
#    0.000    7.273    0.000    1.636    0.000   10.818 
#    0.000    0.000    0.000    0.000    0.000    0.000 
#
# Total GULP energy -545117.743019 kJ/mol
# GULP energy per Si atom -12389.039614 kJ/mol
# Density = 1.904589 g / cm^3
# Si number density = 19.089342 Si / 1000 Ang^3
#
#
#
# Elastic Constant Matrix: (Units=GPa)
#
#
# Indices 1 2 3 4 5 6 
#
# 1 78.3974 26.3898 33.2771 0.0000 0.0000 0.0000
# 2 26.3898 129.3563 61.9079 0.0001 0.0000 0.0000
# 3 33.2771 61.9079 124.1695 0.0001 0.0000 0.0000
# 4 0.0000 0.0001 0.0001 30.5864 0.0000 0.0000
# 5 0.0000 0.0000 0.0000 0.0000 16.2893 0.0000
# 6 0.0000 0.0000 0.0000 0.0000 0.0000 22.0008
#
#
#
# Elastic Compliance Matrix: (Units=1/GPa)
#
#
# Indices 1 2 3 4 5 6 
#
# 1 0.014598 -0.001452 -0.003188 0.000000 0.000000 0.000000
# 2 -0.001452 0.010298 -0.004745 0.000000 0.000000 0.000000
# 3 -0.003188 -0.004745 0.011274 0.000000 0.000000 0.000000
# 4 0.000000 0.000000 0.000000 0.032694 0.000000 0.000000
# 5 0.000000 0.000000 0.000000 0.000000 0.061390 0.000000
# 6 0.000000 0.000000 0.000000 0.000000 0.000000 0.045453
#
#
# Mechanical properties :
#
#
# Convention : Reuss Voigt Hill
#
# Bulk Modulus (GPa) = 57.47679 63.89697 60.68688
# Shear Modulus (GPa) = 24.96553 27.79853 26.38203
#
# Velocity S-wave (km/s) = 3.62031 3.82020 3.72160
# Velocity P-wave (km/s) = 6.90292 7.28037 7.09416
#
# Compressibility (1/GPa) = 0.01739833
#
# Stress axis : x y z
#
# Youngs Moduli (GPa) = 68.50438 97.10861 88.70252
#
# Poissons Ratio (x) = 0.14103 0.28279
# Poissons Ratio (y) = 0.09949 0.42089
# Poissons Ratio (z) = 0.21840 0.46078
#
# Static dielectric constant tensor:
#      x y z
#    x 3.182430 0.000000 0.000000 
#    y 0.000000 3.799970 0.000000 
#    z 0.000000 0.000000 3.558230 
# 
# 
# High freq. dielectric constant tensor:
#      x y z
#    x 1.717420 0.000000 0.000000 
#    y 0.000000 1.732190 0.000000 
#    z 0.000000 0.000000 1.740150 
# 
# From -- ./inp_files/50634.got.cif
#   From: 2010.06.25/outbox.cif.g09.slc.cpg/sg71_26_cif.got.tgz:50634.got - 2010.06.28 04:59:45.
