data_PCOD8287398
_publ_section_title
;
Structure prediction by ZEFSAII (Michael W. Deem and Ramdas Pophale) SiO2 
 PCOD8287398
Probable space group: I M M M
;
_chemical_formula_sum "Si O2"
_cell_formula_units_Z 96
_cell_length_a 19.022874
_cell_length_b 12.345006
_cell_length_c 27.282814
_cell_angle_alpha 90.000000
_cell_angle_beta 90.000000
_cell_angle_gamma 90.000000
_cell_volume 6407.027660
_symmetry_space_group_name_H-M "I M M M"
_symmetry_group_IT_number 71
_symmetry_cell_setting 'orthorhombic'
loop_
_space_group_symop_operation_xyz
x,y,z
-x,-y,z
x,-y,-z
-x,y,-z
-x,-y,-z
x,y,-z
-x,y,z
x,-y,z
1/2+x,1/2+y,1/2+z
1/2-x,1/2-y,1/2+z
1/2+x,1/2-y,1/2-z
1/2-x,1/2+y,1/2-z
1/2-x,1/2-y,1/2-z
1/2+x,1/2+y,1/2-z
1/2-x,1/2+y,1/2+z
1/2+x,1/2-y,1/2+z
loop_
_atom_site_type_symbol
_atom_site_label
_atom_site_fract_x
_atom_site_fract_y
_atom_site_fract_z
Si Si1 0.183604 0.372190 0.556983
Si Si2 0.165519 0.871114 0.091818
Si Si3 0.921249 0.129272 0.000000
Si Si4 0.916835 0.785560 0.390660
Si Si5 0.578978 0.370797 0.683224
Si Si6 0.916740 0.879659 0.709393
Si Si7 0.916550 0.000000 0.445295
O O1 0.185018 0.338013 0.500000
O O2 0.174227 0.500000 0.561999
O O3 0.254891 0.331649 0.583456
O O4 0.118790 0.318241 0.585021
O O5 0.133676 0.825598 0.142835
O O6 0.163084 0.000000 0.091319
O O7 0.117813 0.825467 0.047885
O O8 0.000000 0.175024 0.000000
O O9 0.920773 0.000000 0.000000
O O10 0.893397 0.797536 0.333671
O O11 0.889609 0.893122 0.417956
O O12 0.000000 0.769809 0.396183
O O13 0.500000 0.327346 0.672001
O O14 0.577057 0.500000 0.682449
O O15 0.605420 0.332673 0.737212
O O16 0.000000 0.892175 0.708169
O O17 0.884365 0.000000 0.700645
O O18 0.885478 0.000000 0.500000
O O19 0.000000 0.000000 0.445725
#
# Coordination Sequence:
#
# PCOD8287398 Si02
#       7
#    16  16   8  16  16  16   8
#     4  10  20  32  42  54  81 121 151 170 201 241
#     4   9  15  25  37  54  82 114 142 168 199 244
#     4   9  14  20  36  58  79 106 141 174 203 236
#     4  10  18  29  45  62  80 105 141 181 215 251
#     4   8  13  21  38  62  85 107 133 165 204 253
#     4   8  13  24  41  62  85 105 126 163 217 263
#     4   9  16  26  42  64  82  94 122 175 229 261
#
# _framework density 14.983547
#
# number of rings (size 3 to 8) (size 9 to 14) (size 15 to 20)
#    0.000    3.000    1.667    2.000    0.000    3.333 
#    0.000    1.667    0.000    0.000    0.000    0.000 
#    0.000    0.000    0.000    3.083    0.000    1.333 
#
# Total GULP energy -594856.420100 kJ/mol
# GULP energy per Si atom -12392.842085 kJ/mol
# Density = 1.494944 g / cm^3
# Si number density = 14.983547 Si / 1000 Ang^3
#
#
#
# Elastic Constant Matrix: (Units=GPa)
#
#
# Indices 1 2 3 4 5 6 
#
# 1 69.1638 24.1213 53.8675 0.0000 0.0000 0.0000
# 2 24.1213 25.8789 30.7712 0.0000 0.0000 0.0000
# 3 53.8675 30.7712 151.1585 0.0000 0.0000 0.0000
# 4 0.0000 0.0000 0.0000 13.8332 0.0000 0.0000
# 5 0.0000 0.0000 0.0000 0.0000 17.9759 0.0000
# 6 0.0000 0.0000 0.0000 0.0000 0.0000 8.8193
#
#
#
# Elastic Compliance Matrix: (Units=1/GPa)
#
#
# Indices 1 2 3 4 5 6 
#
# 1 0.024305 -0.016301 -0.005343 0.000000 0.000000 0.000000
# 2 -0.016301 0.061915 -0.006795 0.000000 0.000000 0.000000
# 3 -0.005343 -0.006795 0.009903 0.000000 0.000000 0.000000
# 4 0.000000 0.000000 0.000000 0.072290 0.000000 0.000000
# 5 0.000000 0.000000 0.000000 0.000000 0.055630 0.000000
# 6 0.000000 0.000000 0.000000 0.000000 0.000000 0.113388
#
#
# Mechanical properties :
#
#
# Convention : Reuss Voigt Hill
#
# Bulk Modulus (GPa) = 25.48112 51.52459 38.50286
# Shear Modulus (GPa) = 12.27327 17.28843 14.78085
#
# Velocity S-wave (km/s) = 2.86513 3.40049 3.14422
# Velocity P-wave (km/s) = 5.29039 7.06257 6.23972
#
# Compressibility (1/GPa) = 0.03924474
#
# Stress axis : x y z
#
# Youngs Moduli (GPa) = 41.14404 16.15120 100.98119
#
# Poissons Ratio (x) = 0.26328 0.53954
# Poissons Ratio (y) = 0.67069 0.68615
# Poissons Ratio (z) = 0.21983 0.10974
#
# Static dielectric constant tensor:
#      x y z
#    x 2.740610 0.000000 0.000000 
#    y 0.000000 2.390230 0.000000 
#    z 0.000000 0.000000 3.392020 
# 
# 
# High freq. dielectric constant tensor:
#      x y z
#    x 1.550150 0.000000 0.000000 
#    y 0.000000 1.508790 0.000000 
#    z 0.000000 0.000000 1.595530 
# 
# From -- ./inp_files/66539.got.cif
#   From: 2010.06.25/outbox.cif.g09.slc.cpg/sg71_34_cif.got.tgz:66539.got - 2010.06.28 04:59:45.
