data_PCOD8287262
_publ_section_title
;
Structure prediction by ZEFSAII (Michael W. Deem and Ramdas Pophale) SiO2 
 PCOD8287262
Probable space group: I M M M
;
_chemical_formula_sum "Si O2"
_cell_formula_units_Z 104
_cell_length_a 26.964324
_cell_length_b 9.436835
_cell_length_c 24.514656
_cell_angle_alpha 90.000000
_cell_angle_beta 90.000000
_cell_angle_gamma 90.000000
_cell_volume 6237.947308
_symmetry_space_group_name_H-M "I M M M"
_symmetry_group_IT_number 71
_symmetry_cell_setting 'orthorhombic'
loop_
_space_group_symop_operation_xyz
x,y,z
-x,-y,z
x,-y,-z
-x,y,-z
-x,-y,-z
x,y,-z
-x,y,z
x,-y,z
1/2+x,1/2+y,1/2+z
1/2-x,1/2-y,1/2+z
1/2+x,1/2-y,1/2-z
1/2-x,1/2+y,1/2-z
1/2-x,1/2-y,1/2-z
1/2+x,1/2+y,1/2-z
1/2-x,1/2+y,1/2+z
1/2+x,1/2-y,1/2+z
loop_
_atom_site_type_symbol
_atom_site_label
_atom_site_fract_x
_atom_site_fract_y
_atom_site_fract_z
Si Si1 0.441180 0.660420 0.500000
Si Si2 0.191516 0.845261 0.095558
Si Si3 0.645790 0.840561 0.678768
Si Si4 0.691003 0.659137 0.000000
Si Si5 0.943698 0.663665 0.895303
Si Si6 0.694506 0.156376 0.099582
Si Si7 0.809545 0.657140 0.000000
Si Si8 0.293948 0.836364 0.221022
O O1 0.420057 0.500000 0.500000
O O2 0.500000 0.660071 0.500000
O O3 0.423414 0.741997 0.554582
O O4 0.184250 0.771826 0.153741
O O5 0.248823 0.863377 0.082586
O O6 0.165770 0.000000 0.093702
O O7 0.167571 0.740631 0.051188
O O8 0.589931 0.805686 0.658615
O O9 0.654963 0.826295 0.743678
O O10 0.660203 0.000000 0.659991
O O11 0.670589 0.738930 0.945530
O O12 0.669141 0.500000 0.000000
O O13 0.750291 0.651463 0.000000
O O14 0.940606 0.500000 0.913165
O O15 0.000000 0.704614 0.879298
O O16 0.691926 0.222106 0.160795
O O17 0.668889 0.000000 0.097233
O O18 0.832009 0.500000 0.000000
O O19 0.250000 0.750000 0.250000
O O20 0.276147 0.000000 0.215114
#
# Coordination Sequence:
#
# PCOD8287262 Si02
#       8
#     8  16  16   8  16  16   8  16
#     4   9  17  30  49  70  87 108 143 189 238 281
#     4  10  18  28  41  58  80 107 140 177 217 260
#     4  10  20  31  45  64  85 111 145 182 218 263
#     4   9  17  27  42  62  79 104 142 179 211 246
#     4   9  18  33  50  66  86 114 147 185 230 276
#     4   9  17  29  43  59  82 111 139 172 212 252
#     4   9  17  28  40  55  78 107 140 179 221 258
#     4  10  19  31  46  64  87 116 148 180 217 258
#
# _framework density 16.672150999999999
#
# number of rings (size 3 to 8) (size 9 to 14) (size 15 to 20)
#    0.000    2.538    1.538    1.154    0.000    5.231 
#    0.000    0.769    0.000    0.000    0.000    0.000 
#    0.000    0.000    0.000    0.692    0.000   18.769 
#
# Total GULP energy -644350.759121 kJ/mol
# GULP energy per Si atom -12391.360752 kJ/mol
# Density = 1.663420 g / cm^3
# Si number density = 16.672151 Si / 1000 Ang^3
#
#
#
# Elastic Constant Matrix: (Units=GPa)
#
#
# Indices 1 2 3 4 5 6 
#
# 1 33.1107 13.9501 23.2358 0.0000 0.0000 0.0000
# 2 13.9501 106.9726 61.5127 0.0000 0.0000 0.0000
# 3 23.2358 61.5127 142.2782 0.0000 0.0000 0.0000
# 4 0.0000 0.0000 0.0000 21.9849 0.0000 0.0000
# 5 0.0000 0.0000 0.0000 0.0000 14.3167 0.0000
# 6 0.0000 0.0000 0.0000 0.0000 0.0000 9.1278
#
#
#
# Elastic Compliance Matrix: (Units=1/GPa)
#
#
# Indices 1 2 3 4 5 6 
#
# 1 0.034333 -0.001668 -0.004886 0.000000 0.000000 0.000000
# 2 -0.001668 0.012522 -0.005141 0.000000 0.000000 0.000000
# 3 -0.004886 -0.005141 0.010049 0.000000 0.000000 0.000000
# 4 0.000000 0.000000 0.000000 0.045486 0.000000 0.000000
# 5 0.000000 0.000000 0.000000 0.000000 0.069848 0.000000
# 6 0.000000 0.000000 0.000000 0.000000 0.000000 0.109556
#
#
# Mechanical properties :
#
#
# Convention : Reuss Voigt Hill
#
# Bulk Modulus (GPa) = 29.83807 53.30652 41.57229
# Shear Modulus (GPa) = 15.80496 21.33007 18.56751
#
# Velocity S-wave (km/s) = 3.08228 3.58073 3.34081
# Velocity P-wave (km/s) = 5.53200 7.00987 6.31432
#
# Compressibility (1/GPa) = 0.03351424
#
# Stress axis : x y z
#
# Youngs Moduli (GPa) = 29.12633 79.85818 99.50931
#
# Poissons Ratio (x) = 0.13318 0.48620
# Poissons Ratio (y) = 0.04857 0.51163
# Poissons Ratio (z) = 0.14231 0.41059
#
# Static dielectric constant tensor:
#      x y z
#    x 2.694140 0.000000 0.000000 
#    y 0.000000 3.452190 0.000000 
#    z 0.000000 0.000000 3.250260 
# 
# 
# High freq. dielectric constant tensor:
#      x y z
#    x 1.577800 0.000000 0.000000 
#    y 0.000000 1.654660 0.000000 
#    z 0.000000 0.000000 1.638540 
# 
# From -- ./inp_files/62343.got.cif
#   From: 2010.06.25/outbox.cif.g09.slc.cpg/sg71_32_cif.got.tgz:62343.got - 2010.06.28 04:59:45.
