data_PCOD8287795
_publ_section_title
;
Structure prediction by ZEFSAII (Michael W. Deem and Ramdas Pophale) SiO2 
 PCOD8287795
Probable space group: I M M M
;
_chemical_formula_sum "Si O2"
_cell_formula_units_Z 96
_cell_length_a 20.057411
_cell_length_b 25.403423
_cell_length_c 10.281455
_cell_angle_alpha 90.000000
_cell_angle_beta 90.000000
_cell_angle_gamma 90.000000
_cell_volume 5238.677852
_symmetry_space_group_name_H-M "I M M M"
_symmetry_group_IT_number 71
_symmetry_cell_setting 'orthorhombic'
loop_
_space_group_symop_operation_xyz
x,y,z
-x,-y,z
x,-y,-z
-x,y,-z
-x,-y,-z
x,y,-z
-x,y,z
x,-y,z
1/2+x,1/2+y,1/2+z
1/2-x,1/2-y,1/2+z
1/2+x,1/2-y,1/2-z
1/2-x,1/2+y,1/2-z
1/2-x,1/2-y,1/2-z
1/2+x,1/2+y,1/2-z
1/2-x,1/2+y,1/2+z
1/2+x,1/2-y,1/2+z
loop_
_atom_site_type_symbol
_atom_site_label
_atom_site_fract_x
_atom_site_fract_y
_atom_site_fract_z
Si Si1 0.074930 0.673981 0.500000
Si Si2 0.327296 0.059803 0.716519
Si Si3 0.573715 0.637842 0.151673
Si Si4 0.574755 0.099240 0.500000
Si Si5 0.573468 0.777919 0.500000
Si Si6 0.881131 0.441013 0.500000
Si Si7 0.579274 0.245940 0.224589
Si Si8 0.317186 0.559046 0.846719
O O1 0.071524 0.610238 0.500000
O O2 0.108417 0.699996 0.629055
O O3 0.000000 0.695248 0.500000
O O4 0.386350 0.085362 0.632616
O O5 0.337276 0.064453 0.870925
O O6 0.254880 0.084481 0.686601
O O7 0.325310 0.000000 0.669068
O O8 0.500000 0.630062 0.214668
O O9 0.599854 0.697051 0.171905
O O10 0.625676 0.596507 0.215175
O O11 0.568731 0.626796 0.000000
O O12 0.500000 0.073135 0.500000
O O13 0.565286 0.160409 0.500000
O O14 0.500000 0.751542 0.500000
O O15 0.611854 0.760396 0.631623
O O16 0.916249 0.500000 0.500000
O O17 0.500000 0.239063 0.236169
O O18 0.324588 0.500000 0.787853
O O19 0.325694 0.556991 0.000000
#
# Coordination Sequence:
#
# PCOD8287795 Si02
#       8
#     8  16  16   8   8   8  16  16
#     4  10  18  31  51  70  96 132 166 205 258 309
#     4  10  20  36  53  73 101 137 175 206 252 313
#     4   9  16  28  50  80 107 132 168 209 248 296
#     4  11  21  34  54  78 100 129 171 221 261 295
#     4   9  18  29  45  70 100 130 166 207 252 300
#     4  10  22  35  51  73 100 133 172 218 256 299
#     4   9  16  29  48  72 100 134 168 200 244 303
#     4   9  17  31  53  76 102 138 171 205 251 303
#
# _framework density 18.325234999999999
#
# number of rings (size 3 to 8) (size 9 to 14) (size 15 to 20)
#    0.000    2.500    1.667    1.250    0.000    3.167 
#    0.000    4.167    0.000    6.000    0.000    0.000 
#    0.000    6.667    0.000    0.000    0.000    0.000 
#
# Total GULP energy -594660.896233 kJ/mol
# GULP energy per Si atom -12388.768672 kJ/mol
# Density = 1.828353 g / cm^3
# Si number density = 18.325235 Si / 1000 Ang^3
#
#
#
# Elastic Constant Matrix: (Units=GPa)
#
#
# Indices 1 2 3 4 5 6 
#
# 1 89.4149 47.5311 29.5053 0.0000 0.0000 0.0000
# 2 47.5311 93.8879 30.5759 0.0000 0.0000 0.0000
# 3 29.5053 30.5759 101.7423 0.0000 0.0000 0.0000
# 4 0.0000 0.0000 0.0000 13.3654 0.0000 0.0000
# 5 0.0000 0.0000 0.0000 0.0000 9.8941 0.0000
# 6 0.0000 0.0000 0.0000 0.0000 0.0000 6.6222
#
#
#
# Elastic Compliance Matrix: (Units=1/GPa)
#
#
# Indices 1 2 3 4 5 6 
#
# 1 0.015821 -0.007222 -0.002418 0.000000 0.000000 0.000000
# 2 -0.007222 0.015103 -0.002445 0.000000 0.000000 0.000000
# 3 -0.002418 -0.002445 0.011264 0.000000 0.000000 0.000000
# 4 0.000000 0.000000 0.000000 0.074820 0.000000 0.000000
# 5 0.000000 0.000000 0.000000 0.000000 0.101070 0.000000
# 6 0.000000 0.000000 0.000000 0.000000 0.000000 0.151006
#
#
# Mechanical properties :
#
#
# Convention : Reuss Voigt Hill
#
# Bulk Modulus (GPa) = 55.49322 55.58553 55.53938
# Shear Modulus (GPa) = 12.52320 17.80522 15.16421
#
# Velocity S-wave (km/s) = 2.61700 3.12047 2.87976
# Velocity P-wave (km/s) = 6.28329 6.58648 6.43667
#
# Compressibility (1/GPa) = 0.01802022
#
# Stress axis : x y z
#
# Youngs Moduli (GPa) = 63.20874 66.21112 88.77451
#
# Poissons Ratio (x) = 0.47817 0.21462
# Poissons Ratio (y) = 0.45649 0.21701
# Poissons Ratio (z) = 0.15282 0.16185
#
# Static dielectric constant tensor:
#      x y z
#    x 3.310860 0.000000 0.000000 
#    y 0.000000 3.470260 0.000000 
#    z 0.000000 0.000000 3.438900 
# 
# 
# High freq. dielectric constant tensor:
#      x y z
#    x 1.669340 0.000000 0.000000 
#    y 0.000000 1.709870 0.000000 
#    z 0.000000 0.000000 1.703100 
# 
# From -- ./inp_files/24317.got.cif
#   From: 2010.06.25/outbox.cif.g09.slc.cpg/sg71_13_cif.got.tgz:24317.got - 2010.06.28 04:59:45.
