data_PCOD8287391
_publ_section_title
;
Structure prediction by ZEFSAII (Michael W. Deem and Ramdas Pophale) SiO2 
 PCOD8287391
Probable space group: I M M M
;
_chemical_formula_sum "Si O2"
_cell_formula_units_Z 104
_cell_length_a 14.420224
_cell_length_b 13.278194
_cell_length_c 30.214036
_cell_angle_alpha 90.000000
_cell_angle_beta 90.000000
_cell_angle_gamma 90.000000
_cell_volume 5785.218397
_symmetry_space_group_name_H-M "I M M M"
_symmetry_group_IT_number 71
_symmetry_cell_setting 'orthorhombic'
loop_
_space_group_symop_operation_xyz
x,y,z
-x,-y,z
x,-y,-z
-x,y,-z
-x,-y,-z
x,y,-z
-x,y,z
x,-y,z
1/2+x,1/2+y,1/2+z
1/2-x,1/2-y,1/2+z
1/2+x,1/2-y,1/2-z
1/2-x,1/2+y,1/2-z
1/2-x,1/2-y,1/2-z
1/2+x,1/2+y,1/2-z
1/2-x,1/2+y,1/2+z
1/2+x,1/2-y,1/2+z
loop_
_atom_site_type_symbol
_atom_site_label
_atom_site_fract_x
_atom_site_fract_y
_atom_site_fract_z
Si Si1 0.106890 0.613208 0.875840
Si Si2 0.735154 0.881873 0.785523
Si Si3 0.835787 0.613300 0.547920
Si Si4 0.109979 0.721233 0.784008
Si Si5 0.901388 0.617582 0.642057
Si Si6 0.000000 0.111175 0.947486
Si Si7 0.161679 0.252042 0.950490
O O1 0.140240 0.500000 0.865138
O O2 0.123413 0.682604 0.833559
O O3 0.166173 0.653367 0.917503
O O4 0.000000 0.614133 0.890081
O O5 0.833407 0.825912 0.778410
O O6 0.658568 0.860392 0.747763
O O7 0.687229 0.840023 0.831120
O O8 0.757904 0.000000 0.786557
O O9 0.888265 0.619889 0.500000
O O10 0.793900 0.500000 0.553283
O O11 0.900377 0.638320 0.589428
O O12 0.758220 0.696950 0.547924
O O13 0.000000 0.735170 0.772807
O O14 0.902394 0.500000 0.652196
O O15 0.000000 0.664108 0.658649
O O16 0.910958 0.171763 0.930717
O O17 0.000000 0.000000 0.925714
O O18 0.000000 0.100811 0.000000
O O19 0.133448 0.288591 0.000000
#
# Coordination Sequence:
#
# PCOD8287391 Si02
#       7
#    16  16  16  16  16   8  16
#     4  10  20  33  48  66  93 128 168 212 256 306
#     4  10  20  35  56  80 105 135 173 216 258 306
#     4   9  17  28  43  65  96 131 161 198 253 309
#     4  10  21  36  55  78 106 138 173 211 260 318
#     4   9  17  29  47  70  96 128 167 208 248 299
#     4   9  16  26  41  61  87 123 166 206 245 299
#     4  10  18  29  44  64  92 127 170 214 253 301
#
# _framework density 17.976849000000001
#
# number of rings (size 3 to 8) (size 9 to 14) (size 15 to 20)
#    0.000    2.385    0.769    2.308    0.000    4.308 
#    0.000    3.077    0.000    0.000    0.000    0.000 
#    0.000    5.538    0.000   13.538    0.000    0.615 
#
# Total GULP energy -644316.083171 kJ/mol
# GULP energy per Si atom -12390.693907 kJ/mol
# Density = 1.793593 g / cm^3
# Si number density = 17.976849 Si / 1000 Ang^3
#
#
#
# Elastic Constant Matrix: (Units=GPa)
#
#
# Indices 1 2 3 4 5 6 
#
# 1 82.6988 31.1921 22.6779 0.0000 0.0000 0.0000
# 2 31.1921 73.7669 26.1879 0.0000 0.0000 0.0000
# 3 22.6779 26.1879 88.0366 0.0000 0.0000 0.0000
# 4 0.0000 0.0000 0.0000 25.2249 0.0000 0.0000
# 5 0.0000 0.0000 0.0000 0.0000 -67.2578 0.0000
# 6 0.0000 0.0000 0.0000 0.0000 0.0000 -24.3495
#
#
#
# Elastic Compliance Matrix: (Units=1/GPa)
#
#
# Indices 1 2 3 4 5 6 
#
# 1 0.014749 -0.005465 -0.002174 0.000000 0.000000 0.000000
# 2 -0.005465 0.017182 -0.003703 0.000000 0.000000 0.000000
# 3 -0.002174 -0.003703 0.013020 0.000000 0.000000 0.000000
# 4 0.000000 0.000000 0.000000 0.039643 0.000000 0.000000
# 5 0.000000 0.000000 0.000000 0.000000 -0.014868 0.000000
# 6 0.000000 0.000000 0.000000 0.000000 0.000000 -0.041069
#
#
# Mechanical properties :
#
#
# Convention : Reuss Voigt Hill
#
# Bulk Modulus (GPa) = 44.90819 44.95755 44.93287
# Shear Modulus (GPa) = 85.08480 -2.31353 41.38564
#
# Velocity S-wave (km/s) = 6.88716 -1.13567 4.80329
# Velocity P-wave (km/s) = 9.39571 4.83148 7.47069
#
# Compressibility (1/GPa) = 0.02226765
#
# Stress axis : x y z
#
# Youngs Moduli (GPa) = 67.79908 58.20122 76.80237
#
# Poissons Ratio (x) = 0.31807 0.16695
# Poissons Ratio (y) = 0.37053 0.28442
# Poissons Ratio (z) = 0.14738 0.21553
#
# Static dielectric constant tensor:
#      x y z
#    x 3.260490 0.000000 0.000000 
#    y 0.000000 3.137340 0.000000 
#    z 0.000000 0.000000 3.550770 
# 
# 
# High freq. dielectric constant tensor:
#      x y z
#    x 1.681890 0.000000 0.000000 
#    y 0.000000 1.666610 0.000000 
#    z 0.000000 0.000000 1.705640 
# 
# From -- ./inp_files/69959.got.cif
#   From: 2010.06.25/outbox.cif.g09.slc.cpg/sg71_35_cif.got.tgz:69959.got - 2010.06.28 04:59:45.
