data_PCOD8287342
_publ_section_title
;
Structure prediction by ZEFSAII (Michael W. Deem and Ramdas Pophale) SiO2 
 PCOD8287342
Probable space group: I M M M
;
_chemical_formula_sum "Si O2"
_cell_formula_units_Z 112
_cell_length_a 29.498837
_cell_length_b 9.703916
_cell_length_c 22.427889
_cell_angle_alpha 90.000000
_cell_angle_beta 90.000000
_cell_angle_gamma 90.000000
_cell_volume 6420.078239
_symmetry_space_group_name_H-M "I M M M"
_symmetry_group_IT_number 71
_symmetry_cell_setting 'orthorhombic'
loop_
_space_group_symop_operation_xyz
x,y,z
-x,-y,z
x,-y,-z
-x,y,-z
-x,-y,-z
x,y,-z
-x,y,z
x,-y,z
1/2+x,1/2+y,1/2+z
1/2-x,1/2-y,1/2+z
1/2+x,1/2-y,1/2-z
1/2-x,1/2+y,1/2-z
1/2-x,1/2-y,1/2-z
1/2+x,1/2+y,1/2-z
1/2-x,1/2+y,1/2+z
1/2+x,1/2-y,1/2+z
loop_
_atom_site_type_symbol
_atom_site_label
_atom_site_fract_x
_atom_site_fract_y
_atom_site_fract_z
Si Si1 0.295404 0.656387 0.806124
Si Si2 0.145000 0.163402 0.934089
Si Si3 0.893413 0.159542 0.651084
Si Si4 0.711704 0.339006 0.329759
Si Si5 0.449006 0.342027 0.740809
Si Si6 0.049685 0.835433 0.108967
Si Si7 0.550716 0.154596 0.070236
O O1 0.277191 0.500000 0.810806
O O2 0.339723 0.677870 0.845744
O O3 0.307652 0.688359 0.736751
O O4 0.258732 0.757672 0.834833
O O5 0.177111 0.218880 0.880538
O O6 0.092950 0.218480 0.928357
O O7 0.144066 0.000000 0.929231
O O8 0.162710 0.209511 0.000000
O O9 0.915817 0.225834 0.710650
O O10 0.911803 0.241661 0.594789
O O11 0.907255 0.000000 0.643925
O O12 0.721363 0.500000 0.340666
O O13 0.500000 0.326524 0.764735
O O14 0.434370 0.500000 0.733988
O O15 0.443946 0.274125 0.675673
O O16 0.000000 0.786222 0.083719
O O17 0.048970 0.000000 0.110937
O O18 0.500000 0.199411 0.090026
O O19 0.560637 0.000000 0.093313
O O20 0.554816 0.159475 0.000000
#
# Coordination Sequence:
#
# PCOD8287342 Si02
#       7
#    16  16  16  16  16  16  16
#     4   9  18  31  48  70  93 116 147 192 239 276
#     4   9  16  25  39  60  86 118 154 185 212 252
#     4  10  18  28  46  71  93 113 146 193 236 272
#     4   9  17  31  49  67  91 123 155 186 225 274
#     4   8  13  21  35  58  87 115 141 172 214 261
#     4   8  13  21  34  56  89 123 148 174 214 259
#     4   9  19  35  50  64  89 125 157 184 221 275
#
# _framework density 17.445270000000001
#
# number of rings (size 3 to 8) (size 9 to 14) (size 15 to 20)
#    0.000    3.143    0.000    2.571    0.000    5.429 
#    0.000    2.857    0.000    3.000    0.000    0.000 
#    0.000    0.571    0.000    1.286    0.000    1.429 
#
# Total GULP energy -693869.152766 kJ/mol
# GULP energy per Si atom -12390.520585 kJ/mol
# Density = 1.740556 g / cm^3
# Si number density = 17.445270 Si / 1000 Ang^3
#
#
#
# Elastic Constant Matrix: (Units=GPa)
#
#
# Indices 1 2 3 4 5 6 
#
# 1 103.3390 38.8410 56.6036 0.0000 0.0000 0.0000
# 2 38.8410 40.9427 27.0199 0.0000 0.0000 0.0000
# 3 56.6036 27.0199 76.6802 0.0000 0.0000 0.0000
# 4 0.0000 0.0000 0.0000 15.2095 0.0000 0.0000
# 5 0.0000 0.0000 0.0000 0.0000 27.5795 0.0000
# 6 0.0000 0.0000 0.0000 0.0000 0.0000 21.1177
#
#
#
# Elastic Compliance Matrix: (Units=1/GPa)
#
#
# Indices 1 2 3 4 5 6 
#
# 1 0.019923 -0.011981 -0.010485 0.000000 0.000000 0.000000
# 2 -0.011981 0.039030 -0.004909 0.000000 0.000000 0.000000
# 3 -0.010485 -0.004909 0.022511 0.000000 0.000000 0.000000
# 4 0.000000 0.000000 0.000000 0.065748 0.000000 0.000000
# 5 0.000000 0.000000 0.000000 0.000000 0.036259 0.000000
# 6 0.000000 0.000000 0.000000 0.000000 0.000000 0.047354
#
#
# Mechanical properties :
#
#
# Convention : Reuss Voigt Hill
#
# Bulk Modulus (GPa) = 37.43363 51.76562 44.59962
# Shear Modulus (GPa) = 16.97910 19.34783 18.16346
#
# Velocity S-wave (km/s) = 3.12312 3.33387 3.23021
# Velocity P-wave (km/s) = 5.87448 6.67511 6.28755
#
# Compressibility (1/GPa) = 0.02671395
#
# Stress axis : x y z
#
# Youngs Moduli (GPa) = 50.19264 25.62137 44.42297
#
# Poissons Ratio (x) = 0.30697 0.46578
# Poissons Ratio (y) = 0.60135 0.21807
# Poissons Ratio (z) = 0.52628 0.12577
#
# Static dielectric constant tensor:
#      x y z
#    x 3.315940 0.000000 0.000000 
#    y 0.000000 2.794150 0.000000 
#    z 0.000000 0.000000 3.301540 
# 
# 
# High freq. dielectric constant tensor:
#      x y z
#    x 1.676690 0.000000 0.000000 
#    y 0.000000 1.614730 0.000000 
#    z 0.000000 0.000000 1.669240 
# 
# From -- ./inp_files/56411.got.cif
#   From: 2010.06.25/outbox.cif.g09.slc.cpg/sg71_29_cif.got.tgz:56411.got - 2010.06.28 04:59:45.
