data_PCOD8287112
_publ_section_title
;
Structure prediction by ZEFSAII (Michael W. Deem and Ramdas Pophale) SiO2 
 PCOD8287112
Probable space group: I M M M
;
_chemical_formula_sum "Si O2"
_cell_formula_units_Z 96
_cell_length_a 12.577533
_cell_length_b 21.096189
_cell_length_c 22.527779
_cell_angle_alpha 90.000000
_cell_angle_beta 90.000000
_cell_angle_gamma 90.000000
_cell_volume 5977.476124
_symmetry_space_group_name_H-M "I M M M"
_symmetry_group_IT_number 71
_symmetry_cell_setting 'orthorhombic'
loop_
_space_group_symop_operation_xyz
x,y,z
-x,-y,z
x,-y,-z
-x,y,-z
-x,-y,-z
x,y,-z
-x,y,z
x,-y,z
1/2+x,1/2+y,1/2+z
1/2-x,1/2-y,1/2+z
1/2+x,1/2-y,1/2-z
1/2-x,1/2+y,1/2-z
1/2-x,1/2-y,1/2-z
1/2+x,1/2+y,1/2-z
1/2-x,1/2+y,1/2+z
1/2+x,1/2-y,1/2+z
loop_
_atom_site_type_symbol
_atom_site_label
_atom_site_fract_x
_atom_site_fract_y
_atom_site_fract_z
Si Si1 0.681493 0.169220 0.691312
Si Si2 0.500000 0.073621 0.863294
Si Si3 0.879419 0.805948 0.767151
Si Si4 0.805522 0.428867 0.566816
Si Si5 0.619147 0.655413 0.398226
Si Si6 0.877890 0.703665 0.065981
Si Si7 0.500000 0.074756 0.724893
O O1 0.800599 0.164120 0.717887
O O2 0.628764 0.230150 0.723094
O O3 0.692176 0.174996 0.619606
O O4 0.608240 0.107534 0.701862
O O5 0.394251 0.104765 0.891698
O O6 0.500000 0.084881 0.794466
O O7 0.500000 0.000000 0.881827
O O8 0.850867 0.838965 0.829086
O O9 0.000000 0.820886 0.746929
O O10 0.848842 0.427270 0.500000
O O11 0.784190 0.500000 0.588933
O O12 0.694463 0.393881 0.570299
O O13 0.500000 0.629704 0.405007
O O14 0.632061 0.721083 0.432526
O O15 0.000000 0.683294 0.077315
O O16 0.840516 0.680488 0.000000
O O17 0.500000 0.000000 0.707324
#
# Coordination Sequence:
#
# PCOD8287112 Si02
#       7
#    16   8  16  16  16  16   8
#     4  10  17  30  49  72  96 121 160 193 237 288
#     4   9  19  32  43  57  82 123 161 184 220 268
#     4   9  17  30  50  71  94 121 156 205 238 274
#     4  10  19  30  43  59  85 122 162 196 223 264
#     4   9  17  29  44  65  87 114 151 191 236 274
#     4   9  16  28  47  67  91 120 149 186 230 283
#     4  11  20  31  49  73 101 124 152 197 244 292
#
# _framework density 16.060289999999998
#
# number of rings (size 3 to 8) (size 9 to 14) (size 15 to 20)
#    0.000    2.500    1.667    2.750    0.000    2.333 
#    0.000    0.833    0.000    3.000    0.000    0.000 
#    0.000    0.000    0.000    1.500    0.000    0.000 
#
# Total GULP energy -594936.496486 kJ/mol
# GULP energy per Si atom -12394.510343 kJ/mol
# Density = 1.602374 g / cm^3
# Si number density = 16.060290 Si / 1000 Ang^3
#
#
#
# Elastic Constant Matrix: (Units=GPa)
#
#
# Indices 1 2 3 4 5 6 
#
# 1 83.9086 27.1862 45.1899 0.0000 0.0000 0.0000
# 2 27.1862 48.2570 21.9132 0.0000 0.0000 0.0000
# 3 45.1899 21.9132 104.0627 0.0000 0.0000 0.0000
# 4 0.0000 0.0000 0.0000 16.1939 0.0000 0.0000
# 5 0.0000 0.0000 0.0000 0.0000 23.8378 0.0000
# 6 0.0000 0.0000 0.0000 0.0000 0.0000 16.5410
#
#
#
# Elastic Compliance Matrix: (Units=1/GPa)
#
#
# Indices 1 2 3 4 5 6 
#
# 1 0.017504 -0.007087 -0.006109 0.000000 0.000000 0.000000
# 2 -0.007087 0.025783 -0.002352 0.000000 0.000000 0.000000
# 3 -0.006109 -0.002352 0.012758 0.000000 0.000000 0.000000
# 4 0.000000 0.000000 0.000000 0.061752 0.000000 0.000000
# 5 0.000000 0.000000 0.000000 0.000000 0.041950 0.000000
# 6 0.000000 0.000000 0.000000 0.000000 0.000000 0.060456
#
#
# Mechanical properties :
#
#
# Convention : Reuss Voigt Hill
#
# Bulk Modulus (GPa) = 40.08139 47.20078 43.64109
# Shear Modulus (GPa) = 19.25939 20.77713 20.01826
#
# Velocity S-wave (km/s) = 3.46669 3.60070 3.53433
# Velocity P-wave (km/s) = 6.40585 6.83669 6.62477
#
# Compressibility (1/GPa) = 0.02494924
#
# Stress axis : x y z
#
# Youngs Moduli (GPa) = 57.13015 38.78548 78.38473
#
# Poissons Ratio (x) = 0.27488 0.47884
# Poissons Ratio (y) = 0.40488 0.18434
# Poissons Ratio (z) = 0.34900 0.09121
#
# Static dielectric constant tensor:
#      x y z
#    x 3.027540 0.000000 0.000000 
#    y 0.000000 2.755540 0.000000 
#    z 0.000000 0.000000 3.120120 
# 
# 
# High freq. dielectric constant tensor:
#      x y z
#    x 1.611720 0.000000 0.000000 
#    y 0.000000 1.576490 0.000000 
#    z 0.000000 0.000000 1.622280 
# 
# From -- ./inp_files/52047.got.cif
#   From: 2010.06.25/outbox.cif.g09.slc.cpg/sg71_27_cif.got.tgz:52047.got - 2010.06.28 04:59:45.
