data_PCOD8287607
_publ_section_title
;
Structure prediction by ZEFSAII (Michael W. Deem and Ramdas Pophale) SiO2 
 PCOD8287607
Probable space group: I M M M
;
_chemical_formula_sum "Si O2"
_cell_formula_units_Z 120
_cell_length_a 22.051366
_cell_length_b 13.831714
_cell_length_c 24.303176
_cell_angle_alpha 90.000000
_cell_angle_beta 90.000000
_cell_angle_gamma 90.000000
_cell_volume 7412.667670
_symmetry_space_group_name_H-M "I M M M"
_symmetry_group_IT_number 71
_symmetry_cell_setting 'orthorhombic'
loop_
_space_group_symop_operation_xyz
x,y,z
-x,-y,z
x,-y,-z
-x,y,-z
-x,-y,-z
x,y,-z
-x,y,z
x,-y,z
1/2+x,1/2+y,1/2+z
1/2-x,1/2-y,1/2+z
1/2+x,1/2-y,1/2-z
1/2-x,1/2+y,1/2-z
1/2-x,1/2-y,1/2-z
1/2+x,1/2+y,1/2-z
1/2-x,1/2+y,1/2+z
1/2+x,1/2-y,1/2+z
loop_
_atom_site_type_symbol
_atom_site_label
_atom_site_fract_x
_atom_site_fract_y
_atom_site_fract_z
Si Si1 0.859020 0.109458 0.738841
Si Si2 0.500000 0.607787 0.934879
Si Si3 0.428955 0.109938 0.145362
Si Si4 0.714376 0.701569 0.141118
Si Si5 0.429815 0.208927 0.739997
Si Si6 0.613622 0.734912 0.064782
Si Si7 0.239827 0.391934 0.298780
Si Si8 0.173723 0.388501 0.184118
O O1 0.825965 0.140264 0.683113
O O2 0.916184 0.177645 0.752025
O O3 0.811903 0.118007 0.789495
O O4 0.882806 0.000000 0.732550
O O5 0.500000 0.500000 0.909257
O O6 0.439605 0.662787 0.914955
O O7 0.500000 0.601659 0.000000
O O8 0.500000 0.118688 0.135758
O O9 0.410464 0.153626 0.204311
O O10 0.395981 0.163794 0.095515
O O11 0.406564 0.000000 0.144934
O O12 0.679537 0.693364 0.082626
O O13 0.717124 0.814843 0.157049
O O14 0.782535 0.657675 0.137111
O O15 0.500000 0.193995 0.725760
O O16 0.391219 0.164736 0.689090
O O17 0.612110 0.752159 0.000000
O O18 0.223430 0.500000 0.319516
O O19 0.208279 0.369516 0.240927
O O20 0.162811 0.500000 0.170251
#
# Coordination Sequence:
#
# PCOD8287607 Si02
#       8
#    16   8  16  16  16  16  16  16
#     4  10  18  30  48  70  93 121 159 194 231 285
#     4   9  20  38  53  63  85 121 156 200 255 291
#     4  10  20  34  50  68  94 130 165 200 243 286
#     4  11  18  32  48  66  93 124 162 199 240 289
#     4  11  20  32  48  72 102 130 159 195 236 288
#     4  11  22  35  51  71  92 119 166 214 247 285
#     4   9  16  28  50  69  87 120 157 191 231 287
#     4  10  18  30  48  69  93 123 157 193 233 283
#
# _framework density 16.188503999999998
#
# number of rings (size 3 to 8) (size 9 to 14) (size 15 to 20)
#    0.000    1.800    4.667    2.400    0.000    4.000 
#    0.000    0.667    0.000    0.000    0.000    0.000 
#    0.000    0.533    0.000    1.200    0.000    4.267 
#
# Total GULP energy -743870.898122 kJ/mol
# GULP energy per Si atom -12397.848302 kJ/mol
# Density = 1.615166 g / cm^3
# Si number density = 16.188504 Si / 1000 Ang^3
#
#
#
# Elastic Constant Matrix: (Units=GPa)
#
#
# Indices 1 2 3 4 5 6 
#
# 1 95.6950 44.8530 37.8678 0.0000 0.0000 0.0000
# 2 44.8530 118.8017 22.6185 0.0000 0.0000 0.0000
# 3 37.8678 22.6185 38.6273 0.0000 0.0000 0.0000
# 4 0.0000 0.0000 0.0000 9.5035 0.0000 0.0000
# 5 0.0000 0.0000 0.0000 0.0000 23.9366 0.0000
# 6 0.0000 0.0000 0.0000 0.0000 0.0000 21.2568
#
#
#
# Elastic Compliance Matrix: (Units=1/GPa)
#
#
# Indices 1 2 3 4 5 6 
#
# 1 0.018622 -0.004001 -0.015913 0.000000 0.000000 0.000000
# 2 -0.004001 0.010333 -0.002128 0.000000 0.000000 0.000000
# 3 -0.015913 -0.002128 0.042735 0.000000 0.000000 0.000000
# 4 0.000000 0.000000 0.000000 0.105224 0.000000 0.000000
# 5 0.000000 0.000000 0.000000 0.000000 0.041777 0.000000
# 6 0.000000 0.000000 0.000000 0.000000 0.000000 0.047044
#
#
# Mechanical properties :
#
#
# Convention : Reuss Voigt Hill
#
# Bulk Modulus (GPa) = 36.22496 51.53362 43.87929
# Shear Modulus (GPa) = 15.67289 20.79171 18.23230
#
# Velocity S-wave (km/s) = 3.11489 3.58767 3.35961
# Velocity P-wave (km/s) = 5.94661 7.00460 6.49718
#
# Compressibility (1/GPa) = 0.02760527
#
# Stress axis : x y z
#
# Youngs Moduli (GPa) = 53.69909 96.77583 23.39999
#
# Poissons Ratio (x) = 0.38720 0.37237
# Poissons Ratio (y) = 0.21485 0.04980
# Poissons Ratio (z) = 0.85453 0.20597
#
# Static dielectric constant tensor:
#      x y z
#    x 3.228400 0.000000 0.000000 
#    y 0.000000 3.286460 0.000000 
#    z 0.000000 0.000000 2.602740 
# 
# 
# High freq. dielectric constant tensor:
#      x y z
#    x 1.624190 0.000000 0.000000 
#    y 0.000000 1.641600 0.000000 
#    z 0.000000 0.000000 1.551770 
# 
# From -- ./inp_files/61417.got.cif
#   From: 2010.06.25/outbox.cif.g09.slc.cpg/sg71_31_cif.got.tgz:61417.got - 2010.06.28 04:59:45.
