data_PCOD8287015
_publ_section_title
;
Structure prediction by ZEFSAII (Michael W. Deem and Ramdas Pophale) SiO2 
 PCOD8287015
Probable space group: I M M M
;
_chemical_formula_sum "Si O2"
_cell_formula_units_Z 104
_cell_length_a 23.096802
_cell_length_b 21.161618
_cell_length_c 13.553992
_cell_angle_alpha 90.000000
_cell_angle_beta 90.000000
_cell_angle_gamma 90.000000
_cell_volume 6624.726400
_symmetry_space_group_name_H-M "I M M M"
_symmetry_group_IT_number 71
_symmetry_cell_setting 'orthorhombic'
loop_
_space_group_symop_operation_xyz
x,y,z
-x,-y,z
x,-y,-z
-x,y,-z
-x,-y,-z
x,y,-z
-x,y,z
x,-y,z
1/2+x,1/2+y,1/2+z
1/2-x,1/2-y,1/2+z
1/2+x,1/2-y,1/2-z
1/2-x,1/2+y,1/2-z
1/2-x,1/2-y,1/2-z
1/2+x,1/2+y,1/2-z
1/2-x,1/2+y,1/2+z
1/2+x,1/2-y,1/2+z
loop_
_atom_site_type_symbol
_atom_site_label
_atom_site_fract_x
_atom_site_fract_y
_atom_site_fract_z
Si Si1 0.252385 0.572101 0.388405
Si Si2 0.629080 0.427426 0.293318
Si Si3 0.933590 0.740653 0.296161
Si Si4 0.932357 0.184072 0.890784
Si Si5 0.433647 0.373454 0.887568
Si Si6 0.065493 0.500000 0.382689
Si Si7 0.629949 0.876077 0.115312
O O1 0.275147 0.584722 0.500000
O O2 0.230481 0.500000 0.380137
O O3 0.302666 0.586213 0.309174
O O4 0.198331 0.617294 0.364801
O O5 0.615146 0.500000 0.318755
O O6 0.594844 0.383987 0.369610
O O7 0.610428 0.412410 0.181122
O O8 0.912696 0.763075 0.187574
O O9 0.926164 0.798643 0.371660
O O10 0.891589 0.684716 0.326469
O O11 0.000000 0.716794 0.295876
O O12 0.000000 0.173344 0.879403
O O13 0.914748 0.207193 0.000000
O O14 0.500000 0.392775 0.862536
O O15 0.418245 0.390113 0.000000
O O16 0.068460 0.500000 0.500000
O O17 0.097017 0.562560 0.342260
O O18 0.000000 0.500000 0.343439
O O19 0.616302 0.867302 0.000000
#
# Coordination Sequence:
#
# PCOD8287015 Si02
#       7
#    16  16  16  16  16   8  16
#     4   9  17  30  45  63  91 125 155 184 225 272
#     4  10  19  30  47  68  88 116 155 190 223 268
#     4   9  17  29  47  69  91 120 154 183 221 276
#     4   9  18  32  47  65  91 117 144 187 235 271
#     4   9  18  32  47  66  96 126 150 183 226 271
#     4   9  16  24  38  66  99 121 142 181 225 265
#     4  10  17  27  44  67  95 124 151 181 222 272
#
# _framework density 15.698762
#
# number of rings (size 3 to 8) (size 9 to 14) (size 15 to 20)
#    0.000    2.692    0.769    2.769    0.000    4.000 
#    0.000    4.615    0.000    2.769    0.000    0.538 
#    0.000    3.077    0.000    0.000    0.000    0.000 
#
# Total GULP energy -644686.303589 kJ/mol
# GULP energy per Si atom -12397.813531 kJ/mol
# Density = 1.566303 g / cm^3
# Si number density = 15.698762 Si / 1000 Ang^3
#
#
#
# Elastic Constant Matrix: (Units=GPa)
#
#
# Indices 1 2 3 4 5 6 
#
# 1 84.5457 55.7968 57.2189 0.0000 0.0000 0.0000
# 2 55.7968 94.9152 42.9660 0.0000 0.0000 0.0000
# 3 57.2189 42.9660 90.5879 0.0000 0.0000 0.0000
# 4 0.0000 0.0000 0.0000 18.0733 0.0000 0.0000
# 5 0.0000 0.0000 0.0000 0.0000 22.1508 0.0000
# 6 0.0000 0.0000 0.0000 0.0000 0.0000 26.9669
#
#
#
# Elastic Compliance Matrix: (Units=1/GPa)
#
#
# Indices 1 2 3 4 5 6 
#
# 1 0.026748 -0.010284 -0.012017 0.000000 0.000000 0.000000
# 2 -0.010284 0.017370 -0.001743 0.000000 0.000000 0.000000
# 3 -0.012017 -0.001743 0.019456 0.000000 0.000000 0.000000
# 4 0.000000 0.000000 0.000000 0.055330 0.000000 0.000000
# 5 0.000000 0.000000 0.000000 0.000000 0.045145 0.000000
# 6 0.000000 0.000000 0.000000 0.000000 0.000000 0.037083
#
#
# Mechanical properties :
#
#
# Convention : Reuss Voigt Hill
#
# Bulk Modulus (GPa) = 64.57481 64.66800 64.62141
# Shear Modulus (GPa) = 19.65534 21.04267 20.34900
#
# Velocity S-wave (km/s) = 3.54224 3.66512 3.60421
# Velocity P-wave (km/s) = 7.61269 7.69372 7.65331
#
# Compressibility (1/GPa) = 0.01548591
#
# Stress axis : x y z
#
# Youngs Moduli (GPa) = 37.38564 57.56940 51.39714
#
# Poissons Ratio (x) = 0.59205 0.61766
# Poissons Ratio (y) = 0.38448 0.08958
# Poissons Ratio (z) = 0.44928 0.10034
#
# Static dielectric constant tensor:
#      x y z
#    x 2.933490 0.000000 0.000000 
#    y 0.000000 2.869700 0.000000 
#    z 0.000000 0.000000 3.063660 
# 
# 
# High freq. dielectric constant tensor:
#      x y z
#    x 1.597020 0.000000 0.000000 
#    y 0.000000 1.594790 0.000000 
#    z 0.000000 0.000000 1.583430 
# 
# From -- ./inp_files/39469.got.cif
#   From: 2010.06.25/outbox.cif.g09.slc.cpg/sg71_20_cif.got.tgz:39469.got - 2010.06.28 04:59:45.
