data_PCOD8287102
_publ_section_title
;
Structure prediction by ZEFSAII (Michael W. Deem and Ramdas Pophale) SiO2 
 PCOD8287102
Probable space group: I M M M
;
_chemical_formula_sum "Si O2"
_cell_formula_units_Z 120
_cell_length_a 22.715741
_cell_length_b 22.965928
_cell_length_c 13.208036
_cell_angle_alpha 90.000000
_cell_angle_beta 90.000000
_cell_angle_gamma 90.000000
_cell_volume 6890.474839
_symmetry_space_group_name_H-M "I M M M"
_symmetry_group_IT_number 71
_symmetry_cell_setting 'orthorhombic'
loop_
_space_group_symop_operation_xyz
x,y,z
-x,-y,z
x,-y,-z
-x,y,-z
-x,-y,-z
x,y,-z
-x,y,z
x,-y,z
1/2+x,1/2+y,1/2+z
1/2-x,1/2-y,1/2+z
1/2+x,1/2-y,1/2-z
1/2-x,1/2+y,1/2-z
1/2-x,1/2-y,1/2-z
1/2+x,1/2+y,1/2-z
1/2-x,1/2+y,1/2+z
1/2+x,1/2-y,1/2+z
loop_
_atom_site_type_symbol
_atom_site_label
_atom_site_fract_x
_atom_site_fract_y
_atom_site_fract_z
Si Si1 0.430377 0.168877 0.210038
Si Si2 0.848389 0.679999 0.115995
Si Si3 0.732641 0.284920 0.616898
Si Si4 0.848123 0.901643 0.380930
Si Si5 0.145155 0.768543 0.381687
Si Si6 0.435559 0.500000 0.119455
Si Si7 0.741837 0.110820 0.252711
Si Si8 0.642926 0.934635 0.116967
O O1 0.500000 0.167304 0.201903
O O2 0.410158 0.169582 0.327065
O O3 0.406165 0.228287 0.162062
O O4 0.404875 0.112251 0.153477
O O5 0.826251 0.746461 0.128371
O O6 0.798842 0.638987 0.161980
O O7 0.858100 0.662903 0.000000
O O8 0.742780 0.301466 0.500000
O O9 0.790532 0.250829 0.659571
O O10 0.725089 0.342810 0.681499
O O11 0.833404 0.908611 0.500000
O O12 0.865653 0.835588 0.353222
O O13 0.901894 0.941927 0.346137
O O14 0.791930 0.923061 0.315534
O O15 0.143950 0.759857 0.500000
O O16 0.500000 0.500000 0.170698
O O17 0.441976 0.500000 0.000000
O O18 0.703085 0.069225 0.181336
O O19 0.617277 0.000000 0.130580
O O20 0.657847 0.921890 0.000000
#
# Coordination Sequence:
#
# PCOD8287102 Si02
#       8
#    16  16  16  16  16   8  16  16
#     4  11  23  36  53  75 102 139 180 216 252 300
#     4  10  19  31  50  75 105 138 168 205 259 313
#     4  10  17  29  51  79 109 138 162 202 267 320
#     4  10  20  32  51  77 107 139 171 209 253 304
#     4  10  18  31  52  80 107 131 164 213 264 308
#     4   9  20  38  52  66  99 145 182 209 247 299
#     4  11  18  29  52  78 108 132 169 210 260 308
#     4  10  22  38  54  75 105 136 167 212 265 312
#
# _framework density 17.415346
#
# number of rings (size 3 to 8) (size 9 to 14) (size 15 to 20)
#    0.000    1.800    4.000    2.400    0.933    2.133 
#    0.000    2.000    0.000    3.600    0.000    3.733 
#    0.000    3.733    0.000    0.000    0.000    0.133 
#
# Total GULP energy -743878.375334 kJ/mol
# GULP energy per Si atom -12397.972922 kJ/mol
# Density = 1.737571 g / cm^3
# Si number density = 17.415346 Si / 1000 Ang^3
#
#
#
# Elastic Constant Matrix: (Units=GPa)
#
#
# Indices 1 2 3 4 5 6 
#
# 1 131.9626 50.8341 45.5897 0.0000 0.0000 0.0000
# 2 50.8341 87.0672 38.9474 0.0000 0.0000 0.0000
# 3 45.5897 38.9474 62.0495 0.0000 0.0000 0.0000
# 4 0.0000 0.0000 0.0000 19.0711 0.0000 0.0000
# 5 0.0000 0.0000 0.0000 0.0000 18.7477 0.0000
# 6 0.0000 0.0000 0.0000 0.0000 0.0000 18.8832
#
#
#
# Elastic Compliance Matrix: (Units=1/GPa)
#
#
# Indices 1 2 3 4 5 6 
#
# 1 0.011040 -0.003917 -0.005653 0.000000 0.000000 0.000000
# 2 -0.003917 0.017359 -0.008018 0.000000 0.000000 0.000000
# 3 -0.005653 -0.008018 0.025302 0.000000 0.000000 0.000000
# 4 0.000000 0.000000 0.000000 0.052435 0.000000 0.000000
# 5 0.000000 0.000000 0.000000 0.000000 0.053340 0.000000
# 6 0.000000 0.000000 0.000000 0.000000 0.000000 0.052957
#
#
# Mechanical properties :
#
#
# Convention : Reuss Voigt Hill
#
# Bulk Modulus (GPa) = 53.97939 61.31352 57.64645
# Shear Modulus (GPa) = 19.70188 21.05428 20.37808
#
# Velocity S-wave (km/s) = 3.36712 3.48077 3.42442
# Velocity P-wave (km/s) = 6.79553 7.17198 6.98629
#
# Compressibility (1/GPa) = 0.01852559
#
# Stress axis : x y z
#
# Youngs Moduli (GPa) = 90.58315 57.60723 39.52255
#
# Poissons Ratio (x) = 0.22564 0.22340
# Poissons Ratio (y) = 0.35481 0.31689
# Poissons Ratio (z) = 0.51203 0.46189
#
# Static dielectric constant tensor:
#      x y z
#    x 3.112440 0.000000 0.000000 
#    y 0.000000 3.209880 0.000000 
#    z 0.000000 0.000000 3.408230 
# 
# 
# High freq. dielectric constant tensor:
#      x y z
#    x 1.647440 0.000000 0.000000 
#    y 0.000000 1.666540 0.000000 
#    z 0.000000 0.000000 1.679640 
# 
# From -- ./inp_files/38566.got.cif
#   From: 2010.06.25/outbox.cif.g09.slc.cpg/sg71_20_cif.got.tgz:38566.got - 2010.06.28 04:59:45.
