data_PCOD8287140
_publ_section_title
;
Structure prediction by ZEFSAII (Michael W. Deem and Ramdas Pophale) SiO2 
 PCOD8287140
Probable space group: I M M M
;
_chemical_formula_sum "Si O2"
_cell_formula_units_Z 104
_cell_length_a 8.421955
_cell_length_b 23.938091
_cell_length_c 25.563115
_cell_angle_alpha 90.000000
_cell_angle_beta 90.000000
_cell_angle_gamma 90.000000
_cell_volume 5153.665225
_symmetry_space_group_name_H-M "I M M M"
_symmetry_group_IT_number 71
_symmetry_cell_setting 'orthorhombic'
loop_
_space_group_symop_operation_xyz
x,y,z
-x,-y,z
x,-y,-z
-x,y,-z
-x,-y,-z
x,y,-z
-x,y,z
x,-y,z
1/2+x,1/2+y,1/2+z
1/2-x,1/2-y,1/2+z
1/2+x,1/2-y,1/2-z
1/2-x,1/2+y,1/2-z
1/2-x,1/2-y,1/2-z
1/2+x,1/2+y,1/2-z
1/2-x,1/2+y,1/2+z
1/2+x,1/2-y,1/2+z
loop_
_atom_site_type_symbol
_atom_site_label
_atom_site_fract_x
_atom_site_fract_y
_atom_site_fract_z
Si Si1 0.813845 0.114109 0.750355
Si Si2 0.683795 0.000000 0.719538
Si Si3 0.810569 0.885230 0.558425
Si Si4 0.686372 0.500000 0.104722
Si Si5 0.327512 0.000000 0.938197
Si Si6 0.188656 0.187087 0.346582
Si Si7 0.311788 0.812925 0.156734
Si Si8 0.189103 0.619315 0.557929
O O1 0.726722 0.054555 0.753487
O O2 0.748198 0.148280 0.700296
O O3 0.777620 0.149147 0.801785
O O4 0.000000 0.103476 0.745097
O O5 0.782156 0.000000 0.666193
O O6 0.500000 0.000000 0.705636
O O7 0.747786 0.871977 0.500000
O O8 0.748654 0.837546 0.598207
O O9 0.000000 0.887033 0.559204
O O10 0.741277 0.944937 0.577345
O O11 0.500000 0.500000 0.096101
O O12 0.239109 0.941502 0.923667
O O13 0.500000 0.000000 0.910257
O O14 0.351125 0.000000 0.000000
O O15 0.252586 0.249778 0.338333
O O16 0.000000 0.188321 0.346546
O O17 0.500000 0.817137 0.165712
O O18 0.260930 0.833532 0.099021
O O19 0.252557 0.636114 0.500000
O O20 0.000000 0.612861 0.555788
#
# Coordination Sequence:
#
# PCOD8287140 Si02
#       8
#    16   8  16   8   8  16  16  16
#     4  11  22  39  58  77 107 146 184 223 279 341
#     4  12  24  38  60  87 110 139 180 232 290 343
#     4   9  16  27  50  84 114 145 191 240 281 329
#     4  10  17  32  55  81 115 150 187 230 286 345
#     4   7  10  19  36  59  89 126 159 185 234 306
#     4   9  18  32  51  76 109 147 186 231 276 321
#     4  10  20  33  52  81 111 141 187 237 275 318
#     4   8  14  25  43  69 103 139 173 218 275 322
#
# _framework density 20.179811999999998
#
# number of rings (size 3 to 8) (size 9 to 14) (size 15 to 20)
#    0.000    2.538    1.538    2.769    0.000    2.154 
#    0.000    5.385    0.000    1.385    0.000    0.000 
#    0.000    3.077    0.000    0.000    0.000    0.000 
#
# Total GULP energy -644522.746110 kJ/mol
# GULP energy per Si atom -12394.668194 kJ/mol
# Density = 2.013388 g / cm^3
# Si number density = 20.179812 Si / 1000 Ang^3
#
#
#
# Elastic Constant Matrix: (Units=GPa)
#
#
# Indices 1 2 3 4 5 6 
#
# 1 16.8483 13.9058 6.7929 0.0000 0.0000 0.0000
# 2 13.9058 167.6920 67.1912 0.0000 0.0000 0.0000
# 3 6.7929 67.1912 125.7480 0.0000 0.0000 0.0000
# 4 0.0000 0.0000 0.0000 35.1608 0.0000 0.0000
# 5 0.0000 0.0000 0.0000 0.0000 16.3033 0.0000
# 6 0.0000 0.0000 0.0000 0.0000 0.0000 13.9268
#
#
#
# Elastic Compliance Matrix: (Units=1/GPa)
#
#
# Indices 1 2 3 4 5 6 
#
# 1 0.063775 -0.004973 -0.000788 0.000000 0.000000 0.000000
# 2 -0.004973 0.007976 -0.003993 0.000000 0.000000 0.000000
# 3 -0.000788 -0.003993 0.010129 0.000000 0.000000 0.000000
# 4 0.000000 0.000000 0.000000 0.028441 0.000000 0.000000
# 5 0.000000 0.000000 0.000000 0.000000 0.061337 0.000000
# 6 0.000000 0.000000 0.000000 0.000000 0.000000 0.071804
#
#
# Mechanical properties :
#
#
# Convention : Reuss Voigt Hill
#
# Bulk Modulus (GPa) = 16.03290 54.00755 35.02023
# Shear Modulus (GPa) = 17.62055 27.90475 22.76265
#
# Velocity S-wave (km/s) = 2.95816 3.72264 3.36220
# Velocity P-wave (km/s) = 4.43056 6.73043 5.69774
#
# Compressibility (1/GPa) = 0.06237175
#
# Stress axis : x y z
#
# Youngs Moduli (GPa) = 15.68009 125.38238 98.73075
#
# Poissons Ratio (x) = 0.62350 0.07780
# Poissons Ratio (y) = 0.07797 0.39423
# Poissons Ratio (z) = 0.01236 0.50065
#
# Static dielectric constant tensor:
#      x y z
#    x 3.028420 0.000000 0.000000 
#    y 0.000000 4.085790 0.000000 
#    z 0.000000 0.000000 3.730800 
# 
# 
# High freq. dielectric constant tensor:
#      x y z
#    x 1.722450 0.000000 0.000000 
#    y 0.000000 1.803340 0.000000 
#    z 0.000000 0.000000 1.788250 
# 
# From -- ./inp_files/63391.got.cif
#   From: 2010.06.25/outbox.cif.g09.slc.cpg/sg71_32_cif.got.tgz:63391.got - 2010.06.28 04:59:45.
