data_PCOD8287191
_publ_section_title
;
Structure prediction by ZEFSAII (Michael W. Deem and Ramdas Pophale) SiO2 
 PCOD8287191
Probable space group: I M M M
;
_chemical_formula_sum "Si O2"
_cell_formula_units_Z 120
_cell_length_a 26.915552
_cell_length_b 21.097076
_cell_length_c 13.475400
_cell_angle_alpha 90.000000
_cell_angle_beta 90.000000
_cell_angle_gamma 90.000000
_cell_volume 7651.863672
_symmetry_space_group_name_H-M "I M M M"
_symmetry_group_IT_number 71
_symmetry_cell_setting 'orthorhombic'
loop_
_space_group_symop_operation_xyz
x,y,z
-x,-y,z
x,-y,-z
-x,y,-z
-x,-y,-z
x,y,-z
-x,y,z
x,-y,z
1/2+x,1/2+y,1/2+z
1/2-x,1/2-y,1/2+z
1/2+x,1/2-y,1/2-z
1/2-x,1/2+y,1/2-z
1/2-x,1/2-y,1/2-z
1/2+x,1/2+y,1/2-z
1/2-x,1/2+y,1/2+z
1/2+x,1/2-y,1/2+z
loop_
_atom_site_type_symbol
_atom_site_label
_atom_site_fract_x
_atom_site_fract_y
_atom_site_fract_z
Si Si1 0.879964 0.925636 0.195854
Si Si2 0.639505 0.098263 0.617941
Si Si3 0.054669 0.826491 0.117605
Si Si4 0.169840 0.925492 0.392488
Si Si5 0.943766 0.500000 0.883561
Si Si6 0.356979 0.757520 0.617150
Si Si7 0.762978 0.428962 0.771872
Si Si8 0.211207 0.146369 0.885812
O O1 0.931725 0.895281 0.161587
O O2 0.869978 0.904318 0.309946
O O3 0.835252 0.901131 0.126244
O O4 0.884369 0.000000 0.183693
O O5 0.649318 0.091278 0.500000
O O6 0.641344 0.170718 0.655405
O O7 0.682772 0.065871 0.680955
O O8 0.587621 0.063229 0.646626
O O9 0.093768 0.775801 0.160797
O O10 0.000000 0.806912 0.154310
O O11 0.056910 0.830482 0.000000
O O12 0.159074 0.893200 0.500000
O O13 0.224894 0.905622 0.356755
O O14 0.167430 0.000000 0.405352
O O15 0.000000 0.500000 0.835789
O O16 0.950905 0.500000 0.000000
O O17 0.360850 0.757399 0.500000
O O18 0.307560 0.717280 0.647672
O O19 0.748390 0.500000 0.734654
O O20 0.757432 0.379068 0.680477
O O21 0.228658 0.146953 0.000000
#
# Coordination Sequence:
#
# PCOD8287191 Si02
#       8
#    16  16  16  16   8  16  16  16
#     4   9  16  25  39  59  82 111 143 175 214 254
#     4  10  18  29  45  64  89 114 139 177 216 258
#     4   9  17  28  41  58  80 105 138 180 217 255
#     4   8  14  24  38  56  80 110 141 169 198 242
#     4   9  18  30  44  64  89 117 143 173 221 272
#     4   8  16  29  43  59  81 114 147 174 214 258
#     4  10  18  26  41  65  89 116 146 173 214 256
#     4   9  17  29  42  59  87 119 150 178 205 251
#
# _framework density 15.682454
#
# number of rings (size 3 to 8) (size 9 to 14) (size 15 to 20)
#    0.000    3.000    0.667    2.800    0.000    3.733 
#    0.000    3.333    0.000    0.400    0.000    1.867 
#    0.000    1.067    0.000    0.000    0.000    0.000 
#
# Total GULP energy -743317.791036 kJ/mol
# GULP energy per Si atom -12388.629851 kJ/mol
# Density = 1.564676 g / cm^3
# Si number density = 15.682454 Si / 1000 Ang^3
#
#
#
# Elastic Constant Matrix: (Units=GPa)
#
#
# Indices 1 2 3 4 5 6 
#
# 1 73.0769 27.1300 26.8572 0.0000 0.0000 0.0000
# 2 27.1300 94.8661 17.6552 0.0000 0.0000 0.0000
# 3 26.8572 17.6552 40.8661 0.0000 0.0000 0.0000
# 4 0.0000 0.0000 0.0000 12.5650 0.0000 0.0000
# 5 0.0000 0.0000 0.0000 0.0000 12.0299 0.0000
# 6 0.0000 0.0000 0.0000 0.0000 0.0000 16.9387
#
#
#
# Elastic Compliance Matrix: (Units=1/GPa)
#
#
# Indices 1 2 3 4 5 6 
#
# 1 0.018989 -0.003380 -0.011019 0.000000 0.000000 0.000000
# 2 -0.003380 0.012064 -0.002991 0.000000 0.000000 0.000000
# 3 -0.011019 -0.002991 0.033004 0.000000 0.000000 0.000000
# 4 0.000000 0.000000 0.000000 0.079586 0.000000 0.000000
# 5 0.000000 0.000000 0.000000 0.000000 0.083126 0.000000
# 6 0.000000 0.000000 0.000000 0.000000 0.000000 0.059036
#
#
# Mechanical properties :
#
#
# Convention : Reuss Voigt Hill
#
# Bulk Modulus (GPa) = 34.15606 39.12156 36.63881
# Shear Modulus (GPa) = 15.13566 17.45115 16.29341
#
# Velocity S-wave (km/s) = 3.11003 3.33946 3.22678
# Velocity P-wave (km/s) = 5.89266 6.31423 6.10709
#
# Compressibility (1/GPa) = 0.02927739
#
# Stress axis : x y z
#
# Youngs Moduli (GPa) = 52.66276 82.88890 30.29919
#
# Poissons Ratio (x) = 0.28014 0.33388
# Poissons Ratio (y) = 0.17798 0.09062
# Poissons Ratio (z) = 0.58031 0.24792
#
# Static dielectric constant tensor:
#      x y z
#    x 2.990530 0.000000 0.000000 
#    y 0.000000 3.236700 0.000000 
#    z 0.000000 0.000000 3.007700 
# 
# 
# High freq. dielectric constant tensor:
#      x y z
#    x 1.581930 0.000000 0.000000 
#    y 0.000000 1.598820 0.000000 
#    z 0.000000 0.000000 1.568310 
# 
# From -- ./inp_files/40555.got.cif
#   From: 2010.06.25/outbox.cif.g09.slc.cpg/sg71_21_cif.got.tgz:40555.got - 2010.06.28 04:59:45.
