data_PCOD8287697
_publ_section_title
;
Structure prediction by ZEFSAII (Michael W. Deem and Ramdas Pophale) SiO2 
 PCOD8287697
Probable space group: I M M M
;
_chemical_formula_sum "Si O2"
_cell_formula_units_Z 128
_cell_length_a 17.644224
_cell_length_b 18.578586
_cell_length_c 22.875478
_cell_angle_alpha 90.000000
_cell_angle_beta 90.000000
_cell_angle_gamma 90.000000
_cell_volume 7498.689958
_symmetry_space_group_name_H-M "I M M M"
_symmetry_group_IT_number 71
_symmetry_cell_setting 'orthorhombic'
loop_
_space_group_symop_operation_xyz
x,y,z
-x,-y,z
x,-y,-z
-x,y,-z
-x,-y,-z
x,y,-z
-x,y,z
x,-y,z
1/2+x,1/2+y,1/2+z
1/2-x,1/2-y,1/2+z
1/2+x,1/2-y,1/2-z
1/2-x,1/2+y,1/2-z
1/2-x,1/2-y,1/2-z
1/2+x,1/2+y,1/2-z
1/2-x,1/2+y,1/2+z
1/2+x,1/2-y,1/2+z
loop_
_atom_site_type_symbol
_atom_site_label
_atom_site_fract_x
_atom_site_fract_y
_atom_site_fract_z
Si Si1 0.719397 0.292492 0.432242
Si Si2 0.686064 0.915918 0.380664
Si Si3 0.275473 0.085129 0.139762
Si Si4 0.083579 0.584919 0.564851
Si Si5 0.179377 0.840142 0.566679
Si Si6 0.269479 0.584242 0.233201
Si Si7 0.587122 0.415852 0.837187
Si Si8 0.915447 0.692960 0.068213
O O1 0.719867 0.309195 0.500000
O O2 0.719342 0.369408 0.400609
O O3 0.790166 0.239816 0.415963
O O4 0.640595 0.256467 0.412978
O O5 0.750056 0.895231 0.428151
O O6 0.715336 0.886253 0.317979
O O7 0.606612 0.878877 0.396267
O O8 0.672034 0.000000 0.380409
O O9 0.359591 0.106628 0.117007
O O10 0.260206 0.114963 0.205103
O O11 0.258994 0.000000 0.132921
O O12 0.109867 0.613261 0.500000
O O13 0.078847 0.500000 0.561443
O O14 0.000000 0.616423 0.579505
O O15 0.150137 0.841058 0.500000
O O16 0.110366 0.865834 0.607902
O O17 0.259290 0.500000 0.236883
O O18 0.357534 0.602994 0.217739
O O19 0.500000 0.399580 0.819832
O O20 0.597748 0.500000 0.854497
O O21 0.000000 0.716100 0.085488
O O22 0.907814 0.675262 0.000000
#
# Coordination Sequence:
#
# PCOD8287697 Si02
#       8
#    16  16  16  16  16  16  16  16
#     4   9  18  32  49  69  94 123 152 189 241 288
#     4   9  16  28  46  67  92 121 154 192 232 276
#     4  10  18  30  51  73  91 120 165 203 227 268
#     4   8  14  25  42  66  93 114 136 178 234 281
#     4   9  17  29  44  65  95 126 154 187 236 295
#     4   8  16  30  46  67  95 125 157 196 241 278
#     4   9  17  30  48  68  94 129 164 198 234 273
#     4   9  18  32  48  66  92 125 155 187 234 287
#
# _framework density 17.069648999999998
#
# number of rings (size 3 to 8) (size 9 to 14) (size 15 to 20)
#    0.000    3.125    0.000    3.000    0.000    3.000 
#    0.000    8.750    0.000    4.125    0.000    1.750 
#    0.000    0.000    0.000    0.000    0.000    0.000 
#
# Total GULP energy -792996.787955 kJ/mol
# GULP energy per Si atom -12390.574812 kJ/mol
# Density = 1.703080 g / cm^3
# Si number density = 17.069649 Si / 1000 Ang^3
#
#
#
# Elastic Constant Matrix: (Units=GPa)
#
#
# Indices 1 2 3 4 5 6 
#
# 1 109.0771 32.2670 51.7966 0.0000 0.0000 0.0000
# 2 32.2670 62.2922 34.7426 0.0000 0.0000 0.0000
# 3 51.7966 34.7426 87.6063 0.0000 0.0000 0.0000
# 4 0.0000 0.0000 0.0000 20.0327 0.0000 0.0000
# 5 0.0000 0.0000 0.0000 0.0000 23.5140 0.0000
# 6 0.0000 0.0000 0.0000 0.0000 0.0000 15.6342
#
#
#
# Elastic Compliance Matrix: (Units=1/GPa)
#
#
# Indices 1 2 3 4 5 6 
#
# 1 0.013224 -0.003196 -0.006551 0.000000 0.000000 0.000000
# 2 -0.003196 0.021385 -0.006591 0.000000 0.000000 0.000000
# 3 -0.006551 -0.006591 0.017902 0.000000 0.000000 0.000000
# 4 0.000000 0.000000 0.000000 0.049918 0.000000 0.000000
# 5 0.000000 0.000000 0.000000 0.000000 0.042528 0.000000
# 6 0.000000 0.000000 0.000000 0.000000 0.000000 0.063962
#
#
# Mechanical properties :
#
#
# Convention : Reuss Voigt Hill
#
# Bulk Modulus (GPa) = 50.41788 55.17646 52.79717
# Shear Modulus (GPa) = 20.14437 21.18080 20.66258
#
# Velocity S-wave (km/s) = 3.43903 3.52639 3.48298
# Velocity P-wave (km/s) = 6.73572 6.99821 6.86822
#
# Compressibility (1/GPa) = 0.01983424
#
# Stress axis : x y z
#
# Youngs Moduli (GPa) = 75.61866 46.76155 55.85996
#
# Poissons Ratio (x) = 0.14946 0.36595
# Poissons Ratio (y) = 0.24170 0.36818
# Poissons Ratio (z) = 0.49539 0.30821
#
# Static dielectric constant tensor:
#      x y z
#    x 3.309850 0.000000 0.000000 
#    y 0.000000 3.017420 0.000000 
#    z 0.000000 0.000000 3.377920 
# 
# 
# High freq. dielectric constant tensor:
#      x y z
#    x 1.647160 0.000000 0.000000 
#    y 0.000000 1.638160 0.000000 
#    z 0.000000 0.000000 1.648070 
# 
# From -- ./inp_files/60881.got.cif
#   From: 2010.06.25/outbox.cif.g09.slc.cpg/sg71_31_cif.got.tgz:60881.got - 2010.06.28 04:59:45.
