data_PCOD8287751
_publ_section_title
;
Structure prediction by ZEFSAII (Michael W. Deem and Ramdas Pophale) SiO2 
 PCOD8287751
Probable space group: I M M M
;
_chemical_formula_sum "Si O2"
_cell_formula_units_Z 88
_cell_length_a 9.423282
_cell_length_b 25.079062
_cell_length_c 24.265387
_cell_angle_alpha 90.000000
_cell_angle_beta 90.000000
_cell_angle_gamma 90.000000
_cell_volume 5734.567898
_symmetry_space_group_name_H-M "I M M M"
_symmetry_group_IT_number 71
_symmetry_cell_setting 'orthorhombic'
loop_
_space_group_symop_operation_xyz
x,y,z
-x,-y,z
x,-y,-z
-x,y,-z
-x,-y,-z
x,y,-z
-x,y,z
x,-y,z
1/2+x,1/2+y,1/2+z
1/2-x,1/2-y,1/2+z
1/2+x,1/2-y,1/2-z
1/2-x,1/2+y,1/2-z
1/2-x,1/2-y,1/2-z
1/2+x,1/2+y,1/2-z
1/2-x,1/2+y,1/2+z
1/2+x,1/2-y,1/2+z
loop_
_atom_site_type_symbol
_atom_site_label
_atom_site_fract_x
_atom_site_fract_y
_atom_site_fract_z
Si Si1 0.666364 0.058581 0.785119
Si Si2 0.165451 0.755547 0.164010
Si Si3 0.849582 0.060351 0.000000
Si Si4 0.664792 0.170644 0.754185
Si Si5 0.339036 0.219883 0.063752
Si Si6 0.159482 0.401764 0.404277
O O1 0.500000 0.050347 0.782295
O O2 0.710355 0.108194 0.745266
O O3 0.712883 0.079120 0.845018
O O4 0.736260 0.000000 0.771133
O O5 0.241013 0.802575 0.198153
O O6 0.186366 0.699892 0.196141
O O7 0.235740 0.746245 0.103702
O O8 0.000000 0.770092 0.157291
O O9 0.762686 0.071199 0.053928
O O10 0.000000 0.092671 0.000000
O O11 0.890989 0.000000 0.000000
O O12 0.500000 0.173835 0.773944
O O13 0.500000 0.241790 0.067267
O O14 0.331311 0.161095 0.088253
O O15 0.286471 0.221665 0.000000
O O16 0.000000 0.421695 0.415662
#
# Coordination Sequence:
#
# PCOD8287751 Si02
#       6
#    16  16   8  16  16  16
#     4   9  16  27  46  67  84 108 145 185 216 247
#     4  10  19  29  46  68  89 117 147 182 226 266
#     4  11  23  33  39  53  81 113 145 189 234 259
#     4   9  17  31  47  65  91 117 147 184 220 265
#     4  10  19  32  48  64  86 116 148 187 227 260
#     4  10  18  31  47  60  77 109 152 188 215 252
#
# _framework density 15.345533
#
# number of rings (size 3 to 8) (size 9 to 14) (size 15 to 20)
#    0.000    2.273    2.727    1.364    0.000    3.273 
#    0.000    0.000    0.000    0.545    0.000    0.000 
#    0.000    0.727    0.000    9.091    0.000    1.455 
#
# Total GULP energy -545119.062696 kJ/mol
# GULP energy per Si atom -12389.069607 kJ/mol
# Density = 1.531061 g / cm^3
# Si number density = 15.345533 Si / 1000 Ang^3
#
#
#
# Elastic Constant Matrix: (Units=GPa)
#
#
# Indices 1 2 3 4 5 6 
#
# 1 68.2428 30.8860 40.1234 0.0000 0.0000 0.0000
# 2 30.8860 104.0869 50.8173 0.0000 0.0000 0.0000
# 3 40.1234 50.8173 71.2675 0.0000 0.0000 0.0000
# 4 0.0000 0.0000 0.0000 24.4033 0.0000 0.0000
# 5 0.0000 0.0000 0.0000 0.0000 8.0362 0.0000
# 6 0.0000 0.0000 0.0000 0.0000 0.0000 14.2884
#
#
#
# Elastic Compliance Matrix: (Units=1/GPa)
#
#
# Indices 1 2 3 4 5 6 
#
# 1 0.021941 -0.000736 -0.011828 0.000000 0.000000 0.000000
# 2 -0.000736 0.014763 -0.010112 0.000000 0.000000 0.000000
# 3 -0.011828 -0.010112 0.027901 0.000000 0.000000 0.000000
# 4 0.000000 0.000000 0.000000 0.040978 0.000000 0.000000
# 5 0.000000 0.000000 0.000000 0.000000 0.124437 0.000000
# 6 0.000000 0.000000 0.000000 0.000000 0.000000 0.069987
#
#
# Mechanical properties :
#
#
# Convention : Reuss Voigt Hill
#
# Bulk Modulus (GPa) = 51.94074 54.13894 53.03984
# Shear Modulus (GPa) = 14.21356 17.46360 15.83858
#
# Velocity S-wave (km/s) = 3.04671 3.37712 3.21616
# Velocity P-wave (km/s) = 6.80423 7.11078 6.95919
#
# Compressibility (1/GPa) = 0.01925271
#
# Stress axis : x y z
#
# Youngs Moduli (GPa) = 45.57705 67.73817 35.84077
#
# Poissons Ratio (x) = 0.04985 0.42392
# Poissons Ratio (y) = 0.03354 0.36243
# Poissons Ratio (z) = 0.53908 0.68498
#
# Static dielectric constant tensor:
#      x y z
#    x 2.983750 0.000000 0.000000 
#    y 0.000000 3.115280 0.000000 
#    z 0.000000 0.000000 3.035890 
# 
# 
# High freq. dielectric constant tensor:
#      x y z
#    x 1.580640 0.000000 0.000000 
#    y 0.000000 1.570120 0.000000 
#    z 0.000000 0.000000 1.568730 
# 
# From -- ./inp_files/51040.got.cif
#   From: 2010.06.25/outbox.cif.g09.slc.cpg/sg71_26_cif.got.tgz:51040.got - 2010.06.28 04:59:45.
