data_PCOD8287939
_publ_section_title
;
Structure prediction by ZEFSAII (Michael W. Deem and Ramdas Pophale) SiO2 
 PCOD8287939
Probable space group: I M M M
;
_chemical_formula_sum "Si O2"
_cell_formula_units_Z 96
_cell_length_a 16.187024
_cell_length_b 19.345442
_cell_length_c 16.822612
_cell_angle_alpha 90.000000
_cell_angle_beta 90.000000
_cell_angle_gamma 90.000000
_cell_volume 5267.919088
_symmetry_space_group_name_H-M "I M M M"
_symmetry_group_IT_number 71
_symmetry_cell_setting 'orthorhombic'
loop_
_space_group_symop_operation_xyz
x,y,z
-x,-y,z
x,-y,-z
-x,y,-z
-x,-y,-z
x,y,-z
-x,y,z
x,-y,z
1/2+x,1/2+y,1/2+z
1/2-x,1/2-y,1/2+z
1/2+x,1/2-y,1/2-z
1/2-x,1/2+y,1/2-z
1/2-x,1/2-y,1/2-z
1/2+x,1/2+y,1/2-z
1/2-x,1/2+y,1/2+z
1/2+x,1/2-y,1/2+z
loop_
_atom_site_type_symbol
_atom_site_label
_atom_site_fract_x
_atom_site_fract_y
_atom_site_fract_z
Si Si1 0.902135 0.077308 0.310316
Si Si2 0.901329 0.921174 0.000000
Si Si3 0.322181 0.789498 0.706245
Si Si4 0.902868 0.154903 0.844550
Si Si5 0.902463 0.422120 0.500000
Si Si6 0.308694 0.677829 0.090856
Si Si7 0.901867 0.317959 0.362831
O O1 0.866549 0.116391 0.232776
O O2 0.870821 0.115801 0.388811
O O3 0.000000 0.077934 0.310548
O O4 0.867210 0.000000 0.309485
O O5 0.865252 0.881237 0.076875
O O6 0.000000 0.920384 0.000000
O O7 0.868857 0.000000 0.000000
O O8 0.250000 0.750000 0.750000
O O9 0.380716 0.735388 0.660032
O O10 0.276872 0.835173 0.639267
O O11 0.374787 0.833706 0.771177
O O12 0.000000 0.146138 0.846974
O O13 0.864121 0.500000 0.500000
O O14 0.874715 0.381006 0.420330
O O15 0.000000 0.428034 0.500000
O O16 0.354749 0.749568 0.109211
O O17 0.283879 0.674058 0.000000
O O18 0.000000 0.304902 0.366997
#
# Coordination Sequence:
#
# PCOD8287939 Si02
#       7
#    16   8  16  16   8  16  16
#     4  10  20  34  54  79 106 137 177 225 270 318
#     4   9  18  30  47  75 109 144 176 211 262 317
#     4  10  20  33  51  73 103 138 180 218 259 314
#     4  10  18  32  53  76 105 140 182 223 263 316
#     4   9  18  32  55  87 112 127 156 214 277 329
#     4  11  22  35  53  75 106 142 182 221 272 319
#     4  10  18  33  57  79 104 138 176 215 263 326
#
# _framework density 18.223514000000002
#
# number of rings (size 3 to 8) (size 9 to 14) (size 15 to 20)
#    0.000    2.000    4.167    1.500    1.167    3.333 
#    0.000    1.667    0.000    4.000    0.000    0.000 
#    0.000    0.000    0.000    7.500    0.000    0.000 
#
# Total GULP energy -594972.558173 kJ/mol
# GULP energy per Si atom -12395.261629 kJ/mol
# Density = 1.818204 g / cm^3
# Si number density = 18.223514 Si / 1000 Ang^3
#
#
#
# Elastic Constant Matrix: (Units=GPa)
#
#
# Indices 1 2 3 4 5 6 
#
# 1 28.6490 24.0508 39.4398 0.0000 0.0000 0.0000
# 2 24.0508 97.5479 45.8847 0.0000 0.0000 0.0000
# 3 39.4398 45.8847 143.7638 0.0001 0.0000 0.0000
# 4 0.0000 0.0000 0.0001 30.5511 0.0000 0.0000
# 5 0.0000 0.0000 0.0000 0.0000 26.3498 0.0000
# 6 0.0000 0.0000 0.0000 0.0000 0.0000 10.8360
#
#
#
# Elastic Compliance Matrix: (Units=1/GPa)
#
#
# Indices 1 2 3 4 5 6 
#
# 1 0.061560 -0.008512 -0.014172 0.000000 0.000000 0.000000
# 2 -0.008512 0.013239 -0.001890 0.000000 0.000000 0.000000
# 3 -0.014172 -0.001890 0.011447 0.000000 0.000000 0.000000
# 4 0.000000 0.000000 0.000000 0.032732 0.000000 0.000000
# 5 0.000000 0.000000 0.000000 0.000000 0.037951 0.000000
# 6 0.000000 0.000000 0.000000 0.000000 0.000000 0.092285
#
#
# Mechanical properties :
#
#
# Convention : Reuss Voigt Hill
#
# Bulk Modulus (GPa) = 26.95503 54.30123 40.62813
# Shear Modulus (GPa) = 16.09121 24.25308 20.17215
#
# Velocity S-wave (km/s) = 2.97474 3.65206 3.33066
# Velocity P-wave (km/s) = 5.15967 6.90257 6.09375
#
# Compressibility (1/GPa) = 0.03709882
#
# Stress axis : x y z
#
# Youngs Moduli (GPa) = 16.24424 75.53320 87.35922
#
# Poissons Ratio (x) = 0.64293 1.23802
# Poissons Ratio (y) = 0.13827 0.16514
# Poissons Ratio (z) = 0.23021 0.14279
#
# Static dielectric constant tensor:
#      x y z
#    x 3.556140 0.000000 0.000000 
#    y 0.000000 3.398270 0.000000 
#    z 0.000000 0.000000 3.954480 
# 
# 
# High freq. dielectric constant tensor:
#      x y z
#    x 1.686960 0.000000 0.000000 
#    y 0.000000 1.682000 0.000000 
#    z 0.000000 0.000000 1.714920 
# 
# From -- ./inp_files/46075.got.cif
#   From: 2010.06.25/outbox.cif.g09.slc.cpg/sg71_24_cif.got.tgz:46075.got - 2010.06.28 04:59:45.
