data_PCOD8287300
_publ_section_title
;
Structure prediction by ZEFSAII (Michael W. Deem and Ramdas Pophale) SiO2 
 PCOD8287300
Probable space group: I M M M
;
_chemical_formula_sum "Si O2"
_cell_formula_units_Z 104
_cell_length_a 9.791808
_cell_length_b 24.514541
_cell_length_c 24.947607
_cell_angle_alpha 90.000000
_cell_angle_beta 90.000000
_cell_angle_gamma 90.000000
_cell_volume 5988.465463
_symmetry_space_group_name_H-M "I M M M"
_symmetry_group_IT_number 71
_symmetry_cell_setting 'orthorhombic'
loop_
_space_group_symop_operation_xyz
x,y,z
-x,-y,z
x,-y,-z
-x,y,-z
-x,-y,-z
x,y,-z
-x,y,z
x,-y,z
1/2+x,1/2+y,1/2+z
1/2-x,1/2-y,1/2+z
1/2+x,1/2-y,1/2-z
1/2-x,1/2+y,1/2-z
1/2-x,1/2-y,1/2-z
1/2+x,1/2+y,1/2-z
1/2-x,1/2+y,1/2+z
1/2+x,1/2-y,1/2+z
loop_
_atom_site_type_symbol
_atom_site_label
_atom_site_fract_x
_atom_site_fract_y
_atom_site_fract_z
Si Si1 0.341629 0.936133 0.345590
Si Si2 0.150336 0.240181 0.063225
Si Si3 0.155796 0.064811 0.752506
Si Si4 0.162217 0.640743 0.059385
Si Si5 0.764949 0.372535 0.437299
Si Si6 0.000000 0.059917 0.062399
Si Si7 0.148484 0.438247 0.654655
O O1 0.500000 0.922581 0.331915
O O2 0.242634 0.914797 0.298585
O O3 0.290933 0.905254 0.399054
O O4 0.323031 0.000000 0.356472
O O5 0.214494 0.299176 0.078744
O O6 0.250084 0.190815 0.079906
O O7 0.000000 0.232234 0.089667
O O8 0.130655 0.237311 0.000000
O O9 0.235542 0.085362 0.805442
O O10 0.000000 0.087719 0.751418
O O11 0.154469 0.000000 0.752117
O O12 0.000000 0.644110 0.056018
O O13 0.220479 0.626460 0.000000
O O14 0.805060 0.378986 0.500000
O O15 0.629057 0.404948 0.421028
O O16 0.873223 0.400738 0.398205
O O17 0.000000 0.000000 0.091107
O O18 0.000000 0.049848 0.000000
O O19 0.185522 0.500000 0.637132
O O20 0.000000 0.437854 0.683892
#
# Coordination Sequence:
#
# PCOD8287300 Si02
#       7
#    16  16  16  16  16   8  16
#     4   9  16  27  46  72 101 128 152 185 231 277
#     4   8  13  24  41  63  92 124 160 196 227 263
#     4   9  18  32  50  69  89 119 159 196 229 274
#     4   8  14  24  42  70 101 130 158 188 223 269
#     4  10  18  28  44  65  90 122 156 191 232 278
#     4   9  16  24  36  60  90 114 141 183 228 268
#     4  10  21  34  47  66  94 124 152 188 236 286
#
# _framework density 17.366720000000001
#
# number of rings (size 3 to 8) (size 9 to 14) (size 15 to 20)
#    0.000    3.000    0.769    1.846    1.077    3.385 
#    0.000    2.308    0.000    2.308    0.000    4.308 
#    0.000    0.000    0.000    0.000    0.000    0.000 
#
# Total GULP energy -644222.312474 kJ/mol
# GULP energy per Si atom -12388.890624 kJ/mol
# Density = 1.732719 g / cm^3
# Si number density = 17.366720 Si / 1000 Ang^3
#
#
#
# Elastic Constant Matrix: (Units=GPa)
#
#
# Indices 1 2 3 4 5 6 
#
# 1 75.2463 25.8408 40.3252 0.0000 0.0000 0.0000
# 2 25.8408 82.1065 49.7237 0.0000 0.0000 0.0000
# 3 40.3252 49.7237 104.2334 0.0000 0.0000 0.0000
# 4 0.0000 0.0000 0.0000 10.0694 0.0000 0.0000
# 5 0.0000 0.0000 0.0000 0.0000 20.4191 0.0000
# 6 0.0000 0.0000 0.0000 0.0000 0.0000 11.1384
#
#
#
# Elastic Compliance Matrix: (Units=1/GPa)
#
#
# Indices 1 2 3 4 5 6 
#
# 1 0.016978 -0.001920 -0.005652 0.000000 0.000000 0.000000
# 2 -0.001920 0.017345 -0.007531 0.000000 0.000000 0.000000
# 3 -0.005652 -0.007531 0.015373 0.000000 0.000000 0.000000
# 4 0.000000 0.000000 0.000000 0.099311 0.000000 0.000000
# 5 0.000000 0.000000 0.000000 0.000000 0.048974 0.000000
# 6 0.000000 0.000000 0.000000 0.000000 0.000000 0.089779
#
#
# Mechanical properties :
#
#
# Convention : Reuss Voigt Hill
#
# Bulk Modulus (GPa) = 51.31264 54.81839 53.06552
# Shear Modulus (GPa) = 15.41002 18.03848 16.72425
#
# Velocity S-wave (km/s) = 2.98204 3.22635 3.10660
# Velocity P-wave (km/s) = 6.43952 6.74632 6.59471
#
# Compressibility (1/GPa) = 0.01948838
#
# Stress axis : x y z
#
# Youngs Moduli (GPa) = 58.89858 57.65509 65.04802
#
# Poissons Ratio (x) = 0.11072 0.36768
# Poissons Ratio (y) = 0.11311 0.48988
# Poissons Ratio (z) = 0.33292 0.43421
#
# Static dielectric constant tensor:
#      x y z
#    x 3.165350 0.000000 0.000000 
#    y 0.000000 3.371230 0.000000 
#    z 0.000000 0.000000 3.117210 
# 
# 
# High freq. dielectric constant tensor:
#      x y z
#    x 1.647800 0.000000 0.000000 
#    y 0.000000 1.651660 0.000000 
#    z 0.000000 0.000000 1.649090 
# 
# From -- ./inp_files/63565.got.cif
#   From: 2010.06.25/outbox.cif.g09.slc.cpg/sg71_32_cif.got.tgz:63565.got - 2010.06.28 04:59:45.
