data_PCOD8287641
_publ_section_title
;
Structure prediction by ZEFSAII (Michael W. Deem and Ramdas Pophale) SiO2 
 PCOD8287641
Probable space group: I M M M
;
_chemical_formula_sum "Si O2"
_cell_formula_units_Z 80
_cell_length_a 7.722656
_cell_length_b 20.560229
_cell_length_c 28.524745
_cell_angle_alpha 90.000000
_cell_angle_beta 90.000000
_cell_angle_gamma 90.000000
_cell_volume 4529.146912
_symmetry_space_group_name_H-M "I M M M"
_symmetry_group_IT_number 71
_symmetry_cell_setting 'orthorhombic'
loop_
_space_group_symop_operation_xyz
x,y,z
-x,-y,z
x,-y,-z
-x,y,-z
-x,-y,-z
x,y,-z
-x,y,z
x,-y,z
1/2+x,1/2+y,1/2+z
1/2-x,1/2-y,1/2+z
1/2+x,1/2-y,1/2-z
1/2-x,1/2+y,1/2-z
1/2-x,1/2-y,1/2-z
1/2+x,1/2+y,1/2-z
1/2-x,1/2+y,1/2+z
1/2+x,1/2-y,1/2+z
loop_
_atom_site_type_symbol
_atom_site_label
_atom_site_fract_x
_atom_site_fract_y
_atom_site_fract_z
Si Si1 0.500000 0.277027 0.552370
Si Si2 0.700691 0.775873 0.879534
Si Si3 0.691627 0.375913 0.883178
Si Si4 0.297128 0.813665 0.221454
Si Si5 0.000000 0.622508 0.947807
Si Si6 0.297697 0.926783 0.286279
O O1 0.500000 0.307025 0.500000
O O2 0.674832 0.300748 0.578706
O O3 0.500000 0.199777 0.549363
O O4 0.500000 0.792718 0.891483
O O5 0.725811 0.699259 0.871342
O O6 0.770089 0.809873 0.831956
O O7 0.500000 0.385517 0.904688
O O8 0.829338 0.402529 0.920821
O O9 0.703013 0.416273 0.835427
O O10 0.500000 0.819626 0.218480
O O11 0.250000 0.750000 0.250000
O O12 0.220403 0.877453 0.247285
O O13 0.000000 0.592478 0.000000
O O14 0.500000 0.913243 0.294416
O O15 0.262566 0.000000 0.268633
#
# Coordination Sequence:
#
# PCOD8287641 Si02
#       6
#     8  16  16  16   8  16
#     4   9  18  30  48  71 101 137 163 203 261 303
#     4   9  18  30  46  73 100 126 169 210 245 297
#     4  10  18  30  49  70  94 127 167 208 252 300
#     4  10  19  29  48  73  99 133 169 207 250 297
#     4   9  18  32  49  70  97 127 166 214 261 299
#     4  10  20  33  49  70 100 136 170 206 250 301
#
# _framework density 17.66337
#
# number of rings (size 3 to 8) (size 9 to 14) (size 15 to 20)
#    0.000    2.400    3.000    0.000    1.400    1.200 
#    0.000    4.000    0.000    1.200    0.000    1.400 
#    0.000    1.600    0.000    7.800    0.000    0.200 
#
# Total GULP energy -495883.129733 kJ/mol
# GULP energy per Si atom -12397.078243 kJ/mol
# Density = 1.762317 g / cm^3
# Si number density = 17.663370 Si / 1000 Ang^3
#
#
#
# Elastic Constant Matrix: (Units=GPa)
#
#
# Indices 1 2 3 4 5 6 
#
# 1 94.0266 24.2980 59.9746 0.0000 0.0000 0.0000
# 2 24.2980 64.3984 42.7203 0.0000 0.0000 0.0000
# 3 59.9746 42.7203 151.1972 0.0000 0.0000 0.0000
# 4 0.0000 0.0000 0.0000 13.2026 0.0000 0.0000
# 5 0.0000 0.0000 0.0000 0.0000 24.5114 0.0000
# 6 0.0000 0.0000 0.0000 0.0000 0.0000 10.3297
#
#
#
# Elastic Compliance Matrix: (Units=1/GPa)
#
#
# Indices 1 2 3 4 5 6 
#
# 1 0.014450 -0.002030 -0.005158 0.000000 0.000000 0.000000
# 2 -0.002030 0.019396 -0.004675 0.000000 0.000000 0.000000
# 3 -0.005158 -0.004675 0.009981 0.000000 0.000000 0.000000
# 4 0.000000 0.000000 0.000000 0.075743 0.000000 0.000000
# 5 0.000000 0.000000 0.000000 0.000000 0.040797 0.000000
# 6 0.000000 0.000000 0.000000 0.000000 0.000000 0.096808
#
#
# Mechanical properties :
#
#
# Convention : Reuss Voigt Hill
#
# Bulk Modulus (GPa) = 49.75164 62.62310 56.18737
# Shear Modulus (GPa) = 17.38520 21.78402 19.58461
#
# Velocity S-wave (km/s) = 3.14068 3.51563 3.33343
# Velocity P-wave (km/s) = 6.43269 7.21181 6.83336
#
# Compressibility (1/GPa) = 0.02009984
#
# Stress axis : x y z
#
# Youngs Moduli (GPa) = 69.20369 51.55825 100.19244
#
# Poissons Ratio (x) = 0.10468 0.51681
# Poissons Ratio (y) = 0.14051 0.46838
# Poissons Ratio (z) = 0.35697 0.24102
#
# Static dielectric constant tensor:
#      x y z
#    x 3.413930 0.000000 0.000000 
#    y 0.000000 3.062710 0.000000 
#    z 0.000000 0.000000 3.506220 
# 
# 
# High freq. dielectric constant tensor:
#      x y z
#    x 1.691820 0.000000 0.000000 
#    y 0.000000 1.632280 0.000000 
#    z 0.000000 0.000000 1.675620 
# 
# From -- ./inp_files/50396.got.cif
#   From: 2010.06.25/outbox.cif.g09.slc.cpg/sg71_26_cif.got.tgz:50396.got - 2010.06.28 04:59:45.
