data_PCOD8287724
_publ_section_title
;
Structure prediction by ZEFSAII (Michael W. Deem and Ramdas Pophale) SiO2 
 PCOD8287724
Probable space group: I M M M
;
_chemical_formula_sum "Si O2"
_cell_formula_units_Z 96
_cell_length_a 14.863081
_cell_length_b 11.998314
_cell_length_c 29.765093
_cell_angle_alpha 90.000000
_cell_angle_beta 90.000000
_cell_angle_gamma 90.000000
_cell_volume 5308.065971
_symmetry_space_group_name_H-M "I M M M"
_symmetry_group_IT_number 71
_symmetry_cell_setting 'orthorhombic'
loop_
_space_group_symop_operation_xyz
x,y,z
-x,-y,z
x,-y,-z
-x,y,-z
-x,-y,-z
x,y,-z
-x,y,z
x,-y,z
1/2+x,1/2+y,1/2+z
1/2-x,1/2-y,1/2+z
1/2+x,1/2-y,1/2-z
1/2-x,1/2+y,1/2-z
1/2-x,1/2-y,1/2-z
1/2+x,1/2+y,1/2-z
1/2-x,1/2+y,1/2+z
1/2+x,1/2-y,1/2+z
loop_
_atom_site_type_symbol
_atom_site_label
_atom_site_fract_x
_atom_site_fract_y
_atom_site_fract_z
Si Si1 0.395537 0.869195 0.703829
Si Si2 0.599221 0.500000 0.561455
Si Si3 0.894483 0.771190 0.290697
Si Si4 0.898828 0.000000 0.253610
Si Si5 0.659481 0.500000 0.344004
Si Si6 0.000000 0.375934 0.052724
Si Si7 0.826168 0.761715 0.049854
Si Si8 0.742496 0.265596 0.643767
O O1 0.500000 0.843767 0.691659
O O2 0.373129 0.822151 0.753387
O O3 0.333017 0.811771 0.666732
O O4 0.375472 0.000000 0.704620
O O5 0.500000 0.500000 0.540322
O O6 0.589788 0.500000 0.615105
O O7 0.651521 0.608304 0.544438
O O8 0.853528 0.887846 0.272183
O O9 0.842215 0.752017 0.337044
O O10 0.000000 0.774956 0.301706
O O11 0.899970 0.000000 0.200206
O O12 0.000000 0.000000 0.271032
O O13 0.722643 0.606651 0.346232
O O14 0.912671 0.306823 0.067233
O O15 0.000000 0.500000 0.075291
O O16 0.000000 0.390533 0.000000
O O17 0.753651 0.742960 0.089725
O O18 0.792921 0.720600 0.000000
#
# Coordination Sequence:
#
# PCOD8287724 Si02
#       8
#    16   8  16   8   8   8  16  16
#     4  10  22  36  54  81 113 144 174 209 257 317
#     4  10  18  30  52  78 104 137 174 214 259 308
#     4  10  22  38  56  78 105 139 179 221 265 312
#     4  10  19  34  55  77 106 138 171 217 262 308
#     4  10  21  31  51  80 108 137 177 212 258 315
#     4   9  18  33  51  71  99 138 175 205 245 311
#     4  10  21  35  52  75 104 137 176 219 263 308
#     4  11  23  35  55  78 107 141 179 220 265 308
#
# _framework density 18.085684000000001
#
# number of rings (size 3 to 8) (size 9 to 14) (size 15 to 20)
#    0.000    1.917    2.500    1.000    3.500    1.667 
#    0.000    0.000    0.000    0.500    0.000    0.000 
#    0.000    6.000    0.000    0.000    0.000    0.000 
#
# Total GULP energy -594952.716298 kJ/mol
# GULP energy per Si atom -12394.848256 kJ/mol
# Density = 1.804452 g / cm^3
# Si number density = 18.085684 Si / 1000 Ang^3
#
#
#
# Elastic Constant Matrix: (Units=GPa)
#
#
# Indices 1 2 3 4 5 6 
#
# 1 57.8431 27.9867 54.4126 0.0000 0.0000 0.0000
# 2 27.9867 121.3456 35.4804 0.0000 0.0000 0.0000
# 3 54.4126 35.4804 139.1422 0.0000 0.0000 0.0000
# 4 0.0000 0.0000 0.0000 -62.3396 0.0000 0.0000
# 5 0.0000 0.0000 0.0000 0.0000 13.7923 0.0000
# 6 0.0000 0.0000 0.0000 0.0000 0.0000 5.7063
#
#
#
# Elastic Compliance Matrix: (Units=1/GPa)
#
#
# Indices 1 2 3 4 5 6 
#
# 1 0.028743 -0.003612 -0.010319 0.000000 0.000000 0.000000
# 2 -0.003612 0.009359 -0.000974 0.000000 0.000000 0.000000
# 3 -0.010319 -0.000974 0.011471 0.000000 0.000000 0.000000
# 4 0.000000 0.000000 0.000000 -0.016041 0.000000 0.000000
# 5 0.000000 0.000000 0.000000 0.000000 0.072504 0.000000
# 6 0.000000 0.000000 0.000000 0.000000 0.000000 0.175244
#
#
# Mechanical properties :
#
#
# Convention : Reuss Voigt Hill
#
# Bulk Modulus (GPa) = 50.60155 61.56559 56.08357
# Shear Modulus (GPa) = 15.73928 4.79522 10.26725
#
# Velocity S-wave (km/s) = 2.95322 1.63008 2.38523
# Velocity P-wave (km/s) = 6.29827 6.13660 6.21796
#
# Compressibility (1/GPa) = 0.01976224
#
# Stress axis : x y z
#
# Youngs Moduli (GPa) = 34.79129 106.85199 87.17944
#
# Poissons Ratio (x) = 0.38594 0.89961
# Poissons Ratio (y) = 0.12566 0.08491
# Poissons Ratio (z) = 0.35901 0.10407
#
# Static dielectric constant tensor:
#      x y z
#    x 2.986170 0.000000 0.000000 
#    y 0.000000 3.716770 0.000000 
#    z 0.000000 0.000000 3.380260 
# 
# 
# High freq. dielectric constant tensor:
#      x y z
#    x 1.658560 0.000000 0.000000 
#    y 0.000000 1.718300 0.000000 
#    z 0.000000 0.000000 1.697690 
# 
# From -- ./inp_files/69926.got.cif
#   From: 2010.06.25/outbox.cif.g09.slc.cpg/sg71_35_cif.got.tgz:69926.got - 2010.06.28 04:59:45.
