data_PCOD8287774
_publ_section_title
;
Structure prediction by ZEFSAII (Michael W. Deem and Ramdas Pophale) SiO2 
 PCOD8287774
Probable space group: I M M M
;
_chemical_formula_sum "Si O2"
_cell_formula_units_Z 120
_cell_length_a 8.916132
_cell_length_b 26.787738
_cell_length_c 27.961264
_cell_angle_alpha 90.000000
_cell_angle_beta 90.000000
_cell_angle_gamma 90.000000
_cell_volume 6678.352401
_symmetry_space_group_name_H-M "I M M M"
_symmetry_group_IT_number 71
_symmetry_cell_setting 'orthorhombic'
loop_
_space_group_symop_operation_xyz
x,y,z
-x,-y,z
x,-y,-z
-x,y,-z
-x,-y,-z
x,y,-z
-x,y,z
x,-y,z
1/2+x,1/2+y,1/2+z
1/2-x,1/2-y,1/2+z
1/2+x,1/2-y,1/2-z
1/2-x,1/2+y,1/2-z
1/2-x,1/2-y,1/2-z
1/2+x,1/2+y,1/2-z
1/2-x,1/2+y,1/2+z
1/2+x,1/2-y,1/2+z
loop_
_atom_site_type_symbol
_atom_site_label
_atom_site_fract_x
_atom_site_fract_y
_atom_site_fract_z
Si Si1 0.321858 0.406998 0.114970
Si Si2 0.322030 0.202213 0.945639
Si Si3 0.321038 0.500000 0.054057
Si Si4 0.674419 0.652267 0.360295
Si Si5 0.171944 0.056085 0.804671
Si Si6 0.323896 0.702444 0.108768
Si Si7 0.828688 0.558403 0.792010
Si Si8 0.822817 0.263562 0.699908
O O1 0.500000 0.408546 0.114445
O O2 0.257934 0.450583 0.080607
O O3 0.259496 0.352883 0.097641
O O4 0.269456 0.413336 0.169068
O O5 0.500000 0.198268 0.938851
O O6 0.244871 0.160593 0.912628
O O7 0.262813 0.256982 0.929269
O O8 0.272854 0.192857 0.000000
O O9 0.500000 0.500000 0.054599
O O10 0.259562 0.500000 0.000000
O O11 0.500000 0.666663 0.360886
O O12 0.699802 0.593939 0.348326
O O13 0.756100 0.684829 0.319815
O O14 0.272445 0.073672 0.760303
O O15 0.000000 0.057984 0.787559
O O16 0.215409 0.000000 0.821547
O O17 0.500000 0.699724 0.102942
O O18 0.282436 0.719609 0.162491
O O19 0.806985 0.500000 0.800380
O O20 0.000000 0.575116 0.797310
O O21 0.750000 0.250000 0.750000
O O22 0.000000 0.269974 0.706102
#
# Coordination Sequence:
#
# PCOD8287774 Si02
#       8
#    16  16   8  16  16  16  16  16
#     4  10  18  31  50  70  97 131 168 213 260 307
#     4   9  18  35  57  78 102 135 174 215 263 317
#     4   9  18  30  47  73  97 121 163 217 264 303
#     4  10  20  34  54  80 107 136 172 215 262 312
#     4   9  19  35  54  76 104 139 176 210 250 306
#     4   8  17  31  48  71  97 129 169 212 252 301
#     4  10  20  32  47  70 100 133 172 212 251 301
#     4  10  20  34  49  71 105 141 178 214 258 313
#
# _framework density 17.968502999999998
#
# number of rings (size 3 to 8) (size 9 to 14) (size 15 to 20)
#    0.000    2.600    0.667    2.000    1.867    2.400 
#    0.000    5.333    0.000    1.200    0.000    2.800 
#    0.000    0.000    0.000    0.000    0.000    0.000 
#
# Total GULP energy -743850.924274 kJ/mol
# GULP energy per Si atom -12397.515405 kJ/mol
# Density = 1.792761 g / cm^3
# Si number density = 17.968503 Si / 1000 Ang^3
#
#
#
# Elastic Constant Matrix: (Units=GPa)
#
#
# Indices 1 2 3 4 5 6 
#
# 1 45.6557 29.1590 37.8482 0.0000 0.0000 0.0000
# 2 29.1590 118.7296 67.5662 0.0000 0.0000 0.0000
# 3 37.8482 67.5662 135.1239 0.0000 0.0000 0.0000
# 4 0.0000 0.0000 0.0000 20.2786 0.0000 0.0000
# 5 0.0000 0.0000 0.0000 0.0000 23.9212 0.0000
# 6 0.0000 0.0000 0.0000 0.0000 0.0000 20.6365
#
#
#
# Elastic Compliance Matrix: (Units=1/GPa)
#
#
# Indices 1 2 3 4 5 6 
#
# 1 0.029567 -0.003562 -0.006501 0.000000 0.000000 0.000000
# 2 -0.003562 0.012202 -0.005103 0.000000 0.000000 0.000000
# 3 -0.006501 -0.005103 0.011773 0.000000 0.000000 0.000000
# 4 0.000000 0.000000 0.000000 0.049313 0.000000 0.000000
# 5 0.000000 0.000000 0.000000 0.000000 0.041804 0.000000
# 6 0.000000 0.000000 0.000000 0.000000 0.000000 0.048458
#
#
# Mechanical properties :
#
#
# Convention : Reuss Voigt Hill
#
# Bulk Modulus (GPa) = 43.08547 63.18401 53.13474
# Shear Modulus (GPa) = 21.62767 23.96298 22.79532
#
# Velocity S-wave (km/s) = 3.47312 3.65582 3.56564
# Velocity P-wave (km/s) = 6.33355 7.28424 6.82547
#
# Compressibility (1/GPa) = 0.02320968
#
# Stress axis : x y z
#
# Youngs Moduli (GPa) = 33.82156 81.95680 84.93806
#
# Poissons Ratio (x) = 0.29194 0.55214
# Poissons Ratio (y) = 0.12048 0.43347
# Poissons Ratio (z) = 0.21986 0.41826
#
# Static dielectric constant tensor:
#      x y z
#    x 3.171200 0.000000 0.000000 
#    y 0.000000 3.611310 0.000000 
#    z 0.000000 0.000000 3.256820 
# 
# 
# High freq. dielectric constant tensor:
#      x y z
#    x 1.677900 0.000000 0.000000 
#    y 0.000000 1.696550 0.000000 
#    z 0.000000 0.000000 1.683990 
# 
# From -- ./inp_files/63790.got.cif
#   From: 2010.06.25/outbox.cif.g09.slc.cpg/sg71_32_cif.got.tgz:63790.got - 2010.06.28 04:59:45.
