data_PCOD8287170
_publ_section_title
;
Structure prediction by ZEFSAII (Michael W. Deem and Ramdas Pophale) SiO2 
 PCOD8287170
Probable space group: I M M M
;
_chemical_formula_sum "Si O2"
_cell_formula_units_Z 112
_cell_length_a 33.555576
_cell_length_b 9.163519
_cell_length_c 26.834324
_cell_angle_alpha 90.000000
_cell_angle_beta 90.000000
_cell_angle_gamma 90.000000
_cell_volume 8251.210030
_symmetry_space_group_name_H-M "I M M M"
_symmetry_group_IT_number 71
_symmetry_cell_setting 'orthorhombic'
loop_
_space_group_symop_operation_xyz
x,y,z
-x,-y,z
x,-y,-z
-x,y,-z
-x,-y,-z
x,y,-z
-x,y,z
x,-y,z
1/2+x,1/2+y,1/2+z
1/2-x,1/2-y,1/2+z
1/2+x,1/2-y,1/2-z
1/2-x,1/2+y,1/2-z
1/2-x,1/2-y,1/2-z
1/2+x,1/2+y,1/2-z
1/2-x,1/2+y,1/2+z
1/2+x,1/2-y,1/2+z
loop_
_atom_site_type_symbol
_atom_site_label
_atom_site_fract_x
_atom_site_fract_y
_atom_site_fract_z
Si Si1 0.230351 0.168530 0.295707
Si Si2 0.000000 0.173201 0.788548
Si Si3 0.000000 0.665846 0.889306
Si Si4 0.421277 0.829897 0.283754
Si Si5 0.585971 0.164085 0.599456
Si Si6 0.289634 0.670627 0.646002
Si Si7 0.157907 0.828171 0.944334
Si Si8 0.154774 0.833795 0.760506
O O1 0.250000 0.250000 0.250000
O O2 0.247852 0.243009 0.345840
O O3 0.182572 0.184612 0.288839
O O4 0.243004 0.000000 0.294550
O O5 0.960306 0.243766 0.764171
O O6 0.000000 0.212745 0.846687
O O7 0.000000 0.000000 0.780633
O O8 0.959468 0.684082 0.921385
O O9 0.000000 0.500000 0.865438
O O10 0.414212 0.798172 0.342063
O O11 0.382950 0.771105 0.253923
O O12 0.426860 0.000000 0.272487
O O13 0.614410 0.269435 0.569095
O O14 0.601198 0.000000 0.590679
O O15 0.279679 0.500000 0.644764
O O16 0.308519 0.727549 0.594145
O O17 0.320591 0.708719 0.689908
O O18 0.154379 0.000000 0.940219
O O19 0.169926 0.778037 0.000000
O O20 0.139783 0.000000 0.765476
#
# Coordination Sequence:
#
# PCOD8287170 Si02
#       8
#    16   8   8  16  16  16  16  16
#     4   9  17  27  40  59  80  99 120 146 180 225
#     4  10  18  26  38  55  75 100 126 153 185 221
#     4   8  16  30  43  57  72  87 114 150 192 237
#     4  10  18  27  40  57  77  99 124 154 187 225
#     4   9  17  29  43  57  72  90 116 153 193 235
#     4   9  17  29  42  56  76  98 122 153 189 229
#     4  10  20  32  44  57  74  96 124 158 193 232
#     4   9  16  26  40  59  78  97 121 150 183 224
#
# _framework density 13.573766000000001
#
# number of rings (size 3 to 8) (size 9 to 14) (size 15 to 20)
#    0.000    2.714    1.429    3.214    0.000    6.000 
#    0.000    0.357    0.000    2.143    0.000    0.000 
#    0.000    0.000    0.000    0.000    0.000    0.000 
#
# Total GULP energy -694011.574764 kJ/mol
# GULP energy per Si atom -12393.063835 kJ/mol
# Density = 1.354287 g / cm^3
# Si number density = 13.573766 Si / 1000 Ang^3
#
#
#
# Elastic Constant Matrix: (Units=GPa)
#
#
# Indices 1 2 3 4 5 6 
#
# 1 94.6192 49.9532 46.7802 0.0000 0.0000 0.0000
# 2 49.9532 66.8987 22.2018 0.0000 0.0000 0.0000
# 3 46.7802 22.2018 43.9160 0.0000 0.0000 0.0000
# 4 0.0000 0.0000 0.0000 12.5254 0.0000 0.0000
# 5 0.0000 0.0000 0.0000 0.0000 14.0648 0.0000
# 6 0.0000 0.0000 0.0000 0.0000 0.0000 27.0309
#
#
#
# Elastic Compliance Matrix: (Units=1/GPa)
#
#
# Indices 1 2 3 4 5 6 
#
# 1 0.030901 -0.014599 -0.025536 0.000000 0.000000 0.000000
# 2 -0.014599 0.024859 0.002984 0.000000 0.000000 0.000000
# 3 -0.025536 0.002984 0.048464 0.000000 0.000000 0.000000
# 4 0.000000 0.000000 0.000000 0.079838 0.000000 0.000000
# 5 0.000000 0.000000 0.000000 0.000000 0.071100 0.000000
# 6 0.000000 0.000000 0.000000 0.000000 0.000000 0.036995
#
#
# Mechanical properties :
#
#
# Convention : Reuss Voigt Hill
#
# Bulk Modulus (GPa) = 33.42101 49.25604 41.33852
# Shear Modulus (GPa) = 13.28258 16.49079 14.88668
#
# Velocity S-wave (km/s) = 3.13157 3.48932 3.31528
# Velocity P-wave (km/s) = 6.14417 7.25261 6.72128
#
# Compressibility (1/GPa) = 0.02992130
#
# Stress axis : x y z
#
# Youngs Moduli (GPa) = 32.36097 40.22692 20.63394
#
# Poissons Ratio (x) = 0.58729 0.52691
# Poissons Ratio (y) = 0.47245 -0.06157
# Poissons Ratio (z) = 0.82637 -0.12004
#
# Static dielectric constant tensor:
#      x y z
#    x 3.009470 0.000000 0.000000 
#    y 0.000000 2.763460 0.000000 
#    z 0.000000 0.000000 2.537090 
# 
# 
# High freq. dielectric constant tensor:
#      x y z
#    x 1.516300 0.000000 0.000000 
#    y 0.000000 1.527250 0.000000 
#    z 0.000000 0.000000 1.452530 
# 
# From -- ./inp_files/71266.got.cif
#   From: 2010.06.25/outbox.cif.g09.slc.cpg/sg71_36_cif.got.tgz:71266.got - 2010.06.28 04:59:45.
