data_PCOD8287004
_publ_section_title
;
Structure prediction by ZEFSAII (Michael W. Deem and Ramdas Pophale) SiO2 
 PCOD8287004
Probable space group: I M M M
;
_chemical_formula_sum "Si O2"
_cell_formula_units_Z 96
_cell_length_a 32.311166
_cell_length_b 14.433529
_cell_length_c 14.157876
_cell_angle_alpha 90.000000
_cell_angle_beta 90.000000
_cell_angle_gamma 90.000000
_cell_volume 6602.725828
_symmetry_space_group_name_H-M "I M M M"
_symmetry_group_IT_number 71
_symmetry_cell_setting 'orthorhombic'
loop_
_space_group_symop_operation_xyz
x,y,z
-x,-y,z
x,-y,-z
-x,y,-z
-x,-y,-z
x,y,-z
-x,y,z
x,-y,z
1/2+x,1/2+y,1/2+z
1/2-x,1/2-y,1/2+z
1/2+x,1/2-y,1/2-z
1/2-x,1/2+y,1/2-z
1/2-x,1/2-y,1/2-z
1/2+x,1/2+y,1/2-z
1/2-x,1/2+y,1/2+z
1/2+x,1/2-y,1/2+z
loop_
_atom_site_type_symbol
_atom_site_label
_atom_site_fract_x
_atom_site_fract_y
_atom_site_fract_z
Si Si1 0.782412 0.894292 0.894648
Si Si2 0.824805 0.104582 0.292464
Si Si3 0.702318 0.780382 0.111092
Si Si4 0.623769 0.895407 0.112767
Si Si5 0.954751 0.715024 0.610917
Si Si6 0.590337 0.396415 0.892035
O O1 0.819966 0.881115 0.820704
O O2 0.743935 0.833054 0.860029
O O3 0.766703 0.000000 0.895696
O O4 0.797551 0.865366 0.000000
O O5 0.795571 0.177554 0.345679
O O6 0.872044 0.121989 0.320999
O O7 0.811284 0.000000 0.321270
O O8 0.662691 0.836656 0.151351
O O9 0.698387 0.771195 0.000000
O O10 0.581243 0.850485 0.153100
O O11 0.626984 0.000000 0.151257
O O12 0.623799 0.894129 0.000000
O O13 0.956809 0.698010 0.500000
O O14 0.945209 0.822959 0.632502
O O15 0.000000 0.691626 0.655270
O O16 0.572292 0.500000 0.879040
O O17 0.606267 0.381609 0.000000
#
# Coordination Sequence:
#
# PCOD8287004 Si02
#       6
#    16  16  16  16  16  16
#     4   9  18  30  42  58  79 103 133 166 196 228
#     4  10  18  27  41  59  79 103 132 165 197 228
#     4  10  17  27  42  58  79 106 133 161 192 228
#     4   9  16  25  37  53  74 104 137 162 187 222
#     4   9  16  25  36  52  76 105 134 162 191 224
#     4   9  16  26  39  56  79 106 134 160 189 229
#
# _framework density 14.53945
#
# number of rings (size 3 to 8) (size 9 to 14) (size 15 to 20)
#    0.000    2.667    1.667    1.500    0.000    3.667 
#    0.000    3.333    0.000    0.000    0.000    0.000 
#    0.000    0.667    0.000    6.500    0.000    2.167 
#
# Total GULP energy -594903.684694 kJ/mol
# GULP energy per Si atom -12393.826764 kJ/mol
# Density = 1.450636 g / cm^3
# Si number density = 14.539450 Si / 1000 Ang^3
#
#
#
# Elastic Constant Matrix: (Units=GPa)
#
#
# Indices 1 2 3 4 5 6 
#
# 1 66.5735 23.2198 30.8550 0.0000 0.0000 0.0000
# 2 23.2198 78.4285 19.0473 0.0000 0.0000 0.0000
# 3 30.8550 19.0473 28.3563 0.0000 0.0000 0.0000
# 4 0.0000 0.0000 0.0000 12.8938 0.0000 0.0000
# 5 0.0000 0.0000 0.0000 0.0000 11.5080 0.0000
# 6 0.0000 0.0000 0.0000 0.0000 0.0000 19.0298
#
#
#
# Elastic Compliance Matrix: (Units=1/GPa)
#
#
# Indices 1 2 3 4 5 6 
#
# 1 0.030391 -0.001155 -0.032293 0.000000 0.000000 0.000000
# 2 -0.001155 0.015280 -0.009007 0.000000 0.000000 0.000000
# 3 -0.032293 -0.009007 0.076455 0.000000 0.000000 0.000000
# 4 0.000000 0.000000 0.000000 0.077557 0.000000 0.000000
# 5 0.000000 0.000000 0.000000 0.000000 0.086896 0.000000
# 6 0.000000 0.000000 0.000000 0.000000 0.000000 0.052549
#
#
# Mechanical properties :
#
#
# Convention : Reuss Voigt Hill
#
# Bulk Modulus (GPa) = 26.87080 35.51140 31.19110
# Shear Modulus (GPa) = 11.45626 15.36873 13.41249
#
# Velocity S-wave (km/s) = 2.81008 3.25474 3.04055
# Velocity P-wave (km/s) = 5.38982 6.21302 5.81600
#
# Compressibility (1/GPa) = 0.03721512
#
# Stress axis : x y z
#
# Youngs Moduli (GPa) = 32.90470 65.44566 13.07964
#
# Poissons Ratio (x) = 0.07558 0.42238
# Poissons Ratio (y) = 0.03800 0.11781
# Poissons Ratio (z) = 1.06260 0.58948
#
# Static dielectric constant tensor:
#      x y z
#    x 2.843350 0.000000 0.000000 
#    y 0.000000 3.075280 0.000000 
#    z 0.000000 0.000000 2.519590 
# 
# 
# High freq. dielectric constant tensor:
#      x y z
#    x 1.542790 0.000000 0.000000 
#    y 0.000000 1.572910 0.000000 
#    z 0.000000 0.000000 1.498580 
# 
# From -- ./inp_files/35252.got.cif
#   From: 2010.06.25/outbox.cif.g09.slc.cpg/sg71_18_cif.got.tgz:35252.got - 2010.06.28 04:59:45.
