data_PCOD8287655
_publ_section_title
;
Structure prediction by ZEFSAII (Michael W. Deem and Ramdas Pophale) SiO2 
 PCOD8287655
Probable space group: I M M M
;
_chemical_formula_sum "Si O2"
_cell_formula_units_Z 120
_cell_length_a 19.444188
_cell_length_b 28.305941
_cell_length_c 12.330975
_cell_angle_alpha 90.000000
_cell_angle_beta 90.000000
_cell_angle_gamma 90.000000
_cell_volume 6786.796479
_symmetry_space_group_name_H-M "I M M M"
_symmetry_group_IT_number 71
_symmetry_cell_setting 'orthorhombic'
loop_
_space_group_symop_operation_xyz
x,y,z
-x,-y,z
x,-y,-z
-x,y,-z
-x,-y,-z
x,y,-z
-x,y,z
x,-y,z
1/2+x,1/2+y,1/2+z
1/2-x,1/2-y,1/2+z
1/2+x,1/2-y,1/2-z
1/2-x,1/2+y,1/2-z
1/2-x,1/2-y,1/2-z
1/2+x,1/2+y,1/2-z
1/2-x,1/2+y,1/2+z
1/2+x,1/2-y,1/2+z
loop_
_atom_site_type_symbol
_atom_site_label
_atom_site_fract_x
_atom_site_fract_y
_atom_site_fract_z
Si Si1 0.245005 0.947021 0.198771
Si Si2 0.076957 0.854247 0.241292
Si Si3 0.402119 0.552097 0.621617
Si Si4 0.171973 0.781793 0.126687
Si Si5 0.000000 0.552966 0.628852
Si Si6 0.870305 0.611631 0.624435
Si Si7 0.295632 0.625251 0.125011
Si Si8 0.197587 0.310356 0.248666
O O1 0.180197 0.945567 0.119602
O O2 0.303337 0.920539 0.132401
O O3 0.225092 0.921856 0.311066
O O4 0.268958 0.000000 0.226284
O O5 0.066410 0.906845 0.194685
O O6 0.112588 0.819908 0.152937
O O7 0.127632 0.856405 0.344810
O O8 0.000000 0.835857 0.272528
O O9 0.429123 0.559218 0.500000
O O10 0.425341 0.500000 0.664990
O O11 0.159882 0.735613 0.201109
O O12 0.248185 0.800884 0.154121
O O13 0.167980 0.769427 0.000000
O O14 0.066265 0.581387 0.670337
O O15 0.000000 0.500000 0.678515
O O16 0.000000 0.549369 0.500000
O O17 0.882331 0.627069 0.500000
O O18 0.862457 0.657467 0.700656
O O19 0.239458 0.665467 0.150552
O O20 0.294236 0.612507 0.000000
#
# Coordination Sequence:
#
# PCOD8287655 Si02
#       8
#    16  16  16  16   8  16  16  16
#     4   9  17  28  46  74 100 124 163 210 252 291
#     4  10  21  34  48  71 100 128 163 202 243 298
#     4   9  17  29  46  69  97 127 158 196 244 294
#     4  10  19  33  53  74  98 127 164 211 260 306
#     4   9  18  30  46  72 105 143 177 201 239 302
#     4  10  18  30  49  73 105 139 168 204 251 303
#     4   9  18  33  52  70  94 126 162 204 250 297
#     4   9  19  33  51  77  96 125 166 213 257 302
#
# _framework density 17.68139
#
# number of rings (size 3 to 8) (size 9 to 14) (size 15 to 20)
#    0.000    2.600    0.000    2.800    0.000    3.200 
#    1.200    1.333    0.000    0.000    0.000    7.933 
#    0.000   17.600    0.000    0.000    0.000    0.000 
#
# Total GULP energy -743801.606590 kJ/mol
# GULP energy per Si atom -12396.693443 kJ/mol
# Density = 1.764115 g / cm^3
# Si number density = 17.681390 Si / 1000 Ang^3
#
#
#
# Elastic Constant Matrix: (Units=GPa)
#
#
# Indices 1 2 3 4 5 6 
#
# 1 82.3046 33.7347 22.0825 0.0000 0.0000 0.0000
# 2 33.7347 108.9340 26.3603 0.0000 0.0000 0.0000
# 3 22.0825 26.3603 78.1381 0.0000 0.0000 0.0000
# 4 0.0000 0.0000 0.0000 19.1375 0.0000 0.0000
# 5 0.0000 0.0000 0.0000 0.0000 7.9078 0.0000
# 6 0.0000 0.0000 0.0000 0.0000 0.0000 17.5705
#
#
#
# Elastic Compliance Matrix: (Units=1/GPa)
#
#
# Indices 1 2 3 4 5 6 
#
# 1 0.014460 -0.003799 -0.002805 0.000000 0.000000 0.000000
# 2 -0.003799 0.010994 -0.002635 0.000000 0.000000 0.000000
# 3 -0.002805 -0.002635 0.014480 0.000000 0.000000 0.000000
# 4 0.000000 0.000000 0.000000 0.052253 0.000000 0.000000
# 5 0.000000 0.000000 0.000000 0.000000 0.126457 0.000000
# 6 0.000000 0.000000 0.000000 0.000000 0.000000 0.056914
#
#
# Mechanical properties :
#
#
# Convention : Reuss Voigt Hill
#
# Bulk Modulus (GPa) = 46.60930 48.19244 47.40087
# Shear Modulus (GPa) = 16.60095 21.40311 19.00203
#
# Velocity S-wave (km/s) = 3.06746 3.48298 3.28180
# Velocity P-wave (km/s) = 6.24209 6.59470 6.42081
#
# Compressibility (1/GPa) = 0.02145495
#
# Stress axis : x y z
#
# Youngs Moduli (GPa) = 69.15768 90.95804 69.06310
#
# Poissons Ratio (x) = 0.34557 0.19371
# Poissons Ratio (y) = 0.26274 0.18200
# Poissons Ratio (z) = 0.19397 0.23970
#
# Static dielectric constant tensor:
#      x y z
#    x 3.233580 0.000000 0.000000 
#    y 0.000000 3.472440 0.000000 
#    z 0.000000 0.000000 2.892940 
# 
# 
# High freq. dielectric constant tensor:
#      x y z
#    x 1.676670 0.000000 0.000000 
#    y 0.000000 1.693880 0.000000 
#    z 0.000000 0.000000 1.653820 
# 
# From -- ./inp_files/26629.got.cif
#   From: 2010.06.25/outbox.cif.g09.slc.cpg/sg71_14_cif.got.tgz:26629.got - 2010.06.28 04:59:45.
