data_PCOD8287107
_publ_section_title
;
Structure prediction by ZEFSAII (Michael W. Deem and Ramdas Pophale) SiO2 
 PCOD8287107
Probable space group: I M M M
;
_chemical_formula_sum "Si O2"
_cell_formula_units_Z 128
_cell_length_a 23.602460
_cell_length_b 16.995873
_cell_length_c 18.182114
_cell_angle_alpha 90.000000
_cell_angle_beta 90.000000
_cell_angle_gamma 90.000000
_cell_volume 7293.653441
_symmetry_space_group_name_H-M "I M M M"
_symmetry_group_IT_number 71
_symmetry_cell_setting 'orthorhombic'
loop_
_space_group_symop_operation_xyz
x,y,z
-x,-y,z
x,-y,-z
-x,y,-z
-x,-y,-z
x,y,-z
-x,y,z
x,-y,z
1/2+x,1/2+y,1/2+z
1/2-x,1/2-y,1/2+z
1/2+x,1/2-y,1/2-z
1/2-x,1/2+y,1/2-z
1/2-x,1/2-y,1/2-z
1/2+x,1/2+y,1/2-z
1/2-x,1/2+y,1/2+z
1/2+x,1/2-y,1/2+z
loop_
_atom_site_type_symbol
_atom_site_label
_atom_site_fract_x
_atom_site_fract_y
_atom_site_fract_z
Si Si1 0.754369 0.412896 0.362327
Si Si2 0.130413 0.322658 0.190151
Si Si3 0.626357 0.408228 0.323634
Si Si4 0.934168 0.787924 0.084280
Si Si5 0.644987 0.183704 0.084491
Si Si6 0.661600 0.306389 0.201088
Si Si7 0.565493 0.091396 0.814082
Si Si8 0.733565 0.912672 0.305875
O O1 0.759751 0.500000 0.398454
O O2 0.688313 0.388758 0.357568
O O3 0.790454 0.349111 0.408030
O O4 0.779709 0.415599 0.280735
O O5 0.100286 0.282171 0.121692
O O6 0.169278 0.261989 0.237628
O O7 0.082511 0.361491 0.240929
O O8 0.174308 0.386528 0.157044
O O9 0.614787 0.500000 0.316953
O O10 0.579510 0.370885 0.376710
O O11 0.621474 0.371555 0.240944
O O12 0.000000 0.769824 0.092490
O O13 0.915429 0.793635 0.000000
O O14 0.635933 0.266306 0.127905
O O15 0.601499 0.119107 0.115466
O O16 0.631171 0.200275 0.000000
O O17 0.718888 0.348767 0.175499
O O18 0.500000 0.108198 0.830946
O O19 0.577608 0.000000 0.800709
O O20 0.751355 0.000000 0.333835
#
# Coordination Sequence:
#
# PCOD8287107 Si02
#       8
#    16  16  16  16  16  16  16  16
#     4   9  17  30  48  75 104 129 163 207 257 308
#     4  10  18  31  54  76 101 133 176 213 250 298
#     4   9  19  34  56  79  98 129 171 213 255 304
#     4  10  22  37  52  74 106 140 169 205 255 306
#     4  11  22  32  47  72 106 143 174 208 258 312
#     4   9  18  31  50  75 105 133 170 210 254 302
#     4  10  20  34  53  76 101 133 177 222 257 294
#     4  10  17  29  53  78 101 131 167 212 258 300
#
# _framework density 17.549503000000001
#
# number of rings (size 3 to 8) (size 9 to 14) (size 15 to 20)
#    0.000    2.250    2.500    2.625    3.500    2.250 
#    0.000    2.500    0.000    3.750    0.000    4.375 
#    0.000    0.000    0.000   18.000    0.000    0.000 
#
# Total GULP energy -793332.366207 kJ/mol
# GULP energy per Si atom -12395.818222 kJ/mol
# Density = 1.750956 g / cm^3
# Si number density = 17.549503 Si / 1000 Ang^3
#
#
#
# Elastic Constant Matrix: (Units=GPa)
#
#
# Indices 1 2 3 4 5 6 
#
# 1 56.7718 39.6428 22.6778 0.0000 0.0000 0.0000
# 2 39.6428 101.9960 48.5578 0.0000 0.0000 0.0000
# 3 22.6778 48.5578 85.3120 0.0000 0.0000 0.0000
# 4 0.0000 0.0000 0.0000 14.3008 0.0000 0.0000
# 5 0.0000 0.0000 0.0000 0.0000 18.2435 0.0000
# 6 0.0000 0.0000 0.0000 0.0000 0.0000 25.6013
#
#
#
# Elastic Compliance Matrix: (Units=1/GPa)
#
#
# Indices 1 2 3 4 5 6 
#
# 1 0.024313 -0.008741 -0.001487 0.000000 0.000000 0.000000
# 2 -0.008741 0.016591 -0.007120 0.000000 0.000000 0.000000
# 3 -0.001487 -0.007120 0.016169 0.000000 0.000000 0.000000
# 4 0.000000 0.000000 0.000000 0.069926 0.000000 0.000000
# 5 0.000000 0.000000 0.000000 0.000000 0.054814 0.000000
# 6 0.000000 0.000000 0.000000 0.000000 0.000000 0.039061
#
#
# Mechanical properties :
#
#
# Convention : Reuss Voigt Hill
#
# Bulk Modulus (GPa) = 44.69036 51.75963 48.22499
# Shear Modulus (GPa) = 19.00924 20.50922 19.75923
#
# Velocity S-wave (km/s) = 3.29474 3.42226 3.35910
# Velocity P-wave (km/s) = 6.32411 6.72111 6.52563
#
# Compressibility (1/GPa) = 0.02237619
#
# Stress axis : x y z
#
# Youngs Moduli (GPa) = 41.13107 60.27210 61.84486
#
# Poissons Ratio (x) = 0.52687 0.09199
# Poissons Ratio (y) = 0.35955 0.44032
# Poissons Ratio (z) = 0.06118 0.42913
#
# Static dielectric constant tensor:
#      x y z
#    x 3.167160 0.000000 0.000000 
#    y 0.000000 3.510340 0.000000 
#    z 0.000000 0.000000 2.989390 
# 
# 
# High freq. dielectric constant tensor:
#      x y z
#    x 1.669700 0.000000 0.000000 
#    y 0.000000 1.688050 0.000000 
#    z 0.000000 0.000000 1.639530 
# 
# From -- ./inp_files/48428.got.cif
#   From: 2010.06.25/outbox.cif.g09.slc.cpg/sg71_25_cif.got.tgz:48428.got - 2010.06.28 04:59:45.
