data_PCOD8287684
_publ_section_title
;
Structure prediction by ZEFSAII (Michael W. Deem and Ramdas Pophale) SiO2 
 PCOD8287684
Probable space group: I M M M
;
_chemical_formula_sum "Si O2"
_cell_formula_units_Z 64
_cell_length_a 10.297712
_cell_length_b 37.656123
_cell_length_c 9.425131
_cell_angle_alpha 90.000000
_cell_angle_beta 90.000000
_cell_angle_gamma 90.000000
_cell_volume 3654.801047
_symmetry_space_group_name_H-M "I M M M"
_symmetry_group_IT_number 71
_symmetry_cell_setting 'orthorhombic'
loop_
_space_group_symop_operation_xyz
x,y,z
-x,-y,z
x,-y,-z
-x,y,-z
-x,-y,-z
x,y,-z
-x,y,z
x,-y,z
1/2+x,1/2+y,1/2+z
1/2-x,1/2-y,1/2+z
1/2+x,1/2-y,1/2-z
1/2-x,1/2+y,1/2-z
1/2-x,1/2-y,1/2-z
1/2+x,1/2+y,1/2-z
1/2-x,1/2+y,1/2+z
1/2+x,1/2-y,1/2+z
loop_
_atom_site_type_symbol
_atom_site_label
_atom_site_fract_x
_atom_site_fract_y
_atom_site_fract_z
Si Si1 0.749103 0.417503 0.168203
Si Si2 0.000000 0.960468 0.668401
Si Si3 0.351926 0.726673 0.334625
Si Si4 0.000000 0.539995 0.168462
Si Si5 0.148926 0.145003 0.164059
O O1 0.626801 0.440121 0.222292
O O2 0.874812 0.438636 0.222087
O O3 0.744240 0.378952 0.241002
O O4 0.749812 0.411939 0.000000
O O5 0.000000 0.962635 0.500000
O O6 0.000000 0.000000 0.733435
O O7 0.336762 0.735104 0.500000
O O8 0.500000 0.735047 0.286420
O O9 0.250000 0.750000 0.250000
O O10 0.318312 0.685789 0.303334
O O11 0.000000 0.500000 0.231696
O O12 0.000000 0.537504 0.000000
O O13 0.000000 0.137049 0.205414
O O14 0.173339 0.136242 0.000000
#
# Coordination Sequence:
#
# PCOD8287684 Si02
#       5
#    16   8  16   8  16
#     4  10  18  30  50  75  99 128 169 208 247 297
#     4   9  16  26  45  73  98 121 160 211 248 285
#     4   9  19  36  56  79 106 138 174 211 255 307
#     4   9  18  32  49  71 102 135 164 205 260 303
#     4   9  18  34  54  74 102 136 166 203 253 301
#
# _framework density 17.511212
#
# number of rings (size 3 to 8) (size 9 to 14) (size 15 to 20)
#    0.000    2.750    1.250    2.250    0.000    4.500 
#    2.250    3.125    0.000    4.500    0.000    0.000 
#    0.000    0.000    0.000    0.000    0.000    0.000 
#
# Total GULP energy -396771.276651 kJ/mol
# GULP energy per Si atom -12399.102395 kJ/mol
# Density = 1.747136 g / cm^3
# Si number density = 17.511212 Si / 1000 Ang^3
#
#
#
# Elastic Constant Matrix: (Units=GPa)
#
#
# Indices 1 2 3 4 5 6 
#
# 1 142.9058 83.8142 43.0309 -0.0199 -0.0033 -0.0031
# 2 83.8142 136.0784 54.4383 -0.0404 -0.0122 -0.0115
# 3 43.0309 54.4383 43.7038 -0.0306 -0.0116 -0.0089
# 4 -0.0199 -0.0404 -0.0306 28.4173 -0.0124 -0.0118
# 5 -0.0033 -0.0122 -0.0116 -0.0124 21.8582 -0.0154
# 6 -0.0031 -0.0115 -0.0089 -0.0118 -0.0154 37.5110
#
#
#
# Elastic Compliance Matrix: (Units=1/GPa)
#
#
# Indices 1 2 3 4 5 6 
#
# 1 0.011472 -0.005077 -0.004971 -0.000005 -0.000004 -0.000002
# 2 -0.005077 0.016895 -0.016046 0.000003 0.000000 0.000001
# 3 -0.004971 -0.016046 0.047763 0.000025 0.000016 0.000006
# 4 -0.000005 0.000003 0.000025 0.035190 0.000020 0.000011
# 5 -0.000004 0.000000 0.000016 0.000020 0.045749 0.000019
# 6 -0.000002 0.000001 0.000006 0.000011 0.000019 0.026659
#
#
# Mechanical properties :
#
#
# Convention : Reuss Voigt Hill
#
# Bulk Modulus (GPa) = 41.76806 76.13942 58.95374
# Shear Modulus (GPa) = 20.50039 26.98428 23.74233
#
# Velocity S-wave (km/s) = 3.42526 3.92978 3.68616
# Velocity P-wave (km/s) = 6.28866 8.01035 7.20114
#
# Compressibility (1/GPa) = 0.02394174
#
# Stress axis : x y z
#
# Youngs Moduli (GPa) = 87.16546 59.18874 20.93676
#
# Poissons Ratio (x) = 0.30053 0.10408
# Poissons Ratio (y) = 0.44257 0.33594
# Poissons Ratio (z) = 0.43332 0.94972
#
# Static dielectric constant tensor:
#      x y z
#    x 3.271240 -0.000010 0.000000 
#    y -0.000010 3.325620 0.000000 
#    z 0.000000 0.000000 2.873890 
# 
# 
# High freq. dielectric constant tensor:
#      x y z
#    x 1.674530 0.000000 0.000000 
#    y 0.000000 1.686840 0.000000 
#    z 0.000000 0.000000 1.643220 
# 
# From -- ./inp_files/3749.got.cif
#   From: 2010.06.25/outbox.cif.g09.slc.cpg/sg71_2_cif.got.tgz:3749.got - 2010.06.28 04:59:45.
