data_PCOD8287986
_publ_section_title
;
Structure prediction by ZEFSAII (Michael W. Deem and Ramdas Pophale) SiO2 
 PCOD8287986
Probable space group: I M M M
;
_chemical_formula_sum "Si O2"
_cell_formula_units_Z 104
_cell_length_a 30.507427
_cell_length_b 9.117979
_cell_length_c 20.091270
_cell_angle_alpha 90.000000
_cell_angle_beta 90.000000
_cell_angle_gamma 90.000000
_cell_volume 5588.709793
_symmetry_space_group_name_H-M "I M M M"
_symmetry_group_IT_number 71
_symmetry_cell_setting 'orthorhombic'
loop_
_space_group_symop_operation_xyz
x,y,z
-x,-y,z
x,-y,-z
-x,y,-z
-x,-y,-z
x,y,-z
-x,y,z
x,-y,z
1/2+x,1/2+y,1/2+z
1/2-x,1/2-y,1/2+z
1/2+x,1/2-y,1/2-z
1/2-x,1/2+y,1/2-z
1/2-x,1/2-y,1/2-z
1/2+x,1/2+y,1/2-z
1/2-x,1/2+y,1/2+z
1/2+x,1/2-y,1/2+z
loop_
_atom_site_type_symbol
_atom_site_label
_atom_site_fract_x
_atom_site_fract_y
_atom_site_fract_z
Si Si1 0.182371 0.826531 0.000000
Si Si2 0.500000 0.836984 0.079228
Si Si3 0.083766 0.830009 0.576839
Si Si4 0.836930 0.663278 0.380929
Si Si5 0.950826 0.826012 0.924430
Si Si6 0.721784 0.173633 0.000000
Si Si7 0.704321 0.165836 0.261921
Si Si8 0.638923 0.325994 0.635837
O O1 0.157889 0.773776 0.065544
O O2 0.230428 0.753769 0.000000
O O3 0.185433 0.000000 0.000000
O O4 0.458030 0.752459 0.106198
O O5 0.500000 0.000000 0.108593
O O6 0.500000 0.836328 0.000000
O O7 0.092908 0.788997 0.500000
O O8 0.123420 0.776622 0.621925
O O9 0.075520 0.000000 0.586478
O O10 0.852705 0.500000 0.403266
O O11 0.802524 0.727968 0.433827
O O12 0.816158 0.655313 0.309853
O O13 0.912842 0.777067 0.870883
O O14 0.000000 0.774232 0.901452
O O15 0.949259 0.000000 0.927787
O O16 0.941511 0.767374 0.000000
O O17 0.726323 0.000000 0.000000
O O18 0.750000 0.250000 0.250000
O O19 0.668147 0.245977 0.308130
O O20 0.713222 0.000000 0.288709
O O21 0.643297 0.500000 0.648433
#
# Coordination Sequence:
#
# PCOD8287986 Si02
#       8
#     8   8  16  16  16   8  16  16
#     4   9  16  28  50  81 109 137 180 226 268 320
#     4   9  17  29  49  75 105 141 177 208 249 316
#     4  10  19  31  50  79 110 134 163 216 275 317
#     4  10  20  35  55  75  99 138 184 223 267 331
#     4   8  13  24  48  85 120 146 181 231 278 324
#     4   9  16  28  49  73  96 124 170 226 267 316
#     4  11  24  40  57  79 109 146 188 234 284 342
#     4  10  18  32  56  83 112 148 189 232 278 333
#
# _framework density 18.608946
#
# number of rings (size 3 to 8) (size 9 to 14) (size 15 to 20)
#    0.000    2.385    1.538    2.538    0.000    5.231 
#    0.000    0.385    1.692    0.462    0.000    1.077 
#    0.000    0.000    0.000    0.000    0.000    0.000 
#
# Total GULP energy -644283.041337 kJ/mol
# GULP energy per Si atom -12390.058487 kJ/mol
# Density = 1.856659 g / cm^3
# Si number density = 18.608946 Si / 1000 Ang^3
#
#
#
# Elastic Constant Matrix: (Units=GPa)
#
#
# Indices 1 2 3 4 5 6 
#
# 1 166.8547 52.8225 43.5835 0.0000 0.0000 0.0000
# 2 52.8225 77.1140 25.1318 0.0000 0.0000 0.0000
# 3 43.5835 25.1318 75.8420 0.0000 0.0000 0.0000
# 4 0.0000 0.0000 0.0000 18.4169 0.0000 0.0000
# 5 0.0000 0.0000 0.0000 0.0000 38.3144 0.0000
# 6 0.0000 0.0000 0.0000 0.0000 0.0000 21.2894
#
#
#
# Elastic Compliance Matrix: (Units=1/GPa)
#
#
# Indices 1 2 3 4 5 6 
#
# 1 0.008306 -0.004634 -0.003237 0.000000 0.000000 0.000000
# 2 -0.004634 0.017124 -0.003011 0.000000 0.000000 0.000000
# 3 -0.003237 -0.003011 0.016044 0.000000 0.000000 0.000000
# 4 0.000000 0.000000 0.000000 0.054298 0.000000 0.000000
# 5 0.000000 0.000000 0.000000 0.000000 0.026100 0.000000
# 6 0.000000 0.000000 0.000000 0.000000 0.000000 0.046972
#
#
# Mechanical properties :
#
#
# Convention : Reuss Voigt Hill
#
# Bulk Modulus (GPa) = 50.74248 62.54293 56.64271
# Shear Modulus (GPa) = 25.35780 28.82232 27.09006
#
# Velocity S-wave (km/s) = 3.69544 3.93980 3.81957
# Velocity P-wave (km/s) = 6.74799 7.37415 7.06801
#
# Compressibility (1/GPa) = 0.01970735
#
# Stress axis : x y z
#
# Youngs Moduli (GPa) = 120.39412 58.39852 62.33053
#
# Poissons Ratio (x) = 0.27065 0.20179
# Poissons Ratio (y) = 0.55797 0.18768
# Poissons Ratio (z) = 0.38977 0.17584
#
# Static dielectric constant tensor:
#      x y z
#    x 3.877810 0.000000 0.000000 
#    y 0.000000 3.326440 0.000000 
#    z 0.000000 0.000000 3.233180 
# 
# 
# High freq. dielectric constant tensor:
#      x y z
#    x 1.742310 0.000000 0.000000 
#    y 0.000000 1.691110 0.000000 
#    z 0.000000 0.000000 1.695030 
# 
# From -- ./inp_files/56751.got.cif
#   From: 2010.06.25/outbox.cif.g09.slc.cpg/sg71_29_cif.got.tgz:56751.got - 2010.06.28 04:59:45.
