data_PCOD8287480
_publ_section_title
;
Structure prediction by ZEFSAII (Michael W. Deem and Ramdas Pophale) SiO2 
 PCOD8287480
Probable space group: I M M M
;
_chemical_formula_sum "Si O2"
_cell_formula_units_Z 104
_cell_length_a 10.015726
_cell_length_b 27.946723
_cell_length_c 22.415260
_cell_angle_alpha 90.000000
_cell_angle_beta 90.000000
_cell_angle_gamma 90.000000
_cell_volume 6274.181908
_symmetry_space_group_name_H-M "I M M M"
_symmetry_group_IT_number 71
_symmetry_cell_setting 'orthorhombic'
loop_
_space_group_symop_operation_xyz
x,y,z
-x,-y,z
x,-y,-z
-x,y,-z
-x,-y,-z
x,y,-z
-x,y,z
x,-y,z
1/2+x,1/2+y,1/2+z
1/2-x,1/2-y,1/2+z
1/2+x,1/2-y,1/2-z
1/2-x,1/2+y,1/2-z
1/2-x,1/2-y,1/2-z
1/2+x,1/2+y,1/2-z
1/2-x,1/2+y,1/2+z
1/2+x,1/2-y,1/2+z
loop_
_atom_site_type_symbol
_atom_site_label
_atom_site_fract_x
_atom_site_fract_y
_atom_site_fract_z
Si Si1 0.841585 0.107419 0.619547
Si Si2 0.341064 0.446342 0.234309
Si Si3 0.651591 0.606242 0.351440
Si Si4 0.148959 0.210495 0.187978
Si Si5 0.159169 0.944404 0.500000
Si Si6 0.654772 0.707066 0.825803
Si Si7 0.851653 0.446439 0.570341
O O1 0.782346 0.075764 0.673427
O O2 0.786286 0.085082 0.557596
O O3 0.800319 0.162709 0.631962
O O4 0.000000 0.104151 0.619425
O O5 0.500000 0.444748 0.231607
O O6 0.286601 0.500000 0.240726
O O7 0.290016 0.415673 0.290257
O O8 0.500000 0.588507 0.361756
O O9 0.658716 0.663232 0.351309
O O10 0.742290 0.589758 0.405581
O O11 0.253503 0.247432 0.159199
O O12 0.179452 0.195050 0.256205
O O13 0.000000 0.232756 0.184242
O O14 0.000000 0.944909 0.500000
O O15 0.210014 0.000000 0.500000
O O16 0.500000 0.719889 0.837663
O O17 0.844562 0.444431 0.500000
O O18 0.819069 0.500000 0.592905
O O19 0.000000 0.431504 0.592016
#
# Coordination Sequence:
#
# PCOD8287480 Si02
#       7
#    16  16  16  16   8  16  16
#     4   9  15  25  40  61  92 127 159 192 233 279
#     4   9  15  23  38  62  92 121 148 184 233 282
#     4  10  18  29  47  72  95 119 155 198 238 278
#     4   9  17  29  45  68  96 120 151 195 240 282
#     4   9  16  24  38  64  97 131 163 195 236 287
#     4   9  16  28  46  66  91 124 158 191 233 285
#     4   9  19  35  51  67  93 128 158 185 225 280
#
# _framework density 16.575866999999999
#
# number of rings (size 3 to 8) (size 9 to 14) (size 15 to 20)
#    0.000    2.846    1.538    1.385    0.000    3.692 
#    0.000    0.769    1.692    0.000    0.000    0.000 
#    0.000    2.462    0.000    0.000    0.000    0.308 
#
# Total GULP energy -644528.817372 kJ/mol
# GULP energy per Si atom -12394.784949 kJ/mol
# Density = 1.653814 g / cm^3
# Si number density = 16.575867 Si / 1000 Ang^3
#
#
#
# Elastic Constant Matrix: (Units=GPa)
#
#
# Indices 1 2 3 4 5 6 
#
# 1 56.9913 45.8006 28.8722 0.0000 0.0000 0.0000
# 2 45.8006 110.9342 44.2637 0.0000 0.0000 0.0000
# 3 28.8722 44.2637 59.6698 0.0000 0.0000 0.0000
# 4 0.0000 0.0000 0.0000 30.0537 0.0000 0.0000
# 5 0.0000 0.0000 0.0000 0.0000 14.8031 0.0000
# 6 0.0000 0.0000 0.0000 0.0000 0.0000 23.3945
#
#
#
# Elastic Compliance Matrix: (Units=1/GPa)
#
#
# Indices 1 2 3 4 5 6 
#
# 1 0.028242 -0.008817 -0.007125 0.000000 0.000000 0.000000
# 2 -0.008817 0.015557 -0.007274 0.000000 0.000000 0.000000
# 3 -0.007125 -0.007274 0.025602 0.000000 0.000000 0.000000
# 4 0.000000 0.000000 0.000000 0.033274 0.000000 0.000000
# 5 0.000000 0.000000 0.000000 0.000000 0.067553 0.000000
# 6 0.000000 0.000000 0.000000 0.000000 0.000000 0.042745
#
#
# Mechanical properties :
#
#
# Convention : Reuss Voigt Hill
#
# Bulk Modulus (GPa) = 43.53616 51.71873 47.62744
# Shear Modulus (GPa) = 18.72230 20.89418 19.80824
#
# Velocity S-wave (km/s) = 3.36444 3.55423 3.46063
# Velocity P-wave (km/s) = 6.43540 6.93631 6.69054
#
# Compressibility (1/GPa) = 0.02296941
#
# Stress axis : x y z
#
# Youngs Moduli (GPa) = 35.40857 64.27948 39.05921
#
# Poissons Ratio (x) = 0.56677 0.27828
# Poissons Ratio (y) = 0.31221 0.28412
# Poissons Ratio (z) = 0.25227 0.46757
#
# Static dielectric constant tensor:
#      x y z
#    x 2.797400 0.000000 0.000000 
#    y 0.000000 3.194390 0.000000 
#    z 0.000000 0.000000 3.058700 
# 
# 
# High freq. dielectric constant tensor:
#      x y z
#    x 1.594630 0.000000 0.000000 
#    y 0.000000 1.643340 0.000000 
#    z 0.000000 0.000000 1.623060 
# 
# From -- ./inp_files/48837.got.cif
#   From: 2010.06.25/outbox.cif.g09.slc.cpg/sg71_25_cif.got.tgz:48837.got - 2010.06.28 04:59:45.
