data_PCOD8287876
_publ_section_title
;
Structure prediction by ZEFSAII (Michael W. Deem and Ramdas Pophale) SiO2 
 PCOD8287876
Probable space group: I M M M
;
_chemical_formula_sum "Si O2"
_cell_formula_units_Z 112
_cell_length_a 14.481090
_cell_length_b 14.619891
_cell_length_c 24.342178
_cell_angle_alpha 90.000000
_cell_angle_beta 90.000000
_cell_angle_gamma 90.000000
_cell_volume 5153.530151
_symmetry_space_group_name_H-M "I M M M"
_symmetry_group_IT_number 71
_symmetry_cell_setting 'orthorhombic'
loop_
_space_group_symop_operation_xyz
x,y,z
-x,-y,z
x,-y,-z
-x,y,-z
-x,-y,-z
x,y,-z
-x,y,z
x,-y,z
1/2+x,1/2+y,1/2+z
1/2-x,1/2-y,1/2+z
1/2+x,1/2-y,1/2-z
1/2-x,1/2+y,1/2-z
1/2-x,1/2-y,1/2-z
1/2+x,1/2+y,1/2-z
1/2-x,1/2+y,1/2+z
1/2+x,1/2-y,1/2+z
loop_
_atom_site_type_symbol
_atom_site_label
_atom_site_fract_x
_atom_site_fract_y
_atom_site_fract_z
Si Si1 0.265082 0.899045 0.846663
Si Si2 0.856750 0.603002 0.938046
Si Si3 0.397344 0.742174 0.351791
Si Si4 0.102064 0.902715 0.322873
Si Si5 0.854331 0.143724 0.559916
Si Si6 0.894024 0.353330 0.438555
Si Si7 0.108012 0.282100 0.271916
O O1 0.177292 0.836776 0.862582
O O2 0.330427 0.913489 0.899436
O O3 0.328197 0.859719 0.797847
O O4 0.229597 0.000000 0.829394
O O5 0.889800 0.500000 0.922150
O O6 0.897087 0.677456 0.896614
O O7 0.747275 0.604367 0.935097
O O8 0.890131 0.626646 0.000000
O O9 0.500000 0.697884 0.352361
O O10 0.377984 0.787835 0.292930
O O11 0.090034 0.895758 0.388834
O O12 0.150057 0.814761 0.295075
O O13 0.000000 0.906599 0.297514
O O14 0.152349 0.000000 0.308399
O O15 0.897066 0.115997 0.500000
O O16 0.853061 0.252243 0.564842
O O17 0.887440 0.392924 0.500000
O O18 0.000000 0.354351 0.418188
O O19 0.000000 0.294515 0.288899
#
# Coordination Sequence:
#
# PCOD8287876 Si02
#       7
#    16  16  16  16  16  16  16
#     4  12  25  41  64  93 126 168 218 269 320 373
#     4  10  21  39  66  98 128 159 200 255 323 392
#     4  11  25  45  68  92 125 168 213 266 323 382
#     4  10  19  31  52  84 124 167 206 247 299 368
#     4  10  18  31  55  86 124 166 203 245 301 372
#     4  10  20  36  61  91 125 166 210 258 313 375
#     4  10  22  42  65  92 126 163 209 260 318 385
#
# _framework density 21.732675
#
# number of rings (size 3 to 8) (size 9 to 14) (size 15 to 20)
#    0.000    1.571    2.857    1.714    0.000    5.143 
#    0.000    5.000    0.000    0.000    0.000    2.000 
#    0.000    0.000    0.000    0.000    0.000    0.000 
#
# Total GULP energy -693991.648196 kJ/mol
# GULP energy per Si atom -12392.708004 kJ/mol
# Density = 2.168321 g / cm^3
# Si number density = 21.732675 Si / 1000 Ang^3
#
#
#
# Elastic Constant Matrix: (Units=GPa)
#
#
# Indices 1 2 3 4 5 6 
#
# 1 96.4605 40.5598 38.6568 0.0000 0.0000 0.0000
# 2 40.5598 144.1576 55.2812 0.0000 0.0000 0.0000
# 3 38.6568 55.2812 128.1241 0.0000 0.0000 0.0000
# 4 0.0000 0.0000 0.0000 7.5466 0.0000 0.0000
# 5 0.0000 0.0000 0.0000 0.0000 27.9861 0.0000
# 6 0.0000 0.0000 0.0000 0.0000 0.0000 -3.2773
#
#
#
# Elastic Compliance Matrix: (Units=1/GPa)
#
#
# Indices 1 2 3 4 5 6 
#
# 1 0.012491 -0.002479 -0.002699 0.000000 0.000000 0.000000
# 2 -0.002479 0.008804 -0.003051 0.000000 0.000000 0.000000
# 3 -0.002699 -0.003051 0.009936 0.000000 0.000000 0.000000
# 4 0.000000 0.000000 0.000000 0.132511 0.000000 0.000000
# 5 0.000000 0.000000 0.000000 0.000000 0.035732 0.000000
# 6 0.000000 0.000000 0.000000 0.000000 0.000000 -0.305131
#
#
# Mechanical properties :
#
#
# Convention : Reuss Voigt Hill
#
# Bulk Modulus (GPa) = 67.69209 70.85975 69.27592
# Shear Modulus (GPa) = -59.32946 22.06737 -18.63104
#
# Velocity S-wave (km/s) = -5.23058 3.18999 -2.93112
# Velocity P-wave (km/s) = 2.29420 6.80030 4.52663
#
# Compressibility (1/GPa) = 0.01477277
#
# Stress axis : x y z
#
# Youngs Moduli (GPa) = 80.05686 113.58035 100.64919
#
# Poissons Ratio (x) = 0.28162 0.27164
# Poissons Ratio (y) = 0.19850 0.30705
# Poissons Ratio (z) = 0.21607 0.34650
#
# Static dielectric constant tensor:
#      x y z
#    x 3.821800 0.000000 0.000000 
#    y 0.000000 3.906510 0.000000 
#    z 0.000000 0.000000 4.125580 
# 
# 
# High freq. dielectric constant tensor:
#      x y z
#    x 1.843780 0.000000 0.000000 
#    y 0.000000 1.846670 0.000000 
#    z 0.000000 0.000000 1.857440 
# 
# From -- ./inp_files/59921.got.cif
#   From: 2010.06.25/outbox.cif.g09.slc.cpg/sg71_30_cif.got.tgz:59921.got - 2010.06.28 04:59:45.
