data_PCOD8287205
_publ_section_title
;
Structure prediction by ZEFSAII (Michael W. Deem and Ramdas Pophale) SiO2 
 PCOD8287205
Probable space group: I M M M
;
_chemical_formula_sum "Si O2"
_cell_formula_units_Z 88
_cell_length_a 33.813006
_cell_length_b 9.004814
_cell_length_c 22.862088
_cell_angle_alpha 90.000000
_cell_angle_beta 90.000000
_cell_angle_gamma 90.000000
_cell_volume 6961.044663
_symmetry_space_group_name_H-M "I M M M"
_symmetry_group_IT_number 71
_symmetry_cell_setting 'orthorhombic'
loop_
_space_group_symop_operation_xyz
x,y,z
-x,-y,z
x,-y,-z
-x,y,-z
-x,-y,-z
x,y,-z
-x,y,z
x,-y,z
1/2+x,1/2+y,1/2+z
1/2-x,1/2-y,1/2+z
1/2+x,1/2-y,1/2-z
1/2-x,1/2+y,1/2-z
1/2-x,1/2-y,1/2-z
1/2+x,1/2+y,1/2-z
1/2-x,1/2+y,1/2+z
1/2+x,1/2-y,1/2+z
loop_
_atom_site_type_symbol
_atom_site_label
_atom_site_fract_x
_atom_site_fract_y
_atom_site_fract_z
Si Si1 0.690168 0.167635 0.266856
Si Si2 0.733012 0.673280 0.566846
Si Si3 0.847868 0.825407 0.869916
Si Si4 0.500000 0.667580 0.430542
Si Si5 0.272953 0.666938 0.166830
Si Si6 0.079121 0.325732 0.931855
O O1 0.659418 0.263530 0.304778
O O2 0.694172 0.241283 0.202833
O O3 0.732305 0.168316 0.297975
O O4 0.674256 0.000000 0.259921
O O5 0.736672 0.724476 0.500000
O O6 0.741171 0.500000 0.574918
O O7 0.689187 0.713359 0.588787
O O8 0.766297 0.759482 0.603567
O O9 0.885402 0.744584 0.896180
O O10 0.855733 0.000000 0.866560
O O11 0.500000 0.500000 0.405712
O O12 0.500000 0.666924 0.500000
O O13 0.538711 0.753465 0.407950
O O14 0.288529 0.500000 0.158071
O O15 0.077242 0.500000 0.920133
O O16 0.085457 0.289550 0.000000
#
# Coordination Sequence:
#
# PCOD8287205 Si02
#       6
#    16  16  16   8  16  16
#     4   9  16  26  38  51  67  87 111 139 173 210
#     4   9  17  27  37  50  69  92 116 143 177 214
#     4  10  18  27  39  54  71  90 114 145 179 213
#     4   9  17  29  43  55  67  87 115 143 172 209
#     4   9  16  25  37  51  66  86 112 141 172 207
#     4  10  19  29  40  54  72  92 114 142 177 215
#
# _framework density 12.641780000000001
#
# number of rings (size 3 to 8) (size 9 to 14) (size 15 to 20)
#    0.000    2.636    0.000    3.000    0.000    8.364 
#    0.000    0.000    0.000    0.000    0.000    0.000 
#    0.000    0.000    0.000    0.000    0.000    0.000 
#
# Total GULP energy -545590.610893 kJ/mol
# GULP energy per Si atom -12399.786611 kJ/mol
# Density = 1.261301 g / cm^3
# Si number density = 12.641780 Si / 1000 Ang^3
#
#
#
# Elastic Constant Matrix: (Units=GPa)
#
#
# Indices 1 2 3 4 5 6 
#
# 1 52.3831 38.5037 41.0939 0.0000 0.0000 0.0000
# 2 38.5037 81.0252 43.0599 0.0000 0.0000 0.0000
# 3 41.0939 43.0599 79.3457 0.0000 0.0000 0.0000
# 4 0.0000 0.0000 0.0000 21.8145 0.0000 0.0000
# 5 0.0000 0.0000 0.0000 0.0000 13.3268 0.0000
# 6 0.0000 0.0000 0.0000 0.0000 0.0000 21.0041
#
#
#
# Elastic Compliance Matrix: (Units=1/GPa)
#
#
# Indices 1 2 3 4 5 6 
#
# 1 0.037669 -0.010586 -0.013764 0.000000 0.000000 0.000000
# 2 -0.010586 0.020319 -0.005544 0.000000 0.000000 0.000000
# 3 -0.013764 -0.005544 0.022741 0.000000 0.000000 0.000000
# 4 0.000000 0.000000 0.000000 0.045841 0.000000 0.000000
# 5 0.000000 0.000000 0.000000 0.000000 0.075037 0.000000
# 6 0.000000 0.000000 0.000000 0.000000 0.000000 0.047610
#
#
# Mechanical properties :
#
#
# Convention : Reuss Voigt Hill
#
# Bulk Modulus (GPa) = 47.75643 50.89656 49.32649
# Shear Modulus (GPa) = 15.82356 17.23552 16.52954
#
# Velocity S-wave (km/s) = 3.54176 3.69640 3.61990
# Velocity P-wave (km/s) = 7.38810 7.65283 7.52163
#
# Compressibility (1/GPa) = 0.02093959
#
# Stress axis : x y z
#
# Youngs Moduli (GPa) = 26.54695 49.21584 43.97414
#
# Poissons Ratio (x) = 0.52098 0.60528
# Poissons Ratio (y) = 0.28102 0.24380
# Poissons Ratio (z) = 0.36541 0.27287
#
# Static dielectric constant tensor:
#      x y z
#    x 2.342120 0.000000 0.000000 
#    y 0.000000 2.761680 0.000000 
#    z 0.000000 0.000000 2.507730 
# 
# 
# High freq. dielectric constant tensor:
#      x y z
#    x 1.438470 0.000000 0.000000 
#    y 0.000000 1.501110 0.000000 
#    z 0.000000 0.000000 1.456620 
# 
# From -- ./inp_files/11369.got.cif
#   From: 2010.06.25/outbox.cif.g09.slc.cpg/sg71_6_cif.got.tgz:11369.got - 2010.06.28 04:59:45.
