data_PCOD8287908
_publ_section_title
;
Structure prediction by ZEFSAII (Michael W. Deem and Ramdas Pophale) SiO2 
 PCOD8287908
Probable space group: I M M M
;
_chemical_formula_sum "Si O2"
_cell_formula_units_Z 128
_cell_length_a 19.054412
_cell_length_b 18.205881
_cell_length_c 22.384460
_cell_angle_alpha 90.000000
_cell_angle_beta 90.000000
_cell_angle_gamma 90.000000
_cell_volume 7765.221943
_symmetry_space_group_name_H-M "I M M M"
_symmetry_group_IT_number 71
_symmetry_cell_setting 'orthorhombic'
loop_
_space_group_symop_operation_xyz
x,y,z
-x,-y,z
x,-y,-z
-x,y,-z
-x,-y,-z
x,y,-z
-x,y,z
x,-y,z
1/2+x,1/2+y,1/2+z
1/2-x,1/2-y,1/2+z
1/2+x,1/2-y,1/2-z
1/2-x,1/2+y,1/2-z
1/2-x,1/2-y,1/2-z
1/2+x,1/2+y,1/2-z
1/2-x,1/2+y,1/2+z
1/2+x,1/2-y,1/2+z
loop_
_atom_site_type_symbol
_atom_site_label
_atom_site_fract_x
_atom_site_fract_y
_atom_site_fract_z
Si Si1 0.917729 0.581078 0.252761
Si Si2 0.081215 0.153244 0.162316
Si Si3 0.419323 0.414501 0.209673
Si Si4 0.919881 0.583938 0.387806
Si Si5 0.176786 0.915617 0.930759
Si Si6 0.659712 0.211364 0.291138
Si Si7 0.183563 0.793761 0.327298
Si Si8 0.693700 0.184692 0.067453
O O1 0.896582 0.500000 0.230789
O O2 0.890694 0.593121 0.320397
O O3 0.884991 0.637292 0.205773
O O4 0.000000 0.591703 0.252699
O O5 0.092831 0.104288 0.221041
O O6 0.107799 0.105985 0.106365
O O7 0.126280 0.228181 0.165168
O O8 0.000000 0.173320 0.152919
O O9 0.500000 0.396722 0.191495
O O10 0.402232 0.500000 0.199150
O O11 0.365646 0.366235 0.169823
O O12 0.913112 0.500000 0.408857
O O13 0.875149 0.634234 0.431818
O O14 0.000000 0.610357 0.391947
O O15 0.241074 0.864383 0.909726
O O16 0.197422 0.000000 0.918020
O O17 0.158969 0.903493 0.000000
O O18 0.736956 0.186751 0.310422
O O19 0.654294 0.239269 0.223083
O O20 0.182311 0.755797 0.391692
O O21 0.706167 0.212326 0.000000
#
# Coordination Sequence:
#
# PCOD8287908 Si02
#       8
#    16  16  16  16  16  16  16  16
#     4   9  17  29  47  72 102 132 157 191 246 300
#     4  10  19  32  52  75 101 135 168 203 247 292
#     4   9  19  34  52  76 103 129 160 204 254 301
#     4   9  18  31  47  69  97 129 166 203 236 279
#     4  10  21  35  50  70 100 138 173 205 242 285
#     4  10  18  32  49  72 102 127 163 208 243 293
#     4  10  20  32  50  73  95 127 166 203 247 291
#     4  11  21  35  50  67  97 133 168 208 245 288
#
# _framework density 16.483753
#
# number of rings (size 3 to 8) (size 9 to 14) (size 15 to 20)
#    0.000    2.250    2.500    1.875    0.000    3.500 
#    0.000    1.250    0.000    0.375    0.000    0.875 
#    0.000    0.500    0.000    4.250    0.000    0.000 
#
# Total GULP energy -793601.343541 kJ/mol
# GULP energy per Si atom -12400.020993 kJ/mol
# Density = 1.644624 g / cm^3
# Si number density = 16.483753 Si / 1000 Ang^3
#
#
#
# Elastic Constant Matrix: (Units=GPa)
#
#
# Indices 1 2 3 4 5 6 
#
# 1 72.8008 56.7853 30.7222 0.0000 0.0000 0.0000
# 2 56.7853 105.2509 44.2507 0.0000 0.0000 0.0000
# 3 30.7222 44.2507 60.0193 0.0000 0.0000 0.0000
# 4 0.0000 0.0000 0.0000 24.6158 0.0000 0.0000
# 5 0.0000 0.0000 0.0000 0.0000 21.2257 0.0000
# 6 0.0000 0.0000 0.0000 0.0000 0.0000 33.3593
#
#
#
# Elastic Compliance Matrix: (Units=1/GPa)
#
#
# Indices 1 2 3 4 5 6 
#
# 1 0.024372 -0.011455 -0.004030 0.000000 0.000000 0.000000
# 2 -0.011455 0.019153 -0.008258 0.000000 0.000000 0.000000
# 3 -0.004030 -0.008258 0.024812 0.000000 0.000000 0.000000
# 4 0.000000 0.000000 0.000000 0.040624 0.000000 0.000000
# 5 0.000000 0.000000 0.000000 0.000000 0.047113 0.000000
# 6 0.000000 0.000000 0.000000 0.000000 0.000000 0.029977
#
#
# Mechanical properties :
#
#
# Convention : Reuss Voigt Hill
#
# Bulk Modulus (GPa) = 47.95627 55.73193 51.84410
# Shear Modulus (GPa) = 20.79126 22.92767 21.85947
#
# Velocity S-wave (km/s) = 3.55536 3.73356 3.64555
# Velocity P-wave (km/s) = 6.78309 7.24359 7.01712
#
# Compressibility (1/GPa) = 0.02085233
#
# Stress axis : x y z
#
# Youngs Moduli (GPa) = 41.03151 52.21111 40.30273
#
# Poissons Ratio (x) = 0.59807 0.16241
# Poissons Ratio (y) = 0.47001 0.33281
# Poissons Ratio (z) = 0.16535 0.43114
#
# Static dielectric constant tensor:
#      x y z
#    x 3.130550 0.000000 0.000000 
#    y 0.000000 3.077110 0.000000 
#    z 0.000000 0.000000 2.876030 
# 
# 
# High freq. dielectric constant tensor:
#      x y z
#    x 1.643500 0.000000 0.000000 
#    y 0.000000 1.628350 0.000000 
#    z 0.000000 0.000000 1.600110 
# 
# From -- ./inp_files/47766.got.cif
#   From: 2010.06.25/outbox.cif.g09.slc.cpg/sg71_24_cif.got.tgz:47766.got - 2010.06.28 04:59:45.
