data_PCOD8287419
_publ_section_title
;
Structure prediction by ZEFSAII (Michael W. Deem and Ramdas Pophale) SiO2 
 PCOD8287419
Probable space group: I M M M
;
_chemical_formula_sum "Si O2"
_cell_formula_units_Z 112
_cell_length_a 14.365622
_cell_length_b 14.458219
_cell_length_c 31.968171
_cell_angle_alpha 90.000000
_cell_angle_beta 90.000000
_cell_angle_gamma 90.000000
_cell_volume 6639.830961
_symmetry_space_group_name_H-M "I M M M"
_symmetry_group_IT_number 71
_symmetry_cell_setting 'orthorhombic'
loop_
_space_group_symop_operation_xyz
x,y,z
-x,-y,z
x,-y,-z
-x,y,-z
-x,-y,-z
x,y,-z
-x,y,z
x,-y,z
1/2+x,1/2+y,1/2+z
1/2-x,1/2-y,1/2+z
1/2+x,1/2-y,1/2-z
1/2-x,1/2+y,1/2-z
1/2-x,1/2-y,1/2-z
1/2+x,1/2+y,1/2-z
1/2-x,1/2+y,1/2+z
1/2+x,1/2-y,1/2+z
loop_
_atom_site_type_symbol
_atom_site_label
_atom_site_fract_x
_atom_site_fract_y
_atom_site_fract_z
Si Si1 0.607247 0.734044 0.953215
Si Si2 0.110452 0.102999 0.782193
Si Si3 0.784101 0.604903 0.582152
Si Si4 0.110612 0.103886 0.378678
Si Si5 0.610413 0.710274 0.203091
Si Si6 0.397236 0.609848 0.374021
Si Si7 0.607810 0.101320 0.831840
O O1 0.500000 0.759766 0.943869
O O2 0.668539 0.827292 0.951002
O O3 0.644440 0.658880 0.919976
O O4 0.618111 0.693143 0.000000
O O5 0.152761 0.168401 0.745821
O O6 0.135832 0.145029 0.827914
O O7 0.000000 0.097468 0.778392
O O8 0.152617 0.000000 0.776339
O O9 0.786346 0.500000 0.564527
O O10 0.677495 0.638015 0.590717
O O11 0.838280 0.611789 0.625327
O O12 0.149197 0.154962 0.337301
O O13 0.000000 0.100095 0.377941
O O14 0.151687 0.000000 0.380291
O O15 0.500000 0.700205 0.203914
O O16 0.639945 0.818438 0.200141
O O17 0.500000 0.649150 0.385927
O O18 0.402449 0.500000 0.370035
O O19 0.500000 0.114489 0.843253
O O20 0.626819 0.000000 0.811632
#
# Coordination Sequence:
#
# PCOD8287419 Si02
#       7
#    16  16  16  16  16  16  16
#     4  10  20  32  45  64  90 117 146 178 209 249
#     4   8  13  22  38  61  86 110 140 179 219 255
#     4  10  18  29  46  63  84 115 147 179 216 256
#     4   9  16  26  41  61  86 117 148 174 207 251
#     4   9  14  22  38  60  85 113 146 181 212 244
#     4   8  15  28  45  65  87 111 142 180 221 264
#     4   9  16  25  38  56  81 117 155 181 204 243
#
# _framework density 16.867899999999999
#
# number of rings (size 3 to 8) (size 9 to 14) (size 15 to 20)
#    0.000    3.000    1.429    1.714    0.000    3.143 
#    0.000    2.857    0.000    0.429    0.000    2.000 
#    0.000    0.571    0.000    1.286    0.000    0.143 
#
# Total GULP energy -693963.769319 kJ/mol
# GULP energy per Si atom -12392.210166 kJ/mol
# Density = 1.682951 g / cm^3
# Si number density = 16.867900 Si / 1000 Ang^3
#
#
#
# Elastic Constant Matrix: (Units=GPa)
#
#
# Indices 1 2 3 4 5 6 
#
# 1 36.9070 17.4664 18.8617 0.0000 0.0000 0.0000
# 2 17.4664 88.0753 21.6017 0.0000 0.0000 0.0000
# 3 18.8617 21.6017 49.9695 0.0000 0.0000 0.0000
# 4 0.0000 0.0000 0.0000 20.0986 0.0000 0.0000
# 5 0.0000 0.0000 0.0000 0.0000 13.2897 0.0000
# 6 0.0000 0.0000 0.0000 0.0000 0.0000 6.5415
#
#
#
# Elastic Compliance Matrix: (Units=1/GPa)
#
#
# Indices 1 2 3 4 5 6 
#
# 1 0.034860 -0.004123 -0.011376 0.000000 0.000000 0.000000
# 2 -0.004123 0.013188 -0.004145 0.000000 0.000000 0.000000
# 3 -0.011376 -0.004145 0.026098 0.000000 0.000000 0.000000
# 4 0.000000 0.000000 0.000000 0.049755 0.000000 0.000000
# 5 0.000000 0.000000 0.000000 0.000000 0.075246 0.000000
# 6 0.000000 0.000000 0.000000 0.000000 0.000000 0.152870
#
#
# Mechanical properties :
#
#
# Convention : Reuss Voigt Hill
#
# Bulk Modulus (GPa) = 28.68752 32.31240 30.49996
# Shear Modulus (GPa) = 12.40925 15.78741 14.09833
#
# Velocity S-wave (km/s) = 2.71527 3.06264 2.89417
# Velocity P-wave (km/s) = 5.18405 5.63064 5.41195
#
# Compressibility (1/GPa) = 0.03485836
#
# Stress axis : x y z
#
# Youngs Moduli (GPa) = 28.68593 75.82549 38.31690
#
# Poissons Ratio (x) = 0.31263 0.43590
# Poissons Ratio (y) = 0.11827 0.15882
# Poissons Ratio (z) = 0.32634 0.31429
#
# Static dielectric constant tensor:
#      x y z
#    x 3.077800 0.000000 0.000000 
#    y 0.000000 3.328410 0.000000 
#    z 0.000000 0.000000 3.125230 
# 
# 
# High freq. dielectric constant tensor:
#      x y z
#    x 1.613220 0.000000 0.000000 
#    y 0.000000 1.635850 0.000000 
#    z 0.000000 0.000000 1.632390 
# 
# From -- ./inp_files/35328.got.cif
#   From: 2010.06.25/outbox.cif.g09.slc.cpg/sg71_18_cif.got.tgz:35328.got - 2010.06.28 04:59:45.
