data_PCOD8287078
_publ_section_title
;
Structure prediction by ZEFSAII (Michael W. Deem and Ramdas Pophale) SiO2 
 PCOD8287078
Probable space group: I M M M
;
_chemical_formula_sum "Si O2"
_cell_formula_units_Z 88
_cell_length_a 15.299030
_cell_length_b 11.556782
_cell_length_c 28.107281
_cell_angle_alpha 90.000000
_cell_angle_beta 90.000000
_cell_angle_gamma 90.000000
_cell_volume 4969.579618
_symmetry_space_group_name_H-M "I M M M"
_symmetry_group_IT_number 71
_symmetry_cell_setting 'orthorhombic'
loop_
_space_group_symop_operation_xyz
x,y,z
-x,-y,z
x,-y,-z
-x,y,-z
-x,-y,-z
x,y,-z
-x,y,z
x,-y,z
1/2+x,1/2+y,1/2+z
1/2-x,1/2-y,1/2+z
1/2+x,1/2-y,1/2-z
1/2-x,1/2+y,1/2-z
1/2-x,1/2-y,1/2-z
1/2+x,1/2+y,1/2-z
1/2-x,1/2+y,1/2+z
1/2+x,1/2-y,1/2+z
loop_
_atom_site_type_symbol
_atom_site_label
_atom_site_fract_x
_atom_site_fract_y
_atom_site_fract_z
Si Si1 0.275036 0.804828 0.053576
Si Si2 0.749341 0.865470 0.638576
Si Si3 0.401180 0.367539 0.789717
Si Si4 0.593708 0.500000 0.348248
Si Si5 0.097638 0.500000 0.556707
Si Si6 0.397854 0.264879 0.310138
Si Si7 0.866265 0.000000 0.050212
O O1 0.255894 0.698213 0.088198
O O2 0.354848 0.882702 0.074152
O O3 0.191033 0.885198 0.051983
O O4 0.295255 0.758118 0.000000
O O5 0.834630 0.832038 0.669021
O O6 0.661660 0.836831 0.668723
O O7 0.746514 0.000000 0.626696
O O8 0.500000 0.355893 0.809432
O O9 0.384031 0.500000 0.772392
O O10 0.386990 0.277707 0.746486
O O11 0.500000 0.500000 0.320847
O O12 0.642334 0.617272 0.333321
O O13 0.571854 0.500000 0.404380
O O14 0.100915 0.500000 0.500000
O O15 0.000000 0.500000 0.577377
O O16 0.500000 0.244023 0.323993
O O17 0.919090 0.000000 0.000000
#
# Coordination Sequence:
#
# PCOD8287078 Si02
#       7
#    16  16  16   8   8  16   8
#     4   9  18  32  50  73 102 135 172 215 258 303
#     4  11  22  33  51  77 104 145 182 205 248 308
#     4   9  18  34  54  77 102 128 166 217 267 313
#     4  10  17  28  53  80  95 124 165 210 269 311
#     4   8  15  30  54  79 100 129 169 217 274 315
#     4  10  19  34  55  76 101 132 171 218 264 312
#     4   9  16  30  50  72  99 125 159 216 267 293
#
# _framework density 17.707735
#
# number of rings (size 3 to 8) (size 9 to 14) (size 15 to 20)
#    0.000    2.455    2.727    1.636    0.000    1.636 
#    0.000    0.000    2.000    0.545    0.000    6.364 
#    0.000    0.000    0.000    0.000    0.000    0.000 
#
# Total GULP energy -545270.803137 kJ/mol
# GULP energy per Si atom -12392.518253 kJ/mol
# Density = 1.766743 g / cm^3
# Si number density = 17.707735 Si / 1000 Ang^3
#
#
#
# Elastic Constant Matrix: (Units=GPa)
#
#
# Indices 1 2 3 4 5 6 
#
# 1 91.5355 37.9935 36.1797 0.0000 0.0000 0.0000
# 2 37.9935 88.5940 50.5243 0.0000 0.0000 0.0000
# 3 36.1797 50.5243 97.5133 0.0000 0.0000 0.0000
# 4 0.0000 0.0000 0.0000 48.1952 0.0000 0.0000
# 5 0.0000 0.0000 0.0000 0.0000 18.7758 0.0000
# 6 0.0000 0.0000 0.0000 0.0000 0.0000 16.6814
#
#
#
# Elastic Compliance Matrix: (Units=1/GPa)
#
#
# Indices 1 2 3 4 5 6 
#
# 1 0.013855 -0.004273 -0.002927 0.000000 0.000000 0.000000
# 2 -0.004273 0.017339 -0.007399 0.000000 0.000000 0.000000
# 3 -0.002927 -0.007399 0.015174 0.000000 0.000000 0.000000
# 4 0.000000 0.000000 0.000000 0.020749 0.000000 0.000000
# 5 0.000000 0.000000 0.000000 0.000000 0.053260 0.000000
# 6 0.000000 0.000000 0.000000 0.000000 0.000000 0.059947
#
#
# Mechanical properties :
#
#
# Convention : Reuss Voigt Hill
#
# Bulk Modulus (GPa) = 58.23287 58.55976 58.39631
# Shear Modulus (GPa) = 23.22937 26.92682 25.07809
#
# Velocity S-wave (km/s) = 3.62584 3.90375 3.76736
# Velocity P-wave (km/s) = 7.10534 7.31170 7.20926
#
# Compressibility (1/GPa) = 0.01717243
#
# Stress axis : x y z
#
# Youngs Moduli (GPa) = 72.17634 57.67304 65.90066
#
# Poissons Ratio (x) = 0.24641 0.19288
# Poissons Ratio (y) = 0.30838 0.48758
# Poissons Ratio (z) = 0.21124 0.42670
#
# Static dielectric constant tensor:
#      x y z
#    x 3.253420 0.000000 0.000000 
#    y 0.000000 3.116720 0.000000 
#    z 0.000000 0.000000 3.279740 
# 
# 
# High freq. dielectric constant tensor:
#      x y z
#    x 1.680230 0.000000 0.000000 
#    y 0.000000 1.663150 0.000000 
#    z 0.000000 0.000000 1.681460 
# 
# From -- ./inp_files/69853.got.cif
#   From: 2010.06.25/outbox.cif.g09.slc.cpg/sg71_35_cif.got.tgz:69853.got - 2010.06.28 04:59:45.
