data_PCOD8287213
_publ_section_title
;
Structure prediction by ZEFSAII (Michael W. Deem and Ramdas Pophale) SiO2 
 PCOD8287213
Probable space group: I M M M
;
_chemical_formula_sum "Si O2"
_cell_formula_units_Z 72
_cell_length_a 31.802843
_cell_length_b 18.490827
_cell_length_c 8.828894
_cell_angle_alpha 90.000000
_cell_angle_beta 90.000000
_cell_angle_gamma 90.000000
_cell_volume 5191.927069
_symmetry_space_group_name_H-M "I M M M"
_symmetry_group_IT_number 71
_symmetry_cell_setting 'orthorhombic'
loop_
_space_group_symop_operation_xyz
x,y,z
-x,-y,z
x,-y,-z
-x,y,-z
-x,-y,-z
x,y,-z
-x,y,z
x,-y,z
1/2+x,1/2+y,1/2+z
1/2-x,1/2-y,1/2+z
1/2+x,1/2-y,1/2-z
1/2-x,1/2+y,1/2-z
1/2-x,1/2-y,1/2-z
1/2+x,1/2+y,1/2-z
1/2-x,1/2+y,1/2+z
1/2+x,1/2-y,1/2+z
loop_
_atom_site_type_symbol
_atom_site_label
_atom_site_fract_x
_atom_site_fract_y
_atom_site_fract_z
Si Si1 0.291140 0.783637 0.178157
Si Si2 0.754103 0.079569 0.178104
Si Si3 0.836438 0.836857 0.820539
Si Si4 0.500000 0.585777 0.670435
Si Si5 0.085501 0.915823 0.677658
O O1 0.250000 0.750000 0.250000
O O2 0.286793 0.869946 0.212989
O O3 0.331298 0.745364 0.256296
O O4 0.292320 0.768688 0.000000
O O5 0.797342 0.114912 0.240465
O O6 0.747437 0.000000 0.251624
O O7 0.759759 0.071978 0.000000
O O8 0.879003 0.870014 0.759190
O O9 0.838117 0.833353 0.000000
O O10 0.500000 0.500000 0.667008
O O11 0.500000 0.617268 0.500000
O O12 0.541101 0.613011 0.759239
O O13 0.086958 0.901714 0.500000
O O14 0.092218 0.000000 0.716901
#
# Coordination Sequence:
#
# PCOD8287213 Si02
#       5
#    16  16  16   8  16
#     4   9  16  26  39  54  74  99 127 161 199 236
#     4   8  14  24  38  55  73  96 128 163 196 230
#     4  10  18  27  40  56  76 103 133 163 194 232
#     4   9  17  29  43  57  75 101 130 157 190 233
#     4  10  19  29  41  58  79 101 128 164 200 230
#
# _framework density 13.867683
#
# number of rings (size 3 to 8) (size 9 to 14) (size 15 to 20)
#    0.000    2.778    0.000    4.333    0.000    3.556 
#    0.000    0.000    0.000   13.333    0.000    0.000 
#    0.000    0.000    0.000    1.000    0.000   20.667 
#
# Total GULP energy -446087.048460 kJ/mol
# GULP energy per Si atom -12391.306902 kJ/mol
# Density = 1.383612 g / cm^3
# Si number density = 13.867683 Si / 1000 Ang^3
#
#
#
# Elastic Constant Matrix: (Units=GPa)
#
#
# Indices 1 2 3 4 5 6 
#
# 1 86.5134 54.5543 42.7835 0.0000 0.0000 0.0000
# 2 54.5543 88.9515 34.5405 0.0000 0.0000 0.0000
# 3 42.7835 34.5405 70.8194 0.0000 0.0000 0.0000
# 4 0.0000 0.0000 0.0000 16.1409 0.0000 0.0000
# 5 0.0000 0.0000 0.0000 0.0000 24.5773 0.0000
# 6 0.0000 0.0000 0.0000 0.0000 0.0000 17.0453
#
#
#
# Elastic Compliance Matrix: (Units=1/GPa)
#
#
# Indices 1 2 3 4 5 6 
#
# 1 0.022258 -0.010399 -0.008375 0.000000 0.000000 0.000000
# 2 -0.010399 0.018727 -0.002851 0.000000 0.000000 0.000000
# 3 -0.008375 -0.002851 0.020570 0.000000 0.000000 0.000000
# 4 0.000000 0.000000 0.000000 0.061954 0.000000 0.000000
# 5 0.000000 0.000000 0.000000 0.000000 0.040688 0.000000
# 6 0.000000 0.000000 0.000000 0.000000 0.000000 0.058667
#
#
# Mechanical properties :
#
#
# Convention : Reuss Voigt Hill
#
# Bulk Modulus (GPa) = 54.62889 56.67123 55.65006
# Shear Modulus (GPa) = 18.36773 19.17977 18.77375
#
# Velocity S-wave (km/s) = 3.64331 3.72298 3.68336
# Velocity P-wave (km/s) = 7.56153 7.70942 7.63584
#
# Compressibility (1/GPa) = 0.01830533
#
# Stress axis : x y z
#
# Youngs Moduli (GPa) = 44.92802 53.39882 48.61341
#
# Poissons Ratio (x) = 0.55529 0.40712
# Poissons Ratio (y) = 0.46720 0.13862
# Poissons Ratio (z) = 0.37626 0.15227
#
# Static dielectric constant tensor:
#      x y z
#    x 2.710080 0.000000 0.000000 
#    y 0.000000 3.106700 0.000000 
#    z 0.000000 0.000000 2.827910 
# 
# 
# High freq. dielectric constant tensor:
#      x y z
#    x 1.502860 0.000000 0.000000 
#    y 0.000000 1.506190 0.000000 
#    z 0.000000 0.000000 1.534780 
# 
# From -- ./inp_files/8168.got.cif
#   From: 2010.06.25/outbox.cif.g09.slc.cpg/sg71_5_cif.got.tgz:8168.got - 2010.06.28 04:59:45.
