data_PCOD8287570
_publ_section_title
;
Structure prediction by ZEFSAII (Michael W. Deem and Ramdas Pophale) SiO2 
 PCOD8287570
Probable space group: I M M M
;
_chemical_formula_sum "Si O2"
_cell_formula_units_Z 80
_cell_length_a 8.370782
_cell_length_b 24.408920
_cell_length_c 18.705652
_cell_angle_alpha 90.000000
_cell_angle_beta 90.000000
_cell_angle_gamma 90.000000
_cell_volume 3821.971517
_symmetry_space_group_name_H-M "I M M M"
_symmetry_group_IT_number 71
_symmetry_cell_setting 'orthorhombic'
loop_
_space_group_symop_operation_xyz
x,y,z
-x,-y,z
x,-y,-z
-x,y,-z
-x,-y,-z
x,y,-z
-x,y,z
x,-y,z
1/2+x,1/2+y,1/2+z
1/2-x,1/2-y,1/2+z
1/2+x,1/2-y,1/2-z
1/2-x,1/2+y,1/2-z
1/2-x,1/2-y,1/2-z
1/2+x,1/2+y,1/2-z
1/2-x,1/2+y,1/2+z
1/2+x,1/2-y,1/2+z
loop_
_atom_site_type_symbol
_atom_site_label
_atom_site_fract_x
_atom_site_fract_y
_atom_site_fract_z
Si Si1 0.314114 0.354992 0.500000
Si Si2 0.685919 0.240387 0.354130
Si Si3 0.188482 0.864352 0.292379
Si Si4 0.189719 0.938327 0.420704
Si Si5 0.185434 0.360973 0.354701
Si Si6 0.814660 0.764291 0.500000
O O1 0.500000 0.339028 0.500000
O O2 0.269481 0.386468 0.426272
O O3 0.204307 0.301206 0.500000
O O4 0.500000 0.254735 0.347733
O O5 0.738614 0.197103 0.294000
O O6 0.785504 0.295998 0.348779
O O7 0.728940 0.211293 0.429850
O O8 0.260584 0.900679 0.357185
O O9 0.240465 0.889797 0.215930
O O10 0.000000 0.860319 0.297529
O O11 0.240936 0.916750 0.500000
O O12 0.000000 0.938552 0.415211
O O13 0.254746 0.000000 0.409885
O O14 0.000000 0.374324 0.358625
O O15 0.000000 0.781378 0.500000
#
# Coordination Sequence:
#
# PCOD8287570 Si02
#       6
#     8  16  16  16  16   8
#     4  10  18  32  52  72  97 130 171 212 254 301
#     4  11  21  33  47  69 103 140 177 220 264 310
#     4  11  21  32  51  78 105 135 175 220 267 317
#     4   8  16  33  56  81 107 136 175 224 272 317
#     4  11  21  35  51  72 104 142 180 216 259 313
#     4  10  18  30  46  66  93 132 177 212 252 303
#
# _framework density 20.931605000000001
#
# number of rings (size 3 to 8) (size 9 to 14) (size 15 to 20)
#    0.000    1.800    0.000    9.600    1.400    0.000 
#    0.000    0.000    0.000    2.400    0.000    6.300 
#    0.000    5.600    0.000    0.000    0.000    0.000 
#
# Total GULP energy -495827.727130 kJ/mol
# GULP energy per Si atom -12395.693178 kJ/mol
# Density = 2.088396 g / cm^3
# Si number density = 20.931605 Si / 1000 Ang^3
#
#
#
# Elastic Constant Matrix: (Units=GPa)
#
#
# Indices 1 2 3 4 5 6 
#
# 1 75.5102 4.5144 18.5299 0.0000 0.0000 0.0000
# 2 4.5144 32.9283 29.3645 0.0000 0.0000 0.0000
# 3 18.5299 29.3645 184.0769 0.0000 0.0000 0.0000
# 4 0.0000 0.0000 0.0000 23.4810 0.0000 0.0000
# 5 0.0000 0.0000 0.0000 0.0000 35.3163 0.0000
# 6 0.0000 0.0000 0.0000 0.0000 0.0000 7.7646
#
#
#
# Elastic Compliance Matrix: (Units=1/GPa)
#
#
# Indices 1 2 3 4 5 6 
#
# 1 0.013595 -0.000750 -0.001249 0.000000 0.000000 0.000000
# 2 -0.000750 0.035447 -0.005579 0.000000 0.000000 0.000000
# 3 -0.001249 -0.005579 0.006448 0.000000 0.000000 0.000000
# 4 0.000000 0.000000 0.000000 0.042588 0.000000 0.000000
# 5 0.000000 0.000000 0.000000 0.000000 0.028316 0.000000
# 6 0.000000 0.000000 0.000000 0.000000 0.000000 0.128789
#
#
# Mechanical properties :
#
#
# Convention : Reuss Voigt Hill
#
# Bulk Modulus (GPa) = 24.79308 44.14810 34.47059
# Shear Modulus (GPa) = 17.61912 29.31950 23.46931
#
# Velocity S-wave (km/s) = 2.90444 3.74669 3.35212
# Velocity P-wave (km/s) = 4.80814 6.31303 5.61126
#
# Compressibility (1/GPa) = 0.04033383
#
# Stress axis : x y z
#
# Youngs Moduli (GPa) = 73.55896 28.21098 155.08144
#
# Poissons Ratio (x) = 0.02116 0.19367
# Poissons Ratio (y) = 0.05518 0.86522
# Poissons Ratio (z) = 0.09186 0.15739
#
# Static dielectric constant tensor:
#      x y z
#    x 3.459830 0.000000 0.000000 
#    y 0.000000 3.284870 0.000000 
#    z 0.000000 0.000000 4.965100 
# 
# 
# High freq. dielectric constant tensor:
#      x y z
#    x 1.804420 0.000000 0.000000 
#    y 0.000000 1.743030 0.000000 
#    z 0.000000 0.000000 1.858330 
# 
# From -- ./inp_files/42279.got.cif
#   From: 2010.06.25/outbox.cif.g09.slc.cpg/sg71_22_cif.got.tgz:42279.got - 2010.06.28 04:59:45.
