data_PCOD8287287
_publ_section_title
;
Structure prediction by ZEFSAII (Michael W. Deem and Ramdas Pophale) SiO2 
 PCOD8287287
Probable space group: I M M M
;
_chemical_formula_sum "Si O2"
_cell_formula_units_Z 96
_cell_length_a 16.964145
_cell_length_b 14.514743
_cell_length_c 23.749389
_cell_angle_alpha 90.000000
_cell_angle_beta 90.000000
_cell_angle_gamma 90.000000
_cell_volume 5847.816919
_symmetry_space_group_name_H-M "I M M M"
_symmetry_group_IT_number 71
_symmetry_cell_setting 'orthorhombic'
loop_
_space_group_symop_operation_xyz
x,y,z
-x,-y,z
x,-y,-z
-x,y,-z
-x,-y,-z
x,y,-z
-x,y,z
x,-y,z
1/2+x,1/2+y,1/2+z
1/2-x,1/2-y,1/2+z
1/2+x,1/2-y,1/2-z
1/2-x,1/2+y,1/2-z
1/2-x,1/2-y,1/2-z
1/2+x,1/2+y,1/2-z
1/2-x,1/2+y,1/2+z
1/2+x,1/2-y,1/2+z
loop_
_atom_site_type_symbol
_atom_site_label
_atom_site_fract_x
_atom_site_fract_y
_atom_site_fract_z
Si Si1 0.908565 0.393210 0.719597
Si Si2 0.000000 0.107666 0.939552
Si Si3 0.826039 0.394254 0.609560
Si Si4 0.351768 0.394933 0.366006
Si Si5 0.906373 0.395693 0.937126
Si Si6 0.590039 0.890037 0.000000
Si Si7 0.593480 0.217373 0.329291
O O1 0.889299 0.500000 0.728746
O O2 0.858491 0.350372 0.667645
O O3 0.881515 0.344275 0.776603
O O4 0.000000 0.376635 0.706084
O O5 0.920005 0.136595 0.909039
O O6 0.000000 0.000000 0.948077
O O7 0.000000 0.158265 0.000000
O O8 0.852796 0.500000 0.611078
O O9 0.732128 0.385281 0.603880
O O10 0.866612 0.348076 0.555052
O O11 0.364148 0.500000 0.343252
O O12 0.362777 0.316410 0.318539
O O13 0.876396 0.500000 0.926049
O O14 0.874196 0.329789 0.887137
O O15 0.000000 0.394517 0.934321
O O16 0.878473 0.363511 0.000000
O O17 0.500000 0.856918 0.000000
O O18 0.597009 0.000000 0.000000
O O19 0.500000 0.231552 0.331450
#
# Coordination Sequence:
#
# PCOD8287287 Si02
#       7
#    16   8  16  16  16   8  16
#     4   9  17  30  48  68  90 113 144 185 231 282
#     4   9  18  30  44  58  81 121 159 188 214 243
#     4   9  18  30  45  66  90 117 146 183 227 271
#     4  10  20  32  43  61  90 123 159 191 219 255
#     4   8  14  25  40  59  83 109 143 188 228 261
#     4   9  16  28  48  69  89 113 144 178 223 279
#     4  10  18  28  43  64  85 119 157 187 221 265
#
# _framework density 16.416383
#
# number of rings (size 3 to 8) (size 9 to 14) (size 15 to 20)
#    0.000    2.833    0.833    1.500    1.167    5.333 
#    0.000    0.000    0.000    0.000    0.000    0.000 
#    0.000    0.000    0.000    0.167    0.000   11.833 
#
# Total GULP energy -594761.496262 kJ/mol
# GULP energy per Si atom -12390.864505 kJ/mol
# Density = 1.637902 g / cm^3
# Si number density = 16.416383 Si / 1000 Ang^3
#
#
#
# Elastic Constant Matrix: (Units=GPa)
#
#
# Indices 1 2 3 4 5 6 
#
# 1 74.4947 24.5747 49.1758 0.0000 0.0000 0.0000
# 2 24.5747 67.5590 46.9436 0.0000 0.0000 0.0000
# 3 49.1758 46.9436 133.1460 0.0000 0.0000 0.0000
# 4 0.0000 0.0000 0.0000 6.0467 0.0000 0.0000
# 5 0.0000 0.0000 0.0000 0.0000 14.8516 0.0000
# 6 0.0000 0.0000 0.0000 0.0000 0.0000 11.0570
#
#
#
# Elastic Compliance Matrix: (Units=1/GPa)
#
#
# Indices 1 2 3 4 5 6 
#
# 1 0.018081 -0.002565 -0.005774 0.000000 0.000000 0.000000
# 2 -0.002565 0.019969 -0.006093 0.000000 0.000000 0.000000
# 3 -0.005774 -0.006093 0.011791 0.000000 0.000000 0.000000
# 4 0.000000 0.000000 0.000000 0.165379 0.000000 0.000000
# 5 0.000000 0.000000 0.000000 0.000000 0.067333 0.000000
# 6 0.000000 0.000000 0.000000 0.000000 0.000000 0.090440
#
#
# Mechanical properties :
#
#
# Convention : Reuss Voigt Hill
#
# Bulk Modulus (GPa) = 47.67021 57.39864 52.53443
# Shear Modulus (GPa) = 12.22945 16.69145 14.46045
#
# Velocity S-wave (km/s) = 2.73235 3.19212 2.97114
# Velocity P-wave (km/s) = 6.24944 6.97326 6.62125
#
# Compressibility (1/GPa) = 0.02097746
#
# Stress axis : x y z
#
# Youngs Moduli (GPa) = 55.30552 50.07836 84.80894
#
# Poissons Ratio (x) = 0.12846 0.48966
# Poissons Ratio (y) = 0.14187 0.51674
# Poissons Ratio (z) = 0.31932 0.30513
#
# Static dielectric constant tensor:
#      x y z
#    x 2.866830 0.000000 0.000000 
#    y 0.000000 3.009650 0.000000 
#    z 0.000000 0.000000 3.365670 
# 
# 
# High freq. dielectric constant tensor:
#      x y z
#    x 1.605110 0.000000 0.000000 
#    y 0.000000 1.605160 0.000000 
#    z 0.000000 0.000000 1.629980 
# 
# From -- ./inp_files/59833.got.cif
#   From: 2010.06.25/outbox.cif.g09.slc.cpg/sg71_30_cif.got.tgz:59833.got - 2010.06.28 04:59:45.
