data_PCOD8287996
_publ_section_title
;
Structure prediction by ZEFSAII (Michael W. Deem and Ramdas Pophale) SiO2 
 PCOD8287996
Probable space group: I M M M
;
_chemical_formula_sum "Si O2"
_cell_formula_units_Z 104
_cell_length_a 14.351797
_cell_length_b 17.369446
_cell_length_c 19.886532
_cell_angle_alpha 90.000000
_cell_angle_beta 90.000000
_cell_angle_gamma 90.000000
_cell_volume 4957.369643
_symmetry_space_group_name_H-M "I M M M"
_symmetry_group_IT_number 71
_symmetry_cell_setting 'orthorhombic'
loop_
_space_group_symop_operation_xyz
x,y,z
-x,-y,z
x,-y,-z
-x,y,-z
-x,-y,-z
x,y,-z
-x,y,z
x,-y,z
1/2+x,1/2+y,1/2+z
1/2-x,1/2-y,1/2+z
1/2+x,1/2-y,1/2-z
1/2-x,1/2+y,1/2-z
1/2-x,1/2-y,1/2-z
1/2+x,1/2+y,1/2-z
1/2-x,1/2+y,1/2+z
1/2+x,1/2-y,1/2+z
loop_
_atom_site_type_symbol
_atom_site_label
_atom_site_fract_x
_atom_site_fract_y
_atom_site_fract_z
Si Si1 0.604104 0.842684 0.927724
Si Si2 0.293358 0.133732 0.347824
Si Si3 0.396256 0.152782 0.782969
Si Si4 0.297410 0.718693 0.574500
Si Si5 0.107016 0.911310 0.152686
Si Si6 0.395456 0.334189 0.796359
Si Si7 0.105450 0.500000 0.920836
O O1 0.500000 0.804640 0.923175
O O2 0.618043 0.888722 0.856683
O O3 0.684511 0.778400 0.929411
O O4 0.610391 0.889662 0.000000
O O5 0.326367 0.117767 0.271387
O O6 0.331654 0.216073 0.373911
O O7 0.180672 0.129952 0.347627
O O8 0.336311 0.073014 0.397895
O O9 0.500000 0.137930 0.755767
O O10 0.376571 0.243376 0.790964
O O11 0.338407 0.734378 0.500000
O O12 0.330750 0.634908 0.599043
O O13 0.120838 0.873681 0.224991
O O14 0.000000 0.905095 0.129782
O O15 0.139980 0.000000 0.153849
O O16 0.500000 0.351486 0.822838
O O17 0.000000 0.500000 0.891152
O O18 0.100643 0.500000 0.000000
#
# Coordination Sequence:
#
# PCOD8287996 Si02
#       7
#    16  16  16  16  16  16   8
#     4   9  18  33  54  85 123 157 192 241 302 363
#     4  12  22  39  64  91 120 162 210 259 307 361
#     4  10  18  32  59  91 119 152 200 250 297 357
#     4  11  22  36  59  88 116 156 207 250 298 366
#     4  10  22  39  58  86 124 158 192 243 308 367
#     4  10  20  35  59  94 127 157 197 251 309 366
#     4  11  28  50  65  85 124 168 209 264 321 359
#
# _framework density 20.978866
#
# number of rings (size 3 to 8) (size 9 to 14) (size 15 to 20)
#    0.000    1.615    3.077    2.308    1.077    1.231 
#    0.000    0.769    0.000    2.308    0.000    2.154 
#    0.000    0.000    0.000    0.000    0.000    0.000 
#
# Total GULP energy -644186.311685 kJ/mol
# GULP energy per Si atom -12388.198302 kJ/mol
# Density = 2.093112 g / cm^3
# Si number density = 20.978866 Si / 1000 Ang^3
#
#
#
# Elastic Constant Matrix: (Units=GPa)
#
#
# Indices 1 2 3 4 5 6 
#
# 1 109.2961 30.9733 37.8818 0.0000 0.0000 0.0000
# 2 30.9733 65.4657 32.0357 0.0000 0.0000 0.0000
# 3 37.8818 32.0357 127.2636 0.0000 0.0000 0.0000
# 4 0.0000 0.0000 0.0000 20.5956 0.0000 0.0000
# 5 0.0000 0.0000 0.0000 0.0000 27.7252 0.0000
# 6 0.0000 0.0000 0.0000 0.0000 0.0000 -3.4759
#
#
#
# Elastic Compliance Matrix: (Units=1/GPa)
#
#
# Indices 1 2 3 4 5 6 
#
# 1 0.011109 -0.004149 -0.002262 0.000000 0.000000 0.000000
# 2 -0.004149 0.018971 -0.003540 0.000000 0.000000 0.000000
# 3 -0.002262 -0.003540 0.009422 0.000000 0.000000 0.000000
# 4 0.000000 0.000000 0.000000 0.048554 0.000000 0.000000
# 5 0.000000 0.000000 0.000000 0.000000 0.036068 0.000000
# 6 0.000000 0.000000 0.000000 0.000000 0.000000 -0.287692
#
#
# Mechanical properties :
#
#
# Convention : Reuss Voigt Hill
#
# Bulk Modulus (GPa) = 51.02376 55.97857 53.50116
# Shear Modulus (GPa) = -36.46163 22.37795 -7.04184
#
# Velocity S-wave (km/s) = -4.17348 3.26957 -1.83410
# Velocity P-wave (km/s) = 1.07258 6.40271 4.59048
#
# Compressibility (1/GPa) = 0.01959871
#
# Stress axis : x y z
#
# Youngs Moduli (GPa) = 90.01385 52.71297 106.13029
#
# Poissons Ratio (x) = 0.21870 0.24012
# Poissons Ratio (y) = 0.37347 0.37575
# Poissons Ratio (z) = 0.20365 0.18663
#
# Static dielectric constant tensor:
#      x y z
#    x 4.073680 0.000000 0.000000 
#    y 0.000000 3.385160 0.000000 
#    z 0.000000 0.000000 4.123450 
# 
# 
# High freq. dielectric constant tensor:
#      x y z
#    x 1.838150 0.000000 0.000000 
#    y 0.000000 1.768810 0.000000 
#    z 0.000000 0.000000 1.832250 
# 
# From -- ./inp_files/53183.got.cif
#   From: 2010.06.25/outbox.cif.g09.slc.cpg/sg71_27_cif.got.tgz:53183.got - 2010.06.28 04:59:45.
