data_PCOD8287479
_publ_section_title
;
Structure prediction by ZEFSAII (Michael W. Deem and Ramdas Pophale) SiO2 
 PCOD8287479
Probable space group: I M M M
;
_chemical_formula_sum "Si O2"
_cell_formula_units_Z 88
_cell_length_a 17.875228
_cell_length_b 19.499481
_cell_length_c 13.989964
_cell_angle_alpha 90.000000
_cell_angle_beta 90.000000
_cell_angle_gamma 90.000000
_cell_volume 4876.309238
_symmetry_space_group_name_H-M "I M M M"
_symmetry_group_IT_number 71
_symmetry_cell_setting 'orthorhombic'
loop_
_space_group_symop_operation_xyz
x,y,z
-x,-y,z
x,-y,-z
-x,y,-z
-x,-y,-z
x,y,-z
-x,y,z
x,-y,z
1/2+x,1/2+y,1/2+z
1/2-x,1/2-y,1/2+z
1/2+x,1/2-y,1/2-z
1/2-x,1/2+y,1/2-z
1/2-x,1/2-y,1/2-z
1/2+x,1/2+y,1/2-z
1/2-x,1/2+y,1/2+z
1/2+x,1/2-y,1/2+z
loop_
_atom_site_type_symbol
_atom_site_label
_atom_site_fract_x
_atom_site_fract_y
_atom_site_fract_z
Si Si1 0.412710 0.500000 0.886880
Si Si2 0.917144 0.751738 0.218416
Si Si3 0.918815 0.344868 0.607798
Si Si4 0.164841 0.878840 0.275900
Si Si5 0.238954 0.621700 0.607164
Si Si6 0.725177 0.219072 0.608694
O O1 0.500000 0.500000 0.859059
O O2 0.372506 0.566254 0.844396
O O3 0.401616 0.500000 0.000000
O O4 0.913540 0.720242 0.323923
O O5 0.899592 0.832272 0.229226
O O6 0.859139 0.713701 0.148780
O O7 0.000000 0.743845 0.173757
O O8 0.912102 0.315501 0.500000
O O9 0.848991 0.396871 0.624838
O O10 0.000000 0.382297 0.622110
O O11 0.209699 0.914912 0.187166
O O12 0.222416 0.831838 0.333413
O O13 0.264145 0.599288 0.500000
O O14 0.245028 0.703827 0.620269
O O15 0.723940 0.194546 0.500000
#
# Coordination Sequence:
#
# PCOD8287479 Si02
#       6
#     8  16  16  16  16  16
#     4  11  26  42  55  73  98 135 183 223 249 284
#     4  10  18  29  47  74 104 132 163 202 258 316
#     4   9  15  23  40  72 107 130 151 188 245 309
#     4  11  19  35  51  72  99 140 176 215 255 295
#     4   9  16  29  50  77 103 128 164 208 261 319
#     4  10  18  29  47  72 101 133 168 209 259 312
#
# _framework density 18.046434999999999
#
# number of rings (size 3 to 8) (size 9 to 14) (size 15 to 20)
#    0.000    2.091    3.636    2.182    0.000    1.091 
#    0.000    2.273    0.000    2.182    0.000    2.545 
#    0.000    7.273    0.000    0.000    0.000    0.000 
#
# Total GULP energy -545288.657921 kJ/mol
# GULP energy per Si atom -12392.924044 kJ/mol
# Density = 1.800536 g / cm^3
# Si number density = 18.046435 Si / 1000 Ang^3
#
#
#
# Elastic Constant Matrix: (Units=GPa)
#
#
# Indices 1 2 3 4 5 6 
#
# 1 131.2398 16.0364 46.2905 0.0000 0.0000 0.0000
# 2 16.0364 33.8183 11.1111 0.0000 0.0000 0.0000
# 3 46.2905 11.1111 97.3968 0.0000 0.0000 0.0000
# 4 0.0000 0.0000 0.0000 12.9044 0.0000 0.0000
# 5 0.0000 0.0000 0.0000 0.0000 31.6200 0.0000
# 6 0.0000 0.0000 0.0000 0.0000 0.0000 8.2071
#
#
#
# Elastic Compliance Matrix: (Units=1/GPa)
#
#
# Indices 1 2 3 4 5 6 
#
# 1 0.009462 -0.003127 -0.004140 0.000000 0.000000 0.000000
# 2 -0.003127 0.031754 -0.002137 0.000000 0.000000 0.000000
# 3 -0.004140 -0.002137 0.012479 0.000000 0.000000 0.000000
# 4 0.000000 0.000000 0.000000 0.077493 0.000000 0.000000
# 5 0.000000 0.000000 0.000000 0.000000 0.031626 0.000000
# 6 0.000000 0.000000 0.000000 0.000000 0.000000 0.121846
#
#
# Mechanical properties :
#
#
# Convention : Reuss Voigt Hill
#
# Bulk Modulus (GPa) = 28.66298 45.48121 37.07209
# Shear Modulus (GPa) = 15.86814 23.14741 19.50778
#
# Velocity S-wave (km/s) = 2.96851 3.58531 3.29139
# Velocity P-wave (km/s) = 5.25992 6.51124 5.91874
#
# Compressibility (1/GPa) = 0.03488821
#
# Stress axis : x y z
#
# Youngs Moduli (GPa) = 105.68507 31.49175 80.13539
#
# Poissons Ratio (x) = 0.09846 0.33180
# Poissons Ratio (y) = 0.33042 0.17122
# Poissons Ratio (z) = 0.43758 0.06729
#
# Static dielectric constant tensor:
#      x y z
#    x 3.822040 0.000000 0.000000 
#    y 0.000000 2.761550 0.000000 
#    z 0.000000 0.000000 3.592960 
# 
# 
# High freq. dielectric constant tensor:
#      x y z
#    x 1.720110 0.000000 0.000000 
#    y 0.000000 1.635300 0.000000 
#    z 0.000000 0.000000 1.708440 
# 
# From -- ./inp_files/36349.got.cif
#   From: 2010.06.25/outbox.cif.g09.slc.cpg/sg71_19_cif.got.tgz:36349.got - 2010.06.28 04:59:45.
