data_PCOD8287614
_publ_section_title
;
Structure prediction by ZEFSAII (Michael W. Deem and Ramdas Pophale) SiO2 
 PCOD8287614
Probable space group: I M M M
;
_chemical_formula_sum "Si O2"
_cell_formula_units_Z 80
_cell_length_a 20.405888
_cell_length_b 9.229826
_cell_length_c 24.877203
_cell_angle_alpha 90.000000
_cell_angle_beta 90.000000
_cell_angle_gamma 90.000000
_cell_volume 4685.441960
_symmetry_space_group_name_H-M "I M M M"
_symmetry_group_IT_number 71
_symmetry_cell_setting 'orthorhombic'
loop_
_space_group_symop_operation_xyz
x,y,z
-x,-y,z
x,-y,-z
-x,y,-z
-x,-y,-z
x,y,-z
-x,y,z
x,-y,z
1/2+x,1/2+y,1/2+z
1/2-x,1/2-y,1/2+z
1/2+x,1/2-y,1/2-z
1/2-x,1/2+y,1/2-z
1/2-x,1/2-y,1/2-z
1/2+x,1/2+y,1/2-z
1/2-x,1/2+y,1/2+z
1/2+x,1/2-y,1/2+z
loop_
_atom_site_type_symbol
_atom_site_label
_atom_site_fract_x
_atom_site_fract_y
_atom_site_fract_z
Si Si1 0.573794 0.834780 0.293952
Si Si2 0.724015 0.337010 0.000000
Si Si3 0.692249 0.830989 0.780034
Si Si4 0.119957 0.335305 0.000000
Si Si5 0.226577 0.666823 0.603078
Si Si6 0.620232 0.331221 0.395391
O O1 0.500000 0.818381 0.271795
O O2 0.622606 0.789946 0.245980
O O3 0.582492 0.729140 0.344075
O O4 0.587991 0.000000 0.312399
O O5 0.801975 0.330202 0.000000
O O6 0.697588 0.258805 0.946376
O O7 0.697332 0.500000 0.000000
O O8 0.750000 0.750000 0.750000
O O9 0.689183 0.785497 0.842659
O O10 0.708521 0.000000 0.775529
O O11 0.093211 0.252619 0.052387
O O12 0.093876 0.500000 0.000000
O O13 0.214645 0.500000 0.588597
O O14 0.303030 0.697923 0.612684
O O15 0.604416 0.500000 0.402334
#
# Coordination Sequence:
#
# PCOD8287614 Si02
#       6
#    16   8  16   8  16  16
#     4  10  21  35  50  70  99 133 165 201 246 294
#     4   9  17  27  43  70  99 126 155 193 241 289
#     4  10  19  32  51  74  99 128 165 203 243 289
#     4   9  17  29  46  68  95 128 164 203 247 291
#     4   9  17  29  46  70  98 127 157 196 243 285
#     4  10  18  30  48  70  96 127 165 206 246 288
#
# _framework density 17.074164
#
# number of rings (size 3 to 8) (size 9 to 14) (size 15 to 20)
#    0.000    2.400    2.000    1.200    0.000    4.400 
#    0.000    0.500    0.000    3.000    0.000    0.700 
#    0.000    5.600    0.000    0.000    0.000    0.000 
#
# Total GULP energy -496031.391094 kJ/mol
# GULP energy per Si atom -12400.784777 kJ/mol
# Density = 1.703530 g / cm^3
# Si number density = 17.074164 Si / 1000 Ang^3
#
#
#
# Elastic Constant Matrix: (Units=GPa)
#
#
# Indices 1 2 3 4 5 6 
#
# 1 65.7082 37.6263 55.4981 0.0000 0.0000 0.0000
# 2 37.6263 92.4112 68.5627 0.0000 0.0000 0.0000
# 3 55.4981 68.5627 154.2467 0.0000 0.0000 0.0000
# 4 0.0000 0.0000 0.0000 30.1156 0.0000 0.0000
# 5 0.0000 0.0000 0.0000 0.0000 13.7953 0.0000
# 6 0.0000 0.0000 0.0000 0.0000 0.0000 13.7193
#
#
#
# Elastic Compliance Matrix: (Units=1/GPa)
#
#
# Indices 1 2 3 4 5 6 
#
# 1 0.023240 -0.004862 -0.006201 0.000000 0.000000 0.000000
# 2 -0.004862 0.017163 -0.005880 0.000000 0.000000 0.000000
# 3 -0.006201 -0.005880 0.011328 0.000000 0.000000 0.000000
# 4 0.000000 0.000000 0.000000 0.033205 0.000000 0.000000
# 5 0.000000 0.000000 0.000000 0.000000 0.072488 0.000000
# 6 0.000000 0.000000 0.000000 0.000000 0.000000 0.072890
#
#
# Mechanical properties :
#
#
# Convention : Reuss Voigt Hill
#
# Bulk Modulus (GPa) = 56.03434 70.63781 63.33608
# Shear Modulus (GPa) = 18.50835 21.57129 20.03982
#
# Velocity S-wave (km/s) = 3.29598 3.55827 3.42964
# Velocity P-wave (km/s) = 6.88289 7.63824 7.27038
#
# Compressibility (1/GPa) = 0.01784620
#
# Stress axis : x y z
#
# Youngs Moduli (GPa) = 43.02912 58.26447 88.27988
#
# Poissons Ratio (x) = 0.28328 0.54739
# Poissons Ratio (y) = 0.20921 0.51905
# Poissons Ratio (z) = 0.26681 0.34257
#
# Static dielectric constant tensor:
#      x y z
#    x 2.869290 0.000000 0.000000 
#    y 0.000000 3.270170 0.000000 
#    z 0.000000 0.000000 3.379260 
# 
# 
# High freq. dielectric constant tensor:
#      x y z
#    x 1.610830 0.000000 0.000000 
#    y 0.000000 1.665400 0.000000 
#    z 0.000000 0.000000 1.666250 
# 
# From -- ./inp_files/8409.got.cif
#   From: 2010.06.25/outbox.cif.g09.slc.cpg/sg71_5_cif.got.tgz:8409.got - 2010.06.28 04:59:45.
