data_PCOD8287942
_publ_section_title
;
Structure prediction by ZEFSAII (Michael W. Deem and Ramdas Pophale) SiO2 
 PCOD8287942
Probable space group: I M M M
;
_chemical_formula_sum "Si O2"
_cell_formula_units_Z 112
_cell_length_a 27.612629
_cell_length_b 15.463760
_cell_length_c 13.754151
_cell_angle_alpha 90.000000
_cell_angle_beta 90.000000
_cell_angle_gamma 90.000000
_cell_volume 5872.954639
_symmetry_space_group_name_H-M "I M M M"
_symmetry_group_IT_number 71
_symmetry_cell_setting 'orthorhombic'
loop_
_space_group_symop_operation_xyz
x,y,z
-x,-y,z
x,-y,-z
-x,y,-z
-x,-y,-z
x,y,-z
-x,y,z
x,-y,z
1/2+x,1/2+y,1/2+z
1/2-x,1/2-y,1/2+z
1/2+x,1/2-y,1/2-z
1/2-x,1/2+y,1/2-z
1/2-x,1/2-y,1/2-z
1/2+x,1/2+y,1/2-z
1/2-x,1/2+y,1/2+z
1/2+x,1/2-y,1/2+z
loop_
_atom_site_type_symbol
_atom_site_label
_atom_site_fract_x
_atom_site_fract_y
_atom_site_fract_z
Si Si1 0.382304 0.403288 0.889592
Si Si2 0.341608 0.095074 0.606146
Si Si3 0.314093 0.663743 0.732986
Si Si4 0.385394 0.098107 0.111543
Si Si5 0.708672 0.148519 0.790258
Si Si6 0.102738 0.763725 0.890259
Si Si7 0.055468 0.754017 0.697071
O O1 0.404459 0.500000 0.881033
O O2 0.337963 0.398429 0.813310
O O3 0.423449 0.333010 0.865286
O O4 0.364025 0.386554 0.000000
O O5 0.317102 0.101189 0.500000
O O6 0.299257 0.113986 0.681506
O O7 0.385586 0.162045 0.613640
O O8 0.364047 0.000000 0.625019
O O9 0.301301 0.749540 0.793895
O O10 0.264687 0.625607 0.685744
O O11 0.350383 0.681427 0.643391
O O12 0.328074 0.103018 0.135097
O O13 0.415132 0.165587 0.176998
O O14 0.403085 0.000000 0.132560
O O15 0.393837 0.122719 0.000000
O O16 0.059952 0.778018 0.811902
O O17 0.087555 0.792121 0.000000
O O18 0.000000 0.740179 0.668258
#
# Coordination Sequence:
#
# PCOD8287942 Si02
#       7
#    16  16  16  16  16  16  16
#     4  10  21  38  60  87 117 147 184 233 288 344
#     4   9  16  27  47  75 108 144 181 223 269 317
#     4   9  19  33  53  83 112 151 188 222 275 329
#     4  11  23  38  57  82 114 154 196 233 273 328
#     4  10  18  32  53  78 114 154 192 226 265 321
#     4   9  18  35  56  81 109 139 180 227 278 336
#     4  11  23  40  61  83 111 146 185 237 296 343
#
# _framework density 19.070468999999999
#
# number of rings (size 3 to 8) (size 9 to 14) (size 15 to 20)
#    0.000    2.143    4.286    0.857    0.000    4.286 
#    0.000    5.714    0.000    6.857    0.000    7.000 
#    0.000    0.000    0.000    0.000    0.000    0.000 
#
# Total GULP energy -694030.378317 kJ/mol
# GULP energy per Si atom -12393.399613 kJ/mol
# Density = 1.902706 g / cm^3
# Si number density = 19.070469 Si / 1000 Ang^3
#
#
#
# Elastic Constant Matrix: (Units=GPa)
#
#
# Indices 1 2 3 4 5 6 
#
# 1 98.0839 25.9437 24.1148 0.0000 0.0000 0.0000
# 2 25.9437 89.9996 36.0963 0.0000 0.0000 0.0000
# 3 24.1148 36.0963 111.1944 0.0000 0.0000 0.0000
# 4 0.0000 0.0000 0.0000 23.8450 0.0000 0.0000
# 5 0.0000 0.0000 0.0000 0.0000 12.1763 0.0000
# 6 0.0000 0.0000 0.0000 0.0000 0.0000 9.1974
#
#
#
# Elastic Compliance Matrix: (Units=1/GPa)
#
#
# Indices 1 2 3 4 5 6 
#
# 1 0.011279 -0.002610 -0.001599 0.000000 0.000000 0.000000
# 2 -0.002610 0.013378 -0.003777 0.000000 0.000000 0.000000
# 3 -0.001599 -0.003777 0.010566 0.000000 0.000000 0.000000
# 4 0.000000 0.000000 0.000000 0.041937 0.000000 0.000000
# 5 0.000000 0.000000 0.000000 0.000000 0.082127 0.000000
# 6 0.000000 0.000000 0.000000 0.000000 0.000000 0.108726
#
#
# Mechanical properties :
#
#
# Convention : Reuss Voigt Hill
#
# Bulk Modulus (GPa) = 51.94319 52.39861 52.17090
# Shear Modulus (GPa) = 17.21748 23.25196 20.23472
#
# Velocity S-wave (km/s) = 3.00798 3.49559 3.26091
# Velocity P-wave (km/s) = 6.27380 6.62028 6.44937
#
# Compressibility (1/GPa) = 0.01925180
#
# Stress axis : x y z
#
# Youngs Moduli (GPa) = 88.66197 74.74760 94.64287
#
# Poissons Ratio (x) = 0.19510 0.15131
# Poissons Ratio (y) = 0.23141 0.35745
# Poissons Ratio (z) = 0.14175 0.28231
#
# Static dielectric constant tensor:
#      x y z
#    x 3.227700 0.000000 0.000000 
#    y 0.000000 3.512920 0.000000 
#    z 0.000000 0.000000 3.648980 
# 
# 
# High freq. dielectric constant tensor:
#      x y z
#    x 1.705510 0.000000 0.000000 
#    y 0.000000 1.738820 0.000000 
#    z 0.000000 0.000000 1.746920 
# 
# From -- ./inp_files/40361.got.cif
#   From: 2010.06.25/outbox.cif.g09.slc.cpg/sg71_21_cif.got.tgz:40361.got - 2010.06.28 04:59:45.
