data_PCOD8287745
_publ_section_title
;
Structure prediction by ZEFSAII (Michael W. Deem and Ramdas Pophale) SiO2 
 PCOD8287745
Probable space group: I M M M
;
_chemical_formula_sum "Si O2"
_cell_formula_units_Z 72
_cell_length_a 17.706545
_cell_length_b 8.701245
_cell_length_c 23.284651
_cell_angle_alpha 90.000000
_cell_angle_beta 90.000000
_cell_angle_gamma 90.000000
_cell_volume 3587.442572
_symmetry_space_group_name_H-M "I M M M"
_symmetry_group_IT_number 71
_symmetry_cell_setting 'orthorhombic'
loop_
_space_group_symop_operation_xyz
x,y,z
-x,-y,z
x,-y,-z
-x,y,-z
-x,-y,-z
x,y,-z
-x,y,z
x,-y,z
1/2+x,1/2+y,1/2+z
1/2-x,1/2-y,1/2+z
1/2+x,1/2-y,1/2-z
1/2-x,1/2+y,1/2-z
1/2-x,1/2-y,1/2-z
1/2+x,1/2+y,1/2-z
1/2-x,1/2+y,1/2+z
1/2+x,1/2-y,1/2+z
loop_
_atom_site_type_symbol
_atom_site_label
_atom_site_fract_x
_atom_site_fract_y
_atom_site_fract_z
Si Si1 0.584450 0.678342 0.377829
Si Si2 0.500000 0.183035 0.934843
Si Si3 0.256863 0.837317 0.000000
Si Si4 0.888407 0.676488 0.000000
Si Si5 0.654042 0.828028 0.114601
Si Si6 0.274785 0.820999 0.309867
O O1 0.500000 0.702229 0.351306
O O2 0.605286 0.500000 0.382476
O O3 0.581235 0.746624 0.441973
O O4 0.647959 0.752430 0.336773
O O5 0.570454 0.238292 0.896074
O O6 0.500000 0.000000 0.940226
O O7 0.500000 0.252575 0.000000
O O8 0.201971 0.691573 0.000000
O O9 0.311077 0.836206 0.947219
O O10 0.210118 0.000000 0.000000
O O11 0.912871 0.500000 0.000000
O O12 0.702469 0.708227 0.150667
O O13 0.653626 0.000000 0.142772
O O14 0.250000 0.750000 0.250000
O O15 0.289342 0.000000 0.302576
#
# Coordination Sequence:
#
# PCOD8287745 Si02
#       6
#    16   8   8   8  16  16
#     4  11  24  43  67  95 128 164 204 255 315 374
#     4   9  16  30  57  95 129 161 201 244 293 360
#     4  10  18  30  57  88 123 166 206 248 305 372
#     4  12  23  35  59  96 134 167 204 249 304 377
#     4  10  19  35  61  91 124 163 206 254 308 365
#     4  12  26  45  67  89 119 162 213 262 311 370
#
# _framework density 20.070007
#
# number of rings (size 3 to 8) (size 9 to 14) (size 15 to 20)
#    0.000    1.222    3.333    4.000    0.000    3.111 
#    2.000    0.556    0.000    0.667    0.000    0.000 
#    0.000    0.000    0.000    0.000    0.000    0.000 
#
# Total GULP energy -446100.374097 kJ/mol
# GULP energy per Si atom -12391.677058 kJ/mol
# Density = 2.002433 g / cm^3
# Si number density = 20.070007 Si / 1000 Ang^3
#
#
#
# Elastic Constant Matrix: (Units=GPa)
#
#
# Indices 1 2 3 4 5 6 
#
# 1 168.4233 55.8759 59.1508 0.0000 0.0000 0.0000
# 2 55.8759 135.5490 54.4923 0.0000 0.0000 0.0000
# 3 59.1508 54.4923 122.5323 0.0000 0.0000 0.0000
# 4 0.0000 0.0000 0.0000 34.9538 0.0000 0.0000
# 5 0.0000 0.0000 0.0000 0.0000 0.8413 0.0000
# 6 0.0000 0.0000 0.0000 0.0000 0.0000 16.5337
#
#
#
# Elastic Compliance Matrix: (Units=1/GPa)
#
#
# Indices 1 2 3 4 5 6 
#
# 1 0.007575 -0.002012 -0.002762 0.000000 0.000000 0.000000
# 2 -0.002012 0.009518 -0.003261 0.000000 0.000000 0.000000
# 3 -0.002762 -0.003261 0.010945 0.000000 0.000000 0.000000
# 4 0.000000 0.000000 0.000000 0.028609 0.000000 0.000000
# 5 0.000000 0.000000 0.000000 0.000000 1.188574 0.000000
# 6 0.000000 0.000000 0.000000 0.000000 0.000000 0.060482
#
#
# Mechanical properties :
#
#
# Convention : Reuss Voigt Hill
#
# Bulk Modulus (GPa) = 83.56515 85.06027 84.31271
# Shear Modulus (GPa) = 3.77141 27.59815 15.68478
#
# Velocity S-wave (km/s) = 1.37230 3.71225 2.79857
# Velocity P-wave (km/s) = 6.65118 7.80052 7.24867
#
# Compressibility (1/GPa) = 0.01196671
#
# Stress axis : x y z
#
# Youngs Moduli (GPa) = 132.01380 105.06362 91.36786
#
# Poissons Ratio (x) = 0.21142 0.25234
# Poissons Ratio (y) = 0.26565 0.29799
# Poissons Ratio (z) = 0.36460 0.34266
#
# Static dielectric constant tensor:
#      x y z
#    x 4.387010 0.000000 0.000000 
#    y 0.000000 3.969080 0.000000 
#    z 0.000000 0.000000 3.917000 
# 
# 
# High freq. dielectric constant tensor:
#      x y z
#    x 1.802940 0.000000 0.000000 
#    y 0.000000 1.769640 0.000000 
#    z 0.000000 0.000000 1.772530 
# 
# From -- ./inp_files/60399.got.cif
#   From: 2010.06.25/outbox.cif.g09.slc.cpg/sg71_31_cif.got.tgz:60399.got - 2010.06.28 04:59:45.
