data_PCOD8287902
_publ_section_title
;
Structure prediction by ZEFSAII (Michael W. Deem and Ramdas Pophale) SiO2 
 PCOD8287902
Probable space group: I M M M
;
_chemical_formula_sum "Si O2"
_cell_formula_units_Z 84
_cell_length_a 15.338857
_cell_length_b 12.264789
_cell_length_c 27.310283
_cell_angle_alpha 90.000000
_cell_angle_beta 90.000000
_cell_angle_gamma 90.000000
_cell_volume 5137.824676
_symmetry_space_group_name_H-M "I M M M"
_symmetry_group_IT_number 71
_symmetry_cell_setting 'orthorhombic'
loop_
_space_group_symop_operation_xyz
x,y,z
-x,-y,z
x,-y,-z
-x,y,-z
-x,-y,-z
x,y,-z
-x,y,z
x,-y,z
1/2+x,1/2+y,1/2+z
1/2-x,1/2-y,1/2+z
1/2+x,1/2-y,1/2-z
1/2-x,1/2+y,1/2-z
1/2-x,1/2-y,1/2-z
1/2+x,1/2+y,1/2-z
1/2-x,1/2+y,1/2+z
1/2+x,1/2-y,1/2+z
loop_
_atom_site_type_symbol
_atom_site_label
_atom_site_fract_x
_atom_site_fract_y
_atom_site_fract_z
Si Si1 0.000000 0.786241 0.056904
Si Si2 0.096065 0.000000 0.221230
Si Si3 0.500000 0.500000 0.625289
Si Si4 0.399876 0.695174 0.785511
Si Si5 0.342836 0.124346 0.444509
Si Si6 0.403121 0.125593 0.288652
Si Si7 0.757935 0.874819 0.646507
O O1 0.000000 0.892740 0.091429
O O2 0.082964 0.711149 0.068330
O O3 0.000000 0.823706 0.000000
O O4 0.138122 0.109435 0.244477
O O5 0.086417 0.000000 0.161314
O O6 0.000000 0.000000 0.244171
O O7 0.500000 0.674393 0.800809
O O8 0.387610 0.813596 0.762390
O O9 0.340414 0.692840 0.834079
O O10 0.311262 0.137442 0.500000
O O11 0.257635 0.146838 0.411099
O O12 0.377424 0.000000 0.434742
O O13 0.500000 0.154567 0.309489
O O14 0.332539 0.162114 0.328359
O O15 0.394807 0.000000 0.275392
O O16 0.779061 0.000000 0.657821
#
# Coordination Sequence:
#
# PCOD8287902 Si02
#       7
#     8   8   4  16  16  16  16
#     4  10  20  34  51  69  98 132 168 202 240 291
#     4   8  18  29  44  66  90 125 153 192 227 275
#     4  10  21  32  48  72  98 136 167 196 238 284
#     4  10  18  32  49  66  96 126 160 196 236 285
#     4   9  19  33  50  72  94 121 159 207 250 285
#     4   9  19  31  44  67  97 126 155 195 234 278
#     4  10  19  29  48  71  92 125 159 195 238 290
#
# _framework density 16.349332
#
# number of rings (size 3 to 8) (size 9 to 14) (size 15 to 20)
#    0.286    2.286    0.952    1.000    4.000    1.143 
#    0.000    0.000    0.000    0.571    0.000    2.667 
#    0.000    0.000    0.000    4.762    0.000    0.000 
#
# Total GULP energy -520392.893222 kJ/mol
# GULP energy per Si atom -12390.306981 kJ/mol
# Density = 1.631212 g / cm^3
# Si number density = 16.349332 Si / 1000 Ang^3
#
#
#
# Elastic Constant Matrix: (Units=GPa)
#
#
# Indices 1 2 3 4 5 6 
#
# 1 74.9316 32.4062 53.3264 0.0000 0.0000 0.0000
# 2 32.4062 62.0290 43.7542 0.0000 0.0000 0.0000
# 3 53.3264 43.7542 103.2417 0.0000 0.0000 0.0000
# 4 0.0000 0.0000 0.0000 20.3283 0.0000 0.0000
# 5 0.0000 0.0000 0.0000 0.0000 27.8293 0.0000
# 6 0.0000 0.0000 0.0000 0.0000 0.0000 18.2186
#
#
#
# Elastic Compliance Matrix: (Units=1/GPa)
#
#
# Indices 1 2 3 4 5 6 
#
# 1 0.022136 -0.004992 -0.009318 0.000000 0.000000 0.000000
# 2 -0.004992 0.024122 -0.007645 0.000000 0.000000 0.000000
# 3 -0.009318 -0.007645 0.017739 0.000000 0.000000 0.000000
# 4 0.000000 0.000000 0.000000 0.049192 0.000000 0.000000
# 5 0.000000 0.000000 0.000000 0.000000 0.035933 0.000000
# 6 0.000000 0.000000 0.000000 0.000000 0.000000 0.054889
#
#
# Mechanical properties :
#
#
# Convention : Reuss Voigt Hill
#
# Bulk Modulus (GPa) = 49.78206 55.46396 52.62301
# Shear Modulus (GPa) = 19.63749 20.65628 20.14688
#
# Velocity S-wave (km/s) = 3.46948 3.55834 3.51419
# Velocity P-wave (km/s) = 6.82384 7.13304 6.98015
#
# Compressibility (1/GPa) = 0.02008756
#
# Stress axis : x y z
#
# Youngs Moduli (GPa) = 45.17612 41.45654 56.37385
#
# Poissons Ratio (x) = 0.20694 0.52529
# Poissons Ratio (y) = 0.22550 0.43095
# Poissons Ratio (z) = 0.42095 0.31692
#
# Static dielectric constant tensor:
#      x y z
#    x 2.913650 0.000000 0.000000 
#    y 0.000000 3.092050 0.000000 
#    z 0.000000 0.000000 3.021400 
# 
# 
# High freq. dielectric constant tensor:
#      x y z
#    x 1.602850 0.000000 0.000000 
#    y 0.000000 1.626760 0.000000 
#    z 0.000000 0.000000 1.614890 
# 
# From -- ./inp_files/69861.got.cif
#   From: 2010.06.25/outbox.cif.g09.slc.cpg/sg71_35_cif.got.tgz:69861.got - 2010.06.28 04:59:45.
