data_PCOD8287308
_publ_section_title
;
Structure prediction by ZEFSAII (Michael W. Deem and Ramdas Pophale) SiO2 
 PCOD8287308
Probable space group: I M M M
;
_chemical_formula_sum "Si O2"
_cell_formula_units_Z 120
_cell_length_a 24.339373
_cell_length_b 21.934835
_cell_length_c 13.592572
_cell_angle_alpha 90.000000
_cell_angle_beta 90.000000
_cell_angle_gamma 90.000000
_cell_volume 7256.804117
_symmetry_space_group_name_H-M "I M M M"
_symmetry_group_IT_number 71
_symmetry_cell_setting 'orthorhombic'
loop_
_space_group_symop_operation_xyz
x,y,z
-x,-y,z
x,-y,-z
-x,y,-z
-x,-y,-z
x,y,-z
-x,y,z
x,-y,z
1/2+x,1/2+y,1/2+z
1/2-x,1/2-y,1/2+z
1/2+x,1/2-y,1/2-z
1/2-x,1/2+y,1/2-z
1/2-x,1/2-y,1/2-z
1/2+x,1/2+y,1/2-z
1/2-x,1/2+y,1/2+z
1/2+x,1/2-y,1/2+z
loop_
_atom_site_type_symbol
_atom_site_label
_atom_site_fract_x
_atom_site_fract_y
_atom_site_fract_z
Si Si1 0.940817 0.215971 0.383261
Si Si2 0.561763 0.500000 0.116837
Si Si3 0.865118 0.888604 0.383093
Si Si4 0.664653 0.929938 0.614138
Si Si5 0.742615 0.345523 0.805465
Si Si6 0.230300 0.287419 0.611156
Si Si7 0.937554 0.429788 0.236923
Si Si8 0.608603 0.161980 0.887671
O O1 0.938799 0.210422 0.500000
O O2 0.892685 0.173321 0.342593
O O3 0.933090 0.285673 0.351522
O O4 0.000000 0.193494 0.343757
O O5 0.500000 0.500000 0.161249
O O6 0.595497 0.442033 0.154725
O O7 0.557629 0.500000 0.000000
O O8 0.857359 0.891183 0.500000
O O9 0.805649 0.892721 0.332959
O O10 0.672880 0.915418 0.500000
O O11 0.700810 0.881909 0.676205
O O12 0.600090 0.920316 0.640035
O O13 0.681905 0.000000 0.638181
O O14 0.735460 0.326076 0.691189
O O15 0.738037 0.284934 0.872509
O O16 0.250173 0.302494 0.500000
O O17 0.168066 0.308410 0.626710
O O18 0.940261 0.500000 0.267505
O O19 0.904965 0.397148 0.324812
O O20 0.000000 0.405365 0.218928
O O21 0.598837 0.142971 0.000000
#
# Coordination Sequence:
#
# PCOD8287308 Si02
#       8
#    16   8  16  16  16  16  16  16
#     4   9  16  26  42  64  93 126 159 196 236 286
#     4   9  18  30  44  68 107 145 166 190 238 295
#     4  10  18  28  44  70 100 133 168 198 237 288
#     4  10  21  35  52  74  99 130 167 210 256 297
#     4  11  20  33  53  75 102 131 168 207 246 297
#     4  10  20  34  52  74 102 134 164 201 252 304
#     4  10  21  36  51  70  96 127 168 210 251 304
#     4  10  18  32  49  70  98 126 163 205 250 298
#
# _framework density 16.536204999999999
#
# number of rings (size 3 to 8) (size 9 to 14) (size 15 to 20)
#    0.000    2.067    2.667    2.000    0.933    2.933 
#    0.000    2.000    0.000    0.400    0.000    0.000 
#    0.000    2.667    0.000    0.000    0.000    0.000 
#
# Total GULP energy -743636.251628 kJ/mol
# GULP energy per Si atom -12393.937527 kJ/mol
# Density = 1.649857 g / cm^3
# Si number density = 16.536205 Si / 1000 Ang^3
#
#
#
# Elastic Constant Matrix: (Units=GPa)
#
#
# Indices 1 2 3 4 5 6 
#
# 1 95.4419 40.4268 27.8082 0.0000 0.0000 0.0000
# 2 40.4268 70.4396 33.0380 0.0000 0.0000 0.0000
# 3 27.8082 33.0380 70.9589 0.0000 0.0000 0.0000
# 4 0.0000 0.0000 0.0000 18.7430 0.0000 0.0000
# 5 0.0000 0.0000 0.0000 0.0000 19.9208 0.0000
# 6 0.0000 0.0000 0.0000 0.0000 0.0000 28.3855
#
#
#
# Elastic Compliance Matrix: (Units=1/GPa)
#
#
# Indices 1 2 3 4 5 6 
#
# 1 0.014119 -0.007047 -0.002252 0.000000 0.000000 0.000000
# 2 -0.007047 0.021680 -0.007332 0.000000 0.000000 0.000000
# 3 -0.002252 -0.007332 0.018389 0.000000 0.000000 0.000000
# 4 0.000000 0.000000 0.000000 0.053353 0.000000 0.000000
# 5 0.000000 0.000000 0.000000 0.000000 0.050199 0.000000
# 6 0.000000 0.000000 0.000000 0.000000 0.000000 0.035229
#
#
# Mechanical properties :
#
#
# Convention : Reuss Voigt Hill
#
# Bulk Modulus (GPa) = 47.78925 48.82071 48.30498
# Shear Modulus (GPa) = 21.44025 22.44771 21.94398
#
# Velocity S-wave (km/s) = 3.60469 3.68841 3.64679
# Velocity P-wave (km/s) = 6.80350 6.90846 6.85618
#
# Compressibility (1/GPa) = 0.02092521
#
# Stress axis : x y z
#
# Youngs Moduli (GPa) = 70.82899 46.12571 54.37981
#
# Poissons Ratio (x) = 0.32503 0.12247
# Poissons Ratio (y) = 0.49911 0.39874
# Poissons Ratio (z) = 0.15951 0.33822
#
# Static dielectric constant tensor:
#      x y z
#    x 3.249630 0.000000 0.000000 
#    y 0.000000 3.182210 0.000000 
#    z 0.000000 0.000000 2.877750 
# 
# 
# High freq. dielectric constant tensor:
#      x y z
#    x 1.645740 0.000000 0.000000 
#    y 0.000000 1.639760 0.000000 
#    z 0.000000 0.000000 1.595100 
# 
# From -- ./inp_files/39653.got.cif
#   From: 2010.06.25/outbox.cif.g09.slc.cpg/sg71_20_cif.got.tgz:39653.got - 2010.06.28 04:59:45.
