data_PCOD8287422
_publ_section_title
;
Structure prediction by ZEFSAII (Michael W. Deem and Ramdas Pophale) SiO2 
 PCOD8287422
Probable space group: I M M M
;
_chemical_formula_sum "Si O2"
_cell_formula_units_Z 96
_cell_length_a 25.828224
_cell_length_b 23.754366
_cell_length_c 8.840715
_cell_angle_alpha 90.000000
_cell_angle_beta 90.000000
_cell_angle_gamma 90.000000
_cell_volume 5424.071157
_symmetry_space_group_name_H-M "I M M M"
_symmetry_group_IT_number 71
_symmetry_cell_setting 'orthorhombic'
loop_
_space_group_symop_operation_xyz
x,y,z
-x,-y,z
x,-y,-z
-x,y,-z
-x,-y,-z
x,y,-z
-x,y,z
x,-y,z
1/2+x,1/2+y,1/2+z
1/2-x,1/2-y,1/2+z
1/2+x,1/2-y,1/2-z
1/2-x,1/2+y,1/2-z
1/2-x,1/2-y,1/2-z
1/2+x,1/2+y,1/2-z
1/2-x,1/2+y,1/2+z
1/2+x,1/2-y,1/2+z
loop_
_atom_site_type_symbol
_atom_site_label
_atom_site_fract_x
_atom_site_fract_y
_atom_site_fract_z
Si Si1 0.192668 0.437016 0.179803
Si Si2 0.000000 0.436979 0.820265
Si Si3 0.000000 0.936962 0.319540
Si Si4 0.440496 0.753662 0.179396
Si Si5 0.807613 0.936682 0.320060
Si Si6 0.096749 0.866749 0.680118
Si Si7 0.402786 0.134561 0.320124
O O1 0.179734 0.500000 0.238972
O O2 0.250087 0.418951 0.235597
O O3 0.150417 0.392950 0.241672
O O4 0.190618 0.437646 0.000000
O O5 0.050410 0.404326 0.761063
O O6 0.000000 0.500000 0.752629
O O7 0.000000 0.439765 0.000000
O O8 0.949467 0.905403 0.257065
O O9 0.000000 0.936947 0.500000
O O10 0.000000 0.000000 0.255080
O O11 0.500000 0.754646 0.236433
O O12 0.412460 0.696802 0.236731
O O13 0.407786 0.803851 0.250923
O O14 0.438952 0.758335 0.000000
O O15 0.809445 0.936434 0.500000
O O16 0.849277 0.891991 0.255369
O O17 0.820743 0.000000 0.263127
O O18 0.096571 0.868048 0.500000
O O19 0.403448 0.139353 0.500000
#
# Coordination Sequence:
#
# PCOD8287422 Si02
#       7
#    16   8   8  16  16  16  16
#     4   8  14  25  42  64  87 109 135 175 226 267
#     4   9  16  25  41  65  85 101 130 177 224 258
#     4   9  14  19  32  56  83 109 140 179 216 252
#     4  10  19  31  44  59  87 124 151 174 211 258
#     4   8  13  22  38  61  88 114 139 173 220 266
#     4   9  15  24  37  56  84 118 149 173 209 259
#     4  10  18  29  46  66  86 110 146 184 215 255
#
# _framework density 17.698884
#
# number of rings (size 3 to 8) (size 9 to 14) (size 15 to 20)
#    0.000    3.000    1.667    2.000    0.000    4.000 
#    0.000    0.833    0.000    2.500    0.000    0.000 
#    0.000    4.667    0.000    0.000    0.000    0.000 
#
# Total GULP energy -594940.186308 kJ/mol
# GULP energy per Si atom -12394.587215 kJ/mol
# Density = 1.765860 g / cm^3
# Si number density = 17.698884 Si / 1000 Ang^3
#
#
#
# Elastic Constant Matrix: (Units=GPa)
#
#
# Indices 1 2 3 4 5 6 
#
# 1 173.5194 107.8866 10.9016 0.0000 0.0000 0.0000
# 2 107.8866 177.3680 12.8536 0.0000 0.0000 0.0000
# 3 10.9016 12.8536 5.1661 0.0000 0.0000 0.0000
# 4 0.0000 0.0000 0.0000 19.6443 0.0000 0.0000
# 5 0.0000 0.0000 0.0000 0.0000 6.6192 0.0000
# 6 0.0000 0.0000 0.0000 0.0000 0.0000 34.1247
#
#
#
# Elastic Compliance Matrix: (Units=1/GPa)
#
#
# Indices 1 2 3 4 5 6 
#
# 1 0.009465 -0.005258 -0.006892 0.000000 0.000000 0.000000
# 2 -0.005258 0.009799 -0.013285 0.000000 0.000000 0.000000
# 3 -0.006892 -0.013285 0.241168 0.000000 0.000000 0.000000
# 4 0.000000 0.000000 0.000000 0.050905 0.000000 0.000000
# 5 0.000000 0.000000 0.000000 0.000000 0.151075 0.000000
# 6 0.000000 0.000000 0.000000 0.000000 0.000000 0.029304
#
#
# Mechanical properties :
#
#
# Convention : Reuss Voigt Hill
#
# Bulk Modulus (GPa) = 4.77184 68.81522 36.79353
# Shear Modulus (GPa) = 8.16406 27.03842 17.60124
#
# Velocity S-wave (km/s) = 2.15006 3.91281 3.15696
# Velocity P-wave (km/s) = 2.97753 7.70577 5.84143
#
# Compressibility (1/GPa) = 0.20956276
#
# Stress axis : x y z
#
# Youngs Moduli (GPa) = 105.65105 102.05196 4.14649
#
# Poissons Ratio (x) = 0.53658 0.02858
# Poissons Ratio (y) = 0.55550 0.05509
# Poissons Ratio (z) = 0.72810 1.35578
#
# Static dielectric constant tensor:
#      x y z
#    x 3.648800 0.000000 0.000000 
#    y 0.000000 3.453790 0.000000 
#    z 0.000000 0.000000 2.555170 
# 
# 
# High freq. dielectric constant tensor:
#      x y z
#    x 1.693470 0.000000 0.000000 
#    y 0.000000 1.689780 0.000000 
#    z 0.000000 0.000000 1.607970 
# 
# From -- ./inp_files/27585.got.cif
#   From: 2010.06.25/outbox.cif.g09.slc.cpg/sg71_14_cif.got.tgz:27585.got - 2010.06.28 04:59:45.
