data_PCOD8287283
_publ_section_title
;
Structure prediction by ZEFSAII (Michael W. Deem and Ramdas Pophale) SiO2 
 PCOD8287283
Probable space group: I M M M
;
_chemical_formula_sum "Si O2"
_cell_formula_units_Z 88
_cell_length_a 18.656576
_cell_length_b 23.936443
_cell_length_c 12.421690
_cell_angle_alpha 90.000000
_cell_angle_beta 90.000000
_cell_angle_gamma 90.000000
_cell_volume 5547.179791
_symmetry_space_group_name_H-M "I M M M"
_symmetry_group_IT_number 71
_symmetry_cell_setting 'orthorhombic'
loop_
_space_group_symop_operation_xyz
x,y,z
-x,-y,z
x,-y,-z
-x,y,-z
-x,-y,-z
x,y,-z
-x,y,z
x,-y,z
1/2+x,1/2+y,1/2+z
1/2-x,1/2-y,1/2+z
1/2+x,1/2-y,1/2-z
1/2-x,1/2+y,1/2-z
1/2-x,1/2-y,1/2-z
1/2+x,1/2+y,1/2-z
1/2-x,1/2+y,1/2+z
1/2+x,1/2-y,1/2+z
loop_
_atom_site_type_symbol
_atom_site_label
_atom_site_fract_x
_atom_site_fract_y
_atom_site_fract_z
Si Si1 0.712197 0.838910 0.246791
Si Si2 0.172415 0.895834 0.122148
Si Si3 0.820445 0.769010 0.624598
Si Si4 0.919328 0.000000 0.872004
Si Si5 0.418540 0.706422 0.687692
Si Si6 0.080481 0.668591 0.121972
O O1 0.756735 0.890552 0.196816
O O2 0.754356 0.808772 0.343866
O O3 0.699305 0.795045 0.150360
O O4 0.637323 0.860965 0.297674
O O5 0.128133 0.838434 0.123515
O O6 0.123257 0.945484 0.169191
O O7 0.195895 0.909024 0.000000
O O8 0.838067 0.775660 0.500000
O O9 0.890986 0.787413 0.690105
O O10 0.000000 0.000000 0.823455
O O11 0.924311 0.000000 0.000000
O O12 0.500000 0.685765 0.689887
O O13 0.409402 0.764659 0.625780
O O14 0.000000 0.652560 0.159820
O O15 0.093384 0.648349 0.000000
#
# Coordination Sequence:
#
# PCOD8287283 Si02
#       6
#    16  16  16   8  16  16
#     4   9  17  26  39  59  82 108 141 169 201 251
#     4  10  18  28  43  61  83 111 139 171 209 244
#     4   9  16  25  37  55  82 112 140 174 205 235
#     4   9  18  30  44  64  86 107 136 174 210 239
#     4   9  17  26  38  59  84 114 147 170 199 245
#     4   9  16  26  41  62  88 113 136 167 203 241
#
# _framework density 15.863917000000001
#
# number of rings (size 3 to 8) (size 9 to 14) (size 15 to 20)
#    0.000    2.818    0.000    3.273    0.000    2.182 
#    0.000    0.000    0.000    1.636    0.000   16.545 
#    0.000   27.636    0.000    0.000    0.000    0.000 
#
# Total GULP energy -545511.686353 kJ/mol
# GULP energy per Si atom -12397.992872 kJ/mol
# Density = 1.582781 g / cm^3
# Si number density = 15.863917 Si / 1000 Ang^3
#
#
#
# Elastic Constant Matrix: (Units=GPa)
#
#
# Indices 1 2 3 4 5 6 
#
# 1 126.7471 31.0483 38.7420 0.0000 0.0000 0.0000
# 2 31.0483 44.6952 13.2644 0.0000 0.0000 0.0000
# 3 38.7420 13.2644 79.5423 0.0000 0.0000 0.0000
# 4 0.0000 0.0000 0.0000 12.3085 0.0000 0.0000
# 5 0.0000 0.0000 0.0000 0.0000 24.1066 0.0000
# 6 0.0000 0.0000 0.0000 0.0000 0.0000 23.7223
#
#
#
# Elastic Compliance Matrix: (Units=1/GPa)
#
#
# Indices 1 2 3 4 5 6 
#
# 1 0.010678 -0.006180 -0.004170 0.000000 0.000000 0.000000
# 2 -0.006180 0.027116 -0.001512 0.000000 0.000000 0.000000
# 3 -0.004170 -0.001512 0.014855 0.000000 0.000000 0.000000
# 4 0.000000 0.000000 0.000000 0.081244 0.000000 0.000000
# 5 0.000000 0.000000 0.000000 0.000000 0.041483 0.000000
# 6 0.000000 0.000000 0.000000 0.000000 0.000000 0.042154
#
#
# Mechanical properties :
#
#
# Convention : Reuss Voigt Hill
#
# Bulk Modulus (GPa) = 34.57257 46.34378 40.45818
# Shear Modulus (GPa) = 19.92853 23.22282 21.57567
#
# Velocity S-wave (km/s) = 3.54816 3.83021 3.69188
# Velocity P-wave (km/s) = 6.21502 6.98838 6.61301
#
# Compressibility (1/GPa) = 0.02892466
#
# Stress axis : x y z
#
# Youngs Moduli (GPa) = 93.64696 36.87919 67.31621
#
# Poissons Ratio (x) = 0.22792 0.28074
# Poissons Ratio (y) = 0.57876 0.10176
# Poissons Ratio (z) = 0.39055 0.05575
#
# Static dielectric constant tensor:
#      x y z
#    x 3.298560 0.000000 0.000000 
#    y 0.000000 2.655480 0.000000 
#    z 0.000000 0.000000 2.790720 
# 
# 
# High freq. dielectric constant tensor:
#      x y z
#    x 1.620320 0.000000 0.000000 
#    y 0.000000 1.557250 0.000000 
#    z 0.000000 0.000000 1.593430 
# 
# From -- ./inp_files/23942.got.cif
#   From: 2010.06.25/outbox.cif.g09.slc.cpg/sg71_12_cif.got.tgz:23942.got - 2010.06.28 04:59:45.
