data_PCOD8287050
_publ_section_title
;
Structure prediction by ZEFSAII (Michael W. Deem and Ramdas Pophale) SiO2 
 PCOD8287050
Probable space group: I M M M
;
_chemical_formula_sum "Si O2"
_cell_formula_units_Z 128
_cell_length_a 16.139786
_cell_length_b 25.471007
_cell_length_c 17.987344
_cell_angle_alpha 90.000000
_cell_angle_beta 90.000000
_cell_angle_gamma 90.000000
_cell_volume 7394.536001
_symmetry_space_group_name_H-M "I M M M"
_symmetry_group_IT_number 71
_symmetry_cell_setting 'orthorhombic'
loop_
_space_group_symop_operation_xyz
x,y,z
-x,-y,z
x,-y,-z
-x,y,-z
-x,-y,-z
x,y,-z
-x,y,z
x,-y,z
1/2+x,1/2+y,1/2+z
1/2-x,1/2-y,1/2+z
1/2+x,1/2-y,1/2-z
1/2-x,1/2+y,1/2-z
1/2-x,1/2-y,1/2-z
1/2+x,1/2+y,1/2-z
1/2-x,1/2+y,1/2+z
1/2+x,1/2-y,1/2+z
loop_
_atom_site_type_symbol
_atom_site_label
_atom_site_fract_x
_atom_site_fract_y
_atom_site_fract_z
Si Si1 0.407753 0.314204 0.233404
Si Si2 0.264100 0.937914 0.657910
Si Si3 0.340110 0.221503 0.678800
Si Si4 0.407975 0.437760 0.915724
Si Si5 0.263777 0.802675 0.916775
Si Si6 0.246919 0.139665 0.221888
Si Si7 0.593912 0.127193 0.585757
Si Si8 0.593218 0.726938 0.919648
O O1 0.500000 0.334417 0.244053
O O2 0.399187 0.256177 0.268974
O O3 0.352696 0.357914 0.273993
O O4 0.381841 0.313039 0.145735
O O5 0.172585 0.918515 0.630946
O O6 0.279561 0.913832 0.740668
O O7 0.337728 0.917042 0.605313
O O8 0.271114 0.000000 0.662216
O O9 0.295166 0.258617 0.619008
O O10 0.275515 0.191719 0.732652
O O11 0.394261 0.179265 0.634463
O O12 0.500000 0.417554 0.886831
O O13 0.408723 0.500000 0.913012
O O14 0.395767 0.418317 0.000000
O O15 0.270026 0.855047 0.865163
O O16 0.355641 0.780292 0.919755
O O17 0.232436 0.817362 0.000000
O O18 0.606141 0.142365 0.500000
O O19 0.500000 0.105934 0.599796
O O20 0.500000 0.745916 0.906024
O O21 0.604009 0.698070 0.000000
#
# Coordination Sequence:
#
# PCOD8287050 Si02
#       8
#    16  16  16  16  16  16  16  16
#     4  10  17  28  46  67  97 129 152 186 232 280
#     4  10  21  35  51  67  91 127 163 207 253 284
#     4  10  17  31  45  71  96 130 155 192 226 288
#     4   8  14  27  48  71  91 112 143 184 233 291
#     4  10  17  29  49  69  94 127 156 191 236 285
#     4  10  19  32  45  68  94 119 162 197 229 284
#     4  10  21  34  49  70  96 128 168 208 241 280
#     4   9  16  25  40  66  97 126 154 182 220 276
#
# _framework density 17.310078000000001
#
# number of rings (size 3 to 8) (size 9 to 14) (size 15 to 20)
#    0.000    2.375    2.500    2.250    0.000    1.500 
#    0.000    1.250    0.000    5.250    0.000    0.000 
#    0.000    0.000    0.000   14.000    0.000    0.000 
#
# Total GULP energy -792986.935550 kJ/mol
# GULP energy per Si atom -12390.420868 kJ/mol
# Density = 1.727068 g / cm^3
# Si number density = 17.310078 Si / 1000 Ang^3
#
#
#
# Elastic Constant Matrix: (Units=GPa)
#
#
# Indices 1 2 3 4 5 6 
#
# 1 77.8728 12.7672 29.4846 0.0000 0.0000 0.0000
# 2 12.7672 45.4644 19.1881 -0.0002 0.0000 0.0000
# 3 29.4846 19.1881 106.3468 -0.0003 0.0000 0.0000
# 4 0.0000 -0.0002 -0.0003 16.5973 0.0000 0.0000
# 5 0.0000 0.0000 0.0000 0.0000 19.6610 0.0000
# 6 0.0000 0.0000 0.0000 0.0000 0.0000 15.2008
#
#
#
# Elastic Compliance Matrix: (Units=1/GPa)
#
#
# Indices 1 2 3 4 5 6 
#
# 1 0.014625 -0.002593 -0.003587 0.000000 0.000000 0.000000
# 2 -0.002593 0.024268 -0.003660 0.000000 0.000000 0.000000
# 3 -0.003587 -0.003660 0.011058 0.000000 0.000000 0.000000
# 4 0.000000 0.000000 0.000000 0.060251 0.000000 0.000000
# 5 0.000000 0.000000 0.000000 0.000000 0.050862 0.000000
# 6 0.000000 0.000000 0.000000 0.000000 0.000000 0.065786
#
#
# Mechanical properties :
#
#
# Convention : Reuss Voigt Hill
#
# Bulk Modulus (GPa) = 33.03451 39.17376 36.10413
# Shear Modulus (GPa) = 19.48412 21.50809 20.49610
#
# Velocity S-wave (km/s) = 3.35863 3.52876 3.44474
# Velocity P-wave (km/s) = 5.84516 6.26758 6.06005
#
# Compressibility (1/GPa) = 0.03027138
#
# Stress axis : x y z
#
# Youngs Moduli (GPa) = 68.37769 41.20658 90.43256
#
# Poissons Ratio (x) = 0.10685 0.32437
# Poissons Ratio (y) = 0.17731 0.33096
# Poissons Ratio (z) = 0.24526 0.15080
#
# Static dielectric constant tensor:
#      x y z
#    x 3.434120 0.000000 0.000000 
#    y 0.000000 2.848280 0.000000 
#    z 0.000000 0.000000 3.469790 
# 
# 
# High freq. dielectric constant tensor:
#      x y z
#    x 1.678910 0.000000 0.000000 
#    y 0.000000 1.626560 0.000000 
#    z 0.000000 0.000000 1.663740 
# 
# From -- ./inp_files/46638.got.cif
#   From: 2010.06.25/outbox.cif.g09.slc.cpg/sg71_24_cif.got.tgz:46638.got - 2010.06.28 04:59:45.
