data_PCOD8287215
_publ_section_title
;
Structure prediction by ZEFSAII (Michael W. Deem and Ramdas Pophale) SiO2 
 PCOD8287215
Probable space group: I M M M
;
_chemical_formula_sum "Si O2"
_cell_formula_units_Z 112
_cell_length_a 30.494390
_cell_length_b 14.205294
_cell_length_c 16.945632
_cell_angle_alpha 90.000000
_cell_angle_beta 90.000000
_cell_angle_gamma 90.000000
_cell_volume 7340.538953
_symmetry_space_group_name_H-M "I M M M"
_symmetry_group_IT_number 71
_symmetry_cell_setting 'orthorhombic'
loop_
_space_group_symop_operation_xyz
x,y,z
-x,-y,z
x,-y,-z
-x,y,-z
-x,-y,-z
x,y,-z
-x,y,z
x,-y,z
1/2+x,1/2+y,1/2+z
1/2-x,1/2-y,1/2+z
1/2+x,1/2-y,1/2-z
1/2-x,1/2+y,1/2-z
1/2-x,1/2-y,1/2-z
1/2+x,1/2+y,1/2-z
1/2-x,1/2+y,1/2+z
1/2+x,1/2-y,1/2+z
loop_
_atom_site_type_symbol
_atom_site_label
_atom_site_fract_x
_atom_site_fract_y
_atom_site_fract_z
Si Si1 0.709492 0.394562 0.405882
Si Si2 0.128935 0.229226 0.093847
Si Si3 0.804978 0.611948 0.587930
Si Si4 0.450446 0.112445 0.000000
Si Si5 0.000000 0.611141 0.911820
Si Si6 0.895702 0.611227 0.352009
Si Si7 0.048519 0.894636 0.906638
Si Si8 0.087781 0.610706 0.175808
O O1 0.709478 0.398280 0.500000
O O2 0.699729 0.500000 0.373493
O O3 0.672391 0.323383 0.375050
O O4 0.757444 0.357208 0.377095
O O5 0.086692 0.172136 0.126398
O O6 0.127098 0.332816 0.133018
O O7 0.129054 0.239710 0.000000
O O8 0.811702 0.652986 0.500000
O O9 0.804894 0.500000 0.583621
O O10 0.845555 0.649300 0.640747
O O11 0.426118 0.152341 0.921913
O O12 0.500000 0.151116 0.000000
O O13 0.450242 0.000000 0.000000
O O14 0.042814 0.643915 0.865034
O O15 0.000000 0.500000 0.919342
O O16 0.000000 0.656542 0.000000
O O17 0.895078 0.500000 0.361159
O O18 0.915189 0.639985 0.267460
O O19 0.000000 0.855610 0.883153
O O20 0.054745 0.000000 0.872213
O O21 0.052952 0.899798 0.000000
O O22 0.097151 0.500000 0.165263
#
# Coordination Sequence:
#
# PCOD8287215 Si02
#       8
#    16  16  16   8   8  16  16  16
#     4   8  14  24  41  64  84 102 129 168 211 255
#     4  10  18  27  40  56  78 108 145 178 206 235
#     4   8  12  22  41  62  81 102 128 159 204 264
#     4   9  16  24  40  62  82 104 131 161 204 262
#     4   9  18  32  44  51  66 104 154 187 199 212
#     4   9  16  27  41  59  82 106 133 167 209 253
#     4   8  14  24  38  56  76  97 124 162 210 259
#     4  10  21  31  40  55  79 110 147 185 208 225
#
# _framework density 15.257733999999999
#
# number of rings (size 3 to 8) (size 9 to 14) (size 15 to 20)
#    0.000    3.143    0.714    2.143    2.000    2.571 
#    0.000    0.714    0.000    0.000    0.000    0.000 
#    0.000    0.000    0.000    2.571    0.000    6.143 
#
# Total GULP energy -693928.301807 kJ/mol
# GULP energy per Si atom -12391.576818 kJ/mol
# Density = 1.522301 g / cm^3
# Si number density = 15.257734 Si / 1000 Ang^3
#
#
#
# Elastic Constant Matrix: (Units=GPa)
#
#
# Indices 1 2 3 4 5 6 
#
# 1 136.7126 35.4615 53.1263 0.0000 0.0000 0.0000
# 2 35.4615 36.7043 23.0889 0.0000 0.0000 0.0000
# 3 53.1263 23.0889 74.3956 0.0000 0.0000 0.0000
# 4 0.0000 0.0000 0.0000 7.9611 0.0000 0.0000
# 5 0.0000 0.0000 0.0000 0.0000 16.0113 0.0000
# 6 0.0000 0.0000 0.0000 0.0000 0.0000 7.6446
#
#
#
# Elastic Compliance Matrix: (Units=1/GPa)
#
#
# Indices 1 2 3 4 5 6 
#
# 1 0.011549 -0.007418 -0.005945 0.000000 0.000000 0.000000
# 2 -0.007418 0.038619 -0.006688 0.000000 0.000000 0.000000
# 3 -0.005945 -0.006688 0.019763 0.000000 0.000000 0.000000
# 4 0.000000 0.000000 0.000000 0.125610 0.000000 0.000000
# 5 0.000000 0.000000 0.000000 0.000000 0.062456 0.000000
# 6 0.000000 0.000000 0.000000 0.000000 0.000000 0.130812
#
#
# Mechanical properties :
#
#
# Convention : Reuss Voigt Hill
#
# Bulk Modulus (GPa) = 33.52549 52.35176 42.93862
# Shear Modulus (GPa) = 11.39330 15.39912 13.39621
#
# Velocity S-wave (km/s) = 2.73559 3.18034 2.96631
# Velocity P-wave (km/s) = 5.65671 6.91897 6.31944
#
# Compressibility (1/GPa) = 0.02982805
#
# Stress axis : x y z
#
# Youngs Moduli (GPa) = 86.58754 25.89399 50.60056
#
# Poissons Ratio (x) = 0.19209 0.30082
# Poissons Ratio (y) = 0.64233 0.33842
# Poissons Ratio (z) = 0.51476 0.17318
#
# Static dielectric constant tensor:
#      x y z
#    x 3.321810 0.000000 0.000000 
#    y 0.000000 2.655530 0.000000 
#    z 0.000000 0.000000 2.712390 
# 
# 
# High freq. dielectric constant tensor:
#      x y z
#    x 1.597930 0.000000 0.000000 
#    y 0.000000 1.540080 0.000000 
#    z 0.000000 0.000000 1.545180 
# 
# From -- ./inp_files/49503.got.cif
#   From: 2010.06.25/outbox.cif.g09.slc.cpg/sg71_25_cif.got.tgz:49503.got - 2010.06.28 04:59:45.
