data_PCOD8287093
_publ_section_title
;
Structure prediction by ZEFSAII (Michael W. Deem and Ramdas Pophale) SiO2 
 PCOD8287093
Probable space group: I M M M
;
_chemical_formula_sum "Si O2"
_cell_formula_units_Z 104
_cell_length_a 12.918845
_cell_length_b 18.838458
_cell_length_c 25.613837
_cell_angle_alpha 90.000000
_cell_angle_beta 90.000000
_cell_angle_gamma 90.000000
_cell_volume 6233.668171
_symmetry_space_group_name_H-M "I M M M"
_symmetry_group_IT_number 71
_symmetry_cell_setting 'orthorhombic'
loop_
_space_group_symop_operation_xyz
x,y,z
-x,-y,z
x,-y,-z
-x,y,-z
-x,-y,-z
x,y,-z
-x,y,z
x,-y,z
1/2+x,1/2+y,1/2+z
1/2-x,1/2-y,1/2+z
1/2+x,1/2-y,1/2-z
1/2-x,1/2+y,1/2-z
1/2-x,1/2-y,1/2-z
1/2+x,1/2+y,1/2-z
1/2-x,1/2+y,1/2+z
1/2+x,1/2-y,1/2+z
loop_
_atom_site_type_symbol
_atom_site_label
_atom_site_fract_x
_atom_site_fract_y
_atom_site_fract_z
Si Si1 0.116776 0.717103 0.895024
Si Si2 0.118997 0.581907 0.371198
Si Si3 0.879131 0.579375 0.157356
Si Si4 0.000000 0.079927 0.938022
Si Si5 0.209437 0.845203 0.939867
Si Si6 0.811441 0.639900 0.736838
Si Si7 0.386124 0.717886 0.280975
O O1 0.154667 0.635301 0.887803
O O2 0.193225 0.760057 0.933590
O O3 0.123791 0.753502 0.839073
O O4 0.000000 0.719475 0.917689
O O5 0.145770 0.500000 0.381938
O O6 0.191749 0.629894 0.407400
O O7 0.136220 0.598266 0.310508
O O8 0.000000 0.598217 0.385783
O O9 0.855483 0.500000 0.137114
O O10 0.820470 0.592544 0.211455
O O11 0.000000 0.591526 0.169333
O O12 0.895966 0.118485 0.917683
O O13 0.000000 0.000000 0.916233
O O14 0.000000 0.081405 0.000000
O O15 0.229274 0.864632 0.000000
O O16 0.689693 0.651521 0.726863
O O17 0.863731 0.717277 0.741486
O O18 0.500000 0.688288 0.269299
#
# Coordination Sequence:
#
# PCOD8287093 Si02
#       7
#    16  16  16   8  16  16  16
#     4   9  16  30  50  72  97 125 160 201 246 293
#     4  11  23  36  50  70  98 132 170 208 245 289
#     4   9  17  29  48  74 102 130 160 195 237 292
#     4   9  18  32  50  70  91 119 157 203 250 296
#     4  11  21  34  51  71  95 126 167 210 250 292
#     4  10  17  29  49  71  99 132 166 199 236 290
#     4   9  17  28  46  73 101 127 158 201 247 290
#
# _framework density 16.683596000000001
#
# number of rings (size 3 to 8) (size 9 to 14) (size 15 to 20)
#    0.000    2.231    2.308    3.231    0.000    2.462 
#    0.000    0.769    0.000    1.846    0.000    2.154 
#    0.000    0.000    0.000    1.385    0.000    0.000 
#
# Total GULP energy -644715.546090 kJ/mol
# GULP energy per Si atom -12398.375886 kJ/mol
# Density = 1.664562 g / cm^3
# Si number density = 16.683596 Si / 1000 Ang^3
#
#
#
# Elastic Constant Matrix: (Units=GPa)
#
#
# Indices 1 2 3 4 5 6 
#
# 1 84.6026 34.0816 15.5291 0.0000 0.0000 0.0000
# 2 34.0816 101.5370 18.5755 0.0000 0.0000 0.0000
# 3 15.5291 18.5755 35.6030 0.0000 0.0000 0.0000
# 4 0.0000 0.0000 0.0000 20.0780 0.0000 0.0000
# 5 0.0000 0.0000 0.0000 0.0000 16.9883 0.0000
# 6 0.0000 0.0000 0.0000 0.0000 0.0000 19.6747
#
#
#
# Elastic Compliance Matrix: (Units=1/GPa)
#
#
# Indices 1 2 3 4 5 6 
#
# 1 0.014188 -0.004013 -0.004095 0.000000 0.000000 0.000000
# 2 -0.004013 0.012023 -0.004522 0.000000 0.000000 0.000000
# 3 -0.004095 -0.004522 0.032233 0.000000 0.000000 0.000000
# 4 0.000000 0.000000 0.000000 0.049806 0.000000 0.000000
# 5 0.000000 0.000000 0.000000 0.000000 0.058864 0.000000
# 6 0.000000 0.000000 0.000000 0.000000 0.000000 0.050827
#
#
# Mechanical properties :
#
#
# Convention : Reuss Voigt Hill
#
# Bulk Modulus (GPa) = 30.13536 39.79056 34.96296
# Shear Modulus (GPa) = 19.66469 21.58529 20.62499
#
# Velocity S-wave (km/s) = 3.43692 3.60085 3.51984
# Velocity P-wave (km/s) = 5.81825 6.41795 6.12544
#
# Compressibility (1/GPa) = 0.03318361
#
# Stress axis : x y z
#
# Youngs Moduli (GPa) = 70.48074 83.17349 31.02412
#
# Poissons Ratio (x) = 0.33380 0.12703
# Poissons Ratio (y) = 0.28286 0.14030
# Poissons Ratio (z) = 0.28859 0.37615
#
# Static dielectric constant tensor:
#      x y z
#    x 3.145010 0.000000 0.000000 
#    y 0.000000 3.303580 0.000000 
#    z 0.000000 0.000000 2.908210 
# 
# 
# High freq. dielectric constant tensor:
#      x y z
#    x 1.631090 0.000000 0.000000 
#    y 0.000000 1.640160 0.000000 
#    z 0.000000 0.000000 1.617630 
# 
# From -- ./inp_files/64645.got.cif
#   From: 2010.06.25/outbox.cif.g09.slc.cpg/sg71_33_cif.got.tgz:64645.got - 2010.06.28 04:59:45.
