data_PCOD8287637
_publ_section_title
;
Structure prediction by ZEFSAII (Michael W. Deem and Ramdas Pophale) SiO2 
 PCOD8287637
Probable space group: I M M M
;
_chemical_formula_sum "Si O2"
_cell_formula_units_Z 88
_cell_length_a 9.504367
_cell_length_b 18.325063
_cell_length_c 28.893191
_cell_angle_alpha 90.000000
_cell_angle_beta 90.000000
_cell_angle_gamma 90.000000
_cell_volume 5032.272874
_symmetry_space_group_name_H-M "I M M M"
_symmetry_group_IT_number 71
_symmetry_cell_setting 'orthorhombic'
loop_
_space_group_symop_operation_xyz
x,y,z
-x,-y,z
x,-y,-z
-x,y,-z
-x,-y,-z
x,y,-z
-x,y,z
x,-y,z
1/2+x,1/2+y,1/2+z
1/2-x,1/2-y,1/2+z
1/2+x,1/2-y,1/2-z
1/2-x,1/2+y,1/2-z
1/2-x,1/2-y,1/2-z
1/2+x,1/2+y,1/2-z
1/2-x,1/2+y,1/2+z
1/2+x,1/2-y,1/2+z
loop_
_atom_site_type_symbol
_atom_site_label
_atom_site_fract_x
_atom_site_fract_y
_atom_site_fract_z
Si Si1 0.661587 0.806574 0.278630
Si Si2 0.332644 0.919134 0.551742
Si Si3 0.332983 0.500000 0.552300
Si Si4 0.334832 0.367832 0.383396
Si Si5 0.839251 0.417336 0.298109
Si Si6 0.834670 0.296065 0.118074
O O1 0.500000 0.780032 0.280025
O O2 0.750000 0.750000 0.250000
O O3 0.676339 0.884369 0.253282
O O4 0.724722 0.810231 0.330370
O O5 0.274655 0.906403 0.500000
O O6 0.500000 0.913269 0.551301
O O7 0.265483 0.856372 0.584271
O O8 0.287792 0.000000 0.569376
O O9 0.500000 0.500000 0.549709
O O10 0.270780 0.500000 0.500000
O O11 0.279919 0.572664 0.579220
O O12 0.500000 0.378732 0.374694
O O13 0.258580 0.376072 0.334484
O O14 0.300944 0.285630 0.400703
O O15 0.788162 0.500000 0.294755
O O16 0.000000 0.411070 0.315418
O O17 0.000000 0.309009 0.119237
#
# Coordination Sequence:
#
# PCOD8287637 Si02
#       6
#    16  16   8  16  16  16
#     4  10  19  31  47  68  96 127 158 194 236 278
#     4   8  14  25  41  63  94 128 155 186 237 293
#     4   9  18  30  45  69  97 123 157 203 248 285
#     4  10  18  30  49  69  92 126 163 197 239 286
#     4  10  20  32  47  68  94 126 163 197 233 279
#     4   9  17  27  43  67  92 121 160 198 232 279
#
# _framework density 17.487127999999998
#
# number of rings (size 3 to 8) (size 9 to 14) (size 15 to 20)
#    0.000    2.636    2.727    0.545    0.000    1.455 
#    0.000    7.273    0.000    1.091    0.000    0.000 
#    0.000    1.455    0.000    8.000    0.000    7.273 
#
# Total GULP energy -545372.006922 kJ/mol
# GULP energy per Si atom -12394.818339 kJ/mol
# Density = 1.744733 g / cm^3
# Si number density = 17.487128 Si / 1000 Ang^3
#
#
#
# Elastic Constant Matrix: (Units=GPa)
#
#
# Indices 1 2 3 4 5 6 
#
# 1 20.7811 20.4131 15.8272 0.0000 0.0000 0.0000
# 2 20.4131 148.5148 79.5702 0.0000 0.0000 0.0000
# 3 15.8272 79.5702 127.8499 0.0000 0.0000 0.0000
# 4 0.0000 0.0000 0.0000 36.8583 0.0000 0.0000
# 5 0.0000 0.0000 0.0000 0.0000 16.4137 0.0000
# 6 0.0000 0.0000 0.0000 0.0000 0.0000 12.8679
#
#
#
# Elastic Compliance Matrix: (Units=1/GPa)
#
#
# Indices 1 2 3 4 5 6 
#
# 1 0.056514 -0.006030 -0.003243 0.000000 0.000000 0.000000
# 2 -0.006030 0.010745 -0.005941 0.000000 0.000000 0.000000
# 3 -0.003243 -0.005941 0.011921 0.000000 0.000000 0.000000
# 4 0.000000 0.000000 0.000000 0.027131 0.000000 0.000000
# 5 0.000000 0.000000 0.000000 0.000000 0.060925 0.000000
# 6 0.000000 0.000000 0.000000 0.000000 0.000000 0.077713
#
#
# Mechanical properties :
#
#
# Convention : Reuss Voigt Hill
#
# Bulk Modulus (GPa) = 20.51225 58.75184 39.63204
# Shear Modulus (GPa) = 17.14514 25.31699 21.23107
#
# Velocity S-wave (km/s) = 3.13460 3.80906 3.48817
# Velocity P-wave (km/s) = 4.98561 7.28117 6.23986
#
# Compressibility (1/GPa) = 0.04875137
#
# Stress axis : x y z
#
# Youngs Moduli (GPa) = 17.69467 93.06477 83.88786
#
# Poissons Ratio (x) = 0.56120 0.27206
# Poissons Ratio (y) = 0.10670 0.49838
# Poissons Ratio (z) = 0.05739 0.55290
#
# Static dielectric constant tensor:
#      x y z
#    x 2.788010 0.000000 0.000000 
#    y 0.000000 3.601810 0.000000 
#    z 0.000000 0.000000 3.618340 
# 
# 
# High freq. dielectric constant tensor:
#      x y z
#    x 1.618010 0.000000 0.000000 
#    y 0.000000 1.690750 0.000000 
#    z 0.000000 0.000000 1.675140 
# 
# From -- ./inp_files/30134.got.cif
#   From: 2010.06.25/outbox.cif.g09.slc.cpg/sg71_16_cif.got.tgz:30134.got - 2010.06.28 04:59:45.
