data_PCOD8287021
_publ_section_title
;
Structure prediction by ZEFSAII (Michael W. Deem and Ramdas Pophale) SiO2 
 PCOD8287021
Probable space group: I M M M
;
_chemical_formula_sum "Si O2"
_cell_formula_units_Z 104
_cell_length_a 24.083041
_cell_length_b 28.349615
_cell_length_c 9.268827
_cell_angle_alpha 90.000000
_cell_angle_beta 90.000000
_cell_angle_gamma 90.000000
_cell_volume 6328.244738
_symmetry_space_group_name_H-M "I M M M"
_symmetry_group_IT_number 71
_symmetry_cell_setting 'orthorhombic'
loop_
_space_group_symop_operation_xyz
x,y,z
-x,-y,z
x,-y,-z
-x,y,-z
-x,-y,-z
x,y,-z
-x,y,z
x,-y,z
1/2+x,1/2+y,1/2+z
1/2-x,1/2-y,1/2+z
1/2+x,1/2-y,1/2-z
1/2-x,1/2+y,1/2-z
1/2-x,1/2-y,1/2-z
1/2+x,1/2+y,1/2-z
1/2-x,1/2+y,1/2+z
1/2+x,1/2-y,1/2+z
loop_
_atom_site_type_symbol
_atom_site_label
_atom_site_fract_x
_atom_site_fract_y
_atom_site_fract_z
Si Si1 0.438001 0.500000 0.329085
Si Si2 0.062902 0.630251 0.668788
Si Si3 0.566063 0.219744 0.660208
Si Si4 0.438121 0.677202 0.328347
Si Si5 0.867077 0.089110 0.828416
Si Si6 0.737291 0.554820 0.831254
Si Si7 0.151977 0.554015 0.666882
O O1 0.500000 0.500000 0.262536
O O2 0.442010 0.500000 0.500000
O O3 0.405824 0.546263 0.275657
O O4 0.064471 0.639038 0.500000
O O5 0.088217 0.677522 0.740014
O O6 0.099652 0.585512 0.713981
O O7 0.000000 0.620342 0.721848
O O8 0.590394 0.211793 0.500000
O O9 0.500000 0.219588 0.655437
O O10 0.584372 0.271205 0.721606
O O11 0.441874 0.676622 0.500000
O O12 0.500000 0.667206 0.265866
O O13 0.395962 0.637188 0.274684
O O14 0.808449 0.086194 0.748607
O O15 0.857520 0.087755 0.000000
O O16 0.724714 0.500000 0.800660
O O17 0.796438 0.569022 0.765250
O O18 0.737484 0.566444 0.000000
O O19 0.168120 0.562142 0.500000
O O20 0.134789 0.500000 0.694885
#
# Coordination Sequence:
#
# PCOD8287021 Si02
#       7
#     8  16  16  16  16  16  16
#     4   9  16  24  39  67  95 117 146 187 232 273
#     4   9  17  29  47  73 100 121 142 175 222 270
#     4   8  14  26  44  65  91 124 156 182 214 263
#     4   8  14  25  43  68  94 119 152 193 230 265
#     4  10  17  27  46  68  90 118 154 195 232 270
#     4  10  20  33  47  63  88 121 157 193 228 268
#     4   9  18  32  50  70  92 119 151 184 218 264
#
# _framework density 16.434256999999999
#
# number of rings (size 3 to 8) (size 9 to 14) (size 15 to 20)
#    0.000    3.000    0.769    1.846    0.000    3.385 
#    0.000    2.308    0.000    4.154    0.000    4.308 
#    0.000    0.000    0.000    0.000    0.000    0.000 
#
# Total GULP energy -644631.030642 kJ/mol
# GULP energy per Si atom -12396.750589 kJ/mol
# Density = 1.639685 g / cm^3
# Si number density = 16.434257 Si / 1000 Ang^3
#
#
#
# Elastic Constant Matrix: (Units=GPa)
#
#
# Indices 1 2 3 4 5 6 
#
# 1 99.0985 73.9328 41.3761 0.0000 0.0000 0.0000
# 2 73.9328 136.2247 41.6619 0.0000 0.0000 0.0000
# 3 41.3761 41.6619 44.7111 0.0000 0.0000 0.0000
# 4 0.0000 0.0000 0.0000 21.8947 0.0000 0.0000
# 5 0.0000 0.0000 0.0000 0.0000 13.5639 0.0000
# 6 0.0000 0.0000 0.0000 0.0000 0.0000 14.7507
#
#
#
# Elastic Compliance Matrix: (Units=1/GPa)
#
#
# Indices 1 2 3 4 5 6 
#
# 1 0.020851 -0.007573 -0.012239 0.000000 0.000000 0.000000
# 2 -0.007573 0.013017 -0.005121 0.000000 0.000000 0.000000
# 3 -0.012239 -0.005121 0.038464 0.000000 0.000000 0.000000
# 4 0.000000 0.000000 0.000000 0.045673 0.000000 0.000000
# 5 0.000000 0.000000 0.000000 0.000000 0.073725 0.000000
# 6 0.000000 0.000000 0.000000 0.000000 0.000000 0.067793
#
#
# Mechanical properties :
#
#
# Convention : Reuss Voigt Hill
#
# Bulk Modulus (GPa) = 44.51310 65.99732 55.25521
# Shear Modulus (GPa) = 15.77888 18.24609 17.01248
#
# Velocity S-wave (km/s) = 3.10194 3.33565 3.22092
# Velocity P-wave (km/s) = 6.32248 7.42166 6.89401
#
# Compressibility (1/GPa) = 0.02246530
#
# Stress axis : x y z
#
# Youngs Moduli (GPa) = 47.95874 76.82085 25.99862
#
# Poissons Ratio (x) = 0.58180 0.31820
# Poissons Ratio (y) = 0.36321 0.13314
# Poissons Ratio (z) = 0.58697 0.39340
#
# Static dielectric constant tensor:
#      x y z
#    x 3.003040 0.000000 0.000000 
#    y 0.000000 3.344120 0.000000 
#    z 0.000000 0.000000 2.889530 
# 
# 
# High freq. dielectric constant tensor:
#      x y z
#    x 1.612510 0.000000 0.000000 
#    y 0.000000 1.633750 0.000000 
#    z 0.000000 0.000000 1.606650 
# 
# From -- ./inp_files/15532.got.cif
#   From: 2010.06.25/outbox.cif.g09.slc.cpg/sg71_8_cif.got.tgz:15532.got - 2010.06.28 04:59:45.
