data_PCOD8287058
_publ_section_title
;
Structure prediction by ZEFSAII (Michael W. Deem and Ramdas Pophale) SiO2 
 PCOD8287058
Probable space group: I M M M
;
_chemical_formula_sum "Si O2"
_cell_formula_units_Z 104
_cell_length_a 18.039282
_cell_length_b 7.703041
_cell_length_c 37.714099
_cell_angle_alpha 90.000000
_cell_angle_beta 90.000000
_cell_angle_gamma 90.000000
_cell_volume 5240.650457
_symmetry_space_group_name_H-M "I M M M"
_symmetry_group_IT_number 71
_symmetry_cell_setting 'orthorhombic'
loop_
_space_group_symop_operation_xyz
x,y,z
-x,-y,z
x,-y,-z
-x,y,-z
-x,-y,-z
x,y,-z
-x,y,z
x,-y,z
1/2+x,1/2+y,1/2+z
1/2-x,1/2-y,1/2+z
1/2+x,1/2-y,1/2-z
1/2-x,1/2+y,1/2-z
1/2-x,1/2-y,1/2-z
1/2+x,1/2+y,1/2-z
1/2-x,1/2+y,1/2+z
1/2+x,1/2-y,1/2+z
loop_
_atom_site_type_symbol
_atom_site_label
_atom_site_fract_x
_atom_site_fract_y
_atom_site_fract_z
Si Si1 0.914637 0.804590 0.844474
Si Si2 0.000000 0.706609 0.960457
Si Si3 0.917999 0.793969 0.587147
Si Si4 0.911996 0.807666 0.333918
Si Si5 0.358355 0.206320 0.581945
Si Si6 0.088742 0.500000 0.714613
Si Si7 0.714779 0.293010 0.040013
Si Si8 0.087657 0.500000 0.206065
O O1 0.863108 0.785605 0.878869
O O2 0.885566 0.672674 0.814427
O O3 0.000000 0.759923 0.854647
O O4 0.908017 0.000000 0.829472
O O5 0.927471 0.776581 0.940643
O O6 0.000000 0.500000 0.961477
O O7 0.000000 0.783136 0.000000
O O8 0.890263 0.742925 0.626587
O O9 0.859984 0.720554 0.558397
O O10 0.000000 0.715945 0.579299
O O11 0.922248 0.000000 0.584852
O O12 0.880560 0.671319 0.305340
O O13 0.000000 0.818298 0.331758
O O14 0.878713 0.000000 0.326061
O O15 0.284519 0.274651 0.562652
O O16 0.359582 0.000000 0.585000
O O17 0.121450 0.500000 0.754379
O O18 0.000000 0.500000 0.714085
O O19 0.715038 0.500000 0.039393
O O20 0.719124 0.219739 0.000000
O O21 0.000000 0.500000 0.209492
#
# Coordination Sequence:
#
# PCOD8287058 Si02
#       8
#    16   8  16  16  16   8  16   8
#     4  10  19  31  49  71  98 135 177 217 255 308
#     4   9  16  24  41  67  91 126 169 211 270 315
#     4   8  14  26  44  68 102 140 174 211 257 307
#     4   8  14  25  43  68  99 130 163 204 246 298
#     4  10  17  28  47  67  97 132 172 223 262 303
#     4   9  16  26  44  74 105 134 161 202 258 308
#     4   9  17  27  43  72 104 133 175 221 261 309
#     4   9  18  30  46  72 108 135 165 209 262 307
#
# _framework density 19.844864000000001
#
# number of rings (size 3 to 8) (size 9 to 14) (size 15 to 20)
#    0.000    3.000    1.538    1.385    0.000    2.769 
#    0.000    4.615    1.692    2.308    0.000    1.077 
#    0.000    3.077    0.000    0.308    0.000    0.000 
#
# Total GULP energy -644595.468455 kJ/mol
# GULP energy per Si atom -12396.066701 kJ/mol
# Density = 1.979970 g / cm^3
# Si number density = 19.844864 Si / 1000 Ang^3
#
#
#
# Elastic Constant Matrix: (Units=GPa)
#
#
# Indices 1 2 3 4 5 6 
#
# 1 89.2902 21.5948 60.2979 0.0000 0.0000 0.0000
# 2 21.5948 79.9978 53.3651 0.0000 0.0000 0.0000
# 3 60.2979 53.3651 166.1373 0.0000 0.0000 0.0000
# 4 0.0000 0.0000 0.0000 4.3733 0.0000 0.0000
# 5 0.0000 0.0000 0.0000 0.0000 19.7638 0.0000
# 6 0.0000 0.0000 0.0000 0.0000 0.0000 4.2125
#
#
#
# Elastic Compliance Matrix: (Units=1/GPa)
#
#
# Indices 1 2 3 4 5 6 
#
# 1 0.014853 -0.000526 -0.005222 0.000000 0.000000 0.000000
# 2 -0.000526 0.015928 -0.004925 0.000000 0.000000 0.000000
# 3 -0.005222 -0.004925 0.009496 0.000000 0.000000 0.000000
# 4 0.000000 0.000000 0.000000 0.228660 0.000000 0.000000
# 5 0.000000 0.000000 0.000000 0.000000 0.050598 0.000000
# 6 0.000000 0.000000 0.000000 0.000000 0.000000 0.237390
#
#
# Mechanical properties :
#
#
# Convention : Reuss Voigt Hill
#
# Bulk Modulus (GPa) = 52.82350 67.32676 60.07513
# Shear Modulus (GPa) = 8.55313 19.01442 13.78378
#
# Velocity S-wave (km/s) = 2.07831 3.09876 2.63834
# Velocity P-wave (km/s) = 5.69519 6.84129 6.29438
#
# Compressibility (1/GPa) = 0.01893097
#
# Stress axis : x y z
#
# Youngs Moduli (GPa) = 67.32678 62.78283 105.30359
#
# Poissons Ratio (x) = 0.03303 0.54987
# Poissons Ratio (y) = 0.03542 0.51865
# Poissons Ratio (z) = 0.35156 0.30922
#
# Static dielectric constant tensor:
#      x y z
#    x 3.419920 0.000000 0.000000 
#    y 0.000000 3.459980 0.000000 
#    z 0.000000 0.000000 3.773510 
# 
# 
# High freq. dielectric constant tensor:
#      x y z
#    x 1.730370 0.000000 0.000000 
#    y 0.000000 1.754290 0.000000 
#    z 0.000000 0.000000 1.772110 
# 
# From -- ./inp_files/70814.got.cif
#   From: 2010.06.25/outbox.cif.g09.slc.cpg/sg71_36_cif.got.tgz:70814.got - 2010.06.28 04:59:45.
