data_PCOD8287952
_publ_section_title
;
Structure prediction by ZEFSAII (Michael W. Deem and Ramdas Pophale) SiO2 
 PCOD8287952
Probable space group: I M M M
;
_chemical_formula_sum "Si O2"
_cell_formula_units_Z 104
_cell_length_a 27.346864
_cell_length_b 8.684586
_cell_length_c 24.115876
_cell_angle_alpha 90.000000
_cell_angle_beta 90.000000
_cell_angle_gamma 90.000000
_cell_volume 5727.428722
_symmetry_space_group_name_H-M "I M M M"
_symmetry_group_IT_number 71
_symmetry_cell_setting 'orthorhombic'
loop_
_space_group_symop_operation_xyz
x,y,z
-x,-y,z
x,-y,-z
-x,y,-z
-x,-y,-z
x,y,-z
-x,y,z
x,-y,z
1/2+x,1/2+y,1/2+z
1/2-x,1/2-y,1/2+z
1/2+x,1/2-y,1/2-z
1/2-x,1/2+y,1/2-z
1/2-x,1/2-y,1/2-z
1/2+x,1/2+y,1/2-z
1/2-x,1/2+y,1/2+z
1/2+x,1/2-y,1/2+z
loop_
_atom_site_type_symbol
_atom_site_label
_atom_site_fract_x
_atom_site_fract_y
_atom_site_fract_z
Si Si1 0.676710 0.681368 0.348294
Si Si2 0.105957 0.319096 0.934684
Si Si3 0.359999 0.819353 0.765284
Si Si4 0.768828 0.182924 0.307617
Si Si5 0.443142 0.322709 0.171445
Si Si6 0.057980 0.672764 0.439536
Si Si7 0.000000 0.678719 0.064470
O O1 0.681053 0.500000 0.341628
O O2 0.647361 0.723436 0.403563
O O3 0.648807 0.748920 0.295175
O O4 0.731536 0.752812 0.354179
O O5 0.111685 0.500000 0.921678
O O6 0.052192 0.257391 0.912862
O O7 0.111768 0.288464 0.000000
O O8 0.324155 0.746185 0.812539
O O9 0.415019 0.780481 0.783613
O O10 0.351336 0.000000 0.761654
O O11 0.750000 0.250000 0.250000
O O12 0.768669 0.000000 0.308310
O O13 0.500000 0.281152 0.177694
O O14 0.432614 0.500000 0.183809
O O15 0.423953 0.284774 0.109303
O O16 0.077910 0.728429 0.500000
O O17 0.076949 0.500000 0.427119
O O18 0.000000 0.673091 0.441617
O O19 0.000000 0.500000 0.076937
O O20 0.000000 0.711561 0.000000
#
# Coordination Sequence:
#
# PCOD8287952 Si02
#       7
#    16  16  16  16  16  16   8
#     4  11  21  34  52  77 106 134 170 213 260 311
#     4   9  17  32  54  78 104 137 178 222 266 314
#     4  11  21  35  54  75 101 135 175 213 258 311
#     4  10  18  32  54  77 100 125 160 205 251 297
#     4  10  20  33  49  72 104 137 169 208 254 302
#     4   8  14  26  45  68  93 124 164 204 238 279
#     4   7  12  26  49  73  97 129 171 215 254 299
#
# _framework density 18.158234
#
# number of rings (size 3 to 8) (size 9 to 14) (size 15 to 20)
#    0.000    2.385    0.000    7.846    0.000    1.538 
#    1.385    1.923    0.000    2.308    0.000    0.000 
#    0.000    0.000    0.000    0.000    0.000    0.000 
#
# Total GULP energy -644355.768802 kJ/mol
# GULP energy per Si atom -12391.457092 kJ/mol
# Density = 1.811691 g / cm^3
# Si number density = 18.158234 Si / 1000 Ang^3
#
#
#
# Elastic Constant Matrix: (Units=GPa)
#
#
# Indices 1 2 3 4 5 6 
#
# 1 86.1907 42.7945 35.9544 0.0000 0.0000 0.0000
# 2 42.7945 127.1098 32.5243 0.0000 0.0000 0.0000
# 3 35.9544 32.5243 59.6270 0.0000 0.0000 0.0000
# 4 0.0000 0.0000 0.0000 28.2659 0.0000 0.0000
# 5 0.0000 0.0000 0.0000 0.0000 27.8538 0.0000
# 6 0.0000 0.0000 0.0000 0.0000 0.0000 27.5590
#
#
#
# Elastic Compliance Matrix: (Units=1/GPa)
#
#
# Indices 1 2 3 4 5 6 
#
# 1 0.016779 -0.003557 -0.008178 0.000000 0.000000 0.000000
# 2 -0.003557 0.009897 -0.003254 0.000000 0.000000 0.000000
# 3 -0.008178 -0.003254 0.023477 0.000000 0.000000 0.000000
# 4 0.000000 0.000000 0.000000 0.035378 0.000000 0.000000
# 5 0.000000 0.000000 0.000000 0.000000 0.035902 0.000000
# 6 0.000000 0.000000 0.000000 0.000000 0.000000 0.036286
#
#
# Mechanical properties :
#
#
# Convention : Reuss Voigt Hill
#
# Bulk Modulus (GPa) = 49.56182 55.05267 52.30724
# Shear Modulus (GPa) = 25.71724 27.51268 26.61496
#
# Velocity S-wave (km/s) = 3.76744 3.89673 3.83263
# Velocity P-wave (km/s) = 6.80283 7.11549 6.96091
#
# Compressibility (1/GPa) = 0.02017682
#
# Stress axis : x y z
#
# Youngs Moduli (GPa) = 59.59661 101.03803 42.59498
#
# Poissons Ratio (x) = 0.35936 0.34833
# Poissons Ratio (y) = 0.21197 0.13860
# Poissons Ratio (z) = 0.48737 0.32877
#
# Static dielectric constant tensor:
#      x y z
#    x 3.820780 0.000000 0.000000 
#    y 0.000000 3.298250 0.000000 
#    z 0.000000 0.000000 3.230080 
# 
# 
# High freq. dielectric constant tensor:
#      x y z
#    x 1.697880 0.000000 0.000000 
#    y 0.000000 1.703680 0.000000 
#    z 0.000000 0.000000 1.674890 
# 
# From -- ./inp_files/56740.got.cif
#   From: 2010.06.25/outbox.cif.g09.slc.cpg/sg71_29_cif.got.tgz:56740.got - 2010.06.28 04:59:45.
