data_PCOD8287326
_publ_section_title
;
Structure prediction by ZEFSAII (Michael W. Deem and Ramdas Pophale) SiO2 
 PCOD8287326
Probable space group: I M M M
;
_chemical_formula_sum "Si O2"
_cell_formula_units_Z 72
_cell_length_a 23.590533
_cell_length_b 9.271588
_cell_length_c 18.157678
_cell_angle_alpha 90.000000
_cell_angle_beta 90.000000
_cell_angle_gamma 90.000000
_cell_volume 3971.478249
_symmetry_space_group_name_H-M "I M M M"
_symmetry_group_IT_number 71
_symmetry_cell_setting 'orthorhombic'
loop_
_space_group_symop_operation_xyz
x,y,z
-x,-y,z
x,-y,-z
-x,y,-z
-x,-y,-z
x,y,-z
-x,y,z
x,-y,z
1/2+x,1/2+y,1/2+z
1/2-x,1/2-y,1/2+z
1/2+x,1/2-y,1/2-z
1/2-x,1/2+y,1/2-z
1/2-x,1/2-y,1/2-z
1/2+x,1/2+y,1/2-z
1/2-x,1/2+y,1/2+z
1/2+x,1/2-y,1/2+z
loop_
_atom_site_type_symbol
_atom_site_label
_atom_site_fract_x
_atom_site_fract_y
_atom_site_fract_z
Si Si1 0.563927 0.328109 0.714805
Si Si2 0.638283 0.328462 0.581392
Si Si3 0.436773 0.671377 0.000000
Si Si4 0.766017 0.332342 0.414804
Si Si5 0.868887 0.171094 0.641910
O O1 0.500000 0.266754 0.718134
O O2 0.562593 0.500000 0.713810
O O3 0.594272 0.266917 0.641342
O O4 0.598953 0.273985 0.785353
O O5 0.621855 0.269346 0.500000
O O6 0.636266 0.500000 0.579843
O O7 0.702013 0.280869 0.602359
O O8 0.404962 0.727091 0.072487
O O9 0.439323 0.500000 0.000000
O O10 0.500000 0.736197 0.000000
O O11 0.780521 0.300799 0.500000
O O12 0.773790 0.500000 0.396574
O O13 0.806867 0.241492 0.361694
O O14 0.861602 0.000000 0.641720
#
# Coordination Sequence:
#
# PCOD8287326 Si02
#       5
#    16  16   8  16  16
#     4   9  17  28  43  66  93 118 151 194 231 268
#     4   8  15  28  45  65  90 121 152 185 231 280
#     4   9  16  26  41  61  87 121 154 181 218 264
#     4   9  17  30  47  66  92 124 156 188 224 270
#     4  10  18  28  45  69  94 121 153 190 228 267
#
# _framework density 18.129269000000001
#
# number of rings (size 3 to 8) (size 9 to 14) (size 15 to 20)
#    0.000    3.000    1.111    2.000    0.000    4.000 
#    0.000    2.222    0.000    3.333    0.000    0.000 
#    0.000    0.000    0.000    6.889    0.000    7.111 
#
# Total GULP energy -446287.826301 kJ/mol
# GULP energy per Si atom -12396.884064 kJ/mol
# Density = 1.808801 g / cm^3
# Si number density = 18.129269 Si / 1000 Ang^3
#
#
#
# Elastic Constant Matrix: (Units=GPa)
#
#
# Indices 1 2 3 4 5 6 
#
# 1 139.9733 22.0452 91.9788 0.0000 0.0000 0.0000
# 2 22.0452 15.6890 17.8091 0.0000 0.0000 0.0000
# 3 91.9788 17.8091 153.6555 0.0000 0.0000 0.0000
# 4 0.0000 0.0000 0.0000 11.0604 0.0000 0.0000
# 5 0.0000 0.0000 0.0000 0.0000 38.0982 0.0000
# 6 0.0000 0.0000 0.0000 0.0000 0.0000 21.6368
#
#
#
# Elastic Compliance Matrix: (Units=1/GPa)
#
#
# Indices 1 2 3 4 5 6 
#
# 1 0.013262 -0.011082 -0.006654 0.000000 0.000000 0.000000
# 2 -0.011082 0.082655 -0.002946 0.000000 0.000000 0.000000
# 3 -0.006654 -0.002946 0.010833 0.000000 0.000000 0.000000
# 4 0.000000 0.000000 0.000000 0.090413 0.000000 0.000000
# 5 0.000000 0.000000 0.000000 0.000000 0.026248 0.000000
# 6 0.000000 0.000000 0.000000 0.000000 0.000000 0.046218
#
#
# Mechanical properties :
#
#
# Convention : Reuss Voigt Hill
#
# Bulk Modulus (GPa) = 15.29407 63.66490 39.47948
# Shear Modulus (GPa) = 15.02457 25.99137 20.50797
#
# Velocity S-wave (km/s) = 2.88192 3.79049 3.36699
# Velocity P-wave (km/s) = 4.41909 7.37228 6.07778
#
# Compressibility (1/GPa) = 0.06538481
#
# Stress axis : x y z
#
# Youngs Moduli (GPa) = 75.40177 12.09855 92.31086
#
# Poissons Ratio (x) = 0.13407 0.61428
# Poissons Ratio (y) = 0.83557 0.27199
# Poissons Ratio (z) = 0.50176 0.03565
#
# Static dielectric constant tensor:
#      x y z
#    x 3.533670 0.000000 0.000000 
#    y 0.000000 2.680520 0.000000 
#    z 0.000000 0.000000 3.572420 
# 
# 
# High freq. dielectric constant tensor:
#      x y z
#    x 1.713790 0.000000 0.000000 
#    y 0.000000 1.630350 0.000000 
#    z 0.000000 0.000000 1.706910 
# 
# From -- ./inp_files/7950.got.cif
#   From: 2010.06.25/outbox.cif.g09.slc.cpg/sg71_4_cif.got.tgz:7950.got - 2010.06.28 04:59:45.
