data_PCOD8287750
_publ_section_title
;
Structure prediction by ZEFSAII (Michael W. Deem and Ramdas Pophale) SiO2 
 PCOD8287750
Probable space group: I M M M
;
_chemical_formula_sum "Si O2"
_cell_formula_units_Z 80
_cell_length_a 8.966136
_cell_length_b 26.406396
_cell_length_c 23.805575
_cell_angle_alpha 90.000000
_cell_angle_beta 90.000000
_cell_angle_gamma 90.000000
_cell_volume 5636.287395
_symmetry_space_group_name_H-M "I M M M"
_symmetry_group_IT_number 71
_symmetry_cell_setting 'orthorhombic'
loop_
_space_group_symop_operation_xyz
x,y,z
-x,-y,z
x,-y,-z
-x,y,-z
-x,-y,-z
x,y,-z
-x,y,z
x,-y,z
1/2+x,1/2+y,1/2+z
1/2-x,1/2-y,1/2+z
1/2+x,1/2-y,1/2-z
1/2-x,1/2+y,1/2-z
1/2-x,1/2-y,1/2-z
1/2+x,1/2+y,1/2-z
1/2-x,1/2+y,1/2+z
1/2+x,1/2-y,1/2+z
loop_
_atom_site_type_symbol
_atom_site_label
_atom_site_fract_x
_atom_site_fract_y
_atom_site_fract_z
Si Si1 0.825766 0.755336 0.620274
Si Si2 0.324713 0.557499 0.109023
Si Si3 0.175267 0.206207 0.214008
Si Si4 0.825299 0.146216 0.684432
Si Si5 0.173485 0.210265 0.500000
Si Si6 0.323098 0.897981 0.500000
O O1 0.744379 0.707719 0.651160
O O2 0.761479 0.807636 0.646594
O O3 0.788444 0.755367 0.554140
O O4 0.000000 0.749061 0.631693
O O5 0.500000 0.565109 0.097156
O O6 0.288316 0.500000 0.125979
O O7 0.266131 0.592633 0.160750
O O8 0.236090 0.572260 0.053704
O O9 0.250000 0.250000 0.250000
O O10 0.211873 0.154335 0.249004
O O11 0.000000 0.215320 0.210125
O O12 0.000000 0.147440 0.675228
O O13 0.269232 0.159662 0.500000
O O14 0.000000 0.193942 0.500000
O O15 0.500000 0.898811 0.500000
#
# Coordination Sequence:
#
# PCOD8287750 Si02
#       6
#    16  16  16  16   8   8
#     4   9  16  27  43  59  77 100 129 164 198 235
#     4  10  19  32  48  59  71 102 145 176 202 241
#     4   9  16  26  40  57  79 101 126 159 196 240
#     4   8  14  26  42  58  74  96 128 166 198 229
#     4  10  18  31  47  58  78 109 139 169 200 240
#     4  12  23  31  40  57  82 106 134 175 215 245
#
# _framework density 14.193740999999999
#
# number of rings (size 3 to 8) (size 9 to 14) (size 15 to 20)
#    0.000    2.600    2.000    3.000    0.000    2.400 
#    0.000    1.000    0.000    0.000    0.000    0.000 
#    0.000    0.000    0.000    0.900    0.000   20.800 
#
# Total GULP energy -495570.744490 kJ/mol
# GULP energy per Si atom -12389.268612 kJ/mol
# Density = 1.416143 g / cm^3
# Si number density = 14.193741 Si / 1000 Ang^3
#
#
#
# Elastic Constant Matrix: (Units=GPa)
#
#
# Indices 1 2 3 4 5 6 
#
# 1 53.6818 30.5304 40.0985 0.0000 0.0000 0.0000
# 2 30.5304 71.6539 67.6534 0.0000 0.0000 0.0000
# 3 40.0985 67.6534 122.4182 0.0000 0.0000 0.0000
# 4 0.0000 0.0000 0.0000 7.4353 0.0000 0.0000
# 5 0.0000 0.0000 0.0000 0.0000 20.4663 0.0000
# 6 0.0000 0.0000 0.0000 0.0000 0.0000 12.2680
#
#
#
# Elastic Compliance Matrix: (Units=1/GPa)
#
#
# Indices 1 2 3 4 5 6 
#
# 1 0.025972 -0.006344 -0.005001 0.000000 0.000000 0.000000
# 2 -0.006344 0.030733 -0.014906 0.000000 0.000000 0.000000
# 3 -0.005001 -0.014906 0.018045 0.000000 0.000000 0.000000
# 4 0.000000 0.000000 0.000000 0.134493 0.000000 0.000000
# 5 0.000000 0.000000 0.000000 0.000000 0.048861 0.000000
# 6 0.000000 0.000000 0.000000 0.000000 0.000000 0.081513
#
#
# Mechanical properties :
#
#
# Convention : Reuss Voigt Hill
#
# Bulk Modulus (GPa) = 44.95093 58.25762 51.60427
# Shear Modulus (GPa) = 12.51451 15.33203 13.92327
#
# Velocity S-wave (km/s) = 2.97255 3.29020 3.13540
# Velocity P-wave (km/s) = 6.59695 7.45437 7.03872
#
# Compressibility (1/GPa) = 0.02224648
#
# Stress axis : x y z
#
# Youngs Moduli (GPa) = 38.50276 32.53793 55.41778
#
# Poissons Ratio (x) = 0.20643 0.27715
# Poissons Ratio (y) = 0.24428 0.82608
# Poissons Ratio (z) = 0.19256 0.48502
#
# Static dielectric constant tensor:
#      x y z
#    x 2.746090 0.000000 0.000000 
#    y 0.000000 2.832860 0.000000 
#    z 0.000000 0.000000 3.168960 
# 
# 
# High freq. dielectric constant tensor:
#      x y z
#    x 1.532420 0.000000 0.000000 
#    y 0.000000 1.499900 0.000000 
#    z 0.000000 0.000000 1.538910 
# 
# From -- ./inp_files/13067.got.cif
#   From: 2010.06.25/outbox.cif.g09.slc.cpg/sg71_7_cif.got.tgz:13067.got - 2010.06.28 04:59:45.
