data_PCOD8287808
_publ_section_title
;
Structure prediction by ZEFSAII (Michael W. Deem and Ramdas Pophale) SiO2 
 PCOD8287808
Probable space group: I M M M
;
_chemical_formula_sum "Si O2"
_cell_formula_units_Z 88
_cell_length_a 22.636381
_cell_length_b 9.256083
_cell_length_c 24.252156
_cell_angle_alpha 90.000000
_cell_angle_beta 90.000000
_cell_angle_gamma 90.000000
_cell_volume 5081.414102
_symmetry_space_group_name_H-M "I M M M"
_symmetry_group_IT_number 71
_symmetry_cell_setting 'orthorhombic'
loop_
_space_group_symop_operation_xyz
x,y,z
-x,-y,z
x,-y,-z
-x,y,-z
-x,-y,-z
x,y,-z
-x,y,z
x,-y,z
1/2+x,1/2+y,1/2+z
1/2-x,1/2-y,1/2+z
1/2+x,1/2-y,1/2-z
1/2-x,1/2+y,1/2-z
1/2-x,1/2-y,1/2-z
1/2+x,1/2+y,1/2-z
1/2-x,1/2+y,1/2+z
1/2+x,1/2-y,1/2+z
loop_
_atom_site_type_symbol
_atom_site_label
_atom_site_fract_x
_atom_site_fract_y
_atom_site_fract_z
Si Si1 0.067606 0.666220 0.259027
Si Si2 0.219345 0.169566 0.563519
Si Si3 0.883867 0.669469 0.376250
Si Si4 0.500000 0.828318 0.937945
Si Si5 0.661916 0.667006 0.436981
Si Si6 0.066837 0.169503 0.848308
O O1 0.072460 0.500000 0.242200
O O2 0.108517 0.700307 0.311449
O O3 0.091060 0.758254 0.207534
O O4 0.000000 0.706046 0.274087
O O5 0.203490 0.204195 0.500000
O O6 0.171773 0.241876 0.602975
O O7 0.282440 0.235841 0.579111
O O8 0.221353 0.000000 0.574944
O O9 0.874228 0.500000 0.388180
O O10 0.941626 0.729109 0.407663
O O11 0.500000 0.000000 0.935962
O O12 0.500000 0.768346 0.000000
O O13 0.642637 0.692887 0.500000
O O14 0.678636 0.500000 0.426702
O O15 0.607170 0.717029 0.399501
O O16 0.000000 0.221642 0.860775
O O17 0.069298 0.000000 0.838922
#
# Coordination Sequence:
#
# PCOD8287808 Si02
#       6
#    16  16  16   8  16  16
#     4   9  17  31  50  73 102 134 168 205 245 292
#     4  10  21  35  50  71 101 134 167 206 253 301
#     4  10  18  31  51  74  98 130 173 211 246 291
#     4   9  16  26  45  73  99 123 160 211 252 284
#     4   9  18  34  55  76  99 130 166 202 243 296
#     4   9  18  32  52  79 106 129 158 199 249 302
#
# _framework density 17.318014000000002
#
# number of rings (size 3 to 8) (size 9 to 14) (size 15 to 20)
#    0.000    2.636    0.909    1.091    0.000    3.636 
#    0.000    3.182    0.000    1.636    0.000    5.091 
#    0.000    0.000    0.000    0.000    0.000    0.000 
#
# Total GULP energy -545655.698403 kJ/mol
# GULP energy per Si atom -12401.265873 kJ/mol
# Density = 1.727860 g / cm^3
# Si number density = 17.318014 Si / 1000 Ang^3
#
#
#
# Elastic Constant Matrix: (Units=GPa)
#
#
# Indices 1 2 3 4 5 6 
#
# 1 114.6279 54.2853 84.3135 0.0000 0.0000 0.0000
# 2 54.2853 58.3355 53.7799 0.0000 0.0000 0.0000
# 3 84.3135 53.7799 124.0734 0.0000 0.0000 0.0000
# 4 0.0000 0.0000 0.0000 29.3114 0.0000 0.0000
# 5 0.0000 0.0000 0.0000 0.0000 25.0834 0.0000
# 6 0.0000 0.0000 0.0000 0.0000 0.0000 19.3815
#
#
#
# Elastic Compliance Matrix: (Units=1/GPa)
#
#
# Indices 1 2 3 4 5 6 
#
# 1 0.020683 -0.010476 -0.009514 0.000000 0.000000 0.000000
# 2 -0.010476 0.033857 -0.007557 0.000000 0.000000 0.000000
# 3 -0.009514 -0.007557 0.017801 0.000000 0.000000 0.000000
# 4 0.000000 0.000000 0.000000 0.034116 0.000000 0.000000
# 5 0.000000 0.000000 0.000000 0.000000 0.039867 0.000000
# 6 0.000000 0.000000 0.000000 0.000000 0.000000 0.051596
#
#
# Mechanical properties :
#
#
# Convention : Reuss Voigt Hill
#
# Bulk Modulus (GPa) = 57.98009 75.75492 66.86750
# Shear Modulus (GPa) = 19.32268 21.73247 20.52757
#
# Velocity S-wave (km/s) = 3.34392 3.54631 3.44660
# Velocity P-wave (km/s) = 6.96142 7.78504 7.38472
#
# Compressibility (1/GPa) = 0.01724730
#
# Stress axis : x y z
#
# Youngs Moduli (GPa) = 48.34830 29.53576 56.17748
#
# Poissons Ratio (x) = 0.30941 0.53450
# Poissons Ratio (y) = 0.50649 0.42452
# Poissons Ratio (z) = 0.46001 0.22319
#
# Static dielectric constant tensor:
#      x y z
#    x 3.198700 0.000000 0.000000 
#    y 0.000000 3.084100 0.000000 
#    z 0.000000 0.000000 3.298410 
# 
# 
# High freq. dielectric constant tensor:
#      x y z
#    x 1.660460 0.000000 0.000000 
#    y 0.000000 1.655500 0.000000 
#    z 0.000000 0.000000 1.671190 
# 
# From -- ./inp_files/10419.got.cif
#   From: 2010.06.25/outbox.cif.g09.slc.cpg/sg71_6_cif.got.tgz:10419.got - 2010.06.28 04:59:45.
