data_PCOD8287789
_publ_section_title
;
Structure prediction by ZEFSAII (Michael W. Deem and Ramdas Pophale) SiO2 
 PCOD8287789
Probable space group: I M M M
;
_chemical_formula_sum "Si O2"
_cell_formula_units_Z 88
_cell_length_a 7.592151
_cell_length_b 20.074953
_cell_length_c 29.659765
_cell_angle_alpha 90.000000
_cell_angle_beta 90.000000
_cell_angle_gamma 90.000000
_cell_volume 4520.506313
_symmetry_space_group_name_H-M "I M M M"
_symmetry_group_IT_number 71
_symmetry_cell_setting 'orthorhombic'
loop_
_space_group_symop_operation_xyz
x,y,z
-x,-y,z
x,-y,-z
-x,y,-z
-x,-y,-z
x,y,-z
-x,y,z
x,-y,z
1/2+x,1/2+y,1/2+z
1/2-x,1/2-y,1/2+z
1/2+x,1/2-y,1/2-z
1/2-x,1/2+y,1/2-z
1/2-x,1/2-y,1/2-z
1/2+x,1/2+y,1/2-z
1/2-x,1/2+y,1/2+z
1/2+x,1/2-y,1/2+z
loop_
_atom_site_type_symbol
_atom_site_label
_atom_site_fract_x
_atom_site_fract_y
_atom_site_fract_z
Si Si1 0.000000 0.658423 0.552557
Si Si2 0.705214 0.424732 0.601870
Si Si3 0.305921 0.103098 0.703462
Si Si4 0.000000 0.784354 0.394608
Si Si5 0.299656 0.754547 0.326753
Si Si6 0.795609 0.111135 0.200888
Si Si7 0.500000 0.428067 0.136685
O O1 0.824638 0.625297 0.573280
O O2 0.000000 0.644354 0.500000
O O3 0.000000 0.739167 0.560166
O O4 0.500000 0.403015 0.597283
O O5 0.732580 0.500000 0.584171
O O6 0.765515 0.422707 0.654274
O O7 0.500000 0.085089 0.685095
O O8 0.274553 0.182612 0.705924
O O9 0.291493 0.077273 0.755052
O O10 0.169259 0.071370 0.669065
O O11 0.823176 0.762896 0.369761
O O12 0.000000 0.865938 0.398906
O O13 0.500000 0.747791 0.344598
O O14 0.242553 0.688868 0.300010
O O15 0.000000 0.100402 0.207820
O O16 0.500000 0.500000 0.110911
#
# Coordination Sequence:
#
# PCOD8287789 Si02
#       7
#     8  16  16   8  16  16   8
#     4  12  25  42  66  91 110 131 181 244 292 350
#     4  10  23  41  58  81 116 156 191 226 277 332
#     4  10  20  31  49  78 111 152 196 237 271 310
#     4  10  20  37  62  81 107 148 180 228 298 338
#     4   9  18  31  50  77 109 146 193 235 270 325
#     4  10  18  31  50  76 113 153 191 236 268 310
#     4  10  22  40  55  78 116 152 193 230 269 337
#
# _framework density 19.466846
#
# number of rings (size 3 to 8) (size 9 to 14) (size 15 to 20)
#    0.000    2.000    2.727    0.818    2.545    2.182 
#    0.000    0.909    0.000    0.273    0.000    0.000 
#    0.000    0.000    0.000   10.727    0.000    0.000 
#
# Total GULP energy -545235.338627 kJ/mol
# GULP energy per Si atom -12391.712242 kJ/mol
# Density = 1.942254 g / cm^3
# Si number density = 19.466846 Si / 1000 Ang^3
#
#
#
# Elastic Constant Matrix: (Units=GPa)
#
#
# Indices 1 2 3 4 5 6 
#
# 1 85.3730 32.6785 18.0108 0.0000 0.0000 0.0000
# 2 32.6785 114.9470 31.5777 0.0000 0.0000 0.0000
# 3 18.0108 31.5777 57.0330 0.0000 0.0000 0.0000
# 4 0.0000 0.0000 0.0000 -3.1385 0.0000 0.0000
# 5 0.0000 0.0000 0.0000 0.0000 13.4063 0.0000
# 6 0.0000 0.0000 0.0000 0.0000 0.0000 -7.0090
#
#
#
# Elastic Compliance Matrix: (Units=1/GPa)
#
#
# Indices 1 2 3 4 5 6 
#
# 1 0.013442 -0.003132 -0.002511 0.000000 0.000000 0.000000
# 2 -0.003132 0.010990 -0.005096 0.000000 0.000000 0.000000
# 3 -0.002511 -0.005096 0.021148 0.000000 0.000000 0.000000
# 4 0.000000 0.000000 0.000000 -0.318622 0.000000 0.000000
# 5 0.000000 0.000000 0.000000 0.000000 0.074592 0.000000
# 6 0.000000 0.000000 0.000000 0.000000 0.000000 -0.142674
#
#
# Mechanical properties :
#
#
# Convention : Reuss Voigt Hill
#
# Bulk Modulus (GPa) = 41.48884 46.87634 44.18259
# Shear Modulus (GPa) = -16.04555 12.32416 -1.86069
#
# Velocity S-wave (km/s) = -2.87409 2.51885 -0.97872
# Velocity P-wave (km/s) = 3.21636 5.70892 4.63340
#
# Compressibility (1/GPa) = 0.02410286
#
# Stress axis : x y z
#
# Youngs Moduli (GPa) = 74.39528 90.99304 47.28558
#
# Poissons Ratio (x) = 0.28495 0.11873
# Poissons Ratio (y) = 0.23297 0.24096
# Poissons Ratio (z) = 0.18680 0.46369
#
# Static dielectric constant tensor:
#      x y z
#    x 3.670100 0.000000 0.000000 
#    y 0.000000 3.765680 0.000000 
#    z 0.000000 0.000000 3.074770 
# 
# 
# High freq. dielectric constant tensor:
#      x y z
#    x 1.772080 0.000000 0.000000 
#    y 0.000000 1.765430 0.000000 
#    z 0.000000 0.000000 1.693460 
# 
# From -- ./inp_files/57595.got.cif
#   From: 2010.06.25/outbox.cif.g09.slc.cpg/sg71_29_cif.got.tgz:57595.got - 2010.06.28 04:59:45.
