data_PCOD8287797
_publ_section_title
;
Structure prediction by ZEFSAII (Michael W. Deem and Ramdas Pophale) SiO2 
 PCOD8287797
Probable space group: I M M M
;
_chemical_formula_sum "Si O2"
_cell_formula_units_Z 128
_cell_length_a 22.407449
_cell_length_b 17.974378
_cell_length_c 17.854788
_cell_angle_alpha 90.000000
_cell_angle_beta 90.000000
_cell_angle_gamma 90.000000
_cell_volume 7191.193671
_symmetry_space_group_name_H-M "I M M M"
_symmetry_group_IT_number 71
_symmetry_cell_setting 'orthorhombic'
loop_
_space_group_symop_operation_xyz
x,y,z
-x,-y,z
x,-y,-z
-x,y,-z
-x,-y,-z
x,y,-z
-x,y,z
x,-y,z
1/2+x,1/2+y,1/2+z
1/2-x,1/2-y,1/2+z
1/2+x,1/2-y,1/2-z
1/2-x,1/2+y,1/2-z
1/2-x,1/2-y,1/2-z
1/2+x,1/2+y,1/2-z
1/2-x,1/2+y,1/2+z
1/2+x,1/2-y,1/2+z
loop_
_atom_site_type_symbol
_atom_site_label
_atom_site_fract_x
_atom_site_fract_y
_atom_site_fract_z
Si Si1 0.430498 0.765114 0.916953
Si Si2 0.774792 0.085795 0.760792
Si Si3 0.852323 0.364208 0.220374
Si Si4 0.318894 0.587246 0.418523
Si Si5 0.566463 0.330817 0.368237
Si Si6 0.932384 0.664528 0.084821
Si Si7 0.568890 0.081753 0.851912
Si Si8 0.130832 0.203096 0.276250
O O1 0.500000 0.752483 0.901702
O O2 0.414684 0.853082 0.910162
O O3 0.394390 0.715020 0.859085
O O4 0.412265 0.739479 0.000000
O O5 0.710663 0.094239 0.722867
O O6 0.775456 0.110720 0.849399
O O7 0.820169 0.138580 0.716332
O O8 0.795530 0.000000 0.753477
O O9 0.882678 0.371880 0.138746
O O10 0.896075 0.406533 0.275712
O O11 0.840667 0.278913 0.243926
O O12 0.296441 0.618706 0.500000
O O13 0.321326 0.500000 0.423690
O O14 0.386116 0.613498 0.403620
O O15 0.500000 0.363826 0.378484
O O16 0.572436 0.253149 0.410894
O O17 0.577822 0.320833 0.279384
O O18 0.000000 0.640261 0.107688
O O19 0.918362 0.639087 0.000000
O O20 0.500000 0.086312 0.829939
O O21 0.584534 0.000000 0.886081
#
# Coordination Sequence:
#
# PCOD8287797 Si02
#       8
#    16  16  16  16  16  16  16  16
#     4   9  17  30  50  74  98 126 159 196 242 292
#     4  10  20  34  51  69  92 128 169 205 242 284
#     4  10  18  31  51  72  94 127 168 200 230 283
#     4   9  18  31  45  65  97 131 159 192 234 278
#     4   9  16  27  46  71  97 126 159 191 230 285
#     4   9  17  29  47  72  99 123 151 196 248 288
#     4   9  17  29  47  73 103 130 154 185 230 286
#     4   9  18  32  49  70  97 127 162 204 244 283
#
# _framework density 17.799548000000001
#
# number of rings (size 3 to 8) (size 9 to 14) (size 15 to 20)
#    0.000    2.750    0.000    1.875    0.000    4.250 
#    0.000    5.000    0.000    6.750    0.000    5.250 
#    0.000    0.000    0.000    0.000    0.000    0.000 
#
# Total GULP energy -793221.980602 kJ/mol
# GULP energy per Si atom -12394.093447 kJ/mol
# Density = 1.775904 g / cm^3
# Si number density = 17.799548 Si / 1000 Ang^3
#
#
#
# Elastic Constant Matrix: (Units=GPa)
#
#
# Indices 1 2 3 4 5 6 
#
# 1 77.1824 23.7068 55.0878 0.0000 0.0000 0.0000
# 2 23.7068 34.7972 38.6773 0.0000 0.0000 0.0000
# 3 55.0878 38.6773 131.2902 0.0000 0.0000 0.0000
# 4 0.0000 0.0000 0.0000 16.6838 0.0000 0.0000
# 5 0.0000 0.0000 0.0000 0.0000 19.8595 0.0000
# 6 0.0000 0.0000 0.0000 0.0000 0.0000 20.8782
#
#
#
# Elastic Compliance Matrix: (Units=1/GPa)
#
#
# Indices 1 2 3 4 5 6 
#
# 1 0.019350 -0.006183 -0.006298 0.000000 0.000000 0.000000
# 2 -0.006183 0.044705 -0.010575 0.000000 0.000000 0.000000
# 3 -0.006298 -0.010575 0.013375 0.000000 0.000000 0.000000
# 4 0.000000 0.000000 0.000000 0.059938 0.000000 0.000000
# 5 0.000000 0.000000 0.000000 0.000000 0.050354 0.000000
# 6 0.000000 0.000000 0.000000 0.000000 0.000000 0.047897
#
#
# Mechanical properties :
#
#
# Convention : Reuss Voigt Hill
#
# Bulk Modulus (GPa) = 31.93108 53.13486 42.53297
# Shear Modulus (GPa) = 17.11327 19.87083 18.49205
#
# Velocity S-wave (km/s) = 3.10408 3.34483 3.22670
# Velocity P-wave (km/s) = 5.55205 6.69581 6.15057
#
# Compressibility (1/GPa) = 0.03131745
#
# Stress axis : x y z
#
# Youngs Moduli (GPa) = 51.67862 22.36878 74.76861
#
# Poissons Ratio (x) = 0.13831 0.47087
# Poissons Ratio (y) = 0.31954 0.79071
# Poissons Ratio (z) = 0.32545 0.23656
#
# Static dielectric constant tensor:
#      x y z
#    x 3.221060 0.000000 0.000000 
#    y 0.000000 3.216860 0.000000 
#    z 0.000000 0.000000 3.456220 
# 
# 
# High freq. dielectric constant tensor:
#      x y z
#    x 1.677460 0.000000 0.000000 
#    y 0.000000 1.671390 0.000000 
#    z 0.000000 0.000000 1.683210 
# 
# From -- ./inp_files/46675.got.cif
#   From: 2010.06.25/outbox.cif.g09.slc.cpg/sg71_24_cif.got.tgz:46675.got - 2010.06.28 04:59:45.
