data_PCOD8287386
_publ_section_title
;
Structure prediction by ZEFSAII (Michael W. Deem and Ramdas Pophale) SiO2 
 PCOD8287386
Probable space group: I M M M
;
_chemical_formula_sum "Si O2"
_cell_formula_units_Z 80
_cell_length_a 26.396523
_cell_length_b 8.746225
_cell_length_c 23.778568
_cell_angle_alpha 90.000000
_cell_angle_beta 90.000000
_cell_angle_gamma 90.000000
_cell_volume 5489.756315
_symmetry_space_group_name_H-M "I M M M"
_symmetry_group_IT_number 71
_symmetry_cell_setting 'orthorhombic'
loop_
_space_group_symop_operation_xyz
x,y,z
-x,-y,z
x,-y,-z
-x,y,-z
-x,-y,-z
x,y,-z
-x,y,z
x,-y,z
1/2+x,1/2+y,1/2+z
1/2-x,1/2-y,1/2+z
1/2+x,1/2-y,1/2-z
1/2-x,1/2+y,1/2-z
1/2-x,1/2-y,1/2-z
1/2+x,1/2+y,1/2-z
1/2-x,1/2+y,1/2+z
1/2+x,1/2-y,1/2+z
loop_
_atom_site_type_symbol
_atom_site_label
_atom_site_fract_x
_atom_site_fract_y
_atom_site_fract_z
Si Si1 0.602303 0.180672 0.500000
Si Si2 0.794121 0.180425 0.712785
Si Si3 0.244093 0.181171 0.885008
Si Si4 0.147585 0.820487 0.815871
Si Si5 0.557078 0.680503 0.611077
Si Si6 0.718006 0.818827 0.500000
O O1 0.572658 0.240020 0.446243
O O2 0.660055 0.241806 0.500000
O O3 0.601592 0.000000 0.500000
O O4 0.750000 0.250000 0.750000
O O5 0.792702 0.261297 0.651731
O O6 0.845071 0.218777 0.749319
O O7 0.786827 0.000000 0.705361
O O8 0.193172 0.245052 0.854621
O O9 0.247612 0.254589 0.946251
O O10 0.245767 0.000000 0.890048
O O11 0.093652 0.759389 0.838606
O O12 0.150255 0.000000 0.823980
O O13 0.500000 0.727427 0.627364
O O14 0.562039 0.500000 0.602214
O O15 0.720347 0.000000 0.500000
#
# Coordination Sequence:
#
# PCOD8287386 Si02
#       6
#     8  16  16  16  16   8
#     4  11  22  32  41  56  80 108 140 181 221 249
#     4   9  16  27  42  60  81 103 132 168 206 250
#     4  10  18  29  44  60  80 106 135 170 209 249
#     4   8  15  27  42  59  78 102 132 171 210 241
#     4  10  19  31  46  60  76 106 146 179 209 248
#     4  11  21  30  42  61  82 110 141 173 210 251
#
# _framework density 14.572596000000001
#
# number of rings (size 3 to 8) (size 9 to 14) (size 15 to 20)
#    0.000    2.400    2.000    3.300    0.000    2.400 
#    0.000    1.000    0.000    0.000    0.000    0.000 
#    0.000    0.000    0.000    0.900    0.000   21.200 
#
# Total GULP energy -495679.072640 kJ/mol
# GULP energy per Si atom -12391.976816 kJ/mol
# Density = 1.453943 g / cm^3
# Si number density = 14.572596 Si / 1000 Ang^3
#
#
#
# Elastic Constant Matrix: (Units=GPa)
#
#
# Indices 1 2 3 4 5 6 
#
# 1 68.1405 21.0170 63.0466 0.0000 0.0000 0.0000
# 2 21.0170 50.1453 34.3136 0.0000 0.0000 0.0000
# 3 63.0466 34.3136 126.2827 0.0000 0.0000 0.0000
# 4 0.0000 0.0000 0.0000 22.5374 0.0000 0.0000
# 5 0.0000 0.0000 0.0000 0.0000 10.4398 0.0000
# 6 0.0000 0.0000 0.0000 0.0000 0.0000 12.9683
#
#
#
# Elastic Compliance Matrix: (Units=1/GPa)
#
#
# Indices 1 2 3 4 5 6 
#
# 1 0.027552 -0.002623 -0.013043 0.000000 0.000000 0.000000
# 2 -0.002623 0.024747 -0.005415 0.000000 0.000000 0.000000
# 3 -0.013043 -0.005415 0.015902 0.000000 0.000000 0.000000
# 4 0.000000 0.000000 0.000000 0.044371 0.000000 0.000000
# 5 0.000000 0.000000 0.000000 0.000000 0.095787 0.000000
# 6 0.000000 0.000000 0.000000 0.000000 0.000000 0.077111
#
#
# Mechanical properties :
#
#
# Convention : Reuss Voigt Hill
#
# Bulk Modulus (GPa) = 38.40270 53.48032 45.94151
# Shear Modulus (GPa) = 14.86724 17.60187 16.23455
#
# Velocity S-wave (km/s) = 3.19755 3.47922 3.34136
# Velocity P-wave (km/s) = 6.32790 7.27454 6.81767
#
# Compressibility (1/GPa) = 0.02603983
#
# Stress axis : x y z
#
# Youngs Moduli (GPa) = 36.29467 40.40973 62.88669
#
# Poissons Ratio (x) = 0.10599 0.82022
# Poissons Ratio (y) = 0.09519 0.34051
# Poissons Ratio (z) = 0.47338 0.21881
#
# Static dielectric constant tensor:
#      x y z
#    x 2.936930 0.000000 0.000000 
#    y 0.000000 2.812160 0.000000 
#    z 0.000000 0.000000 3.046850 
# 
# 
# High freq. dielectric constant tensor:
#      x y z
#    x 1.514170 0.000000 0.000000 
#    y 0.000000 1.557160 0.000000 
#    z 0.000000 0.000000 1.553820 
# 
# From -- ./inp_files/11268.got.cif
#   From: 2010.06.25/outbox.cif.g09.slc.cpg/sg71_6_cif.got.tgz:11268.got - 2010.06.28 04:59:45.
