data_PCOD8287766
_publ_section_title
;
Structure prediction by ZEFSAII (Michael W. Deem and Ramdas Pophale) SiO2 
 PCOD8287766
Probable space group: I M M M
;
_chemical_formula_sum "Si O2"
_cell_formula_units_Z 96
_cell_length_a 11.885562
_cell_length_b 25.114464
_cell_length_c 18.940233
_cell_angle_alpha 90.000000
_cell_angle_beta 90.000000
_cell_angle_gamma 90.000000
_cell_volume 5653.650440
_symmetry_space_group_name_H-M "I M M M"
_symmetry_group_IT_number 71
_symmetry_cell_setting 'orthorhombic'
loop_
_space_group_symop_operation_xyz
x,y,z
-x,-y,z
x,-y,-z
-x,y,-z
-x,-y,-z
x,y,-z
-x,y,z
x,-y,z
1/2+x,1/2+y,1/2+z
1/2-x,1/2-y,1/2+z
1/2+x,1/2-y,1/2-z
1/2-x,1/2+y,1/2-z
1/2-x,1/2-y,1/2-z
1/2+x,1/2+y,1/2-z
1/2-x,1/2+y,1/2+z
1/2+x,1/2-y,1/2+z
loop_
_atom_site_type_symbol
_atom_site_label
_atom_site_fract_x
_atom_site_fract_y
_atom_site_fract_z
Si Si1 0.000000 0.939149 0.720682
Si Si2 0.368114 0.634982 0.581795
Si Si3 0.124433 0.746356 0.916164
Si Si4 0.745365 0.645056 0.918622
Si Si5 0.370036 0.061891 0.678194
Si Si6 0.286140 0.562021 0.302726
Si Si7 0.500000 0.387690 0.921655
O O1 0.112058 0.914445 0.754808
O O2 0.000000 0.933862 0.636252
O O3 0.000000 0.000000 0.740338
O O4 0.336888 0.628018 0.500000
O O5 0.500000 0.622023 0.593837
O O6 0.339707 0.694691 0.609174
O O7 0.287754 0.594737 0.624536
O O8 0.208718 0.701017 0.887714
O O9 0.000000 0.732621 0.887347
O O10 0.122320 0.747539 0.000000
O O11 0.797717 0.595512 0.877128
O O12 0.610591 0.648369 0.910961
O O13 0.781616 0.637724 0.000000
O O14 0.500000 0.078593 0.673905
O O15 0.327717 0.072057 0.758317
O O16 0.351929 0.000000 0.658323
O O17 0.300132 0.500000 0.321456
O O18 0.500000 0.413799 0.000000
#
# Coordination Sequence:
#
# PCOD8287766 Si02
#       7
#     8  16  16  16  16  16   8
#     4  10  18  31  49  70  98 135 165 189 237 299
#     4   9  17  30  51  79 104 125 158 201 245 297
#     4   8  15  29  49  71  96 129 163 198 242 286
#     4  10  19  32  51  73  99 130 165 204 243 287
#     4  10  21  35  51  70  96 132 169 205 243 285
#     4  10  19  32  51  73 101 133 160 196 248 299
#     4  10  20  31  48  73 101 134 167 201 239 284
#
# _framework density 16.980179
#
# number of rings (size 3 to 8) (size 9 to 14) (size 15 to 20)
#    0.000    2.500    2.500    1.500    0.000    1.833 
#    0.000    4.167    1.833    0.500    0.000    2.333 
#    0.000    0.000    0.000    0.000    0.000    0.000 
#
# Total GULP energy -594957.961209 kJ/mol
# GULP energy per Si atom -12394.957525 kJ/mol
# Density = 1.694153 g / cm^3
# Si number density = 16.980179 Si / 1000 Ang^3
#
#
#
# Elastic Constant Matrix: (Units=GPa)
#
#
# Indices 1 2 3 4 5 6 
#
# 1 101.8256 49.6735 35.7127 0.0000 0.0000 0.0000
# 2 49.6735 92.4864 46.9404 0.0000 0.0000 0.0000
# 3 35.7127 46.9404 73.3441 -0.0001 0.0000 0.0000
# 4 0.0000 0.0000 -0.0001 15.4658 0.0000 0.0000
# 5 0.0000 0.0000 0.0000 0.0000 19.7614 0.0000
# 6 0.0000 0.0000 0.0000 0.0000 0.0000 19.9583
#
#
#
# Elastic Compliance Matrix: (Units=1/GPa)
#
#
# Indices 1 2 3 4 5 6 
#
# 1 0.013714 -0.005889 -0.002908 0.000000 0.000000 0.000000
# 2 -0.005889 0.018544 -0.009000 0.000000 0.000000 0.000000
# 3 -0.002908 -0.009000 0.020811 0.000000 0.000000 0.000000
# 4 0.000000 0.000000 0.000000 0.064659 0.000000 0.000000
# 5 0.000000 0.000000 0.000000 0.000000 0.050604 0.000000
# 6 0.000000 0.000000 0.000000 0.000000 0.000000 0.050105
#
#
# Mechanical properties :
#
#
# Convention : Reuss Voigt Hill
#
# Bulk Modulus (GPa) = 57.23420 59.14547 58.18983
# Shear Modulus (GPa) = 19.24152 20.05906 19.65029
#
# Velocity S-wave (km/s) = 3.36992 3.44077 3.40553
# Velocity P-wave (km/s) = 6.99439 7.11989 7.05742
#
# Compressibility (1/GPa) = 0.01747207
#
# Stress axis : x y z
#
# Youngs Moduli (GPa) = 72.91950 53.92718 48.05250
#
# Poissons Ratio (x) = 0.31760 0.13975
# Poissons Ratio (y) = 0.42946 0.43248
# Poissons Ratio (z) = 0.21207 0.48536
#
# Static dielectric constant tensor:
#      x y z
#    x 3.284370 0.000000 0.000000 
#    y 0.000000 3.170210 0.000000 
#    z 0.000000 0.000000 2.988070 
# 
# 
# High freq. dielectric constant tensor:
#      x y z
#    x 1.646400 0.000000 0.000000 
#    y 0.000000 1.645730 0.000000 
#    z 0.000000 0.000000 1.636710 
# 
# From -- ./inp_files/48070.got.cif
#   From: 2010.06.25/outbox.cif.g09.slc.cpg/sg71_25_cif.got.tgz:48070.got - 2010.06.28 04:59:45.
