data_PCOD8287113
_publ_section_title
;
Structure prediction by ZEFSAII (Michael W. Deem and Ramdas Pophale) SiO2 
 PCOD8287113
Probable space group: I M M M
;
_chemical_formula_sum "Si O2"
_cell_formula_units_Z 96
_cell_length_a 20.945436
_cell_length_b 11.910389
_cell_length_c 23.866835
_cell_angle_alpha 90.000000
_cell_angle_beta 90.000000
_cell_angle_gamma 90.000000
_cell_volume 5954.018528
_symmetry_space_group_name_H-M "I M M M"
_symmetry_group_IT_number 71
_symmetry_cell_setting 'orthorhombic'
loop_
_space_group_symop_operation_xyz
x,y,z
-x,-y,z
x,-y,-z
-x,y,-z
-x,-y,-z
x,y,-z
-x,y,z
x,-y,z
1/2+x,1/2+y,1/2+z
1/2-x,1/2-y,1/2+z
1/2+x,1/2-y,1/2-z
1/2-x,1/2+y,1/2-z
1/2-x,1/2-y,1/2-z
1/2+x,1/2+y,1/2-z
1/2-x,1/2+y,1/2+z
1/2+x,1/2-y,1/2+z
loop_
_atom_site_type_symbol
_atom_site_label
_atom_site_fract_x
_atom_site_fract_y
_atom_site_fract_z
Si Si1 0.617467 0.375285 0.869046
Si Si2 0.281926 0.500000 0.068078
Si Si3 0.573547 0.779553 0.563167
Si Si4 0.075507 0.876074 0.160431
Si Si5 0.926397 0.500000 0.777134
Si Si6 0.500000 0.366498 0.938983
Si Si7 0.074726 0.259720 0.269175
Si Si8 0.861937 0.500000 0.103534
O O1 0.597879 0.500000 0.845975
O O2 0.681352 0.388930 0.907379
O O3 0.562726 0.323444 0.907907
O O4 0.621839 0.288971 0.817124
O O5 0.213609 0.500000 0.096516
O O6 0.281238 0.500000 0.000000
O O7 0.582201 0.735835 0.500000
O O8 0.500000 0.805926 0.577390
O O9 0.600695 0.683273 0.603950
O O10 0.612110 0.892700 0.571436
O O11 0.096744 0.801255 0.212616
O O12 0.000000 0.886439 0.158179
O O13 0.106374 0.000000 0.164624
O O14 0.912814 0.392050 0.738455
O O15 0.880971 0.500000 0.831200
O O16 0.000000 0.500000 0.798281
O O17 0.500000 0.500000 0.943904
O O18 0.500000 0.310780 0.000000
O O19 0.000000 0.234985 0.282934
#
# Coordination Sequence:
#
# PCOD8287113 Si02
#       8
#    16   8  16  16   8   8  16   8
#     4   9  18  29  49  76 105 129 160 202 256 313
#     4  10  22  35  50  77 108 134 168 215 264 304
#     4  10  19  30  48  72  96 127 172 219 260 304
#     4   9  17  27  44  69 102 130 157 201 259 310
#     4  10  20  32  54  76 105 136 174 215 253 296
#     4   9  14  24  46  75 103 125 152 196 252 310
#     4  10  17  30  49  77 103 132 165 205 255 309
#     4  12  20  35  51  72  96 141 176 214 254 292
#
# _framework density 16.123563999999998
#
# number of rings (size 3 to 8) (size 9 to 14) (size 15 to 20)
#    0.500    1.750    2.500    2.500    0.000    1.667 
#    0.000    2.500    0.000    0.000    0.000    2.917 
#    0.000    0.000    0.000    0.000    0.000    0.000 
#
# Total GULP energy -594886.077086 kJ/mol
# GULP energy per Si atom -12393.459939 kJ/mol
# Density = 1.608687 g / cm^3
# Si number density = 16.123564 Si / 1000 Ang^3
#
#
#
# Elastic Constant Matrix: (Units=GPa)
#
#
# Indices 1 2 3 4 5 6 
#
# 1 73.1762 24.0301 39.9845 0.0000 0.0000 0.0000
# 2 24.0301 105.4971 53.4000 0.0000 0.0000 0.0000
# 3 39.9845 53.4000 123.3508 0.0000 0.0000 0.0000
# 4 0.0000 0.0000 0.0000 23.0355 0.0000 0.0000
# 5 0.0000 0.0000 0.0000 0.0000 18.4722 0.0000
# 6 0.0000 0.0000 0.0000 0.0000 0.0000 10.5307
#
#
#
# Elastic Compliance Matrix: (Units=1/GPa)
#
#
# Indices 1 2 3 4 5 6 
#
# 1 0.016760 -0.001367 -0.004841 0.000000 0.000000 0.000000
# 2 -0.001367 0.012250 -0.004860 0.000000 0.000000 0.000000
# 3 -0.004841 -0.004860 0.011780 0.000000 0.000000 0.000000
# 4 0.000000 0.000000 0.000000 0.043411 0.000000 0.000000
# 5 0.000000 0.000000 0.000000 0.000000 0.054135 0.000000
# 6 0.000000 0.000000 0.000000 0.000000 0.000000 0.094960
#
#
# Mechanical properties :
#
#
# Convention : Reuss Voigt Hill
#
# Bulk Modulus (GPa) = 53.60812 59.65035 56.62924
# Shear Modulus (GPa) = 19.10936 22.71497 20.91217
#
# Velocity S-wave (km/s) = 3.44638 3.75748 3.60529
# Velocity P-wave (km/s) = 7.01122 7.47669 7.24769
#
# Compressibility (1/GPa) = 0.01865389
#
# Stress axis : x y z
#
# Youngs Moduli (GPa) = 59.66690 81.62960 84.88855
#
# Poissons Ratio (x) = 0.11161 0.41093
# Poissons Ratio (y) = 0.08158 0.41257
# Poissons Ratio (z) = 0.28884 0.39673
#
# Static dielectric constant tensor:
#      x y z
#    x 2.708690 0.000000 0.000000 
#    y 0.000000 3.029940 0.000000 
#    z 0.000000 0.000000 3.135470 
# 
# 
# High freq. dielectric constant tensor:
#      x y z
#    x 1.575720 0.000000 0.000000 
#    y 0.000000 1.600980 0.000000 
#    z 0.000000 0.000000 1.630290 
# 
# From -- ./inp_files/66557.got.cif
#   From: 2010.06.25/outbox.cif.g09.slc.cpg/sg71_34_cif.got.tgz:66557.got - 2010.06.28 04:59:45.
