data_PCOD8287505
_publ_section_title
;
Structure prediction by ZEFSAII (Michael W. Deem and Ramdas Pophale) SiO2 
 PCOD8287505
Probable space group: I M M M
;
_chemical_formula_sum "Si O2"
_cell_formula_units_Z 88
_cell_length_a 32.193116
_cell_length_b 16.746317
_cell_length_c 7.788517
_cell_angle_alpha 90.000000
_cell_angle_beta 90.000000
_cell_angle_gamma 90.000000
_cell_volume 4198.915110
_symmetry_space_group_name_H-M "I M M M"
_symmetry_group_IT_number 71
_symmetry_cell_setting 'orthorhombic'
loop_
_space_group_symop_operation_xyz
x,y,z
-x,-y,z
x,-y,-z
-x,y,-z
-x,-y,-z
x,y,-z
-x,y,z
x,-y,z
1/2+x,1/2+y,1/2+z
1/2-x,1/2-y,1/2+z
1/2+x,1/2-y,1/2-z
1/2-x,1/2+y,1/2-z
1/2-x,1/2-y,1/2-z
1/2+x,1/2+y,1/2-z
1/2-x,1/2+y,1/2+z
1/2+x,1/2-y,1/2+z
loop_
_atom_site_type_symbol
_atom_site_label
_atom_site_fract_x
_atom_site_fract_y
_atom_site_fract_z
Si Si1 0.952597 0.809949 0.308294
Si Si2 0.177284 0.409079 0.703198
Si Si3 0.232780 0.905164 0.309145
Si Si4 0.677198 0.595357 0.500000
Si Si5 0.416759 0.594445 0.500000
Si Si6 0.453208 0.000000 0.295637
Si Si7 0.592486 0.156553 0.697720
O O1 0.948213 0.846521 0.500000
O O2 0.939310 0.876230 0.171508
O O3 0.923591 0.732472 0.300800
O O4 0.000000 0.784355 0.270570
O O5 0.176641 0.406052 0.500000
O O6 0.170688 0.500000 0.768991
O O7 0.220941 0.373683 0.769704
O O8 0.141808 0.352790 0.781082
O O9 0.219009 0.877569 0.500000
O O10 0.233597 0.000000 0.293966
O O11 0.200271 0.870979 0.169951
O O12 0.677579 0.500000 0.500000
O O13 0.630312 0.627817 0.500000
O O14 0.418160 0.500000 0.500000
O O15 0.429807 0.921922 0.224967
O O16 0.500000 0.000000 0.224874
O O17 0.451992 0.000000 0.500000
O O18 0.580651 0.170010 0.500000
#
# Coordination Sequence:
#
# PCOD8287505 Si02
#       7
#    16  16  16   8   8   8  16
#     4  11  25  45  68  96 129 167 208 255 320 392
#     4  10  18  29  48  81 128 172 222 270 303 341
#     4   9  16  28  50  82 122 164 204 251 302 359
#     4   9  18  35  58  91 123 152 196 254 317 381
#     4  11  25  46  75 101 124 154 200 263 332 406
#     4   9  18  30  49  81 123 170 221 271 308 351
#     4  11  20  34  57  87 126 173 221 265 309 361
#
# _framework density 20.957795000000001
#
# number of rings (size 3 to 8) (size 9 to 14) (size 15 to 20)
#    0.000    1.909    2.727    1.909    0.000    3.273 
#    0.000    2.727    0.000    3.273    0.000    0.000 
#    0.000    0.000    0.000    0.000    0.000    0.000 
#
# Total GULP energy -545694.324081 kJ/mol
# GULP energy per Si atom -12402.143729 kJ/mol
# Density = 2.091009 g / cm^3
# Si number density = 20.957795 Si / 1000 Ang^3
#
#
#
# Elastic Constant Matrix: (Units=GPa)
#
#
# Indices 1 2 3 4 5 6 
#
# 1 119.9579 24.8157 57.1765 0.0000 0.0000 0.0000
# 2 24.8157 59.6643 29.1612 0.0000 0.0000 0.0000
# 3 57.1765 29.1612 132.5377 0.0000 0.0000 0.0000
# 4 0.0000 0.0000 0.0000 12.5932 0.0000 0.0000
# 5 0.0000 0.0000 0.0000 0.0000 32.0450 0.0000
# 6 0.0000 0.0000 0.0000 0.0000 0.0000 20.9994
#
#
#
# Elastic Compliance Matrix: (Units=1/GPa)
#
#
# Indices 1 2 3 4 5 6 
#
# 1 0.010813 -0.002485 -0.004118 0.000000 0.000000 0.000000
# 2 -0.002485 0.019351 -0.003186 0.000000 0.000000 0.000000
# 3 -0.004118 -0.003186 0.010022 0.000000 0.000000 0.000000
# 4 0.000000 0.000000 0.000000 0.079408 0.000000 0.000000
# 5 0.000000 0.000000 0.000000 0.000000 0.031206 0.000000
# 6 0.000000 0.000000 0.000000 0.000000 0.000000 0.047620
#
#
# Mechanical properties :
#
#
# Convention : Reuss Voigt Hill
#
# Bulk Modulus (GPa) = 48.52127 59.38519 53.95323
# Shear Modulus (GPa) = 22.23528 26.52796 24.38162
#
# Velocity S-wave (km/s) = 3.26076 3.56164 3.41452
# Velocity P-wave (km/s) = 6.11383 6.73133 6.43000
#
# Compressibility (1/GPa) = 0.02060952
#
# Stress axis : x y z
#
# Youngs Moduli (GPa) = 92.48059 51.67716 99.77573
#
# Poissons Ratio (x) = 0.12840 0.41088
# Poissons Ratio (y) = 0.22978 0.31786
# Poissons Ratio (z) = 0.38084 0.16463
#
# Static dielectric constant tensor:
#      x y z
#    x 3.971030 0.000000 0.000000 
#    y 0.000000 3.319110 0.000000 
#    z 0.000000 0.000000 3.824370 
# 
# 
# High freq. dielectric constant tensor:
#      x y z
#    x 1.830620 0.000000 0.000000 
#    y 0.000000 1.777760 0.000000 
#    z 0.000000 0.000000 1.827570 
# 
# From -- ./inp_files/16739.got.cif
#   From: 2010.06.25/outbox.cif.g09.slc.cpg/sg71_9_cif.got.tgz:16739.got - 2010.06.28 04:59:45.
