data_PCOD8287539
_publ_section_title
;
Structure prediction by ZEFSAII (Michael W. Deem and Ramdas Pophale) SiO2 
 PCOD8287539
Probable space group: I M M M
;
_chemical_formula_sum "Si O2"
_cell_formula_units_Z 120
_cell_length_a 17.767077
_cell_length_b 19.627323
_cell_length_c 19.038401
_cell_angle_alpha 90.000000
_cell_angle_beta 90.000000
_cell_angle_gamma 90.000000
_cell_volume 6639.074225
_symmetry_space_group_name_H-M "I M M M"
_symmetry_group_IT_number 71
_symmetry_cell_setting 'orthorhombic'
loop_
_space_group_symop_operation_xyz
x,y,z
-x,-y,z
x,-y,-z
-x,y,-z
-x,-y,-z
x,y,-z
-x,y,z
x,-y,z
1/2+x,1/2+y,1/2+z
1/2-x,1/2-y,1/2+z
1/2+x,1/2-y,1/2-z
1/2-x,1/2+y,1/2-z
1/2-x,1/2-y,1/2-z
1/2+x,1/2+y,1/2-z
1/2-x,1/2+y,1/2+z
1/2+x,1/2-y,1/2+z
loop_
_atom_site_type_symbol
_atom_site_label
_atom_site_fract_x
_atom_site_fract_y
_atom_site_fract_z
Si Si1 0.587649 0.074370 0.830772
Si Si2 0.795955 0.648872 0.921572
Si Si3 0.912971 0.802339 0.206388
Si Si4 0.364036 0.334980 0.143856
Si Si5 0.500000 0.579243 0.082952
Si Si6 0.818153 0.808009 0.922892
Si Si7 0.149709 0.310403 0.418178
Si Si8 0.913094 0.641999 0.189739
O O1 0.500000 0.066499 0.820570
O O2 0.600975 0.125173 0.895204
O O3 0.619670 0.103608 0.757774
O O4 0.623693 0.000000 0.846433
O O5 0.716770 0.638331 0.882072
O O6 0.816415 0.727228 0.929044
O O7 0.863002 0.615637 0.875791
O O8 0.792340 0.616128 0.000000
O O9 0.868203 0.835056 0.271582
O O10 0.878212 0.833487 0.134625
O O11 0.902219 0.721501 0.205755
O O12 0.000000 0.823294 0.211060
O O13 0.426057 0.385358 0.113372
O O14 0.379576 0.257689 0.119500
O O15 0.500000 0.500000 0.104942
O O16 0.500000 0.588190 0.000000
O O17 0.735124 0.830657 0.898894
O O18 0.839419 0.838242 0.000000
O O19 0.140098 0.296532 0.500000
O O20 0.000000 0.625103 0.172785
#
# Coordination Sequence:
#
# PCOD8287539 Si02
#       8
#    16  16  16  16   8  16  16  16
#     4  10  21  35  49  71 107 143 176 217 264 314
#     4   9  18  31  51  79 107 139 178 221 272 320
#     4  10  18  29  51  81 105 136 180 221 262 315
#     4  11  20  34  55  81 109 138 179 224 263 319
#     4  11  24  40  56  76 110 150 178 216 273 316
#     4   8  17  31  48  77 112 138 167 218 274 316
#     4  10  20  33  54  79 103 137 180 219 261 318
#     4   9  18  32  51  76 105 139 179 222 268 318
#
# _framework density 18.074808999999998
#
# number of rings (size 3 to 8) (size 9 to 14) (size 15 to 20)
#    0.000    2.333    2.000    2.000    2.800    2.667 
#    0.000    4.000    0.000    1.200    0.000    1.867 
#    0.000    0.533    0.000    0.000    0.000    0.000 
#
# Total GULP energy -743797.822566 kJ/mol
# GULP energy per Si atom -12396.630376 kJ/mol
# Density = 1.803367 g / cm^3
# Si number density = 18.074809 Si / 1000 Ang^3
#
#
#
# Elastic Constant Matrix: (Units=GPa)
#
#
# Indices 1 2 3 4 5 6 
#
# 1 82.2529 25.7483 54.4204 0.0000 0.0000 0.0000
# 2 25.7483 57.8710 28.1029 0.0000 0.0000 0.0000
# 3 54.4204 28.1029 120.6842 0.0000 0.0000 0.0000
# 4 0.0000 0.0000 0.0000 13.2183 0.0000 0.0000
# 5 0.0000 0.0000 0.0000 0.0000 29.3217 0.0000
# 6 0.0000 0.0000 0.0000 0.0000 0.0000 7.7787
#
#
#
# Elastic Compliance Matrix: (Units=1/GPa)
#
#
# Indices 1 2 3 4 5 6 
#
# 1 0.018388 -0.004685 -0.007201 0.000000 0.000000 0.000000
# 2 -0.004685 0.020676 -0.002702 0.000000 0.000000 0.000000
# 3 -0.007201 -0.002702 0.012163 0.000000 0.000000 0.000000
# 4 0.000000 0.000000 0.000000 0.075653 0.000000 0.000000
# 5 0.000000 0.000000 0.000000 0.000000 0.034104 0.000000
# 6 0.000000 0.000000 0.000000 0.000000 0.000000 0.128557
#
#
# Mechanical properties :
#
#
# Convention : Reuss Voigt Hill
#
# Bulk Modulus (GPa) = 45.34852 53.03902 49.19377
# Shear Modulus (GPa) = 15.33423 20.23283 17.78353
#
# Velocity S-wave (km/s) = 2.91585 3.34936 3.14010
# Velocity P-wave (km/s) = 6.03987 6.66075 6.35789
#
# Compressibility (1/GPa) = 0.02205144
#
# Stress axis : x y z
#
# Youngs Moduli (GPa) = 54.38186 48.36434 82.21940
#
# Poissons Ratio (x) = 0.22657 0.59207
# Poissons Ratio (y) = 0.25475 0.22219
# Poissons Ratio (z) = 0.39161 0.13070
#
# Static dielectric constant tensor:
#      x y z
#    x 3.483930 0.000000 0.000000 
#    y 0.000000 3.104660 0.000000 
#    z 0.000000 0.000000 3.645910 
# 
# 
# High freq. dielectric constant tensor:
#      x y z
#    x 1.698050 0.000000 0.000000 
#    y 0.000000 1.650830 0.000000 
#    z 0.000000 0.000000 1.714240 
# 
# From -- ./inp_files/46508.got.cif
#   From: 2010.06.25/outbox.cif.g09.slc.cpg/sg71_24_cif.got.tgz:46508.got - 2010.06.28 04:59:45.
