data_PCOD8287791
_publ_section_title
;
Structure prediction by ZEFSAII (Michael W. Deem and Ramdas Pophale) SiO2 
 PCOD8287791
Probable space group: I M M M
;
_chemical_formula_sum "Si O2"
_cell_formula_units_Z 92
_cell_length_a 22.870537
_cell_length_b 12.666394
_cell_length_c 19.735639
_cell_angle_alpha 90.000000
_cell_angle_beta 90.000000
_cell_angle_gamma 90.000000
_cell_volume 5717.162646
_symmetry_space_group_name_H-M "I M M M"
_symmetry_group_IT_number 71
_symmetry_cell_setting 'orthorhombic'
loop_
_space_group_symop_operation_xyz
x,y,z
-x,-y,z
x,-y,-z
-x,y,-z
-x,-y,-z
x,y,-z
-x,y,z
x,-y,z
1/2+x,1/2+y,1/2+z
1/2-x,1/2-y,1/2+z
1/2+x,1/2-y,1/2-z
1/2-x,1/2+y,1/2-z
1/2-x,1/2-y,1/2-z
1/2+x,1/2+y,1/2-z
1/2-x,1/2+y,1/2+z
1/2+x,1/2-y,1/2+z
loop_
_atom_site_type_symbol
_atom_site_label
_atom_site_fract_x
_atom_site_fract_y
_atom_site_fract_z
Si Si1 0.435324 0.000000 0.617517
Si Si2 0.184952 0.376602 0.256729
Si Si3 0.890778 0.117301 0.000000
Si Si4 0.343066 0.000000 0.500000
Si Si5 0.936045 0.683745 0.223338
Si Si6 0.901680 0.118018 0.146424
Si Si7 0.212185 0.722076 0.000000
Si Si8 0.724246 0.284117 0.354588
O O1 0.427213 0.105140 0.660964
O O2 0.500000 0.000000 0.583973
O O3 0.384246 0.000000 0.564391
O O4 0.186542 0.500000 0.241368
O O5 0.118277 0.338237 0.273597
O O6 0.222784 0.349529 0.322416
O O7 0.209969 0.319499 0.189830
O O8 0.928109 0.126931 0.069676
O O9 0.847678 0.214920 0.000000
O O10 0.860237 0.000000 0.000000
O O11 0.300365 0.901315 0.500000
O O12 0.935155 0.803271 0.196082
O O13 0.000000 0.665001 0.257967
O O14 0.832469 0.141624 0.142797
O O15 0.910900 0.000000 0.175166
O O16 0.245837 0.751285 0.930195
#
# Coordination Sequence:
#
# PCOD8287791 Si02
#       8
#     8  16   8   4  16  16   8  16
#     4  10  19  30  42  64  96 127 170 208 232 269
#     4  10  18  31  51  68  94 127 163 199 243 295
#     4   8  14  26  42  60  87 123 157 189 226 270
#     4  12  19  28  48  68  96 138 159 190 238 290
#     4  10  20  31  45  65  91 123 162 208 240 276
#     4   9  16  28  44  63  90 122 157 195 237 284
#     4  10  20  29  46  72 100 126 157 193 241 300
#     4   9  19  31  46  74  97 124 159 200 243 293
#
# _framework density 16.091899000000002
#
# number of rings (size 3 to 8) (size 9 to 14) (size 15 to 20)
#    0.000    2.435    0.870    3.783    1.217    1.043 
#    0.000    1.304    0.000    1.565    0.000    0.609 
#    0.000    1.391    0.000    0.783    0.000    0.000 
#
# Total GULP energy -570021.679510 kJ/mol
# GULP energy per Si atom -12391.775642 kJ/mol
# Density = 1.605527 g / cm^3
# Si number density = 16.091899 Si / 1000 Ang^3
#
#
#
# Elastic Constant Matrix: (Units=GPa)
#
#
# Indices 1 2 3 4 5 6 
#
# 1 74.4837 5.4059 19.9237 0.0000 0.0000 0.0000
# 2 5.4059 105.3778 8.8784 0.0000 0.0000 0.0000
# 3 19.9237 8.8784 55.2020 0.0000 0.0000 0.0000
# 4 0.0000 0.0000 0.0000 18.4278 0.0000 0.0000
# 5 0.0000 0.0000 0.0000 0.0000 16.6332 0.0000
# 6 0.0000 0.0000 0.0000 0.0000 0.0000 13.8707
#
#
#
# Elastic Compliance Matrix: (Units=1/GPa)
#
#
# Indices 1 2 3 4 5 6 
#
# 1 0.014871 -0.000315 -0.005317 0.000000 0.000000 0.000000
# 2 -0.000315 0.009627 -0.001435 0.000000 0.000000 0.000000
# 3 -0.005317 -0.001435 0.020265 0.000000 0.000000 0.000000
# 4 0.000000 0.000000 0.000000 0.054266 0.000000 0.000000
# 5 0.000000 0.000000 0.000000 0.000000 0.060121 0.000000
# 6 0.000000 0.000000 0.000000 0.000000 0.000000 0.072094
#
#
# Mechanical properties :
#
#
# Convention : Reuss Voigt Hill
#
# Bulk Modulus (GPa) = 32.64766 33.71995 33.18380
# Shear Modulus (GPa) = 19.56292 23.17670 21.36981
#
# Velocity S-wave (km/s) = 3.49047 3.79921 3.64811
# Velocity P-wave (km/s) = 6.04788 6.34393 6.19767
#
# Compressibility (1/GPa) = 0.03063007
#
# Stress axis : x y z
#
# Youngs Moduli (GPa) = 67.24611 103.87777 49.34645
#
# Poissons Ratio (x) = 0.03272 0.26235
# Poissons Ratio (y) = 0.02118 0.07079
# Poissons Ratio (z) = 0.35752 0.14903
#
# Static dielectric constant tensor:
#      x y z
#    x 3.035510 0.000000 0.000000 
#    y 0.000000 3.222970 0.000000 
#    z 0.000000 0.000000 3.001960 
# 
# 
# High freq. dielectric constant tensor:
#      x y z
#    x 1.593440 0.000000 0.000000 
#    y 0.000000 1.641530 0.000000 
#    z 0.000000 0.000000 1.581010 
# 
# From -- ./inp_files/48120.got.cif
#   From: 2010.06.25/outbox.cif.g09.slc.cpg/sg71_25_cif.got.tgz:48120.got - 2010.06.28 04:59:45.
