data_PCOD8287115
_publ_section_title
;
Structure prediction by ZEFSAII (Michael W. Deem and Ramdas Pophale) SiO2 
 PCOD8287115
Probable space group: I M M M
;
_chemical_formula_sum "Si O2"
_cell_formula_units_Z 96
_cell_length_a 20.480985
_cell_length_b 21.447572
_cell_length_c 13.736701
_cell_angle_alpha 90.000000
_cell_angle_beta 90.000000
_cell_angle_gamma 90.000000
_cell_volume 6034.084939
_symmetry_space_group_name_H-M "I M M M"
_symmetry_group_IT_number 71
_symmetry_cell_setting 'orthorhombic'
loop_
_space_group_symop_operation_xyz
x,y,z
-x,-y,z
x,-y,-z
-x,y,-z
-x,-y,-z
x,y,-z
-x,y,z
x,-y,z
1/2+x,1/2+y,1/2+z
1/2-x,1/2-y,1/2+z
1/2+x,1/2-y,1/2-z
1/2-x,1/2+y,1/2-z
1/2-x,1/2-y,1/2-z
1/2+x,1/2+y,1/2-z
1/2-x,1/2+y,1/2+z
1/2+x,1/2-y,1/2+z
loop_
_atom_site_type_symbol
_atom_site_label
_atom_site_fract_x
_atom_site_fract_y
_atom_site_fract_z
Si Si1 0.252838 0.208286 0.109081
Si Si2 0.396099 0.166989 0.109663
Si Si3 0.927412 0.428587 0.228383
Si Si4 0.298258 0.664298 0.198049
Si Si5 0.927525 0.804844 0.613823
Si Si6 0.301742 0.926585 0.389142
O O1 0.317938 0.167022 0.114666
O O2 0.268255 0.279676 0.134756
O O3 0.202513 0.179490 0.186730
O O4 0.222878 0.205488 0.000000
O O5 0.424117 0.111957 0.174456
O O6 0.423153 0.233123 0.148652
O O7 0.420792 0.155394 0.000000
O O8 0.914596 0.500000 0.258688
O O9 0.872966 0.406409 0.151100
O O10 0.000000 0.421113 0.182022
O O11 0.374063 0.653322 0.169980
O O12 0.255899 0.603452 0.174551
O O13 0.910981 0.808185 0.500000
O O14 0.000000 0.830884 0.636508
O O15 0.297422 0.903227 0.500000
O O16 0.291846 0.000000 0.381961
#
# Coordination Sequence:
#
# PCOD8287115 Si02
#       6
#    16  16  16  16  16  16
#     4   9  17  28  47  72  92 115 148 188 231 271
#     4   9  16  29  45  63  90 121 151 184 224 270
#     4  10  20  31  42  60  88 122 159 194 225 260
#     4  10  17  30  50  68  91 120 151 187 228 276
#     4   9  17  28  45  70  94 117 148 184 226 279
#     4  10  20  33  48  65  87 119 159 196 227 266
#
# _framework density 15.90962
#
# number of rings (size 3 to 8) (size 9 to 14) (size 15 to 20)
#    0.000    2.500    1.667    3.000    0.000    1.667 
#    0.000    2.500    0.000    1.500    0.000    2.333 
#    0.000    0.000    0.000    1.500    0.000    0.167 
#
# Total GULP energy -595105.929732 kJ/mol
# GULP energy per Si atom -12398.040203 kJ/mol
# Density = 1.587341 g / cm^3
# Si number density = 15.909620 Si / 1000 Ang^3
#
#
#
# Elastic Constant Matrix: (Units=GPa)
#
#
# Indices 1 2 3 4 5 6 
#
# 1 107.7439 27.7198 45.0480 0.0000 0.0000 0.0000
# 2 27.7198 34.4013 23.0346 0.0000 0.0000 0.0000
# 3 45.0480 23.0346 95.7664 0.0000 0.0000 0.0000
# 4 0.0000 0.0000 0.0000 18.8890 0.0000 0.0000
# 5 0.0000 0.0000 0.0000 0.0000 24.6259 0.0000
# 6 0.0000 0.0000 0.0000 0.0000 0.0000 17.5007
#
#
#
# Elastic Compliance Matrix: (Units=1/GPa)
#
#
# Indices 1 2 3 4 5 6 
#
# 1 0.013042 -0.007630 -0.004300 0.000000 0.000000 0.000000
# 2 -0.007630 0.039113 -0.005819 0.000000 0.000000 0.000000
# 3 -0.004300 -0.005819 0.013864 0.000000 0.000000 0.000000
# 4 0.000000 0.000000 0.000000 0.052941 0.000000 0.000000
# 5 0.000000 0.000000 0.000000 0.000000 0.040608 0.000000
# 6 0.000000 0.000000 0.000000 0.000000 0.000000 0.057141
#
#
# Mechanical properties :
#
#
# Convention : Reuss Voigt Hill
#
# Bulk Modulus (GPa) = 32.76279 47.72404 40.24342
# Shear Modulus (GPa) = 19.05642 21.67707 20.36674
#
# Velocity S-wave (km/s) = 3.46467 3.69523 3.58180
# Velocity P-wave (km/s) = 6.05335 6.94754 6.51580
#
# Compressibility (1/GPa) = 0.03052243
#
# Stress axis : x y z
#
# Youngs Moduli (GPa) = 76.67555 25.56703 72.12844
#
# Poissons Ratio (x) = 0.19508 0.31013
# Poissons Ratio (y) = 0.58503 0.41969
# Poissons Ratio (z) = 0.32968 0.14877
#
# Static dielectric constant tensor:
#      x y z
#    x 3.107880 0.000000 0.000000 
#    y 0.000000 2.770970 0.000000 
#    z 0.000000 0.000000 3.042470 
# 
# 
# High freq. dielectric constant tensor:
#      x y z
#    x 1.606210 0.000000 0.000000 
#    y 0.000000 1.582630 0.000000 
#    z 0.000000 0.000000 1.604600 
# 
# From -- ./inp_files/27570.got.cif
#   From: 2010.06.25/outbox.cif.g09.slc.cpg/sg71_14_cif.got.tgz:27570.got - 2010.06.28 04:59:45.
