data_PCOD8287528
_publ_section_title
;
Structure prediction by ZEFSAII (Michael W. Deem and Ramdas Pophale) SiO2 
 PCOD8287528
Probable space group: I M M M
;
_chemical_formula_sum "Si O2"
_cell_formula_units_Z 92
_cell_length_a 7.651491
_cell_length_b 27.719122
_cell_length_c 23.117800
_cell_angle_alpha 90.000000
_cell_angle_beta 90.000000
_cell_angle_gamma 90.000000
_cell_volume 4903.114598
_symmetry_space_group_name_H-M "I M M M"
_symmetry_group_IT_number 71
_symmetry_cell_setting 'orthorhombic'
loop_
_space_group_symop_operation_xyz
x,y,z
-x,-y,z
x,-y,-z
-x,y,-z
-x,-y,-z
x,y,-z
-x,y,z
x,-y,z
1/2+x,1/2+y,1/2+z
1/2-x,1/2-y,1/2+z
1/2+x,1/2-y,1/2-z
1/2-x,1/2+y,1/2-z
1/2-x,1/2-y,1/2-z
1/2+x,1/2+y,1/2-z
1/2-x,1/2+y,1/2+z
1/2+x,1/2-y,1/2+z
loop_
_atom_site_type_symbol
_atom_site_label
_atom_site_fract_x
_atom_site_fract_y
_atom_site_fract_z
Si Si1 0.695306 0.734816 0.934374
Si Si2 0.794417 0.356757 0.134956
Si Si3 0.292376 0.947107 0.565315
Si Si4 0.692467 0.000000 0.765317
Si Si5 0.500000 0.694212 0.567576
Si Si6 0.699680 0.105020 0.755841
Si Si7 0.500000 0.605355 0.650631
Si Si8 0.500000 0.500000 0.647281
O O1 0.500000 0.756500 0.931622
O O2 0.702432 0.689624 0.891666
O O3 0.828775 0.775909 0.913832
O O4 0.742352 0.718353 0.000000
O O5 0.715195 0.404696 0.105159
O O6 0.751866 0.359134 0.203399
O O7 0.000000 0.352730 0.123447
O O8 0.228860 0.937541 0.500000
O O9 0.500000 0.946541 0.568384
O O10 0.224918 0.000000 0.586083
O O11 0.716888 0.049985 0.729759
O O12 0.825287 0.000000 0.816871
O O13 0.500000 0.000000 0.793538
O O14 0.500000 0.682268 0.500000
O O15 0.500000 0.644051 0.600509
O O16 0.500000 0.114461 0.776541
O O17 0.828733 0.112647 0.809570
O O18 0.500000 0.552905 0.616771
#
# Coordination Sequence:
#
# PCOD8287528 Si02
#       8
#    16  16  16   8   8  16   8   4
#     4  10  21  37  58  80 104 140 188 237 280 322
#     4  10  18  29  50  74 107 144 191 234 276 322
#     4   8  14  23  38  66 101 139 185 236 285 321
#     4   8  14  28  46  71 106 148 185 218 245 301
#     4  10  22  42  65  86 105 135 180 221 271 332
#     4   9  19  31  51  80 112 147 188 218 264 321
#     4  10  20  38  61  84 117 146 166 218 265 321
#     4   8  16  32  55  84 112 140 171 194 256 324
#
# _framework density 18.763583000000001
#
# number of rings (size 3 to 8) (size 9 to 14) (size 15 to 20)
#    0.000    2.783    0.870    1.043    2.435    1.391 
#    0.000    1.087    0.000    0.522    0.000    2.435 
#    0.000    9.739    0.000    0.000    0.000    0.000 
#
# Total GULP energy -569923.296076 kJ/mol
# GULP energy per Si atom -12389.636871 kJ/mol
# Density = 1.872088 g / cm^3
# Si number density = 18.763583 Si / 1000 Ang^3
#
#
#
# Elastic Constant Matrix: (Units=GPa)
#
#
# Indices 1 2 3 4 5 6 
#
# 1 89.4110 43.8134 29.9069 0.0000 0.0000 0.0000
# 2 43.8134 132.7980 57.6638 0.0000 0.0000 0.0000
# 3 29.9069 57.6638 59.0717 0.0001 0.0000 0.0000
# 4 0.0000 0.0000 0.0001 33.8612 0.0000 0.0000
# 5 0.0000 0.0000 0.0000 0.0000 15.1639 0.0000
# 6 0.0000 0.0000 0.0000 0.0000 0.0000 9.9769
#
#
#
# Elastic Compliance Matrix: (Units=1/GPa)
#
#
# Indices 1 2 3 4 5 6 
#
# 1 0.013991 -0.002673 -0.004474 0.000000 0.000000 0.000000
# 2 -0.002673 0.013581 -0.011904 0.000000 0.000000 0.000000
# 3 -0.004474 -0.011904 0.030814 0.000000 0.000000 0.000000
# 4 0.000000 0.000000 0.000000 0.029532 0.000000 0.000000
# 5 0.000000 0.000000 0.000000 0.000000 0.065946 0.000000
# 6 0.000000 0.000000 0.000000 0.000000 0.000000 0.100232
#
#
# Mechanical properties :
#
#
# Convention : Reuss Voigt Hill
#
# Bulk Modulus (GPa) = 49.30063 60.44987 54.87525
# Shear Modulus (GPa) = 16.72470 21.79351 19.25910
#
# Velocity S-wave (km/s) = 2.98877 3.41175 3.20724
# Velocity P-wave (km/s) = 6.18401 6.91423 6.55929
#
# Compressibility (1/GPa) = 0.02028372
#
# Stress axis : x y z
#
# Youngs Moduli (GPa) = 71.47625 73.63077 32.45289
#
# Poissons Ratio (x) = 0.19684 0.14518
# Poissons Ratio (y) = 0.19108 0.38632
# Poissons Ratio (z) = 0.31976 0.87651
#
# Static dielectric constant tensor:
#      x y z
#    x 3.454670 0.000000 0.000000 
#    y 0.000000 3.550040 0.000000 
#    z 0.000000 0.000000 3.013250 
# 
# 
# High freq. dielectric constant tensor:
#      x y z
#    x 1.732270 0.000000 0.000000 
#    y 0.000000 1.719550 0.000000 
#    z 0.000000 0.000000 1.684850 
# 
# From -- ./inp_files/50869.got.cif
#   From: 2010.06.25/outbox.cif.g09.slc.cpg/sg71_26_cif.got.tgz:50869.got - 2010.06.28 04:59:45.
