data_PCOD8287057
_publ_section_title
;
Structure prediction by ZEFSAII (Michael W. Deem and Ramdas Pophale) SiO2 
 PCOD8287057
Probable space group: I M M M
;
_chemical_formula_sum "Si O2"
_cell_formula_units_Z 128
_cell_length_a 18.455590
_cell_length_b 17.485506
_cell_length_c 23.615249
_cell_angle_alpha 90.000000
_cell_angle_beta 90.000000
_cell_angle_gamma 90.000000
_cell_volume 7620.766714
_symmetry_space_group_name_H-M "I M M M"
_symmetry_group_IT_number 71
_symmetry_cell_setting 'orthorhombic'
loop_
_space_group_symop_operation_xyz
x,y,z
-x,-y,z
x,-y,-z
-x,y,-z
-x,-y,-z
x,y,-z
-x,y,z
x,-y,z
1/2+x,1/2+y,1/2+z
1/2-x,1/2-y,1/2+z
1/2+x,1/2-y,1/2-z
1/2-x,1/2+y,1/2-z
1/2-x,1/2-y,1/2-z
1/2+x,1/2+y,1/2-z
1/2-x,1/2+y,1/2+z
1/2+x,1/2-y,1/2+z
loop_
_atom_site_type_symbol
_atom_site_label
_atom_site_fract_x
_atom_site_fract_y
_atom_site_fract_z
Si Si1 0.414471 0.914204 0.132158
Si Si2 0.419784 0.816656 0.349252
Si Si3 0.714723 0.413730 0.763617
Si Si4 0.195985 0.826837 0.627043
Si Si5 0.821845 0.589690 0.933182
Si Si6 0.210239 0.779250 0.807216
Si Si7 0.380178 0.914749 0.253758
Si Si8 0.415293 0.231090 0.935490
O O1 0.500000 0.917701 0.138667
O O2 0.381354 0.879753 0.190534
O O3 0.391257 0.853807 0.084332
O O4 0.384629 0.000000 0.117671
O O5 0.500000 0.785998 0.367136
O O6 0.383668 0.860224 0.402319
O O7 0.370331 0.750688 0.321275
O O8 0.433265 0.874772 0.297565
O O9 0.686888 0.500000 0.755749
O O10 0.673981 0.372988 0.815943
O O11 0.701749 0.370386 0.703339
O O12 0.799609 0.410307 0.780106
O O13 0.242656 0.881802 0.586285
O O14 0.240043 0.748376 0.640819
O O15 0.122721 0.800809 0.597009
O O16 0.830590 0.500000 0.917541
O O17 0.830345 0.602742 0.000000
O O18 0.250000 0.750000 0.750000
O O19 0.408971 0.000000 0.246257
O O20 0.500000 0.243287 0.926051
O O21 0.391652 0.236941 0.000000
#
# Coordination Sequence:
#
# PCOD8287057 Si02
#       8
#    16  16  16  16  16  16  16  16
#     4   9  18  30  45  68  98 131 162 192 237 299
#     4  11  21  31  48  73 102 133 163 201 248 290
#     4  10  18  30  51  73  97 128 162 202 246 293
#     4  10  18  32  52  71  97 129 170 207 246 297
#     4  10  20  34  52  73  99 136 175 204 237 289
#     4   9  17  32  49  70  99 130 163 198 239 292
#     4  10  17  28  46  72 100 127 156 190 236 293
#     4  10  21  34  49  70  95 126 167 216 261 294
#
# _framework density 16.796211
#
# number of rings (size 3 to 8) (size 9 to 14) (size 15 to 20)
#    0.000    2.125    3.750    2.250    1.750    2.000 
#    0.000    1.875    0.000    2.625    0.000    4.375 
#    0.000    4.500    0.000    4.500    0.000    0.000 
#
# Total GULP energy -793070.043354 kJ/mol
# GULP energy per Si atom -12391.719427 kJ/mol
# Density = 1.675798 g / cm^3
# Si number density = 16.796211 Si / 1000 Ang^3
#
#
#
# Elastic Constant Matrix: (Units=GPa)
#
#
# Indices 1 2 3 4 5 6 
#
# 1 51.5567 28.5558 25.9732 0.0000 0.0000 0.0000
# 2 28.5558 97.7474 49.3697 0.0000 0.0000 0.0000
# 3 25.9732 49.3697 78.4424 0.0000 0.0000 0.0000
# 4 0.0000 0.0000 0.0000 29.2958 0.0000 0.0000
# 5 0.0000 0.0000 0.0000 0.0000 22.1188 0.0000
# 6 0.0000 0.0000 0.0000 0.0000 0.0000 18.8556
#
#
#
# Elastic Compliance Matrix: (Units=1/GPa)
#
#
# Indices 1 2 3 4 5 6 
#
# 1 0.024557 -0.004497 -0.005301 0.000000 0.000000 0.000000
# 2 -0.004497 0.015821 -0.008469 0.000000 0.000000 0.000000
# 3 -0.005301 -0.008469 0.019833 0.000000 0.000000 0.000000
# 4 0.000000 0.000000 0.000000 0.034135 0.000000 0.000000
# 5 0.000000 0.000000 0.000000 0.000000 0.045210 0.000000
# 6 0.000000 0.000000 0.000000 0.000000 0.000000 0.053035
#
#
# Mechanical properties :
#
#
# Convention : Reuss Voigt Hill
#
# Bulk Modulus (GPa) = 42.23120 48.39378 45.31249
# Shear Modulus (GPa) = 21.09544 22.31054 21.70299
#
# Velocity S-wave (km/s) = 3.54780 3.64855 3.59853
# Velocity P-wave (km/s) = 6.47923 6.82818 6.65599
#
# Compressibility (1/GPa) = 0.02367917
#
# Stress axis : x y z
#
# Youngs Moduli (GPa) = 40.72112 63.20534 50.41982
#
# Poissons Ratio (x) = 0.28422 0.26728
# Poissons Ratio (y) = 0.18311 0.42699
# Poissons Ratio (z) = 0.21587 0.53527
#
# Static dielectric constant tensor:
#      x y z
#    x 2.906600 0.000000 0.000000 
#    y 0.000000 3.394600 0.000000 
#    z 0.000000 0.000000 3.161700 
# 
# 
# High freq. dielectric constant tensor:
#      x y z
#    x 1.622660 0.000000 0.000000 
#    y 0.000000 1.639880 0.000000 
#    z 0.000000 0.000000 1.642140 
# 
# From -- ./inp_files/60908.got.cif
#   From: 2010.06.25/outbox.cif.g09.slc.cpg/sg71_31_cif.got.tgz:60908.got - 2010.06.28 04:59:45.
