data_PCOD8287265
_publ_section_title
;
Structure prediction by ZEFSAII (Michael W. Deem and Ramdas Pophale) SiO2 
 PCOD8287265
Probable space group: I M M M
;
_chemical_formula_sum "Si O2"
_cell_formula_units_Z 72
_cell_length_a 23.103637
_cell_length_b 9.165747
_cell_length_c 23.052927
_cell_angle_alpha 90.000000
_cell_angle_beta 90.000000
_cell_angle_gamma 90.000000
_cell_volume 4881.736037
_symmetry_space_group_name_H-M "I M M M"
_symmetry_group_IT_number 71
_symmetry_cell_setting 'orthorhombic'
loop_
_space_group_symop_operation_xyz
x,y,z
-x,-y,z
x,-y,-z
-x,y,-z
-x,-y,-z
x,y,-z
-x,y,z
x,-y,z
1/2+x,1/2+y,1/2+z
1/2-x,1/2-y,1/2+z
1/2+x,1/2-y,1/2-z
1/2-x,1/2+y,1/2-z
1/2-x,1/2-y,1/2-z
1/2+x,1/2+y,1/2-z
1/2-x,1/2+y,1/2+z
1/2+x,1/2-y,1/2+z
loop_
_atom_site_type_symbol
_atom_site_label
_atom_site_fract_x
_atom_site_fract_y
_atom_site_fract_z
Si Si1 0.729919 0.837153 0.663708
Si Si2 0.065787 0.669833 0.777943
Si Si3 0.435227 0.672699 0.500000
Si Si4 0.327212 0.838539 0.789449
Si Si5 0.875365 0.826538 0.882197
O O1 0.704116 0.839718 0.727663
O O2 0.794631 0.769291 0.666244
O O3 0.688930 0.739905 0.622892
O O4 0.734522 0.000000 0.637985
O O5 0.076093 0.500000 0.794421
O O6 0.106497 0.711552 0.722844
O O7 0.081540 0.767376 0.833125
O O8 0.000000 0.700830 0.759521
O O9 0.439698 0.500000 0.500000
O O10 0.500000 0.739926 0.500000
O O11 0.400934 0.726019 0.556573
O O12 0.325500 0.000000 0.817006
O O13 0.871208 0.000000 0.876535
#
# Coordination Sequence:
#
# PCOD8287265 Si02
#       5
#    16  16   8  16  16
#     4   9  16  26  39  55  74  94 121 158 195 228
#     4   9  17  28  40  56  79 103 127 157 191 226
#     4   9  18  30  41  55  75  99 130 167 200 227
#     4   8  14  24  38  55  74  97 123 150 184 227
#     4  10  18  28  42  56  72  98 132 166 197 229
#
# _framework density 14.748851
#
# number of rings (size 3 to 8) (size 9 to 14) (size 15 to 20)
#    0.000    3.000    0.000    3.333    0.000    6.667 
#    0.000    2.222    0.000    4.000    0.000    0.000 
#    0.000    0.000    0.000    1.000    0.000   22.889 
#
# Total GULP energy -446210.871103 kJ/mol
# GULP energy per Si atom -12394.746420 kJ/mol
# Density = 1.471528 g / cm^3
# Si number density = 14.748851 Si / 1000 Ang^3
#
#
#
# Elastic Constant Matrix: (Units=GPa)
#
#
# Indices 1 2 3 4 5 6 
#
# 1 138.4008 55.5191 50.6468 0.0000 0.0000 0.0000
# 2 55.5191 79.4265 28.8307 0.0000 0.0000 0.0000
# 3 50.6468 28.8307 41.0855 0.0000 0.0000 0.0000
# 4 0.0000 0.0000 0.0000 12.7755 0.0000 0.0000
# 5 0.0000 0.0000 0.0000 0.0000 18.6092 0.0000
# 6 0.0000 0.0000 0.0000 0.0000 0.0000 21.6727
#
#
#
# Elastic Compliance Matrix: (Units=1/GPa)
#
#
# Indices 1 2 3 4 5 6 
#
# 1 0.014446 -0.004876 -0.014386 0.000000 0.000000 0.000000
# 2 -0.004876 0.018539 -0.006999 0.000000 0.000000 0.000000
# 3 -0.014386 -0.006999 0.046985 0.000000 0.000000 0.000000
# 4 0.000000 0.000000 0.000000 0.078275 0.000000 0.000000
# 5 0.000000 0.000000 0.000000 0.000000 0.053737 0.000000
# 6 0.000000 0.000000 0.000000 0.000000 0.000000 0.046141
#
#
# Mechanical properties :
#
#
# Convention : Reuss Voigt Hill
#
# Bulk Modulus (GPa) = 36.43244 58.76733 47.59988
# Shear Modulus (GPa) = 15.63509 18.87253 17.25381
#
# Velocity S-wave (km/s) = 3.25943 3.58102 3.42400
# Velocity P-wave (km/s) = 6.23865 7.55183 6.92643
#
# Compressibility (1/GPa) = 0.02744807
#
# Stress axis : x y z
#
# Youngs Moduli (GPa) = 69.22451 53.94085 21.28342
#
# Poissons Ratio (x) = 0.26299 0.30619
# Poissons Ratio (y) = 0.33751 0.14896
# Poissons Ratio (z) = 0.99588 0.37753
#
# Static dielectric constant tensor:
#      x y z
#    x 3.149060 0.000000 0.000000 
#    y 0.000000 2.959320 0.000000 
#    z 0.000000 0.000000 2.497620 
# 
# 
# High freq. dielectric constant tensor:
#      x y z
#    x 1.568520 0.000000 0.000000 
#    y 0.000000 1.568700 0.000000 
#    z 0.000000 0.000000 1.502140 
# 
# From -- ./inp_files/10101.got.cif
#   From: 2010.06.25/outbox.cif.g09.slc.cpg/sg71_6_cif.got.tgz:10101.got - 2010.06.28 04:59:45.
