data_PCOD8287136
_publ_section_title
;
Structure prediction by ZEFSAII (Michael W. Deem and Ramdas Pophale) SiO2 
 PCOD8287136
Probable space group: I M M M
;
_chemical_formula_sum "Si O2"
_cell_formula_units_Z 76
_cell_length_a 11.348801
_cell_length_b 13.506255
_cell_length_c 28.782940
_cell_angle_alpha 90.000000
_cell_angle_beta 90.000000
_cell_angle_gamma 90.000000
_cell_volume 4411.843294
_symmetry_space_group_name_H-M "I M M M"
_symmetry_group_IT_number 71
_symmetry_cell_setting 'orthorhombic'
loop_
_space_group_symop_operation_xyz
x,y,z
-x,-y,z
x,-y,-z
-x,y,-z
-x,-y,-z
x,y,-z
-x,y,z
x,-y,z
1/2+x,1/2+y,1/2+z
1/2-x,1/2-y,1/2+z
1/2+x,1/2-y,1/2-z
1/2-x,1/2+y,1/2-z
1/2-x,1/2-y,1/2-z
1/2+x,1/2+y,1/2-z
1/2-x,1/2+y,1/2+z
1/2+x,1/2-y,1/2+z
loop_
_atom_site_type_symbol
_atom_site_label
_atom_site_fract_x
_atom_site_fract_y
_atom_site_fract_z
Si Si1 0.363570 0.297128 0.189743
Si Si2 0.248467 0.381581 0.898496
Si Si3 0.763877 0.112902 0.221805
Si Si4 0.000000 0.887927 0.166284
Si Si5 0.500000 0.789579 0.599673
Si Si6 0.500000 0.161781 0.500000
Si Si7 0.245438 0.892742 0.500000
O O1 0.500000 0.317127 0.199929
O O2 0.336537 0.329159 0.137160
O O3 0.335608 0.181234 0.198220
O O4 0.281587 0.362325 0.223843
O O5 0.260351 0.500000 0.896370
O O6 0.114878 0.352115 0.885548
O O7 0.286515 0.340927 0.950514
O O8 0.887033 0.134720 0.197216
O O9 0.722004 0.000000 0.216442
O O10 0.000000 0.817928 0.122093
O O11 0.000000 0.000000 0.147760
O O12 0.500000 0.767330 0.544825
O O13 0.613304 0.091147 0.500000
O O14 0.184576 0.000000 0.500000
#
# Coordination Sequence:
#
# PCOD8287136 Si02
#       7
#    16  16  16   8   8   4   8
#     4  11  22  35  53  76 103 133 170 207 246 296
#     4  10  19  31  50  75 104 136 168 208 251 299
#     4  10  21  37  54  73 101 135 167 204 249 298
#     4  10  18  33  56  74  98 133 167 204 253 303
#     4  10  17  32  49  77 102 133 170 210 253 303
#     4   8  15  24  47  70 102 130 162 208 256 296
#     4   8  15  28  45  69 100 133 168 202 249 300
#
# _framework density 17.226358999999999
#
# number of rings (size 3 to 8) (size 9 to 14) (size 15 to 20)
#    0.000    2.105    3.158    1.105    0.000    4.211 
#    0.000    0.789    0.000    1.895    0.000    0.737 
#    0.000    1.684    0.000    0.000    0.000    0.000 
#
# Total GULP energy -470976.809676 kJ/mol
# GULP energy per Si atom -12394.126570 kJ/mol
# Density = 1.718715 g / cm^3
# Si number density = 17.226359 Si / 1000 Ang^3
#
#
#
# Elastic Constant Matrix: (Units=GPa)
#
#
# Indices 1 2 3 4 5 6 
#
# 1 46.1401 16.9691 22.7255 0.0000 0.0000 0.0000
# 2 16.9691 83.4252 51.9128 0.0000 0.0000 0.0000
# 3 22.7255 51.9128 118.2136 0.0000 0.0000 0.0000
# 4 0.0000 0.0000 0.0000 23.0806 0.0000 0.0000
# 5 0.0000 0.0000 0.0000 0.0000 23.1900 0.0000
# 6 0.0000 0.0000 0.0000 0.0000 0.0000 -10.9597
#
#
#
# Elastic Compliance Matrix: (Units=1/GPa)
#
#
# Indices 1 2 3 4 5 6 
#
# 1 0.024411 -0.002814 -0.003457 0.000000 0.000000 0.000000
# 2 -0.002814 0.016818 -0.006845 0.000000 0.000000 0.000000
# 3 -0.003457 -0.006845 0.012130 0.000000 0.000000 0.000000
# 4 0.000000 0.000000 0.000000 0.043327 0.000000 0.000000
# 5 0.000000 0.000000 0.000000 0.000000 0.043122 0.000000
# 6 0.000000 0.000000 0.000000 0.000000 0.000000 -0.091243
#
#
# Mechanical properties :
#
#
# Convention : Reuss Voigt Hill
#
# Bulk Modulus (GPa) = 36.86333 47.88821 42.37577
# Shear Modulus (GPa) = 59.63852 17.47359 38.55605
#
# Velocity S-wave (km/s) = 5.89030 3.18834 4.73610
# Velocity P-wave (km/s) = 8.22841 6.43535 7.38649
#
# Compressibility (1/GPa) = 0.02712723
#
# Stress axis : x y z
#
# Youngs Moduli (GPa) = 40.96562 59.45854 82.44254
#
# Poissons Ratio (x) = 0.16732 0.28500
# Poissons Ratio (y) = 0.11528 0.56430
# Poissons Ratio (z) = 0.14162 0.40698
#
# Static dielectric constant tensor:
#      x y z
#    x 3.024410 0.000000 0.000000 
#    y 0.000000 3.042060 0.000000 
#    z 0.000000 0.000000 3.436320 
# 
# 
# High freq. dielectric constant tensor:
#      x y z
#    x 1.649000 0.000000 0.000000 
#    y 0.000000 1.643520 0.000000 
#    z 0.000000 0.000000 1.675470 
# 
# From -- ./inp_files/40131.got.cif
#   From: 2010.06.25/outbox.cif.g09.slc.cpg/sg71_21_cif.got.tgz:40131.got - 2010.06.28 04:59:45.
