data_PCOD8287895
_publ_section_title
;
Structure prediction by ZEFSAII (Michael W. Deem and Ramdas Pophale) SiO2 
 PCOD8287895
Probable space group: I M M M
;
_chemical_formula_sum "Si O2"
_cell_formula_units_Z 56
_cell_length_a 37.057677
_cell_length_b 7.659388
_cell_length_c 10.466924
_cell_angle_alpha 90.000000
_cell_angle_beta 90.000000
_cell_angle_gamma 90.000000
_cell_volume 2970.922566
_symmetry_space_group_name_H-M "I M M M"
_symmetry_group_IT_number 71
_symmetry_cell_setting 'orthorhombic'
loop_
_space_group_symop_operation_xyz
x,y,z
-x,-y,z
x,-y,-z
-x,y,-z
-x,-y,-z
x,y,-z
-x,y,z
x,-y,z
1/2+x,1/2+y,1/2+z
1/2-x,1/2-y,1/2+z
1/2+x,1/2-y,1/2-z
1/2-x,1/2+y,1/2-z
1/2-x,1/2-y,1/2-z
1/2+x,1/2+y,1/2-z
1/2-x,1/2+y,1/2+z
1/2+x,1/2-y,1/2+z
loop_
_atom_site_type_symbol
_atom_site_label
_atom_site_fract_x
_atom_site_fract_y
_atom_site_fract_z
Si Si1 0.040181 0.000000 0.151512
Si Si2 0.170589 0.292959 0.239518
Si Si3 0.797971 0.700898 0.500000
Si Si4 0.784600 0.292182 0.000000
Si Si5 0.407245 0.198789 0.650477
O O1 0.060771 0.825412 0.197489
O O2 0.000000 0.000000 0.211344
O O3 0.037692 0.000000 0.000000
O O4 0.174227 0.500000 0.237665
O O5 0.185025 0.211740 0.372770
O O6 0.129014 0.239198 0.221320
O O7 0.194917 0.217737 0.124562
O O8 0.809208 0.500000 0.500000
O O9 0.755306 0.717828 0.500000
O O10 0.783756 0.500000 0.000000
O O11 0.400090 0.215582 0.500000
O O12 0.417813 0.000000 0.686296
#
# Coordination Sequence:
#
# PCOD8287895 Si02
#       5
#     8  16   8   8  16
#     4   9  18  30  46  77 111 127 157 211 253 299
#     4   9  17  31  49  65  92 129 165 205 246 297
#     4  10  20  32  44  68  96 121 163 214 254 291
#     4  10  18  32  48  64  92 127 161 204 256 303
#     4   9  16  30  50  70  95 134 170 197 247 303
#
# _framework density 18.849361999999999
#
# number of rings (size 3 to 8) (size 9 to 14) (size 15 to 20)
#    0.000    2.714    1.429    0.857    0.000    0.571 
#    5.143    2.857    0.000    0.000    0.000    2.000 
#    0.000    5.714    0.000    0.000    0.000    0.000 
#
# Total GULP energy -347132.559686 kJ/mol
# GULP energy per Si atom -12397.591417 kJ/mol
# Density = 1.880646 g / cm^3
# Si number density = 18.849362 Si / 1000 Ang^3
#
#
#
# Elastic Constant Matrix: (Units=GPa)
#
#
# Indices 1 2 3 4 5 6 
#
# 1 180.6628 51.3769 65.9738 0.0000 0.0000 0.0000
# 2 51.3769 64.4381 20.3352 0.0000 0.0000 0.0000
# 3 65.9738 20.3352 117.0092 0.0000 0.0000 0.0000
# 4 0.0000 0.0000 0.0000 2.1936 0.0000 0.0000
# 5 0.0000 0.0000 0.0000 0.0000 2.8807 0.0000
# 6 0.0000 0.0000 0.0000 0.0000 0.0000 30.8276
#
#
#
# Elastic Compliance Matrix: (Units=1/GPa)
#
#
# Indices 1 2 3 4 5 6 
#
# 1 0.008524 -0.005586 -0.003836 0.000000 0.000000 0.000000
# 2 -0.005586 0.020080 -0.000340 0.000000 0.000000 0.000000
# 3 -0.003836 -0.000340 0.010768 0.000000 0.000000 0.000000
# 4 0.000000 0.000000 0.000000 0.455881 0.000000 0.000000
# 5 0.000000 0.000000 0.000000 0.000000 0.347142 0.000000
# 6 0.000000 0.000000 0.000000 0.000000 0.000000 0.032438
#
#
# Mechanical properties :
#
#
# Convention : Reuss Voigt Hill
#
# Bulk Modulus (GPa) = 50.38059 70.83134 60.60596
# Shear Modulus (GPa) = 5.54955 22.14197 13.84576
#
# Velocity S-wave (km/s) = 1.71772 3.43108 2.71319
# Velocity P-wave (km/s) = 5.54257 7.30449 6.48366
#
# Compressibility (1/GPa) = 0.01984892
#
# Stress axis : x y z
#
# Youngs Moduli (GPa) = 117.31012 49.80088 92.86743
#
# Poissons Ratio (x) = 0.27820 0.35620
# Poissons Ratio (y) = 0.65531 0.03158
# Poissons Ratio (z) = 0.44995 0.01694
#
# Static dielectric constant tensor:
#      x y z
#    x 3.517840 0.000000 0.000000 
#    y 0.000000 3.395530 0.000000 
#    z 0.000000 0.000000 3.579340 
# 
# 
# High freq. dielectric constant tensor:
#      x y z
#    x 1.728320 0.000000 0.000000 
#    y 0.000000 1.719730 0.000000 
#    z 0.000000 0.000000 1.702050 
# 
# From -- ./inp_files/3592.got.cif
#   From: 2010.06.25/outbox.cif.g09.slc.cpg/sg71_2_cif.got.tgz:3592.got - 2010.06.28 04:59:45.
