data_PCOD8287886
_publ_section_title
;
Structure prediction by ZEFSAII (Michael W. Deem and Ramdas Pophale) SiO2 
 PCOD8287886
Probable space group: I M M M
;
_chemical_formula_sum "Si O2"
_cell_formula_units_Z 104
_cell_length_a 22.554559
_cell_length_b 14.240221
_cell_length_c 16.978802
_cell_angle_alpha 90.000000
_cell_angle_beta 90.000000
_cell_angle_gamma 90.000000
_cell_volume 5453.283966
_symmetry_space_group_name_H-M "I M M M"
_symmetry_group_IT_number 71
_symmetry_cell_setting 'orthorhombic'
loop_
_space_group_symop_operation_xyz
x,y,z
-x,-y,z
x,-y,-z
-x,y,-z
-x,-y,-z
x,y,-z
-x,y,z
x,-y,z
1/2+x,1/2+y,1/2+z
1/2-x,1/2-y,1/2+z
1/2+x,1/2-y,1/2-z
1/2-x,1/2+y,1/2-z
1/2-x,1/2-y,1/2-z
1/2+x,1/2+y,1/2-z
1/2-x,1/2+y,1/2+z
1/2+x,1/2-y,1/2+z
loop_
_atom_site_type_symbol
_atom_site_label
_atom_site_fract_x
_atom_site_fract_y
_atom_site_fract_z
Si Si1 0.167256 0.758731 0.587613
Si Si2 0.614929 0.397789 0.708822
Si Si3 0.235894 0.150664 0.715494
Si Si4 0.932610 0.894303 0.622302
Si Si5 0.929607 0.394990 0.000000
Si Si6 0.645727 0.894935 0.780930
Si Si7 0.570493 0.210397 0.655590
O O1 0.188054 0.728663 0.500000
O O2 0.215090 0.831607 0.625330
O O3 0.106001 0.815672 0.579018
O O4 0.159655 0.665262 0.640636
O O5 0.602744 0.500000 0.669711
O O6 0.683399 0.396636 0.734978
O O7 0.572983 0.382692 0.783930
O O8 0.598609 0.314697 0.648719
O O9 0.250000 0.250000 0.750000
O O10 0.296256 0.091961 0.724823
O O11 0.000000 0.876547 0.597130
O O12 0.912731 0.000000 0.597706
O O13 0.906835 0.342551 0.922149
O O14 0.903325 0.500000 0.000000
O O15 0.000000 0.398128 0.000000
O O16 0.593953 0.843181 0.732838
O O17 0.624870 0.000000 0.805010
O O18 0.500000 0.215220 0.660504
#
# Coordination Sequence:
#
# PCOD8287886 Si02
#       7
#    16  16  16  16   8  16  16
#     4  10  21  36  55  84 119 147 181 232 282 331
#     4  10  18  31  57  86 113 145 182 229 282 339
#     4   9  17  37  57  79 109 146 186 229 275 326
#     4   9  17  31  52  79 112 151 190 223 267 329
#     4   9  20  38  57  79 111 147 186 244 302 339
#     4  11  22  38  61  82 108 150 195 235 278 333
#     4  11  21  37  59  84 112 147 191 238 289 345
#
# _framework density 19.071076999999999
#
# number of rings (size 3 to 8) (size 9 to 14) (size 15 to 20)
#    0.000    2.077    4.615    1.385    0.000    3.385 
#    1.385    1.154    0.000    1.385    0.000    2.154 
#    0.000    0.000    0.000    0.000    0.000    0.000 
#
# Total GULP energy -644461.385550 kJ/mol
# GULP energy per Si atom -12393.488184 kJ/mol
# Density = 1.902767 g / cm^3
# Si number density = 19.071077 Si / 1000 Ang^3
#
#
#
# Elastic Constant Matrix: (Units=GPa)
#
#
# Indices 1 2 3 4 5 6 
#
# 1 70.8378 26.4968 22.2157 0.0000 0.0000 0.0000
# 2 26.4968 149.9034 50.6681 0.0000 0.0000 0.0000
# 3 22.2157 50.6681 105.3758 0.0000 0.0000 0.0000
# 4 0.0000 0.0000 0.0000 14.8348 0.0000 0.0000
# 5 0.0000 0.0000 0.0000 0.0000 9.7648 0.0000
# 6 0.0000 0.0000 0.0000 0.0000 0.0000 22.2643
#
#
#
# Elastic Compliance Matrix: (Units=1/GPa)
#
#
# Indices 1 2 3 4 5 6 
#
# 1 0.015586 -0.001963 -0.002342 0.000000 0.000000 0.000000
# 2 -0.001963 0.008213 -0.003535 0.000000 0.000000 0.000000
# 3 -0.002342 -0.003535 0.011683 0.000000 0.000000 0.000000
# 4 0.000000 0.000000 0.000000 0.067409 0.000000 0.000000
# 5 0.000000 0.000000 0.000000 0.000000 0.102409 0.000000
# 6 0.000000 0.000000 0.000000 0.000000 0.000000 0.044915
#
#
# Mechanical properties :
#
#
# Convention : Reuss Voigt Hill
#
# Bulk Modulus (GPa) = 50.50165 58.31983 54.41074
# Shear Modulus (GPa) = 18.34891 24.48853 21.41872
#
# Velocity S-wave (km/s) = 3.10519 3.58727 3.35490
# Velocity P-wave (km/s) = 6.27651 6.91409 6.60300
#
# Compressibility (1/GPa) = 0.01980133
#
# Stress axis : x y z
#
# Youngs Moduli (GPa) = 64.16197 121.75990 85.59204
#
# Poissons Ratio (x) = 0.23906 0.20044
# Poissons Ratio (y) = 0.12597 0.30258
# Poissons Ratio (z) = 0.15025 0.43043
#
# Static dielectric constant tensor:
#      x y z
#    x 3.520150 0.000000 0.000000 
#    y 0.000000 3.880510 0.000000 
#    z 0.000000 0.000000 3.336580 
# 
# 
# High freq. dielectric constant tensor:
#      x y z
#    x 1.736950 0.000000 0.000000 
#    y 0.000000 1.751110 0.000000 
#    z 0.000000 0.000000 1.709430 
# 
# From -- ./inp_files/48227.got.cif
#   From: 2010.06.25/outbox.cif.g09.slc.cpg/sg71_25_cif.got.tgz:48227.got - 2010.06.28 04:59:45.
