data_PCOD8287957
_publ_section_title
;
Structure prediction by ZEFSAII (Michael W. Deem and Ramdas Pophale) SiO2 
 PCOD8287957
Probable space group: I M M M
;
_chemical_formula_sum "Si O2"
_cell_formula_units_Z 96
_cell_length_a 13.791911
_cell_length_b 24.277808
_cell_length_c 15.415752
_cell_angle_alpha 90.000000
_cell_angle_beta 90.000000
_cell_angle_gamma 90.000000
_cell_volume 5161.769813
_symmetry_space_group_name_H-M "I M M M"
_symmetry_group_IT_number 71
_symmetry_cell_setting 'orthorhombic'
loop_
_space_group_symop_operation_xyz
x,y,z
-x,-y,z
x,-y,-z
-x,y,-z
-x,-y,-z
x,y,-z
-x,y,z
x,-y,z
1/2+x,1/2+y,1/2+z
1/2-x,1/2-y,1/2+z
1/2+x,1/2-y,1/2-z
1/2-x,1/2+y,1/2-z
1/2-x,1/2-y,1/2-z
1/2+x,1/2+y,1/2-z
1/2-x,1/2+y,1/2+z
1/2+x,1/2-y,1/2+z
loop_
_atom_site_type_symbol
_atom_site_label
_atom_site_fract_x
_atom_site_fract_y
_atom_site_fract_z
Si Si1 0.274757 0.940291 0.902543
Si Si2 0.605396 0.000000 0.347470
Si Si3 0.385335 0.382596 0.899495
Si Si4 0.279799 0.312624 0.759414
Si Si5 0.108408 0.610401 0.262260
Si Si6 0.312849 0.500000 0.904209
Si Si7 0.387916 0.359203 0.401830
O O1 0.353567 0.900874 0.858925
O O2 0.165015 0.918078 0.896530
O O3 0.273648 0.000000 0.856867
O O4 0.310641 0.945202 0.000000
O O5 0.612700 0.945933 0.289760
O O6 0.695900 0.000000 0.412266
O O7 0.500000 0.000000 0.395916
O O8 0.500000 0.381163 0.893040
O O9 0.345849 0.331708 0.841125
O O10 0.349169 0.442353 0.860755
O O11 0.351019 0.375016 0.000000
O O12 0.250000 0.250000 0.750000
O O13 0.179817 0.344709 0.777521
O O14 0.336406 0.321431 0.669270
O O15 0.000000 0.634809 0.265309
O O16 0.358371 0.500000 0.000000
O O17 0.376221 0.334563 0.500000
O O18 0.500000 0.367555 0.378051
#
# Coordination Sequence:
#
# PCOD8287957 Si02
#       7
#    16   8  16  16  16   8  16
#     4   9  17  29  48  76 108 140 175 216 263 318
#     4  10  18  32  54  78 110 146 180 221 277 332
#     4  10  21  38  61  90 120 149 187 240 300 358
#     4  11  23  38  59  81 109 149 193 235 284 339
#     4  10  20  34  51  74 106 143 182 227 275 327
#     4  10  19  35  60  88 118 148 183 234 299 361
#     4   9  19  36  56  79 109 143 180 223 273 330
#
# _framework density 18.598272000000001
#
# number of rings (size 3 to 8) (size 9 to 14) (size 15 to 20)
#    0.000    2.167    2.500    0.750    0.000    3.833 
#    0.000    2.500    0.000    0.500    0.000    0.000 
#    0.000    0.000    0.000    0.000    0.000    0.000 
#
# Total GULP energy -594646.993648 kJ/mol
# GULP energy per Si atom -12388.479034 kJ/mol
# Density = 1.855594 g / cm^3
# Si number density = 18.598272 Si / 1000 Ang^3
#
#
#
# Elastic Constant Matrix: (Units=GPa)
#
#
# Indices 1 2 3 4 5 6 
#
# 1 130.9282 31.7322 37.3060 0.0000 0.0000 0.0000
# 2 31.7322 95.9385 33.3475 0.0000 0.0000 0.0000
# 3 37.3060 33.3475 74.4239 0.0001 0.0000 0.0000
# 4 0.0000 0.0000 0.0001 20.5378 0.0000 0.0000
# 5 0.0000 0.0000 0.0000 0.0000 25.3942 0.0000
# 6 0.0000 0.0000 0.0000 0.0000 0.0000 18.0908
#
#
#
# Elastic Compliance Matrix: (Units=1/GPa)
#
#
# Indices 1 2 3 4 5 6 
#
# 1 0.009137 -0.001694 -0.003821 0.000000 0.000000 0.000000
# 2 -0.001694 0.012660 -0.004824 0.000000 0.000000 0.000000
# 3 -0.003821 -0.004824 0.017513 0.000000 0.000000 0.000000
# 4 0.000000 0.000000 0.000000 0.048691 0.000000 0.000000
# 5 0.000000 0.000000 0.000000 0.000000 0.039379 0.000000
# 6 0.000000 0.000000 0.000000 0.000000 0.000000 0.055277
#
#
# Mechanical properties :
#
#
# Convention : Reuss Voigt Hill
#
# Bulk Modulus (GPa) = 53.66738 56.22912 54.94825
# Shear Modulus (GPa) = 23.86114 26.06488 24.96301
#
# Velocity S-wave (km/s) = 3.58575 3.74768 3.66761
# Velocity P-wave (km/s) = 6.78692 7.00185 6.89522
#
# Compressibility (1/GPa) = 0.01863329
#
# Stress axis : x y z
#
# Youngs Moduli (GPa) = 109.44414 78.98713 57.09965
#
# Poissons Ratio (x) = 0.13380 0.21818
# Poissons Ratio (y) = 0.18540 0.27543
# Poissons Ratio (z) = 0.41819 0.38100
#
# Static dielectric constant tensor:
#      x y z
#    x 3.627790 0.000000 0.000000 
#    y 0.000000 2.841380 0.000000 
#    z 0.000000 0.000000 3.487590 
# 
# 
# High freq. dielectric constant tensor:
#      x y z
#    x 1.733180 0.000000 0.000000 
#    y 0.000000 1.700910 0.000000 
#    z 0.000000 0.000000 1.716340 
# 
# From -- ./inp_files/34806.got.cif
#   From: 2010.06.25/outbox.cif.g09.slc.cpg/sg71_18_cif.got.tgz:34806.got - 2010.06.28 04:59:45.
