data_PCOD8287662
_publ_section_title
;
Structure prediction by ZEFSAII (Michael W. Deem and Ramdas Pophale) SiO2 
 PCOD8287662
Probable space group: I M M M
;
_chemical_formula_sum "Si O2"
_cell_formula_units_Z 84
_cell_length_a 28.141152
_cell_length_b 12.051172
_cell_length_c 14.812906
_cell_angle_alpha 90.000000
_cell_angle_beta 90.000000
_cell_angle_gamma 90.000000
_cell_volume 5023.558034
_symmetry_space_group_name_H-M "I M M M"
_symmetry_group_IT_number 71
_symmetry_cell_setting 'orthorhombic'
loop_
_space_group_symop_operation_xyz
x,y,z
-x,-y,z
x,-y,-z
-x,y,-z
-x,-y,-z
x,y,-z
-x,y,z
x,-y,z
1/2+x,1/2+y,1/2+z
1/2-x,1/2-y,1/2+z
1/2+x,1/2-y,1/2-z
1/2-x,1/2+y,1/2-z
1/2-x,1/2-y,1/2-z
1/2+x,1/2+y,1/2-z
1/2-x,1/2+y,1/2+z
1/2+x,1/2-y,1/2+z
loop_
_atom_site_type_symbol
_atom_site_label
_atom_site_fract_x
_atom_site_fract_y
_atom_site_fract_z
Si Si1 0.054004 0.000000 0.313784
Si Si2 0.683489 0.123211 0.000000
Si Si3 0.199516 0.764827 0.799820
Si Si4 0.852104 0.000000 0.805673
Si Si5 0.719947 0.721506 0.500000
Si Si6 0.870609 0.626561 0.684796
Si Si7 0.554117 0.733871 0.898765
Si Si8 0.665307 0.500000 0.500000
O O1 0.060552 0.104791 0.377976
O O2 0.096782 0.000000 0.241866
O O3 0.000000 0.000000 0.270449
O O4 0.652777 0.139998 0.088077
O O5 0.723128 0.218148 0.000000
O O6 0.706025 0.000000 0.000000
O O7 0.250000 0.750000 0.750000
O O8 0.203119 0.725415 0.904998
O O9 0.162253 0.678104 0.761117
O O10 0.180182 0.890905 0.784670
O O11 0.867290 0.000000 0.910982
O O12 0.701589 0.598727 0.500000
O O13 0.881167 0.500000 0.710801
O O14 0.919676 0.693453 0.677331
O O15 0.500000 0.771356 0.892823
O O16 0.573693 0.755348 0.000000
#
# Coordination Sequence:
#
# PCOD8287662 Si02
#       8
#     8   8  16   8   8  16  16   4
#     4  10  19  34  55  80 109 141 174 215 268 323
#     4  10  18  30  49  74 104 134 179 220 262 303
#     4  11  22  34  54  77 107 140 178 221 266 318
#     4  10  20  35  55  79 104 136 179 220 266 323
#     4  10  18  32  51  74 101 141 174 216 259 319
#     4  11  22  34  52  77 107 141 181 223 264 307
#     4  10  20  35  54  79 110 142 175 214 265 322
#     4   8  18  30  51  76 100 128 173 216 264 306
#
# _framework density 16.721215999999998
#
# number of rings (size 3 to 8) (size 9 to 14) (size 15 to 20)
#    0.000    1.714    5.238    0.286    1.333    1.524 
#    0.000    1.667    0.000    0.000    0.000    0.667 
#    0.000    1.524    0.000    0.000    0.000    0.000 
#
# Total GULP energy -520441.742835 kJ/mol
# GULP energy per Si atom -12391.470068 kJ/mol
# Density = 1.668316 g / cm^3
# Si number density = 16.721216 Si / 1000 Ang^3
#
#
#
# Elastic Constant Matrix: (Units=GPa)
#
#
# Indices 1 2 3 4 5 6 
#
# 1 96.8978 47.3105 47.4881 0.0000 0.0000 0.0000
# 2 47.3105 104.0559 36.9926 0.0000 0.0000 0.0000
# 3 47.4881 36.9926 107.6040 0.0000 0.0000 0.0000
# 4 0.0000 0.0000 0.0000 31.3946 0.0000 0.0000
# 5 0.0000 0.0000 0.0000 0.0000 39.7669 0.0000
# 6 0.0000 0.0000 0.0000 0.0000 0.0000 24.2971
#
#
#
# Elastic Compliance Matrix: (Units=1/GPa)
#
#
# Indices 1 2 3 4 5 6 
#
# 1 0.015284 -0.005185 -0.004963 0.000000 0.000000 0.000000
# 2 -0.005185 0.012707 -0.002080 0.000000 0.000000 0.000000
# 3 -0.004963 -0.002080 0.012199 0.000000 0.000000 0.000000
# 4 0.000000 0.000000 0.000000 0.031853 0.000000 0.000000
# 5 0.000000 0.000000 0.000000 0.000000 0.025147 0.000000
# 6 0.000000 0.000000 0.000000 0.000000 0.000000 0.041157
#
#
# Mechanical properties :
#
#
# Convention : Reuss Voigt Hill
#
# Bulk Modulus (GPa) = 63.55642 63.57110 63.56376
# Shear Modulus (GPa) = 29.75377 30.87615 30.31496
#
# Velocity S-wave (km/s) = 4.22287 4.30178 4.26251
# Velocity P-wave (km/s) = 7.86567 7.92304 7.89441
#
# Compressibility (1/GPa) = 0.01573405
#
# Stress axis : x y z
#
# Youngs Moduli (GPa) = 65.42923 78.69617 81.97623
#
# Poissons Ratio (x) = 0.40802 0.40682
# Poissons Ratio (y) = 0.33923 0.17054
# Poissons Ratio (z) = 0.32470 0.16372
#
# Static dielectric constant tensor:
#      x y z
#    x 3.161280 0.000000 0.000000 
#    y 0.000000 3.141150 0.000000 
#    z 0.000000 0.000000 1.013280 
# 
# 
# High freq. dielectric constant tensor:
#      x y z
#    x 1.644580 0.000000 0.000000 
#    y 0.000000 1.639360 0.000000 
#    z 0.000000 0.000000 1.638880 
# 
# From -- ./inp_files/40876.got.cif
#   From: 2010.06.25/outbox.cif.g09.slc.cpg/sg71_21_cif.got.tgz:40876.got - 2010.06.28 04:59:45.
