data_PCOD8287948
_publ_section_title
;
Structure prediction by ZEFSAII (Michael W. Deem and Ramdas Pophale) SiO2 
 PCOD8287948
Probable space group: I M M M
;
_chemical_formula_sum "Si O2"
_cell_formula_units_Z 88
_cell_length_a 17.802982
_cell_length_b 9.277174
_cell_length_c 29.296432
_cell_angle_alpha 90.000000
_cell_angle_beta 90.000000
_cell_angle_gamma 90.000000
_cell_volume 4838.638603
_symmetry_space_group_name_H-M "I M M M"
_symmetry_group_IT_number 71
_symmetry_cell_setting 'orthorhombic'
loop_
_space_group_symop_operation_xyz
x,y,z
-x,-y,z
x,-y,-z
-x,y,-z
-x,-y,-z
x,y,-z
-x,y,z
x,-y,z
1/2+x,1/2+y,1/2+z
1/2-x,1/2-y,1/2+z
1/2+x,1/2-y,1/2-z
1/2-x,1/2+y,1/2-z
1/2-x,1/2-y,1/2-z
1/2+x,1/2+y,1/2-z
1/2-x,1/2+y,1/2+z
1/2+x,1/2-y,1/2+z
loop_
_atom_site_type_symbol
_atom_site_label
_atom_site_fract_x
_atom_site_fract_y
_atom_site_fract_z
Si Si1 0.638545 0.329350 0.403876
Si Si2 0.416655 0.670301 0.308056
Si Si3 0.292771 0.828862 0.051113
Si Si4 0.914182 0.669674 0.377858
Si Si5 0.910504 0.160758 0.290469
Si Si6 0.000000 0.663917 0.946076
O O1 0.626342 0.500000 0.410853
O O2 0.637570 0.287926 0.350023
O O3 0.717153 0.275148 0.424338
O O4 0.573362 0.246648 0.429627
O O5 0.500000 0.734766 0.317931
O O6 0.424216 0.500000 0.303467
O O7 0.383994 0.724748 0.259020
O O8 0.364567 0.774027 0.079768
O O9 0.292925 0.000000 0.048827
O O10 0.297420 0.763963 0.000000
O O11 0.906717 0.500000 0.371774
O O12 0.881841 0.738354 0.331345
O O13 0.000000 0.716385 0.387486
O O14 0.000000 0.157673 0.289491
O O15 0.878612 0.000000 0.298823
O O16 0.000000 0.500000 0.927388
O O17 0.000000 0.664913 0.000000
#
# Coordination Sequence:
#
# PCOD8287948 Si02
#       6
#    16  16  16  16  16   8
#     4  10  18  32  54  74  93 123 169 212 240 279
#     4   8  13  24  45  72  95 118 154 197 237 276
#     4   9  18  31  48  72  97 122 160 211 256 287
#     4   9  17  30  48  70  97 127 160 199 246 297
#     4   8  14  26  46  69  94 123 155 191 234 288
#     4  11  23  35  47  69 103 135 163 199 246 295
#
# _framework density 18.186934000000001
#
# number of rings (size 3 to 8) (size 9 to 14) (size 15 to 20)
#    0.000    3.000    0.909    1.909    0.000    1.818 
#    0.000    4.545    0.000    1.636    0.000    2.545 
#    0.000    0.000    0.000    0.000    0.000    0.000 
#
# Total GULP energy -545303.052184 kJ/mol
# GULP energy per Si atom -12393.251186 kJ/mol
# Density = 1.814554 g / cm^3
# Si number density = 18.186934 Si / 1000 Ang^3
#
#
#
# Elastic Constant Matrix: (Units=GPa)
#
#
# Indices 1 2 3 4 5 6 
#
# 1 95.8247 28.4187 78.5459 0.0000 0.0000 0.0000
# 2 28.4187 34.9022 32.8695 0.0000 0.0000 0.0000
# 3 78.5459 32.8695 189.3558 0.0000 0.0000 0.0000
# 4 0.0000 0.0000 0.0000 25.8431 0.0000 0.0000
# 5 0.0000 0.0000 0.0000 0.0000 29.1960 0.0000
# 6 0.0000 0.0000 0.0000 0.0000 0.0000 7.1601
#
#
#
# Elastic Compliance Matrix: (Units=1/GPa)
#
#
# Indices 1 2 3 4 5 6 
#
# 1 0.017935 -0.009082 -0.005863 0.000000 0.000000 0.000000
# 2 -0.009082 0.038849 -0.002977 0.000000 0.000000 0.000000
# 3 -0.005863 -0.002977 0.008230 0.000000 0.000000 0.000000
# 4 0.000000 0.000000 0.000000 0.038695 0.000000 0.000000
# 5 0.000000 0.000000 0.000000 0.000000 0.034251 0.000000
# 6 0.000000 0.000000 0.000000 0.000000 0.000000 0.139663
#
#
# Mechanical properties :
#
#
# Convention : Reuss Voigt Hill
#
# Bulk Modulus (GPa) = 34.28008 66.63899 50.45954
# Shear Modulus (GPa) = 15.47078 24.45640 19.96359
#
# Velocity S-wave (km/s) = 2.91976 3.67103 3.31673
# Velocity P-wave (km/s) = 5.50058 7.39522 6.51712
#
# Compressibility (1/GPa) = 0.02917146
#
# Stress axis : x y z
#
# Youngs Moduli (GPa) = 55.75712 25.74041 121.50983
#
# Poissons Ratio (x) = 0.23377 0.71242
# Poissons Ratio (y) = 0.50637 0.36168
# Poissons Ratio (z) = 0.32691 0.07662
#
# Static dielectric constant tensor:
#      x y z
#    x 3.133650 0.000000 0.000000 
#    y 0.000000 3.046160 0.000000 
#    z 0.000000 0.000000 3.904610 
# 
# 
# High freq. dielectric constant tensor:
#      x y z
#    x 1.680180 0.000000 0.000000 
#    y 0.000000 1.658340 0.000000 
#    z 0.000000 0.000000 1.725710 
# 
# From -- ./inp_files/8733.got.cif
#   From: 2010.06.25/outbox.cif.g09.slc.cpg/sg71_5_cif.got.tgz:8733.got - 2010.06.28 04:59:45.
