data_PCOD8287271
_publ_section_title
;
Structure prediction by ZEFSAII (Michael W. Deem and Ramdas Pophale) SiO2 
 PCOD8287271
Probable space group: I M M M
;
_chemical_formula_sum "Si O2"
_cell_formula_units_Z 104
_cell_length_a 18.555277
_cell_length_b 10.289600
_cell_length_c 32.791153
_cell_angle_alpha 90.000000
_cell_angle_beta 90.000000
_cell_angle_gamma 90.000000
_cell_volume 6260.696080
_symmetry_space_group_name_H-M "I M M M"
_symmetry_group_IT_number 71
_symmetry_cell_setting 'orthorhombic'
loop_
_space_group_symop_operation_xyz
x,y,z
-x,-y,z
x,-y,-z
-x,y,-z
-x,-y,-z
x,y,-z
-x,y,z
x,-y,z
1/2+x,1/2+y,1/2+z
1/2-x,1/2-y,1/2+z
1/2+x,1/2-y,1/2-z
1/2-x,1/2+y,1/2-z
1/2-x,1/2-y,1/2-z
1/2+x,1/2+y,1/2-z
1/2-x,1/2+y,1/2+z
1/2+x,1/2-y,1/2+z
loop_
_atom_site_type_symbol
_atom_site_label
_atom_site_fract_x
_atom_site_fract_y
_atom_site_fract_z
Si Si1 0.288928 0.847239 0.376677
Si Si2 0.083792 0.148569 0.249068
Si Si3 0.082796 0.765033 0.414847
Si Si4 0.781402 0.146559 0.544356
Si Si5 0.853945 0.152580 0.665472
Si Si6 0.084716 0.500000 0.545322
Si Si7 0.582659 0.150901 0.321900
O O1 0.270363 0.785192 0.421299
O O2 0.228369 0.805035 0.343746
O O3 0.367863 0.808007 0.360416
O O4 0.283413 0.000000 0.382424
O O5 0.127941 0.194718 0.288620
O O6 0.103926 0.251991 0.214333
O O7 0.000000 0.156489 0.259941
O O8 0.103902 0.000000 0.235959
O O9 0.136312 0.860759 0.438999
O O10 0.092369 0.776726 0.366161
O O11 0.109371 0.623386 0.428793
O O12 0.000000 0.794509 0.426851
O O13 0.776031 0.217968 0.500000
O O14 0.755792 0.000000 0.537956
O O15 0.866815 0.000000 0.660198
O O16 0.119978 0.500000 0.500000
O O17 0.000000 0.500000 0.540279
O O18 0.500000 0.170618 0.335242
O O19 0.596891 0.000000 0.309028
#
# Coordination Sequence:
#
# PCOD8287271 Si02
#       7
#    16  16  16  16  16   8  16
#     4   8  15  28  45  63  87 115 142 176 218 264
#     4   9  17  29  45  66  92 120 148 182 222 260
#     4  10  18  28  42  60  83 116 154 186 213 249
#     4   9  17  28  44  66  87 110 140 177 224 268
#     4   9  17  29  45  64  88 119 149 177 219 267
#     4   9  18  30  40  52  76 114 155 189 223 255
#     4   9  17  30  48  68  87 114 150 183 219 267
#
# _framework density 16.611571000000001
#
# number of rings (size 3 to 8) (size 9 to 14) (size 15 to 20)
#    0.000    3.000    0.000    2.308    0.000    3.385 
#    1.385    0.769    6.769    0.462    0.000    3.231 
#    0.000    0.000    0.000    3.846    0.000    4.000 
#
# Total GULP energy -644288.965723 kJ/mol
# GULP energy per Si atom -12390.172418 kJ/mol
# Density = 1.657376 g / cm^3
# Si number density = 16.611571 Si / 1000 Ang^3
#
#
#
# Elastic Constant Matrix: (Units=GPa)
#
#
# Indices 1 2 3 4 5 6 
#
# 1 81.0401 21.0143 75.0214 0.0000 0.0000 0.0000
# 2 21.0143 45.8901 36.2442 0.0000 0.0000 0.0000
# 3 75.0214 36.2442 140.8850 0.0000 0.0000 0.0000
# 4 0.0000 0.0000 0.0000 20.2018 0.0000 0.0000
# 5 0.0000 0.0000 0.0000 0.0000 19.4673 0.0000
# 6 0.0000 0.0000 0.0000 0.0000 0.0000 10.7029
#
#
#
# Elastic Compliance Matrix: (Units=1/GPa)
#
#
# Indices 1 2 3 4 5 6 
#
# 1 0.024384 -0.001143 -0.012690 0.000000 0.000000 0.000000
# 2 -0.001143 0.027402 -0.006441 0.000000 0.000000 0.000000
# 3 -0.012690 -0.006441 0.015513 0.000000 0.000000 0.000000
# 4 0.000000 0.000000 0.000000 0.049500 0.000000 0.000000
# 5 0.000000 0.000000 0.000000 0.000000 0.051368 0.000000
# 6 0.000000 0.000000 0.000000 0.000000 0.000000 0.093432
#
#
# Mechanical properties :
#
#
# Convention : Reuss Voigt Hill
#
# Bulk Modulus (GPa) = 37.38361 59.15278 48.26820
# Shear Modulus (GPa) = 16.07389 19.11011 17.59200
#
# Velocity S-wave (km/s) = 3.11405 3.39545 3.25779
# Velocity P-wave (km/s) = 5.95678 7.14554 6.57807
#
# Compressibility (1/GPa) = 0.02674969
#
# Stress axis : x y z
#
# Youngs Moduli (GPa) = 41.01081 36.49435 64.46406
#
# Poissons Ratio (x) = 0.04172 0.81807
# Poissons Ratio (y) = 0.04688 0.41519
# Poissons Ratio (z) = 0.52044 0.23505
#
# Static dielectric constant tensor:
#      x y z
#    x 3.065860 0.000000 0.000000 
#    y 0.000000 3.043670 0.000000 
#    z 0.000000 0.000000 3.347550 
# 
# 
# High freq. dielectric constant tensor:
#      x y z
#    x 1.619900 0.000000 0.000000 
#    y 0.000000 1.610500 0.000000 
#    z 0.000000 0.000000 1.639820 
# 
# From -- ./inp_files/70505.got.cif
#   From: 2010.06.25/outbox.cif.g09.slc.cpg/sg71_36_cif.got.tgz:70505.got - 2010.06.28 04:59:45.
