data_PCOD8287811
_publ_section_title
;
Structure prediction by ZEFSAII (Michael W. Deem and Ramdas Pophale) SiO2 
 PCOD8287811
Probable space group: I M M M
;
_chemical_formula_sum "Si O2"
_cell_formula_units_Z 104
_cell_length_a 16.977978
_cell_length_b 26.528644
_cell_length_c 13.009977
_cell_angle_alpha 90.000000
_cell_angle_beta 90.000000
_cell_angle_gamma 90.000000
_cell_volume 5859.729213
_symmetry_space_group_name_H-M "I M M M"
_symmetry_group_IT_number 71
_symmetry_cell_setting 'orthorhombic'
loop_
_space_group_symop_operation_xyz
x,y,z
-x,-y,z
x,-y,-z
-x,y,-z
-x,-y,-z
x,y,-z
-x,y,z
x,-y,z
1/2+x,1/2+y,1/2+z
1/2-x,1/2-y,1/2+z
1/2+x,1/2-y,1/2-z
1/2-x,1/2+y,1/2-z
1/2-x,1/2-y,1/2-z
1/2+x,1/2+y,1/2-z
1/2-x,1/2+y,1/2+z
1/2+x,1/2-y,1/2+z
loop_
_atom_site_type_symbol
_atom_site_label
_atom_site_fract_x
_atom_site_fract_y
_atom_site_fract_z
Si Si1 0.589372 0.500000 0.121079
Si Si2 0.500000 0.074394 0.611974
Si Si3 0.171129 0.556836 0.118487
Si Si4 0.144482 0.744742 0.816100
Si Si5 0.692444 0.706783 0.115360
Si Si6 0.500000 0.191268 0.612582
Si Si7 0.408389 0.647579 0.617224
Si Si8 0.323563 0.400864 0.200286
O O1 0.500000 0.500000 0.162526
O O2 0.630304 0.551181 0.157797
O O3 0.592362 0.500000 0.000000
O O4 0.500000 0.047751 0.500000
O O5 0.582155 0.058303 0.666431
O O6 0.500000 0.132946 0.597259
O O7 0.202622 0.500000 0.118045
O O8 0.229638 0.588341 0.192419
O O9 0.172341 0.578014 0.000000
O O10 0.214579 0.713531 0.868428
O O11 0.153472 0.754601 0.694917
O O12 0.127687 0.796588 0.875718
O O13 0.073873 0.706461 0.821154
O O14 0.661816 0.649848 0.134502
O O15 0.668346 0.722007 0.000000
O O16 0.500000 0.218025 0.500000
O O17 0.402657 0.628941 0.500000
O O18 0.500000 0.647525 0.654304
O O19 0.354673 0.609481 0.684274
#
# Coordination Sequence:
#
# PCOD8287811 Si02
#       8
#     8   8  16  16  16   8  16  16
#     4  11  22  36  53  74 104 144 184 220 261 319
#     4   9  19  30  47  79 109 138 173 212 259 315
#     4  10  18  31  51  75 109 143 172 211 263 320
#     4  10  20  32  53  78 103 139 178 213 260 318
#     4  10  20  34  51  76 108 138 173 218 264 313
#     4  11  18  29  49  72 101 132 172 215 253 304
#     4  10  20  36  56  77 105 139 179 230 275 313
#     4  11  21  34  54  78 106 140 182 217 268 326
#
# _framework density 17.748259999999998
#
# number of rings (size 3 to 8) (size 9 to 14) (size 15 to 20)
#    0.000    1.769    1.538    4.385    0.000    2.154 
#    0.000    0.769    0.000    1.385    0.000    1.615 
#    0.000    1.231    0.000    0.000    0.000    0.000 
#
# Total GULP energy -644453.338737 kJ/mol
# GULP energy per Si atom -12393.333437 kJ/mol
# Density = 1.770786 g / cm^3
# Si number density = 17.748260 Si / 1000 Ang^3
#
#
#
# Elastic Constant Matrix: (Units=GPa)
#
#
# Indices 1 2 3 4 5 6 
#
# 1 112.9165 31.9457 43.7534 0.0000 0.0000 0.0000
# 2 31.9457 75.2698 25.9607 0.0002 0.0001 0.0000
# 3 43.7534 25.9607 96.8021 0.0006 0.0003 0.0000
# 4 0.0000 0.0002 0.0006 12.2872 0.0000 0.0000
# 5 0.0000 0.0001 0.0003 0.0000 20.4976 0.0000
# 6 0.0000 0.0000 0.0000 0.0000 0.0000 32.7382
#
#
#
# Elastic Compliance Matrix: (Units=1/GPa)
#
#
# Indices 1 2 3 4 5 6 
#
# 1 0.011473 -0.003395 -0.004275 0.000000 0.000000 0.000000
# 2 -0.003395 0.015644 -0.002661 0.000000 0.000000 0.000000
# 3 -0.004275 -0.002661 0.012976 -0.000001 0.000000 0.000000
# 4 0.000000 0.000000 -0.000001 0.081386 0.000000 0.000000
# 5 0.000000 0.000000 0.000000 0.000000 0.048786 0.000000
# 6 0.000000 0.000000 0.000000 0.000000 0.000000 0.030545
#
#
# Mechanical properties :
#
#
# Convention : Reuss Voigt Hill
#
# Bulk Modulus (GPa) = 51.46331 54.25642 52.85987
# Shear Modulus (GPa) = 21.93460 25.32651 23.63056
#
# Velocity S-wave (km/s) = 3.51931 3.78164 3.65283
# Velocity P-wave (km/s) = 6.75080 7.05012 6.90208
#
# Compressibility (1/GPa) = 0.01943132
#
# Stress axis : x y z
#
# Youngs Moduli (GPa) = 87.15996 63.92155 77.06303
#
# Poissons Ratio (x) = 0.21700 0.32947
# Poissons Ratio (y) = 0.29589 0.20507
# Poissons Ratio (z) = 0.37263 0.17010
#
# Static dielectric constant tensor:
#      x y z
#    x 3.550140 0.000000 0.000000 
#    y 0.000000 3.325310 0.000000 
#    z 0.000000 0.000000 3.211590 
# 
# 
# High freq. dielectric constant tensor:
#      x y z
#    x 1.699010 0.000000 0.000000 
#    y 0.000000 1.690750 0.000000 
#    z 0.000000 0.000000 1.652370 
# 
# From -- ./inp_files/24634.got.cif
#   From: 2010.06.25/outbox.cif.g09.slc.cpg/sg71_13_cif.got.tgz:24634.got - 2010.06.28 04:59:45.
