data_PCOD8287511
_publ_section_title
;
Structure prediction by ZEFSAII (Michael W. Deem and Ramdas Pophale) SiO2 
 PCOD8287511
Probable space group: I M M M
;
_chemical_formula_sum "Si O2"
_cell_formula_units_Z 88
_cell_length_a 21.695666
_cell_length_b 9.479207
_cell_length_c 23.920232
_cell_angle_alpha 90.000000
_cell_angle_beta 90.000000
_cell_angle_gamma 90.000000
_cell_volume 4919.380112
_symmetry_space_group_name_H-M "I M M M"
_symmetry_group_IT_number 71
_symmetry_cell_setting 'orthorhombic'
loop_
_space_group_symop_operation_xyz
x,y,z
-x,-y,z
x,-y,-z
-x,y,-z
-x,-y,-z
x,y,-z
-x,y,z
x,-y,z
1/2+x,1/2+y,1/2+z
1/2-x,1/2-y,1/2+z
1/2+x,1/2-y,1/2-z
1/2-x,1/2+y,1/2-z
1/2-x,1/2-y,1/2-z
1/2+x,1/2+y,1/2-z
1/2-x,1/2+y,1/2+z
1/2+x,1/2-y,1/2+z
loop_
_atom_site_type_symbol
_atom_site_label
_atom_site_fract_x
_atom_site_fract_y
_atom_site_fract_z
Si Si1 0.567769 0.842665 0.731566
Si Si2 0.640049 0.340028 0.349671
Si Si3 0.396369 0.160127 0.146787
Si Si4 0.000000 0.669086 0.564668
Si Si5 0.269231 0.837274 0.804871
Si Si6 0.569973 0.840509 0.435756
O O1 0.500000 0.817060 0.705620
O O2 0.614911 0.730456 0.706893
O O3 0.562311 0.826136 0.797952
O O4 0.590943 0.000000 0.716278
O O5 0.616396 0.500000 0.351485
O O6 0.713817 0.331855 0.349261
O O7 0.616354 0.260337 0.403909
O O8 0.437556 0.227564 0.096095
O O9 0.329130 0.227668 0.162429
O O10 0.383120 0.000000 0.129464
O O11 0.000000 0.500000 0.569121
O O12 0.000000 0.720017 0.500000
O O13 0.250000 0.750000 0.750000
O O14 0.282694 0.000000 0.786461
O O15 0.588538 0.832725 0.500000
O O16 0.500000 0.789112 0.426692
O O17 0.577172 0.000000 0.413437
#
# Coordination Sequence:
#
# PCOD8287511 Si02
#       6
#    16  16  16   8  16  16
#     4  10  18  29  49  73  98 134 174 211 254 304
#     4  11  22  32  46  75 109 137 168 206 256 313
#     4   9  16  29  47  70  99 130 167 212 258 304
#     4   9  16  28  50  78 103 129 168 219 270 311
#     4  10  20  33  49  71 104 141 174 206 253 314
#     4   9  19  37  58  76  96 130 177 217 249 295
#
# _framework density 17.888432999999999
#
# number of rings (size 3 to 8) (size 9 to 14) (size 15 to 20)
#    0.000    2.273    2.727    1.636    0.000    4.000 
#    0.000    1.818    0.000    3.273    0.000    0.000 
#    0.000    5.091    0.000    0.000    0.000    0.000 
#
# Total GULP energy -545188.699661 kJ/mol
# GULP energy per Si atom -12390.652265 kJ/mol
# Density = 1.784772 g / cm^3
# Si number density = 17.888433 Si / 1000 Ang^3
#
#
#
# Elastic Constant Matrix: (Units=GPa)
#
#
# Indices 1 2 3 4 5 6 
#
# 1 130.6617 40.7408 52.8130 0.0000 0.0000 0.0000
# 2 40.7408 67.2092 32.1422 0.0000 0.0000 0.0000
# 3 52.8130 32.1422 104.6431 0.0000 0.0000 0.0000
# 4 0.0000 0.0000 0.0000 18.1845 0.0000 0.0000
# 5 0.0000 0.0000 0.0000 0.0000 22.7375 0.0000
# 6 0.0000 0.0000 0.0000 0.0000 0.0000 17.8112
#
#
#
# Elastic Compliance Matrix: (Units=1/GPa)
#
#
# Indices 1 2 3 4 5 6 
#
# 1 0.010693 -0.004572 -0.003992 0.000000 0.000000 0.000000
# 2 -0.004572 0.019396 -0.003650 0.000000 0.000000 0.000000
# 3 -0.003992 -0.003650 0.012692 0.000000 0.000000 0.000000
# 4 0.000000 0.000000 0.000000 0.054992 0.000000 0.000000
# 5 0.000000 0.000000 0.000000 0.000000 0.043980 0.000000
# 6 0.000000 0.000000 0.000000 0.000000 0.000000 0.056144
#
#
# Mechanical properties :
#
#
# Convention : Reuss Voigt Hill
#
# Bulk Modulus (GPa) = 54.49011 61.54510 58.01761
# Shear Modulus (GPa) = 21.88721 23.53452 22.71086
#
# Velocity S-wave (km/s) = 3.50171 3.63109 3.56699
# Velocity P-wave (km/s) = 6.84664 7.21522 7.03335
#
# Compressibility (1/GPa) = 0.01835195
#
# Stress axis : x y z
#
# Youngs Moduli (GPa) = 93.52222 51.55635 78.78849
#
# Poissons Ratio (x) = 0.23574 0.31453
# Poissons Ratio (y) = 0.42763 0.28758
# Poissons Ratio (z) = 0.37335 0.18818
#
# Static dielectric constant tensor:
#      x y z
#    x 3.558340 0.000000 0.000000 
#    y 0.000000 3.056050 0.000000 
#    z 0.000000 0.000000 3.197620 
# 
# 
# High freq. dielectric constant tensor:
#      x y z
#    x 1.703860 0.000000 0.000000 
#    y 0.000000 1.653960 0.000000 
#    z 0.000000 0.000000 1.680250 
# 
# From -- ./inp_files/10410.got.cif
#   From: 2010.06.25/outbox.cif.g09.slc.cpg/sg71_6_cif.got.tgz:10410.got - 2010.06.28 04:59:45.
