data_PCOD8287828
_publ_section_title
;
Structure prediction by ZEFSAII (Michael W. Deem and Ramdas Pophale) SiO2 
 PCOD8287828
Probable space group: I M M M
;
_chemical_formula_sum "Si O2"
_cell_formula_units_Z 120
_cell_length_a 20.409946
_cell_length_b 18.095788
_cell_length_c 18.408726
_cell_angle_alpha 90.000000
_cell_angle_beta 90.000000
_cell_angle_gamma 90.000000
_cell_volume 6798.969438
_symmetry_space_group_name_H-M "I M M M"
_symmetry_group_IT_number 71
_symmetry_cell_setting 'orthorhombic'
loop_
_space_group_symop_operation_xyz
x,y,z
-x,-y,z
x,-y,-z
-x,y,-z
-x,-y,-z
x,y,-z
-x,y,z
x,-y,z
1/2+x,1/2+y,1/2+z
1/2-x,1/2-y,1/2+z
1/2+x,1/2-y,1/2-z
1/2-x,1/2+y,1/2-z
1/2-x,1/2-y,1/2-z
1/2+x,1/2+y,1/2-z
1/2-x,1/2+y,1/2+z
1/2+x,1/2-y,1/2+z
loop_
_atom_site_type_symbol
_atom_site_label
_atom_site_fract_x
_atom_site_fract_y
_atom_site_fract_z
Si Si1 0.928102 0.081480 0.776915
Si Si2 0.000000 0.588695 0.087331
Si Si3 0.614935 0.823803 0.330482
Si Si4 0.203163 0.920065 0.160136
Si Si5 0.425685 0.730881 0.193012
Si Si6 0.253303 0.916132 0.678724
Si Si7 0.676557 0.685334 0.918628
Si Si8 0.195444 0.218760 0.920943
O O1 0.875985 0.084197 0.842154
O O2 0.916337 0.147512 0.720812
O O3 0.000000 0.090351 0.812157
O O4 0.921573 0.000000 0.737998
O O5 0.937408 0.627711 0.124556
O O6 0.000000 0.500000 0.103219
O O7 0.000000 0.602254 0.000000
O O8 0.589210 0.794674 0.252622
O O9 0.678700 0.873230 0.321718
O O10 0.635286 0.749697 0.373462
O O11 0.224206 0.905428 0.241974
O O12 0.228858 0.856077 0.108711
O O13 0.228724 0.000000 0.132650
O O14 0.500000 0.743569 0.166057
O O15 0.376402 0.735718 0.124514
O O16 0.196746 0.889299 0.623436
O O17 0.269227 0.000000 0.658858
O O18 0.745072 0.725956 0.924342
O O19 0.649705 0.668251 0.000000
O O20 0.165742 0.204021 0.000000
#
# Coordination Sequence:
#
# PCOD8287828 Si02
#       8
#    16   8  16  16  16  16  16  16
#     4   9  17  29  47  72 101 134 169 206 254 307
#     4  11  24  40  56  78 110 142 172 215 270 322
#     4  11  20  36  55  79 104 139 181 224 263 324
#     4  10  18  31  52  76 102 134 173 217 261 308
#     4  11  20  33  56  80 105 142 184 227 269 316
#     4  10  20  34  54  78 104 138 179 223 272 325
#     4  10  21  35  52  76 109 143 176 222 275 324
#     4  10  20  34  51  74 105 139 172 213 267 322
#
# _framework density 17.649733999999999
#
# number of rings (size 3 to 8) (size 9 to 14) (size 15 to 20)
#    0.000    1.800    3.333    1.600    0.000    3.467 
#    0.000    0.000    0.000    0.000    0.000    4.667 
#    0.000    0.533    0.000    0.000    0.000    0.000 
#
# Total GULP energy -743400.137289 kJ/mol
# GULP energy per Si atom -12390.002288 kJ/mol
# Density = 1.760956 g / cm^3
# Si number density = 17.649734 Si / 1000 Ang^3
#
#
#
# Elastic Constant Matrix: (Units=GPa)
#
#
# Indices 1 2 3 4 5 6 
#
# 1 66.1421 24.1602 25.3435 0.0000 0.0000 0.0000
# 2 24.1602 101.3696 47.9547 0.0000 0.0000 0.0000
# 3 25.3435 47.9547 73.5205 0.0000 0.0000 0.0000
# 4 0.0000 0.0000 0.0000 16.3867 0.0000 0.0000
# 5 0.0000 0.0000 0.0000 0.0000 15.8933 0.0000
# 6 0.0000 0.0000 0.0000 0.0000 0.0000 17.2397
#
#
#
# Elastic Compliance Matrix: (Units=1/GPa)
#
#
# Indices 1 2 3 4 5 6 
#
# 1 0.017676 -0.001924 -0.004838 0.000000 0.000000 0.000000
# 2 -0.001924 0.014477 -0.008779 0.000000 0.000000 0.000000
# 3 -0.004838 -0.008779 0.020996 0.000000 0.000000 0.000000
# 4 0.000000 0.000000 0.000000 0.061025 0.000000 0.000000
# 5 0.000000 0.000000 0.000000 0.000000 0.062920 0.000000
# 6 0.000000 0.000000 0.000000 0.000000 0.000000 0.058006
#
#
# Mechanical properties :
#
#
# Convention : Reuss Voigt Hill
#
# Bulk Modulus (GPa) = 45.32019 48.43878 46.87949
# Shear Modulus (GPa) = 18.27911 19.47553 18.87732
#
# Velocity S-wave (km/s) = 3.22166 3.32542 3.27395
# Velocity P-wave (km/s) = 6.29063 6.49989 6.39612
#
# Compressibility (1/GPa) = 0.02206522
#
# Stress axis : x y z
#
# Youngs Moduli (GPa) = 56.57536 69.07654 47.62846
#
# Poissons Ratio (x) = 0.13291 0.23043
# Poissons Ratio (y) = 0.10885 0.41815
# Poissons Ratio (z) = 0.27371 0.60645
#
# Static dielectric constant tensor:
#      x y z
#    x 3.450550 0.000000 0.000000 
#    y 0.000000 3.440710 0.000000 
#    z 0.000000 0.000000 3.299510 
# 
# 
# High freq. dielectric constant tensor:
#      x y z
#    x 1.686730 0.000000 0.000000 
#    y 0.000000 1.690370 0.000000 
#    z 0.000000 0.000000 1.657620 
# 
# From -- ./inp_files/46488.got.cif
#   From: 2010.06.25/outbox.cif.g09.slc.cpg/sg71_24_cif.got.tgz:46488.got - 2010.06.28 04:59:45.
