data_PCOD8287731
_publ_section_title
;
Structure prediction by ZEFSAII (Michael W. Deem and Ramdas Pophale) SiO2 
 PCOD8287731
Probable space group: I M M M
;
_chemical_formula_sum "Si O2"
_cell_formula_units_Z 88
_cell_length_a 22.181996
_cell_length_b 8.970925
_cell_length_c 22.467702
_cell_angle_alpha 90.000000
_cell_angle_beta 90.000000
_cell_angle_gamma 90.000000
_cell_volume 4470.915929
_symmetry_space_group_name_H-M "I M M M"
_symmetry_group_IT_number 71
_symmetry_cell_setting 'orthorhombic'
loop_
_space_group_symop_operation_xyz
x,y,z
-x,-y,z
x,-y,-z
-x,y,-z
-x,-y,-z
x,y,-z
-x,y,z
x,-y,z
1/2+x,1/2+y,1/2+z
1/2-x,1/2-y,1/2+z
1/2+x,1/2-y,1/2-z
1/2-x,1/2+y,1/2-z
1/2-x,1/2-y,1/2-z
1/2+x,1/2+y,1/2-z
1/2-x,1/2+y,1/2+z
1/2+x,1/2-y,1/2+z
loop_
_atom_site_type_symbol
_atom_site_label
_atom_site_fract_x
_atom_site_fract_y
_atom_site_fract_z
Si Si1 0.283401 0.826185 0.500000
Si Si2 0.598758 0.176038 0.337729
Si Si3 0.349749 0.831088 0.130036
Si Si4 0.162567 0.331957 0.500000
Si Si5 0.209709 0.825521 0.118560
Si Si6 0.500000 0.176678 0.568012
Si Si7 0.066797 0.168882 0.720506
O O1 0.212231 0.796324 0.500000
O O2 0.312309 0.751446 0.557701
O O3 0.298245 0.000000 0.500000
O O4 0.664317 0.254906 0.333629
O O5 0.559260 0.228612 0.394976
O O6 0.565861 0.225132 0.277669
O O7 0.607479 0.000000 0.337608
O O8 0.374459 0.815164 0.061584
O O9 0.279046 0.787762 0.133565
O O10 0.385884 0.719315 0.170960
O O11 0.359401 0.000000 0.152519
O O12 0.192712 0.500000 0.500000
O O13 0.199688 0.000000 0.113962
O O14 0.500000 0.242110 0.500000
O O15 0.500000 0.000000 0.564583
O O16 0.000000 0.177043 0.692180
O O17 0.083011 0.000000 0.739261
#
# Coordination Sequence:
#
# PCOD8287731 Si02
#       7
#     8  16  16   8  16   8  16
#     4  10  18  30  52  82 116 156 196 230 277 346
#     4  11  22  38  62  87 115 155 198 242 292 349
#     4   9  19  37  62  87 116 153 193 236 289 350
#     4   8  16  34  57  85 119 150 182 233 290 341
#     4  10  21  37  56  85 121 154 189 242 299 347
#     4   9  20  38  59  87 121 152 192 247 288 330
#     4  11  24  41  60  82 114 154 196 243 294 347
#
# _framework density 19.682767999999999
#
# number of rings (size 3 to 8) (size 9 to 14) (size 15 to 20)
#    0.000    2.091    0.909    3.545    1.273    5.455 
#    0.000    0.455    0.000    4.909    0.000    0.000 
#    0.000    0.000    0.000    0.000    0.000    0.000 
#
# Total GULP energy -545374.804196 kJ/mol
# GULP energy per Si atom -12394.881914 kJ/mol
# Density = 1.963797 g / cm^3
# Si number density = 19.682768 Si / 1000 Ang^3
#
#
#
# Elastic Constant Matrix: (Units=GPa)
#
#
# Indices 1 2 3 4 5 6 
#
# 1 99.2478 53.9279 51.7574 0.0000 0.0000 0.0000
# 2 53.9279 102.6984 39.5036 0.0000 0.0000 0.0000
# 3 51.7574 39.5036 104.5879 0.0000 0.0000 0.0000
# 4 0.0000 0.0000 0.0000 32.1379 0.0000 0.0000
# 5 0.0000 0.0000 0.0000 0.0000 28.7155 0.0000
# 6 0.0000 0.0000 0.0000 0.0000 0.0000 26.4130
#
#
#
# Elastic Compliance Matrix: (Units=1/GPa)
#
#
# Indices 1 2 3 4 5 6 
#
# 1 0.016620 -0.006509 -0.005766 0.000000 0.000000 0.000000
# 2 -0.006509 0.013942 -0.002045 0.000000 0.000000 0.000000
# 3 -0.005766 -0.002045 0.013187 0.000000 0.000000 0.000000
# 4 0.000000 0.000000 0.000000 0.031116 0.000000 0.000000
# 5 0.000000 0.000000 0.000000 0.000000 0.034824 0.000000
# 6 0.000000 0.000000 0.000000 0.000000 0.000000 0.037860
#
#
# Mechanical properties :
#
#
# Convention : Reuss Voigt Hill
#
# Bulk Modulus (GPa) = 66.18709 66.32356 66.25533
# Shear Modulus (GPa) = 27.59005 28.20965 27.89985
#
# Velocity S-wave (km/s) = 3.74804 3.78989 3.76902
# Velocity P-wave (km/s) = 7.24088 7.27464 7.25778
#
# Compressibility (1/GPa) = 0.01510869
#
# Stress axis : x y z
#
# Youngs Moduli (GPa) = 60.16993 71.72675 75.83200
#
# Poissons Ratio (x) = 0.46688 0.43725
# Poissons Ratio (y) = 0.39166 0.15506
# Poissons Ratio (z) = 0.34694 0.14666
#
# Static dielectric constant tensor:
#      x y z
#    x 3.420280 0.000000 0.000000 
#    y 0.000000 3.462870 0.000000 
#    z 0.000000 0.000000 3.733120 
# 
# 
# High freq. dielectric constant tensor:
#      x y z
#    x 1.751490 0.000000 0.000000 
#    y 0.000000 1.764050 0.000000 
#    z 0.000000 0.000000 1.767200 
# 
# From -- ./inp_files/61171.got.cif
#   From: 2010.06.25/outbox.cif.g09.slc.cpg/sg71_31_cif.got.tgz:61171.got - 2010.06.28 04:59:45.
