data_PCOD8287089
_publ_section_title
;
Structure prediction by ZEFSAII (Michael W. Deem and Ramdas Pophale) SiO2 
 PCOD8287089
Probable space group: I M M M
;
_chemical_formula_sum "Si O2"
_cell_formula_units_Z 104
_cell_length_a 19.817169
_cell_length_b 24.765087
_cell_length_c 13.800422
_cell_angle_alpha 90.000000
_cell_angle_beta 90.000000
_cell_angle_gamma 90.000000
_cell_volume 6772.887125
_symmetry_space_group_name_H-M "I M M M"
_symmetry_group_IT_number 71
_symmetry_cell_setting 'orthorhombic'
loop_
_space_group_symop_operation_xyz
x,y,z
-x,-y,z
x,-y,-z
-x,y,-z
-x,-y,-z
x,y,-z
-x,y,z
x,-y,z
1/2+x,1/2+y,1/2+z
1/2-x,1/2-y,1/2+z
1/2+x,1/2-y,1/2-z
1/2-x,1/2+y,1/2-z
1/2-x,1/2-y,1/2-z
1/2+x,1/2+y,1/2-z
1/2-x,1/2+y,1/2+z
1/2+x,1/2-y,1/2+z
loop_
_atom_site_type_symbol
_atom_site_label
_atom_site_fract_x
_atom_site_fract_y
_atom_site_fract_z
Si Si1 0.278892 0.260466 0.608685
Si Si2 0.676721 0.059770 0.884739
Si Si3 0.309545 0.383818 0.609427
Si Si4 0.422380 0.848265 0.887779
Si Si5 0.000000 0.937326 0.386330
Si Si6 0.425706 0.635396 0.245879
Si Si7 0.641015 0.746895 0.792715
O O1 0.296589 0.240534 0.500000
O O2 0.276109 0.325003 0.614102
O O3 0.335853 0.239040 0.682667
O O4 0.205710 0.238753 0.638590
O O5 0.752013 0.075946 0.850683
O O6 0.621473 0.102101 0.845331
O O7 0.660131 0.000000 0.844151
O O8 0.674056 0.060157 0.000000
O O9 0.330971 0.398420 0.500000
O O10 0.375899 0.389033 0.674229
O O11 0.500000 0.864214 0.874108
O O12 0.407151 0.794398 0.828131
O O13 0.404777 0.837111 0.000000
O O14 0.066625 0.908455 0.340922
O O15 0.000000 0.928195 0.500000
O O16 0.000000 0.000000 0.358075
O O17 0.500000 0.645164 0.293570
O O18 0.399713 0.691369 0.201873
#
# Coordination Sequence:
#
# PCOD8287089 Si02
#       7
#    16  16  16  16   8  16  16
#     4   9  17  28  46  69  96 127 153 185 234 280
#     4   9  17  29  45  66  93 125 158 185 218 272
#     4   9  16  30  49  69  94 123 154 187 230 276
#     4  10  19  29  45  68  96 127 152 187 235 275
#     4   9  20  38  51  61  89 125 155 197 244 275
#     4   9  20  32  47  70  91 118 158 194 233 277
#     4  10  17  29  47  69  97 121 153 194 232 273
#
# _framework density 15.355342
#
# number of rings (size 3 to 8) (size 9 to 14) (size 15 to 20)
#    0.462    2.231    1.538    0.923    0.000    2.462 
#    0.000    1.538    0.000    1.846    0.000    0.000 
#    0.000    0.615    0.000    1.385    0.000    0.154 
#
# Total GULP energy -644587.920183 kJ/mol
# GULP energy per Si atom -12395.921542 kJ/mol
# Density = 1.532039 g / cm^3
# Si number density = 15.355342 Si / 1000 Ang^3
#
#
#
# Elastic Constant Matrix: (Units=GPa)
#
#
# Indices 1 2 3 4 5 6 
#
# 1 101.6439 59.1876 44.5560 0.0000 0.0000 0.0000
# 2 59.1876 100.1338 43.4980 0.0000 0.0000 0.0000
# 3 44.5560 43.4980 81.2247 0.0000 0.0000 0.0000
# 4 0.0000 0.0000 0.0000 15.9057 0.0000 0.0000
# 5 0.0000 0.0000 0.0000 0.0000 21.8372 0.0000
# 6 0.0000 0.0000 0.0000 0.0000 0.0000 23.1309
#
#
#
# Elastic Compliance Matrix: (Units=1/GPa)
#
#
# Indices 1 2 3 4 5 6 
#
# 1 0.016404 -0.007542 -0.004960 0.000000 0.000000 0.000000
# 2 -0.007542 0.016481 -0.004689 0.000000 0.000000 0.000000
# 3 -0.004960 -0.004689 0.017543 0.000000 0.000000 0.000000
# 4 0.000000 0.000000 0.000000 0.062871 0.000000 0.000000
# 5 0.000000 0.000000 0.000000 0.000000 0.045793 0.000000
# 6 0.000000 0.000000 0.000000 0.000000 0.000000 0.043232
#
#
# Mechanical properties :
#
#
# Convention : Reuss Voigt Hill
#
# Bulk Modulus (GPa) = 62.31463 64.16508 63.23985
# Shear Modulus (GPa) = 20.65645 21.22547 20.94096
#
# Velocity S-wave (km/s) = 3.67172 3.72194 3.69691
# Velocity P-wave (km/s) = 7.65801 7.76840 7.71340
#
# Compressibility (1/GPa) = 0.01604760
#
# Stress axis : x y z
#
# Youngs Moduli (GPa) = 60.96130 60.67453 57.00157
#
# Poissons Ratio (x) = 0.45758 0.28271
# Poissons Ratio (y) = 0.45975 0.26730
# Poissons Ratio (z) = 0.30235 0.28452
#
# Static dielectric constant tensor:
#      x y z
#    x 2.919020 0.000000 0.000000 
#    y 0.000000 2.952210 0.000000 
#    z 0.000000 0.000000 2.846760 
# 
# 
# High freq. dielectric constant tensor:
#      x y z
#    x 1.591270 0.000000 0.000000 
#    y 0.000000 1.582000 0.000000 
#    z 0.000000 0.000000 1.561960 
# 
# From -- ./inp_files/38479.got.cif
#   From: 2010.06.25/outbox.cif.g09.slc.cpg/sg71_20_cif.got.tgz:38479.got - 2010.06.28 04:59:45.
