data_PCOD8287268
_publ_section_title
;
Structure prediction by ZEFSAII (Michael W. Deem and Ramdas Pophale) SiO2 
 PCOD8287268
Probable space group: I M M M
;
_chemical_formula_sum "Si O2"
_cell_formula_units_Z 72
_cell_length_a 14.532515
_cell_length_b 35.463234
_cell_length_c 9.615199
_cell_angle_alpha 90.000000
_cell_angle_beta 90.000000
_cell_angle_gamma 90.000000
_cell_volume 4955.384917
_symmetry_space_group_name_H-M "I M M M"
_symmetry_group_IT_number 71
_symmetry_cell_setting 'orthorhombic'
loop_
_space_group_symop_operation_xyz
x,y,z
-x,-y,z
x,-y,-z
-x,y,-z
-x,-y,-z
x,y,-z
-x,y,z
x,-y,z
1/2+x,1/2+y,1/2+z
1/2-x,1/2-y,1/2+z
1/2+x,1/2-y,1/2-z
1/2-x,1/2+y,1/2-z
1/2-x,1/2-y,1/2-z
1/2+x,1/2+y,1/2-z
1/2-x,1/2+y,1/2+z
1/2+x,1/2-y,1/2+z
loop_
_atom_site_type_symbol
_atom_site_label
_atom_site_fract_x
_atom_site_fract_y
_atom_site_fract_z
Si Si1 0.000000 0.736607 0.839667
Si Si2 0.899855 0.000000 0.163876
Si Si3 0.500000 0.692800 0.848625
Si Si4 0.817471 0.853856 0.342787
Si Si5 0.798674 0.283336 0.163964
Si Si6 0.608535 0.581918 0.662777
O O1 0.907263 0.714168 0.799754
O O2 0.000000 0.776641 0.768869
O O3 0.000000 0.746491 0.000000
O O4 0.852919 0.039914 0.204880
O O5 0.000000 0.000000 0.234806
O O6 0.913458 0.000000 0.000000
O O7 0.586510 0.666650 0.831305
O O8 0.500000 0.712737 0.000000
O O9 0.796759 0.867292 0.500000
O O10 0.740317 0.824145 0.291625
O O11 0.823496 0.890075 0.244068
O O12 0.750000 0.250000 0.250000
O O13 0.780221 0.275853 0.000000
O O14 0.620940 0.589877 0.500000
O O15 0.500000 0.586156 0.702576
#
# Coordination Sequence:
#
# PCOD8287268 Si02
#       6
#     8   8   8  16  16  16
#     4  10  20  32  46  62  79 104 145 186 212 244
#     4   7  12  24  39  57  81 108 135 164 200 237
#     4  10  18  28  42  59  83 112 138 171 216 252
#     4  10  19  29  40  58  85 112 137 168 209 249
#     4  10  20  32  45  61  82 109 141 178 215 250
#     4   9  16  26  42  61  82 109 140 170 198 236
#
# _framework density 14.529648
#
# number of rings (size 3 to 8) (size 9 to 14) (size 15 to 20)
#    0.000    2.556    3.333    1.333    0.000    1.778 
#    0.000    0.556    0.000    2.000    0.000    0.000 
#    0.000    0.889    0.000   11.111    0.000    0.889 
#
# Total GULP energy -445988.588019 kJ/mol
# GULP energy per Si atom -12388.571889 kJ/mol
# Density = 1.449658 g / cm^3
# Si number density = 14.529648 Si / 1000 Ang^3
#
#
#
# Elastic Constant Matrix: (Units=GPa)
#
#
# Indices 1 2 3 4 5 6 
#
# 1 77.6026 45.3898 27.5164 -0.0005 0.0020 -0.0001
# 2 45.3898 129.0137 52.3731 0.0001 0.0006 -0.0002
# 3 27.5164 52.3731 45.0848 0.0068 0.0130 -0.0013
# 4 -0.0005 0.0001 0.0068 24.6386 0.0005 0.0000
# 5 0.0020 0.0006 0.0130 0.0005 16.1915 -0.0006
# 6 -0.0001 -0.0002 -0.0013 0.0000 -0.0006 23.3178
#
#
#
# Elastic Compliance Matrix: (Units=1/GPa)
#
#
# Indices 1 2 3 4 5 6 
#
# 1 0.017192 -0.003386 -0.006560 0.000002 0.000003 0.000000
# 2 -0.003386 0.015335 -0.015748 0.000004 0.000012 -0.000001
# 3 -0.006560 -0.015748 0.044478 -0.000012 -0.000034 0.000002
# 4 0.000002 0.000004 -0.000012 0.040587 -0.000001 0.000000
# 5 0.000003 0.000012 -0.000034 -0.000001 0.061761 0.000002
# 6 0.000000 -0.000001 0.000002 0.000000 0.000002 0.042886
#
#
# Mechanical properties :
#
#
# Convention : Reuss Voigt Hill
#
# Bulk Modulus (GPa) = 39.03453 55.80663 47.42058
# Shear Modulus (GPa) = 17.72013 21.25770 19.48892
#
# Velocity S-wave (km/s) = 3.49604 3.82914 3.66638
# Velocity P-wave (km/s) = 6.57421 7.61853 7.11555
#
# Compressibility (1/GPa) = 0.02561835
#
# Stress axis : x y z
#
# Youngs Moduli (GPa) = 58.16491 65.21008 22.48314
#
# Poissons Ratio (x) = 0.22078 0.14749
# Poissons Ratio (y) = 0.19692 0.35406
# Poissons Ratio (z) = 0.38157 1.02691
#
# Static dielectric constant tensor:
#      x y z
#    x 2.770980 -0.000010 -0.000020 
#    y -0.000010 2.953530 -0.000010 
#    z -0.000020 -0.000010 2.850520 
# 
# 
# High freq. dielectric constant tensor:
#      x y z
#    x 1.522760 0.000000 0.000000 
#    y 0.000000 1.551210 0.000000 
#    z 0.000000 0.000000 1.550020 
# 
# From -- ./inp_files/6582.got.cif
#   From: 2010.06.25/outbox.cif.g09.slc.cpg/sg71_4_cif.got.tgz:6582.got - 2010.06.28 04:59:45.
