data_PCOD8287756
_publ_section_title
;
Structure prediction by ZEFSAII (Michael W. Deem and Ramdas Pophale) SiO2 
 PCOD8287756
Probable space group: I M M M
;
_chemical_formula_sum "Si O2"
_cell_formula_units_Z 88
_cell_length_a 9.192657
_cell_length_b 19.610610
_cell_length_c 26.947970
_cell_angle_alpha 90.000000
_cell_angle_beta 90.000000
_cell_angle_gamma 90.000000
_cell_volume 4858.007869
_symmetry_space_group_name_H-M "I M M M"
_symmetry_group_IT_number 71
_symmetry_cell_setting 'orthorhombic'
loop_
_space_group_symop_operation_xyz
x,y,z
-x,-y,z
x,-y,-z
-x,y,-z
-x,-y,-z
x,y,-z
-x,y,z
x,-y,z
1/2+x,1/2+y,1/2+z
1/2-x,1/2-y,1/2+z
1/2+x,1/2-y,1/2-z
1/2-x,1/2+y,1/2-z
1/2-x,1/2-y,1/2-z
1/2+x,1/2+y,1/2-z
1/2-x,1/2+y,1/2+z
1/2+x,1/2-y,1/2+z
loop_
_atom_site_type_symbol
_atom_site_label
_atom_site_fract_x
_atom_site_fract_y
_atom_site_fract_z
Si Si1 0.839254 0.000000 0.397634
Si Si2 0.664701 0.500000 0.678321
Si Si3 0.674625 0.863322 0.168870
Si Si4 0.256462 0.500000 0.789479
Si Si5 0.837587 0.352384 0.778341
Si Si6 0.170876 0.262090 0.133315
Si Si7 0.331219 0.124727 0.443240
O O1 0.857515 0.000000 0.338006
O O2 0.757012 0.933290 0.415618
O O3 0.000000 0.000000 0.420856
O O4 0.500000 0.500000 0.657618
O O5 0.752743 0.564321 0.656695
O O6 0.653245 0.500000 0.738281
O O7 0.500000 0.869804 0.165699
O O8 0.731083 0.840685 0.223893
O O9 0.736701 0.807568 0.130580
O O10 0.158186 0.567531 0.791628
O O11 0.762086 0.307817 0.821431
O O12 0.000000 0.325359 0.776247
O O13 0.198926 0.302575 0.082403
O O14 0.000000 0.245793 0.139772
O O15 0.280679 0.130448 0.500000
O O16 0.500000 0.104944 0.438864
#
# Coordination Sequence:
#
# PCOD8287756 Si02
#       7
#     8   8  16   8  16  16  16
#     4  12  23  34  51  76 105 137 178 226 271 306
#     4  10  20  35  53  74 104 139 174 211 246 297
#     4  10  20  33  50  76 105 134 166 206 255 309
#     4  10  18  31  47  73 102 142 180 218 255 299
#     4   9  17  29  48  72 100 135 176 215 251 297
#     4  10  19  33  52  74  99 132 172 213 258 308
#     4  10  22  39  57  75  98 135 182 225 262 305
#
# _framework density 18.114421
#
# number of rings (size 3 to 8) (size 9 to 14) (size 15 to 20)
#    0.000    2.000    1.818    2.455    0.000    5.091 
#    0.000    0.909    0.000    0.000    0.000    0.636 
#    0.000    5.091    0.000    0.000    0.000    0.000 
#
# Total GULP energy -545384.125575 kJ/mol
# GULP energy per Si atom -12395.093763 kJ/mol
# Density = 1.807319 g / cm^3
# Si number density = 18.114421 Si / 1000 Ang^3
#
#
#
# Elastic Constant Matrix: (Units=GPa)
#
#
# Indices 1 2 3 4 5 6 
#
# 1 81.8878 50.3008 26.2991 0.0000 0.0000 0.0000
# 2 50.3008 129.2388 39.6814 0.0000 0.0000 0.0000
# 3 26.2991 39.6814 53.5902 0.0000 0.0000 0.0000
# 4 0.0000 0.0000 0.0000 17.2235 0.0000 0.0000
# 5 0.0000 0.0000 0.0000 0.0000 13.1665 0.0000
# 6 0.0000 0.0000 0.0000 0.0000 0.0000 29.3722
#
#
#
# Elastic Compliance Matrix: (Units=1/GPa)
#
#
# Indices 1 2 3 4 5 6 
#
# 1 0.016817 -0.005192 -0.004409 0.000000 0.000000 0.000000
# 2 -0.005192 0.011617 -0.006054 0.000000 0.000000 0.000000
# 3 -0.004409 -0.006054 0.025306 0.000000 0.000000 0.000000
# 4 0.000000 0.000000 0.000000 0.058060 0.000000 0.000000
# 5 0.000000 0.000000 0.000000 0.000000 0.075950 0.000000
# 6 0.000000 0.000000 0.000000 0.000000 0.000000 0.034046
#
#
# Mechanical properties :
#
#
# Convention : Reuss Voigt Hill
#
# Bulk Modulus (GPa) = 44.58005 55.25326 49.91665
# Shear Modulus (GPa) = 19.18778 21.84814 20.51796
#
# Velocity S-wave (km/s) = 3.25815 3.47669 3.36919
# Velocity P-wave (km/s) = 6.23039 6.83265 6.53846
#
# Compressibility (1/GPa) = 0.02243156
#
# Stress axis : x y z
#
# Youngs Moduli (GPa) = 59.46468 86.07974 39.51554
#
# Poissons Ratio (x) = 0.44689 0.17420
# Poissons Ratio (y) = 0.30872 0.23924
# Poissons Ratio (z) = 0.26215 0.52115
#
# Static dielectric constant tensor:
#      x y z
#    x 3.103030 0.000000 0.000000 
#    y 0.000000 3.370700 0.000000 
#    z 0.000000 0.000000 3.216310 
# 
# 
# High freq. dielectric constant tensor:
#      x y z
#    x 1.688040 0.000000 0.000000 
#    y 0.000000 1.705360 0.000000 
#    z 0.000000 0.000000 1.667640 
# 
# From -- ./inp_files/68070.got.cif
#   From: 2010.06.25/outbox.cif.g09.slc.cpg/sg71_35_cif.got.tgz:68070.got - 2010.06.28 04:59:45.
