data_PCOD8287073
_publ_section_title
;
Structure prediction by ZEFSAII (Michael W. Deem and Ramdas Pophale) SiO2 
 PCOD8287073
Probable space group: I M M M
;
_chemical_formula_sum "Si O2"
_cell_formula_units_Z 112
_cell_length_a 17.372320
_cell_length_b 31.681338
_cell_length_c 13.787323
_cell_angle_alpha 90.000000
_cell_angle_beta 90.000000
_cell_angle_gamma 90.000000
_cell_volume 7588.243970
_symmetry_space_group_name_H-M "I M M M"
_symmetry_group_IT_number 71
_symmetry_cell_setting 'orthorhombic'
loop_
_space_group_symop_operation_xyz
x,y,z
-x,-y,z
x,-y,-z
-x,y,-z
-x,-y,-z
x,y,-z
-x,y,z
x,-y,z
1/2+x,1/2+y,1/2+z
1/2-x,1/2-y,1/2+z
1/2+x,1/2-y,1/2-z
1/2-x,1/2+y,1/2-z
1/2-x,1/2-y,1/2-z
1/2+x,1/2+y,1/2-z
1/2-x,1/2+y,1/2+z
1/2+x,1/2-y,1/2+z
loop_
_atom_site_type_symbol
_atom_site_label
_atom_site_fract_x
_atom_site_fract_y
_atom_site_fract_z
Si Si1 0.668708 0.195751 0.890440
Si Si2 0.500000 0.451911 0.250451
Si Si3 0.762193 0.720946 0.111819
Si Si4 0.795452 0.867234 0.109515
Si Si5 0.584880 0.229969 0.722132
Si Si6 0.858304 0.046513 0.890055
Si Si7 0.370949 0.321570 0.220373
Si Si8 0.000000 0.873291 0.615386
O O1 0.732074 0.231870 0.865646
O O2 0.709841 0.150841 0.872832
O O3 0.597685 0.200969 0.817703
O O4 0.637868 0.200596 0.000000
O O5 0.500000 0.500000 0.210924
O O6 0.573431 0.443271 0.316992
O O7 0.500000 0.420376 0.159654
O O8 0.851219 0.718598 0.142484
O O9 0.711448 0.686953 0.169819
O O10 0.755844 0.709356 0.000000
O O11 0.792524 0.917920 0.124571
O O12 0.858382 0.847359 0.180891
O O13 0.821657 0.855401 0.000000
O O14 0.500000 0.219608 0.680487
O O15 0.586250 0.278457 0.754186
O O16 0.822822 0.000000 0.869284
O O17 0.890718 0.048476 0.000000
O O18 0.423894 0.348359 0.148144
O O19 0.000000 0.877366 0.500000
#
# Coordination Sequence:
#
# PCOD8287073 Si02
#       8
#    16   8  16  16  16  16  16   8
#     4   9  17  30  46  63  84 115 150 181 223 274
#     4  10  19  31  46  61  87 122 149 187 236 272
#     4  10  19  32  47  61  86 124 156 185 227 268
#     4  10  17  28  50  69  85 115 150 185 226 273
#     4  11  20  30  45  65  91 115 149 192 229 267
#     4   9  17  28  44  68  93 116 144 180 228 280
#     4  11  19  35  46  64  91 119 154 194 228 264
#     4  12  24  34  47  66  86 117 167 205 226 264
#
# _framework density 14.759674
#
# number of rings (size 3 to 8) (size 9 to 14) (size 15 to 20)
#    0.000    1.857    5.000    1.500    0.000    2.143 
#    0.000    0.357    0.000    0.000    0.000    0.000 
#    0.000    0.571    0.000    5.571    0.000    2.143 
#
# Total GULP energy -694245.762037 kJ/mol
# GULP energy per Si atom -12397.245751 kJ/mol
# Density = 1.472608 g / cm^3
# Si number density = 14.759674 Si / 1000 Ang^3
#
#
#
# Elastic Constant Matrix: (Units=GPa)
#
#
# Indices 1 2 3 4 5 6 
#
# 1 79.5635 31.7510 27.8977 -0.0001 0.0000 0.0000
# 2 31.7510 95.6411 38.2969 -0.0001 0.0000 0.0000
# 3 27.8977 38.2969 75.3885 -0.0008 0.0003 -0.0002
# 4 -0.0001 -0.0001 -0.0008 20.8579 0.0001 0.0000
# 5 0.0000 0.0000 0.0003 0.0001 18.3164 0.0000
# 6 0.0000 0.0000 -0.0002 0.0000 0.0000 14.1793
#
#
#
# Elastic Compliance Matrix: (Units=1/GPa)
#
#
# Indices 1 2 3 4 5 6 
#
# 1 0.015341 -0.003540 -0.003879 0.000000 0.000000 0.000000
# 2 -0.003540 0.013942 -0.005773 0.000000 0.000000 0.000000
# 3 -0.003879 -0.005773 0.017633 0.000001 0.000000 0.000000
# 4 0.000000 0.000000 0.000001 0.047943 0.000000 0.000000
# 5 0.000000 0.000000 0.000000 0.000000 0.054596 0.000000
# 6 0.000000 0.000000 0.000000 0.000000 0.000000 0.070525
#
#
# Mechanical properties :
#
#
# Convention : Reuss Voigt Hill
#
# Bulk Modulus (GPa) = 48.70126 49.60938 49.15532
# Shear Modulus (GPa) = 19.74660 20.84723 20.29691
#
# Velocity S-wave (km/s) = 3.66167 3.76233 3.71234
# Velocity P-wave (km/s) = 7.13757 7.24968 7.19384
#
# Compressibility (1/GPa) = 0.02053335
#
# Stress axis : x y z
#
# Youngs Moduli (GPa) = 65.18373 71.72344 56.71335
#
# Poissons Ratio (x) = 0.25389 0.21998
# Poissons Ratio (y) = 0.23074 0.32739
# Poissons Ratio (z) = 0.25284 0.41404
#
# Static dielectric constant tensor:
#      x y z
#    x 2.656830 0.000000 0.000000 
#    y 0.000000 2.912310 0.000000 
#    z 0.000000 0.000000 2.916840 
# 
# 
# High freq. dielectric constant tensor:
#      x y z
#    x 1.537070 0.000000 0.000000 
#    y 0.000000 1.548980 0.000000 
#    z 0.000000 0.000000 1.571710 
# 
# From -- ./inp_files/37199.got.cif
#   From: 2010.06.25/outbox.cif.g09.slc.cpg/sg71_19_cif.got.tgz:37199.got - 2010.06.28 04:59:45.
