data_PCOD8287786
_publ_section_title
;
Structure prediction by ZEFSAII (Michael W. Deem and Ramdas Pophale) SiO2 
 PCOD8287786
Probable space group: I M M M
;
_chemical_formula_sum "Si O2"
_cell_formula_units_Z 104
_cell_length_a 25.938192
_cell_length_b 19.008688
_cell_length_c 12.540475
_cell_angle_alpha 90.000000
_cell_angle_beta 90.000000
_cell_angle_gamma 90.000000
_cell_volume 6183.093727
_symmetry_space_group_name_H-M "I M M M"
_symmetry_group_IT_number 71
_symmetry_cell_setting 'orthorhombic'
loop_
_space_group_symop_operation_xyz
x,y,z
-x,-y,z
x,-y,-z
-x,y,-z
-x,-y,-z
x,y,-z
-x,y,z
x,-y,z
1/2+x,1/2+y,1/2+z
1/2-x,1/2-y,1/2+z
1/2+x,1/2-y,1/2-z
1/2-x,1/2+y,1/2-z
1/2-x,1/2-y,1/2-z
1/2+x,1/2+y,1/2-z
1/2-x,1/2+y,1/2+z
1/2+x,1/2-y,1/2+z
loop_
_atom_site_type_symbol
_atom_site_label
_atom_site_fract_x
_atom_site_fract_y
_atom_site_fract_z
Si Si1 0.194523 0.322575 0.728191
Si Si2 0.853529 0.082080 0.743356
Si Si3 0.559987 0.335907 0.124707
Si Si4 0.801285 0.806253 0.876609
Si Si5 0.751931 0.081238 0.617384
Si Si6 0.088536 0.320659 0.625729
Si Si7 0.000000 0.420915 0.372690
O O1 0.179661 0.253957 0.796344
O O2 0.239965 0.312463 0.642276
O O3 0.209562 0.384161 0.808146
O O4 0.144542 0.344645 0.663269
O O5 0.907369 0.109803 0.696178
O O6 0.834153 0.123583 0.848792
O O7 0.810125 0.095487 0.654252
O O8 0.859234 0.000000 0.773071
O O9 0.500000 0.352057 0.144976
O O10 0.572854 0.257214 0.164517
O O11 0.573725 0.345943 0.000000
O O12 0.811173 0.787560 0.000000
O O13 0.747138 0.114559 0.500000
O O14 0.738707 0.000000 0.616462
O O15 0.086147 0.321336 0.500000
O O16 0.049461 0.378887 0.671508
O O17 0.000000 0.500000 0.325960
O O18 0.000000 0.422955 0.500000
#
# Coordination Sequence:
#
# PCOD8287786 Si02
#       7
#    16  16  16  16  16  16   8
#     4  10  19  31  50  76 101 132 168 210 246 295
#     4  10  20  34  51  73 101 136 169 203 253 309
#     4  10  19  32  52  77 104 131 163 210 261 306
#     4  10  20  33  49  74 103 134 171 208 250 299
#     4   9  18  32  49  72 104 135 163 200 247 299
#     4  10  18  31  50  74 104 134 164 200 248 300
#     4   9  18  32  50  74 104 136 165 194 238 298
#
# _framework density 16.820059000000001
#
# number of rings (size 3 to 8) (size 9 to 14) (size 15 to 20)
#    0.000    2.231    2.308    1.385    0.000    2.154 
#    0.000    0.769    0.000    3.231    0.000    2.692 
#    0.000    3.692    0.000    0.000    0.000    0.000 
#
# Total GULP energy -644707.934226 kJ/mol
# GULP energy per Si atom -12398.229504 kJ/mol
# Density = 1.678178 g / cm^3
# Si number density = 16.820059 Si / 1000 Ang^3
#
#
#
# Elastic Constant Matrix: (Units=GPa)
#
#
# Indices 1 2 3 4 5 6 
#
# 1 87.3865 39.3808 3.6196 0.0000 0.0000 0.0000
# 2 39.3808 87.5600 17.1485 0.0000 0.0000 0.0000
# 3 3.6196 17.1485 29.6966 0.0000 0.0000 0.0000
# 4 0.0000 0.0000 0.0000 16.4799 0.0000 0.0000
# 5 0.0000 0.0000 0.0000 0.0000 22.1821 0.0000
# 6 0.0000 0.0000 0.0000 0.0000 0.0000 27.2312
#
#
#
# Elastic Compliance Matrix: (Units=1/GPa)
#
#
# Indices 1 2 3 4 5 6 
#
# 1 0.014485 -0.006955 0.002251 0.000000 0.000000 0.000000
# 2 -0.006955 0.016217 -0.008517 0.000000 0.000000 0.000000
# 3 0.002251 -0.008517 0.038318 0.000000 0.000000 0.000000
# 4 0.000000 0.000000 0.000000 0.060680 0.000000 0.000000
# 5 0.000000 0.000000 0.000000 0.000000 0.045081 0.000000
# 6 0.000000 0.000000 0.000000 0.000000 0.000000 0.036723
#
#
# Mechanical properties :
#
#
# Convention : Reuss Voigt Hill
#
# Bulk Modulus (GPa) = 23.48702 36.10456 29.79579
# Shear Modulus (GPa) = 19.83037 22.81156 21.32097
#
# Velocity S-wave (km/s) = 3.43734 3.68667 3.56419
# Velocity P-wave (km/s) = 5.45415 6.29554 5.88989
#
# Compressibility (1/GPa) = 0.04257670
#
# Stress axis : x y z
#
# Youngs Moduli (GPa) = 69.03861 61.66361 26.09760
#
# Poissons Ratio (x) = 0.42890 -0.05874
# Poissons Ratio (y) = 0.48019 0.22227
# Poissons Ratio (z) = -0.15540 0.52518
#
# Static dielectric constant tensor:
#      x y z
#    x 3.089050 0.000000 0.000000 
#    y 0.000000 3.317720 0.000000 
#    z 0.000000 0.000000 2.933400 
# 
# 
# High freq. dielectric constant tensor:
#      x y z
#    x 1.644080 0.000000 0.000000 
#    y 0.000000 1.654930 0.000000 
#    z 0.000000 0.000000 1.620740 
# 
# From -- ./inp_files/39468.got.cif
#   From: 2010.06.25/outbox.cif.g09.slc.cpg/sg71_20_cif.got.tgz:39468.got - 2010.06.28 04:59:45.
