data_PCOD8287410
_publ_section_title
;
Structure prediction by ZEFSAII (Michael W. Deem and Ramdas Pophale) SiO2 
 PCOD8287410
Probable space group: I M M M
;
_chemical_formula_sum "Si O2"
_cell_formula_units_Z 96
_cell_length_a 9.539131
_cell_length_b 19.708968
_cell_length_c 30.850547
_cell_angle_alpha 90.000000
_cell_angle_beta 90.000000
_cell_angle_gamma 90.000000
_cell_volume 5800.101132
_symmetry_space_group_name_H-M "I M M M"
_symmetry_group_IT_number 71
_symmetry_cell_setting 'orthorhombic'
loop_
_space_group_symop_operation_xyz
x,y,z
-x,-y,z
x,-y,-z
-x,y,-z
-x,-y,-z
x,y,-z
-x,y,z
x,-y,z
1/2+x,1/2+y,1/2+z
1/2-x,1/2-y,1/2+z
1/2+x,1/2-y,1/2-z
1/2-x,1/2+y,1/2-z
1/2-x,1/2-y,1/2-z
1/2+x,1/2+y,1/2-z
1/2-x,1/2+y,1/2+z
1/2+x,1/2-y,1/2+z
loop_
_atom_site_type_symbol
_atom_site_label
_atom_site_fract_x
_atom_site_fract_y
_atom_site_fract_z
Si Si1 0.836047 0.924783 0.833445
Si Si2 0.343478 0.574551 0.948577
Si Si3 0.165441 0.699897 0.950732
Si Si4 0.663559 0.784552 0.711920
Si Si5 0.165285 0.210867 0.126242
Si Si6 0.159990 0.424860 0.248156
O O1 0.788238 0.867859 0.868279
O O2 0.757658 0.910161 0.788965
O O3 0.000000 0.917684 0.823188
O O4 0.800305 0.000000 0.851751
O O5 0.500000 0.592587 0.932096
O O6 0.298836 0.500000 0.930868
O O7 0.234624 0.631031 0.932411
O O8 0.341975 0.572692 0.000000
O O9 0.220587 0.760741 0.919802
O O10 0.000000 0.689328 0.947902
O O11 0.212115 0.716817 0.000000
O O12 0.500000 0.766347 0.718321
O O13 0.750000 0.750000 0.750000
O O14 0.721526 0.756351 0.666223
O O15 0.687387 0.866278 0.712588
O O16 0.000000 0.216759 0.125801
O O17 0.192351 0.500000 0.228496
O O18 0.000000 0.421456 0.264631
#
# Coordination Sequence:
#
# PCOD8287410 Si02
#       6
#    16  16  16  16  16  16
#     4   9  16  27  45  65  85 113 146 177 212 259
#     4   8  14  26  44  64  86 112 142 180 225 266
#     4   9  17  29  45  64  87 117 152 189 225 260
#     4  10  18  29  45  64  89 117 144 178 218 262
#     4   9  17  29  44  65  91 115 145 184 223 261
#     4   9  17  28  42  62  88 115 143 176 213 254
#
# _framework density 16.551435999999999
#
# number of rings (size 3 to 8) (size 9 to 14) (size 15 to 20)
#    0.000    3.000    1.667    0.500    0.000    0.333 
#    0.000    4.167    0.000    3.500    0.000    5.833 
#    0.000    0.000    0.000    8.333    0.000    8.667 
#
# Total GULP energy -594755.895519 kJ/mol
# GULP energy per Si atom -12390.747823 kJ/mol
# Density = 1.651376 g / cm^3
# Si number density = 16.551436 Si / 1000 Ang^3
#
#
#
# Elastic Constant Matrix: (Units=GPa)
#
#
# Indices 1 2 3 4 5 6 
#
# 1 31.5408 31.2512 20.8064 0.0000 0.0000 0.0000
# 2 31.2512 152.6595 66.1045 0.0000 0.0000 0.0000
# 3 20.8064 66.1045 80.0350 0.0000 0.0000 0.0000
# 4 0.0000 0.0000 0.0000 26.1873 0.0000 0.0000
# 5 0.0000 0.0000 0.0000 0.0000 13.2501 0.0000
# 6 0.0000 0.0000 0.0000 0.0000 0.0000 19.7817
#
#
#
# Elastic Compliance Matrix: (Units=1/GPa)
#
#
# Indices 1 2 3 4 5 6 
#
# 1 0.041470 -0.005949 -0.005867 0.000000 0.000000 0.000000
# 2 -0.005949 0.011051 -0.007581 0.000000 0.000000 0.000000
# 3 -0.005867 -0.007581 0.020281 0.000000 0.000000 0.000000
# 4 0.000000 0.000000 0.000000 0.038186 0.000000 0.000000
# 5 0.000000 0.000000 0.000000 0.000000 0.075471 0.000000
# 6 0.000000 0.000000 0.000000 0.000000 0.000000 0.050552
#
#
# Mechanical properties :
#
#
# Convention : Reuss Voigt Hill
#
# Bulk Modulus (GPa) = 29.40510 55.61772 42.51141
# Shear Modulus (GPa) = 17.41299 21.58202 19.49751
#
# Velocity S-wave (km/s) = 3.24706 3.61492 3.43592
# Velocity P-wave (km/s) = 5.64467 7.14839 6.44057
#
# Compressibility (1/GPa) = 0.03400770
#
# Stress axis : x y z
#
# Youngs Moduli (GPa) = 24.11408 90.48928 49.30615
#
# Poissons Ratio (x) = 0.53828 0.28930
# Poissons Ratio (y) = 0.14344 0.37380
# Poissons Ratio (z) = 0.14149 0.68601
#
# Static dielectric constant tensor:
#      x y z
#    x 3.050200 0.000000 0.000000 
#    y 0.000000 3.671740 0.000000 
#    z 0.000000 0.000000 3.001370 
# 
# 
# High freq. dielectric constant tensor:
#      x y z
#    x 1.621230 0.000000 0.000000 
#    y 0.000000 1.652300 0.000000 
#    z 0.000000 0.000000 1.595930 
# 
# From -- ./inp_files/50787.got.cif
#   From: 2010.06.25/outbox.cif.g09.slc.cpg/sg71_26_cif.got.tgz:50787.got - 2010.06.28 04:59:45.
