data_PCOD8287531
_publ_section_title
;
Structure prediction by ZEFSAII (Michael W. Deem and Ramdas Pophale) SiO2 
 PCOD8287531
Probable space group: I M M M
;
_chemical_formula_sum "Si O2"
_cell_formula_units_Z 96
_cell_length_a 23.971580
_cell_length_b 8.727346
_cell_length_c 24.388441
_cell_angle_alpha 90.000000
_cell_angle_beta 90.000000
_cell_angle_gamma 90.000000
_cell_volume 5102.263619
_symmetry_space_group_name_H-M "I M M M"
_symmetry_group_IT_number 71
_symmetry_cell_setting 'orthorhombic'
loop_
_space_group_symop_operation_xyz
x,y,z
-x,-y,z
x,-y,-z
-x,y,-z
-x,-y,-z
x,y,-z
-x,y,z
x,-y,z
1/2+x,1/2+y,1/2+z
1/2-x,1/2-y,1/2+z
1/2+x,1/2-y,1/2-z
1/2-x,1/2+y,1/2-z
1/2-x,1/2-y,1/2-z
1/2+x,1/2+y,1/2-z
1/2-x,1/2+y,1/2+z
1/2+x,1/2-y,1/2+z
loop_
_atom_site_type_symbol
_atom_site_label
_atom_site_fract_x
_atom_site_fract_y
_atom_site_fract_z
Si Si1 0.564549 0.323617 0.637943
Si Si2 0.852065 0.678936 0.062241
Si Si3 0.144176 0.181964 0.655790
Si Si4 0.133881 0.679996 0.769325
Si Si5 0.268605 0.180512 0.654276
Si Si6 0.062778 0.182169 0.561436
O O1 0.500000 0.292495 0.628959
O O2 0.577378 0.500000 0.651643
O O3 0.594521 0.275012 0.581627
O O4 0.585659 0.218496 0.687581
O O5 0.865412 0.500000 0.070358
O O6 0.798405 0.728125 0.097741
O O7 0.838212 0.720675 0.000000
O O8 0.118539 0.232512 0.713626
O O9 0.206766 0.253255 0.653422
O O10 0.106471 0.249178 0.606049
O O11 0.145061 0.000000 0.651948
O O12 0.134648 0.500000 0.758242
O O13 0.193628 0.737335 0.794254
O O14 0.262801 0.000000 0.658390
O O15 0.079708 0.237376 0.500000
O O16 0.000000 0.239797 0.575389
O O17 0.063780 0.000000 0.563458
#
# Coordination Sequence:
#
# PCOD8287531 Si02
#       6
#    16  16  16  16  16  16
#     4  10  21  36  53  73  98 129 167 210 251 294
#     4   9  18  33  52  74 102 134 167 206 252 301
#     4  10  18  29  50  76  98 127 168 207 242 286
#     4  10  20  34  50  70 100 132 161 200 251 303
#     4   8  16  30  47  70  99 130 164 201 242 287
#     4   8  15  28  45  68  98 126 153 192 240 283
#
# _framework density 18.815179000000001
#
# number of rings (size 3 to 8) (size 9 to 14) (size 15 to 20)
#    0.000    2.833    0.000    3.000    0.000    3.333 
#    0.000   10.000    0.000    0.500    0.000    1.167 
#    0.000    0.000    0.000    0.000    0.000    0.000 
#
# Total GULP energy -595041.798305 kJ/mol
# GULP energy per Si atom -12396.704131 kJ/mol
# Density = 1.877236 g / cm^3
# Si number density = 18.815179 Si / 1000 Ang^3
#
#
#
# Elastic Constant Matrix: (Units=GPa)
#
#
# Indices 1 2 3 4 5 6 
#
# 1 71.9355 20.3057 42.2504 0.0000 0.0000 0.0000
# 2 20.3057 17.7344 13.7968 0.0000 0.0000 0.0000
# 3 42.2504 13.7968 136.1608 0.0000 0.0000 0.0000
# 4 0.0000 0.0000 0.0000 25.7853 0.0000 0.0000
# 5 0.0000 0.0000 0.0000 0.0000 24.5258 0.0000
# 6 0.0000 0.0000 0.0000 0.0000 0.0000 16.5397
#
#
#
# Elastic Compliance Matrix: (Units=1/GPa)
#
#
# Indices 1 2 3 4 5 6 
#
# 1 0.023198 -0.022755 -0.004893 0.000000 0.000000 0.000000
# 2 -0.022755 0.083534 -0.001403 0.000000 0.000000 0.000000
# 3 -0.004893 -0.001403 0.009005 0.000000 0.000000 0.000000
# 4 0.000000 0.000000 0.000000 0.038782 0.000000 0.000000
# 5 0.000000 0.000000 0.000000 0.000000 0.040773 0.000000
# 6 0.000000 0.000000 0.000000 0.000000 0.000000 0.060461
#
#
# Mechanical properties :
#
#
# Convention : Reuss Voigt Hill
#
# Bulk Modulus (GPa) = 17.35087 42.05963 29.70525
# Shear Modulus (GPa) = 15.01201 23.33535 19.17368
#
# Velocity S-wave (km/s) = 2.82772 3.52553 3.19573
# Velocity P-wave (km/s) = 4.46129 6.24300 5.42578
#
# Compressibility (1/GPa) = 0.05763401
#
# Stress axis : x y z
#
# Youngs Moduli (GPa) = 43.10664 11.97119 111.05412
#
# Poissons Ratio (x) = 0.27241 0.54335
# Poissons Ratio (y) = 0.98091 0.15585
# Poissons Ratio (z) = 0.21090 0.01680
#
# Static dielectric constant tensor:
#      x y z
#    x 3.712540 0.000000 0.000000 
#    y 0.000000 3.097670 0.000000 
#    z 0.000000 0.000000 3.577660 
# 
# 
# High freq. dielectric constant tensor:
#      x y z
#    x 1.730110 0.000000 0.000000 
#    y 0.000000 1.693880 0.000000 
#    z 0.000000 0.000000 1.736230 
# 
# From -- ./inp_files/12830.got.cif
#   From: 2010.06.25/outbox.cif.g09.slc.cpg/sg71_7_cif.got.tgz:12830.got - 2010.06.28 04:59:45.
