data_PCOD8287638
_publ_section_title
;
Structure prediction by ZEFSAII (Michael W. Deem and Ramdas Pophale) SiO2 
 PCOD8287638
Probable space group: I M M M
;
_chemical_formula_sum "Si O2"
_cell_formula_units_Z 56
_cell_length_a 13.142476
_cell_length_b 19.554361
_cell_length_c 13.562548
_cell_angle_alpha 90.000000
_cell_angle_beta 90.000000
_cell_angle_gamma 90.000000
_cell_volume 3485.476103
_symmetry_space_group_name_H-M "I M M M"
_symmetry_group_IT_number 71
_symmetry_cell_setting 'orthorhombic'
loop_
_space_group_symop_operation_xyz
x,y,z
-x,-y,z
x,-y,-z
-x,y,-z
-x,-y,-z
x,y,-z
-x,y,z
x,-y,z
1/2+x,1/2+y,1/2+z
1/2-x,1/2-y,1/2+z
1/2+x,1/2-y,1/2-z
1/2-x,1/2+y,1/2-z
1/2-x,1/2-y,1/2-z
1/2+x,1/2+y,1/2-z
1/2-x,1/2+y,1/2+z
1/2+x,1/2-y,1/2+z
loop_
_atom_site_type_symbol
_atom_site_label
_atom_site_fract_x
_atom_site_fract_y
_atom_site_fract_z
Si Si1 0.704969 0.196134 0.609254
Si Si2 0.617302 0.304648 0.252677
Si Si3 0.879325 0.075856 0.109647
Si Si4 0.620923 0.078039 0.500000
O O1 0.706579 0.230731 0.500000
O O2 0.629211 0.236598 0.681527
O O3 0.819044 0.198637 0.652126
O O4 0.663920 0.117910 0.597104
O O5 0.500000 0.314327 0.223662
O O6 0.663347 0.368296 0.314600
O O7 0.000000 0.082369 0.105699
O O8 0.847053 0.000000 0.145430
O O9 0.835375 0.089498 0.000000
O O10 0.500000 0.081034 0.500000
O O11 0.660481 0.000000 0.500000
#
# Coordination Sequence:
#
# PCOD8287638 Si02
#       4
#    16  16  16   8
#     4   9  20  32  46  72  95 122 168 207 243 291
#     4  10  18  30  49  69  95 128 160 202 250 296
#     4   8  14  24  40  64  90 118 153 189 232 286
#     4   9  18  34  53  69  92 128 167 206 241 279
#
# _framework density 16.066670999999999
#
# number of rings (size 3 to 8) (size 9 to 14) (size 15 to 20)
#    0.857    2.143    0.000    2.571    0.000    2.857 
#    0.000    0.000    0.000    0.857    0.000    0.000 
#    0.000    0.000    0.000   53.143    0.000    1.429 
#
# Total GULP energy -346939.615246 kJ/mol
# GULP energy per Si atom -12390.700545 kJ/mol
# Density = 1.603010 g / cm^3
# Si number density = 16.066671 Si / 1000 Ang^3
#
#
#
# Elastic Constant Matrix: (Units=GPa)
#
#
# Indices 1 2 3 4 5 6 
#
# 1 60.3696 18.9598 22.8248 0.0001 0.0000 0.0000
# 2 18.9598 98.9874 20.6433 0.0000 0.0000 0.0000
# 3 22.8248 20.6433 58.2020 0.0002 -0.0001 -0.0001
# 4 0.0001 0.0000 0.0002 16.7065 -0.0001 -0.0001
# 5 0.0000 0.0000 -0.0001 -0.0001 9.6633 0.0000
# 6 0.0000 0.0000 -0.0001 -0.0001 0.0000 14.9824
#
#
#
# Elastic Compliance Matrix: (Units=1/GPa)
#
#
# Indices 1 2 3 4 5 6 
#
# 1 0.019948 -0.002364 -0.006984 0.000000 0.000000 0.000000
# 2 -0.002364 0.011189 -0.003042 0.000000 0.000000 0.000000
# 3 -0.006984 -0.003042 0.020999 0.000000 0.000000 0.000000
# 4 0.000000 0.000000 0.000000 0.059857 0.000001 0.000000
# 5 0.000000 0.000000 0.000000 0.000001 0.103484 0.000000
# 6 0.000000 0.000000 0.000000 0.000000 0.000000 0.066745
#
#
# Mechanical properties :
#
#
# Convention : Reuss Voigt Hill
#
# Bulk Modulus (GPa) = 36.55444 38.04609 37.30027
# Shear Modulus (GPa) = 15.81669 18.61250 17.21460
#
# Velocity S-wave (km/s) = 3.14098 3.40730 3.27685
# Velocity P-wave (km/s) = 5.99629 6.26188 6.13052
#
# Compressibility (1/GPa) = 0.02735646
#
# Stress axis : x y z
#
# Youngs Moduli (GPa) = 50.13086 89.36999 47.62064
#
# Poissons Ratio (x) = 0.21129 0.33260
# Poissons Ratio (y) = 0.11852 0.14484
# Poissons Ratio (z) = 0.35013 0.27182
#
# Static dielectric constant tensor:
#      x y z
#    x 2.684660 0.000000 0.000000 
#    y 0.000000 3.226320 0.000000 
#    z 0.000000 0.000000 2.975670 
# 
# 
# High freq. dielectric constant tensor:
#      x y z
#    x 1.585740 0.000000 0.000000 
#    y 0.000000 1.622630 0.000000 
#    z 0.000000 0.000000 1.605200 
# 
# From -- ./inp_files/33844.got.cif
#   From: 2010.06.25/outbox.cif.g09.slc.cpg/sg71_17_cif.got.tgz:33844.got - 2010.06.28 04:59:45.
