data_PCOD8287104
_publ_section_title
;
Structure prediction by ZEFSAII (Michael W. Deem and Ramdas Pophale) SiO2 
 PCOD8287104
Probable space group: I M M M
;
_chemical_formula_sum "Si O2"
_cell_formula_units_Z 72
_cell_length_a 7.629215
_cell_length_b 21.769713
_cell_length_c 23.345792
_cell_angle_alpha 90.000000
_cell_angle_beta 90.000000
_cell_angle_gamma 90.000000
_cell_volume 3877.405030
_symmetry_space_group_name_H-M "I M M M"
_symmetry_group_IT_number 71
_symmetry_cell_setting 'orthorhombic'
loop_
_space_group_symop_operation_xyz
x,y,z
-x,-y,z
x,-y,-z
-x,y,-z
-x,-y,-z
x,y,-z
-x,y,z
x,-y,z
1/2+x,1/2+y,1/2+z
1/2-x,1/2-y,1/2+z
1/2+x,1/2-y,1/2-z
1/2-x,1/2+y,1/2-z
1/2-x,1/2-y,1/2-z
1/2+x,1/2+y,1/2-z
1/2-x,1/2+y,1/2+z
1/2+x,1/2-y,1/2+z
loop_
_atom_site_type_symbol
_atom_site_label
_atom_site_fract_x
_atom_site_fract_y
_atom_site_fract_z
Si Si1 0.000000 0.428108 0.662362
Si Si2 0.790960 0.500000 0.064173
Si Si3 0.000000 0.668667 0.433946
Si Si4 0.298978 0.236301 0.433940
Si Si5 0.293292 0.115896 0.634170
Si Si6 0.696396 0.429931 0.747135
O O1 0.171430 0.408091 0.697952
O O2 0.000000 0.500000 0.648110
O O3 0.000000 0.393133 0.602468
O O4 0.718006 0.560164 0.096237
O O5 0.000000 0.500000 0.062917
O O6 0.715372 0.500000 0.000000
O O7 0.825577 0.706922 0.418883
O O8 0.000000 0.648813 0.500000
O O9 0.276774 0.216296 0.500000
O O10 0.500000 0.255197 0.421113
O O11 0.238051 0.179493 0.395061
O O12 0.500000 0.109834 0.639354
O O13 0.212446 0.113338 0.697495
O O14 0.500000 0.424803 0.722353
O O15 0.742295 0.500000 0.765243
#
# Coordination Sequence:
#
# PCOD8287104 Si02
#       6
#     8   8   8  16  16  16
#     4  10  22  41  64  86 111 135 174 228 286 352
#     4   9  16  24  43  77 111 148 199 246 274 304
#     4  10  22  41  64  87 108 138 177 225 287 345
#     4   9  19  35  55  79 113 154 190 225 272 328
#     4  10  17  29  52  76 111 156 196 234 272 310
#     4  10  20  34  55  81 112 152 186 224 278 327
#
# _framework density 18.569120000000002
#
# number of rings (size 3 to 8) (size 9 to 14) (size 15 to 20)
#    0.000    2.333    2.222    0.667    1.556    3.778 
#    0.000    1.111    0.000    0.667    0.000    6.222 
#    0.000    0.000    0.000    0.000    0.000    0.000 
#
# Total GULP energy -446467.179351 kJ/mol
# GULP energy per Si atom -12401.866093 kJ/mol
# Density = 1.852686 g / cm^3
# Si number density = 18.569120 Si / 1000 Ang^3
#
#
#
# Elastic Constant Matrix: (Units=GPa)
#
#
# Indices 1 2 3 4 5 6 
#
# 1 91.6059 45.3308 49.2036 0.0000 0.0000 0.0000
# 2 45.3308 89.2551 71.5983 0.0000 0.0000 0.0000
# 3 49.2036 71.5983 114.6388 0.0000 0.0000 0.0000
# 4 0.0000 0.0000 0.0000 36.0200 0.0000 0.0000
# 5 0.0000 0.0000 0.0000 0.0000 10.2540 0.0000
# 6 0.0000 0.0000 0.0000 0.0000 0.0000 14.9561
#
#
#
# Elastic Compliance Matrix: (Units=1/GPa)
#
#
# Indices 1 2 3 4 5 6 
#
# 1 0.015220 -0.004990 -0.003416 0.000000 0.000000 0.000000
# 2 -0.004990 0.024088 -0.012903 0.000000 0.000000 0.000000
# 3 -0.003416 -0.012903 0.018248 0.000000 0.000000 0.000000
# 4 0.000000 0.000000 0.000000 0.027762 0.000000 0.000000
# 5 0.000000 0.000000 0.000000 0.000000 0.097523 0.000000
# 6 0.000000 0.000000 0.000000 0.000000 0.000000 0.066863
#
#
# Mechanical properties :
#
#
# Convention : Reuss Voigt Hill
#
# Bulk Modulus (GPa) = 66.93937 69.75168 68.34553
# Shear Modulus (GPa) = 16.81789 20.87048 18.84418
#
# Velocity S-wave (km/s) = 3.01274 3.35615 3.18907
# Velocity P-wave (km/s) = 6.94472 7.25694 7.10254
#
# Compressibility (1/GPa) = 0.01493889
#
# Stress axis : x y z
#
# Youngs Moduli (GPa) = 65.70113 41.51372 54.80040
#
# Poissons Ratio (x) = 0.20714 0.18722
# Poissons Ratio (y) = 0.32782 0.70709
# Poissons Ratio (z) = 0.22446 0.53565
#
# Static dielectric constant tensor:
#      x y z
#    x 3.484630 0.000000 0.000000 
#    y 0.000000 3.124720 0.000000 
#    z 0.000000 0.000000 3.222840 
# 
# 
# High freq. dielectric constant tensor:
#      x y z
#    x 1.726580 0.000000 0.000000 
#    y 0.000000 1.693280 0.000000 
#    z 0.000000 0.000000 1.708050 
# 
# From -- ./inp_files/50248.got.cif
#   From: 2010.06.25/outbox.cif.g09.slc.cpg/sg71_26_cif.got.tgz:50248.got - 2010.06.28 04:59:45.
