data_PCOD8287713
_publ_section_title
;
Structure prediction by ZEFSAII (Michael W. Deem and Ramdas Pophale) SiO2 
 PCOD8287713
Probable space group: I M M M
;
_chemical_formula_sum "Si O2"
_cell_formula_units_Z 104
_cell_length_a 29.280953
_cell_length_b 20.671929
_cell_length_c 8.766039
_cell_angle_alpha 90.000000
_cell_angle_beta 90.000000
_cell_angle_gamma 90.000000
_cell_volume 5306.028895
_symmetry_space_group_name_H-M "I M M M"
_symmetry_group_IT_number 71
_symmetry_cell_setting 'orthorhombic'
loop_
_space_group_symop_operation_xyz
x,y,z
-x,-y,z
x,-y,-z
-x,y,-z
-x,-y,-z
x,y,-z
-x,y,z
x,-y,z
1/2+x,1/2+y,1/2+z
1/2-x,1/2-y,1/2+z
1/2+x,1/2-y,1/2-z
1/2-x,1/2+y,1/2-z
1/2-x,1/2-y,1/2-z
1/2+x,1/2+y,1/2-z
1/2-x,1/2+y,1/2+z
1/2+x,1/2-y,1/2+z
loop_
_atom_site_type_symbol
_atom_site_label
_atom_site_fract_x
_atom_site_fract_y
_atom_site_fract_z
Si Si1 0.207308 0.676500 0.821841
Si Si2 0.049478 0.382314 0.319707
Si Si3 0.855147 0.427938 0.677051
Si Si4 0.449055 0.260719 0.820329
Si Si5 0.052697 0.000000 0.318454
Si Si6 0.802932 0.822804 0.821284
Si Si7 0.390019 0.376430 0.818508
O O1 0.169625 0.623338 0.783294
O O2 0.189124 0.747636 0.772735
O O3 0.252487 0.656744 0.730299
O O4 0.218768 0.675674 0.000000
O O5 0.045107 0.376315 0.500000
O O6 0.091165 0.428983 0.275748
O O7 0.060100 0.310691 0.252667
O O8 0.000000 0.407439 0.256614
O O9 0.849363 0.407948 0.500000
O O10 0.835913 0.500000 0.706146
O O11 0.500000 0.283682 0.779459
O O12 0.414450 0.312661 0.749614
O O13 0.441743 0.259948 0.000000
O O14 0.081327 0.938092 0.258297
O O15 0.050627 0.000000 0.500000
O O16 0.000000 0.000000 0.256357
O O17 0.838324 0.872312 0.742547
O O18 0.807388 0.832470 0.000000
O O19 0.388636 0.378114 0.000000
#
# Coordination Sequence:
#
# PCOD8287713 Si02
#       7
#    16  16  16  16   8  16  16
#     4  10  21  38  59  81 104 135 175 221 273 329
#     4   8  14  25  43  71 105 137 172 215 257 298
#     4  10  20  33  51  78 111 145 178 213 258 308
#     4   8  13  22  41  70 100 132 173 218 259 299
#     4   9  18  32  51  79 115 151 189 231 270 319
#     4  10  21  37  58  82 106 131 169 224 281 330
#     4  10  18  30  51  78 107 143 182 220 267 322
#
# _framework density 19.600345000000001
#
# number of rings (size 3 to 8) (size 9 to 14) (size 15 to 20)
#    0.000    2.692    0.000    3.231    0.000    5.538 
#    1.385    1.923    0.000    2.769    0.000    7.538 
#    0.000    0.000    0.000    0.000    0.000    0.000 
#
# Total GULP energy -644467.012990 kJ/mol
# GULP energy per Si atom -12393.596404 kJ/mol
# Density = 1.955573 g / cm^3
# Si number density = 19.600345 Si / 1000 Ang^3
#
#
#
# Elastic Constant Matrix: (Units=GPa)
#
#
# Indices 1 2 3 4 5 6 
#
# 1 105.5655 49.2211 14.0976 0.0000 0.0000 0.0000
# 2 49.2211 78.7889 18.2552 0.0000 0.0000 0.0000
# 3 14.0976 18.2552 24.1281 0.0000 0.0000 0.0000
# 4 0.0000 0.0000 0.0000 18.5478 0.0000 0.0000
# 5 0.0000 0.0000 0.0000 0.0000 19.1517 0.0000
# 6 0.0000 0.0000 0.0000 0.0000 0.0000 33.0947
#
#
#
# Elastic Compliance Matrix: (Units=1/GPa)
#
#
# Indices 1 2 3 4 5 6 
#
# 1 0.013432 -0.007970 -0.001818 0.000000 0.000000 0.000000
# 2 -0.007970 0.020119 -0.010565 0.000000 0.000000 0.000000
# 3 -0.001818 -0.010565 0.050501 0.000000 0.000000 0.000000
# 4 0.000000 0.000000 0.000000 0.053915 0.000000 0.000000
# 5 0.000000 0.000000 0.000000 0.000000 0.052215 0.000000
# 6 0.000000 0.000000 0.000000 0.000000 0.000000 0.030216
#
#
# Mechanical properties :
#
#
# Convention : Reuss Voigt Hill
#
# Bulk Modulus (GPa) = 23.07031 41.29226 32.18128
# Shear Modulus (GPa) = 18.14539 22.61942 20.38240
#
# Velocity S-wave (km/s) = 3.04595 3.40079 3.22825
# Velocity P-wave (km/s) = 4.91592 6.04428 5.50907
#
# Compressibility (1/GPa) = 0.04334576
#
# Stress axis : x y z
#
# Youngs Moduli (GPa) = 74.45151 49.70430 19.80150
#
# Poissons Ratio (x) = 0.39613 0.03600
# Poissons Ratio (y) = 0.59336 0.20921
# Poissons Ratio (z) = 0.13535 0.52514
#
# Static dielectric constant tensor:
#      x y z
#    x 3.689960 0.000000 0.000000 
#    y 0.000000 3.711680 0.000000 
#    z 0.000000 0.000000 3.030810 
# 
# 
# High freq. dielectric constant tensor:
#      x y z
#    x 1.773950 0.000000 0.000000 
#    y 0.000000 1.757270 0.000000 
#    z 0.000000 0.000000 1.711070 
# 
# From -- ./inp_files/16987.got.cif
#   From: 2010.06.25/outbox.cif.g09.slc.cpg/sg71_9_cif.got.tgz:16987.got - 2010.06.28 04:59:45.
