data_PCOD8287293
_publ_section_title
;
Structure prediction by ZEFSAII (Michael W. Deem and Ramdas Pophale) SiO2 
 PCOD8287293
Probable space group: I M M M
;
_chemical_formula_sum "Si O2"
_cell_formula_units_Z 112
_cell_length_a 13.866107
_cell_length_b 18.451406
_cell_length_c 25.153180
_cell_angle_alpha 90.000000
_cell_angle_beta 90.000000
_cell_angle_gamma 90.000000
_cell_volume 6435.420223
_symmetry_space_group_name_H-M "I M M M"
_symmetry_group_IT_number 71
_symmetry_cell_setting 'orthorhombic'
loop_
_space_group_symop_operation_xyz
x,y,z
-x,-y,z
x,-y,-z
-x,y,-z
-x,-y,-z
x,y,-z
-x,y,z
x,-y,z
1/2+x,1/2+y,1/2+z
1/2-x,1/2-y,1/2+z
1/2+x,1/2-y,1/2-z
1/2-x,1/2+y,1/2-z
1/2-x,1/2-y,1/2-z
1/2+x,1/2+y,1/2-z
1/2-x,1/2+y,1/2+z
1/2+x,1/2-y,1/2+z
loop_
_atom_site_type_symbol
_atom_site_label
_atom_site_fract_x
_atom_site_fract_y
_atom_site_fract_z
Si Si1 0.733352 0.082992 0.250160
Si Si2 0.111884 0.416444 0.644556
Si Si3 0.390217 0.678476 0.293889
Si Si4 0.109956 0.280769 0.059602
Si Si5 0.104989 0.078867 0.106249
Si Si6 0.238058 0.346737 0.441663
Si Si7 0.889953 0.338855 0.829791
O O1 0.664091 0.097698 0.200181
O O2 0.823187 0.138564 0.249155
O O3 0.675540 0.098912 0.304285
O O4 0.769388 0.000000 0.251533
O O5 0.126243 0.500000 0.626044
O O6 0.153873 0.359722 0.601278
O O7 0.000000 0.397942 0.652040
O O8 0.500000 0.671501 0.273994
O O9 0.374446 0.638307 0.349464
O O10 0.361328 0.761681 0.303422
O O11 0.194527 0.222892 0.068355
O O12 0.125750 0.339763 0.106130
O O13 0.000000 0.248040 0.066943
O O14 0.118539 0.314678 0.000000
O O15 0.186484 0.086365 0.061275
O O16 0.000000 0.088715 0.080001
O O17 0.114450 0.000000 0.133454
O O18 0.189993 0.344150 0.500000
O O19 0.000000 0.357246 0.816303
#
# Coordination Sequence:
#
# PCOD8287293 Si02
#       7
#    16  16  16  16  16  16  16
#     4  11  21  34  53  75 101 131 166 211 256 297
#     4  10  21  35  46  59  87 129 171 206 244 286
#     4  10  19  32  51  75 101 131 165 202 247 300
#     4   9  17  31  52  76 101 127 155 194 247 304
#     4  10  18  28  43  65  94 123 153 193 243 294
#     4  11  20  30  46  67  91 122 165 208 243 286
#     4  10  19  32  52  76 101 132 170 204 238 291
#
# _framework density 17.403680999999999
#
# number of rings (size 3 to 8) (size 9 to 14) (size 15 to 20)
#    0.000    1.857    2.857    2.143    0.000    4.000 
#    0.000    1.429    0.000    0.429    0.000    2.000 
#    0.000    0.000    0.000    1.286    0.000    0.000 
#
# Total GULP energy -693900.086893 kJ/mol
# GULP energy per Si atom -12391.072980 kJ/mol
# Density = 1.736407 g / cm^3
# Si number density = 17.403681 Si / 1000 Ang^3
#
#
#
# Elastic Constant Matrix: (Units=GPa)
#
#
# Indices 1 2 3 4 5 6 
#
# 1 76.5476 12.5961 31.2338 0.0000 0.0000 0.0000
# 2 12.5961 27.5873 20.2280 0.0000 0.0000 0.0000
# 3 31.2338 20.2280 88.2914 0.0000 0.0000 0.0000
# 4 0.0000 0.0000 0.0000 19.6604 0.0000 0.0000
# 5 0.0000 0.0000 0.0000 0.0000 23.1589 0.0000
# 6 0.0000 0.0000 0.0000 0.0000 0.0000 7.6293
#
#
#
# Elastic Compliance Matrix: (Units=1/GPa)
#
#
# Indices 1 2 3 4 5 6 
#
# 1 0.015574 -0.003691 -0.004664 0.000000 0.000000 0.000000
# 2 -0.003691 0.044442 -0.008876 0.000000 0.000000 0.000000
# 3 -0.004664 -0.008876 0.015010 0.000000 0.000000 0.000000
# 4 0.000000 0.000000 0.000000 0.050864 0.000000 0.000000
# 5 0.000000 0.000000 0.000000 0.000000 0.043180 0.000000
# 6 0.000000 0.000000 0.000000 0.000000 0.000000 0.131074
#
#
# Mechanical properties :
#
#
# Convention : Reuss Voigt Hill
#
# Bulk Modulus (GPa) = 24.65269 35.61580 30.13424
# Shear Modulus (GPa) = 14.36257 18.64762 16.50509
#
# Velocity S-wave (km/s) = 2.87585 3.27689 3.08290
# Velocity P-wave (km/s) = 5.02228 5.90138 5.47949
#
# Compressibility (1/GPa) = 0.04056352
#
# Stress axis : x y z
#
# Youngs Moduli (GPa) = 64.20891 22.50108 66.62435
#
# Poissons Ratio (x) = 0.08306 0.31072
# Poissons Ratio (y) = 0.23702 0.59136
# Poissons Ratio (z) = 0.29946 0.19972
#
# Static dielectric constant tensor:
#      x y z
#    x 3.320250 0.000000 0.000000 
#    y 0.000000 3.015270 0.000000 
#    z 0.000000 0.000000 3.198080 
# 
# 
# High freq. dielectric constant tensor:
#      x y z
#    x 1.670430 0.000000 0.000000 
#    y 0.000000 1.640760 0.000000 
#    z 0.000000 0.000000 1.656890 
# 
# From -- ./inp_files/65531.got.cif
#   From: 2010.06.25/outbox.cif.g09.slc.cpg/sg71_33_cif.got.tgz:65531.got - 2010.06.28 04:59:45.
