data_PCOD8287609
_publ_section_title
;
Structure prediction by ZEFSAII (Michael W. Deem and Ramdas Pophale) SiO2 
 PCOD8287609
Probable space group: I M M M
;
_chemical_formula_sum "Si O2"
_cell_formula_units_Z 120
_cell_length_a 9.122305
_cell_length_b 28.162871
_cell_length_c 26.530557
_cell_angle_alpha 90.000000
_cell_angle_beta 90.000000
_cell_angle_gamma 90.000000
_cell_volume 6815.973330
_symmetry_space_group_name_H-M "I M M M"
_symmetry_group_IT_number 71
_symmetry_cell_setting 'orthorhombic'
loop_
_space_group_symop_operation_xyz
x,y,z
-x,-y,z
x,-y,-z
-x,y,-z
-x,-y,-z
x,y,-z
-x,y,z
x,-y,z
1/2+x,1/2+y,1/2+z
1/2-x,1/2-y,1/2+z
1/2+x,1/2-y,1/2-z
1/2-x,1/2+y,1/2-z
1/2-x,1/2-y,1/2-z
1/2+x,1/2+y,1/2-z
1/2-x,1/2+y,1/2+z
1/2+x,1/2-y,1/2+z
loop_
_atom_site_type_symbol
_atom_site_label
_atom_site_fract_x
_atom_site_fract_y
_atom_site_fract_z
Si Si1 0.174227 0.447688 0.296628
Si Si2 0.328831 0.305414 0.441936
Si Si3 0.829520 0.357930 0.358417
Si Si4 0.330968 0.290867 0.941213
Si Si5 0.172578 0.609748 0.795805
Si Si6 0.670518 0.200963 0.240284
Si Si7 0.827459 0.382746 0.091870
Si Si8 0.325861 0.946832 0.500000
O O1 0.239595 0.500000 0.308539
O O2 0.221483 0.409896 0.339127
O O3 0.235544 0.430355 0.242014
O O4 0.000000 0.450094 0.294532
O O5 0.295655 0.317972 0.500000
O O6 0.500000 0.298427 0.432232
O O7 0.266397 0.347744 0.407872
O O8 0.247612 0.257464 0.425363
O O9 0.798462 0.318370 0.315905
O O10 0.000000 0.358176 0.373318
O O11 0.500000 0.287095 0.925516
O O12 0.255649 0.333262 0.911437
O O13 0.310799 0.301116 0.000000
O O14 0.231828 0.661954 0.780207
O O15 0.211126 0.595960 0.853221
O O16 0.000000 0.612103 0.787216
O O17 0.500000 0.210310 0.248541
O O18 0.750000 0.250000 0.250000
O O19 0.000000 0.373223 0.085169
O O20 0.769749 0.419554 0.049824
O O21 0.500000 0.949339 0.500000
O O22 0.259679 0.000000 0.500000
#
# Coordination Sequence:
#
# PCOD8287609 Si02
#       8
#    16  16  16  16  16  16  16   8
#     4   8  14  28  51  76 101 129 164 207 253 299
#     4  10  21  35  52  75 102 133 169 203 242 299
#     4   9  18  32  50  75 105 132 165 209 252 295
#     4  10  20  33  49  69  96 130 168 207 250 298
#     4   8  16  28  43  67  96 127 164 206 247 291
#     4   9  18  31  44  65  98 131 165 202 246 295
#     4  10  18  30  48  69  98 132 169 213 256 301
#     4   9  18  30  45  69  99 129 165 215 264 297
#
# _framework density 17.605702999999998
#
# number of rings (size 3 to 8) (size 9 to 14) (size 15 to 20)
#    0.000    2.867    0.667    2.400    1.867    2.400 
#    0.000    2.667    0.000    2.400    0.000    2.800 
#    0.000    0.000    0.000    0.000    0.000    0.000 
#
# Total GULP energy -743792.231627 kJ/mol
# GULP energy per Si atom -12396.537194 kJ/mol
# Density = 1.756563 g / cm^3
# Si number density = 17.605703 Si / 1000 Ang^3
#
#
#
# Elastic Constant Matrix: (Units=GPa)
#
#
# Indices 1 2 3 4 5 6 
#
# 1 51.5375 37.7190 39.1804 0.0000 0.0000 0.0000
# 2 37.7190 147.2910 68.4564 0.0000 0.0000 0.0000
# 3 39.1804 68.4564 104.1786 0.0000 0.0000 0.0000
# 4 0.0000 0.0000 0.0000 21.1662 0.0000 0.0000
# 5 0.0000 0.0000 0.0000 0.0000 19.3262 0.0000
# 6 0.0000 0.0000 0.0000 0.0000 0.0000 18.4462
#
#
#
# Elastic Compliance Matrix: (Units=1/GPa)
#
#
# Indices 1 2 3 4 5 6 
#
# 1 0.028248 -0.003306 -0.008451 0.000000 0.000000 0.000000
# 2 -0.003306 0.010161 -0.005434 0.000000 0.000000 0.000000
# 3 -0.008451 -0.005434 0.016348 0.000000 0.000000 0.000000
# 4 0.000000 0.000000 0.000000 0.047245 0.000000 0.000000
# 5 0.000000 0.000000 0.000000 0.000000 0.051743 0.000000
# 6 0.000000 0.000000 0.000000 0.000000 0.000000 0.054212
#
#
# Mechanical properties :
#
#
# Convention : Reuss Voigt Hill
#
# Bulk Modulus (GPa) = 49.07965 65.96873 57.52419
# Shear Modulus (GPa) = 20.06975 22.29779 21.18377
#
# Velocity S-wave (km/s) = 3.37999 3.56267 3.47253
# Velocity P-wave (km/s) = 6.57039 7.38071 6.98731
#
# Compressibility (1/GPa) = 0.02037504
#
# Stress axis : x y z
#
# Youngs Moduli (GPa) = 35.40092 98.41241 61.16986
#
# Poissons Ratio (x) = 0.32534 0.51697
# Poissons Ratio (y) = 0.11703 0.33238
# Poissons Ratio (z) = 0.29919 0.53475
#
# Static dielectric constant tensor:
#      x y z
#    x 2.922790 0.000000 0.000000 
#    y 0.000000 3.459290 0.000000 
#    z 0.000000 0.000000 3.343600 
# 
# 
# High freq. dielectric constant tensor:
#      x y z
#    x 1.644410 0.000000 0.000000 
#    y 0.000000 1.675270 0.000000 
#    z 0.000000 0.000000 1.680670 
# 
# From -- ./inp_files/63847.got.cif
#   From: 2010.06.25/outbox.cif.g09.slc.cpg/sg71_32_cif.got.tgz:63847.got - 2010.06.28 04:59:45.
