data_PCOD8287561
_publ_section_title
;
Structure prediction by ZEFSAII (Michael W. Deem and Ramdas Pophale) SiO2 
 PCOD8287561
Probable space group: I M M M
;
_chemical_formula_sum "Si O2"
_cell_formula_units_Z 104
_cell_length_a 9.157091
_cell_length_b 24.130962
_cell_length_c 32.842078
_cell_angle_alpha 90.000000
_cell_angle_beta 90.000000
_cell_angle_gamma 90.000000
_cell_volume 7257.094761
_symmetry_space_group_name_H-M "I M M M"
_symmetry_group_IT_number 71
_symmetry_cell_setting 'orthorhombic'
loop_
_space_group_symop_operation_xyz
x,y,z
-x,-y,z
x,-y,-z
-x,y,-z
-x,-y,-z
x,y,-z
-x,y,z
x,-y,z
1/2+x,1/2+y,1/2+z
1/2-x,1/2-y,1/2+z
1/2+x,1/2-y,1/2-z
1/2-x,1/2+y,1/2-z
1/2-x,1/2-y,1/2-z
1/2+x,1/2+y,1/2-z
1/2-x,1/2+y,1/2+z
1/2+x,1/2-y,1/2+z
loop_
_atom_site_type_symbol
_atom_site_label
_atom_site_fract_x
_atom_site_fract_y
_atom_site_fract_z
Si Si1 0.329763 0.062085 0.746986
Si Si2 0.830727 0.234332 0.809708
Si Si3 0.663752 0.438576 0.329138
Si Si4 0.669680 0.667739 0.770660
Si Si5 0.329506 0.110764 0.952950
Si Si6 0.163698 0.000000 0.048124
Si Si7 0.168459 0.837972 0.885323
O O1 0.500000 0.075520 0.744672
O O2 0.280003 0.066580 0.793428
O O3 0.243858 0.108179 0.720952
O O4 0.296092 0.000000 0.730147
O O5 0.734781 0.288562 0.802558
O O6 0.797594 0.187584 0.775579
O O7 0.788352 0.210950 0.854130
O O8 0.000000 0.251031 0.807393
O O9 0.500000 0.425857 0.311756
O O10 0.669834 0.500000 0.348523
O O11 0.703541 0.396228 0.364188
O O12 0.500000 0.662162 0.779721
O O13 0.500000 0.103244 0.944917
O O14 0.249685 0.054840 0.938187
O O15 0.266803 0.162260 0.926161
O O16 0.297187 0.124484 0.000000
O O17 0.000000 0.000000 0.067218
O O18 0.152637 0.000000 0.000000
O O19 0.000000 0.832644 0.898001
#
# Coordination Sequence:
#
# PCOD8287561 Si02
#       7
#    16  16  16  16  16   8  16
#     4  10  19  29  42  61  84 110 139 171 208 250
#     4   9  18  31  44  62  84 107 136 172 209 246
#     4   9  17  29  42  57  79 104 132 171 213 252
#     4  10  18  30  46  62  82 109 139 170 207 247
#     4  10  21  34  45  60  82 104 130 170 216 258
#     4   9  17  31  49  63  75  99 135 169 209 263
#     4  10  19  31  46  63  81 104 138 172 209 256
#
# _framework density 14.330804000000001
#
# number of rings (size 3 to 8) (size 9 to 14) (size 15 to 20)
#    0.000    2.385    1.538    1.615    1.077    4.615 
#    0.000    0.000    0.000    0.000    0.000    0.000 
#    0.000    0.000    0.000    0.000    0.000    0.769 
#
# Total GULP energy -644702.880265 kJ/mol
# GULP energy per Si atom -12398.132313 kJ/mol
# Density = 1.429819 g / cm^3
# Si number density = 14.330804 Si / 1000 Ang^3
#
#
#
# Elastic Constant Matrix: (Units=GPa)
#
#
# Indices 1 2 3 4 5 6 
#
# 1 90.7278 56.6457 40.9717 0.0000 0.0000 0.0000
# 2 56.6457 86.8043 36.1088 0.0000 0.0000 0.0000
# 3 40.9717 36.1088 59.6787 0.0000 0.0000 0.0000
# 4 0.0000 0.0000 0.0000 20.6319 0.0000 0.0000
# 5 0.0000 0.0000 0.0000 0.0000 21.0361 0.0000
# 6 0.0000 0.0000 0.0000 0.0000 0.0000 23.9209
#
#
#
# Elastic Compliance Matrix: (Units=1/GPa)
#
#
# Indices 1 2 3 4 5 6 
#
# 1 0.021287 -0.010440 -0.008298 0.000000 0.000000 0.000000
# 2 -0.010440 0.020515 -0.005245 0.000000 0.000000 0.000000
# 3 -0.008298 -0.005245 0.025627 0.000000 0.000000 0.000000
# 4 0.000000 0.000000 0.000000 0.048469 0.000000 0.000000
# 5 0.000000 0.000000 0.000000 0.000000 0.047537 0.000000
# 6 0.000000 0.000000 0.000000 0.000000 0.000000 0.041804
#
#
# Mechanical properties :
#
#
# Convention : Reuss Voigt Hill
#
# Bulk Modulus (GPa) = 51.37922 56.07369 53.72645
# Shear Modulus (GPa) = 19.25356 20.01677 19.63517
#
# Velocity S-wave (km/s) = 3.66937 3.74139 3.70555
# Velocity P-wave (km/s) = 7.34047 7.60769 7.47527
#
# Compressibility (1/GPa) = 0.01946312
#
# Stress axis : x y z
#
# Youngs Moduli (GPa) = 46.97675 48.74577 39.02143
#
# Poissons Ratio (x) = 0.50888 0.32380
# Poissons Ratio (y) = 0.49041 0.20468
# Poissons Ratio (z) = 0.38981 0.25569
#
# Static dielectric constant tensor:
#      x y z
#    x 2.881340 0.000000 0.000000 
#    y 0.000000 2.788090 0.000000 
#    z 0.000000 0.000000 2.550280 
# 
# 
# High freq. dielectric constant tensor:
#      x y z
#    x 1.559480 0.000000 0.000000 
#    y 0.000000 1.527320 0.000000 
#    z 0.000000 0.000000 1.508240 
# 
# From -- ./inp_files/17242.got.cif
#   From: 2010.06.25/outbox.cif.g09.slc.cpg/sg71_9_cif.got.tgz:17242.got - 2010.06.28 04:59:45.
