data_PCOD8287973
_publ_section_title
;
Structure prediction by ZEFSAII (Michael W. Deem and Ramdas Pophale) SiO2 
 PCOD8287973
Probable space group: I M M M
;
_chemical_formula_sum "Si O2"
_cell_formula_units_Z 88
_cell_length_a 27.205695
_cell_length_b 9.268076
_cell_length_c 19.555476
_cell_angle_alpha 90.000000
_cell_angle_beta 90.000000
_cell_angle_gamma 90.000000
_cell_volume 4930.804719
_symmetry_space_group_name_H-M "I M M M"
_symmetry_group_IT_number 71
_symmetry_cell_setting 'orthorhombic'
loop_
_space_group_symop_operation_xyz
x,y,z
-x,-y,z
x,-y,-z
-x,y,-z
-x,-y,-z
x,y,-z
-x,y,z
x,-y,z
1/2+x,1/2+y,1/2+z
1/2-x,1/2-y,1/2+z
1/2+x,1/2-y,1/2-z
1/2-x,1/2+y,1/2-z
1/2-x,1/2-y,1/2-z
1/2+x,1/2+y,1/2-z
1/2-x,1/2+y,1/2+z
1/2+x,1/2-y,1/2+z
loop_
_atom_site_type_symbol
_atom_site_label
_atom_site_fract_x
_atom_site_fract_y
_atom_site_fract_z
Si Si1 0.376207 0.168834 0.922847
Si Si2 0.812217 0.668604 0.184554
Si Si3 0.590085 0.328892 0.669703
Si Si4 0.500000 0.671397 0.422706
Si Si5 0.716879 0.833740 0.162499
Si Si6 0.057580 0.164253 0.680248
O O1 0.321772 0.205220 0.896221
O O2 0.417556 0.242749 0.878039
O O3 0.386112 0.000000 0.918304
O O4 0.380309 0.226458 0.000000
O O5 0.815581 0.500000 0.168078
O O6 0.859329 0.747832 0.152487
O O7 0.763739 0.733235 0.149055
O O8 0.809296 0.700530 0.265392
O O9 0.598224 0.500000 0.664626
O O10 0.548929 0.274710 0.616136
O O11 0.572665 0.281075 0.744825
O O12 0.500000 0.500000 0.422308
O O13 0.500000 0.732549 0.500000
O O14 0.733903 0.000000 0.160127
O O15 0.000000 0.181866 0.671319
O O16 0.074525 0.000000 0.670813
#
# Coordination Sequence:
#
# PCOD8287973 Si02
#       6
#    16  16  16   8  16  16
#     4  10  21  37  55  76 106 142 179 221 266 312
#     4  10  19  31  52  80 105 133 172 218 264 310
#     4  10  18  32  55  81 107 137 175 219 263 309
#     4   9  18  34  57  83 108 137 176 218 261 313
#     4   9  18  33  51  75 104 134 172 217 263 310
#     4  10  20  34  53  78 107 139 178 220 262 312
#
# _framework density 17.846986000000001
#
# number of rings (size 3 to 8) (size 9 to 14) (size 15 to 20)
#    0.000    2.273    2.727    0.545    0.000    2.545 
#    0.000    3.182    0.000    6.545    0.000    0.000 
#    0.000    0.000    0.000    0.000    0.000    0.000 
#
# Total GULP energy -545694.977420 kJ/mol
# GULP energy per Si atom -12402.158578 kJ/mol
# Density = 1.780637 g / cm^3
# Si number density = 17.846986 Si / 1000 Ang^3
#
#
#
# Elastic Constant Matrix: (Units=GPa)
#
#
# Indices 1 2 3 4 5 6 
#
# 1 105.1909 40.0726 40.1703 0.0000 0.0000 0.0000
# 2 40.0726 46.1389 21.2113 0.0000 0.0000 0.0000
# 3 40.1703 21.2113 88.3377 0.0000 0.0000 0.0000
# 4 0.0000 0.0000 0.0000 19.9667 0.0000 0.0000
# 5 0.0000 0.0000 0.0000 0.0000 24.8348 0.0000
# 6 0.0000 0.0000 0.0000 0.0000 0.0000 34.3342
#
#
#
# Elastic Compliance Matrix: (Units=1/GPa)
#
#
# Indices 1 2 3 4 5 6 
#
# 1 0.015536 -0.011516 -0.004299 0.000000 0.000000 0.000000
# 2 -0.011516 0.032900 -0.002663 0.000000 0.000000 0.000000
# 3 -0.004299 -0.002663 0.013915 0.000000 0.000000 0.000000
# 4 0.000000 0.000000 0.000000 0.050083 0.000000 0.000000
# 5 0.000000 0.000000 0.000000 0.000000 0.040266 0.000000
# 6 0.000000 0.000000 0.000000 0.000000 0.000000 0.029126
#
#
# Mechanical properties :
#
#
# Convention : Reuss Voigt Hill
#
# Bulk Modulus (GPa) = 39.38082 49.17509 44.27796
# Shear Modulus (GPa) = 22.00249 25.04136 23.52193
#
# Velocity S-wave (km/s) = 3.51499 3.74988 3.63433
# Velocity P-wave (km/s) = 6.21187 6.80899 6.51727
#
# Compressibility (1/GPa) = 0.02539307
#
# Stress axis : x y z
#
# Youngs Moduli (GPa) = 64.36852 30.39493 71.86680
#
# Poissons Ratio (x) = 0.35004 0.30897
# Poissons Ratio (y) = 0.74130 0.19138
# Poissons Ratio (z) = 0.27674 0.08094
#
# Static dielectric constant tensor:
#      x y z
#    x 3.311600 0.000000 0.000000 
#    y 0.000000 3.182170 0.000000 
#    z 0.000000 0.000000 3.300920 
# 
# 
# High freq. dielectric constant tensor:
#      x y z
#    x 1.702050 0.000000 0.000000 
#    y 0.000000 1.677240 0.000000 
#    z 0.000000 0.000000 1.673130 
# 
# From -- ./inp_files/10378.got.cif
#   From: 2010.06.25/outbox.cif.g09.slc.cpg/sg71_6_cif.got.tgz:10378.got - 2010.06.28 04:59:45.
