data_PCOD8287517
_publ_section_title
;
Structure prediction by ZEFSAII (Michael W. Deem and Ramdas Pophale) SiO2 
 PCOD8287517
Probable space group: I M M M
;
_chemical_formula_sum "Si O2"
_cell_formula_units_Z 96
_cell_length_a 33.564975
_cell_length_b 10.176274
_cell_length_c 16.044713
_cell_angle_alpha 90.000000
_cell_angle_beta 90.000000
_cell_angle_gamma 90.000000
_cell_volume 5480.334576
_symmetry_space_group_name_H-M "I M M M"
_symmetry_group_IT_number 71
_symmetry_cell_setting 'orthorhombic'
loop_
_space_group_symop_operation_xyz
x,y,z
-x,-y,z
x,-y,-z
-x,y,-z
-x,-y,-z
x,y,-z
-x,y,z
x,-y,z
1/2+x,1/2+y,1/2+z
1/2-x,1/2-y,1/2+z
1/2+x,1/2-y,1/2-z
1/2-x,1/2+y,1/2-z
1/2-x,1/2-y,1/2-z
1/2+x,1/2+y,1/2-z
1/2-x,1/2+y,1/2+z
1/2+x,1/2-y,1/2+z
loop_
_atom_site_type_symbol
_atom_site_label
_atom_site_fract_x
_atom_site_fract_y
_atom_site_fract_z
Si Si1 0.154717 0.651736 0.594219
Si Si2 0.452630 0.500000 0.254375
Si Si3 0.914463 0.746047 0.690186
Si Si4 0.954804 0.500000 0.253923
Si Si5 0.641003 0.766191 0.651437
Si Si6 0.891076 0.000000 0.095135
Si Si7 0.903844 0.500000 0.911219
Si Si8 0.712597 0.844998 0.756276
O O1 0.169360 0.677798 0.500000
O O2 0.142520 0.500000 0.608793
O O3 0.114946 0.739793 0.610252
O O4 0.190617 0.687752 0.656468
O O5 0.500000 0.500000 0.272282
O O6 0.440105 0.377971 0.196766
O O7 0.429530 0.500000 0.343271
O O8 0.945209 0.625966 0.689743
O O9 0.885665 0.727777 0.767313
O O10 0.933860 0.500000 0.164668
O O11 0.000000 0.500000 0.228761
O O12 0.637955 0.623227 0.610020
O O13 0.624492 0.873034 0.587656
O O14 0.685657 0.804690 0.677245
O O15 0.907173 0.000000 0.000000
O O16 0.927138 0.500000 0.000000
O O17 0.750000 0.750000 0.750000
O O18 0.724120 0.000000 0.751428
#
# Coordination Sequence:
#
# PCOD8287517 Si02
#       8
#    16   8  16   8  16   8   8  16
#     4   9  17  34  60  83 102 131 175 220 256 297
#     4  10  20  33  51  75 106 142 174 214 270 321
#     4   9  17  32  52  74  99 134 174 210 253 311
#     4  10  18  29  49  75 100 128 170 220 258 301
#     4   9  18  33  51  72  99 136 181 213 250 304
#     4  10  20  33  51  76 103 137 186 229 255 298
#     4  10  18  31  49  68  99 139 174 209 255 308
#     4  10  20  35  58  82 109 140 171 208 257 316
#
# _framework density 17.517178000000001
#
# number of rings (size 3 to 8) (size 9 to 14) (size 15 to 20)
#    0.000    2.500    1.667    1.000    1.167    0.333 
#    1.500    2.083    0.000    9.000    0.000    0.000 
#    0.000    0.000    0.000    0.000    0.000    0.000 
#
# Total GULP energy -594897.743228 kJ/mol
# GULP energy per Si atom -12393.702984 kJ/mol
# Density = 1.747731 g / cm^3
# Si number density = 17.517178 Si / 1000 Ang^3
#
#
#
# Elastic Constant Matrix: (Units=GPa)
#
#
# Indices 1 2 3 4 5 6 
#
# 1 114.6294 60.7561 38.9586 0.0000 0.0000 0.0000
# 2 60.7561 141.0023 32.3965 0.0000 0.0000 0.0000
# 3 38.9586 32.3965 80.6209 0.0000 0.0000 0.0000
# 4 0.0000 0.0000 0.0000 373.2068 0.0000 0.0000
# 5 0.0000 0.0000 0.0000 0.0000 15.5392 0.0000
# 6 0.0000 0.0000 0.0000 0.0000 0.0000 23.4938
#
#
#
# Elastic Compliance Matrix: (Units=1/GPa)
#
#
# Indices 1 2 3 4 5 6 
#
# 1 0.012514 -0.004410 -0.004275 0.000000 0.000000 0.000000
# 2 -0.004410 0.009367 -0.001633 0.000000 0.000000 0.000000
# 3 -0.004275 -0.001633 0.015126 0.000000 0.000000 0.000000
# 4 0.000000 0.000000 0.000000 0.002679 0.000000 0.000000
# 5 0.000000 0.000000 0.000000 0.000000 0.064353 0.000000
# 6 0.000000 0.000000 0.000000 0.000000 0.000000 0.042565
#
#
# Mechanical properties :
#
#
# Convention : Reuss Voigt Hill
#
# Bulk Modulus (GPa) = 61.08370 66.71946 63.90158
# Shear Modulus (GPa) = 28.95221 96.05737 62.50479
#
# Velocity S-wave (km/s) = 4.06986 7.41317 5.97992
# Velocity P-wave (km/s) = 7.55192 10.55671 9.17812
#
# Compressibility (1/GPa) = 0.01637098
#
# Stress axis : x y z
#
# Youngs Moduli (GPa) = 79.90992 106.75209 66.11171
#
# Poissons Ratio (x) = 0.47077 0.28264
# Poissons Ratio (y) = 0.35240 0.10797
# Poissons Ratio (z) = 0.34163 0.17435
#
# Static dielectric constant tensor:
#      x y z
#    x 3.104090 0.000000 0.000000 
#    y 0.000000 3.621710 0.000000 
#    z 0.000000 0.000000 3.177770 
# 
# 
# High freq. dielectric constant tensor:
#      x y z
#    x 1.660300 0.000000 0.000000 
#    y 0.000000 1.685910 0.000000 
#    z 0.000000 0.000000 1.660690 
# 
# From -- ./inp_files/40911.got.cif
#   From: 2010.06.25/outbox.cif.g09.slc.cpg/sg71_21_cif.got.tgz:40911.got - 2010.06.28 04:59:45.
