data_PCOD8287971
_publ_section_title
;
Structure prediction by ZEFSAII (Michael W. Deem and Ramdas Pophale) SiO2 
 PCOD8287971
Probable space group: I M M M
;
_chemical_formula_sum "Si O2"
_cell_formula_units_Z 72
_cell_length_a 25.346415
_cell_length_b 17.314928
_cell_length_c 8.528475
_cell_angle_alpha 90.000000
_cell_angle_beta 90.000000
_cell_angle_gamma 90.000000
_cell_volume 3742.903343
_symmetry_space_group_name_H-M "I M M M"
_symmetry_group_IT_number 71
_symmetry_cell_setting 'orthorhombic'
loop_
_space_group_symop_operation_xyz
x,y,z
-x,-y,z
x,-y,-z
-x,y,-z
-x,-y,-z
x,y,-z
-x,y,z
x,-y,z
1/2+x,1/2+y,1/2+z
1/2-x,1/2-y,1/2+z
1/2+x,1/2-y,1/2-z
1/2-x,1/2+y,1/2-z
1/2-x,1/2-y,1/2-z
1/2+x,1/2+y,1/2-z
1/2-x,1/2+y,1/2+z
1/2+x,1/2-y,1/2+z
loop_
_atom_site_type_symbol
_atom_site_label
_atom_site_fract_x
_atom_site_fract_y
_atom_site_fract_z
Si Si1 0.912941 0.292412 0.314483
Si Si2 0.000000 0.413174 0.314620
Si Si3 0.941419 0.131872 0.179575
Si Si4 0.807288 0.760725 0.818871
Si Si5 0.841324 0.084890 0.321159
O O1 0.916329 0.280632 0.500000
O O2 0.946226 0.368399 0.262215
O O3 0.940374 0.221225 0.228742
O O4 0.850963 0.294474 0.264485
O O5 0.000000 0.500000 0.241475
O O6 0.000000 0.419389 0.500000
O O7 0.904053 0.080872 0.290702
O O8 0.000000 0.098919 0.199201
O O9 0.922351 0.125447 0.000000
O O10 0.750000 0.750000 0.750000
O O11 0.818871 0.851455 0.796382
O O12 0.807441 0.738909 0.000000
O O13 0.830234 0.109927 0.500000
O O14 0.816780 0.000000 0.288380
#
# Coordination Sequence:
#
# PCOD8287971 Si02
#       5
#    16   8  16  16  16
#     4  10  18  32  55  80 108 144 184 229 277 330
#     4   9  18  32  53  83 116 149 186 231 283 338
#     4  10  19  30  48  74 106 143 180 216 257 313
#     4  11  22  38  60  83 108 143 187 233 279 336
#     4  10  21  36  54  78 108 139 174 220 271 321
#
# _framework density 19.236404
#
# number of rings (size 3 to 8) (size 9 to 14) (size 15 to 20)
#    0.000    1.889    1.111    6.667    0.000    3.556 
#    0.000    3.333    0.000    9.333    0.000    0.000 
#    0.000    0.000    0.000    0.000    0.000    0.000 
#
# Total GULP energy -446151.747116 kJ/mol
# GULP energy per Si atom -12393.104087 kJ/mol
# Density = 1.919262 g / cm^3
# Si number density = 19.236404 Si / 1000 Ang^3
#
#
#
# Elastic Constant Matrix: (Units=GPa)
#
#
# Indices 1 2 3 4 5 6 
#
# 1 127.4272 34.8927 15.5071 0.0000 0.0000 0.0000
# 2 34.8927 92.5709 3.7167 0.0000 0.0000 0.0000
# 3 15.5071 3.7167 48.9059 0.0000 0.0000 0.0000
# 4 0.0000 0.0000 0.0000 19.0280 0.0000 0.0000
# 5 0.0000 0.0000 0.0000 0.0000 31.4726 0.0000
# 6 0.0000 0.0000 0.0000 0.0000 0.0000 13.5411
#
#
#
# Elastic Compliance Matrix: (Units=1/GPa)
#
#
# Indices 1 2 3 4 5 6 
#
# 1 0.009075 -0.003315 -0.002626 0.000000 0.000000 0.000000
# 2 -0.003315 0.012047 0.000136 0.000000 0.000000 0.000000
# 3 -0.002626 0.000136 0.021270 0.000000 0.000000 0.000000
# 4 0.000000 0.000000 0.000000 0.052554 0.000000 0.000000
# 5 0.000000 0.000000 0.000000 0.000000 0.031774 0.000000
# 6 0.000000 0.000000 0.000000 0.000000 0.000000 0.073849
#
#
# Mechanical properties :
#
#
# Convention : Reuss Voigt Hill
#
# Bulk Modulus (GPa) = 32.48748 41.90411 37.19579
# Shear Modulus (GPa) = 22.47813 27.12752 24.80282
#
# Velocity S-wave (km/s) = 3.42207 3.75936 3.59467
# Velocity P-wave (km/s) = 5.70432 6.37768 6.05037
#
# Compressibility (1/GPa) = 0.03078109
#
# Stress axis : x y z
#
# Youngs Moduli (GPa) = 110.19394 83.01043 47.01545
#
# Poissons Ratio (x) = 0.27519 0.12344
# Poissons Ratio (y) = 0.36531 -0.00638
# Poissons Ratio (z) = 0.28932 -0.01126
#
# Static dielectric constant tensor:
#      x y z
#    x 3.615160 0.000000 0.000000 
#    y 0.000000 3.463300 0.000000 
#    z 0.000000 0.000000 3.534310 
# 
# 
# High freq. dielectric constant tensor:
#      x y z
#    x 1.744560 0.000000 0.000000 
#    y 0.000000 1.730290 0.000000 
#    z 0.000000 0.000000 1.750570 
# 
# From -- ./inp_files/14454.got.cif
#   From: 2010.06.25/outbox.cif.g09.slc.cpg/sg71_8_cif.got.tgz:14454.got - 2010.06.28 04:59:45.
