data_PCOD8287878
_publ_section_title
;
Structure prediction by ZEFSAII (Michael W. Deem and Ramdas Pophale) SiO2 
 PCOD8287878
Probable space group: I M M M
;
_chemical_formula_sum "Si O2"
_cell_formula_units_Z 72
_cell_length_a 14.090411
_cell_length_b 9.186138
_cell_length_c 27.595126
_cell_angle_alpha 90.000000
_cell_angle_beta 90.000000
_cell_angle_gamma 90.000000
_cell_volume 3571.815421
_symmetry_space_group_name_H-M "I M M M"
_symmetry_group_IT_number 71
_symmetry_cell_setting 'orthorhombic'
loop_
_space_group_symop_operation_xyz
x,y,z
-x,-y,z
x,-y,-z
-x,y,-z
-x,-y,-z
x,y,-z
-x,y,z
x,-y,z
1/2+x,1/2+y,1/2+z
1/2-x,1/2-y,1/2+z
1/2+x,1/2-y,1/2-z
1/2-x,1/2+y,1/2-z
1/2-x,1/2-y,1/2-z
1/2+x,1/2+y,1/2-z
1/2-x,1/2+y,1/2+z
1/2+x,1/2-y,1/2+z
loop_
_atom_site_type_symbol
_atom_site_label
_atom_site_fract_x
_atom_site_fract_y
_atom_site_fract_z
Si Si1 0.500000 0.332802 0.173456
Si Si2 0.500000 0.334187 0.609813
Si Si3 0.180499 0.829262 0.946312
Si Si4 0.684020 0.829521 0.134122
Si Si5 0.000000 0.262388 0.782415
Si Si6 0.704654 0.161327 0.707220
O O1 0.500000 0.500000 0.157176
O O2 0.409981 0.254275 0.149675
O O3 0.500000 0.328448 0.232058
O O4 0.500000 0.500000 0.594200
O O5 0.405979 0.260513 0.585617
O O6 0.500000 0.331941 0.668430
O O7 0.284762 0.804903 0.921714
O O8 0.163019 0.000000 0.950387
O O9 0.182190 0.758170 0.000000
O O10 0.774856 0.760316 0.160920
O O11 0.672421 0.000000 0.147138
O O12 0.093177 0.361886 0.783539
O O13 0.750000 0.250000 0.750000
O O14 0.750767 0.000000 0.702900
#
# Coordination Sequence:
#
# PCOD8287878 Si02
#       6
#     8   8  16  16   8  16
#     4  12  26  41  62  88 123 165 209 252 301 372
#     4  10  18  31  55  92 129 162 198 245 297 360
#     4   9  18  34  59  91 123 157 200 255 311 361
#     4  11  23  40  63  90 123 159 203 259 312 365
#     4  12  24  37  59  89 128 169 206 246 294 363
#     4  12  25  40  60  87 124 169 211 253 300 362
#
# _framework density 20.157817000000001
#
# number of rings (size 3 to 8) (size 9 to 14) (size 15 to 20)
#    0.000    1.111    4.444    2.667    0.000    4.000 
#    0.000    0.556    0.000    6.000    0.000    1.556 
#    0.000    0.000    0.000    0.000    0.000    0.000 
#
# Total GULP energy -445994.561678 kJ/mol
# GULP energy per Si atom -12388.737824 kJ/mol
# Density = 2.011194 g / cm^3
# Si number density = 20.157817 Si / 1000 Ang^3
#
#
#
# Elastic Constant Matrix: (Units=GPa)
#
#
# Indices 1 2 3 4 5 6 
#
# 1 142.4375 45.5020 72.3840 0.0000 0.0000 0.0000
# 2 45.5020 113.1367 37.5694 0.0000 0.0000 0.0000
# 3 72.3840 37.5694 150.7624 0.0000 0.0000 0.0000
# 4 0.0000 0.0000 0.0000 16.8299 0.0000 0.0000
# 5 0.0000 0.0000 0.0000 0.0000 28.7118 0.0000
# 6 0.0000 0.0000 0.0000 0.0000 0.0000 21.7692
#
#
#
# Elastic Compliance Matrix: (Units=1/GPa)
#
#
# Indices 1 2 3 4 5 6 
#
# 1 0.009959 -0.002636 -0.004125 0.000000 0.000000 0.000000
# 2 -0.002636 0.010334 -0.001310 0.000000 0.000000 0.000000
# 3 -0.004125 -0.001310 0.008940 0.000000 0.000000 0.000000
# 4 0.000000 0.000000 0.000000 0.059418 0.000000 0.000000
# 5 0.000000 0.000000 0.000000 0.000000 0.034829 0.000000
# 6 0.000000 0.000000 0.000000 0.000000 0.000000 0.045936
#
#
# Mechanical properties :
#
#
# Convention : Reuss Voigt Hill
#
# Bulk Modulus (GPa) = 76.38098 79.69416 78.03757
# Shear Modulus (GPa) = 26.32701 30.18760 28.25731
#
# Velocity S-wave (km/s) = 3.61784 3.87403 3.74813
# Velocity P-wave (km/s) = 7.44483 7.72216 7.58476
#
# Compressibility (1/GPa) = 0.01309226
#
# Stress axis : x y z
#
# Youngs Moduli (GPa) = 100.41596 96.76999 111.86168
#
# Poissons Ratio (x) = 0.25504 0.46138
# Poissons Ratio (y) = 0.26465 0.14651
# Poissons Ratio (z) = 0.41417 0.12674
#
# Static dielectric constant tensor:
#      x y z
#    x 4.478430 0.000000 0.000000 
#    y 0.000000 3.830140 0.000000 
#    z 0.000000 0.000000 3.468850 
# 
# 
# High freq. dielectric constant tensor:
#      x y z
#    x 1.798060 0.000000 0.000000 
#    y 0.000000 1.755830 0.000000 
#    z 0.000000 0.000000 1.785420 
# 
# From -- ./inp_files/31492.got.cif
#   From: 2010.06.25/outbox.cif.g09.slc.cpg/sg71_16_cif.got.tgz:31492.got - 2010.06.28 04:59:45.
