data_PCOD8287510
_publ_section_title
;
Structure prediction by ZEFSAII (Michael W. Deem and Ramdas Pophale) SiO2 
 PCOD8287510
Probable space group: I M M M
;
_chemical_formula_sum "Si O2"
_cell_formula_units_Z 80
_cell_length_a 22.169997
_cell_length_b 9.532620
_cell_length_c 21.384126
_cell_angle_alpha 90.000000
_cell_angle_beta 90.000000
_cell_angle_gamma 90.000000
_cell_volume 4519.281774
_symmetry_space_group_name_H-M "I M M M"
_symmetry_group_IT_number 71
_symmetry_cell_setting 'orthorhombic'
loop_
_space_group_symop_operation_xyz
x,y,z
-x,-y,z
x,-y,-z
-x,y,-z
-x,-y,-z
x,y,-z
-x,y,z
x,-y,z
1/2+x,1/2+y,1/2+z
1/2-x,1/2-y,1/2+z
1/2+x,1/2-y,1/2-z
1/2-x,1/2+y,1/2-z
1/2-x,1/2-y,1/2-z
1/2+x,1/2+y,1/2-z
1/2-x,1/2+y,1/2+z
1/2+x,1/2-y,1/2+z
loop_
_atom_site_type_symbol
_atom_site_label
_atom_site_fract_x
_atom_site_fract_y
_atom_site_fract_z
Si Si1 0.687241 0.335418 0.745685
Si Si2 0.931414 0.167580 0.000000
Si Si3 0.000000 0.833983 0.429120
Si Si4 0.778487 0.347067 0.428752
Si Si5 0.347864 0.335112 0.388187
Si Si6 0.624191 0.335965 0.126991
O O1 0.704372 0.500000 0.745512
O O2 0.750000 0.250000 0.750000
O O3 0.644531 0.298843 0.685464
O O4 0.643811 0.295239 0.803027
O O5 0.898173 0.225810 0.063482
O O6 0.000000 0.225441 0.000000
O O7 0.932263 0.000000 0.000000
O O8 0.942899 0.782553 0.388692
O O9 0.000000 0.770929 0.500000
O O10 0.000000 0.000000 0.434595
O O11 0.765495 0.374163 0.500000
O O12 0.791144 0.500000 0.396706
O O13 0.718594 0.273943 0.401552
O O14 0.833444 0.242424 0.421531
O O15 0.346916 0.500000 0.400382
O O16 0.630614 0.500000 0.114499
#
# Coordination Sequence:
#
# PCOD8287510 Si02
#       6
#    16   8   8  16  16  16
#     4  10  19  31  49  73 101 129 161 204 250 298
#     4   9  16  28  46  70  99 132 169 202 242 301
#     4   9  18  34  51  67  97 136 164 200 251 295
#     4  10  18  29  49  73  98 129 163 203 253 297
#     4   9  16  28  44  66  98 130 156 196 251 293
#     4  10  20  33  50  72  98 132 171 206 247 300
#
# _framework density 17.701929
#
# number of rings (size 3 to 8) (size 9 to 14) (size 15 to 20)
#    0.000    2.400    3.000    0.600    0.000    1.200 
#    1.800    0.500    0.000    1.800    0.000    0.000 
#    0.000    5.600    0.000    0.000    0.000    0.000 
#
# Total GULP energy -495557.033797 kJ/mol
# GULP energy per Si atom -12388.925845 kJ/mol
# Density = 1.766164 g / cm^3
# Si number density = 17.701929 Si / 1000 Ang^3
#
#
#
# Elastic Constant Matrix: (Units=GPa)
#
#
# Indices 1 2 3 4 5 6 
#
# 1 132.0917 24.4905 52.6178 0.0000 0.0000 0.0000
# 2 24.4905 22.8611 18.8914 0.0000 0.0000 0.0000
# 3 52.6178 18.8914 117.3755 0.0000 0.0000 0.0000
# 4 0.0000 0.0000 0.0000 16.3958 0.0000 0.0000
# 5 0.0000 0.0000 0.0000 0.0000 33.1267 0.0000
# 6 0.0000 0.0000 0.0000 0.0000 0.0000 18.7744
#
#
#
# Elastic Compliance Matrix: (Units=1/GPa)
#
#
# Indices 1 2 3 4 5 6 
#
# 1 0.010465 -0.008460 -0.003330 0.000000 0.000000 0.000000
# 2 -0.008460 0.057291 -0.005429 0.000000 0.000000 0.000000
# 3 -0.003330 -0.005429 0.010886 0.000000 0.000000 0.000000
# 4 0.000000 0.000000 0.000000 0.060991 0.000000 0.000000
# 5 0.000000 0.000000 0.000000 0.000000 0.030187 0.000000
# 6 0.000000 0.000000 0.000000 0.000000 0.000000 0.053264
#
#
# Mechanical properties :
#
#
# Convention : Reuss Voigt Hill
#
# Bulk Modulus (GPa) = 22.62126 51.59197 37.10662
# Shear Modulus (GPa) = 18.36506 25.41463 21.88985
#
# Velocity S-wave (km/s) = 3.22446 3.79317 3.52032
# Velocity P-wave (km/s) = 5.16426 6.95646 6.12625
#
# Compressibility (1/GPa) = 0.04420620
#
# Stress axis : x y z
#
# Youngs Moduli (GPa) = 95.55293 17.45481 91.85981
#
# Poissons Ratio (x) = 0.14766 0.30589
# Poissons Ratio (y) = 0.80834 0.49867
# Poissons Ratio (z) = 0.31819 0.09475
#
# Static dielectric constant tensor:
#      x y z
#    x 3.410040 0.000000 0.000000 
#    y 0.000000 2.934550 0.000000 
#    z 0.000000 0.000000 3.530190 
# 
# 
# High freq. dielectric constant tensor:
#      x y z
#    x 1.676840 0.000000 0.000000 
#    y 0.000000 1.634210 0.000000 
#    z 0.000000 0.000000 1.701940 
# 
# From -- ./inp_files/10260.got.cif
#   From: 2010.06.25/outbox.cif.g09.slc.cpg/sg71_6_cif.got.tgz:10260.got - 2010.06.28 04:59:45.
