data_PCOD8287143
_publ_section_title
;
Structure prediction by ZEFSAII (Michael W. Deem and Ramdas Pophale) SiO2 
 PCOD8287143
Probable space group: I M M M
;
_chemical_formula_sum "Si O2"
_cell_formula_units_Z 84
_cell_length_a 11.834947
_cell_length_b 29.242575
_cell_length_c 12.540262
_cell_angle_alpha 90.000000
_cell_angle_beta 90.000000
_cell_angle_gamma 90.000000
_cell_volume 4339.988113
_symmetry_space_group_name_H-M "I M M M"
_symmetry_group_IT_number 71
_symmetry_cell_setting 'orthorhombic'
loop_
_space_group_symop_operation_xyz
x,y,z
-x,-y,z
x,-y,-z
-x,y,-z
-x,-y,-z
x,y,-z
-x,y,z
x,-y,z
1/2+x,1/2+y,1/2+z
1/2-x,1/2-y,1/2+z
1/2+x,1/2-y,1/2-z
1/2-x,1/2+y,1/2-z
1/2-x,1/2-y,1/2-z
1/2+x,1/2+y,1/2-z
1/2-x,1/2+y,1/2+z
1/2+x,1/2-y,1/2+z
loop_
_atom_site_type_symbol
_atom_site_label
_atom_site_fract_x
_atom_site_fract_y
_atom_site_fract_z
Si Si1 0.252934 0.924334 0.233963
Si Si2 0.000000 0.581107 0.500000
Si Si3 0.626558 0.244109 0.124639
Si Si4 0.134282 0.000000 0.625265
Si Si5 0.770428 0.681581 0.782900
Si Si6 0.245623 0.449098 0.500000
Si Si7 0.000000 0.585550 0.271441
Si Si8 0.500000 0.170037 0.378017
O O1 0.179698 0.954995 0.314112
O O2 0.246651 0.872143 0.273398
O O3 0.209585 0.925908 0.110441
O O4 0.383350 0.943163 0.239103
O O5 0.109925 0.549172 0.500000
O O6 0.000000 0.610517 0.389877
O O7 0.500000 0.236065 0.168046
O O8 0.664744 0.295019 0.159157
O O9 0.710896 0.204919 0.167809
O O10 0.630406 0.240070 0.000000
O O11 0.171801 0.000000 0.500000
O O12 0.000000 0.000000 0.633354
O O13 0.883602 0.695476 0.849039
O O14 0.294117 0.500000 0.500000
O O15 0.000000 0.622601 0.182096
O O16 0.500000 0.157644 0.500000
#
# Coordination Sequence:
#
# PCOD8287143 Si02
#       8
#    16   4  16   8  16   8   8   8
#     4  10  21  38  60  91 122 155 199 239 299 354
#     4   8  15  28  48  82 124 152 188 220 288 350
#     4  10  21  38  60  87 119 156 201 248 292 348
#     4  11  26  46  64  83 114 158 206 251 288 342
#     4  10  21  37  58  88 121 156 198 244 299 356
#     4  10  17  32  58  88 120 156 186 240 292 351
#     4   8  18  32  55  87 119 152 186 242 289 351
#     4  10  18  32  52  82 117 157 197 235 299 353
#
# _framework density 19.354892
#
# number of rings (size 3 to 8) (size 9 to 14) (size 15 to 20)
#    0.000    2.190    1.905    0.714    1.333    4.952 
#    1.714    3.333    0.000    0.000    0.000    0.000 
#    0.000    0.000    0.000    0.000    0.000    0.000 
#
# Total GULP energy -520334.916983 kJ/mol
# GULP energy per Si atom -12388.926595 kJ/mol
# Density = 1.931084 g / cm^3
# Si number density = 19.354892 Si / 1000 Ang^3
#
#
#
# Elastic Constant Matrix: (Units=GPa)
#
#
# Indices 1 2 3 4 5 6 
#
# 1 67.5194 24.8623 38.1831 0.0001 -0.0002 -0.0001
# 2 24.8623 100.0929 31.5251 -0.0005 0.0001 -0.0001
# 3 38.1831 31.5251 124.1891 -0.0036 0.0014 0.0005
# 4 0.0001 -0.0005 -0.0036 24.1981 0.0005 0.0001
# 5 -0.0002 0.0001 0.0014 0.0005 27.5990 0.0000
# 6 -0.0001 -0.0001 0.0005 0.0001 0.0000 24.9890
#
#
#
# Elastic Compliance Matrix: (Units=1/GPa)
#
#
# Indices 1 2 3 4 5 6 
#
# 1 0.018768 -0.003092 -0.004986 -0.000001 0.000000 0.000000
# 2 -0.003092 0.011368 -0.001935 0.000000 0.000000 0.000000
# 3 -0.004986 -0.001935 0.010076 0.000001 -0.000001 0.000000
# 4 -0.000001 0.000000 0.000001 0.041326 -0.000001 0.000000
# 5 0.000000 0.000000 -0.000001 -0.000001 0.036233 0.000000
# 6 0.000000 0.000000 0.000000 0.000000 0.000000 0.040018
#
#
# Mechanical properties :
#
#
# Convention : Reuss Voigt Hill
#
# Bulk Modulus (GPa) = 49.53477 53.43804 51.48641
# Shear Modulus (GPa) = 27.09381 28.50593 27.79987
#
# Velocity S-wave (km/s) = 3.74551 3.84187 3.79400
# Velocity P-wave (km/s) = 6.65985 6.88110 6.77138
#
# Compressibility (1/GPa) = 0.02018784
#
# Stress axis : x y z
#
# Youngs Moduli (GPa) = 53.28080 87.96485 99.24182
#
# Poissons Ratio (x) = 0.27196 0.49479
# Poissons Ratio (y) = 0.16473 0.19206
# Poissons Ratio (z) = 0.26564 0.17023
#
# Static dielectric constant tensor:
#      x y z
#    x 3.815080 0.000000 0.000000 
#    y 0.000000 3.254890 0.000000 
#    z 0.000000 0.000000 3.709920 
# 
# 
# High freq. dielectric constant tensor:
#      x y z
#    x 1.740380 0.000000 0.000000 
#    y 0.000000 1.733070 0.000000 
#    z 0.000000 0.000000 1.767910 
# 
# From -- ./inp_files/20331.got.cif
#   From: 2010.06.25/outbox.cif.g09.slc.cpg/sg71_11_cif.got.tgz:20331.got - 2010.06.28 04:59:45.
