data_PCOD8287024
_publ_section_title
;
Structure prediction by ZEFSAII (Michael W. Deem and Ramdas Pophale) SiO2 
 PCOD8287024
Probable space group: I M M M
;
_chemical_formula_sum "Si O2"
_cell_formula_units_Z 120
_cell_length_a 8.300989
_cell_length_b 29.303471
_cell_length_c 27.776633
_cell_angle_alpha 90.000000
_cell_angle_beta 90.000000
_cell_angle_gamma 90.000000
_cell_volume 6756.604603
_symmetry_space_group_name_H-M "I M M M"
_symmetry_group_IT_number 71
_symmetry_cell_setting 'orthorhombic'
loop_
_space_group_symop_operation_xyz
x,y,z
-x,-y,z
x,-y,-z
-x,y,-z
-x,-y,-z
x,y,-z
-x,y,z
x,-y,z
1/2+x,1/2+y,1/2+z
1/2-x,1/2-y,1/2+z
1/2+x,1/2-y,1/2-z
1/2-x,1/2+y,1/2-z
1/2-x,1/2-y,1/2-z
1/2+x,1/2+y,1/2-z
1/2-x,1/2+y,1/2+z
1/2+x,1/2-y,1/2+z
loop_
_atom_site_type_symbol
_atom_site_label
_atom_site_fract_x
_atom_site_fract_y
_atom_site_fract_z
Si Si1 0.000000 0.947919 0.443072
Si Si2 0.315790 0.192365 0.599904
Si Si3 0.308380 0.551198 0.554542
Si Si4 0.813307 0.312281 0.296108
Si Si5 0.810226 0.134351 0.117610
Si Si6 0.822564 0.402870 0.943997
Si Si7 0.692192 0.283921 0.553297
Si Si8 0.686207 0.709163 0.802350
O O1 0.166512 0.927657 0.420535
O O2 0.000000 0.939063 0.500000
O O3 0.000000 0.000000 0.428719
O O4 0.500000 0.201166 0.614696
O O5 0.298015 0.150772 0.563303
O O6 0.240966 0.236324 0.573752
O O7 0.216733 0.181977 0.648435
O O8 0.251984 0.564573 0.500000
O O9 0.500000 0.551846 0.555594
O O10 0.246213 0.500000 0.567239
O O11 0.240310 0.586869 0.594967
O O12 0.734458 0.353532 0.327168
O O13 0.776357 0.319029 0.239616
O O14 0.746761 0.261260 0.308938
O O15 0.000000 0.315525 0.306696
O O16 0.738861 0.175405 0.085712
O O17 0.000000 0.132053 0.113283
O O18 0.000000 0.417846 0.922403
O O19 0.826252 0.414186 0.000000
O O20 0.761381 0.290899 0.500000
O O21 0.500000 0.283483 0.552574
O O22 0.500000 0.710688 0.788499
#
# Coordination Sequence:
#
# PCOD8287024 Si02
#       8
#     8  16  16  16  16  16  16  16
#     4   9  18  32  50  72  96 126 166 210 249 283
#     4  10  18  29  46  68  97 131 162 194 236 291
#     4   8  14  25  43  70 101 129 162 208 254 292
#     4  10  20  33  47  65  93 123 156 201 247 288
#     4  10  17  27  46  69  93 124 164 204 245 289
#     4   9  18  31  47  70 101 135 167 202 245 295
#     4   9  16  25  40  64  93 127 165 198 227 273
#     4  10  20  32  48  67  91 124 162 198 239 288
#
# _framework density 17.760401000000002
#
# number of rings (size 3 to 8) (size 9 to 14) (size 15 to 20)
#    0.000    2.600    1.333    2.000    0.933    4.533 
#    0.000    1.333    0.000    2.800    0.000    1.867 
#    0.000    2.133    0.000    0.000    0.000    0.000 
#
# Total GULP energy -743494.531394 kJ/mol
# GULP energy per Si atom -12391.575523 kJ/mol
# Density = 1.771998 g / cm^3
# Si number density = 17.760401 Si / 1000 Ang^3
#
#
#
# Elastic Constant Matrix: (Units=GPa)
#
#
# Indices 1 2 3 4 5 6 
#
# 1 57.4228 34.4302 9.1422 0.0000 0.0000 0.0000
# 2 34.4302 103.2628 30.3726 0.0000 0.0000 0.0000
# 3 9.1422 30.3726 68.5530 0.0000 0.0000 0.0000
# 4 0.0000 0.0000 0.0000 24.8091 0.0000 0.0000
# 5 0.0000 0.0000 0.0000 0.0000 17.5699 0.0000
# 6 0.0000 0.0000 0.0000 0.0000 0.0000 17.4077
#
#
#
# Elastic Compliance Matrix: (Units=1/GPa)
#
#
# Indices 1 2 3 4 5 6 
#
# 1 0.021774 -0.007366 0.000360 0.000000 0.000000 0.000000
# 2 -0.007366 0.013627 -0.005055 0.000000 0.000000 0.000000
# 3 0.000360 -0.005055 0.016779 0.000000 0.000000 0.000000
# 4 0.000000 0.000000 0.000000 0.040308 0.000000 0.000000
# 5 0.000000 0.000000 0.000000 0.000000 0.056916 0.000000
# 6 0.000000 0.000000 0.000000 0.000000 0.000000 0.057446
#
#
# Mechanical properties :
#
#
# Convention : Reuss Voigt Hill
#
# Bulk Modulus (GPa) = 35.64139 41.90319 38.77229
# Shear Modulus (GPa) = 20.80530 22.31024 21.55777
#
# Velocity S-wave (km/s) = 3.42635 3.54811 3.48776
# Velocity P-wave (km/s) = 5.98035 6.35848 6.17231
#
# Compressibility (1/GPa) = 0.02805727
#
# Stress axis : x y z
#
# Youngs Moduli (GPa) = 45.92675 73.38498 59.59841
#
# Poissons Ratio (x) = 0.54053 -0.02143
# Poissons Ratio (y) = 0.33828 0.30128
# Poissons Ratio (z) = -0.01652 0.37097
#
# Static dielectric constant tensor:
#      x y z
#    x 3.183570 0.000000 0.000000 
#    y 0.000000 3.283420 0.000000 
#    z 0.000000 0.000000 3.190090 
# 
# 
# High freq. dielectric constant tensor:
#      x y z
#    x 1.671200 0.000000 0.000000 
#    y 0.000000 1.661110 0.000000 
#    z 0.000000 0.000000 1.666920 
# 
# From -- ./inp_files/63825.got.cif
#   From: 2010.06.25/outbox.cif.g09.slc.cpg/sg71_32_cif.got.tgz:63825.got - 2010.06.28 04:59:45.
