data_PCOD8287792
_publ_section_title
;
Structure prediction by ZEFSAII (Michael W. Deem and Ramdas Pophale) SiO2 
 PCOD8287792
Probable space group: I M M M
;
_chemical_formula_sum "Si O2"
_cell_formula_units_Z 96
_cell_length_a 26.682556
_cell_length_b 7.623245
_cell_length_c 26.038109
_cell_angle_alpha 90.000000
_cell_angle_beta 90.000000
_cell_angle_gamma 90.000000
_cell_volume 5296.350865
_symmetry_space_group_name_H-M "I M M M"
_symmetry_group_IT_number 71
_symmetry_cell_setting 'orthorhombic'
loop_
_space_group_symop_operation_xyz
x,y,z
-x,-y,z
x,-y,-z
-x,y,-z
-x,-y,-z
x,y,-z
-x,y,z
x,-y,z
1/2+x,1/2+y,1/2+z
1/2-x,1/2-y,1/2+z
1/2+x,1/2-y,1/2-z
1/2-x,1/2+y,1/2-z
1/2-x,1/2-y,1/2-z
1/2+x,1/2+y,1/2-z
1/2-x,1/2+y,1/2+z
1/2+x,1/2-y,1/2+z
loop_
_atom_site_type_symbol
_atom_site_label
_atom_site_fract_x
_atom_site_fract_y
_atom_site_fract_z
Si Si1 0.797707 0.000000 0.440647
Si Si2 0.777377 0.194696 0.942033
Si Si3 0.556215 0.500000 0.776106
Si Si4 0.153209 0.000000 0.339238
Si Si5 0.901242 0.699449 0.790178
Si Si6 0.443821 0.209031 0.500000
Si Si7 0.619624 0.205467 0.404299
Si Si8 0.803569 0.300149 0.272154
O O1 0.765483 0.829626 0.426385
O O2 0.816168 0.000000 0.500000
O O3 0.844623 0.000000 0.401441
O O4 0.825755 0.207220 0.905892
O O5 0.754395 0.000000 0.937238
O O6 0.795266 0.236761 0.000000
O O7 0.500000 0.500000 0.798547
O O8 0.594889 0.500000 0.823508
O O9 0.563069 0.326949 0.741704
O O10 0.181535 0.827438 0.318575
O O11 0.919355 0.500000 0.780662
O O12 0.905730 0.750240 0.849965
O O13 0.843506 0.723152 0.773630
O O14 0.500000 0.285236 0.500000
O O15 0.415826 0.280499 0.550747
O O16 0.445044 0.000000 0.500000
O O17 0.627873 0.000000 0.411297
O O18 0.803104 0.500000 0.292797
O O19 0.750000 0.250000 0.250000
#
# Coordination Sequence:
#
# PCOD8287792 Si02
#       8
#     8  16   8   8  16   8  16  16
#     4  10  22  38  56  81 114 149 181 214 264 336
#     4  10  20  32  50  76 106 145 186 219 264 317
#     4  10  22  42  62  80 106 138 178 230 285 335
#     4  10  22  38  56  85 113 142 186 223 276 335
#     4   9  21  35  51  79 107 139 183 224 270 327
#     4   9  18  30  47  69  93 130 181 241 286 310
#     4  10  18  31  51  70 100 139 185 230 271 325
#     4  10  19  32  51  79 115 149 180 220 271 324
#
# _framework density 18.125688
#
# number of rings (size 3 to 8) (size 9 to 14) (size 15 to 20)
#    0.000    2.250    2.500    0.000    3.500    1.667 
#    0.000    1.667    0.000    0.750    0.000    0.000 
#    0.000    0.000    0.000   12.500    0.000    0.000 
#
# Total GULP energy -595202.552441 kJ/mol
# GULP energy per Si atom -12400.053176 kJ/mol
# Density = 1.808443 g / cm^3
# Si number density = 18.125688 Si / 1000 Ang^3
#
#
#
# Elastic Constant Matrix: (Units=GPa)
#
#
# Indices 1 2 3 4 5 6 
#
# 1 103.8667 36.8355 55.0187 0.0000 0.0000 0.0000
# 2 36.8355 102.2497 37.8129 0.0000 0.0000 0.0000
# 3 55.0187 37.8129 111.5618 0.0000 0.0000 0.0000
# 4 0.0000 0.0000 0.0000 13.1495 0.0000 0.0000
# 5 0.0000 0.0000 0.0000 0.0000 17.7007 0.0000
# 6 0.0000 0.0000 0.0000 0.0000 0.0000 4.6908
#
#
#
# Elastic Compliance Matrix: (Units=1/GPa)
#
#
# Indices 1 2 3 4 5 6 
#
# 1 0.013692 -0.002784 -0.005809 0.000000 0.000000 0.000000
# 2 -0.002784 0.011748 -0.002609 0.000000 0.000000 0.000000
# 3 -0.005809 -0.002609 0.012712 0.000000 0.000000 0.000000
# 4 0.000000 0.000000 0.000000 0.076049 0.000000 0.000000
# 5 0.000000 0.000000 0.000000 0.000000 0.056495 0.000000
# 6 0.000000 0.000000 0.000000 0.000000 0.000000 0.213183
#
#
# Mechanical properties :
#
#
# Convention : Reuss Voigt Hill
#
# Bulk Modulus (GPa) = 63.49701 64.11248 63.80475
# Shear Modulus (GPa) = 12.14971 19.64226 15.89599
#
# Velocity S-wave (km/s) = 2.59183 3.29549 2.96461
# Velocity P-wave (km/s) = 6.63810 7.06599 6.85538
#
# Compressibility (1/GPa) = 0.01574877
#
# Stress axis : x y z
#
# Youngs Moduli (GPa) = 73.03462 85.12256 78.66279
#
# Poissons Ratio (x) = 0.23702 0.45693
# Poissons Ratio (y) = 0.20336 0.20520
# Poissons Ratio (z) = 0.42424 0.22205
#
# Static dielectric constant tensor:
#      x y z
#    x 3.101300 0.000000 0.000000 
#    y 0.000000 3.519070 0.000000 
#    z 0.000000 0.000000 3.262360 
# 
# 
# High freq. dielectric constant tensor:
#      x y z
#    x 1.669940 0.000000 0.000000 
#    y 0.000000 1.715010 0.000000 
#    z 0.000000 0.000000 1.685530 
# 
# From -- ./inp_files/66770.got.cif
#   From: 2010.06.25/outbox.cif.g09.slc.cpg/sg71_34_cif.got.tgz:66770.got - 2010.06.28 04:59:45.
