data_PCOD8287635
_publ_section_title
;
Structure prediction by ZEFSAII (Michael W. Deem and Ramdas Pophale) SiO2 
 PCOD8287635
Probable space group: I M M M
;
_chemical_formula_sum "Si O2"
_cell_formula_units_Z 80
_cell_length_a 20.575480
_cell_length_b 8.578733
_cell_length_c 25.046169
_cell_angle_alpha 90.000000
_cell_angle_beta 90.000000
_cell_angle_gamma 90.000000
_cell_volume 4420.938093
_symmetry_space_group_name_H-M "I M M M"
_symmetry_group_IT_number 71
_symmetry_cell_setting 'orthorhombic'
loop_
_space_group_symop_operation_xyz
x,y,z
-x,-y,z
x,-y,-z
-x,y,-z
-x,-y,-z
x,y,-z
-x,y,z
x,-y,z
1/2+x,1/2+y,1/2+z
1/2-x,1/2-y,1/2+z
1/2+x,1/2-y,1/2-z
1/2-x,1/2+y,1/2-z
1/2-x,1/2-y,1/2-z
1/2+x,1/2+y,1/2-z
1/2-x,1/2+y,1/2+z
1/2+x,1/2-y,1/2+z
loop_
_atom_site_type_symbol
_atom_site_label
_atom_site_fract_x
_atom_site_fract_y
_atom_site_fract_z
Si Si1 0.690282 0.683847 0.716513
Si Si2 0.772905 0.182467 0.000000
Si Si3 0.769257 0.315997 0.890699
Si Si4 0.869366 0.817295 0.500000
Si Si5 0.572960 0.321364 0.790782
Si Si6 0.373853 0.818037 0.893612
O O1 0.699046 0.500000 0.710576
O O2 0.750000 0.750000 0.750000
O O3 0.686230 0.761621 0.658327
O O4 0.623034 0.730384 0.745055
O O5 0.802516 0.257210 0.945912
O O6 0.696707 0.218444 0.000000
O O7 0.786758 0.000000 0.000000
O O8 0.762761 0.500000 0.891994
O O9 0.698069 0.244788 0.881875
O O10 0.905949 0.767222 0.554402
O O11 0.854474 0.000000 0.500000
O O12 0.500000 0.297994 0.768618
O O13 0.586191 0.500000 0.807181
O O14 0.581104 0.216133 0.843129
O O15 0.370759 0.000000 0.904925
#
# Coordination Sequence:
#
# PCOD8287635 Si02
#       6
#    16   8  16   8  16  16
#     4  11  21  34  55  81 108 139 178 222 266 315
#     4  10  18  30  48  75 108 137 172 217 266 315
#     4  11  20  32  51  77 109 142 176 216 264 317
#     4  10  18  30  49  71 100 137 177 218 264 313
#     4  10  22  39  56  75 104 142 180 218 266 321
#     4  11  20  32  51  75 104 136 177 223 267 312
#
# _framework density 18.095707999999998
#
# number of rings (size 3 to 8) (size 9 to 14) (size 15 to 20)
#    0.000    1.400    2.000    8.400    0.000    1.200 
#    0.000    0.500    0.000    3.000    0.000    0.700 
#    0.000    5.600    0.000    0.000    0.000    0.000 
#
# Total GULP energy -496013.000749 kJ/mol
# GULP energy per Si atom -12400.325019 kJ/mol
# Density = 1.805452 g / cm^3
# Si number density = 18.095708 Si / 1000 Ang^3
#
#
#
# Elastic Constant Matrix: (Units=GPa)
#
#
# Indices 1 2 3 4 5 6 
#
# 1 75.5284 26.3303 49.2306 0.0000 0.0000 0.0000
# 2 26.3303 91.2159 36.4458 0.0000 0.0000 0.0000
# 3 49.2306 36.4458 153.6242 0.0000 0.0000 0.0000
# 4 0.0000 0.0000 0.0000 36.4553 0.0000 0.0000
# 5 0.0000 0.0000 0.0000 0.0000 16.3902 0.0000
# 6 0.0000 0.0000 0.0000 0.0000 0.0000 16.0945
#
#
#
# Elastic Compliance Matrix: (Units=1/GPa)
#
#
# Indices 1 2 3 4 5 6 
#
# 1 0.017497 -0.003105 -0.004871 0.000000 0.000000 0.000000
# 2 -0.003105 0.012662 -0.002009 0.000000 0.000000 0.000000
# 3 -0.004871 -0.002009 0.008547 0.000000 0.000000 0.000000
# 4 0.000000 0.000000 0.000000 0.027431 0.000000 0.000000
# 5 0.000000 0.000000 0.000000 0.000000 0.061012 0.000000
# 6 0.000000 0.000000 0.000000 0.000000 0.000000 0.062133
#
#
# Mechanical properties :
#
#
# Convention : Reuss Voigt Hill
#
# Bulk Modulus (GPa) = 53.36922 60.48689 56.92805
# Shear Modulus (GPa) = 23.20228 27.67879 25.44053
#
# Velocity S-wave (km/s) = 3.58466 3.91522 3.75358
# Velocity P-wave (km/s) = 6.83300 7.34420 7.09321
#
# Compressibility (1/GPa) = 0.01873739
#
# Stress axis : x y z
#
# Youngs Moduli (GPa) = 57.15230 78.97715 117.00225
#
# Poissons Ratio (x) = 0.24519 0.56987
# Poissons Ratio (y) = 0.17744 0.23506
# Poissons Ratio (z) = 0.27837 0.15866
#
# Static dielectric constant tensor:
#      x y z
#    x 2.929490 0.000000 0.000000 
#    y 0.000000 3.435850 0.000000 
#    z 0.000000 0.000000 3.982640 
# 
# 
# High freq. dielectric constant tensor:
#      x y z
#    x 1.640880 0.000000 0.000000 
#    y 0.000000 1.718740 0.000000 
#    z 0.000000 0.000000 1.719040 
# 
# From -- ./inp_files/10774.got.cif
#   From: 2010.06.25/outbox.cif.g09.slc.cpg/sg71_6_cif.got.tgz:10774.got - 2010.06.28 04:59:45.
