data_PCOD8287359
_publ_section_title
;
Structure prediction by ZEFSAII (Michael W. Deem and Ramdas Pophale) SiO2 
 PCOD8287359
Probable space group: I M M M
;
_chemical_formula_sum "Si O2"
_cell_formula_units_Z 96
_cell_length_a 19.724585
_cell_length_b 30.646596
_cell_length_c 9.054368
_cell_angle_alpha 90.000000
_cell_angle_beta 90.000000
_cell_angle_gamma 90.000000
_cell_volume 5473.287478
_symmetry_space_group_name_H-M "I M M M"
_symmetry_group_IT_number 71
_symmetry_cell_setting 'orthorhombic'
loop_
_space_group_symop_operation_xyz
x,y,z
-x,-y,z
x,-y,-z
-x,y,-z
-x,-y,-z
x,y,-z
-x,y,z
x,-y,z
1/2+x,1/2+y,1/2+z
1/2-x,1/2-y,1/2+z
1/2+x,1/2-y,1/2-z
1/2-x,1/2+y,1/2-z
1/2-x,1/2-y,1/2-z
1/2+x,1/2+y,1/2-z
1/2-x,1/2+y,1/2+z
1/2+x,1/2-y,1/2+z
loop_
_atom_site_type_symbol
_atom_site_label
_atom_site_fract_x
_atom_site_fract_y
_atom_site_fract_z
Si Si1 0.078604 0.949712 0.668703
Si Si2 0.172301 0.293233 0.663885
Si Si3 0.175650 0.115258 0.825476
Si Si4 0.318053 0.880635 0.324078
Si Si5 0.424521 0.048571 0.675377
Si Si6 0.333102 0.288735 0.337069
O O1 0.095628 0.936923 0.500000
O O2 0.121593 0.920926 0.780921
O O3 0.000000 0.941427 0.702332
O O4 0.097238 0.000000 0.696693
O O5 0.142520 0.300724 0.500000
O O6 0.154499 0.334182 0.766966
O O7 0.252289 0.287206 0.656173
O O8 0.138780 0.249031 0.729691
O O9 0.245476 0.106411 0.741134
O O10 0.145741 0.162962 0.781040
O O11 0.190016 0.113660 0.000000
O O12 0.312888 0.879025 0.500000
O O13 0.370431 0.916827 0.264152
O O14 0.424021 0.049416 0.500000
O O15 0.500000 0.060745 0.732576
O O16 0.404659 0.000000 0.731104
O O17 0.363099 0.279968 0.500000
#
# Coordination Sequence:
#
# PCOD8287359 Si02
#       6
#    16  16  16  16  16  16
#     4   9  19  36  55  73  95 126 163 199 236 284
#     4   9  16  26  42  65  94 125 156 193 236 282
#     4  10  20  32  48  73 102 128 157 197 241 282
#     4  10  18  28  47  73  99 127 158 196 243 288
#     4   8  15  29  48  69  92 120 158 200 237 277
#     4   8  15  27  42  63  92 124 157 191 230 279
#
# _framework density 17.539732999999998
#
# number of rings (size 3 to 8) (size 9 to 14) (size 15 to 20)
#    0.000    3.000    0.000    3.500    0.000    6.000 
#    0.000    2.500    0.000    4.500    0.000    7.000 
#    0.000    0.000    0.000    0.000    0.000    0.000 
#
# Total GULP energy -594976.530151 kJ/mol
# GULP energy per Si atom -12395.344378 kJ/mol
# Density = 1.749981 g / cm^3
# Si number density = 17.539733 Si / 1000 Ang^3
#
#
#
# Elastic Constant Matrix: (Units=GPa)
#
#
# Indices 1 2 3 4 5 6 
#
# 1 56.8958 62.1237 35.4892 0.0000 0.0001 0.0000
# 2 62.1237 139.0177 56.4229 0.0001 0.0000 0.0000
# 3 35.4892 56.4229 83.0236 -0.0006 -0.0015 0.0002
# 4 0.0000 0.0001 -0.0006 28.3924 -0.0003 0.0001
# 5 0.0001 0.0000 -0.0015 -0.0003 9.2558 0.0001
# 6 0.0000 0.0000 0.0002 0.0001 0.0001 1.5709
#
#
#
# Elastic Compliance Matrix: (Units=1/GPa)
#
#
# Indices 1 2 3 4 5 6 
#
# 1 0.036526 -0.013789 -0.006242 0.000000 -0.000001 0.000001
# 2 -0.013789 0.015139 -0.004394 0.000000 -0.000001 0.000001
# 3 -0.006242 -0.004394 0.017699 0.000000 0.000003 -0.000002
# 4 0.000000 0.000000 0.000000 0.035221 0.000001 -0.000002
# 5 -0.000001 -0.000001 0.000003 0.000001 0.108041 -0.000004
# 6 0.000001 0.000001 -0.000002 -0.000002 -0.000004 0.636583
#
#
# Mechanical properties :
#
#
# Convention : Reuss Voigt Hill
#
# Bulk Modulus (GPa) = 48.74935 65.22320 56.98628
# Shear Modulus (GPa) = 5.52550 16.17056 10.84803
#
# Velocity S-wave (km/s) = 1.77683 3.03964 2.48963
# Velocity P-wave (km/s) = 5.66246 7.04173 6.38942
#
# Compressibility (1/GPa) = 0.02051309
#
# Stress axis : x y z
#
# Youngs Moduli (GPa) = 27.37813 66.05614 56.49944
#
# Poissons Ratio (x) = 0.91084 0.35269
# Poissons Ratio (y) = 0.37751 0.24826
# Poissons Ratio (z) = 0.17090 0.29025
#
# Static dielectric constant tensor:
#      x y z
#    x 2.934890 0.000000 0.000000 
#    y 0.000000 3.569950 0.000000 
#    z 0.000000 0.000000 3.224850 
# 
# 
# High freq. dielectric constant tensor:
#      x y z
#    x 1.633480 0.000000 0.000000 
#    y 0.000000 1.691890 0.000000 
#    z 0.000000 0.000000 1.670590 
# 
# From -- ./inp_files/10978.got.cif
#   From: 2010.06.25/outbox.cif.g09.slc.cpg/sg71_6_cif.got.tgz:10978.got - 2010.06.28 04:59:45.
