data_PCOD8287435
_publ_section_title
;
Structure prediction by ZEFSAII (Michael W. Deem and Ramdas Pophale) SiO2 
 PCOD8287435
Probable space group: I M M M
;
_chemical_formula_sum "Si O2"
_cell_formula_units_Z 120
_cell_length_a 14.053957
_cell_length_b 21.479225
_cell_length_c 24.824622
_cell_angle_alpha 90.000000
_cell_angle_beta 90.000000
_cell_angle_gamma 90.000000
_cell_volume 7493.761589
_symmetry_space_group_name_H-M "I M M M"
_symmetry_group_IT_number 71
_symmetry_cell_setting 'orthorhombic'
loop_
_space_group_symop_operation_xyz
x,y,z
-x,-y,z
x,-y,-z
-x,y,-z
-x,-y,-z
x,y,-z
-x,y,z
x,-y,z
1/2+x,1/2+y,1/2+z
1/2-x,1/2-y,1/2+z
1/2+x,1/2-y,1/2-z
1/2-x,1/2+y,1/2-z
1/2-x,1/2-y,1/2-z
1/2+x,1/2+y,1/2-z
1/2-x,1/2+y,1/2+z
1/2+x,1/2-y,1/2+z
loop_
_atom_site_type_symbol
_atom_site_label
_atom_site_fract_x
_atom_site_fract_y
_atom_site_fract_z
Si Si1 0.886638 0.737579 0.559834
Si Si2 0.612687 0.000000 0.939351
Si Si3 0.886772 0.619867 0.627181
Si Si4 0.605534 0.655682 0.866461
Si Si5 0.607316 0.717927 0.753996
Si Si6 0.893314 0.573925 0.059061
Si Si7 0.771882 0.426387 0.840939
Si Si8 0.296228 0.847613 0.763190
O O1 0.844094 0.731151 0.500000
O O2 0.849545 0.680466 0.595617
O O3 0.852591 0.803743 0.584086
O O4 0.000000 0.735345 0.558789
O O5 0.647367 0.939323 0.907251
O O6 0.500000 0.000000 0.943640
O O7 0.655727 0.000000 0.000000
O O8 0.834776 0.617215 0.684513
O O9 0.000000 0.620209 0.636244
O O10 0.500000 0.631519 0.879298
O O11 0.605816 0.703866 0.817174
O O12 0.664590 0.593850 0.854273
O O13 0.500000 0.707844 0.729912
O O14 0.638378 0.789196 0.747042
O O15 0.686053 0.673010 0.726238
O O16 0.892853 0.500000 0.061925
O O17 0.832931 0.600041 0.108918
O O18 0.000000 0.599551 0.065661
O O19 0.853163 0.594829 0.000000
O O20 0.777305 0.500000 0.834419
O O21 0.806855 0.395743 0.785804
#
# Coordination Sequence:
#
# PCOD8287435 Si02
#       8
#    16   8  16  16  16  16  16  16
#     4   9  16  27  46  69  91 119 157 197 232 273
#     4   9  18  30  44  68 103 141 170 188 227 294
#     4  10  18  29  46  68 100 134 159 192 235 281
#     4   9  17  31  48  66  90 120 158 195 235 281
#     4   9  17  32  49  66  90 122 155 193 239 286
#     4   8  15  30  48  61  78 111 153 193 231 273
#     4  10  21  32  45  68  95 123 157 196 239 282
#     4  10  19  29  48  71  94 124 158 192 237 290
#
# _framework density 16.013318999999999
#
# number of rings (size 3 to 8) (size 9 to 14) (size 15 to 20)
#    0.000    2.733    1.333    1.200    0.933    3.467 
#    0.000    0.000    0.000    0.000    0.000    3.733 
#    0.000    2.667    0.000    0.000    0.000    0.000 
#
# Total GULP energy -743659.063929 kJ/mol
# GULP energy per Si atom -12394.317732 kJ/mol
# Density = 1.597687 g / cm^3
# Si number density = 16.013319 Si / 1000 Ang^3
#
#
#
# Elastic Constant Matrix: (Units=GPa)
#
#
# Indices 1 2 3 4 5 6 
#
# 1 70.7426 28.8506 43.4975 0.0000 0.0000 0.0000
# 2 28.8506 67.1924 48.8164 0.0000 0.0000 0.0000
# 3 43.4975 48.8164 128.8895 0.0000 0.0000 0.0000
# 4 0.0000 0.0000 0.0000 22.9647 0.0000 0.0000
# 5 0.0000 0.0000 0.0000 0.0000 18.2428 0.0000
# 6 0.0000 0.0000 0.0000 0.0000 0.0000 13.1338
#
#
#
# Elastic Compliance Matrix: (Units=1/GPa)
#
#
# Indices 1 2 3 4 5 6 
#
# 1 0.018897 -0.004802 -0.004559 0.000000 0.000000 0.000000
# 2 -0.004802 0.021753 -0.006618 0.000000 0.000000 0.000000
# 3 -0.004559 -0.006618 0.011804 0.000000 0.000000 0.000000
# 4 0.000000 0.000000 0.000000 0.043545 0.000000 0.000000
# 5 0.000000 0.000000 0.000000 0.000000 0.054816 0.000000
# 6 0.000000 0.000000 0.000000 0.000000 0.000000 0.076139
#
#
# Mechanical properties :
#
#
# Convention : Reuss Voigt Hill
#
# Bulk Modulus (GPa) = 48.79044 56.57263 52.68154
# Shear Modulus (GPa) = 18.81513 20.57892 19.69702
#
# Velocity S-wave (km/s) = 3.43150 3.58874 3.51100
# Velocity P-wave (km/s) = 6.79964 7.25101 7.02895
#
# Compressibility (1/GPa) = 0.02049582
#
# Stress axis : x y z
#
# Youngs Moduli (GPa) = 52.91822 45.97132 84.71958
#
# Poissons Ratio (x) = 0.22075 0.38621
# Poissons Ratio (y) = 0.25411 0.56069
# Poissons Ratio (z) = 0.24124 0.30425
#
# Static dielectric constant tensor:
#      x y z
#    x 2.994960 0.000000 0.000000 
#    y 0.000000 2.881620 0.000000 
#    z 0.000000 0.000000 3.206560 
# 
# 
# High freq. dielectric constant tensor:
#      x y z
#    x 1.586490 0.000000 0.000000 
#    y 0.000000 1.603470 0.000000 
#    z 0.000000 0.000000 1.619450 
# 
# From -- ./inp_files/60208.got.cif
#   From: 2010.06.25/outbox.cif.g09.slc.cpg/sg71_31_cif.got.tgz:60208.got - 2010.06.28 04:59:45.
