data_PCOD8287272
_publ_section_title
;
Structure prediction by ZEFSAII (Michael W. Deem and Ramdas Pophale) SiO2 
 PCOD8287272
Probable space group: I M M M
;
_chemical_formula_sum "Si O2"
_cell_formula_units_Z 112
_cell_length_a 14.178836
_cell_length_b 17.548751
_cell_length_c 28.905202
_cell_angle_alpha 90.000000
_cell_angle_beta 90.000000
_cell_angle_gamma 90.000000
_cell_volume 7192.217290
_symmetry_space_group_name_H-M "I M M M"
_symmetry_group_IT_number 71
_symmetry_cell_setting 'orthorhombic'
loop_
_space_group_symop_operation_xyz
x,y,z
-x,-y,z
x,-y,-z
-x,y,-z
-x,-y,-z
x,y,-z
-x,y,z
x,-y,z
1/2+x,1/2+y,1/2+z
1/2-x,1/2-y,1/2+z
1/2+x,1/2-y,1/2-z
1/2-x,1/2+y,1/2-z
1/2-x,1/2-y,1/2-z
1/2+x,1/2+y,1/2-z
1/2-x,1/2+y,1/2+z
1/2+x,1/2-y,1/2+z
loop_
_atom_site_type_symbol
_atom_site_label
_atom_site_fract_x
_atom_site_fract_y
_atom_site_fract_z
Si Si1 0.892592 0.798661 0.236828
Si Si2 0.893195 0.186368 0.599897
Si Si3 0.609334 0.145466 0.688982
Si Si4 0.272277 0.912271 0.227284
Si Si5 0.602179 0.349951 0.000000
Si Si6 0.287280 0.908735 0.600913
Si Si7 0.108192 0.301887 0.324407
Si Si8 0.206991 0.584183 0.000000
O O1 0.874049 0.735646 0.196908
O O2 0.828915 0.872232 0.229924
O O3 0.865866 0.760604 0.285664
O O4 0.000000 0.827053 0.236211
O O5 0.887087 0.203715 0.545112
O O6 0.817774 0.121138 0.613308
O O7 0.868481 0.265053 0.625936
O O8 0.000000 0.159796 0.614001
O O9 0.500000 0.124689 0.696759
O O10 0.670032 0.096462 0.725097
O O11 0.638028 0.124007 0.637033
O O12 0.329687 0.876883 0.184061
O O13 0.254126 0.000000 0.216680
O O14 0.678543 0.417375 0.000000
O O15 0.500000 0.390577 0.000000
O O16 0.322217 0.878414 0.549537
O O17 0.283980 0.000000 0.601899
O O18 0.000000 0.326859 0.319825
O O19 0.165504 0.500000 0.000000
#
# Coordination Sequence:
#
# PCOD8287272 Si02
#       8
#    16  16  16  16   8  16  16   8
#     4   9  18  32  47  63  84 111 140 167 203 251
#     4   9  16  27  43  62  85 113 143 174 209 248
#     4  10  20  33  48  62  80 111 147 178 205 239
#     4  11  20  29  45  67  88 108 134 172 211 248
#     4   8  14  23  38  61  82 104 141 179 205 238
#     4  10  18  28  42  60  85 114 144 179 213 245
#     4   9  17  29  44  60  83 115 144 170 202 242
#     4   8  16  27  37  54  82 114 141 169 212 253
#
# _framework density 15.572388
#
# number of rings (size 3 to 8) (size 9 to 14) (size 15 to 20)
#    0.000    2.571    0.000    5.143    0.000    2.714 
#    0.000    3.214    0.000    5.571    0.000    0.500 
#    0.000    2.857    0.000    0.000    0.000   33.714 
#
# Total GULP energy -693965.269096 kJ/mol
# GULP energy per Si atom -12392.236948 kJ/mol
# Density = 1.553694 g / cm^3
# Si number density = 15.572388 Si / 1000 Ang^3
#
#
#
# Elastic Constant Matrix: (Units=GPa)
#
#
# Indices 1 2 3 4 5 6 
#
# 1 68.9856 46.8905 28.1475 0.0000 0.0000 0.0000
# 2 46.8905 92.8936 31.7277 0.0000 0.0000 0.0000
# 3 28.1475 31.7277 77.2883 0.0000 0.0000 0.0000
# 4 0.0000 0.0000 0.0000 17.6072 0.0000 0.0000
# 5 0.0000 0.0000 0.0000 0.0000 22.1996 0.0000
# 6 0.0000 0.0000 0.0000 0.0000 0.0000 14.2167
#
#
#
# Elastic Compliance Matrix: (Units=1/GPa)
#
#
# Indices 1 2 3 4 5 6 
#
# 1 0.023201 -0.010265 -0.004236 0.000000 0.000000 0.000000
# 2 -0.010265 0.017062 -0.003266 0.000000 0.000000 0.000000
# 3 -0.004236 -0.003266 0.015822 0.000000 0.000000 0.000000
# 4 0.000000 0.000000 0.000000 0.056795 0.000000 0.000000
# 5 0.000000 0.000000 0.000000 0.000000 0.045046 0.000000
# 6 0.000000 0.000000 0.000000 0.000000 0.000000 0.070340
#
#
# Mechanical properties :
#
#
# Convention : Reuss Voigt Hill
#
# Bulk Modulus (GPa) = 48.65650 50.29987 49.47818
# Shear Modulus (GPa) = 18.47415 19.63149 19.05282
#
# Velocity S-wave (km/s) = 3.44807 3.55443 3.50165
# Velocity P-wave (km/s) = 6.86771 7.01542 6.94196
#
# Compressibility (1/GPa) = 0.02055224
#
# Stress axis : x y z
#
# Youngs Moduli (GPa) = 43.10145 58.61054 63.20380
#
# Poissons Ratio (x) = 0.60162 0.26772
# Poissons Ratio (y) = 0.44242 0.20641
# Poissons Ratio (z) = 0.18257 0.19141
#
# Static dielectric constant tensor:
#      x y z
#    x 3.030020 0.000000 0.000000 
#    y 0.000000 2.689200 0.000000 
#    z 0.000000 0.000000 3.209650 
# 
# 
# High freq. dielectric constant tensor:
#      x y z
#    x 1.603930 0.000000 0.000000 
#    y 0.000000 1.557950 0.000000 
#    z 0.000000 0.000000 1.594330 
# 
# From -- ./inp_files/70217.got.cif
#   From: 2010.06.25/outbox.cif.g09.slc.cpg/sg71_36_cif.got.tgz:70217.got - 2010.06.28 04:59:45.
