data_PCOD8287527
_publ_section_title
;
Structure prediction by ZEFSAII (Michael W. Deem and Ramdas Pophale) SiO2 
 PCOD8287527
Probable space group: I M M M
;
_chemical_formula_sum "Si O2"
_cell_formula_units_Z 104
_cell_length_a 9.674962
_cell_length_b 23.648929
_cell_length_c 25.410313
_cell_angle_alpha 90.000000
_cell_angle_beta 90.000000
_cell_angle_gamma 90.000000
_cell_volume 5813.942871
_symmetry_space_group_name_H-M "I M M M"
_symmetry_group_IT_number 71
_symmetry_cell_setting 'orthorhombic'
loop_
_space_group_symop_operation_xyz
x,y,z
-x,-y,z
x,-y,-z
-x,y,-z
-x,-y,-z
x,y,-z
-x,y,z
x,-y,z
1/2+x,1/2+y,1/2+z
1/2-x,1/2-y,1/2+z
1/2+x,1/2-y,1/2-z
1/2-x,1/2+y,1/2-z
1/2-x,1/2-y,1/2-z
1/2+x,1/2+y,1/2-z
1/2-x,1/2+y,1/2+z
1/2+x,1/2-y,1/2+z
loop_
_atom_site_type_symbol
_atom_site_label
_atom_site_fract_x
_atom_site_fract_y
_atom_site_fract_z
Si Si1 0.337148 0.645282 0.593509
Si Si2 0.000000 0.567243 0.062052
Si Si3 0.340013 0.683310 0.791602
Si Si4 0.336843 0.187921 0.810735
Si Si5 0.759511 0.127903 0.392264
Si Si6 0.164013 0.064431 0.000000
Si Si7 0.848366 0.732459 0.940590
Si Si8 0.500000 0.560716 0.060520
O O1 0.500000 0.638460 0.608774
O O2 0.241029 0.649773 0.645290
O O3 0.286779 0.595233 0.554100
O O4 0.308054 0.702226 0.561246
O O5 0.123180 0.593240 0.095546
O O6 0.000000 0.500000 0.066548
O O7 0.000000 0.585210 0.000000
O O8 0.500000 0.678762 0.773083
O O9 0.315132 0.744722 0.818898
O O10 0.235181 0.672531 0.744123
O O11 0.303221 0.631970 0.831269
O O12 0.500000 0.172322 0.809757
O O13 0.757266 0.193242 0.409743
O O14 0.868910 0.096376 0.426451
O O15 0.000000 0.066294 0.000000
O O16 0.220330 0.000000 0.000000
O O17 0.000000 0.723647 0.915068
O O18 0.849820 0.711548 0.000000
O O19 0.500000 0.500000 0.090460
O O20 0.500000 0.547512 0.000000
#
# Coordination Sequence:
#
# PCOD8287527 Si02
#       8
#    16   8  16  16  16   8  16   8
#     4  10  18  32  55  85 117 149 184 232 274 331
#     4  11  24  40  56  79 112 154 196 232 277 337
#     4  10  21  37  54  82 114 149 189 233 290 346
#     4  10  21  35  55  82 119 151 183 230 289 351
#     4  12  21  35  57  81 110 147 187 243 280 336
#     4   9  18  34  59  89 119 157 196 225 267 333
#     4  10  18  29  49  80 116 146 181 225 282 333
#     4  11  24  40  56  77 110 152 192 230 281 335
#
# _framework density 17.888033
#
# number of rings (size 3 to 8) (size 9 to 14) (size 15 to 20)
#    0.000    1.615    3.846    2.308    1.077    1.846 
#    0.000    0.385    0.000    2.769    0.000    0.000 
#    0.000    0.000    0.000    0.000    0.000    0.000 
#
# Total GULP energy -644330.345427 kJ/mol
# GULP energy per Si atom -12390.968181 kJ/mol
# Density = 1.784732 g / cm^3
# Si number density = 17.888033 Si / 1000 Ang^3
#
#
#
# Elastic Constant Matrix: (Units=GPa)
#
#
# Indices 1 2 3 4 5 6 
#
# 1 113.0390 42.6591 49.9157 0.0000 0.0000 0.0000
# 2 42.6591 98.1906 46.3870 0.0000 0.0000 0.0000
# 3 49.9157 46.3870 96.7992 0.0000 0.0000 0.0000
# 4 0.0000 0.0000 0.0000 2.8740 0.0000 0.0000
# 5 0.0000 0.0000 0.0000 0.0000 24.3253 0.0000
# 6 0.0000 0.0000 0.0000 0.0000 0.0000 47.2577
#
#
#
# Elastic Compliance Matrix: (Units=1/GPa)
#
#
# Indices 1 2 3 4 5 6 
#
# 1 0.012095 -0.002984 -0.004807 0.000000 0.000000 0.000000
# 2 -0.002984 0.013901 -0.005123 0.000000 0.000000 0.000000
# 3 -0.004807 -0.005123 0.015264 0.000000 0.000000 0.000000
# 4 0.000000 0.000000 0.000000 0.347946 0.000000 0.000000
# 5 0.000000 0.000000 0.000000 0.000000 0.041109 0.000000
# 6 0.000000 0.000000 0.000000 0.000000 0.000000 0.021161
#
#
# Mechanical properties :
#
#
# Convention : Reuss Voigt Hill
#
# Bulk Modulus (GPa) = 64.79648 65.10582 64.95115
# Shear Modulus (GPa) = 10.36380 26.16254 18.26317
#
# Velocity S-wave (km/s) = 2.40962 3.82851 3.19873
# Velocity P-wave (km/s) = 6.63654 7.48456 7.07327
#
# Compressibility (1/GPa) = 0.01543294
#
# Stress axis : x y z
#
# Youngs Moduli (GPa) = 82.67660 71.93923 65.51199
#
# Poissons Ratio (x) = 0.21465 0.31493
# Poissons Ratio (y) = 0.24669 0.33559
# Poissons Ratio (z) = 0.39745 0.36852
#
# Static dielectric constant tensor:
#      x y z
#    x 3.211740 0.000000 0.000000 
#    y 0.000000 3.326800 0.000000 
#    z 0.000000 0.000000 3.305600 
# 
# 
# High freq. dielectric constant tensor:
#      x y z
#    x 1.688250 0.000000 0.000000 
#    y 0.000000 1.675510 0.000000 
#    z 0.000000 0.000000 1.688540 
# 
# From -- ./inp_files/63599.got.cif
#   From: 2010.06.25/outbox.cif.g09.slc.cpg/sg71_32_cif.got.tgz:63599.got - 2010.06.28 04:59:45.
