data_PCOD8287812
_publ_section_title
;
Structure prediction by ZEFSAII (Michael W. Deem and Ramdas Pophale) SiO2 
 PCOD8287812
Probable space group: I M M M
;
_chemical_formula_sum "Si O2"
_cell_formula_units_Z 96
_cell_length_a 25.527889
_cell_length_b 23.574530
_cell_length_c 8.969725
_cell_angle_alpha 90.000000
_cell_angle_beta 90.000000
_cell_angle_gamma 90.000000
_cell_volume 5398.052129
_symmetry_space_group_name_H-M "I M M M"
_symmetry_group_IT_number 71
_symmetry_cell_setting 'orthorhombic'
loop_
_space_group_symop_operation_xyz
x,y,z
-x,-y,z
x,-y,-z
-x,y,-z
-x,-y,-z
x,y,-z
-x,y,z
x,-y,z
1/2+x,1/2+y,1/2+z
1/2-x,1/2-y,1/2+z
1/2+x,1/2-y,1/2-z
1/2-x,1/2+y,1/2-z
1/2-x,1/2-y,1/2-z
1/2+x,1/2+y,1/2-z
1/2-x,1/2+y,1/2+z
1/2+x,1/2-y,1/2+z
loop_
_atom_site_type_symbol
_atom_site_label
_atom_site_fract_x
_atom_site_fract_y
_atom_site_fract_z
Si Si1 0.653186 0.361050 0.322442
Si Si2 0.441707 0.563317 0.323002
Si Si3 0.149719 0.370623 0.674588
Si Si4 0.193225 0.248709 0.324292
Si Si5 0.749845 0.436712 0.322694
Si Si6 0.059519 0.436189 0.175551
O O1 0.653818 0.352304 0.500000
O O2 0.600086 0.391011 0.264150
O O3 0.657469 0.300885 0.242257
O O4 0.701087 0.399806 0.267156
O O5 0.439051 0.561636 0.500000
O O6 0.500000 0.581282 0.269721
O O7 0.428296 0.500000 0.262932
O O8 0.143986 0.379989 0.500000
O O9 0.161839 0.305744 0.713967
O O10 0.196913 0.409017 0.738694
O O11 0.095799 0.389262 0.749232
O O12 0.201228 0.241226 0.500000
O O13 0.250000 0.250000 0.250000
O O14 0.750169 0.437834 0.500000
O O15 0.744686 0.500000 0.257295
O O16 0.075041 0.500000 0.227088
O O17 0.000000 0.423268 0.224045
O O18 0.065573 0.430987 0.000000
#
# Coordination Sequence:
#
# PCOD8287812 Si02
#       6
#    16  16  16  16  16  16
#     4  10  18  31  51  76 105 138 173 211 259 308
#     4   8  14  26  48  79 109 136 172 217 258 299
#     4  10  20  34  52  75 102 134 177 217 251 300
#     4  11  22  37  54  74 102 138 177 216 256 304
#     4   9  16  27  46  73 102 130 164 209 257 305
#     4   9  19  36  56  79 108 138 167 205 258 314
#
# _framework density 17.784193999999999
#
# number of rings (size 3 to 8) (size 9 to 14) (size 15 to 20)
#    0.000    2.500    1.667    2.500    0.000    4.667 
#    0.000    1.667    0.000    5.500    0.000    1.167 
#    0.000    0.000    0.000    0.000    0.000    0.000 
#
# Total GULP energy -595129.575130 kJ/mol
# GULP energy per Si atom -12398.532815 kJ/mol
# Density = 1.774372 g / cm^3
# Si number density = 17.784194 Si / 1000 Ang^3
#
#
#
# Elastic Constant Matrix: (Units=GPa)
#
#
# Indices 1 2 3 4 5 6 
#
# 1 147.3474 88.9869 38.0605 0.0000 0.0000 0.0000
# 2 88.9869 150.7263 44.1707 0.0000 0.0000 0.0000
# 3 38.0605 44.1707 37.3113 0.0000 0.0000 0.0000
# 4 0.0000 0.0000 0.0000 27.6227 0.0000 0.0000
# 5 0.0000 0.0000 0.0000 0.0000 19.7302 0.0000
# 6 0.0000 0.0000 0.0000 0.0000 0.0000 31.7247
#
#
#
# Elastic Compliance Matrix: (Units=1/GPa)
#
#
# Indices 1 2 3 4 5 6 
#
# 1 0.011246 -0.005019 -0.005530 0.000000 0.000000 0.000000
# 2 -0.005019 0.012399 -0.009559 0.000000 0.000000 0.000000
# 3 -0.005530 -0.009559 0.043759 0.000000 0.000000 0.000000
# 4 0.000000 0.000000 0.000000 0.036202 0.000000 0.000000
# 5 0.000000 0.000000 0.000000 0.000000 0.050684 0.000000
# 6 0.000000 0.000000 0.000000 0.000000 0.000000 0.031521
#
#
# Mechanical properties :
#
#
# Convention : Reuss Voigt Hill
#
# Bulk Modulus (GPa) = 36.78081 75.31348 56.04714
# Shear Modulus (GPa) = 21.26847 26.75996 24.01422
#
# Velocity S-wave (km/s) = 3.46196 3.88326 3.67865
# Velocity P-wave (km/s) = 6.05862 7.90865 7.04463
#
# Compressibility (1/GPa) = 0.02718809
#
# Stress axis : x y z
#
# Youngs Moduli (GPa) = 88.91811 80.65286 22.85249
#
# Poissons Ratio (x) = 0.40479 0.12639
# Poissons Ratio (y) = 0.44628 0.21844
# Poissons Ratio (z) = 0.49176 0.77092
#
# Static dielectric constant tensor:
#      x y z
#    x 3.469120 0.000000 0.000000 
#    y 0.000000 3.499940 0.000000 
#    z 0.000000 0.000000 2.901430 
# 
# 
# High freq. dielectric constant tensor:
#      x y z
#    x 1.693010 0.000000 0.000000 
#    y 0.000000 1.693960 0.000000 
#    z 0.000000 0.000000 1.649360 
# 
# From -- ./inp_files/10875.got.cif
#   From: 2010.06.25/outbox.cif.g09.slc.cpg/sg71_6_cif.got.tgz:10875.got - 2010.06.28 04:59:45.
