data_PCOD8287072
_publ_section_title
;
Structure prediction by ZEFSAII (Michael W. Deem and Ramdas Pophale) SiO2 
 PCOD8287072
Probable space group: I M M M
;
_chemical_formula_sum "Si O2"
_cell_formula_units_Z 76
_cell_length_a 30.848267
_cell_length_b 11.687284
_cell_length_c 12.106142
_cell_angle_alpha 90.000000
_cell_angle_beta 90.000000
_cell_angle_gamma 90.000000
_cell_volume 4364.657124
_symmetry_space_group_name_H-M "I M M M"
_symmetry_group_IT_number 71
_symmetry_cell_setting 'orthorhombic'
loop_
_space_group_symop_operation_xyz
x,y,z
-x,-y,z
x,-y,-z
-x,y,-z
-x,-y,-z
x,y,-z
-x,y,z
x,-y,z
1/2+x,1/2+y,1/2+z
1/2-x,1/2-y,1/2+z
1/2+x,1/2-y,1/2-z
1/2-x,1/2+y,1/2-z
1/2-x,1/2-y,1/2-z
1/2+x,1/2+y,1/2-z
1/2-x,1/2+y,1/2+z
1/2+x,1/2-y,1/2+z
loop_
_atom_site_type_symbol
_atom_site_label
_atom_site_fract_x
_atom_site_fract_y
_atom_site_fract_z
Si Si1 0.670107 0.000000 0.729202
Si Si2 0.700845 0.372653 0.000000
Si Si3 0.300353 0.757943 0.221237
Si Si4 0.419580 0.000000 0.373119
Si Si5 0.546983 0.753620 0.628778
Si Si6 0.283262 0.000000 0.500000
Si Si7 0.867612 0.868070 0.130846
O O1 0.686741 0.889863 0.795389
O O2 0.687587 0.000000 0.606092
O O3 0.618625 0.000000 0.716659
O O4 0.686584 0.305203 0.108648
O O5 0.679189 0.500000 0.000000
O O6 0.753162 0.386308 0.000000
O O7 0.250000 0.750000 0.250000
O O8 0.327381 0.701289 0.320101
O O9 0.448174 0.111445 0.350082
O O10 0.402262 0.000000 0.500000
O O11 0.546300 0.726165 0.500000
O O12 0.500000 0.716451 0.679445
O O13 0.587135 0.682237 0.679882
O O14 0.864060 0.000000 0.165088
O O15 0.865268 0.850603 0.000000
#
# Coordination Sequence:
#
# PCOD8287072 Si02
#       7
#     8   8  16   8  16   4  16
#     4  12  22  34  58  83 113 150 185 232 277 334
#     4  10  22  41  57  74 107 148 193 233 278 323
#     4  12  24  37  57  80 110 148 193 234 276 330
#     4  10  17  28  49  79 113 147 180 217 271 334
#     4   9  17  30  50  77 110 145 180 220 272 337
#     4  10  20  36  54  82 105 150 189 216 288 326
#     4  10  22  36  53  80 113 148 188 232 279 332
#
# _framework density 17.412593000000001
#
# number of rings (size 3 to 8) (size 9 to 14) (size 15 to 20)
#    0.316    1.263    4.737    0.947    4.421    2.105 
#    0.000    2.105    0.000    0.000    0.000    0.737 
#    0.000    4.211    0.000    0.000    0.000    0.000 
#
# Total GULP energy -471080.431568 kJ/mol
# GULP energy per Si atom -12396.853462 kJ/mol
# Density = 1.737296 g / cm^3
# Si number density = 17.412593 Si / 1000 Ang^3
#
#
#
# Elastic Constant Matrix: (Units=GPa)
#
#
# Indices 1 2 3 4 5 6 
#
# 1 131.3413 46.5462 16.5973 0.0000 0.0000 0.0000
# 2 46.5462 137.6541 35.5299 0.0000 0.0000 0.0000
# 3 16.5973 35.5299 51.8874 0.0000 0.0000 0.0000
# 4 0.0000 0.0000 0.0000 6.8980 0.0000 0.0000
# 5 0.0000 0.0000 0.0000 0.0000 13.6611 0.0000
# 6 0.0000 0.0000 0.0000 0.0000 0.0000 17.2916
#
#
#
# Elastic Compliance Matrix: (Units=1/GPa)
#
#
# Indices 1 2 3 4 5 6 
#
# 1 0.008687 -0.002697 -0.000932 0.000000 0.000000 0.000000
# 2 -0.002697 0.009661 -0.005753 0.000000 0.000000 0.000000
# 3 -0.000932 -0.005753 0.023510 0.000000 0.000000 0.000000
# 4 0.000000 0.000000 0.000000 0.144970 0.000000 0.000000
# 5 0.000000 0.000000 0.000000 0.000000 0.073201 0.000000
# 6 0.000000 0.000000 0.000000 0.000000 0.000000 0.057832
#
#
# Mechanical properties :
#
#
# Convention : Reuss Voigt Hill
#
# Bulk Modulus (GPa) = 43.29995 57.58106 50.44051
# Shear Modulus (GPa) = 14.52123 22.38408 18.45265
#
# Velocity S-wave (km/s) = 2.89095 3.58929 3.25888
# Velocity P-wave (km/s) = 6.00537 7.09350 6.57200
#
# Compressibility (1/GPa) = 0.02309471
#
# Stress axis : x y z
#
# Youngs Moduli (GPa) = 115.11043 103.50445 42.53504
#
# Poissons Ratio (x) = 0.27914 0.03965
# Poissons Ratio (y) = 0.31044 0.24470
# Poissons Ratio (z) = 0.10730 0.59546
#
# Static dielectric constant tensor:
#      x y z
#    x 3.393030 0.000000 0.000000 
#    y 0.000000 3.405790 0.000000 
#    z 0.000000 0.000000 2.843880 
# 
# 
# High freq. dielectric constant tensor:
#      x y z
#    x 1.676470 0.000000 0.000000 
#    y 0.000000 1.687380 0.000000 
#    z 0.000000 0.000000 1.619570 
# 
# From -- ./inp_files/29727.got.cif
#   From: 2010.06.25/outbox.cif.g09.slc.cpg/sg71_15_cif.got.tgz:29727.got - 2010.06.28 04:59:45.
