data_PCOD8287796
_publ_section_title
;
Structure prediction by ZEFSAII (Michael W. Deem and Ramdas Pophale) SiO2 
 PCOD8287796
Probable space group: I M M M
;
_chemical_formula_sum "Si O2"
_cell_formula_units_Z 96
_cell_length_a 23.585645
_cell_length_b 9.130527
_cell_length_c 25.220470
_cell_angle_alpha 90.000000
_cell_angle_beta 90.000000
_cell_angle_gamma 90.000000
_cell_volume 5431.212287
_symmetry_space_group_name_H-M "I M M M"
_symmetry_group_IT_number 71
_symmetry_cell_setting 'orthorhombic'
loop_
_space_group_symop_operation_xyz
x,y,z
-x,-y,z
x,-y,-z
-x,y,-z
-x,-y,-z
x,y,-z
-x,y,z
x,-y,z
1/2+x,1/2+y,1/2+z
1/2-x,1/2-y,1/2+z
1/2+x,1/2-y,1/2-z
1/2-x,1/2+y,1/2-z
1/2-x,1/2-y,1/2-z
1/2+x,1/2+y,1/2-z
1/2-x,1/2+y,1/2+z
1/2+x,1/2-y,1/2+z
loop_
_atom_site_type_symbol
_atom_site_label
_atom_site_fract_x
_atom_site_fract_y
_atom_site_fract_z
Si Si1 0.865891 0.829613 0.908298
Si Si2 0.433570 0.171787 0.500000
Si Si3 0.738513 0.839438 0.559090
Si Si4 0.938271 0.328350 0.500000
Si Si5 0.180202 0.829101 0.800144
Si Si6 0.347093 0.830298 0.917214
Si Si7 0.808925 0.668386 0.303281
O O1 0.801037 0.785833 0.917144
O O2 0.868704 0.796361 0.844814
O O3 0.875431 0.000000 0.921353
O O4 0.908377 0.738139 0.945421
O O5 0.500000 0.206322 0.500000
O O6 0.420732 0.000000 0.500000
O O7 0.716702 0.864880 0.500000
O O8 0.801378 0.777510 0.557940
O O9 0.735213 0.000000 0.587973
O O10 0.946984 0.500000 0.500000
O O11 0.905429 0.284240 0.445927
O O12 0.000000 0.250603 0.500000
O O13 0.162097 0.752136 0.745670
O O14 0.244475 0.775356 0.815812
O O15 0.182416 0.000000 0.789625
O O16 0.349188 0.804210 0.854019
O O17 0.331771 0.000000 0.929672
O O18 0.807189 0.500000 0.287209
#
# Coordination Sequence:
#
# PCOD8287796 Si02
#       7
#    16   8  16   8  16  16  16
#     4  11  21  35  56  78 105 138 175 211 253 310
#     4  11  25  42  57  78 107 136 172 219 268 313
#     4  11  21  30  45  75 109 136 168 205 257 315
#     4   9  18  31  51  76  97 126 170 217 260 297
#     4   9  18  31  47  73 105 136 170 205 247 301
#     4  10  18  31  51  72 102 138 172 211 256 309
#     4   9  17  29  45  71 104 139 174 204 248 305
#
# _framework density 17.675612000000001
#
# number of rings (size 3 to 8) (size 9 to 14) (size 15 to 20)
#    0.000    2.000    3.333    1.250    0.000    3.333 
#    0.000    0.000    0.000    2.000    0.000    2.333 
#    0.000    0.000    0.000    0.000    0.000    0.000 
#
# Total GULP energy -594689.109480 kJ/mol
# GULP energy per Si atom -12389.356447 kJ/mol
# Density = 1.763538 g / cm^3
# Si number density = 17.675612 Si / 1000 Ang^3
#
#
#
# Elastic Constant Matrix: (Units=GPa)
#
#
# Indices 1 2 3 4 5 6 
#
# 1 84.6825 31.8360 51.1873 0.0000 0.0000 0.0000
# 2 31.8360 64.4400 48.3769 0.0000 0.0000 0.0000
# 3 51.1873 48.3769 140.2432 0.0000 0.0000 0.0000
# 4 0.0000 0.0000 0.0000 29.0214 0.0000 0.0000
# 5 0.0000 0.0000 0.0000 0.0000 12.0547 0.0000
# 6 0.0000 0.0000 0.0000 0.0000 0.0000 14.7660
#
#
#
# Elastic Compliance Matrix: (Units=1/GPa)
#
#
# Indices 1 2 3 4 5 6 
#
# 1 0.016184 -0.004805 -0.004249 0.000000 0.000000 0.000000
# 2 -0.004805 0.022368 -0.005962 0.000000 0.000000 0.000000
# 3 -0.004249 -0.005962 0.010738 0.000000 0.000000 0.000000
# 4 0.000000 0.000000 0.000000 0.034457 0.000000 0.000000
# 5 0.000000 0.000000 0.000000 0.000000 0.082955 0.000000
# 6 0.000000 0.000000 0.000000 0.000000 0.000000 0.067723
#
#
# Mechanical properties :
#
#
# Convention : Reuss Voigt Hill
#
# Bulk Modulus (GPa) = 51.93001 61.35177 56.64089
# Shear Modulus (GPa) = 18.45849 21.69947 20.07898
#
# Velocity S-wave (km/s) = 3.23506 3.50758 3.37407
# Velocity P-wave (km/s) = 6.58767 7.15468 6.87702
#
# Compressibility (1/GPa) = 0.01925669
#
# Stress axis : x y z
#
# Youngs Moduli (GPa) = 61.78960 44.70627 93.12709
#
# Poissons Ratio (x) = 0.21483 0.39573
# Poissons Ratio (y) = 0.29693 0.55522
# Poissons Ratio (z) = 0.26256 0.26654
#
# Static dielectric constant tensor:
#      x y z
#    x 3.057210 0.000000 0.000000 
#    y 0.000000 3.345620 0.000000 
#    z 0.000000 0.000000 3.467010 
# 
# 
# High freq. dielectric constant tensor:
#      x y z
#    x 1.634430 0.000000 0.000000 
#    y 0.000000 1.682610 0.000000 
#    z 0.000000 0.000000 1.693770 
# 
# From -- ./inp_files/66744.got.cif
#   From: 2010.06.25/outbox.cif.g09.slc.cpg/sg71_34_cif.got.tgz:66744.got - 2010.06.28 04:59:45.
