data_PCOD8287051
_publ_section_title
;
Structure prediction by ZEFSAII (Michael W. Deem and Ramdas Pophale) SiO2 
 PCOD8287051
Probable space group: I M M M
;
_chemical_formula_sum "Si O2"
_cell_formula_units_Z 120
_cell_length_a 22.672914
_cell_length_b 14.035419
_cell_length_c 24.227428
_cell_angle_alpha 90.000000
_cell_angle_beta 90.000000
_cell_angle_gamma 90.000000
_cell_volume 7709.745364
_symmetry_space_group_name_H-M "I M M M"
_symmetry_group_IT_number 71
_symmetry_cell_setting 'orthorhombic'
loop_
_space_group_symop_operation_xyz
x,y,z
-x,-y,z
x,-y,-z
-x,y,-z
-x,-y,-z
x,y,-z
-x,y,z
x,-y,z
1/2+x,1/2+y,1/2+z
1/2-x,1/2-y,1/2+z
1/2+x,1/2-y,1/2-z
1/2-x,1/2+y,1/2-z
1/2-x,1/2-y,1/2-z
1/2+x,1/2+y,1/2-z
1/2-x,1/2+y,1/2+z
1/2+x,1/2-y,1/2+z
loop_
_atom_site_type_symbol
_atom_site_label
_atom_site_fract_x
_atom_site_fract_y
_atom_site_fract_z
Si Si1 0.243538 0.693855 0.853613
Si Si2 0.661517 0.110913 0.564075
Si Si3 0.347464 0.891998 0.731409
Si Si4 0.567852 0.741148 0.401546
Si Si5 0.337598 0.607662 0.780399
Si Si6 0.746177 0.103727 0.181019
Si Si7 0.567459 0.268731 0.275824
Si Si8 0.430201 0.393584 0.500000
O O1 0.224027 0.647684 0.911524
O O2 0.194069 0.667209 0.809213
O O3 0.307201 0.655828 0.834000
O O4 0.245176 0.808933 0.861137
O O5 0.662224 0.134142 0.500000
O O6 0.606609 0.163815 0.592629
O O7 0.653684 0.000000 0.576561
O O8 0.318858 0.890091 0.792182
O O9 0.410363 0.839621 0.732960
O O10 0.355244 0.000000 0.709871
O O11 0.500000 0.769198 0.413709
O O12 0.574819 0.699524 0.339848
O O13 0.590696 0.661735 0.444866
O O14 0.353621 0.500000 0.796114
O O15 0.292902 0.612952 0.729926
O O16 0.397401 0.660706 0.764231
O O17 0.753564 0.000000 0.151451
O O18 0.500000 0.272990 0.257299
O O19 0.402469 0.500000 0.500000
O O20 0.500000 0.401713 0.500000
#
# Coordination Sequence:
#
# PCOD8287051 Si02
#       8
#    16  16  16  16  16  16  16   8
#     4  11  17  32  51  67  90 120 156 193 238 287
#     4  11  22  33  48  69  93 120 156 204 246 278
#     4  10  17  28  46  68  91 121 156 188 225 272
#     4  10  20  33  48  65  90 123 162 202 237 278
#     4  10  18  30  47  67  89 120 157 191 234 287
#     4   9  16  27  50  72  86 112 153 191 224 274
#     4  11  21  31  44  68  99 127 155 195 236 276
#     4   9  18  34  51  61  75 115 170 210 242 275
#
# _framework density 15.564716000000001
#
# number of rings (size 3 to 8) (size 9 to 14) (size 15 to 20)
#    0.000    1.800    4.667    2.800    0.000    1.333 
#    0.000    4.000    0.000    0.000    0.000    0.000 
#    0.000    0.533    0.000    2.800    0.000    4.267 
#
# Total GULP energy -743816.422245 kJ/mol
# GULP energy per Si atom -12396.940371 kJ/mol
# Density = 1.552929 g / cm^3
# Si number density = 15.564716 Si / 1000 Ang^3
#
#
#
# Elastic Constant Matrix: (Units=GPa)
#
#
# Indices 1 2 3 4 5 6 
#
# 1 91.5466 43.4851 33.5693 0.0000 0.0000 0.0000
# 2 43.4851 123.7694 22.4537 0.0000 0.0000 0.0000
# 3 33.5693 22.4537 31.2562 0.0000 0.0000 0.0000
# 4 0.0000 0.0000 0.0000 17.8910 0.0000 0.0000
# 5 0.0000 0.0000 0.0000 0.0000 19.3047 0.0000
# 6 0.0000 0.0000 0.0000 0.0000 0.0000 17.0001
#
#
#
# Elastic Compliance Matrix: (Units=1/GPa)
#
#
# Indices 1 2 3 4 5 6 
#
# 1 0.019228 -0.003460 -0.018165 0.000000 0.000000 0.000000
# 2 -0.003460 0.009913 -0.003405 0.000000 0.000000 0.000000
# 3 -0.018165 -0.003405 0.053949 0.000000 0.000000 0.000000
# 4 0.000000 0.000000 0.000000 0.055894 0.000000 0.000000
# 5 0.000000 0.000000 0.000000 0.000000 0.051801 0.000000
# 6 0.000000 0.000000 0.000000 0.000000 0.000000 0.058823
#
#
# Mechanical properties :
#
#
# Convention : Reuss Voigt Hill
#
# Bulk Modulus (GPa) = 30.27606 49.50979 39.89293
# Shear Modulus (GPa) = 16.09378 20.64343 18.36861
#
# Velocity S-wave (km/s) = 3.21906 3.64579 3.43905
# Velocity P-wave (km/s) = 5.77152 7.04275 6.43859
#
# Compressibility (1/GPa) = 0.03302940
#
# Stress axis : x y z
#
# Youngs Moduli (GPa) = 52.00746 100.87821 18.53591
#
# Poissons Ratio (x) = 0.34905 0.33671
# Poissons Ratio (y) = 0.17995 0.06312
# Poissons Ratio (z) = 0.94473 0.34350
#
# Static dielectric constant tensor:
#      x y z
#    x 2.924470 0.000000 0.000000 
#    y 0.000000 3.259490 0.000000 
#    z 0.000000 0.000000 2.808840 
# 
# 
# High freq. dielectric constant tensor:
#      x y z
#    x 1.574200 0.000000 0.000000 
#    y 0.000000 1.614630 0.000000 
#    z 0.000000 0.000000 1.554420 
# 
# From -- ./inp_files/61414.got.cif
#   From: 2010.06.25/outbox.cif.g09.slc.cpg/sg71_31_cif.got.tgz:61414.got - 2010.06.28 04:59:45.
