data_PCOD8287726
_publ_section_title
;
Structure prediction by ZEFSAII (Michael W. Deem and Ramdas Pophale) SiO2 
 PCOD8287726
Probable space group: I M M M
;
_chemical_formula_sum "Si O2"
_cell_formula_units_Z 72
_cell_length_a 20.073834
_cell_length_b 8.933224
_cell_length_c 21.312155
_cell_angle_alpha 90.000000
_cell_angle_beta 90.000000
_cell_angle_gamma 90.000000
_cell_volume 3821.782069
_symmetry_space_group_name_H-M "I M M M"
_symmetry_group_IT_number 71
_symmetry_cell_setting 'orthorhombic'
loop_
_space_group_symop_operation_xyz
x,y,z
-x,-y,z
x,-y,-z
-x,y,-z
-x,-y,-z
x,y,-z
-x,y,z
x,-y,z
1/2+x,1/2+y,1/2+z
1/2-x,1/2-y,1/2+z
1/2+x,1/2-y,1/2-z
1/2-x,1/2+y,1/2-z
1/2-x,1/2-y,1/2-z
1/2+x,1/2+y,1/2-z
1/2-x,1/2+y,1/2+z
1/2+x,1/2-y,1/2+z
loop_
_atom_site_type_symbol
_atom_site_label
_atom_site_fract_x
_atom_site_fract_y
_atom_site_fract_z
Si Si1 0.390258 0.328869 0.572394
Si Si2 0.500000 0.824868 0.348363
Si Si3 0.000000 0.178372 0.286072
Si Si4 0.423837 0.674239 0.000000
Si Si5 0.763149 0.675497 0.571295
Si Si6 0.876255 0.822061 0.631070
O O1 0.409564 0.306661 0.500000
O O2 0.404664 0.500000 0.592588
O O3 0.434180 0.217887 0.613589
O O4 0.313772 0.287094 0.584065
O O5 0.500000 0.736717 0.283565
O O6 0.500000 0.000000 0.334552
O O7 0.931637 0.236954 0.319622
O O8 0.000000 0.000000 0.288413
O O9 0.396116 0.744893 0.936684
O O10 0.407774 0.500000 0.000000
O O11 0.500000 0.709361 0.000000
O O12 0.781625 0.734270 0.500000
O O13 0.775667 0.500000 0.573845
O O14 0.801820 0.752222 0.631138
O O15 0.872535 0.000000 0.635416
#
# Coordination Sequence:
#
# PCOD8287726 Si02
#       6
#    16   8   8   8  16  16
#     4   9  19  38  63  86 109 140 174 210 264 335
#     4  12  25  39  57  82 109 136 175 231 280 316
#     4  10  22  38  55  75 105 152 198 223 256 319
#     4   9  14  24  45  75 107 136 175 224 265 303
#     4   9  18  32  52  82 116 144 171 211 268 327
#     4  10  18  30  52  79 108 144 185 227 264 306
#
# _framework density 18.839378
#
# number of rings (size 3 to 8) (size 9 to 14) (size 15 to 20)
#    0.000    2.333    2.222    2.667    0.000    3.556 
#    0.000    3.333    0.000    2.000    0.000    0.000 
#    0.000    0.000    0.000    0.000    0.000    0.000 
#
# Total GULP energy -445982.475287 kJ/mol
# GULP energy per Si atom -12388.402091 kJ/mol
# Density = 1.879650 g / cm^3
# Si number density = 18.839378 Si / 1000 Ang^3
#
#
#
# Elastic Constant Matrix: (Units=GPa)
#
#
# Indices 1 2 3 4 5 6 
#
# 1 114.2052 30.4371 47.8994 0.0000 0.0000 0.0000
# 2 30.4371 27.6161 14.4294 0.0000 0.0000 0.0000
# 3 47.8994 14.4294 80.6718 0.0000 0.0000 0.0000
# 4 0.0000 0.0000 0.0000 24.4765 0.0000 0.0000
# 5 0.0000 0.0000 0.0000 0.0000 51.4458 0.0000
# 6 0.0000 0.0000 0.0000 0.0000 0.0000 28.4695
#
#
#
# Elastic Compliance Matrix: (Units=1/GPa)
#
#
# Indices 1 2 3 4 5 6 
#
# 1 0.015001 -0.013105 -0.006563 0.000000 0.000000 0.000000
# 2 -0.013105 0.051391 -0.001411 0.000000 0.000000 0.000000
# 3 -0.006563 -0.001411 0.016545 0.000000 0.000000 0.000000
# 4 0.000000 0.000000 0.000000 0.040856 0.000000 0.000000
# 5 0.000000 0.000000 0.000000 0.000000 0.019438 0.000000
# 6 0.000000 0.000000 0.000000 0.000000 0.000000 0.035125
#
#
# Mechanical properties :
#
#
# Convention : Reuss Voigt Hill
#
# Bulk Modulus (GPa) = 24.52182 45.33611 34.92896
# Shear Modulus (GPa) = 21.35764 29.52682 25.44223
#
# Velocity S-wave (km/s) = 3.37065 3.96320 3.67888
# Velocity P-wave (km/s) = 5.30970 6.71263 6.05196
#
# Compressibility (1/GPa) = 0.04078001
#
# Stress axis : x y z
#
# Youngs Moduli (GPa) = 66.66038 19.45852 60.44014
#
# Poissons Ratio (x) = 0.25500 0.39668
# Poissons Ratio (y) = 0.87355 0.08530
# Poissons Ratio (z) = 0.43751 0.02746
#
# Static dielectric constant tensor:
#      x y z
#    x 3.772060 0.000000 0.000000 
#    y 0.000000 3.129140 0.000000 
#    z 0.000000 0.000000 3.337130 
# 
# 
# High freq. dielectric constant tensor:
#      x y z
#    x 1.752000 0.000000 0.000000 
#    y 0.000000 1.705330 0.000000 
#    z 0.000000 0.000000 1.709150 
# 
# From -- ./inp_files/54699.got.cif
#   From: 2010.06.25/outbox.cif.g09.slc.cpg/sg71_28_cif.got.tgz:54699.got - 2010.06.28 04:59:45.
