data_PCOD8287069
_publ_section_title
;
Structure prediction by ZEFSAII (Michael W. Deem and Ramdas Pophale) SiO2 
 PCOD8287069
Probable space group: I M M M
;
_chemical_formula_sum "Si O2"
_cell_formula_units_Z 120
_cell_length_a 20.295776
_cell_length_b 26.992445
_cell_length_c 12.254268
_cell_angle_alpha 90.000000
_cell_angle_beta 90.000000
_cell_angle_gamma 90.000000
_cell_volume 6713.287713
_symmetry_space_group_name_H-M "I M M M"
_symmetry_group_IT_number 71
_symmetry_cell_setting 'orthorhombic'
loop_
_space_group_symop_operation_xyz
x,y,z
-x,-y,z
x,-y,-z
-x,y,-z
-x,-y,-z
x,y,-z
-x,y,z
x,-y,z
1/2+x,1/2+y,1/2+z
1/2-x,1/2-y,1/2+z
1/2+x,1/2-y,1/2-z
1/2-x,1/2+y,1/2-z
1/2-x,1/2-y,1/2-z
1/2+x,1/2+y,1/2-z
1/2-x,1/2+y,1/2+z
1/2+x,1/2-y,1/2+z
loop_
_atom_site_type_symbol
_atom_site_label
_atom_site_fract_x
_atom_site_fract_y
_atom_site_fract_z
Si Si1 0.225792 0.945688 0.189930
Si Si2 0.073710 0.847402 0.241257
Si Si3 0.414008 0.554297 0.620432
Si Si4 0.174198 0.779449 0.126492
Si Si5 0.924295 0.500000 0.628862
Si Si6 0.854383 0.599523 0.623846
Si Si7 0.306533 0.626025 0.125545
Si Si8 0.202184 0.316020 0.251492
O O1 0.164389 0.946221 0.110062
O O2 0.277460 0.912867 0.124753
O O3 0.203787 0.923998 0.306395
O O4 0.255584 0.000000 0.210877
O O5 0.060616 0.903103 0.199878
O O6 0.112202 0.815653 0.149289
O O7 0.122809 0.848427 0.345710
O O8 0.000000 0.825760 0.268538
O O9 0.442640 0.563800 0.500000
O O10 0.437690 0.500000 0.663522
O O11 0.164996 0.731834 0.204697
O O12 0.245284 0.804094 0.152235
O O13 0.172579 0.764439 0.000000
O O14 0.912329 0.500000 0.500000
O O15 0.893533 0.551836 0.673790
O O16 0.000000 0.500000 0.662989
O O17 0.878110 0.611486 0.500000
O O18 0.856844 0.648269 0.701738
O O19 0.244700 0.661520 0.151773
O O20 0.306280 0.611893 0.000000
#
# Coordination Sequence:
#
# PCOD8287069 Si02
#       8
#    16  16  16  16   8  16  16  16
#     4   9  16  26  43  71  99 121 158 201 241 291
#     4  10  21  34  48  69  95 126 168 205 237 293
#     4   9  17  28  44  67  96 125 152 193 246 292
#     4  10  19  33  52  72  99 130 160 207 262 307
#     4   9  18  30  46  72 105 143 176 199 239 303
#     4  10  17  28  49  74 103 136 166 202 249 302
#     4   9  18  32  49  67  93 126 157 199 249 293
#     4   9  19  32  50  77  99 122 165 211 256 309
#
# _framework density 17.874997
#
# number of rings (size 3 to 8) (size 9 to 14) (size 15 to 20)
#    0.000    2.600    0.667    2.400    0.000    2.400 
#    0.000    2.000    0.000    0.000    0.000    3.733 
#    0.000   18.133    0.000    0.000    0.000    0.000 
#
# Total GULP energy -743303.201652 kJ/mol
# GULP energy per Si atom -12388.386694 kJ/mol
# Density = 1.783431 g / cm^3
# Si number density = 17.874997 Si / 1000 Ang^3
#
#
#
# Elastic Constant Matrix: (Units=GPa)
#
#
# Indices 1 2 3 4 5 6 
#
# 1 62.9528 25.3236 16.1325 0.0000 0.0000 0.0000
# 2 25.3236 105.1116 25.7969 0.0000 0.0000 0.0000
# 3 16.1325 25.7969 74.7849 0.0000 0.0000 0.0000
# 4 0.0000 0.0000 0.0000 19.9625 0.0000 0.0000
# 5 0.0000 0.0000 0.0000 0.0000 16.5647 0.0000
# 6 0.0000 0.0000 0.0000 0.0000 0.0000 7.6766
#
#
#
# Elastic Compliance Matrix: (Units=1/GPa)
#
#
# Indices 1 2 3 4 5 6 
#
# 1 0.018046 -0.003706 -0.002614 0.000000 0.000000 0.000000
# 2 -0.003706 0.011155 -0.003048 0.000000 0.000000 0.000000
# 3 -0.002614 -0.003048 0.014987 0.000000 0.000000 0.000000
# 4 0.000000 0.000000 0.000000 0.050094 0.000000 0.000000
# 5 0.000000 0.000000 0.000000 0.000000 0.060369 0.000000
# 6 0.000000 0.000000 0.000000 0.000000 0.000000 0.130265
#
#
# Mechanical properties :
#
#
# Convention : Reuss Voigt Hill
#
# Bulk Modulus (GPa) = 39.29260 41.92838 40.61049
# Shear Modulus (GPa) = 16.01861 20.54719 18.28290
#
# Velocity S-wave (km/s) = 2.99682 3.39410 3.20162
# Velocity P-wave (km/s) = 5.83131 6.23436 6.03620
#
# Compressibility (1/GPa) = 0.02545009
#
# Stress axis : x y z
#
# Youngs Moduli (GPa) = 55.41498 89.64860 66.72373
#
# Poissons Ratio (x) = 0.33223 0.17445
# Poissons Ratio (y) = 0.20536 0.20340
# Poissons Ratio (z) = 0.14488 0.27328
#
# Static dielectric constant tensor:
#      x y z
#    x 3.204030 0.000000 0.000000 
#    y 0.000000 3.541430 0.000000 
#    z 0.000000 0.000000 2.941020 
# 
# 
# High freq. dielectric constant tensor:
#      x y z
#    x 1.676060 0.000000 0.000000 
#    y 0.000000 1.698970 0.000000 
#    z 0.000000 0.000000 1.657850 
# 
# From -- ./inp_files/26627.got.cif
#   From: 2010.06.25/outbox.cif.g09.slc.cpg/sg71_14_cif.got.tgz:26627.got - 2010.06.28 04:59:45.
