data_PCOD8287762
_publ_section_title
;
Structure prediction by ZEFSAII (Michael W. Deem and Ramdas Pophale) SiO2 
 PCOD8287762
Probable space group: I M M M
;
_chemical_formula_sum "Si O2"
_cell_formula_units_Z 112
_cell_length_a 28.678752
_cell_length_b 17.684937
_cell_length_c 13.782042
_cell_angle_alpha 90.000000
_cell_angle_beta 90.000000
_cell_angle_gamma 90.000000
_cell_volume 6990.002556
_symmetry_space_group_name_H-M "I M M M"
_symmetry_group_IT_number 71
_symmetry_cell_setting 'orthorhombic'
loop_
_space_group_symop_operation_xyz
x,y,z
-x,-y,z
x,-y,-z
-x,y,-z
-x,-y,-z
x,y,-z
-x,y,z
x,-y,z
1/2+x,1/2+y,1/2+z
1/2-x,1/2-y,1/2+z
1/2+x,1/2-y,1/2-z
1/2-x,1/2+y,1/2-z
1/2-x,1/2-y,1/2-z
1/2+x,1/2+y,1/2-z
1/2-x,1/2+y,1/2+z
1/2+x,1/2-y,1/2+z
loop_
_atom_site_type_symbol
_atom_site_label
_atom_site_fract_x
_atom_site_fract_y
_atom_site_fract_z
Si Si1 0.203399 0.318998 0.611969
Si Si2 0.945393 0.000000 0.395715
Si Si3 0.717784 0.083762 0.289044
Si Si4 0.945615 0.871226 0.749920
Si Si5 0.444716 0.500000 0.393377
Si Si6 0.859270 0.786926 0.277759
Si Si7 0.798400 0.733401 0.889103
Si Si8 0.815458 0.083069 0.389999
O O1 0.197108 0.342997 0.500000
O O2 0.216313 0.392547 0.675331
O O3 0.155221 0.284325 0.654855
O O4 0.243861 0.255418 0.624544
O O5 0.932939 0.922364 0.342288
O O6 0.919707 0.000000 0.500000
O O7 0.000000 0.000000 0.409158
O O8 0.692301 0.146928 0.355193
O O9 0.770184 0.079636 0.323995
O O10 0.694597 0.000000 0.300232
O O11 0.929489 0.922436 0.841257
O O12 0.914584 0.793701 0.747072
O O13 0.000000 0.847615 0.754763
O O14 0.500000 0.500000 0.395018
O O15 0.422293 0.500000 0.500000
O O16 0.830042 0.787225 0.177626
O O17 0.851179 0.861493 0.340323
O O18 0.814162 0.743414 0.000000
O O19 0.802540 0.109254 0.500000
O O20 0.839052 0.000000 0.391911
#
# Coordination Sequence:
#
# PCOD8287762 Si02
#       8
#    16   8  16  16   8  16  16  16
#     4  10  19  33  49  67  93 125 154 183 228 279
#     4   8  15  29  44  59  85 120 155 195 238 265
#     4  10  18  31  49  68  92 120 152 192 228 263
#     4   9  19  31  44  64  89 118 156 199 235 272
#     4   8  15  31  50  63  83 120 161 201 244 279
#     4  11  19  31  47  64  90 124 159 192 231 275
#     4  10  19  33  49  67  92 121 152 188 231 276
#     4  10  19  28  42  66  92 120 158 197 229 264
#
# _framework density 16.022884000000001
#
# number of rings (size 3 to 8) (size 9 to 14) (size 15 to 20)
#    0.000    2.286    2.857    2.571    2.000    2.857 
#    0.000    0.000    0.000    0.000    0.000    0.000 
#    0.000    9.143    0.000   10.286    0.000    0.000 
#
# Total GULP energy -693880.142291 kJ/mol
# GULP energy per Si atom -12390.716827 kJ/mol
# Density = 1.598642 g / cm^3
# Si number density = 16.022884 Si / 1000 Ang^3
#
#
#
# Elastic Constant Matrix: (Units=GPa)
#
#
# Indices 1 2 3 4 5 6 
#
# 1 60.4658 25.6227 20.7940 0.0000 0.0000 0.0000
# 2 25.6227 68.4437 26.9306 0.0000 0.0000 0.0000
# 3 20.7940 26.9306 117.0234 0.0000 0.0000 0.0000
# 4 0.0000 0.0000 0.0000 17.8004 0.0000 0.0000
# 5 0.0000 0.0000 0.0000 0.0000 10.3808 0.0000
# 6 0.0000 0.0000 0.0000 0.0000 0.0000 23.2868
#
#
#
# Elastic Compliance Matrix: (Units=1/GPa)
#
#
# Indices 1 2 3 4 5 6 
#
# 1 0.020082 -0.006723 -0.002021 0.000000 0.000000 0.000000
# 2 -0.006723 0.018316 -0.003020 0.000000 0.000000 0.000000
# 3 -0.002021 -0.003020 0.009600 0.000000 0.000000 0.000000
# 4 0.000000 0.000000 0.000000 0.056179 0.000000 0.000000
# 5 0.000000 0.000000 0.000000 0.000000 0.096332 0.000000
# 6 0.000000 0.000000 0.000000 0.000000 0.000000 0.042943
#
#
# Mechanical properties :
#
#
# Convention : Reuss Voigt Hill
#
# Bulk Modulus (GPa) = 40.86874 43.62527 42.24701
# Shear Modulus (GPa) = 18.17285 21.79930 19.98608
#
# Velocity S-wave (km/s) = 3.37141 3.69251 3.53561
# Velocity P-wave (km/s) = 6.38100 6.74281 6.56440
#
# Compressibility (1/GPa) = 0.02446858
#
# Stress axis : x y z
#
# Youngs Moduli (GPa) = 49.79549 54.59795 104.17131
#
# Poissons Ratio (x) = 0.36704 0.21056
# Poissons Ratio (y) = 0.33476 0.31464
# Poissons Ratio (z) = 0.10065 0.16491
#
# Static dielectric constant tensor:
#      x y z
#    x 2.752360 0.000000 0.000000 
#    y 0.000000 3.112170 0.000000 
#    z 0.000000 0.000000 5.481800 
# 
# 
# High freq. dielectric constant tensor:
#      x y z
#    x 1.579180 0.000000 0.000000 
#    y 0.000000 1.590200 0.000000 
#    z 0.000000 0.000000 1.632810 
# 
# From -- ./inp_files/41211.got.cif
#   From: 2010.06.25/outbox.cif.g09.slc.cpg/sg71_21_cif.got.tgz:41211.got - 2010.06.28 04:59:45.
