data_PCOD8287793
_publ_section_title
;
Structure prediction by ZEFSAII (Michael W. Deem and Ramdas Pophale) SiO2 
 PCOD8287793
Probable space group: I M M M
;
_chemical_formula_sum "Si O2"
_cell_formula_units_Z 88
_cell_length_a 23.138837
_cell_length_b 9.057170
_cell_length_c 24.459099
_cell_angle_alpha 90.000000
_cell_angle_beta 90.000000
_cell_angle_gamma 90.000000
_cell_volume 5125.951598
_symmetry_space_group_name_H-M "I M M M"
_symmetry_group_IT_number 71
_symmetry_cell_setting 'orthorhombic'
loop_
_space_group_symop_operation_xyz
x,y,z
-x,-y,z
x,-y,-z
-x,y,-z
-x,-y,-z
x,y,-z
-x,y,z
x,-y,z
1/2+x,1/2+y,1/2+z
1/2-x,1/2-y,1/2+z
1/2+x,1/2-y,1/2-z
1/2-x,1/2+y,1/2-z
1/2-x,1/2-y,1/2-z
1/2+x,1/2+y,1/2-z
1/2-x,1/2+y,1/2+z
1/2+x,1/2-y,1/2+z
loop_
_atom_site_type_symbol
_atom_site_label
_atom_site_fract_x
_atom_site_fract_y
_atom_site_fract_z
Si Si1 0.500000 0.328528 0.064365
Si Si2 0.934902 0.675667 0.855186
Si Si3 0.107191 0.674989 0.378798
Si Si4 0.064164 0.674636 0.265000
Si Si5 0.339431 0.174685 0.437798
Si Si6 0.222976 0.671717 0.562966
O O1 0.500000 0.500000 0.080102
O O2 0.443021 0.253860 0.088133
O O3 0.500000 0.303362 0.000000
O O4 0.934238 0.500000 0.857806
O O5 0.914712 0.731281 0.794679
O O6 0.890942 0.739647 0.900300
O O7 0.000000 0.732495 0.867552
O O8 0.098639 0.500000 0.385982
O O9 0.105540 0.723664 0.314800
O O10 0.168770 0.727383 0.401712
O O11 0.060880 0.500000 0.262408
O O12 0.000000 0.737168 0.277116
O O13 0.351999 0.224414 0.500000
O O14 0.279241 0.241224 0.416659
O O15 0.335021 0.000000 0.432917
O O16 0.209258 0.707676 0.500000
O O17 0.234849 0.500000 0.572201
#
# Coordination Sequence:
#
# PCOD8287793 Si02
#       6
#     8  16  16  16  16  16
#     4  11  23  33  43  67 101 127 148 187 242 282
#     4   8  14  25  44  71  97 117 145 188 233 276
#     4  10  18  31  51  70  87 117 164 201 224 264
#     4   8  13  24  44  69  91 113 147 191 234 268
#     4   9  17  29  46  68  93 122 153 186 228 278
#     4   9  18  31  46  64  88 120 155 192 231 268
#
# _framework density 17.167543999999999
#
# number of rings (size 3 to 8) (size 9 to 14) (size 15 to 20)
#    0.000    3.000    0.909    1.909    0.000    2.545 
#    0.000    4.545    0.000    1.636    0.000    2.545 
#    0.000    0.000    0.000    0.000    0.000    0.000 
#
# Total GULP energy -545345.616618 kJ/mol
# GULP energy per Si atom -12394.218560 kJ/mol
# Density = 1.712847 g / cm^3
# Si number density = 17.167544 Si / 1000 Ang^3
#
#
#
# Elastic Constant Matrix: (Units=GPa)
#
#
# Indices 1 2 3 4 5 6 
#
# 1 152.1288 29.8938 100.5245 0.0000 0.0000 0.0000
# 2 29.8938 22.5512 25.2802 0.0000 0.0000 0.0000
# 3 100.5245 25.2802 129.2813 0.0000 0.0000 0.0000
# 4 0.0000 0.0000 0.0000 11.7946 0.0000 0.0000
# 5 0.0000 0.0000 0.0000 0.0000 26.4740 0.0000
# 6 0.0000 0.0000 0.0000 0.0000 0.0000 22.2551
#
#
#
# Elastic Compliance Matrix: (Units=1/GPa)
#
#
# Indices 1 2 3 4 5 6 
#
# 1 0.014703 -0.008548 -0.009761 0.000000 0.000000 0.000000
# 2 -0.008548 0.061763 -0.005431 0.000000 0.000000 0.000000
# 3 -0.009761 -0.005431 0.016387 0.000000 0.000000 0.000000
# 4 0.000000 0.000000 0.000000 0.084785 0.000000 0.000000
# 5 0.000000 0.000000 0.000000 0.000000 0.037773 0.000000
# 6 0.000000 0.000000 0.000000 0.000000 0.000000 0.044934
#
#
# Mechanical properties :
#
#
# Convention : Reuss Voigt Hill
#
# Bulk Modulus (GPa) = 22.03953 68.37314 45.20633
# Shear Modulus (GPa) = 15.48239 21.98892 18.73566
#
# Velocity S-wave (km/s) = 3.00632 3.58277 3.30713
# Velocity P-wave (km/s) = 4.99164 7.55172 6.40097
#
# Compressibility (1/GPa) = 0.04537303
#
# Stress axis : x y z
#
# Youngs Moduli (GPa) = 68.01306 16.19102 61.02456
#
# Poissons Ratio (x) = 0.13840 0.59566
# Poissons Ratio (y) = 0.58138 0.33140
# Poissons Ratio (z) = 0.66388 0.08793
#
# Static dielectric constant tensor:
#      x y z
#    x 3.325700 0.000000 0.000000 
#    y 0.000000 2.822130 0.000000 
#    z 0.000000 0.000000 3.597780 
# 
# 
# High freq. dielectric constant tensor:
#      x y z
#    x 1.656830 0.000000 0.000000 
#    y 0.000000 1.620170 0.000000 
#    z 0.000000 0.000000 1.670580 
# 
# From -- ./inp_files/61119.got.cif
#   From: 2010.06.25/outbox.cif.g09.slc.cpg/sg71_31_cif.got.tgz:61119.got - 2010.06.28 04:59:45.
