data_PCOD8287076
_publ_section_title
;
Structure prediction by ZEFSAII (Michael W. Deem and Ramdas Pophale) SiO2 
 PCOD8287076
Probable space group: I M M M
;
_chemical_formula_sum "Si O2"
_cell_formula_units_Z 52
_cell_length_a 20.583137
_cell_length_b 18.599370
_cell_length_c 7.850337
_cell_angle_alpha 90.000000
_cell_angle_beta 90.000000
_cell_angle_gamma 90.000000
_cell_volume 3005.371054
_symmetry_space_group_name_H-M "I M M M"
_symmetry_group_IT_number 71
_symmetry_cell_setting 'orthorhombic'
loop_
_space_group_symop_operation_xyz
x,y,z
-x,-y,z
x,-y,-z
-x,y,-z
-x,-y,-z
x,y,-z
-x,y,z
x,-y,z
1/2+x,1/2+y,1/2+z
1/2-x,1/2-y,1/2+z
1/2+x,1/2-y,1/2-z
1/2-x,1/2+y,1/2-z
1/2-x,1/2-y,1/2-z
1/2+x,1/2+y,1/2-z
1/2-x,1/2+y,1/2+z
1/2+x,1/2-y,1/2+z
loop_
_atom_site_type_symbol
_atom_site_label
_atom_site_fract_x
_atom_site_fract_y
_atom_site_fract_z
Si Si1 0.851212 0.710586 0.306667
Si Si2 0.345391 0.000000 0.500000
Si Si3 0.719810 0.500000 0.813016
Si Si4 0.076014 0.645975 0.000000
Si Si5 0.287724 0.654262 0.306340
O O1 0.872433 0.690109 0.500000
O O2 0.906470 0.689804 0.171703
O O3 0.786292 0.668266 0.247994
O O4 0.836703 0.796305 0.302406
O O5 0.298695 0.000000 0.332265
O O6 0.390378 0.930927 0.500000
O O7 0.695409 0.570451 0.714463
O O8 0.687226 0.500000 0.000000
O O9 0.000000 0.633153 0.000000
O O10 0.296307 0.678300 0.500000
#
# Coordination Sequence:
#
# PCOD8287076 Si02
#       5
#    16   4   8   8  16
#     4  10  20  34  54  79 105 142 185 234 279 326
#     4  10  21  36  52  76 116 148 197 214 270 322
#     4  10  17  28  50  77 115 143 173 217 280 339
#     4  12  23  40  56  75 112 157 197 226 262 319
#     4  10  18  30  52  79 113 139 176 229 290 335
#
# _framework density 17.302357000000001
#
# number of rings (size 3 to 8) (size 9 to 14) (size 15 to 20)
#    0.462    1.231    4.615    1.615    2.154    0.615 
#    0.000    0.769    0.000    1.846    0.000    2.154 
#    0.000    3.692    0.000    0.000    0.000    0.000 
#
# Total GULP energy -322326.376760 kJ/mol
# GULP energy per Si atom -12397.168337 kJ/mol
# Density = 1.726298 g / cm^3
# Si number density = 17.302357 Si / 1000 Ang^3
#
#
#
# Elastic Constant Matrix: (Units=GPa)
#
#
# Indices 1 2 3 4 5 6 
#
# 1 39.5325 15.0120 25.8388 0.0000 0.0000 0.0000
# 2 15.0120 123.0228 18.3935 0.0000 0.0000 0.0000
# 3 25.8388 18.3935 90.0790 0.0000 0.0000 0.0000
# 4 0.0000 0.0000 0.0000 28.6975 0.0000 0.0000
# 5 0.0000 0.0000 0.0000 0.0000 18.4012 0.0000
# 6 0.0000 0.0000 0.0000 0.0000 0.0000 13.7531
#
#
#
# Elastic Compliance Matrix: (Units=1/GPa)
#
#
# Indices 1 2 3 4 5 6 
#
# 1 0.031922 -0.002606 -0.008625 0.000000 0.000000 0.000000
# 2 -0.002606 0.008597 -0.001008 0.000000 0.000000 0.000000
# 3 -0.008625 -0.001008 0.013781 0.000000 0.000000 0.000000
# 4 0.000000 0.000000 0.000000 0.034846 0.000000 0.000000
# 5 0.000000 0.000000 0.000000 0.000000 0.054344 0.000000
# 6 0.000000 0.000000 0.000000 0.000000 0.000000 0.072711
#
#
# Mechanical properties :
#
#
# Convention : Reuss Voigt Hill
#
# Bulk Modulus (GPa) = 33.53047 41.23587 37.38317
# Shear Modulus (GPa) = 19.95046 25.06302 22.50674
#
# Velocity S-wave (km/s) = 3.39934 3.81009 3.61056
# Velocity P-wave (km/s) = 5.90157 6.57571 6.24774
#
# Compressibility (1/GPa) = 0.02982362
#
# Stress axis : x y z
#
# Youngs Moduli (GPa) = 31.32601 116.31595 72.56282
#
# Poissons Ratio (x) = 0.30310 0.62583
# Poissons Ratio (y) = 0.08163 0.07315
# Poissons Ratio (z) = 0.27018 0.11725
#
# Static dielectric constant tensor:
#      x y z
#    x 2.714480 0.000000 0.000000 
#    y 0.000000 3.186630 0.000000 
#    z 0.000000 0.000000 3.204260 
# 
# 
# High freq. dielectric constant tensor:
#      x y z
#    x 1.601960 0.000000 0.000000 
#    y 0.000000 1.679100 0.000000 
#    z 0.000000 0.000000 1.677840 
# 
# From -- ./inp_files/7130.got.cif
#   From: 2010.06.25/outbox.cif.g09.slc.cpg/sg71_4_cif.got.tgz:7130.got - 2010.06.28 04:59:45.
