data_PCOD8287859
_publ_section_title
;
Structure prediction by ZEFSAII (Michael W. Deem and Ramdas Pophale) SiO2 
 PCOD8287859
Probable space group: I M M M
;
_chemical_formula_sum "Si O2"
_cell_formula_units_Z 56
_cell_length_a 22.991385
_cell_length_b 8.558688
_cell_length_c 14.088965
_cell_angle_alpha 90.000000
_cell_angle_beta 90.000000
_cell_angle_gamma 90.000000
_cell_volume 2772.371458
_symmetry_space_group_name_H-M "I M M M"
_symmetry_group_IT_number 71
_symmetry_cell_setting 'orthorhombic'
loop_
_space_group_symop_operation_xyz
x,y,z
-x,-y,z
x,-y,-z
-x,y,-z
-x,-y,-z
x,y,-z
-x,y,z
x,-y,z
1/2+x,1/2+y,1/2+z
1/2-x,1/2-y,1/2+z
1/2+x,1/2-y,1/2-z
1/2-x,1/2+y,1/2-z
1/2-x,1/2-y,1/2-z
1/2+x,1/2+y,1/2-z
1/2-x,1/2+y,1/2+z
1/2+x,1/2-y,1/2+z
loop_
_atom_site_type_symbol
_atom_site_label
_atom_site_fract_x
_atom_site_fract_y
_atom_site_fract_z
Si Si1 0.114775 0.815850 0.797665
Si Si2 0.155429 0.320293 0.397001
Si Si3 0.000000 0.314999 0.891159
Si Si4 0.769220 0.685201 0.850073
O O1 0.122538 0.772679 0.686243
O O2 0.055069 0.748460 0.835268
O O3 0.165236 0.746282 0.866291
O O4 0.115186 0.000000 0.807062
O O5 0.123152 0.303982 0.500000
O O6 0.158632 0.500000 0.364294
O O7 0.220591 0.255900 0.419080
O O8 0.000000 0.500000 0.887316
O O9 0.000000 0.255186 0.000000
O O10 0.768693 0.500000 0.857209
O O11 0.750000 0.750000 0.750000
#
# Coordination Sequence:
#
# PCOD8287859 Si02
#       4
#    16  16   8  16
#     4  11  22  38  60  85 117 152 189 237 287 339
#     4  10  20  35  57  86 120 156 193 234 282 338
#     4  11  25  45  66  85 108 143 189 238 286 339
#     4  10  18  31  53  80 113 150 188 230 277 330
#
# _framework density 20.199313
#
# number of rings (size 3 to 8) (size 9 to 14) (size 15 to 20)
#    0.000    1.571    0.000    9.857    0.000    4.571 
#    0.000    0.714    0.000    4.286    0.000    0.000 
#    0.000    0.000    0.000    0.000    0.000    0.000 
#
# Total GULP energy -346947.951914 kJ/mol
# GULP energy per Si atom -12390.998283 kJ/mol
# Density = 2.015334 g / cm^3
# Si number density = 20.199313 Si / 1000 Ang^3
#
#
#
# Elastic Constant Matrix: (Units=GPa)
#
#
# Indices 1 2 3 4 5 6 
#
# 1 137.9730 36.7162 42.3040 0.0000 0.0000 0.0000
# 2 36.7162 128.3960 22.0028 0.0000 0.0000 0.0000
# 3 42.3040 22.0028 101.7059 0.0000 0.0000 0.0000
# 4 0.0000 0.0000 0.0000 16.8208 0.0000 0.0000
# 5 0.0000 0.0000 0.0000 0.0000 18.8743 0.0000
# 6 0.0000 0.0000 0.0000 0.0000 0.0000 37.1790
#
#
#
# Elastic Compliance Matrix: (Units=1/GPa)
#
#
# Indices 1 2 3 4 5 6 
#
# 1 0.008754 -0.001952 -0.003219 0.000000 0.000000 0.000000
# 2 -0.001952 0.008523 -0.001032 0.000000 0.000000 0.000000
# 3 -0.003219 -0.001032 0.011394 0.000000 0.000000 0.000000
# 4 0.000000 0.000000 0.000000 0.059450 0.000000 0.000000
# 5 0.000000 0.000000 0.000000 0.000000 0.052982 0.000000
# 6 0.000000 0.000000 0.000000 0.000000 0.000000 0.026897
#
#
# Mechanical properties :
#
#
# Convention : Reuss Voigt Hill
#
# Bulk Modulus (GPa) = 61.47669 63.34679 62.41174
# Shear Modulus (GPa) = 26.90647 32.37828 29.64237
#
# Velocity S-wave (km/s) = 3.65368 4.00802 3.83494
# Velocity P-wave (km/s) = 6.94984 7.26965 7.11155
#
# Compressibility (1/GPa) = 0.01626633
#
# Stress axis : x y z
#
# Youngs Moduli (GPa) = 114.23150 117.32420 87.76166
#
# Poissons Ratio (x) = 0.22898 0.28251
# Poissons Ratio (y) = 0.22295 0.09058
# Poissons Ratio (z) = 0.36771 0.12109
#
# Static dielectric constant tensor:
#      x y z
#    x 4.127730 0.000000 0.000000 
#    y 0.000000 3.821250 0.000000 
#    z 0.000000 0.000000 5.748570 
# 
# 
# High freq. dielectric constant tensor:
#      x y z
#    x 1.772990 0.000000 0.000000 
#    y 0.000000 1.807830 0.000000 
#    z 0.000000 0.000000 1.793800 
# 
# From -- ./inp_files/37334.got.cif
#   From: 2010.06.25/outbox.cif.g09.slc.cpg/sg71_19_cif.got.tgz:37334.got - 2010.06.28 04:59:45.
