data_PCOD8287025
_publ_section_title
;
Structure prediction by ZEFSAII (Michael W. Deem and Ramdas Pophale) SiO2 
 PCOD8287025
Probable space group: I M M M
;
_chemical_formula_sum "Si O2"
_cell_formula_units_Z 104
_cell_length_a 9.450190
_cell_length_b 29.782407
_cell_length_c 22.012050
_cell_angle_alpha 90.000000
_cell_angle_beta 90.000000
_cell_angle_gamma 90.000000
_cell_volume 6195.278371
_symmetry_space_group_name_H-M "I M M M"
_symmetry_group_IT_number 71
_symmetry_cell_setting 'orthorhombic'
loop_
_space_group_symop_operation_xyz
x,y,z
-x,-y,z
x,-y,-z
-x,y,-z
-x,-y,-z
x,y,-z
-x,y,z
x,-y,z
1/2+x,1/2+y,1/2+z
1/2-x,1/2-y,1/2+z
1/2+x,1/2-y,1/2-z
1/2-x,1/2+y,1/2-z
1/2-x,1/2-y,1/2-z
1/2+x,1/2+y,1/2-z
1/2-x,1/2+y,1/2+z
1/2+x,1/2-y,1/2+z
loop_
_atom_site_type_symbol
_atom_site_label
_atom_site_fract_x
_atom_site_fract_y
_atom_site_fract_z
Si Si1 0.336794 0.948701 0.283006
Si Si2 0.331943 0.550482 0.000000
Si Si3 0.338866 0.052018 0.857350
Si Si4 0.332280 0.396914 0.118650
Si Si5 0.158172 0.293372 0.572408
Si Si6 0.837383 0.123074 0.928176
Si Si7 0.167830 0.804441 0.567385
O O1 0.500000 0.941201 0.300144
O O2 0.310120 0.937145 0.212881
O O3 0.240140 0.915459 0.321280
O O4 0.292754 0.000000 0.296609
O O5 0.277201 0.575667 0.939935
O O6 0.270944 0.500000 0.000000
O O7 0.500000 0.550439 0.000000
O O8 0.500000 0.064542 0.874434
O O9 0.232372 0.079689 0.898648
O O10 0.310405 0.000000 0.870841
O O11 0.500000 0.401611 0.126126
O O12 0.284110 0.344982 0.111111
O O13 0.155316 0.292507 0.500000
O O14 0.262273 0.331862 0.596916
O O15 0.213889 0.244210 0.594517
O O16 0.000000 0.303138 0.597331
O O17 0.000000 0.125458 0.908622
O O18 0.819039 0.118898 0.000000
O O19 0.233022 0.811957 0.500000
O O20 0.000000 0.804845 0.560949
#
# Coordination Sequence:
#
# PCOD8287025 Si02
#       7
#    16   8  16  16  16  16  16
#     4   9  19  35  50  65  90 124 161 200 239 278
#     4   9  16  24  37  63  97 127 155 193 240 285
#     4   9  19  36  55  71  90 123 164 197 225 269
#     4  10  17  27  46  70  95 123 160 203 242 283
#     4   8  14  26  46  68  92 126 163 191 222 273
#     4  10  20  32  48  75 107 128 144 179 235 284
#     4   8  13  24  43  68  95 123 158 201 240 273
#
# _framework density 16.786978000000001
#
# number of rings (size 3 to 8) (size 9 to 14) (size 15 to 20)
#    0.000    3.000    0.769    2.769    0.000    3.077 
#    0.000    4.231    0.000    3.231    0.000    0.000 
#    0.000    0.000    0.000    0.000    0.000    0.000 
#
# Total GULP energy -644593.493071 kJ/mol
# GULP energy per Si atom -12396.028713 kJ/mol
# Density = 1.674877 g / cm^3
# Si number density = 16.786978 Si / 1000 Ang^3
#
#
#
# Elastic Constant Matrix: (Units=GPa)
#
#
# Indices 1 2 3 4 5 6 
#
# 1 78.1773 64.8832 37.2897 0.0000 0.0000 0.0000
# 2 64.8832 136.4051 46.2145 0.0000 0.0000 0.0000
# 3 37.2897 46.2145 40.6633 0.0000 0.0000 0.0000
# 4 0.0000 0.0000 0.0000 19.2348 0.0000 0.0000
# 5 0.0000 0.0000 0.0000 0.0000 24.6521 0.0000
# 6 0.0000 0.0000 0.0000 0.0000 0.0000 21.5980
#
#
#
# Elastic Compliance Matrix: (Units=1/GPa)
#
#
# Indices 1 2 3 4 5 6 
#
# 1 0.026354 -0.007070 -0.016133 0.000000 0.000000 0.000000
# 2 -0.007070 0.013818 -0.009221 0.000000 0.000000 0.000000
# 3 -0.016133 -0.009221 0.049866 0.000000 0.000000 0.000000
# 4 0.000000 0.000000 0.000000 0.051989 0.000000 0.000000
# 5 0.000000 0.000000 0.000000 0.000000 0.040564 0.000000
# 6 0.000000 0.000000 0.000000 0.000000 0.000000 0.046301
#
#
# Mechanical properties :
#
#
# Convention : Reuss Voigt Hill
#
# Bulk Modulus (GPa) = 39.69625 61.33561 50.51593
# Shear Modulus (GPa) = 16.54872 20.22085 18.38479
#
# Velocity S-wave (km/s) = 3.14316 3.47444 3.31294
# Velocity P-wave (km/s) = 6.07215 7.26034 6.69267
#
# Compressibility (1/GPa) = 0.02519130
#
# Stress axis : x y z
#
# Youngs Moduli (GPa) = 37.94449 72.36801 20.05357
#
# Poissons Ratio (x) = 0.51165 0.32352
# Poissons Ratio (y) = 0.26827 0.18492
# Poissons Ratio (z) = 0.61214 0.66732
#
# Static dielectric constant tensor:
#      x y z
#    x 2.929600 0.000000 0.000000 
#    y 0.000000 3.475870 0.000000 
#    z 0.000000 0.000000 2.847730 
# 
# 
# High freq. dielectric constant tensor:
#      x y z
#    x 1.622280 0.000000 0.000000 
#    y 0.000000 1.660920 0.000000 
#    z 0.000000 0.000000 1.615240 
# 
# From -- ./inp_files/58217.got.cif
#   From: 2010.06.25/outbox.cif.g09.slc.cpg/sg71_30_cif.got.tgz:58217.got - 2010.06.28 04:59:45.
