data_PCOD8287771
_publ_section_title
;
Structure prediction by ZEFSAII (Michael W. Deem and Ramdas Pophale) SiO2 
 PCOD8287771
Probable space group: I M M M
;
_chemical_formula_sum "Si O2"
_cell_formula_units_Z 112
_cell_length_a 15.068754
_cell_length_b 14.060848
_cell_length_c 32.893103
_cell_angle_alpha 90.000000
_cell_angle_beta 90.000000
_cell_angle_gamma 90.000000
_cell_volume 6969.372886
_symmetry_space_group_name_H-M "I M M M"
_symmetry_group_IT_number 71
_symmetry_cell_setting 'orthorhombic'
loop_
_space_group_symop_operation_xyz
x,y,z
-x,-y,z
x,-y,-z
-x,y,-z
-x,-y,-z
x,y,-z
-x,y,z
x,-y,z
1/2+x,1/2+y,1/2+z
1/2-x,1/2-y,1/2+z
1/2+x,1/2-y,1/2-z
1/2-x,1/2+y,1/2-z
1/2-x,1/2-y,1/2-z
1/2+x,1/2+y,1/2-z
1/2-x,1/2+y,1/2+z
1/2+x,1/2-y,1/2+z
loop_
_atom_site_type_symbol
_atom_site_label
_atom_site_fract_x
_atom_site_fract_y
_atom_site_fract_z
Si Si1 0.273959 0.890012 0.416506
Si Si2 0.401207 0.609995 0.776698
Si Si3 0.226124 0.391279 0.822035
Si Si4 0.396901 0.273461 0.304070
Si Si5 0.605156 0.393703 0.618909
Si Si6 0.096152 0.112912 0.454225
Si Si7 0.896554 0.761420 0.046306
O O1 0.290756 0.874610 0.369303
O O2 0.175752 0.848884 0.426235
O O3 0.346595 0.835652 0.442977
O O4 0.281485 0.000000 0.429094
O O5 0.500000 0.636339 0.793287
O O6 0.397585 0.500000 0.764692
O O7 0.328079 0.634650 0.810855
O O8 0.379185 0.665912 0.735883
O O9 0.205626 0.500000 0.809631
O O10 0.157661 0.323928 0.798473
O O11 0.500000 0.247619 0.309767
O O12 0.360195 0.332427 0.342822
O O13 0.500000 0.400588 0.621342
O O14 0.646166 0.500000 0.620503
O O15 0.635366 0.345009 0.576616
O O16 0.112737 0.148963 0.500000
O O17 0.000000 0.151048 0.438558
O O18 0.094440 0.000000 0.453099
O O19 0.000000 0.740198 0.052483
O O20 0.875832 0.792601 0.000000
#
# Coordination Sequence:
#
# PCOD8287771 Si02
#       7
#    16  16  16  16  16  16  16
#     4  10  19  30  44  63  92 128 158 185 221 268
#     4   9  18  32  50  72  95 120 153 193 234 272
#     4  10  20  31  45  68  97 126 154 186 225 271
#     4  10  18  31  50  69  93 124 156 190 224 268
#     4   9  17  30  48  68  88 114 151 192 234 274
#     4   8  14  25  41  60  81 109 149 192 228 261
#     4  10  20  32  45  64  92 124 157 193 230 270
#
# _framework density 16.070312000000001
#
# number of rings (size 3 to 8) (size 9 to 14) (size 15 to 20)
#    0.000    2.571    1.429    1.714    0.000    4.000 
#    0.000    6.429    0.000    0.000    0.000    0.000 
#    0.000    1.714    0.000    3.000    0.000    0.286 
#
# Total GULP energy -694212.463011 kJ/mol
# GULP energy per Si atom -12396.651125 kJ/mol
# Density = 1.603374 g / cm^3
# Si number density = 16.070312 Si / 1000 Ang^3
#
#
#
# Elastic Constant Matrix: (Units=GPa)
#
#
# Indices 1 2 3 4 5 6 
#
# 1 63.5072 36.7319 18.1815 0.0000 0.0000 0.0000
# 2 36.7319 69.5186 22.7963 0.0000 0.0000 0.0000
# 3 18.1815 22.7963 47.6251 0.0000 0.0000 0.0000
# 4 0.0000 0.0000 0.0000 20.2303 0.0000 0.0000
# 5 0.0000 0.0000 0.0000 0.0000 25.2031 0.0000
# 6 0.0000 0.0000 0.0000 0.0000 0.0000 16.1773
#
#
#
# Elastic Compliance Matrix: (Units=1/GPa)
#
#
# Indices 1 2 3 4 5 6 
#
# 1 0.023169 -0.011081 -0.003541 0.000000 0.000000 0.000000
# 2 -0.011081 0.022362 -0.006474 0.000000 0.000000 0.000000
# 3 -0.003541 -0.006474 0.025448 0.000000 0.000000 0.000000
# 4 0.000000 0.000000 0.000000 0.049431 0.000000 0.000000
# 5 0.000000 0.000000 0.000000 0.000000 0.039678 0.000000
# 6 0.000000 0.000000 0.000000 0.000000 0.000000 0.061815
#
#
# Mechanical properties :
#
#
# Convention : Reuss Voigt Hill
#
# Bulk Modulus (GPa) = 34.73673 37.34115 36.03894
# Shear Modulus (GPa) = 18.26885 19.18489 18.72687
#
# Velocity S-wave (km/s) = 3.37532 3.45890 3.41736
# Velocity P-wave (km/s) = 6.07064 6.26407 6.16812
#
# Compressibility (1/GPa) = 0.02878797
#
# Stress axis : x y z
#
# Youngs Moduli (GPa) = 43.16109 44.71817 39.29586
#
# Poissons Ratio (x) = 0.49551 0.13915
# Poissons Ratio (y) = 0.47826 0.25439
# Poissons Ratio (z) = 0.15284 0.28949
#
# Static dielectric constant tensor:
#      x y z
#    x 3.175160 0.000000 0.000000 
#    y 0.000000 2.936150 0.000000 
#    z 0.000000 0.000000 3.067950 
# 
# 
# High freq. dielectric constant tensor:
#      x y z
#    x 1.607170 0.000000 0.000000 
#    y 0.000000 1.594190 0.000000 
#    z 0.000000 0.000000 1.619760 
# 
# From -- ./inp_files/70088.got.cif
#   From: 2010.06.25/outbox.cif.g09.slc.cpg/sg71_36_cif.got.tgz:70088.got - 2010.06.28 04:59:45.
