data_PCOD8287416
_publ_section_title
;
Structure prediction by ZEFSAII (Michael W. Deem and Ramdas Pophale) SiO2 
 PCOD8287416
Probable space group: I M M M
;
_chemical_formula_sum "Si O2"
_cell_formula_units_Z 88
_cell_length_a 7.826240
_cell_length_b 19.449798
_cell_length_c 30.460798
_cell_angle_alpha 90.000000
_cell_angle_beta 90.000000
_cell_angle_gamma 90.000000
_cell_volume 4636.705726
_symmetry_space_group_name_H-M "I M M M"
_symmetry_group_IT_number 71
_symmetry_cell_setting 'orthorhombic'
loop_
_space_group_symop_operation_xyz
x,y,z
-x,-y,z
x,-y,-z
-x,y,-z
-x,-y,-z
x,y,-z
-x,y,z
x,-y,z
1/2+x,1/2+y,1/2+z
1/2-x,1/2-y,1/2+z
1/2+x,1/2-y,1/2-z
1/2-x,1/2+y,1/2-z
1/2-x,1/2-y,1/2-z
1/2+x,1/2+y,1/2-z
1/2-x,1/2+y,1/2+z
1/2+x,1/2-y,1/2+z
loop_
_atom_site_type_symbol
_atom_site_label
_atom_site_fract_x
_atom_site_fract_y
_atom_site_fract_z
Si Si1 0.500000 0.423181 0.051887
Si Si2 0.302493 0.176084 0.449000
Si Si3 0.701311 0.790330 0.706899
Si Si4 0.301368 0.716387 0.377819
Si Si5 0.700668 0.924769 0.153321
Si Si6 0.796601 0.575298 0.751531
O O1 0.500000 0.500000 0.072518
O O2 0.674018 0.384197 0.066615
O O3 0.500000 0.428887 0.000000
O O4 0.276568 0.193529 0.500000
O O5 0.500000 0.153917 0.439426
O O6 0.250106 0.245126 0.422706
O O7 0.500000 0.792828 0.701139
O O8 0.750000 0.750000 0.750000
O O9 0.786513 0.755364 0.663866
O O10 0.772783 0.868107 0.713971
O O11 0.500000 0.720937 0.370658
O O12 0.250908 0.636097 0.380144
O O13 0.500000 0.929387 0.155578
O O14 0.772572 0.908516 0.202220
O O15 0.771199 0.000000 0.137547
O O16 0.731661 0.500000 0.766606
O O17 0.000000 0.577064 0.750048
#
# Coordination Sequence:
#
# PCOD8287416 Si02
#       6
#     8  16  16  16  16  16
#     4   9  18  34  58  86 109 137 179 217 262 324
#     4   9  19  36  55  79 111 142 176 222 269 312
#     4  10  18  29  45  69  96 123 163 205 246 302
#     4  10  20  31  48  76 101 131 172 211 258 313
#     4   9  17  29  47  70  93 126 170 206 246 302
#     4   8  14  26  43  62  88 124 161 197 241 293
#
# _framework density 18.978992000000002
#
# number of rings (size 3 to 8) (size 9 to 14) (size 15 to 20)
#    0.000    2.818    1.818    1.091    1.273    0.727 
#    0.000    2.727    0.000    4.364    0.000    3.818 
#    0.000    0.000    0.000    0.000    0.000    0.000 
#
# Total GULP energy -545111.099424 kJ/mol
# GULP energy per Si atom -12388.888623 kJ/mol
# Density = 1.893580 g / cm^3
# Si number density = 18.978992 Si / 1000 Ang^3
#
#
#
# Elastic Constant Matrix: (Units=GPa)
#
#
# Indices 1 2 3 4 5 6 
#
# 1 42.7622 35.5354 25.1616 0.0000 0.0000 0.0000
# 2 35.5354 189.8849 64.8723 0.0000 0.0000 0.0000
# 3 25.1616 64.8723 69.6510 0.0000 0.0000 0.0000
# 4 0.0000 0.0000 0.0000 49.2702 0.0000 0.0000
# 5 0.0000 0.0000 0.0000 0.0000 13.5316 0.0000
# 6 0.0000 0.0000 0.0000 0.0000 0.0000 24.0169
#
#
#
# Elastic Compliance Matrix: (Units=1/GPa)
#
#
# Indices 1 2 3 4 5 6 
#
# 1 0.030730 -0.002872 -0.008426 0.000000 0.000000 0.000000
# 2 -0.002872 0.007993 -0.006407 0.000000 0.000000 0.000000
# 3 -0.008426 -0.006407 0.023368 0.000000 0.000000 0.000000
# 4 0.000000 0.000000 0.000000 0.020296 0.000000 0.000000
# 5 0.000000 0.000000 0.000000 0.000000 0.073901 0.000000
# 6 0.000000 0.000000 0.000000 0.000000 0.000000 0.041637
#
#
# Mechanical properties :
#
#
# Convention : Reuss Voigt Hill
#
# Bulk Modulus (GPa) = 37.47996 61.49296 49.48646
# Shear Modulus (GPa) = 20.64160 29.14565 24.89363
#
# Velocity S-wave (km/s) = 3.30146 3.92303 3.62559
# Velocity P-wave (km/s) = 5.85866 7.27950 6.60738
#
# Compressibility (1/GPa) = 0.02668092
#
# Stress axis : x y z
#
# Youngs Moduli (GPa) = 32.54164 125.11528 42.79283
#
# Poissons Ratio (x) = 0.35935 0.36058
# Poissons Ratio (y) = 0.09346 0.27416
# Poissons Ratio (z) = 0.27420 0.80158
#
# Static dielectric constant tensor:
#      x y z
#    x 3.299900 0.000000 0.000000 
#    y 0.000000 -97.400460 0.000000 
#    z 0.000000 0.000000 3.408290 
# 
# 
# High freq. dielectric constant tensor:
#      x y z
#    x 1.721070 0.000000 0.000000 
#    y 0.000000 1.749340 0.000000 
#    z 0.000000 0.000000 1.695350 
# 
# From -- ./inp_files/67993.got.cif
#   From: 2010.06.25/outbox.cif.g09.slc.cpg/sg71_34_cif.got.tgz:67993.got - 2010.06.28 04:59:45.
