data_PCOD8287515
_publ_section_title
;
Structure prediction by ZEFSAII (Michael W. Deem and Ramdas Pophale) SiO2 
 PCOD8287515
Probable space group: I M M M
;
_chemical_formula_sum "Si O2"
_cell_formula_units_Z 128
_cell_length_a 18.434193
_cell_length_b 18.856774
_cell_length_c 23.265927
_cell_angle_alpha 90.000000
_cell_angle_beta 90.000000
_cell_angle_gamma 90.000000
_cell_volume 8087.455187
_symmetry_space_group_name_H-M "I M M M"
_symmetry_group_IT_number 71
_symmetry_cell_setting 'orthorhombic'
loop_
_space_group_symop_operation_xyz
x,y,z
-x,-y,z
x,-y,-z
-x,y,-z
-x,-y,-z
x,y,-z
-x,y,z
x,-y,z
1/2+x,1/2+y,1/2+z
1/2-x,1/2-y,1/2+z
1/2+x,1/2-y,1/2-z
1/2-x,1/2+y,1/2-z
1/2-x,1/2-y,1/2-z
1/2+x,1/2+y,1/2-z
1/2-x,1/2+y,1/2+z
1/2+x,1/2-y,1/2+z
loop_
_atom_site_type_symbol
_atom_site_label
_atom_site_fract_x
_atom_site_fract_y
_atom_site_fract_z
Si Si1 0.813888 0.419039 0.606680
Si Si2 0.296297 0.922197 0.759625
Si Si3 0.169282 0.725859 0.767455
Si Si4 0.081649 0.830136 0.837390
Si Si5 0.628206 0.420942 0.765491
Si Si6 0.416222 0.200737 0.064739
Si Si7 0.154521 0.917995 0.933250
Si Si8 0.085442 0.795042 0.667596
O O1 0.831455 0.500000 0.590475
O O2 0.815893 0.407162 0.674632
O O3 0.874012 0.371285 0.576950
O O4 0.736554 0.396685 0.581182
O O5 0.330985 0.859222 0.721270
O O6 0.210341 0.920967 0.754998
O O7 0.325604 0.000000 0.739964
O O8 0.250000 0.750000 0.750000
O O9 0.139071 0.766558 0.823808
O O10 0.114908 0.741518 0.715531
O O11 0.081697 0.887116 0.785823
O O12 0.101542 0.867979 0.896959
O O13 0.000000 0.799636 0.842915
O O14 0.600237 0.500000 0.778799
O O15 0.619110 0.373524 0.823036
O O16 0.500000 0.183043 0.076147
O O17 0.390581 0.265429 0.105499
O O18 0.402108 0.226475 0.000000
O O19 0.140504 0.000000 0.916471
O O20 0.138203 0.904516 0.000000
O O21 0.000000 0.799630 0.674137
#
# Coordination Sequence:
#
# PCOD8287515 Si02
#       8
#    16  16  16  16  16  16  16  16
#     4  10  18  32  50  69  94 125 166 206 236 281
#     4  10  18  29  49  74  99 125 156 195 243 288
#     4  11  17  31  52  70  94 126 157 198 238 282
#     4  11  22  32  47  71  97 129 162 198 238 283
#     4  10  18  30  48  72  96 120 151 191 237 287
#     4  10  21  34  47  65  93 127 163 205 247 285
#     4  10  20  33  49  70  98 134 170 199 234 285
#     4  10  20  31  46  69  95 122 157 197 238 286
#
# _framework density 15.826981
#
# number of rings (size 3 to 8) (size 9 to 14) (size 15 to 20)
#    0.000    1.750    5.000    2.250    0.000    3.000 
#    0.000    1.250    0.000    1.875    0.000    1.750 
#    0.000    0.500    0.000    1.125    0.000    0.000 
#
# Total GULP energy -793422.533791 kJ/mol
# GULP energy per Si atom -12397.227090 kJ/mol
# Density = 1.579096 g / cm^3
# Si number density = 15.826981 Si / 1000 Ang^3
#
#
#
# Elastic Constant Matrix: (Units=GPa)
#
#
# Indices 1 2 3 4 5 6 
#
# 1 37.2173 24.7757 14.7246 0.0000 0.0000 0.0000
# 2 24.7757 111.4338 32.9485 0.0000 0.0000 0.0000
# 3 14.7246 32.9485 62.8124 0.0000 0.0000 0.0000
# 4 0.0000 0.0000 0.0000 23.8612 0.0000 0.0000
# 5 0.0000 0.0000 0.0000 0.0000 17.8135 0.0000
# 6 0.0000 0.0000 0.0000 0.0000 0.0000 15.5875
#
#
#
# Elastic Compliance Matrix: (Units=1/GPa)
#
#
# Indices 1 2 3 4 5 6 
#
# 1 0.032597 -0.005904 -0.004545 0.000000 0.000000 0.000000
# 2 -0.005904 0.011691 -0.004748 0.000000 0.000000 0.000000
# 3 -0.004545 -0.004748 0.019477 0.000000 0.000000 0.000000
# 4 0.000000 0.000000 0.000000 0.041909 0.000000 0.000000
# 5 0.000000 0.000000 0.000000 0.000000 0.056137 0.000000
# 6 0.000000 0.000000 0.000000 0.000000 0.000000 0.064154
#
#
# Mechanical properties :
#
#
# Convention : Reuss Voigt Hill
#
# Bulk Modulus (GPa) = 29.96624 39.59567 34.78096
# Shear Modulus (GPa) = 18.69284 20.72009 19.70646
#
# Velocity S-wave (km/s) = 3.44040 3.62216 3.53245
# Velocity P-wave (km/s) = 5.89547 6.52423 6.21780
#
# Compressibility (1/GPa) = 0.03337089
#
# Stress axis : x y z
#
# Youngs Moduli (GPa) = 30.67729 85.53923 51.34380
#
# Poissons Ratio (x) = 0.50501 0.23334
# Poissons Ratio (y) = 0.18111 0.24380
# Poissons Ratio (z) = 0.13942 0.40617
#
# Static dielectric constant tensor:
#      x y z
#    x 2.995570 0.000000 0.000000 
#    y 0.000000 3.143440 0.000000 
#    z 0.000000 0.000000 2.881990 
# 
# 
# High freq. dielectric constant tensor:
#      x y z
#    x 1.607870 0.000000 0.000000 
#    y 0.000000 1.603350 0.000000 
#    z 0.000000 0.000000 1.583330 
# 
# From -- ./inp_files/54475.got.cif
#   From: 2010.06.25/outbox.cif.g09.slc.cpg/sg71_28_cif.got.tgz:54475.got - 2010.06.28 04:59:45.
