data_PCOD8287446
_publ_section_title
;
Structure prediction by ZEFSAII (Michael W. Deem and Ramdas Pophale) SiO2 
 PCOD8287446
Probable space group: I M M M
;
_chemical_formula_sum "Si O2"
_cell_formula_units_Z 96
_cell_length_a 8.934609
_cell_length_b 22.452726
_cell_length_c 27.581743
_cell_angle_alpha 90.000000
_cell_angle_beta 90.000000
_cell_angle_gamma 90.000000
_cell_volume 5533.072177
_symmetry_space_group_name_H-M "I M M M"
_symmetry_group_IT_number 71
_symmetry_cell_setting 'orthorhombic'
loop_
_space_group_symop_operation_xyz
x,y,z
-x,-y,z
x,-y,-z
-x,y,-z
-x,-y,-z
x,y,-z
-x,y,z
x,-y,z
1/2+x,1/2+y,1/2+z
1/2-x,1/2-y,1/2+z
1/2+x,1/2-y,1/2-z
1/2-x,1/2+y,1/2-z
1/2-x,1/2-y,1/2-z
1/2+x,1/2+y,1/2-z
1/2-x,1/2+y,1/2+z
1/2+x,1/2-y,1/2+z
loop_
_atom_site_type_symbol
_atom_site_label
_atom_site_fract_x
_atom_site_fract_y
_atom_site_fract_z
Si Si1 0.823947 0.739233 0.446132
Si Si2 0.672107 0.201466 0.639265
Si Si3 0.177243 0.000000 0.238793
Si Si4 0.169777 0.500000 0.635448
Si Si5 0.174919 0.814509 0.199743
Si Si6 0.827314 0.372302 0.614701
Si Si7 0.826003 0.383697 0.779551
O O1 0.756147 0.747733 0.500000
O O2 0.762827 0.790867 0.410641
O O3 0.778215 0.672710 0.428089
O O4 0.000000 0.746352 0.447806
O O5 0.500000 0.211752 0.625924
O O6 0.723509 0.251041 0.678155
O O7 0.698051 0.136896 0.664225
O O8 0.233491 0.057371 0.268305
O O9 0.229129 0.000000 0.183353
O O10 0.000000 0.000000 0.239619
O O11 0.196373 0.557994 0.601179
O O12 0.000000 0.500000 0.655177
O O13 0.220510 0.864433 0.160813
O O14 0.269907 0.827754 0.247750
O O15 0.000000 0.819111 0.211702
O O16 0.000000 0.359297 0.628815
O O17 0.000000 0.395506 0.768869
#
# Coordination Sequence:
#
# PCOD8287446 Si02
#       7
#    16  16   8   8  16  16  16
#     4   9  18  33  52  74  99 127 163 210 261 306
#     4   9  20  34  50  73  99 129 165 204 248 299
#     4  12  24  34  48  71 100 136 173 209 240 284
#     4  10  18  30  47  66  94 135 178 209 242 287
#     4  10  18  29  46  71 100 129 165 205 244 287
#     4   9  17  29  46  67  95 133 172 208 249 293
#     4  11  21  34  49  69 100 135 168 201 242 295
#
# _framework density 17.350216
#
# number of rings (size 3 to 8) (size 9 to 14) (size 15 to 20)
#    0.000    2.167    1.667    2.250    0.000    2.333 
#    0.000    0.417    0.000    2.500    0.000    0.583 
#    0.000   10.667    0.000    0.000    0.000    0.000 
#
# Total GULP energy -594921.504077 kJ/mol
# GULP energy per Si atom -12394.198002 kJ/mol
# Density = 1.731073 g / cm^3
# Si number density = 17.350216 Si / 1000 Ang^3
#
#
#
# Elastic Constant Matrix: (Units=GPa)
#
#
# Indices 1 2 3 4 5 6 
#
# 1 66.1620 23.7336 34.5868 0.0000 0.0000 0.0000
# 2 23.7336 49.6087 37.0980 0.0000 0.0000 0.0000
# 3 34.5868 37.0980 104.8697 0.0000 0.0000 0.0000
# 4 0.0000 0.0000 0.0000 15.5569 0.0000 0.0000
# 5 0.0000 0.0000 0.0000 0.0000 22.2933 0.0000
# 6 0.0000 0.0000 0.0000 0.0000 0.0000 23.4270
#
#
#
# Elastic Compliance Matrix: (Units=1/GPa)
#
#
# Indices 1 2 3 4 5 6 
#
# 1 0.019557 -0.006164 -0.004270 0.000000 0.000000 0.000000
# 2 -0.006164 0.029351 -0.008350 0.000000 0.000000 0.000000
# 3 -0.004270 -0.008350 0.013898 0.000000 0.000000 0.000000
# 4 0.000000 0.000000 0.000000 0.064280 0.000000 0.000000
# 5 0.000000 0.000000 0.000000 0.000000 0.044857 0.000000
# 6 0.000000 0.000000 0.000000 0.000000 0.000000 0.042686
#
#
# Mechanical properties :
#
#
# Convention : Reuss Voigt Hill
#
# Bulk Modulus (GPa) = 39.62129 45.71970 42.67050
# Shear Modulus (GPa) = 19.18586 20.60358 19.89472
#
# Velocity S-wave (km/s) = 3.32896 3.44977 3.38990
# Velocity P-wave (km/s) = 6.13692 6.50201 6.32210
#
# Compressibility (1/GPa) = 0.02523895
#
# Stress axis : x y z
#
# Youngs Moduli (GPa) = 51.13128 34.07060 71.95405
#
# Poissons Ratio (x) = 0.21000 0.30723
# Poissons Ratio (y) = 0.31515 0.60083
# Poissons Ratio (z) = 0.21832 0.28449
#
# Static dielectric constant tensor:
#      x y z
#    x 3.210610 0.000000 0.000000 
#    y 0.000000 3.261820 0.000000 
#    z 0.000000 0.000000 3.134270 
# 
# 
# High freq. dielectric constant tensor:
#      x y z
#    x 1.671520 0.000000 0.000000 
#    y 0.000000 1.659780 0.000000 
#    z 0.000000 0.000000 1.639460 
# 
# From -- ./inp_files/61897.got.cif
#   From: 2010.06.25/outbox.cif.g09.slc.cpg/sg71_31_cif.got.tgz:61897.got - 2010.06.28 04:59:45.
