data_PCOD8287041
_publ_section_title
;
Structure prediction by ZEFSAII (Michael W. Deem and Ramdas Pophale) SiO2 
 PCOD8287041
Probable space group: I M M M
;
_chemical_formula_sum "Si O2"
_cell_formula_units_Z 80
_cell_length_a 14.081539
_cell_length_b 16.594013
_cell_length_c 20.625987
_cell_angle_alpha 90.000000
_cell_angle_beta 90.000000
_cell_angle_gamma 90.000000
_cell_volume 4819.658732
_symmetry_space_group_name_H-M "I M M M"
_symmetry_group_IT_number 71
_symmetry_cell_setting 'orthorhombic'
loop_
_space_group_symop_operation_xyz
x,y,z
-x,-y,z
x,-y,-z
-x,y,-z
-x,-y,-z
x,y,-z
-x,y,z
x,-y,z
1/2+x,1/2+y,1/2+z
1/2-x,1/2-y,1/2+z
1/2+x,1/2-y,1/2-z
1/2-x,1/2+y,1/2-z
1/2-x,1/2-y,1/2-z
1/2+x,1/2+y,1/2-z
1/2-x,1/2+y,1/2+z
1/2+x,1/2-y,1/2+z
loop_
_atom_site_type_symbol
_atom_site_label
_atom_site_fract_x
_atom_site_fract_y
_atom_site_fract_z
Si Si1 0.894442 0.405828 0.770334
Si Si2 0.743390 0.593287 0.572792
Si Si3 0.894640 0.904899 0.814751
Si Si4 0.783309 0.821303 0.705273
Si Si5 0.608206 0.807029 0.137637
O O1 0.876989 0.500000 0.758709
O O2 0.811609 0.370535 0.817635
O O3 0.884318 0.361546 0.701784
O O4 0.000000 0.390293 0.799834
O O5 0.703699 0.605162 0.500000
O O6 0.766918 0.500000 0.586263
O O7 0.666512 0.627024 0.624229
O O8 0.839502 0.644733 0.580476
O O9 0.850610 0.880216 0.746190
O O10 0.000000 0.867089 0.820433
O O11 0.900322 0.000000 0.817522
O O12 0.750000 0.750000 0.750000
O O13 0.842451 0.781209 0.646523
O O14 0.500000 0.792487 0.116851
#
# Coordination Sequence:
#
# PCOD8287041 Si02
#       5
#    16  16  16  16  16
#     4   9  16  26  43  65  89 117 147 180 222 273
#     4  10  20  33  47  65  90 124 166 198 220 255
#     4  10  19  31  47  66  91 123 156 189 227 273
#     4  10  17  28  44  65  91 120 149 188 230 280
#     4  10  19  30  44  65  91 121 154 190 232 274
#
# _framework density 16.598685
#
# number of rings (size 3 to 8) (size 9 to 14) (size 15 to 20)
#    0.000    2.200    4.000    1.800    0.000    2.800 
#    0.000    3.000    0.000    0.000    0.000    0.000 
#    0.000    3.200    0.000   12.000    0.000    0.000 
#
# Total GULP energy -495728.932451 kJ/mol
# GULP energy per Si atom -12393.223311 kJ/mol
# Density = 1.656091 g / cm^3
# Si number density = 16.598685 Si / 1000 Ang^3
#
#
#
# Elastic Constant Matrix: (Units=GPa)
#
#
# Indices 1 2 3 4 5 6 
#
# 1 144.1900 45.3403 26.9170 0.0000 0.0000 0.0000
# 2 45.3403 49.6947 15.1166 0.0000 0.0000 0.0000
# 3 26.9170 15.1166 37.9649 0.0000 0.0000 0.0000
# 4 0.0000 0.0000 0.0000 20.6777 0.0000 0.0000
# 5 0.0000 0.0000 0.0000 0.0000 13.5191 0.0000
# 6 0.0000 0.0000 0.0000 0.0000 0.0000 31.3820
#
#
#
# Elastic Compliance Matrix: (Units=1/GPa)
#
#
# Indices 1 2 3 4 5 6 
#
# 1 0.010240 -0.008117 -0.004028 0.000000 0.000000 0.000000
# 2 -0.008117 0.029331 -0.005924 0.000000 0.000000 0.000000
# 3 -0.004028 -0.005924 0.031554 0.000000 0.000000 0.000000
# 4 0.000000 0.000000 0.000000 0.048361 0.000000 0.000000
# 5 0.000000 0.000000 0.000000 0.000000 0.073969 0.000000
# 6 0.000000 0.000000 0.000000 0.000000 0.000000 0.031865
#
#
# Mechanical properties :
#
#
# Convention : Reuss Voigt Hill
#
# Bulk Modulus (GPa) = 28.58166 45.17749 36.87957
# Shear Modulus (GPa) = 18.30692 22.74747 20.52720
#
# Velocity S-wave (km/s) = 3.32462 3.70596 3.52046
# Velocity P-wave (km/s) = 5.65633 6.75195 6.22828
#
# Compressibility (1/GPa) = 0.03498748
#
# Stress axis : x y z
#
# Youngs Moduli (GPa) = 97.65983 34.09392 31.69125
#
# Poissons Ratio (x) = 0.27675 0.12765
# Poissons Ratio (y) = 0.79272 0.18773
# Poissons Ratio (z) = 0.39335 0.20196
#
# Static dielectric constant tensor:
#      x y z
#    x 3.784240 0.000000 0.000000 
#    y 0.000000 3.243230 0.000000 
#    z 0.000000 0.000000 2.477670 
# 
# 
# High freq. dielectric constant tensor:
#      x y z
#    x 1.661930 0.000000 0.000000 
#    y 0.000000 1.634270 0.000000 
#    z 0.000000 0.000000 1.571220 
# 
# From -- ./inp_files/34267.got.cif
#   From: 2010.06.25/outbox.cif.g09.slc.cpg/sg71_18_cif.got.tgz:34267.got - 2010.06.28 04:59:45.
