data_PCOD8287344
_publ_section_title
;
Structure prediction by ZEFSAII (Michael W. Deem and Ramdas Pophale) SiO2 
 PCOD8287344
Probable space group: I M M M
;
_chemical_formula_sum "Si O2"
_cell_formula_units_Z 80
_cell_length_a 14.738320
_cell_length_b 8.878044
_cell_length_c 33.515447
_cell_angle_alpha 90.000000
_cell_angle_beta 90.000000
_cell_angle_gamma 90.000000
_cell_volume 4385.410891
_symmetry_space_group_name_H-M "I M M M"
_symmetry_group_IT_number 71
_symmetry_cell_setting 'orthorhombic'
loop_
_space_group_symop_operation_xyz
x,y,z
-x,-y,z
x,-y,-z
-x,y,-z
-x,-y,-z
x,y,-z
-x,y,z
x,-y,z
1/2+x,1/2+y,1/2+z
1/2-x,1/2-y,1/2+z
1/2+x,1/2-y,1/2-z
1/2-x,1/2+y,1/2-z
1/2-x,1/2-y,1/2-z
1/2+x,1/2+y,1/2-z
1/2-x,1/2+y,1/2+z
1/2+x,1/2-y,1/2+z
loop_
_atom_site_type_symbol
_atom_site_label
_atom_site_fract_x
_atom_site_fract_y
_atom_site_fract_z
Si Si1 0.104774 0.677296 0.747463
Si Si2 0.242892 0.822810 0.309841
Si Si3 0.249762 0.820652 0.895700
Si Si4 0.600920 0.820977 0.956009
Si Si5 0.899272 0.179007 0.043929
O O1 0.106782 0.500000 0.739985
O O2 0.151561 0.755046 0.709453
O O3 0.165204 0.721856 0.785982
O O4 0.000000 0.732562 0.752769
O O5 0.253743 0.757805 0.353504
O O6 0.230392 0.000000 0.311428
O O7 0.336338 0.761116 0.920458
O O8 0.164261 0.760844 0.920975
O O9 0.250133 0.000000 0.889965
O O10 0.500000 0.760595 0.947522
O O11 0.603037 0.000000 0.956028
O O12 0.633599 0.765249 0.000000
O O13 0.000000 0.239853 0.052639
O O14 0.897532 0.000000 0.043949
O O15 0.866792 0.234884 0.000000
#
# Coordination Sequence:
#
# PCOD8287344 Si02
#       5
#    16  16  16  16  16
#     4   9  19  38  60  75  92 125 165 201 239 287
#     4  10  21  35  51  76 105 128 156 197 245 297
#     4  10  18  28  46  71  97 126 160 198 240 287
#     4   8  14  25  42  65  91 120 159 203 237 266
#     4   8  14  25  42  66  95 126 164 210 251 281
#
# _framework density 18.242303
#
# number of rings (size 3 to 8) (size 9 to 14) (size 15 to 20)
#    0.000    3.000    0.000    2.400    0.000    5.200 
#    0.000    2.000    0.000    2.400    0.000    2.800 
#    0.000    0.000    0.000    0.000    0.000    0.000 
#
# Total GULP energy -495723.055176 kJ/mol
# GULP energy per Si atom -12393.076379 kJ/mol
# Density = 1.820078 g / cm^3
# Si number density = 18.242303 Si / 1000 Ang^3
#
#
#
# Elastic Constant Matrix: (Units=GPa)
#
#
# Indices 1 2 3 4 5 6 
#
# 1 150.1229 27.4154 90.9904 0.0000 0.0000 0.0000
# 2 27.4154 17.3427 27.3463 0.0000 0.0000 0.0000
# 3 90.9904 27.3463 171.7985 0.0000 0.0000 0.0000
# 4 0.0000 0.0000 0.0000 25.9078 0.0000 0.0000
# 5 0.0000 0.0000 0.0000 0.0000 -96.2161 0.0000
# 6 0.0000 0.0000 0.0000 0.0000 0.0000 14.5206
#
#
#
# Elastic Compliance Matrix: (Units=1/GPa)
#
#
# Indices 1 2 3 4 5 6 
#
# 1 0.011229 -0.011179 -0.004168 0.000000 0.000000 0.000000
# 2 -0.011179 0.088112 -0.008105 0.000000 0.000000 0.000000
# 3 -0.004168 -0.008105 0.009318 0.000000 0.000000 0.000000
# 4 0.000000 0.000000 0.000000 0.038598 0.000000 0.000000
# 5 0.000000 0.000000 0.000000 0.000000 -0.010393 0.000000
# 6 0.000000 0.000000 0.000000 0.000000 0.000000 0.068868
#
#
# Mechanical properties :
#
#
# Convention : Reuss Voigt Hill
#
# Bulk Modulus (GPa) = 16.19260 70.08536 43.13898
# Shear Modulus (GPa) = 18.30030 1.74327 10.02178
#
# Velocity S-wave (km/s) = 3.17074 0.97862 2.34641
# Velocity P-wave (km/s) = 4.72233 6.30710 5.57135
#
# Compressibility (1/GPa) = 0.06175659
#
# Stress axis : x y z
#
# Youngs Moduli (GPa) = 89.05710 11.34921 107.31635
#
# Poissons Ratio (x) = 0.12687 0.44727
# Poissons Ratio (y) = 0.99554 0.86977
# Poissons Ratio (z) = 0.37117 0.09198
#
# Static dielectric constant tensor:
#      x y z
#    x 3.817800 0.000000 0.000000 
#    y 0.000000 2.904970 0.000000 
#    z 0.000000 0.000000 3.465030 
# 
# 
# High freq. dielectric constant tensor:
#      x y z
#    x 1.717900 0.000000 0.000000 
#    y 0.000000 1.657910 0.000000 
#    z 0.000000 0.000000 1.712230 
# 
# From -- ./inp_files/69773.got.cif
#   From: 2010.06.25/outbox.cif.g09.slc.cpg/sg71_35_cif.got.tgz:69773.got - 2010.06.28 04:59:45.
