data_PCOD8287109
_publ_section_title
;
Structure prediction by ZEFSAII (Michael W. Deem and Ramdas Pophale) SiO2 
 PCOD8287109
Probable space group: I M M M
;
_chemical_formula_sum "Si O2"
_cell_formula_units_Z 80
_cell_length_a 21.078526
_cell_length_b 14.711729
_cell_length_c 15.009696
_cell_angle_alpha 90.000000
_cell_angle_beta 90.000000
_cell_angle_gamma 90.000000
_cell_volume 4654.530178
_symmetry_space_group_name_H-M "I M M M"
_symmetry_group_IT_number 71
_symmetry_cell_setting 'orthorhombic'
loop_
_space_group_symop_operation_xyz
x,y,z
-x,-y,z
x,-y,-z
-x,y,-z
-x,-y,-z
x,y,-z
-x,y,z
x,-y,z
1/2+x,1/2+y,1/2+z
1/2-x,1/2-y,1/2+z
1/2+x,1/2-y,1/2-z
1/2-x,1/2+y,1/2-z
1/2-x,1/2-y,1/2-z
1/2+x,1/2+y,1/2-z
1/2-x,1/2+y,1/2+z
1/2+x,1/2-y,1/2+z
loop_
_atom_site_type_symbol
_atom_site_label
_atom_site_fract_x
_atom_site_fract_y
_atom_site_fract_z
Si Si1 0.427236 0.603428 0.744189
Si Si2 0.301507 0.099288 0.656126
Si Si3 0.725585 0.181008 0.174688
Si Si4 0.853657 0.212576 0.899347
Si Si5 0.836183 0.841507 0.600758
O O1 0.500000 0.624986 0.765776
O O2 0.418014 0.500000 0.711180
O O3 0.405490 0.671436 0.666621
O O4 0.388712 0.617367 0.834835
O O5 0.300797 0.098037 0.765847
O O6 0.346239 0.179133 0.618249
O O7 0.230994 0.109860 0.616696
O O8 0.327570 0.000000 0.627003
O O9 0.750000 0.250000 0.250000
O O10 0.786746 0.158458 0.113835
O O11 0.671484 0.232346 0.117492
O O12 0.876950 0.197514 0.000000
O O13 0.858869 0.858048 0.500000
#
# Coordination Sequence:
#
# PCOD8287109 Si02
#       5
#    16  16  16  16  16
#     4  11  23  37  51  71 101 137 178 213 243 290
#     4  10  17  29  54  82 107 134 160 199 260 315
#     4   8  14  29  49  75 101 132 161 196 247 305
#     4  10  19  34  52  73 102 135 171 211 252 297
#     4  10  18  32  53  76 106 135 162 203 256 304
#
# _framework density 17.187556000000001
#
# number of rings (size 3 to 8) (size 9 to 14) (size 15 to 20)
#    0.000    2.600    6.000    3.000    0.000    4.000 
#    0.000    2.000    0.000    2.400    0.000    1.400 
#    0.000    1.600    0.000    0.000    0.000    0.000 
#
# Total GULP energy -495576.368761 kJ/mol
# GULP energy per Si atom -12389.409219 kJ/mol
# Density = 1.714844 g / cm^3
# Si number density = 17.187556 Si / 1000 Ang^3
#
#
#
# Elastic Constant Matrix: (Units=GPa)
#
#
# Indices 1 2 3 4 5 6 
#
# 1 72.5532 40.0058 28.8351 0.0000 0.0000 0.0000
# 2 40.0058 66.8965 51.4502 0.0000 0.0000 0.0000
# 3 28.8351 51.4502 120.2620 0.0000 0.0000 0.0000
# 4 0.0000 0.0000 0.0000 10.7077 0.0000 0.0000
# 5 0.0000 0.0000 0.0000 0.0000 6.0910 0.0000
# 6 0.0000 0.0000 0.0000 0.0000 0.0000 20.5881
#
#
#
# Elastic Compliance Matrix: (Units=1/GPa)
#
#
# Indices 1 2 3 4 5 6 
#
# 1 0.020584 -0.012689 0.000493 0.000000 0.000000 0.000000
# 2 -0.012689 0.030101 -0.009835 0.000000 0.000000 0.000000
# 3 0.000493 -0.009835 0.012405 0.000000 0.000000 0.000000
# 4 0.000000 0.000000 0.000000 0.093391 0.000000 0.000000
# 5 0.000000 0.000000 0.000000 0.000000 0.164176 0.000000
# 6 0.000000 0.000000 0.000000 0.000000 0.000000 0.048572
#
#
# Mechanical properties :
#
#
# Convention : Reuss Voigt Hill
#
# Bulk Modulus (GPa) = 52.55597 55.58822 54.07210
# Shear Modulus (GPa) = 11.91521 16.77208 14.34364
#
# Velocity S-wave (km/s) = 2.63581 3.12721 2.89197
# Velocity P-wave (km/s) = 6.31725 6.74178 6.53297
#
# Compressibility (1/GPa) = 0.01902733
#
# Stress axis : x y z
#
# Youngs Moduli (GPa) = 48.58241 33.22139 80.61477
#
# Poissons Ratio (x) = 0.42154 -0.03976
# Poissons Ratio (y) = 0.61645 0.79288
# Poissons Ratio (z) = -0.02396 0.32675
#
# Static dielectric constant tensor:
#      x y z
#    x 2.871760 0.000000 0.000000 
#    y 0.000000 3.497740 0.000000 
#    z 0.000000 0.000000 3.547100 
# 
# 
# High freq. dielectric constant tensor:
#      x y z
#    x 1.615410 0.000000 0.000000 
#    y 0.000000 1.649150 0.000000 
#    z 0.000000 0.000000 1.670650 
# 
# From -- ./inp_files/36239.got.cif
#   From: 2010.06.25/outbox.cif.g09.slc.cpg/sg71_19_cif.got.tgz:36239.got - 2010.06.28 04:59:45.
