data_PCOD8287800
_publ_section_title
;
Structure prediction by ZEFSAII (Michael W. Deem and Ramdas Pophale) SiO2 
 PCOD8287800
Probable space group: I M M M
;
_chemical_formula_sum "Si O2"
_cell_formula_units_Z 104
_cell_length_a 30.165007
_cell_length_b 20.448717
_cell_length_c 9.087730
_cell_angle_alpha 90.000000
_cell_angle_beta 90.000000
_cell_angle_gamma 90.000000
_cell_volume 5605.636218
_symmetry_space_group_name_H-M "I M M M"
_symmetry_group_IT_number 71
_symmetry_cell_setting 'orthorhombic'
loop_
_space_group_symop_operation_xyz
x,y,z
-x,-y,z
x,-y,-z
-x,y,-z
-x,-y,-z
x,y,-z
-x,y,z
x,-y,z
1/2+x,1/2+y,1/2+z
1/2-x,1/2-y,1/2+z
1/2+x,1/2-y,1/2-z
1/2-x,1/2+y,1/2-z
1/2-x,1/2-y,1/2-z
1/2+x,1/2+y,1/2-z
1/2-x,1/2+y,1/2+z
1/2+x,1/2-y,1/2+z
loop_
_atom_site_type_symbol
_atom_site_label
_atom_site_fract_x
_atom_site_fract_y
_atom_site_fract_z
Si Si1 0.164878 0.881168 0.163666
Si Si2 0.079803 0.843708 0.326077
Si Si3 0.224441 0.000000 0.174257
Si Si4 0.049967 0.703487 0.325950
Si Si5 0.500000 0.428334 0.175391
Si Si6 0.323684 0.000000 0.174597
Si Si7 0.795227 0.261097 0.165247
Si Si8 0.139171 0.361837 0.674494
O O1 0.124325 0.877287 0.273356
O O2 0.185045 0.810203 0.155571
O O3 0.199310 0.934562 0.228192
O O4 0.149734 0.903109 0.000000
O O5 0.081454 0.839443 0.500000
O O6 0.068963 0.771793 0.261854
O O7 0.042416 0.891095 0.264682
O O8 0.274011 0.000000 0.241695
O O9 0.228910 0.000000 0.000000
O O10 0.045640 0.708690 0.500000
O O11 0.087260 0.649774 0.282177
O O12 0.000000 0.687858 0.263039
O O13 0.500000 0.500000 0.244496
O O14 0.500000 0.430187 0.000000
O O15 0.349222 0.065038 0.228948
O O16 0.322020 0.000000 0.000000
O O17 0.750000 0.250000 0.250000
O O18 0.828223 0.310044 0.249273
O O19 0.786811 0.288267 0.000000
O O20 0.146019 0.353265 0.500000
#
# Coordination Sequence:
#
# PCOD8287800 Si02
#       8
#    16  16   8  16   8   8  16  16
#     4  10  21  35  51  73 102 135 173 216 263 311
#     4  10  18  31  51  73 100 135 175 217 259 311
#     4   9  18  34  51  67  98 142 175 205 259 328
#     4   9  16  29  51  79 108 140 176 218 271 324
#     4   9  18  30  47  73 103 138 178 215 262 317
#     4   9  18  34  56  79 105 141 180 217 273 338
#     4  11  22  35  54  80 109 140 179 228 276 323
#     4  10  19  34  57  82 108 142 185 226 272 334
#
# _framework density 18.552755999999999
#
# number of rings (size 3 to 8) (size 9 to 14) (size 15 to 20)
#    0.000    2.231    2.308    1.385    1.077    3.077 
#    0.000    1.154    0.000    5.077    0.000    0.000 
#    0.000    1.231    0.000    0.000    0.000    0.000 
#
# Total GULP energy -644429.050187 kJ/mol
# GULP energy per Si atom -12392.866350 kJ/mol
# Density = 1.851053 g / cm^3
# Si number density = 18.552756 Si / 1000 Ang^3
#
#
#
# Elastic Constant Matrix: (Units=GPa)
#
#
# Indices 1 2 3 4 5 6 
#
# 1 174.0848 79.4938 31.7452 0.0000 0.0000 0.0000
# 2 79.4938 141.3234 21.0943 0.0000 0.0000 0.0000
# 3 31.7452 21.0943 38.1465 0.0000 0.0000 0.0000
# 4 0.0000 0.0000 0.0000 16.1074 0.0000 0.0000
# 5 0.0000 0.0000 0.0000 0.0000 27.6742 0.0000
# 6 0.0000 0.0000 0.0000 0.0000 0.0000 82.9434
#
#
#
# Elastic Compliance Matrix: (Units=1/GPa)
#
#
# Indices 1 2 3 4 5 6 
#
# 1 0.008469 -0.004046 -0.004811 0.000000 0.000000 0.000000
# 2 -0.004046 0.009645 -0.001967 0.000000 0.000000 0.000000
# 3 -0.004811 -0.001967 0.031306 0.000000 0.000000 0.000000
# 4 0.000000 0.000000 0.000000 0.062083 0.000000 0.000000
# 5 0.000000 0.000000 0.000000 0.000000 0.036135 0.000000
# 6 0.000000 0.000000 0.000000 0.000000 0.000000 0.012056
#
#
# Mechanical properties :
#
#
# Convention : Reuss Voigt Hill
#
# Bulk Modulus (GPa) = 36.00542 68.69126 52.34834
# Shear Modulus (GPa) = 26.23313 40.09308 33.16310
#
# Velocity S-wave (km/s) = 3.76436 4.65373 4.23247
# Velocity P-wave (km/s) = 6.19218 8.12290 7.22235
#
# Compressibility (1/GPa) = 0.02777360
#
# Stress axis : x y z
#
# Youngs Moduli (GPa) = 118.07758 103.67794 31.94307
#
# Poissons Ratio (x) = 0.41945 0.15367
# Poissons Ratio (y) = 0.47771 0.06283
# Poissons Ratio (z) = 0.56803 0.20392
#
# Static dielectric constant tensor:
#      x y z
#    x 3.666130 0.000000 0.000000 
#    y 0.000000 3.612810 0.000000 
#    z 0.000000 0.000000 3.133660 
# 
# 
# High freq. dielectric constant tensor:
#      x y z
#    x 1.733270 0.000000 0.000000 
#    y 0.000000 1.723660 0.000000 
#    z 0.000000 0.000000 1.673310 
# 
# From -- ./inp_files/17080.got.cif
#   From: 2010.06.25/outbox.cif.g09.slc.cpg/sg71_9_cif.got.tgz:17080.got - 2010.06.28 04:59:45.
