data_PCOD8287718
_publ_section_title
;
Structure prediction by ZEFSAII (Michael W. Deem and Ramdas Pophale) SiO2 
 PCOD8287718
Probable space group: I M M M
;
_chemical_formula_sum "Si O2"
_cell_formula_units_Z 120
_cell_length_a 16.673525
_cell_length_b 21.028073
_cell_length_c 18.947957
_cell_angle_alpha 90.000000
_cell_angle_beta 90.000000
_cell_angle_gamma 90.000000
_cell_volume 6643.383011
_symmetry_space_group_name_H-M "I M M M"
_symmetry_group_IT_number 71
_symmetry_cell_setting 'orthorhombic'
loop_
_space_group_symop_operation_xyz
x,y,z
-x,-y,z
x,-y,-z
-x,y,-z
-x,-y,-z
x,y,-z
-x,y,z
x,-y,z
1/2+x,1/2+y,1/2+z
1/2-x,1/2-y,1/2+z
1/2+x,1/2-y,1/2-z
1/2-x,1/2+y,1/2-z
1/2-x,1/2-y,1/2-z
1/2+x,1/2+y,1/2-z
1/2-x,1/2+y,1/2+z
1/2+x,1/2-y,1/2+z
loop_
_atom_site_type_symbol
_atom_site_label
_atom_site_fract_x
_atom_site_fract_y
_atom_site_fract_z
Si Si1 0.653463 0.635929 0.151053
Si Si2 0.092527 0.664501 0.288240
Si Si3 0.816362 0.573196 0.192077
Si Si4 0.844876 0.774016 0.922553
Si Si5 0.838164 0.270370 0.420263
Si Si6 0.000000 0.074872 0.580316
Si Si7 0.090192 0.202698 0.220201
Si Si8 0.090806 0.362608 0.078481
O O1 0.734385 0.595213 0.154119
O O2 0.658553 0.696748 0.100685
O O3 0.579324 0.595266 0.122505
O O4 0.643678 0.657125 0.232155
O O5 0.155139 0.610609 0.262685
O O6 0.109233 0.685448 0.368788
O O7 0.108828 0.723635 0.236221
O O8 0.000000 0.641391 0.283322
O O9 0.808856 0.500000 0.213600
O O10 0.885040 0.582763 0.133237
O O11 0.752851 0.793979 0.915722
O O12 0.893161 0.811308 0.862075
O O13 0.852279 0.698348 0.912188
O O14 0.878727 0.793299 0.000000
O O15 0.871469 0.277788 0.500000
O O16 0.000000 0.102516 0.500000
O O17 0.000000 0.000000 0.576827
O O18 0.000000 0.185944 0.239886
O O19 0.000000 0.340288 0.094158
O O20 0.098833 0.391183 0.000000
#
# Coordination Sequence:
#
# PCOD8287718 Si02
#       8
#    16  16  16  16  16   8  16  16
#     4  11  21  38  56  82 111 145 189 233 278 340
#     4  10  21  36  54  82 113 146 190 239 293 342
#     4  12  24  37  57  78 107 152 199 237 274 329
#     4  10  18  30  51  80 112 144 174 216 279 339
#     4  10  20  34  57  85 112 143 182 236 297 347
#     4  11  24  40  56  78 115 157 190 228 276 335
#     4  10  18  32  55  80 107 141 177 224 285 344
#     4  10  20  34  50  72 107 147 186 225 269 324
#
# _framework density 18.063085999999998
#
# number of rings (size 3 to 8) (size 9 to 14) (size 15 to 20)
#    0.000    1.533    3.333    2.400    0.933    5.067 
#    0.000    0.667    0.000    0.400    0.000    0.933 
#    0.000    2.133    0.000    0.000    0.000    0.000 
#
# Total GULP energy -743899.552136 kJ/mol
# GULP energy per Si atom -12398.325869 kJ/mol
# Density = 1.802197 g / cm^3
# Si number density = 18.063086 Si / 1000 Ang^3
#
#
#
# Elastic Constant Matrix: (Units=GPa)
#
#
# Indices 1 2 3 4 5 6 
#
# 1 80.2399 30.8422 35.6589 0.0000 0.0000 0.0000
# 2 30.8422 53.2655 31.2098 0.0000 0.0000 0.0000
# 3 35.6589 31.2098 137.4733 0.0000 0.0000 0.0000
# 4 0.0000 0.0000 0.0000 15.7175 0.0000 0.0000
# 5 0.0000 0.0000 0.0000 0.0000 29.1425 0.0000
# 6 0.0000 0.0000 0.0000 0.0000 0.0000 14.3662
#
#
#
# Elastic Compliance Matrix: (Units=1/GPa)
#
#
# Indices 1 2 3 4 5 6 
#
# 1 0.016726 -0.008239 -0.002468 0.000000 0.000000 0.000000
# 2 -0.008239 0.025712 -0.003700 0.000000 0.000000 0.000000
# 3 -0.002468 -0.003700 0.008754 0.000000 0.000000 0.000000
# 4 0.000000 0.000000 0.000000 0.063623 0.000000 0.000000
# 5 0.000000 0.000000 0.000000 0.000000 0.034314 0.000000
# 6 0.000000 0.000000 0.000000 0.000000 0.000000 0.069608
#
#
# Mechanical properties :
#
#
# Convention : Reuss Voigt Hill
#
# Bulk Modulus (GPa) = 44.68557 51.82228 48.25392
# Shear Modulus (GPa) = 19.60690 23.39645 21.50167
#
# Velocity S-wave (km/s) = 3.29822 3.60288 3.45391
# Velocity P-wave (km/s) = 6.26870 6.78672 6.53285
#
# Compressibility (1/GPa) = 0.02237859
#
# Stress axis : x y z
#
# Youngs Moduli (GPa) = 59.78617 38.89162 114.22803
#
# Poissons Ratio (x) = 0.32042 0.28194
# Poissons Ratio (y) = 0.49257 0.42268
# Poissons Ratio (z) = 0.14756 0.14391
#
# Static dielectric constant tensor:
#      x y z
#    x 3.436900 0.000000 0.000000 
#    y 0.000000 2.889920 0.000000 
#    z 0.000000 0.000000 3.524800 
# 
# 
# High freq. dielectric constant tensor:
#      x y z
#    x 1.712860 0.000000 0.000000 
#    y 0.000000 1.645340 0.000000 
#    z 0.000000 0.000000 1.711340 
# 
# From -- ./inp_files/47566.got.cif
#   From: 2010.06.25/outbox.cif.g09.slc.cpg/sg71_24_cif.got.tgz:47566.got - 2010.06.28 04:59:45.
