data_PCOD8287983
_publ_section_title
;
Structure prediction by ZEFSAII (Michael W. Deem and Ramdas Pophale) SiO2 
 PCOD8287983
Probable space group: I M M M
;
_chemical_formula_sum "Si O2"
_cell_formula_units_Z 96
_cell_length_a 23.132899
_cell_length_b 21.570712
_cell_length_c 11.140406
_cell_angle_alpha 90.000000
_cell_angle_beta 90.000000
_cell_angle_gamma 90.000000
_cell_volume 5558.985748
_symmetry_space_group_name_H-M "I M M M"
_symmetry_group_IT_number 71
_symmetry_cell_setting 'orthorhombic'
loop_
_space_group_symop_operation_xyz
x,y,z
-x,-y,z
x,-y,-z
-x,y,-z
-x,-y,-z
x,y,-z
-x,y,z
x,-y,z
1/2+x,1/2+y,1/2+z
1/2-x,1/2-y,1/2+z
1/2+x,1/2-y,1/2-z
1/2-x,1/2+y,1/2-z
1/2-x,1/2-y,1/2-z
1/2+x,1/2+y,1/2-z
1/2-x,1/2+y,1/2+z
1/2+x,1/2-y,1/2+z
loop_
_atom_site_type_symbol
_atom_site_label
_atom_site_fract_x
_atom_site_fract_y
_atom_site_fract_z
Si Si1 0.565109 0.256060 0.789217
Si Si2 0.561786 0.119567 0.136430
Si Si3 0.826736 0.757620 0.864729
Si Si4 0.432731 0.350478 0.000000
Si Si5 0.820371 0.925314 0.500000
Si Si6 0.243870 0.848328 0.701840
Si Si7 0.678655 0.930036 0.140163
O O1 0.500000 0.265161 0.740499
O O2 0.571688 0.193009 0.863586
O O3 0.606454 0.251371 0.673506
O O4 0.581160 0.310945 0.880941
O O5 0.500000 0.102791 0.199818
O O6 0.615716 0.084883 0.198922
O O7 0.558248 0.096855 0.000000
O O8 0.800839 0.803299 0.766260
O O9 0.792892 0.692040 0.865151
O O10 0.824226 0.784415 0.000000
O O11 0.388871 0.408867 0.000000
O O12 0.500000 0.372615 0.000000
O O13 0.789241 0.895175 0.385469
O O14 0.813271 0.000000 0.500000
O O15 0.272244 0.887999 0.805851
O O16 0.695284 0.000000 0.168472
O O17 0.676505 0.914895 0.000000
#
# Coordination Sequence:
#
# PCOD8287983 Si02
#       7
#    16  16  16   8   8  16  16
#     4  10  18  32  56  81 109 139 174 225 278 333
#     4   9  16  27  47  75 103 136 178 225 276 317
#     4  11  22  35  56  81 109 141 179 226 278 330
#     4  10  20  37  60  88 111 137 181 233 294 336
#     4  12  24  39  60  84 113 149 187 227 275 335
#     4  11  22  37  53  80 111 141 181 226 278 328
#     4  10  20  33  50  72 104 147 185 221 267 325
#
# _framework density 17.269338000000001
#
# number of rings (size 3 to 8) (size 9 to 14) (size 15 to 20)
#    0.000    1.667    5.000    1.000    0.000    0.833 
#    0.000    1.667    0.000    0.000    0.000    0.000 
#    0.000    8.000    0.000    0.000    0.000    0.000 
#
# Total GULP energy -594917.307318 kJ/mol
# GULP energy per Si atom -12394.110569 kJ/mol
# Density = 1.723003 g / cm^3
# Si number density = 17.269338 Si / 1000 Ang^3
#
#
#
# Elastic Constant Matrix: (Units=GPa)
#
#
# Indices 1 2 3 4 5 6 
#
# 1 103.7884 39.5804 29.6208 0.0000 0.0000 0.0000
# 2 39.5804 78.7978 31.1039 0.0000 0.0000 0.0000
# 3 29.6208 31.1039 55.8580 0.0000 0.0000 0.0000
# 4 0.0000 0.0000 0.0000 20.4572 0.0000 0.0000
# 5 0.0000 0.0000 0.0000 0.0000 23.6635 0.0000
# 6 0.0000 0.0000 0.0000 0.0000 0.0000 21.8126
#
#
#
# Elastic Compliance Matrix: (Units=1/GPa)
#
#
# Indices 1 2 3 4 5 6 
#
# 1 0.012593 -0.004729 -0.004045 0.000000 0.000000 0.000000
# 2 -0.004729 0.018042 -0.007539 0.000000 0.000000 0.000000
# 3 -0.004045 -0.007539 0.024245 0.000000 0.000000 0.000000
# 4 0.000000 0.000000 0.000000 0.048883 0.000000 0.000000
# 5 0.000000 0.000000 0.000000 0.000000 0.042259 0.000000
# 6 0.000000 0.000000 0.000000 0.000000 0.000000 0.045845
#
#
# Mechanical properties :
#
#
# Convention : Reuss Voigt Hill
#
# Bulk Modulus (GPa) = 44.93288 48.78383 46.85836
# Shear Modulus (GPa) = 21.56019 22.39595 21.97807
#
# Velocity S-wave (km/s) = 3.53720 3.60510 3.57131
# Velocity P-wave (km/s) = 6.53894 6.75568 6.64819
#
# Compressibility (1/GPa) = 0.02225542
#
# Stress axis : x y z
#
# Youngs Moduli (GPa) = 79.41142 55.42696 41.24539
#
# Poissons Ratio (x) = 0.26210 0.16682
# Poissons Ratio (y) = 0.37552 0.31094
# Poissons Ratio (z) = 0.32118 0.41785
#
# Static dielectric constant tensor:
#      x y z
#    x 3.472840 0.000000 0.000000 
#    y 0.000000 3.082040 0.000000 
#    z 0.000000 0.000000 2.929320 
# 
# 
# High freq. dielectric constant tensor:
#      x y z
#    x 1.683770 0.000000 0.000000 
#    y 0.000000 1.652970 0.000000 
#    z 0.000000 0.000000 1.639910 
# 
# From -- ./inp_files/26012.got.cif
#   From: 2010.06.25/outbox.cif.g09.slc.cpg/sg71_14_cif.got.tgz:26012.got - 2010.06.28 04:59:45.
