data_PCOD8287544
_publ_section_title
;
Structure prediction by ZEFSAII (Michael W. Deem and Ramdas Pophale) SiO2 
 PCOD8287544
Probable space group: I M M M
;
_chemical_formula_sum "Si O2"
_cell_formula_units_Z 104
_cell_length_a 23.649872
_cell_length_b 22.241439
_cell_length_c 14.074751
_cell_angle_alpha 90.000000
_cell_angle_beta 90.000000
_cell_angle_gamma 90.000000
_cell_volume 7403.420159
_symmetry_space_group_name_H-M "I M M M"
_symmetry_group_IT_number 71
_symmetry_cell_setting 'orthorhombic'
loop_
_space_group_symop_operation_xyz
x,y,z
-x,-y,z
x,-y,-z
-x,y,-z
-x,-y,-z
x,y,-z
-x,y,z
x,-y,z
1/2+x,1/2+y,1/2+z
1/2-x,1/2-y,1/2+z
1/2+x,1/2-y,1/2-z
1/2-x,1/2+y,1/2-z
1/2-x,1/2-y,1/2-z
1/2+x,1/2+y,1/2-z
1/2-x,1/2+y,1/2+z
1/2+x,1/2-y,1/2+z
loop_
_atom_site_type_symbol
_atom_site_label
_atom_site_fract_x
_atom_site_fract_y
_atom_site_fract_z
Si Si1 0.880040 0.500000 0.885803
Si Si2 0.778245 0.500000 0.249999
Si Si3 0.380039 0.000000 0.885803
Si Si4 0.566788 0.907826 0.250000
Si Si5 0.763285 0.129111 0.749999
Si Si6 0.853608 0.698553 0.750000
Si Si7 0.808603 0.215203 0.104617
Si Si8 0.691396 0.284796 0.104617
O O1 0.816183 0.500000 0.845662
O O2 0.911856 0.558798 0.845478
O O3 0.879919 0.500000 0.000000
O O4 0.816182 0.500000 0.345663
O O5 0.737207 0.442683 0.249999
O O6 0.411854 0.941202 0.845477
O O7 0.379918 0.000000 0.000000
O O8 0.500000 0.906324 0.249998
O O9 0.589190 0.839745 0.250001
O O10 0.699124 0.152951 0.750000
O O11 0.797651 0.152405 0.841832
O O12 0.797650 0.152406 0.658166
O O13 0.853110 0.741886 0.841823
O O14 0.853110 0.741886 0.658178
O O15 0.750000 0.249999 0.100992
O O16 0.832315 0.201165 0.000000
O O17 0.667684 0.298834 0.000000
#
# Coordination Sequence:
#
# PCOD8287544 Si02
#       8
#     8   8   8  16  16  16  16  16
#     4  10  20  32  43  54  76 112 146 177 214 239
#     4  10  18  30  41  62  84 108 137 176 200 234
#     4  10  20  32  43  54  76 112 146 177 214 239
#     4  10  20  33  44  57  78 103 141 185 214 241
#     4   9  15  27  40  56  82 102 132 163 198 235
#     4   9  15  28  41  57  77 100 130 169 206 240
#     4   8  15  25  41  59  76  99 126 159 199 246
#     4   8  15  25  41  59  76  99 126 159 199 246
#
# _framework density 14.047561999999999
#
# number of rings (size 3 to 8) (size 9 to 14) (size 15 to 20)
#    0.000    3.077    3.077    2.769    0.000    3.692 
#    0.000    0.000    0.000    0.000    0.000    0.000 
#    0.000    0.000    0.000   11.077    0.000   14.154 
#
# Total GULP energy -644494.103824 kJ/mol
# GULP energy per Si atom -12394.117381 kJ/mol
# Density = 1.401559 g / cm^3
# Si number density = 14.047562 Si / 1000 Ang^3
#
#
#
# Elastic Constant Matrix: (Units=GPa)
#
#
# Indices 1 2 3 4 5 6 
#
# 1 33.5693 41.9809 27.9481 0.0000 0.0000 0.0000
# 2 41.9809 118.6266 54.1446 0.0000 0.0000 0.0000
# 3 27.9481 54.1446 145.0315 0.0000 0.0000 0.0000
# 4 0.0000 0.0000 0.0000 6.9396 0.0000 0.0000
# 5 0.0000 0.0000 0.0000 0.0000 4.4742 0.0000
# 6 0.0000 0.0000 0.0000 0.0000 0.0000 14.9608
#
#
#
# Elastic Compliance Matrix: (Units=1/GPa)
#
#
# Indices 1 2 3 4 5 6 
#
# 1 0.055337 -0.017739 -0.004041 0.000000 0.000000 0.000000
# 2 -0.017739 0.015848 -0.002498 0.000000 0.000000 0.000000
# 3 -0.004041 -0.002498 0.008606 0.000000 0.000000 0.000000
# 4 0.000000 0.000000 0.000000 0.144100 0.000000 0.000000
# 5 0.000000 0.000000 0.000000 0.000000 0.223505 0.000000
# 6 0.000000 0.000000 0.000000 0.000000 0.000000 0.066841
#
#
# Mechanical properties :
#
#
# Convention : Reuss Voigt Hill
#
# Bulk Modulus (GPa) = 32.01530 60.59720 46.30625
# Shear Modulus (GPa) = 8.72287 16.81850 12.77069
#
# Velocity S-wave (km/s) = 2.49460 3.46389 3.01841
# Velocity P-wave (km/s) = 5.58010 7.69603 6.72184
#
# Compressibility (1/GPa) = 0.03123507
#
# Stress axis : x y z
#
# Youngs Moduli (GPa) = 18.07096 63.10092 116.19230
#
# Poissons Ratio (x) = 1.11934 0.46956
# Poissons Ratio (y) = 0.32056 0.29025
# Poissons Ratio (z) = 0.07303 0.15763
#
# Static dielectric constant tensor:
#      x y z
#    x 2.336310 0.000000 0.000000 
#    y 0.000000 2.742920 0.000000 
#    z 0.000000 0.000000 3.152780 
# 
# 
# High freq. dielectric constant tensor:
#      x y z
#    x 1.479520 0.000000 0.000000 
#    y 0.000000 1.526710 0.000000 
#    z 0.000000 0.000000 1.541820 
# 
# From -- ./inp_files/39705.got.cif
#   From: 2010.06.25/outbox.cif.g09.slc.cpg/sg71_20_cif.got.tgz:39705.got - 2010.06.28 04:59:45.
