data_PCOD8287979
_publ_section_title
;
Structure prediction by ZEFSAII (Michael W. Deem and Ramdas Pophale) SiO2 
 PCOD8287979
Probable space group: I M M M
;
_chemical_formula_sum "Si O2"
_cell_formula_units_Z 88
_cell_length_a 17.206795
_cell_length_b 20.831315
_cell_length_c 14.596441
_cell_angle_alpha 90.000000
_cell_angle_beta 90.000000
_cell_angle_gamma 90.000000
_cell_volume 5231.950747
_symmetry_space_group_name_H-M "I M M M"
_symmetry_group_IT_number 71
_symmetry_cell_setting 'orthorhombic'
loop_
_space_group_symop_operation_xyz
x,y,z
-x,-y,z
x,-y,-z
-x,y,-z
-x,-y,-z
x,y,-z
-x,y,z
x,-y,z
1/2+x,1/2+y,1/2+z
1/2-x,1/2-y,1/2+z
1/2+x,1/2-y,1/2-z
1/2-x,1/2+y,1/2-z
1/2-x,1/2-y,1/2-z
1/2+x,1/2+y,1/2-z
1/2-x,1/2+y,1/2+z
1/2+x,1/2-y,1/2+z
loop_
_atom_site_type_symbol
_atom_site_label
_atom_site_fract_x
_atom_site_fract_y
_atom_site_fract_z
Si Si1 0.194974 0.215408 0.823429
Si Si2 0.651286 0.783213 0.900019
Si Si3 0.692023 0.074424 0.605630
Si Si4 0.591142 0.172870 0.289662
Si Si5 0.500000 0.575372 0.102382
Si Si6 0.348929 0.359774 0.164608
O O1 0.250000 0.250000 0.750000
O O2 0.255030 0.200964 0.905436
O O3 0.125691 0.265523 0.845684
O O4 0.163088 0.151161 0.774299
O O5 0.608532 0.822747 0.819464
O O6 0.636725 0.707699 0.885783
O O7 0.617529 0.802727 0.000000
O O8 0.667530 0.083240 0.500000
O O9 0.628915 0.108451 0.670342
O O10 0.776757 0.104292 0.619479
O O11 0.694308 0.000000 0.633419
O O12 0.500000 0.170798 0.307214
O O13 0.500000 0.500000 0.097824
O O14 0.575595 0.597088 0.156676
O O15 0.500000 0.604554 0.000000
#
# Coordination Sequence:
#
# PCOD8287979 Si02
#       6
#    16  16  16  16   8  16
#     4   8  16  31  50  73  94 129 168 207 253 296
#     4  10  18  32  56  78  98 129 170 214 262 306
#     4  11  21  34  53  72  97 140 180 204 241 303
#     4  10  20  34  48  74 107 132 169 214 255 300
#     4  11  22  30  42  74 113 141 166 199 241 299
#     4  10  18  33  49  73 107 136 166 204 248 299
#
# _framework density 16.81973
#
# number of rings (size 3 to 8) (size 9 to 14) (size 15 to 20)
#    0.000    2.455    5.455    2.182    5.091    2.545 
#    0.000    0.909    0.000    0.545    0.000    1.273 
#    0.000    0.727    0.000    0.000    0.000    0.000 
#
# Total GULP energy -545201.904869 kJ/mol
# GULP energy per Si atom -12390.952383 kJ/mol
# Density = 1.678145 g / cm^3
# Si number density = 16.819730 Si / 1000 Ang^3
#
#
#
# Elastic Constant Matrix: (Units=GPa)
#
#
# Indices 1 2 3 4 5 6 
#
# 1 116.9464 32.7210 17.8803 0.0000 0.0000 0.0000
# 2 32.7210 82.8854 34.4603 0.0000 0.0000 0.0000
# 3 17.8803 34.4603 49.7621 0.0000 0.0000 0.0000
# 4 0.0000 0.0000 0.0000 24.0672 0.0000 0.0000
# 5 0.0000 0.0000 0.0000 0.0000 10.5338 0.0000
# 6 0.0000 0.0000 0.0000 0.0000 0.0000 15.1507
#
#
#
# Elastic Compliance Matrix: (Units=1/GPa)
#
#
# Indices 1 2 3 4 5 6 
#
# 1 0.009661 -0.003329 -0.001166 0.000000 0.000000 0.000000
# 2 -0.003329 0.018090 -0.011331 0.000000 0.000000 0.000000
# 3 -0.001166 -0.011331 0.028361 0.000000 0.000000 0.000000
# 4 0.000000 0.000000 0.000000 0.041550 0.000000 0.000000
# 5 0.000000 0.000000 0.000000 0.000000 0.094933 0.000000
# 6 0.000000 0.000000 0.000000 0.000000 0.000000 0.066004
#
#
# Mechanical properties :
#
#
# Convention : Reuss Voigt Hill
#
# Bulk Modulus (GPa) = 40.88327 46.63522 43.75924
# Shear Modulus (GPa) = 16.75579 20.91915 18.83747
#
# Velocity S-wave (km/s) = 3.15969 3.53048 3.35021
# Velocity P-wave (km/s) = 6.13767 6.66376 6.40612
#
# Compressibility (1/GPa) = 0.02445989
#
# Stress axis : x y z
#
# Youngs Moduli (GPa) = 103.51289 55.27877 35.25922
#
# Poissons Ratio (x) = 0.18403 0.04111
# Poissons Ratio (y) = 0.34460 0.39953
# Poissons Ratio (z) = 0.12068 0.62638
#
# Static dielectric constant tensor:
#      x y z
#    x 3.380030 0.000000 0.000000 
#    y 0.000000 3.074450 0.000000 
#    z 0.000000 0.000000 3.524400 
# 
# 
# High freq. dielectric constant tensor:
#      x y z
#    x 1.653070 0.000000 0.000000 
#    y 0.000000 1.623850 0.000000 
#    z 0.000000 0.000000 1.629130 
# 
# From -- ./inp_files/36586.got.cif
#   From: 2010.06.25/outbox.cif.g09.slc.cpg/sg71_19_cif.got.tgz:36586.got - 2010.06.28 04:59:45.
