data_PCOD8287159
_publ_section_title
;
Structure prediction by ZEFSAII (Michael W. Deem and Ramdas Pophale) SiO2 
 PCOD8287159
Probable space group: I M M M
;
_chemical_formula_sum "Si O2"
_cell_formula_units_Z 72
_cell_length_a 27.512249
_cell_length_b 9.404334
_cell_length_c 18.931639
_cell_angle_alpha 90.000000
_cell_angle_beta 90.000000
_cell_angle_gamma 90.000000
_cell_volume 4898.265854
_symmetry_space_group_name_H-M "I M M M"
_symmetry_group_IT_number 71
_symmetry_cell_setting 'orthorhombic'
loop_
_space_group_symop_operation_xyz
x,y,z
-x,-y,z
x,-y,-z
-x,y,-z
-x,-y,-z
x,y,-z
-x,y,z
x,-y,z
1/2+x,1/2+y,1/2+z
1/2-x,1/2-y,1/2+z
1/2+x,1/2-y,1/2-z
1/2-x,1/2+y,1/2-z
1/2-x,1/2-y,1/2-z
1/2+x,1/2+y,1/2-z
1/2-x,1/2+y,1/2+z
1/2+x,1/2-y,1/2+z
loop_
_atom_site_type_symbol
_atom_site_label
_atom_site_fract_x
_atom_site_fract_y
_atom_site_fract_z
Si Si1 0.601267 0.663224 0.639643
Si Si2 0.662243 0.343064 0.500000
Si Si3 0.243196 0.164600 0.500000
Si Si4 0.175780 0.666120 0.226120
Si Si5 0.000000 0.168904 0.079947
Si Si6 0.276851 0.335549 0.153887
O O1 0.601884 0.500000 0.666260
O O2 0.628896 0.680229 0.566858
O O3 0.626685 0.761791 0.697968
O O4 0.546699 0.718733 0.625097
O O5 0.685565 0.500000 0.500000
O O6 0.704540 0.231989 0.500000
O O7 0.214093 0.204520 0.571493
O O8 0.254982 0.000000 0.500000
O O9 0.166263 0.500000 0.236982
O O10 0.220456 0.695442 0.172721
O O11 0.187827 0.735110 0.301768
O O12 0.000000 0.000000 0.072385
O O13 0.000000 0.233351 0.000000
O O14 0.289302 0.500000 0.170003
#
# Coordination Sequence:
#
# PCOD8287159 Si02
#       6
#    16   8   8  16   8  16
#     4  10  18  29  45  63  86 116 152 188 220 255
#     4  10  18  25  40  64  86 114 149 185 218 255
#     4  10  18  30  45  63  87 115 145 182 222 259
#     4  10  19  30  44  61  86 117 147 180 219 260
#     4   9  16  28  45  65  87 114 151 190 221 251
#     4   9  18  30  44  62  85 113 146 180 217 260
#
# _framework density 14.699078999999999
#
# number of rings (size 3 to 8) (size 9 to 14) (size 15 to 20)
#    0.000    2.333    3.333    0.667    0.000    1.778 
#    0.000    0.556    0.000    0.667    0.000    0.000 
#    0.000    0.889    0.000   10.222    0.000    4.000 
#
# Total GULP energy -446311.253133 kJ/mol
# GULP energy per Si atom -12397.534809 kJ/mol
# Density = 1.466562 g / cm^3
# Si number density = 14.699079 Si / 1000 Ang^3
#
#
#
# Elastic Constant Matrix: (Units=GPa)
#
#
# Indices 1 2 3 4 5 6 
#
# 1 88.7948 45.9054 51.9042 0.0000 0.0000 0.0000
# 2 45.9054 65.2082 55.1279 0.0000 0.0000 0.0000
# 3 51.9042 55.1279 109.6725 0.0000 0.0000 0.0000
# 4 0.0000 0.0000 0.0000 21.3354 0.0000 0.0000
# 5 0.0000 0.0000 0.0000 0.0000 46.0675 0.0000
# 6 0.0000 0.0000 0.0000 0.0000 0.0000 18.4367
#
#
#
# Elastic Compliance Matrix: (Units=1/GPa)
#
#
# Indices 1 2 3 4 5 6 
#
# 1 0.018601 -0.009830 -0.003862 0.000000 0.000000 0.000000
# 2 -0.009830 0.031863 -0.011364 0.000000 0.000000 0.000000
# 3 -0.003862 -0.011364 0.016658 0.000000 0.000000 0.000000
# 4 0.000000 0.000000 0.000000 0.046870 0.000000 0.000000
# 5 0.000000 0.000000 0.000000 0.000000 0.021707 0.000000
# 6 0.000000 0.000000 0.000000 0.000000 0.000000 0.054240
#
#
# Mechanical properties :
#
#
# Convention : Reuss Voigt Hill
#
# Bulk Modulus (GPa) = 58.78869 63.28340 61.03605
# Shear Modulus (GPa) = 20.34816 24.55045 22.44931
#
# Velocity S-wave (km/s) = 3.72468 4.09125 3.91226
# Velocity P-wave (km/s) = 7.65371 8.09097 7.87537
#
# Compressibility (1/GPa) = 0.01701007
#
# Stress axis : x y z
#
# Youngs Moduli (GPa) = 53.75917 31.38456 60.03031
#
# Poissons Ratio (x) = 0.30850 0.23186
# Poissons Ratio (y) = 0.52844 0.68219
# Poissons Ratio (z) = 0.20764 0.35666
#
# Static dielectric constant tensor:
#      x y z
#    x 2.744300 0.000000 0.000000 
#    y 0.000000 2.829390 0.000000 
#    z 0.000000 0.000000 2.916710 
# 
# 
# High freq. dielectric constant tensor:
#      x y z
#    x 1.530430 0.000000 0.000000 
#    y 0.000000 1.558980 0.000000 
#    z 0.000000 0.000000 1.554230 
# 
# From -- ./inp_files/8208.got.cif
#   From: 2010.06.25/outbox.cif.g09.slc.cpg/sg71_5_cif.got.tgz:8208.got - 2010.06.28 04:59:45.
