data_PCOD8287047
_publ_section_title
;
Structure prediction by ZEFSAII (Michael W. Deem and Ramdas Pophale) SiO2 
 PCOD8287047
Probable space group: I M M M
;
_chemical_formula_sum "Si O2"
_cell_formula_units_Z 56
_cell_length_a 23.319480
_cell_length_b 18.400391
_cell_length_c 7.872067
_cell_angle_alpha 90.000000
_cell_angle_beta 90.000000
_cell_angle_gamma 90.000000
_cell_volume 3377.805942
_symmetry_space_group_name_H-M "I M M M"
_symmetry_group_IT_number 71
_symmetry_cell_setting 'orthorhombic'
loop_
_space_group_symop_operation_xyz
x,y,z
-x,-y,z
x,-y,-z
-x,y,-z
-x,-y,-z
x,y,-z
-x,y,z
x,-y,z
1/2+x,1/2+y,1/2+z
1/2-x,1/2-y,1/2+z
1/2+x,1/2-y,1/2-z
1/2-x,1/2+y,1/2-z
1/2-x,1/2-y,1/2-z
1/2+x,1/2+y,1/2-z
1/2-x,1/2+y,1/2+z
1/2+x,1/2-y,1/2+z
loop_
_atom_site_type_symbol
_atom_site_label
_atom_site_fract_x
_atom_site_fract_y
_atom_site_fract_z
Si Si1 0.567753 0.583074 0.000000
Si Si2 0.366895 0.650838 0.310985
Si Si3 0.751227 0.917718 0.696358
Si Si4 0.809305 0.285864 0.301406
O O1 0.589760 0.621011 0.170860
O O2 0.589363 0.500000 0.000000
O O3 0.500000 0.588396 0.000000
O O4 0.392041 0.637159 0.500000
O O5 0.305802 0.610200 0.300995
O O6 0.359196 0.738095 0.286077
O O7 0.768028 0.910863 0.500000
O O8 0.694419 0.869496 0.737910
O O9 0.736352 0.000000 0.747977
O O10 0.819960 0.282644 0.500000
O O11 0.750000 0.250000 0.250000
#
# Coordination Sequence:
#
# PCOD8287047 Si02
#       4
#     8  16  16  16
#     4  11  24  40  54  72  97 125 169 219 253 286
#     4  11  20  34  53  70  96 132 169 203 249 296
#     4  10  18  28  44  71 106 136 165 200 239 290
#     4  10  17  28  45  68  97 129 166 201 235 291
#
# _framework density 16.578810000000001
#
# number of rings (size 3 to 8) (size 9 to 14) (size 15 to 20)
#    0.000    1.571    2.857    7.714    0.000    4.571 
#    0.000    1.429    0.000    0.000    0.000    0.000 
#    0.000    2.286    0.000    6.000    0.000    0.000 
#
# Total GULP energy -347071.597190 kJ/mol
# GULP energy per Si atom -12395.414185 kJ/mol
# Density = 1.654108 g / cm^3
# Si number density = 16.578810 Si / 1000 Ang^3
#
#
#
# Elastic Constant Matrix: (Units=GPa)
#
#
# Indices 1 2 3 4 5 6 
#
# 1 39.0108 31.7468 24.3695 0.0000 0.0000 0.0000
# 2 31.7468 128.4180 37.6881 0.0000 0.0000 0.0000
# 3 24.3695 37.6881 133.9682 0.0000 0.0000 0.0000
# 4 0.0000 0.0000 0.0000 25.5924 0.0000 0.0000
# 5 0.0000 0.0000 0.0000 0.0000 12.9508 0.0000
# 6 0.0000 0.0000 0.0000 0.0000 0.0000 20.1914
#
#
#
# Elastic Compliance Matrix: (Units=1/GPa)
#
#
# Indices 1 2 3 4 5 6 
#
# 1 0.034107 -0.007206 -0.004177 0.000000 0.000000 0.000000
# 2 -0.007206 0.010010 -0.001505 0.000000 0.000000 0.000000
# 3 -0.004177 -0.001505 0.008648 0.000000 0.000000 0.000000
# 4 0.000000 0.000000 0.000000 0.039074 0.000000 0.000000
# 5 0.000000 0.000000 0.000000 0.000000 0.077215 0.000000
# 6 0.000000 0.000000 0.000000 0.000000 0.000000 0.049526
#
#
# Mechanical properties :
#
#
# Convention : Reuss Voigt Hill
#
# Bulk Modulus (GPa) = 37.05249 54.33397 45.69323
# Shear Modulus (GPa) = 19.73524 25.58643 22.66084
#
# Velocity S-wave (km/s) = 3.45395 3.93277 3.70111
# Velocity P-wave (km/s) = 6.18903 7.31208 6.77387
#
# Compressibility (1/GPa) = 0.02698874
#
# Stress axis : x y z
#
# Youngs Moduli (GPa) = 29.31910 99.89754 115.63669
#
# Poissons Ratio (x) = 0.71986 0.48303
# Poissons Ratio (y) = 0.21127 0.17407
# Poissons Ratio (z) = 0.12247 0.15038
#
# Static dielectric constant tensor:
#      x y z
#    x 2.670600 0.000000 0.000000 
#    y 0.000000 3.824300 0.000000 
#    z 0.000000 0.000000 3.252400 
# 
# 
# High freq. dielectric constant tensor:
#      x y z
#    x 1.564340 0.000000 0.000000 
#    y 0.000000 1.649980 0.000000 
#    z 0.000000 0.000000 1.660250 
# 
# From -- ./inp_files/9468.got.cif
#   From: 2010.06.25/outbox.cif.g09.slc.cpg/sg71_5_cif.got.tgz:9468.got - 2010.06.28 04:59:45.
