data_PCOD8287549
_publ_section_title
;
Structure prediction by ZEFSAII (Michael W. Deem and Ramdas Pophale) SiO2 
 PCOD8287549
Probable space group: I M M M
;
_chemical_formula_sum "Si O2"
_cell_formula_units_Z 72
_cell_length_a 7.915521
_cell_length_b 19.118014
_cell_length_c 30.700606
_cell_angle_alpha 90.000000
_cell_angle_beta 90.000000
_cell_angle_gamma 90.000000
_cell_volume 4645.893273
_symmetry_space_group_name_H-M "I M M M"
_symmetry_group_IT_number 71
_symmetry_cell_setting 'orthorhombic'
loop_
_space_group_symop_operation_xyz
x,y,z
-x,-y,z
x,-y,-z
-x,y,-z
-x,-y,-z
x,y,-z
-x,y,z
x,-y,z
1/2+x,1/2+y,1/2+z
1/2-x,1/2-y,1/2+z
1/2+x,1/2-y,1/2-z
1/2-x,1/2+y,1/2-z
1/2-x,1/2-y,1/2-z
1/2+x,1/2+y,1/2-z
1/2-x,1/2+y,1/2+z
1/2+x,1/2-y,1/2+z
loop_
_atom_site_type_symbol
_atom_site_label
_atom_site_fract_x
_atom_site_fract_y
_atom_site_fract_z
Si Si1 0.312216 0.500000 0.167964
Si Si2 0.188817 0.500000 0.260598
Si Si3 0.693995 0.279278 0.183483
Si Si4 0.696104 0.368850 0.893383
Si Si5 0.000000 0.418644 0.051372
Si Si6 0.194994 0.151162 0.770178
O O1 0.500000 0.500000 0.188643
O O2 0.185159 0.500000 0.208275
O O3 0.283875 0.433136 0.138867
O O4 0.278219 0.430641 0.279093
O O5 0.000000 0.500000 0.278362
O O6 0.500000 0.300344 0.182786
O O7 0.759327 0.302190 0.135493
O O8 0.721415 0.196582 0.190936
O O9 0.775811 0.323909 0.223728
O O10 0.500000 0.362646 0.910525
O O11 0.828646 0.380058 0.932466
O O12 0.000000 0.500000 0.066033
O O13 0.000000 0.411906 0.000000
O O14 0.000000 0.170026 0.770998
#
# Coordination Sequence:
#
# PCOD8287549 Si02
#       6
#     8   8  16  16   8  16
#     4  10  18  30  44  65  88 119 165 201 235 284
#     4  12  22  28  42  62  91 129 163 202 238 275
#     4   9  18  31  45  65  89 117 158 200 238 281
#     4  10  20  34  52  68  92 125 160 205 247 288
#     4  11  24  36  50  74  98 121 163 211 251 300
#     4  10  19  30  43  62  91 121 155 199 239 274
#
# _framework density 15.497559000000001
#
# number of rings (size 3 to 8) (size 9 to 14) (size 15 to 20)
#    0.000    1.889    3.333    1.667    3.111    1.333 
#    0.000    1.111    0.000    0.000    0.000    0.000 
#    0.000    0.000    0.000    2.000    0.000   12.000 
#
# Total GULP energy -446131.898696 kJ/mol
# GULP energy per Si atom -12392.552742 kJ/mol
# Density = 1.546229 g / cm^3
# Si number density = 15.497559 Si / 1000 Ang^3
#
#
#
# Elastic Constant Matrix: (Units=GPa)
#
#
# Indices 1 2 3 4 5 6 
#
# 1 64.2371 13.5986 32.8881 0.0000 0.0000 0.0000
# 2 13.5986 94.1156 32.7138 0.0000 0.0000 0.0000
# 3 32.8881 32.7138 63.4747 0.0000 0.0000 0.0000
# 4 0.0000 0.0000 0.0000 21.8837 0.0000 0.0000
# 5 0.0000 0.0000 0.0000 0.0000 20.2655 0.0000
# 6 0.0000 0.0000 0.0000 0.0000 0.0000 22.5231
#
#
#
# Elastic Compliance Matrix: (Units=1/GPa)
#
#
# Indices 1 2 3 4 5 6 
#
# 1 0.021253 0.000922 -0.011487 0.000000 0.000000 0.000000
# 2 0.000922 0.012984 -0.007169 0.000000 0.000000 0.000000
# 3 -0.011487 -0.007169 0.025401 0.000000 0.000000 0.000000
# 4 0.000000 0.000000 0.000000 0.045696 0.000000 0.000000
# 5 0.000000 0.000000 0.000000 0.000000 0.049345 0.000000
# 6 0.000000 0.000000 0.000000 0.000000 0.000000 0.044399
#
#
# Mechanical properties :
#
#
# Convention : Reuss Voigt Hill
#
# Bulk Modulus (GPa) = 41.37484 42.24760 41.81122
# Shear Modulus (GPa) = 20.60970 22.44292 21.52631
#
# Velocity S-wave (km/s) = 3.65069 3.80960 3.73099
# Velocity P-wave (km/s) = 6.67276 6.83159 6.75264
#
# Compressibility (1/GPa) = 0.02416928
#
# Stress axis : x y z
#
# Youngs Moduli (GPa) = 47.05147 77.01743 39.36826
#
# Poissons Ratio (x) = -0.07101 0.45223
# Poissons Ratio (y) = -0.04338 0.28225
# Poissons Ratio (z) = 0.54049 0.55218
#
# Static dielectric constant tensor:
#      x y z
#    x 3.052310 0.000000 0.000000 
#    y 0.000000 2.740300 0.000000 
#    z 0.000000 0.000000 2.657050 
# 
# 
# High freq. dielectric constant tensor:
#      x y z
#    x 1.603230 0.000000 0.000000 
#    y 0.000000 1.585620 0.000000 
#    z 0.000000 0.000000 1.540250 
# 
# From -- ./inp_files/57404.got.cif
#   From: 2010.06.25/outbox.cif.g09.slc.cpg/sg71_29_cif.got.tgz:57404.got - 2010.06.28 04:59:45.
