data_PCOD8287644
_publ_section_title
;
Structure prediction by ZEFSAII (Michael W. Deem and Ramdas Pophale) SiO2 
 PCOD8287644
Probable space group: I M M M
;
_chemical_formula_sum "Si O2"
_cell_formula_units_Z 104
_cell_length_a 13.583880
_cell_length_b 25.295326
_cell_length_c 17.121106
_cell_angle_alpha 90.000000
_cell_angle_beta 90.000000
_cell_angle_gamma 90.000000
_cell_volume 5882.960512
_symmetry_space_group_name_H-M "I M M M"
_symmetry_group_IT_number 71
_symmetry_cell_setting 'orthorhombic'
loop_
_space_group_symop_operation_xyz
x,y,z
-x,-y,z
x,-y,-z
-x,y,-z
-x,-y,-z
x,y,-z
-x,y,z
x,-y,z
1/2+x,1/2+y,1/2+z
1/2-x,1/2-y,1/2+z
1/2+x,1/2-y,1/2-z
1/2-x,1/2+y,1/2-z
1/2-x,1/2-y,1/2-z
1/2+x,1/2+y,1/2-z
1/2-x,1/2+y,1/2+z
1/2+x,1/2-y,1/2+z
loop_
_atom_site_type_symbol
_atom_site_label
_atom_site_fract_x
_atom_site_fract_y
_atom_site_fract_z
Si Si1 0.109404 0.634299 0.500000
Si Si2 0.891200 0.760178 0.500000
Si Si3 0.201379 0.363108 0.661717
Si Si4 0.612994 0.306947 0.322036
Si Si5 0.616778 0.000000 0.588016
Si Si6 0.617039 0.898428 0.315970
Si Si7 0.617313 0.202696 0.412351
Si Si8 0.114965 0.249194 0.663992
O O1 0.104830 0.696904 0.500000
O O2 0.164359 0.614713 0.421450
O O3 0.000000 0.609795 0.500000
O O4 0.839036 0.775680 0.582613
O O5 0.000000 0.785474 0.500000
O O6 0.320466 0.357907 0.657824
O O7 0.167090 0.402258 0.730517
O O8 0.162089 0.305068 0.685557
O O9 0.500000 0.321048 0.340533
O O10 0.651110 0.257353 0.372817
O O11 0.629452 0.293172 0.231402
O O12 0.653564 0.948409 0.634033
O O13 0.500000 0.000000 0.582850
O O14 0.660646 0.000000 0.500000
O O15 0.500000 0.898077 0.304638
O O16 0.655034 0.846545 0.361467
O O17 0.661228 0.199866 0.500000
O O18 0.500000 0.200766 0.415258
O O19 0.000000 0.261445 0.649432
#
# Coordination Sequence:
#
# PCOD8287644 Si02
#       8
#     8   8  16  16   8  16  16  16
#     4   9  18  30  45  66  89 118 159 199 224 272
#     4   7  12  22  38  53  74 109 148 191 229 262
#     4  11  19  29  46  65  90 126 164 196 240 283
#     4  10  20  30  41  61  94 131 167 205 238 277
#     4   9  18  32  52  77 102 126 151 189 246 304
#     4  10  18  30  49  71  95 123 157 197 242 297
#     4   9  17  28  42  61  92 130 163 198 238 281
#     4   9  15  26  40  59  85 117 160 202 236 276
#
# _framework density 17.678173999999999
#
# number of rings (size 3 to 8) (size 9 to 14) (size 15 to 20)
#    0.000    2.538    1.538    3.231    1.077    1.846 
#    0.000    0.000    1.692    0.462    0.000    2.692 
#    0.000    0.615    0.000    1.385    0.000    0.154 
#
# Total GULP energy -644549.539938 kJ/mol
# GULP energy per Si atom -12395.183460 kJ/mol
# Density = 1.763794 g / cm^3
# Si number density = 17.678174 Si / 1000 Ang^3
#
#
#
# Elastic Constant Matrix: (Units=GPa)
#
#
# Indices 1 2 3 4 5 6 
#
# 1 52.5289 21.2050 39.6161 0.0000 0.0000 0.0000
# 2 21.2050 43.1400 40.0654 0.0001 0.0000 0.0000
# 3 39.6161 40.0654 171.0214 0.0001 0.0000 0.0000
# 4 0.0000 0.0001 0.0001 19.3038 0.0000 0.0000
# 5 0.0000 0.0000 0.0000 0.0000 21.8311 0.0000
# 6 0.0000 0.0000 0.0000 0.0000 0.0000 11.3026
#
#
#
# Elastic Compliance Matrix: (Units=1/GPa)
#
#
# Indices 1 2 3 4 5 6 
#
# 1 0.025550 -0.009026 -0.003804 0.000000 0.000000 0.000000
# 2 -0.009026 0.032815 -0.005597 0.000000 0.000000 0.000000
# 3 -0.003804 -0.005597 0.008040 0.000000 0.000000 0.000000
# 4 0.000000 0.000000 0.000000 0.051803 0.000000 0.000000
# 5 0.000000 0.000000 0.000000 0.000000 0.045806 0.000000
# 6 0.000000 0.000000 0.000000 0.000000 0.000000 0.088476
#
#
# Mechanical properties :
#
#
# Convention : Reuss Voigt Hill
#
# Bulk Modulus (GPa) = 33.83997 52.05148 42.94572
# Shear Modulus (GPa) = 16.71167 21.54108 19.12638
#
# Velocity S-wave (km/s) = 3.07795 3.49451 3.29282
# Velocity P-wave (km/s) = 5.64053 6.76683 6.22918
#
# Compressibility (1/GPa) = 0.02955086
#
# Stress axis : x y z
#
# Youngs Moduli (GPa) = 39.13967 30.47411 124.38524
#
# Poissons Ratio (x) = 0.27505 0.47315
# Poissons Ratio (y) = 0.35327 0.69616
# Poissons Ratio (z) = 0.14888 0.17056
#
# Static dielectric constant tensor:
#      x y z
#    x 3.232780 0.000000 0.000000 
#    y 0.000000 2.702210 0.000000 
#    z 0.000000 0.000000 3.808810 
# 
# 
# High freq. dielectric constant tensor:
#      x y z
#    x 1.670660 0.000000 0.000000 
#    y 0.000000 1.601020 0.000000 
#    z 0.000000 0.000000 1.713780 
# 
# From -- ./inp_files/45196.got.cif
#   From: 2010.06.25/outbox.cif.g09.slc.cpg/sg71_23_cif.got.tgz:45196.got - 2010.06.28 04:59:45.
