data_PCOD8287965
_publ_section_title
;
Structure prediction by ZEFSAII (Michael W. Deem and Ramdas Pophale) SiO2 
 PCOD8287965
Probable space group: I M M M
;
_chemical_formula_sum "Si O2"
_cell_formula_units_Z 88
_cell_length_a 18.190277
_cell_length_b 9.077590
_cell_length_c 28.453178
_cell_angle_alpha 90.000000
_cell_angle_beta 90.000000
_cell_angle_gamma 90.000000
_cell_volume 4698.299053
_symmetry_space_group_name_H-M "I M M M"
_symmetry_group_IT_number 71
_symmetry_cell_setting 'orthorhombic'
loop_
_space_group_symop_operation_xyz
x,y,z
-x,-y,z
x,-y,-z
-x,y,-z
-x,-y,-z
x,y,-z
-x,y,z
x,-y,z
1/2+x,1/2+y,1/2+z
1/2-x,1/2-y,1/2+z
1/2+x,1/2-y,1/2-z
1/2-x,1/2+y,1/2-z
1/2-x,1/2-y,1/2-z
1/2+x,1/2+y,1/2-z
1/2-x,1/2+y,1/2+z
1/2+x,1/2-y,1/2+z
loop_
_atom_site_type_symbol
_atom_site_label
_atom_site_fract_x
_atom_site_fract_y
_atom_site_fract_z
Si Si1 0.083658 0.168257 0.055099
Si Si2 0.792206 0.325533 0.888282
Si Si3 0.419945 0.172618 0.206910
Si Si4 0.808004 0.671454 0.217756
Si Si5 0.856928 0.325226 0.610076
Si Si6 0.500000 0.174807 0.053010
O O1 0.138582 0.277531 0.081078
O O2 0.000000 0.207842 0.069462
O O3 0.101356 0.000000 0.069128
O O4 0.094483 0.190948 0.000000
O O5 0.784264 0.500000 0.891068
O O6 0.807543 0.268938 0.835240
O O7 0.717451 0.252381 0.908034
O O8 0.500000 0.248598 0.204992
O O9 0.386351 0.206404 0.258056
O O10 0.369879 0.229911 0.163752
O O11 0.428980 0.000000 0.198665
O O12 0.789616 0.500000 0.218622
O O13 0.750000 0.750000 0.250000
O O14 0.846241 0.500000 0.605824
O O15 0.926307 0.270084 0.579242
O O16 0.500000 0.000000 0.053062
O O17 0.500000 0.237524 0.000000
#
# Coordination Sequence:
#
# PCOD8287965 Si02
#       6
#    16  16  16  16  16   8
#     4   9  20  41  66  87 108 141 186 232 279 334
#     4  11  23  35  53  86 121 151 182 224 282 342
#     4   9  16  29  51  75  97 134 189 232 265 314
#     4  10  20  33  51  76 108 146 184 224 267 316
#     4  10  18  32  55  77 102 146 192 233 279 327
#     4   9  18  32  53  83 109 131 181 249 292 321
#
# _framework density 18.730183
#
# number of rings (size 3 to 8) (size 9 to 14) (size 15 to 20)
#    0.000    2.273    2.727    1.091    0.000    2.909 
#    0.000    5.000    0.000    2.182    0.000    0.000 
#    0.000    0.000    0.000    0.000    0.000    0.000 
#
# Total GULP energy -545483.242975 kJ/mol
# GULP energy per Si atom -12397.346431 kJ/mol
# Density = 1.868755 g / cm^3
# Si number density = 18.730183 Si / 1000 Ang^3
#
#
#
# Elastic Constant Matrix: (Units=GPa)
#
#
# Indices 1 2 3 4 5 6 
#
# 1 145.2379 44.4494 58.0138 0.0000 0.0000 0.0000
# 2 44.4494 43.7591 30.0171 0.0000 0.0000 0.0000
# 3 58.0138 30.0171 93.9331 0.0000 0.0000 0.0000
# 4 0.0000 0.0000 0.0000 22.6068 0.0000 0.0000
# 5 0.0000 0.0000 0.0000 0.0000 29.2506 0.0000
# 6 0.0000 0.0000 0.0000 0.0000 0.0000 23.2807
#
#
#
# Elastic Compliance Matrix: (Units=1/GPa)
#
#
# Indices 1 2 3 4 5 6 
#
# 1 0.011141 -0.008449 -0.004181 0.000000 0.000000 0.000000
# 2 -0.008449 0.035675 -0.006182 0.000000 0.000000 0.000000
# 3 -0.004181 -0.006182 0.015204 0.000000 0.000000 0.000000
# 4 0.000000 0.000000 0.000000 0.044234 0.000000 0.000000
# 5 0.000000 0.000000 0.000000 0.000000 0.034187 0.000000
# 6 0.000000 0.000000 0.000000 0.000000 0.000000 0.042954
#
#
# Mechanical properties :
#
#
# Convention : Reuss Voigt Hill
#
# Bulk Modulus (GPa) = 40.99039 60.87671 50.93355
# Shear Modulus (GPa) = 21.81962 25.05761 23.43862
#
# Velocity S-wave (km/s) = 3.41683 3.66159 3.54133
# Velocity P-wave (km/s) = 6.12360 7.10273 6.63126
#
# Compressibility (1/GPa) = 0.02439596
#
# Stress axis : x y z
#
# Youngs Moduli (GPa) = 89.75869 28.03063 65.77385
#
# Poissons Ratio (x) = 0.23683 0.27499
# Poissons Ratio (y) = 0.75835 0.40663
# Poissons Ratio (z) = 0.37527 0.17329
#
# Static dielectric constant tensor:
#      x y z
#    x 3.487750 0.000000 0.000000 
#    y 0.000000 3.104350 0.000000 
#    z 0.000000 0.000000 3.447770 
# 
# 
# High freq. dielectric constant tensor:
#      x y z
#    x 1.739970 0.000000 0.000000 
#    y 0.000000 1.691100 0.000000 
#    z 0.000000 0.000000 1.727410 
# 
# From -- ./inp_files/16650.got.cif
#   From: 2010.06.25/outbox.cif.g09.slc.cpg/sg71_9_cif.got.tgz:16650.got - 2010.06.28 04:59:45.
