data_PCOD8287949
_publ_section_title
;
Structure prediction by ZEFSAII (Michael W. Deem and Ramdas Pophale) SiO2 
 PCOD8287949
Probable space group: I M M M
;
_chemical_formula_sum "Si O2"
_cell_formula_units_Z 88
_cell_length_a 17.922514
_cell_length_b 29.339407
_cell_length_c 8.860043
_cell_angle_alpha 90.000000
_cell_angle_beta 90.000000
_cell_angle_gamma 90.000000
_cell_volume 4658.928975
_symmetry_space_group_name_H-M "I M M M"
_symmetry_group_IT_number 71
_symmetry_cell_setting 'orthorhombic'
loop_
_space_group_symop_operation_xyz
x,y,z
-x,-y,z
x,-y,-z
-x,y,-z
-x,-y,-z
x,y,-z
-x,y,z
x,-y,z
1/2+x,1/2+y,1/2+z
1/2-x,1/2-y,1/2+z
1/2+x,1/2-y,1/2-z
1/2-x,1/2+y,1/2-z
1/2-x,1/2-y,1/2-z
1/2+x,1/2+y,1/2-z
1/2-x,1/2+y,1/2+z
1/2+x,1/2-y,1/2+z
loop_
_atom_site_type_symbol
_atom_site_label
_atom_site_fract_x
_atom_site_fract_y
_atom_site_fract_z
Si Si1 0.000000 0.805270 0.678438
Si Si2 0.586464 0.000000 0.679393
Si Si3 0.656384 0.274822 0.177584
Si Si4 0.652348 0.550790 0.820543
Si Si5 0.688078 0.914991 0.679246
Si Si6 0.500000 0.405949 0.180529
Si Si7 0.215942 0.676940 0.677866
O O1 0.071874 0.778187 0.733660
O O2 0.000000 0.855519 0.746964
O O3 0.000000 0.809994 0.500000
O O4 0.630358 0.954383 0.736643
O O5 0.500000 0.000000 0.738181
O O6 0.587258 0.000000 0.500000
O O7 0.700513 0.316396 0.257970
O O8 0.677654 0.224141 0.228411
O O9 0.666876 0.282277 0.000000
O O10 0.657099 0.500000 0.758279
O O11 0.727590 0.575393 0.763759
O O12 0.575769 0.571560 0.755126
O O13 0.650999 0.552027 0.000000
O O14 0.683009 0.912069 0.500000
O O15 0.670137 0.865337 0.749553
O O16 0.500000 0.408910 0.000000
O O17 0.216850 0.669926 0.500000
#
# Coordination Sequence:
#
# PCOD8287949 Si02
#       7
#     8   8  16  16  16   8  16
#     4   9  16  29  49  74  98 127 169 212 254 297
#     4   9  18  34  55  78 102 130 173 227 270 307
#     4   9  18  34  54  74 101 136 173 213 255 303
#     4   9  15  24  40  66  97 126 157 196 239 282
#     4  10  18  32  54  75  98 132 172 213 259 310
#     4   9  15  20  35  67 100 122 149 195 242 280
#     4  10  20  33  51  77 105 135 170 210 257 312
#
# _framework density 18.888461
#
# number of rings (size 3 to 8) (size 9 to 14) (size 15 to 20)
#    0.000    2.636    0.909    1.909    0.000    4.727 
#    1.636    0.909    0.000    0.545    0.000    0.000 
#    0.000    2.909    0.000    0.000    0.000    0.000 
#
# Total GULP energy -545245.132161 kJ/mol
# GULP energy per Si atom -12391.934822 kJ/mol
# Density = 1.884547 g / cm^3
# Si number density = 18.888461 Si / 1000 Ang^3
#
#
#
# Elastic Constant Matrix: (Units=GPa)
#
#
# Indices 1 2 3 4 5 6 
#
# 1 124.1044 55.5424 18.1976 -0.0007 0.0006 -0.0001
# 2 55.5424 135.0815 25.7744 -0.0001 -0.0004 -0.0003
# 3 18.1976 25.7744 23.4927 0.0055 -0.0003 0.0020
# 4 -0.0007 -0.0001 0.0055 22.6064 -0.0007 -0.0001
# 5 0.0006 -0.0004 -0.0003 -0.0007 9.6177 -0.0008
# 6 -0.0001 -0.0003 0.0020 -0.0001 -0.0008 20.8230
#
#
#
# Elastic Compliance Matrix: (Units=1/GPa)
#
#
# Indices 1 2 3 4 5 6 
#
# 1 0.010188 -0.003394 -0.004168 0.000001 -0.000001 0.000000
# 2 -0.003394 0.010493 -0.008884 0.000002 0.000000 0.000001
# 3 -0.004168 -0.008884 0.055542 -0.000014 0.000001 -0.000006
# 4 0.000001 0.000002 -0.000014 0.044235 0.000003 0.000000
# 5 -0.000001 0.000000 0.000001 0.000003 0.103976 0.000004
# 6 0.000000 0.000001 -0.000006 0.000000 0.000004 0.048024
#
#
# Mechanical properties :
#
#
# Convention : Reuss Voigt Hill
#
# Bulk Modulus (GPa) = 23.07790 53.52306 38.30048
# Shear Modulus (GPa) = 15.63511 22.82034 19.22773
#
# Velocity S-wave (km/s) = 2.88020 3.47964 3.19401
# Velocity P-wave (km/s) = 4.82755 6.67396 5.82439
#
# Compressibility (1/GPa) = 0.04333150
#
# Stress axis : x y z
#
# Youngs Moduli (GPa) = 98.15723 95.29784 18.00445
#
# Poissons Ratio (x) = 0.32341 0.07505
# Poissons Ratio (y) = 0.33311 0.15995
# Poissons Ratio (z) = 0.40915 0.84661
#
# Static dielectric constant tensor:
#      x y z
#    x 3.746630 0.000000 0.000000 
#    y 0.000000 3.615690 -0.000010 
#    z 0.000000 -0.000010 2.871910 
# 
# 
# High freq. dielectric constant tensor:
#      x y z
#    x 1.734830 0.000000 0.000000 
#    y 0.000000 1.747250 0.000000 
#    z 0.000000 0.000000 1.675520 
# 
# From -- ./inp_files/8932.got.cif
#   From: 2010.06.25/outbox.cif.g09.slc.cpg/sg71_5_cif.got.tgz:8932.got - 2010.06.28 04:59:45.
