data_PCOD8287733
_publ_section_title
;
Structure prediction by ZEFSAII (Michael W. Deem and Ramdas Pophale) SiO2 
 PCOD8287733
Probable space group: I M M M
;
_chemical_formula_sum "Si O2"
_cell_formula_units_Z 104
_cell_length_a 9.049075
_cell_length_b 26.919133
_cell_length_c 23.064137
_cell_angle_alpha 90.000000
_cell_angle_beta 90.000000
_cell_angle_gamma 90.000000
_cell_volume 5618.268170
_symmetry_space_group_name_H-M "I M M M"
_symmetry_group_IT_number 71
_symmetry_cell_setting 'orthorhombic'
loop_
_space_group_symop_operation_xyz
x,y,z
-x,-y,z
x,-y,-z
-x,y,-z
-x,-y,-z
x,y,-z
-x,y,z
x,-y,z
1/2+x,1/2+y,1/2+z
1/2-x,1/2-y,1/2+z
1/2+x,1/2-y,1/2-z
1/2-x,1/2+y,1/2-z
1/2-x,1/2-y,1/2-z
1/2+x,1/2+y,1/2-z
1/2-x,1/2+y,1/2+z
1/2+x,1/2-y,1/2+z
loop_
_atom_site_type_symbol
_atom_site_label
_atom_site_fract_x
_atom_site_fract_y
_atom_site_fract_z
Si Si1 0.824325 0.443325 0.243931
Si Si2 0.835199 0.000000 0.068023
Si Si3 0.328904 0.124219 0.641388
Si Si4 0.174881 0.411833 0.371821
Si Si5 0.672195 0.324685 0.433147
Si Si6 0.338380 0.445382 0.932211
Si Si7 0.675548 0.211839 0.435169
O O1 0.764889 0.500000 0.233607
O O2 0.757593 0.402219 0.198564
O O3 0.774411 0.424404 0.306758
O O4 0.000000 0.444307 0.238200
O O5 0.747390 0.951278 0.085795
O O6 0.000000 0.000000 0.095477
O O7 0.848544 0.000000 0.000000
O O8 0.500000 0.131762 0.653191
O O9 0.299012 0.086598 0.589235
O O10 0.261597 0.176697 0.617258
O O11 0.230873 0.357546 0.389767
O O12 0.000000 0.414671 0.378370
O O13 0.704950 0.338566 0.500000
O O14 0.500000 0.332968 0.419466
O O15 0.720717 0.268125 0.420687
O O16 0.500000 0.423025 0.914718
O O17 0.323425 0.500000 0.904673
O O18 0.325065 0.449142 0.000000
O O19 0.736323 0.197353 0.500000
O O20 0.500000 0.206875 0.437397
#
# Coordination Sequence:
#
# PCOD8287733 Si02
#       7
#    16   8  16  16  16  16  16
#     4   9  18  33  50  71 103 139 170 208 262 305
#     4  11  23  37  55  81 109 133 164 209 260 311
#     4  10  18  30  53  77  95 126 178 223 250 295
#     4  11  21  35  54  76 106 140 173 208 251 308
#     4   9  18  34  54  75 104 137 166 206 262 314
#     4   9  18  31  44  63  98 136 163 201 266 325
#     4   8  15  29  50  77 105 131 164 213 268 309
#
# _framework density 18.511040999999999
#
# number of rings (size 3 to 8) (size 9 to 14) (size 15 to 20)
#    0.000    2.538    0.769    3.462    0.000    4.615 
#    0.000    3.846    0.000    0.923    0.000    0.000 
#    0.000    0.000    0.000    0.000    0.000    0.000 
#
# Total GULP energy -644231.352454 kJ/mol
# GULP energy per Si atom -12389.064470 kJ/mol
# Density = 1.846891 g / cm^3
# Si number density = 18.511041 Si / 1000 Ang^3
#
#
#
# Elastic Constant Matrix: (Units=GPa)
#
#
# Indices 1 2 3 4 5 6 
#
# 1 32.8542 25.8410 26.4730 0.0000 0.0000 0.0000
# 2 25.8410 134.1777 77.8445 0.0000 0.0000 0.0000
# 3 26.4730 77.8445 96.2689 0.0000 0.0000 0.0000
# 4 0.0000 0.0000 0.0000 29.7898 0.0000 0.0000
# 5 0.0000 0.0000 0.0000 0.0000 17.2982 0.0000
# 6 0.0000 0.0000 0.0000 0.0000 0.0000 18.5499
#
#
#
# Elastic Compliance Matrix: (Units=1/GPa)
#
#
# Indices 1 2 3 4 5 6 
#
# 1 0.039528 -0.002461 -0.008880 0.000000 0.000000 0.000000
# 2 -0.002461 0.014192 -0.010799 0.000000 0.000000 0.000000
# 3 -0.008880 -0.010799 0.021562 0.000000 0.000000 0.000000
# 4 0.000000 0.000000 0.000000 0.033569 0.000000 0.000000
# 5 0.000000 0.000000 0.000000 0.000000 0.057809 0.000000
# 6 0.000000 0.000000 0.000000 0.000000 0.000000 0.053909
#
#
# Mechanical properties :
#
#
# Convention : Reuss Voigt Hill
#
# Bulk Modulus (GPa) = 32.25589 58.17976 45.21782
# Shear Modulus (GPa) = 18.16976 22.00374 20.08675
#
# Velocity S-wave (km/s) = 3.13639 3.45147 3.29769
# Velocity P-wave (km/s) = 5.52982 6.88342 6.24341
#
# Compressibility (1/GPa) = 0.03100209
#
# Stress axis : x y z
#
# Youngs Moduli (GPa) = 25.29836 70.46246 46.37826
#
# Poissons Ratio (x) = 0.17340 0.41184
# Poissons Ratio (y) = 0.06226 0.50084
# Poissons Ratio (z) = 0.22465 0.76093
#
# Static dielectric constant tensor:
#      x y z
#    x 3.129350 0.000000 0.000000 
#    y 0.000000 3.778410 0.000000 
#    z 0.000000 0.000000 3.506560 
# 
# 
# High freq. dielectric constant tensor:
#      x y z
#    x 1.684050 0.000000 0.000000 
#    y 0.000000 1.724440 0.000000 
#    z 0.000000 0.000000 1.711380 
# 
# From -- ./inp_files/57981.got.cif
#   From: 2010.06.25/outbox.cif.g09.slc.cpg/sg71_29_cif.got.tgz:57981.got - 2010.06.28 04:59:45.
