data_PCOD8287118
_publ_section_title
;
Structure prediction by ZEFSAII (Michael W. Deem and Ramdas Pophale) SiO2 
 PCOD8287118
Probable space group: I M M M
;
_chemical_formula_sum "Si O2"
_cell_formula_units_Z 88
_cell_length_a 19.823171
_cell_length_b 9.024238
_cell_length_c 27.619347
_cell_angle_alpha 90.000000
_cell_angle_beta 90.000000
_cell_angle_gamma 90.000000
_cell_volume 4940.797725
_symmetry_space_group_name_H-M "I M M M"
_symmetry_group_IT_number 71
_symmetry_cell_setting 'orthorhombic'
loop_
_space_group_symop_operation_xyz
x,y,z
-x,-y,z
x,-y,-z
-x,y,-z
-x,-y,-z
x,y,-z
-x,y,z
x,-y,z
1/2+x,1/2+y,1/2+z
1/2-x,1/2-y,1/2+z
1/2+x,1/2-y,1/2-z
1/2-x,1/2+y,1/2-z
1/2-x,1/2-y,1/2-z
1/2+x,1/2+y,1/2-z
1/2-x,1/2+y,1/2+z
1/2+x,1/2-y,1/2+z
loop_
_atom_site_type_symbol
_atom_site_label
_atom_site_fract_x
_atom_site_fract_y
_atom_site_fract_z
Si Si1 0.669017 0.675836 0.587640
Si Si2 0.923654 0.823721 0.000000
Si Si3 0.315501 0.176458 0.945943
Si Si4 0.574233 0.826029 0.127535
Si Si5 0.170654 0.328972 0.290003
Si Si6 0.695080 0.172951 0.682583
O O1 0.666213 0.500000 0.592357
O O2 0.614711 0.732887 0.548212
O O3 0.742665 0.733155 0.571487
O O4 0.653145 0.746675 0.640033
O O5 0.000000 0.761329 0.000000
O O6 0.923320 0.000000 0.000000
O O7 0.374399 0.242644 0.911904
O O8 0.315195 0.000000 0.944123
O O9 0.329277 0.234464 0.000000
O O10 0.500000 0.753090 0.122383
O O11 0.601651 0.794462 0.181588
O O12 0.568717 0.000000 0.118264
O O13 0.192702 0.500000 0.296564
O O14 0.228751 0.231542 0.314328
O O15 0.158454 0.291279 0.233665
O O16 0.696746 0.000000 0.671395
#
# Coordination Sequence:
#
# PCOD8287118 Si02
#       6
#    16   8  16  16  16  16
#     4  10  17  30  52  73  97 127 158 200 245 287
#     4   9  18  32  53  79 100 126 167 206 245 298
#     4   9  15  24  42  69  95 120 155 195 236 275
#     4   9  16  26  43  67  96 127 157 192 234 281
#     4   9  17  31  48  68  96 128 163 200 242 288
#     4  10  19  29  47  74  98 122 161 207 244 284
#
# _framework density 17.810889
#
# number of rings (size 3 to 8) (size 9 to 14) (size 15 to 20)
#    0.000    2.636    2.727    0.545    0.000    1.091 
#    0.000    3.182    0.000    2.727    0.000    0.000 
#    0.000    1.455    0.000    0.000    0.000    0.000 
#
# Total GULP energy -545430.104288 kJ/mol
# GULP energy per Si atom -12396.138734 kJ/mol
# Density = 1.777035 g / cm^3
# Si number density = 17.810889 Si / 1000 Ang^3
#
#
#
# Elastic Constant Matrix: (Units=GPa)
#
#
# Indices 1 2 3 4 5 6 
#
# 1 133.9479 17.7751 77.6288 0.0000 0.0000 0.0000
# 2 17.7751 26.1621 28.6252 0.0000 0.0000 0.0000
# 3 77.6288 28.6252 163.4668 0.0000 0.0000 0.0000
# 4 0.0000 0.0000 0.0000 24.7478 0.0000 0.0000
# 5 0.0000 0.0000 0.0000 0.0000 26.4331 0.0000
# 6 0.0000 0.0000 0.0000 0.0000 0.0000 8.7675
#
#
#
# Elastic Compliance Matrix: (Units=1/GPa)
#
#
# Indices 1 2 3 4 5 6 
#
# 1 0.010389 -0.002054 -0.004574 0.000000 0.000000 0.000000
# 2 -0.002054 0.047689 -0.007376 0.000000 0.000000 0.000000
# 3 -0.004574 -0.007376 0.009581 0.000000 0.000000 0.000000
# 4 0.000000 0.000000 0.000000 0.040408 0.000000 0.000000
# 5 0.000000 0.000000 0.000000 0.000000 0.037831 0.000000
# 6 0.000000 0.000000 0.000000 0.000000 0.000000 0.114058
#
#
# Mechanical properties :
#
#
# Convention : Reuss Voigt Hill
#
# Bulk Modulus (GPa) = 25.21945 63.51501 44.36723
# Shear Modulus (GPa) = 16.60139 25.29286 20.94713
#
# Velocity S-wave (km/s) = 3.05633 3.77248 3.43313
# Velocity P-wave (km/s) = 5.16190 7.39687 6.37804
#
# Compressibility (1/GPa) = 0.03965194
#
# Stress axis : x y z
#
# Youngs Moduli (GPa) = 96.25608 20.96935 104.37185
#
# Poissons Ratio (x) = 0.04307 0.47739
# Poissons Ratio (y) = 0.19770 0.76980
# Poissons Ratio (z) = 0.44027 0.15466
#
# Static dielectric constant tensor:
#      x y z
#    x 3.336630 0.000000 0.000000 
#    y 0.000000 2.832230 0.000000 
#    z 0.000000 0.000000 3.606640 
# 
# 
# High freq. dielectric constant tensor:
#      x y z
#    x 1.668110 0.000000 0.000000 
#    y 0.000000 1.636220 0.000000 
#    z 0.000000 0.000000 1.708680 
# 
# From -- ./inp_files/70355.got.cif
#   From: 2010.06.25/outbox.cif.g09.slc.cpg/sg71_36_cif.got.tgz:70355.got - 2010.06.28 04:59:45.
