data_PCOD8287575
_publ_section_title
;
Structure prediction by ZEFSAII (Michael W. Deem and Ramdas Pophale) SiO2 
 PCOD8287575
Probable space group: I M M M
;
_chemical_formula_sum "Si O2"
_cell_formula_units_Z 120
_cell_length_a 27.719516
_cell_length_b 9.377324
_cell_length_c 29.538561
_cell_angle_alpha 90.000000
_cell_angle_beta 90.000000
_cell_angle_gamma 90.000000
_cell_volume 7678.102387
_symmetry_space_group_name_H-M "I M M M"
_symmetry_group_IT_number 71
_symmetry_cell_setting 'orthorhombic'
loop_
_space_group_symop_operation_xyz
x,y,z
-x,-y,z
x,-y,-z
-x,y,-z
-x,-y,-z
x,y,-z
-x,y,z
x,-y,z
1/2+x,1/2+y,1/2+z
1/2-x,1/2-y,1/2+z
1/2+x,1/2-y,1/2-z
1/2-x,1/2+y,1/2-z
1/2-x,1/2-y,1/2-z
1/2+x,1/2+y,1/2-z
1/2-x,1/2+y,1/2+z
1/2+x,1/2-y,1/2+z
loop_
_atom_site_type_symbol
_atom_site_label
_atom_site_fract_x
_atom_site_fract_y
_atom_site_fract_z
Si Si1 0.942465 0.840261 0.791995
Si Si2 0.000000 0.665488 0.446415
Si Si3 0.382566 0.333116 0.552523
Si Si4 0.412636 0.668605 0.901586
Si Si5 0.724683 0.341999 0.553833
Si Si6 0.057143 0.336547 0.877055
Si Si7 0.053280 0.168302 0.305926
Si Si8 0.314340 0.333910 0.052056
O O1 0.923044 0.736598 0.831158
O O2 0.925050 0.780259 0.742615
O O3 0.000000 0.843093 0.791185
O O4 0.922570 0.000000 0.801326
O O5 0.047191 0.743382 0.427867
O O6 0.000000 0.500000 0.431397
O O7 0.000000 0.680083 0.500000
O O8 0.389687 0.295896 0.500000
O O9 0.391860 0.500000 0.561167
O O10 0.328537 0.290712 0.569091
O O11 0.420844 0.240689 0.579659
O O12 0.422156 0.500000 0.909277
O O13 0.413048 0.709599 0.848291
O O14 0.360756 0.716346 0.919955
O O15 0.725258 0.343736 0.500000
O O16 0.734832 0.500000 0.572733
O O17 0.766720 0.240262 0.572697
O O18 0.073639 0.500000 0.876414
O O19 0.000000 0.321152 0.880634
O O20 0.000000 0.234438 0.314739
O O21 0.047894 0.000000 0.302035
O O22 0.305411 0.500000 0.057255
O O23 0.322941 0.290202 0.000000
#
# Coordination Sequence:
#
# PCOD8287575 Si02
#       8
#    16   8  16  16  16  16  16  16
#     4   8  14  26  45  64  83 111 148 185 218 254
#     4  11  23  33  39  55  87 123 157 189 224 271
#     4   9  18  32  49  68  89 117 154 186 212 249
#     4  10  18  30  47  64  85 115 151 188 226 271
#     4   8  15  29  47  64  83 110 144 183 223 258
#     4  10  20  31  43  65  97 126 149 173 210 259
#     4   8  13  24  44  66  83 106 145 189 225 259
#     4   9  17  27  41  64  89 113 145 182 221 267
#
# _framework density 15.628862
#
# number of rings (size 3 to 8) (size 9 to 14) (size 15 to 20)
#    0.000    3.000    0.667    2.600    0.000    3.467 
#    0.000    4.667    0.000    0.000    0.000    0.933 
#    0.000    0.000    0.000    0.000    0.000    0.000 
#
# Total GULP energy -743636.722791 kJ/mol
# GULP energy per Si atom -12393.945380 kJ/mol
# Density = 1.559329 g / cm^3
# Si number density = 15.628862 Si / 1000 Ang^3
#
#
#
# Elastic Constant Matrix: (Units=GPa)
#
#
# Indices 1 2 3 4 5 6 
#
# 1 53.6657 34.8064 39.4912 0.0000 0.0000 0.0000
# 2 34.8064 65.2634 47.0874 0.0000 0.0000 0.0000
# 3 39.4912 47.0874 96.8806 0.0000 0.0000 0.0000
# 4 0.0000 0.0000 0.0000 15.1427 0.0000 0.0000
# 5 0.0000 0.0000 0.0000 0.0000 4.2604 0.0000
# 6 0.0000 0.0000 0.0000 0.0000 0.0000 24.6833
#
#
#
# Elastic Compliance Matrix: (Units=1/GPa)
#
#
# Indices 1 2 3 4 5 6 
#
# 1 0.031431 -0.011579 -0.007184 0.000000 0.000000 0.000000
# 2 -0.011579 0.027864 -0.008823 0.000000 0.000000 0.000000
# 3 -0.007184 -0.008823 0.017538 0.000000 0.000000 0.000000
# 4 0.000000 0.000000 0.000000 0.066038 0.000000 0.000000
# 5 0.000000 0.000000 0.000000 0.000000 0.234719 0.000000
# 6 0.000000 0.000000 0.000000 0.000000 0.000000 0.040513
#
#
# Mechanical properties :
#
#
# Convention : Reuss Voigt Hill
#
# Bulk Modulus (GPa) = 46.16663 50.95328 48.55995
# Shear Modulus (GPa) = 10.40594 15.11226 12.75910
#
# Velocity S-wave (km/s) = 2.58314 3.11295 2.86034
# Velocity P-wave (km/s) = 6.20486 6.75229 6.48435
#
# Compressibility (1/GPa) = 0.02166067
#
# Stress axis : x y z
#
# Youngs Moduli (GPa) = 31.81621 35.88922 57.01760
#
# Poissons Ratio (x) = 0.41557 0.40961
# Poissons Ratio (y) = 0.36841 0.50304
# Poissons Ratio (z) = 0.22857 0.31664
#
# Static dielectric constant tensor:
#      x y z
#    x 2.941870 0.000000 0.000000 
#    y 0.000000 2.968620 0.000000 
#    z 0.000000 0.000000 3.111040 
# 
# 
# High freq. dielectric constant tensor:
#      x y z
#    x 1.575480 0.000000 0.000000 
#    y 0.000000 1.588890 0.000000 
#    z 0.000000 0.000000 1.590230 
# 
# From -- ./inp_files/67162.got.cif
#   From: 2010.06.25/outbox.cif.g09.slc.cpg/sg71_34_cif.got.tgz:67162.got - 2010.06.28 04:59:45.
