data_PCOD8287940
_publ_section_title
;
Structure prediction by ZEFSAII (Michael W. Deem and Ramdas Pophale) SiO2 
 PCOD8287940
Probable space group: I M M M
;
_chemical_formula_sum "Si O2"
_cell_formula_units_Z 88
_cell_length_a 28.883086
_cell_length_b 11.494114
_cell_length_c 15.002232
_cell_angle_alpha 90.000000
_cell_angle_beta 90.000000
_cell_angle_gamma 90.000000
_cell_volume 4980.523239
_symmetry_space_group_name_H-M "I M M M"
_symmetry_group_IT_number 71
_symmetry_cell_setting 'orthorhombic'
loop_
_space_group_symop_operation_xyz
x,y,z
-x,-y,z
x,-y,-z
-x,y,-z
-x,-y,-z
x,y,-z
-x,y,z
x,-y,z
1/2+x,1/2+y,1/2+z
1/2-x,1/2-y,1/2+z
1/2+x,1/2-y,1/2-z
1/2-x,1/2+y,1/2-z
1/2-x,1/2-y,1/2-z
1/2+x,1/2+y,1/2-z
1/2-x,1/2+y,1/2+z
1/2+x,1/2-y,1/2+z
loop_
_atom_site_type_symbol
_atom_site_label
_atom_site_fract_x
_atom_site_fract_y
_atom_site_fract_z
Si Si1 0.945157 0.628133 0.500000
Si Si2 0.937694 0.000000 0.400889
Si Si3 0.799857 0.240875 0.604540
Si Si4 0.051838 0.245984 0.675664
Si Si5 0.331059 0.500000 0.097221
Si Si6 0.794899 0.367681 0.899112
Si Si7 0.361952 0.865729 0.758893
O O1 0.923046 0.500000 0.500000
O O2 0.927877 0.696110 0.586050
O O3 0.000000 0.622496 0.500000
O O4 0.952807 0.890892 0.340987
O O5 0.961625 0.000000 0.500000
O O6 0.884610 0.000000 0.418576
O O7 0.812909 0.258206 0.500000
O O8 0.744427 0.231054 0.617330
O O9 0.824646 0.340166 0.662306
O O10 0.818238 0.119005 0.646415
O O11 0.091592 0.285188 0.744968
O O12 0.000000 0.291712 0.702385
O O13 0.305342 0.500000 0.000000
O O14 0.775632 0.500000 0.881606
O O15 0.837700 0.340642 0.835171
O O16 0.813300 0.357700 0.000000
O O17 0.377006 0.000000 0.768467
#
# Coordination Sequence:
#
# PCOD8287940 Si02
#       7
#     8   8  16  16   8  16  16
#     4   9  18  31  45  63  95 140 171 187 235 309
#     4  11  19  32  51  74 100 132 180 223 248 283
#     4  10  18  32  53  77 106 137 166 202 250 303
#     4  11  22  34  49  71 101 137 174 215 257 297
#     4   9  16  27  48  75 100 133 168 199 241 288
#     4   9  18  35  58  78  98 129 172 220 262 299
#     4  11  23  34  49  77 107 138 173 207 250 311
#
# _framework density 17.668825999999999
#
# number of rings (size 3 to 8) (size 9 to 14) (size 15 to 20)
#    0.000    1.909    3.636    1.364    1.273    1.818 
#    0.000    0.000    0.000    0.545    0.000    2.545 
#    0.000    1.455    0.000    0.000    0.000    0.000 
#
# Total GULP energy -545212.087550 kJ/mol
# GULP energy per Si atom -12391.183808 kJ/mol
# Density = 1.762861 g / cm^3
# Si number density = 17.668826 Si / 1000 Ang^3
#
#
#
# Elastic Constant Matrix: (Units=GPa)
#
#
# Indices 1 2 3 4 5 6 
#
# 1 104.2603 32.2056 48.4002 0.0000 0.0000 0.0000
# 2 32.2056 84.9205 25.3725 0.0000 0.0000 0.0000
# 3 48.4002 25.3725 70.6566 0.0000 0.0000 0.0000
# 4 0.0000 0.0000 0.0000 20.3554 0.0000 0.0000
# 5 0.0000 0.0000 0.0000 0.0000 102.4799 0.0000
# 6 0.0000 0.0000 0.0000 0.0000 0.0000 45.7898
#
#
#
# Elastic Compliance Matrix: (Units=1/GPa)
#
#
# Indices 1 2 3 4 5 6 
#
# 1 0.014661 -0.002867 -0.009014 0.000000 0.000000 0.000000
# 2 -0.002867 0.013752 -0.002974 0.000000 0.000000 0.000000
# 3 -0.009014 -0.002974 0.021395 0.000000 0.000000 0.000000
# 4 0.000000 0.000000 0.000000 0.049127 0.000000 0.000000
# 5 0.000000 0.000000 0.000000 0.000000 0.009758 0.000000
# 6 0.000000 0.000000 0.000000 0.000000 0.000000 0.021839
#
#
# Mechanical properties :
#
#
# Convention : Reuss Voigt Hill
#
# Bulk Modulus (GPa) = 49.75463 52.42156 51.08809
# Shear Modulus (GPa) = 29.95064 43.98231 36.96647
#
# Velocity S-wave (km/s) = 4.12164 4.99466 4.57900
# Velocity P-wave (km/s) = 7.13241 7.93697 7.54542
#
# Compressibility (1/GPa) = 0.02009863
#
# Stress axis : x y z
#
# Youngs Moduli (GPa) = 68.20662 72.71832 46.73928
#
# Poissons Ratio (x) = 0.20850 0.42129
# Poissons Ratio (y) = 0.19556 0.13901
# Poissons Ratio (z) = 0.61478 0.21628
#
# Static dielectric constant tensor:
#      x y z
#    x 3.237100 0.000000 0.000000 
#    y 0.000000 3.341550 0.000000 
#    z 0.000000 0.000000 3.007570 
# 
# 
# High freq. dielectric constant tensor:
#      x y z
#    x 1.689360 0.000000 0.000000 
#    y 0.000000 1.679610 0.000000 
#    z 0.000000 0.000000 1.635760 
# 
# From -- ./inp_files/40859.got.cif
#   From: 2010.06.25/outbox.cif.g09.slc.cpg/sg71_21_cif.got.tgz:40859.got - 2010.06.28 04:59:45.
