data_PCOD8287932
_publ_section_title
;
Structure prediction by ZEFSAII (Michael W. Deem and Ramdas Pophale) SiO2 
 PCOD8287932
Probable space group: I M M M
;
_chemical_formula_sum "Si O2"
_cell_formula_units_Z 88
_cell_length_a 15.457360
_cell_length_b 21.572851
_cell_length_c 15.015532
_cell_angle_alpha 90.000000
_cell_angle_beta 90.000000
_cell_angle_gamma 90.000000
_cell_volume 5007.069152
_symmetry_space_group_name_H-M "I M M M"
_symmetry_group_IT_number 71
_symmetry_cell_setting 'orthorhombic'
loop_
_space_group_symop_operation_xyz
x,y,z
-x,-y,z
x,-y,-z
-x,y,-z
-x,-y,-z
x,y,-z
-x,y,z
x,-y,z
1/2+x,1/2+y,1/2+z
1/2-x,1/2-y,1/2+z
1/2+x,1/2-y,1/2-z
1/2-x,1/2+y,1/2-z
1/2-x,1/2-y,1/2-z
1/2+x,1/2+y,1/2-z
1/2-x,1/2+y,1/2+z
1/2+x,1/2-y,1/2+z
loop_
_atom_site_type_symbol
_atom_site_label
_atom_site_fract_x
_atom_site_fract_y
_atom_site_fract_z
Si Si1 0.593227 0.926887 0.500000
Si Si2 0.322894 0.665273 0.102479
Si Si3 0.905725 0.211565 0.231617
Si Si4 0.599499 0.842986 0.197436
Si Si5 0.694385 0.073131 0.327961
Si Si6 0.243241 0.794555 0.901601
O O1 0.500000 0.894599 0.500000
O O2 0.641842 0.904430 0.586531
O O3 0.584091 0.000000 0.500000
O O4 0.401408 0.686892 0.166158
O O5 0.286697 0.605169 0.154857
O O6 0.252228 0.720246 0.102808
O O7 0.352673 0.650894 0.000000
O O8 0.898085 0.286100 0.233100
O O9 0.829402 0.184048 0.169615
O O10 0.000000 0.192335 0.193495
O O11 0.500000 0.855614 0.165560
O O12 0.640062 0.903964 0.243047
O O13 0.663592 0.826708 0.115766
O O14 0.708382 0.000000 0.319376
O O15 0.212821 0.814932 0.000000
#
# Coordination Sequence:
#
# PCOD8287932 Si02
#       6
#     8  16  16  16  16  16
#     4   9  18  28  38  64 101 133 173 207 229 284
#     4  10  18  32  52  74 105 137 169 210 254 304
#     4  10  19  33  53  75 102 134 169 215 267 309
#     4  10  19  33  51  73 105 137 169 210 254 304
#     4  11  19  29  48  72 102 144 176 200 244 302
#     4  10  19  33  53  75 102 134 169 215 267 309
#
# _framework density 17.575151999999999
#
# number of rings (size 3 to 8) (size 9 to 14) (size 15 to 20)
#    0.000    1.909    4.545    1.636    0.000    2.182 
#    0.000    3.636    0.000    1.091    0.000    2.545 
#    0.000    1.455    0.000    0.000    0.000    0.000 
#
# Total GULP energy -545194.262986 kJ/mol
# GULP energy per Si atom -12390.778704 kJ/mol
# Density = 1.753515 g / cm^3
# Si number density = 17.575152 Si / 1000 Ang^3
#
#
#
# Elastic Constant Matrix: (Units=GPa)
#
#
# Indices 1 2 3 4 5 6 
#
# 1 87.6109 22.5929 44.2678 0.0000 0.0000 0.0000
# 2 22.5929 74.9328 27.6097 0.0003 0.0000 0.0000
# 3 44.2678 27.6097 93.1023 0.0005 -0.0001 0.0000
# 4 0.0000 0.0003 0.0005 18.2091 0.0000 0.0000
# 5 0.0000 0.0000 -0.0001 0.0000 9.3596 0.0000
# 6 0.0000 0.0000 0.0000 0.0000 0.0000 13.0702
#
#
#
# Elastic Compliance Matrix: (Units=1/GPa)
#
#
# Indices 1 2 3 4 5 6 
#
# 1 0.015333 -0.002174 -0.006645 0.000000 0.000000 0.000000
# 2 -0.002174 0.015291 -0.003501 0.000000 0.000000 0.000000
# 3 -0.006645 -0.003501 0.014939 0.000000 0.000000 0.000000
# 4 0.000000 0.000000 0.000000 0.054918 0.000000 0.000000
# 5 0.000000 0.000000 0.000000 0.000000 0.106842 0.000000
# 6 0.000000 0.000000 0.000000 0.000000 0.000000 0.076510
#
#
# Mechanical properties :
#
#
# Convention : Reuss Voigt Hill
#
# Bulk Modulus (GPa) = 47.79843 49.39850 48.59847
# Shear Modulus (GPa) = 15.85055 18.87282 17.36169
#
# Velocity S-wave (km/s) = 3.00638 3.28050 3.14642
# Velocity P-wave (km/s) = 6.26951 6.52050 6.39623
#
# Compressibility (1/GPa) = 0.02092119
#
# Stress axis : x y z
#
# Youngs Moduli (GPa) = 65.22047 65.39912 66.94006
#
# Poissons Ratio (x) = 0.14220 0.44485
# Poissons Ratio (y) = 0.14181 0.23433
# Poissons Ratio (z) = 0.43342 0.22894
#
# Static dielectric constant tensor:
#      x y z
#    x 3.248560 0.000000 0.000000 
#    y 0.000000 2.945030 0.000000 
#    z 0.000000 0.000000 3.226760 
# 
# 
# High freq. dielectric constant tensor:
#      x y z
#    x 1.672090 0.000000 0.000000 
#    y 0.000000 1.642210 0.000000 
#    z 0.000000 0.000000 1.670430 
# 
# From -- ./inp_files/34393.got.cif
#   From: 2010.06.25/outbox.cif.g09.slc.cpg/sg71_18_cif.got.tgz:34393.got - 2010.06.28 04:59:45.
