data_PCOD8287692
_publ_section_title
;
Structure prediction by ZEFSAII (Michael W. Deem and Ramdas Pophale) SiO2 
 PCOD8287692
Probable space group: I M M M
;
_chemical_formula_sum "Si O2"
_cell_formula_units_Z 96
_cell_length_a 23.463543
_cell_length_b 23.657507
_cell_length_c 8.755530
_cell_angle_alpha 90.000000
_cell_angle_beta 90.000000
_cell_angle_gamma 90.000000
_cell_volume 4860.097804
_symmetry_space_group_name_H-M "I M M M"
_symmetry_group_IT_number 71
_symmetry_cell_setting 'orthorhombic'
loop_
_space_group_symop_operation_xyz
x,y,z
-x,-y,z
x,-y,-z
-x,y,-z
-x,-y,-z
x,y,-z
-x,y,z
x,-y,z
1/2+x,1/2+y,1/2+z
1/2-x,1/2-y,1/2+z
1/2+x,1/2-y,1/2-z
1/2-x,1/2+y,1/2-z
1/2-x,1/2-y,1/2-z
1/2+x,1/2+y,1/2-z
1/2-x,1/2+y,1/2+z
1/2+x,1/2-y,1/2+z
loop_
_atom_site_type_symbol
_atom_site_label
_atom_site_fract_x
_atom_site_fract_y
_atom_site_fract_z
Si Si1 0.165101 0.869101 0.321503
Si Si2 0.500000 0.147683 0.324202
Si Si3 0.500000 0.265777 0.821770
Si Si4 0.935553 0.933526 0.825689
Si Si5 0.116584 0.234116 0.180511
Si Si6 0.376531 0.861668 0.322790
Si Si7 0.775168 0.436462 0.817697
O O1 0.170619 0.858309 0.500000
O O2 0.107537 0.902899 0.287381
O O3 0.165840 0.807923 0.239043
O O4 0.218782 0.904610 0.259357
O O5 0.500000 0.171059 0.500000
O O6 0.500000 0.198909 0.206969
O O7 0.558987 0.113255 0.296570
O O8 0.443008 0.291101 0.745239
O O9 0.500000 0.279631 0.000000
O O10 0.000000 0.916111 0.781194
O O11 0.927572 0.000000 0.805882
O O12 0.922430 0.915479 0.000000
O O13 0.127950 0.297707 0.243438
O O14 0.113498 0.234188 0.000000
O O15 0.361882 0.858343 0.500000
O O16 0.330241 0.903527 0.248085
O O17 0.775386 0.500000 0.751152
O O18 0.776794 0.438663 0.000000
#
# Coordination Sequence:
#
# PCOD8287692 Si02
#       7
#    16   8   8  16  16  16  16
#     4  11  22  33  49  76 107 140 180 224 268 316
#     4   8  14  28  51  78 108 139 169 206 255 310
#     4  10  18  30  50  77 108 138 172 212 257 314
#     4   9  19  36  55  73  97 134 179 225 272 318
#     4  10  20  34  52  75 106 144 178 217 266 316
#     4   8  15  30  52  76 104 140 178 212 259 323
#     4   9  18  33  52  75 106 141 175 219 274 322
#
# _framework density 19.752687999999999
#
# number of rings (size 3 to 8) (size 9 to 14) (size 15 to 20)
#    0.000    2.667    0.000    3.750    1.167    2.000 
#    0.000    1.250    0.000   11.500    0.000    0.000 
#    0.000   10.667    0.000    0.000    0.000    0.000 
#
# Total GULP energy -594925.352345 kJ/mol
# GULP energy per Si atom -12394.278174 kJ/mol
# Density = 1.970773 g / cm^3
# Si number density = 19.752688 Si / 1000 Ang^3
#
#
#
# Elastic Constant Matrix: (Units=GPa)
#
#
# Indices 1 2 3 4 5 6 
#
# 1 153.0546 86.5336 24.1400 0.0000 0.0000 0.0000
# 2 86.5336 112.0998 18.9546 0.0000 0.0000 0.0000
# 3 24.1400 18.9546 50.0805 0.0000 0.0000 0.0000
# 4 0.0000 0.0000 0.0000 18.8595 0.0000 0.0000
# 5 0.0000 0.0000 0.0000 0.0000 15.8557 0.0000
# 6 0.0000 0.0000 0.0000 0.0000 0.0000 38.1512
#
#
#
# Elastic Compliance Matrix: (Units=1/GPa)
#
#
# Indices 1 2 3 4 5 6 
#
# 1 0.011859 -0.008747 -0.002405 0.000000 0.000000 0.000000
# 2 -0.008747 0.015983 -0.001833 0.000000 0.000000 0.000000
# 3 -0.002405 -0.001833 0.021821 0.000000 0.000000 0.000000
# 4 0.000000 0.000000 0.000000 0.053024 0.000000 0.000000
# 5 0.000000 0.000000 0.000000 0.000000 0.063069 0.000000
# 6 0.000000 0.000000 0.000000 0.000000 0.000000 0.026211
#
#
# Mechanical properties :
#
#
# Convention : Reuss Voigt Hill
#
# Bulk Modulus (GPa) = 42.20949 63.83238 53.02093
# Shear Modulus (GPa) = 22.14011 26.94705 24.54358
#
# Velocity S-wave (km/s) = 3.35156 3.69754 3.52880
# Velocity P-wave (km/s) = 6.03264 7.11443 6.59575
#
# Compressibility (1/GPa) = 0.02369136
#
# Stress axis : x y z
#
# Youngs Moduli (GPa) = 84.32767 62.56713 45.82739
#
# Poissons Ratio (x) = 0.54729 0.11023
# Poissons Ratio (y) = 0.73764 0.08399
# Poissons Ratio (z) = 0.20284 0.11468
#
# Static dielectric constant tensor:
#      x y z
#    x 3.878480 0.000000 0.000000 
#    y 0.000000 3.684140 0.000000 
#    z 0.000000 0.000000 3.157180 
# 
# 
# High freq. dielectric constant tensor:
#      x y z
#    x 1.775810 0.000000 0.000000 
#    y 0.000000 1.759750 0.000000 
#    z 0.000000 0.000000 1.729150 
# 
# From -- ./inp_files/12877.got.cif
#   From: 2010.06.25/outbox.cif.g09.slc.cpg/sg71_7_cif.got.tgz:12877.got - 2010.06.28 04:59:45.
