data_PCOD8287964
_publ_section_title
;
Structure prediction by ZEFSAII (Michael W. Deem and Ramdas Pophale) SiO2 
 PCOD8287964
Probable space group: I M M M
;
_chemical_formula_sum "Si O2"
_cell_formula_units_Z 88
_cell_length_a 29.141771
_cell_length_b 9.085560
_cell_length_c 17.771952
_cell_angle_alpha 90.000000
_cell_angle_beta 90.000000
_cell_angle_gamma 90.000000
_cell_volume 4705.467449
_symmetry_space_group_name_H-M "I M M M"
_symmetry_group_IT_number 71
_symmetry_cell_setting 'orthorhombic'
loop_
_space_group_symop_operation_xyz
x,y,z
-x,-y,z
x,-y,-z
-x,y,-z
-x,-y,-z
x,y,-z
-x,y,z
x,-y,z
1/2+x,1/2+y,1/2+z
1/2-x,1/2-y,1/2+z
1/2+x,1/2-y,1/2-z
1/2-x,1/2+y,1/2-z
1/2-x,1/2-y,1/2-z
1/2+x,1/2+y,1/2-z
1/2-x,1/2+y,1/2+z
1/2+x,1/2-y,1/2+z
loop_
_atom_site_type_symbol
_atom_site_label
_atom_site_fract_x
_atom_site_fract_y
_atom_site_fract_z
Si Si1 0.594904 0.172566 0.500000
Si Si2 0.500000 0.825140 0.086752
Si Si3 0.051213 0.324817 0.151957
Si Si4 0.766961 0.166028 0.845938
Si Si5 0.413834 0.825015 0.812274
Si Si6 0.679667 0.328661 0.202017
Si Si7 0.684049 0.662022 0.500000
O O1 0.573658 0.241662 0.423814
O O2 0.648167 0.206879 0.500000
O O3 0.586176 0.000000 0.500000
O O4 0.545979 0.769824 0.130561
O O5 0.500000 0.000000 0.087486
O O6 0.500000 0.766875 0.000000
O O7 0.052166 0.500000 0.149871
O O8 0.075872 0.269463 0.227548
O O9 0.000000 0.263898 0.154815
O O10 0.724637 0.277165 0.842444
O O11 0.809022 0.208186 0.789668
O O12 0.750435 0.000000 0.826515
O O13 0.783795 0.180781 0.929518
O O14 0.364572 0.755548 0.831447
O O15 0.410109 0.000000 0.816940
O O16 0.671052 0.500000 0.188208
O O17 0.660274 0.500000 0.500000
#
# Coordination Sequence:
#
# PCOD8287964 Si02
#       7
#     8   8  16  16  16  16   8
#     4  10  19  28  46  76 106 136 169 205 248 297
#     4   9  18  34  55  78 100 128 173 221 255 293
#     4   9  16  28  47  73 103 135 172 211 246 287
#     4   9  19  36  55  75 101 136 175 210 248 299
#     4  10  18  32  55  77 100 133 174 214 253 302
#     4  10  20  34  54  79 106 134 166 209 259 310
#     4  10  20  35  53  73 102 135 169 210 250 295
#
# _framework density 18.701649
#
# number of rings (size 3 to 8) (size 9 to 14) (size 15 to 20)
#    0.000    2.455    0.909    1.909    0.000    2.545 
#    1.636    0.455    0.000    2.727    0.000    0.000 
#    0.000    0.000    0.000    0.000    0.000    0.000 
#
# Total GULP energy -545380.456386 kJ/mol
# GULP energy per Si atom -12395.010372 kJ/mol
# Density = 1.865908 g / cm^3
# Si number density = 18.701649 Si / 1000 Ang^3
#
#
#
# Elastic Constant Matrix: (Units=GPa)
#
#
# Indices 1 2 3 4 5 6 
#
# 1 121.5362 34.2038 48.3624 0.0000 0.0000 0.0000
# 2 34.2038 29.4259 20.7234 0.0000 0.0000 0.0000
# 3 48.3624 20.7234 96.6684 0.0000 0.0000 0.0000
# 4 0.0000 0.0000 0.0000 8.2240 0.0000 0.0000
# 5 0.0000 0.0000 0.0000 0.0000 13.3902 0.0000
# 6 0.0000 0.0000 0.0000 0.0000 0.0000 22.5312
#
#
#
# Elastic Compliance Matrix: (Units=1/GPa)
#
#
# Indices 1 2 3 4 5 6 
#
# 1 0.013405 -0.012789 -0.003965 0.000000 0.000000 0.000000
# 2 -0.012789 0.052229 -0.004798 0.000000 0.000000 0.000000
# 3 -0.003965 -0.004798 0.013357 0.000000 0.000000 0.000000
# 4 0.000000 0.000000 0.000000 0.121595 0.000000 0.000000
# 5 0.000000 0.000000 0.000000 0.000000 0.074681 0.000000
# 6 0.000000 0.000000 0.000000 0.000000 0.000000 0.044383
#
#
# Mechanical properties :
#
#
# Convention : Reuss Voigt Hill
#
# Bulk Modulus (GPa) = 27.86602 50.46774 39.16688
# Shear Modulus (GPa) = 13.34346 18.45184 15.89765
#
# Velocity S-wave (km/s) = 2.67402 3.14449 2.91875
# Velocity P-wave (km/s) = 4.94636 6.34256 5.68747
#
# Compressibility (1/GPa) = 0.03588600
#
# Stress axis : x y z
#
# Youngs Moduli (GPa) = 74.59953 19.14657 74.86863
#
# Poissons Ratio (x) = 0.24487 0.29683
# Poissons Ratio (y) = 0.95408 0.35924
# Poissons Ratio (z) = 0.29576 0.09187
#
# Static dielectric constant tensor:
#      x y z
#    x 3.371830 0.000000 0.000000 
#    y 0.000000 3.154680 0.000000 
#    z 0.000000 0.000000 3.635680 
# 
# 
# High freq. dielectric constant tensor:
#      x y z
#    x 1.729280 0.000000 0.000000 
#    y 0.000000 1.689840 0.000000 
#    z 0.000000 0.000000 1.729480 
# 
# From -- ./inp_files/49278.got.cif
#   From: 2010.06.25/outbox.cif.g09.slc.cpg/sg71_25_cif.got.tgz:49278.got - 2010.06.28 04:59:45.
