data_PCOD8287066
_publ_section_title
;
Structure prediction by ZEFSAII (Michael W. Deem and Ramdas Pophale) SiO2 
 PCOD8287066
Probable space group: I M M M
;
_chemical_formula_sum "Si O2"
_cell_formula_units_Z 76
_cell_length_a 19.302616
_cell_length_b 13.487788
_cell_length_c 16.023144
_cell_angle_alpha 90.000000
_cell_angle_beta 90.000000
_cell_angle_gamma 90.000000
_cell_volume 4171.619010
_symmetry_space_group_name_H-M "I M M M"
_symmetry_group_IT_number 71
_symmetry_cell_setting 'orthorhombic'
loop_
_space_group_symop_operation_xyz
x,y,z
-x,-y,z
x,-y,-z
-x,y,-z
-x,-y,-z
x,y,-z
-x,y,z
x,-y,z
1/2+x,1/2+y,1/2+z
1/2-x,1/2-y,1/2+z
1/2+x,1/2-y,1/2-z
1/2-x,1/2+y,1/2-z
1/2-x,1/2-y,1/2-z
1/2+x,1/2+y,1/2-z
1/2-x,1/2+y,1/2+z
1/2+x,1/2-y,1/2+z
loop_
_atom_site_type_symbol
_atom_site_label
_atom_site_fract_x
_atom_site_fract_y
_atom_site_fract_z
Si Si1 0.500000 0.117256 0.168999
Si Si2 0.500000 0.751352 0.321090
Si Si3 0.355649 0.384653 0.500000
Si Si4 0.777452 0.614381 0.752518
Si Si5 0.500000 0.705678 0.500000
Si Si6 0.360089 0.116604 0.908612
Si Si7 0.154038 0.795985 0.824058
O O1 0.500000 0.150782 0.265403
O O2 0.566423 0.161239 0.121272
O O3 0.500000 0.000000 0.172218
O O4 0.500000 0.778495 0.419743
O O5 0.428246 0.690694 0.304350
O O6 0.334288 0.500000 0.500000
O O7 0.437581 0.371509 0.500000
O O8 0.325662 0.334210 0.583617
O O9 0.789339 0.500000 0.776800
O O10 0.802834 0.642815 0.659418
O O11 0.820667 0.680837 0.818233
O O12 0.695739 0.641572 0.747122
O O13 0.369222 0.000000 0.915903
O O14 0.339976 0.160348 0.000000
#
# Coordination Sequence:
#
# PCOD8287066 Si02
#       7
#     8   8   8  16   4  16  16
#     4  10  17  28  48  73 104 140 173 215 273 321
#     4  10  18  34  49  69 103 137 178 223 265 312
#     4  10  19  34  55  79 104 132 170 220 267 311
#     4  10  20  35  52  76 109 142 175 218 267 322
#     4   8  19  32  49  72 100 136 169 214 266 308
#     4   9  17  28  47  75 104 133 168 211 264 320
#     4  10  21  34  53  78 105 139 179 220 266 317
#
# _framework density 18.218346
#
# number of rings (size 3 to 8) (size 9 to 14) (size 15 to 20)
#    0.000    2.316    2.105    1.105    1.474    1.263 
#    0.000    2.368    0.000    3.789    0.000    0.000 
#    0.000    0.000    0.000   21.053    0.000    0.105 
#
# Total GULP energy -470802.806897 kJ/mol
# GULP energy per Si atom -12389.547550 kJ/mol
# Density = 1.817688 g / cm^3
# Si number density = 18.218346 Si / 1000 Ang^3
#
#
#
# Elastic Constant Matrix: (Units=GPa)
#
#
# Indices 1 2 3 4 5 6 
#
# 1 98.8373 22.7440 22.5115 0.0000 0.0000 0.0000
# 2 22.7440 94.4785 46.9256 0.0000 0.0000 0.0000
# 3 22.5115 46.9256 97.0315 0.0000 0.0000 0.0000
# 4 0.0000 0.0000 0.0000 28.4234 0.0000 0.0000
# 5 0.0000 0.0000 0.0000 0.0000 21.4144 0.0000
# 6 0.0000 0.0000 0.0000 0.0000 0.0000 16.9980
#
#
#
# Elastic Compliance Matrix: (Units=1/GPa)
#
#
# Indices 1 2 3 4 5 6 
#
# 1 0.010910 -0.001802 -0.001660 0.000000 0.000000 0.000000
# 2 -0.001802 0.014228 -0.006463 0.000000 0.000000 0.000000
# 3 -0.001660 -0.006463 0.013816 0.000000 0.000000 0.000000
# 4 0.000000 0.000000 0.000000 0.035182 0.000000 0.000000
# 5 0.000000 0.000000 0.000000 0.000000 0.046698 0.000000
# 6 0.000000 0.000000 0.000000 0.000000 0.000000 0.058830
#
#
# Mechanical properties :
#
#
# Convention : Reuss Voigt Hill
#
# Bulk Modulus (GPa) = 52.34031 52.74550 52.54290
# Shear Modulus (GPa) = 24.28560 26.57823 25.43192
#
# Velocity S-wave (km/s) = 3.65503 3.82366 3.74030
# Velocity P-wave (km/s) = 6.82672 6.96481 6.89611
#
# Compressibility (1/GPa) = 0.01910573
#
# Stress axis : x y z
#
# Youngs Moduli (GPa) = 91.65607 70.28287 72.37736
#
# Poissons Ratio (x) = 0.12666 0.12012
# Poissons Ratio (y) = 0.16518 0.46776
# Poissons Ratio (z) = 0.15212 0.45423
#
# Static dielectric constant tensor:
#      x y z
#    x 3.684680 0.000000 0.000000 
#    y 0.000000 3.004200 0.000000 
#    z 0.000000 0.000000 3.625480 
# 
# 
# High freq. dielectric constant tensor:
#      x y z
#    x 1.730910 0.000000 0.000000 
#    y 0.000000 1.658410 0.000000 
#    z 0.000000 0.000000 1.696480 
# 
# From -- ./inp_files/37696.got.cif
#   From: 2010.06.25/outbox.cif.g09.slc.cpg/sg71_19_cif.got.tgz:37696.got - 2010.06.28 04:59:45.
