data_PCOD8287330
_publ_section_title
;
Structure prediction by ZEFSAII (Michael W. Deem and Ramdas Pophale) SiO2 
 PCOD8287330
Probable space group: I M M M
;
_chemical_formula_sum "Si O2"
_cell_formula_units_Z 120
_cell_length_a 17.458748
_cell_length_b 22.682199
_cell_length_c 18.697275
_cell_angle_alpha 90.000000
_cell_angle_beta 90.000000
_cell_angle_gamma 90.000000
_cell_volume 7404.173186
_symmetry_space_group_name_H-M "I M M M"
_symmetry_group_IT_number 71
_symmetry_cell_setting 'orthorhombic'
loop_
_space_group_symop_operation_xyz
x,y,z
-x,-y,z
x,-y,-z
-x,y,-z
-x,-y,-z
x,y,-z
-x,y,z
x,-y,z
1/2+x,1/2+y,1/2+z
1/2-x,1/2-y,1/2+z
1/2+x,1/2-y,1/2-z
1/2-x,1/2+y,1/2-z
1/2-x,1/2-y,1/2-z
1/2+x,1/2+y,1/2-z
1/2-x,1/2+y,1/2+z
1/2+x,1/2-y,1/2+z
loop_
_atom_site_type_symbol
_atom_site_label
_atom_site_fract_x
_atom_site_fract_y
_atom_site_fract_z
Si Si1 0.860270 0.836790 0.083460
Si Si2 0.088020 0.932870 0.808437
Si Si3 0.086727 0.285017 0.145051
Si Si4 0.699940 0.788582 0.078894
Si Si5 0.000000 0.067562 0.415331
Si Si6 0.088813 0.254183 0.305832
Si Si7 0.862434 0.877861 0.331314
Si Si8 0.271744 0.840322 0.580094
O O1 0.891632 0.893776 0.123448
O O2 0.904223 0.778861 0.109679
O O3 0.769438 0.832130 0.098914
O O4 0.877148 0.844712 0.000000
O O5 0.139600 0.917704 0.739591
O O6 0.000000 0.921801 0.785864
O O7 0.102760 0.000000 0.831069
O O8 0.106091 0.281206 0.228726
O O9 0.142417 0.333829 0.110666
O O10 0.000000 0.306598 0.132710
O O11 0.632444 0.794871 0.136408
O O12 0.732342 0.722938 0.078427
O O13 0.667336 0.803795 0.000000
O O14 0.924813 0.100145 0.387652
O O15 0.000000 0.071838 0.500000
O O16 0.000000 0.000000 0.388508
O O17 0.119398 0.187994 0.306231
O O18 0.000000 0.255231 0.325575
O O19 0.779453 0.882467 0.369433
O O20 0.276042 0.866863 0.500000
#
# Coordination Sequence:
#
# PCOD8287330 Si02
#       8
#    16  16  16  16   8  16  16  16
#     4  10  20  33  49  67  92 129 166 199 237 279
#     4  11  22  34  49  69  93 124 164 205 241 276
#     4  10  19  30  47  72  99 127 161 195 234 283
#     4   8  17  30  44  66  95 124 158 195 233 281
#     4  11  22  34  50  70  95 129 165 205 245 277
#     4  10  18  28  45  70  96 128 161 190 229 286
#     4  11  19  33  49  66  95 127 164 199 234 283
#     4   9  19  31  46  69  94 125 160 194 233 283
#
# _framework density 16.207076000000001
#
# number of rings (size 3 to 8) (size 9 to 14) (size 15 to 20)
#    0.000    2.067    2.667    2.400    1.867    4.533 
#    0.000    0.667    0.000    0.000    0.000    0.000 
#    0.000    3.733    0.000    9.467    0.000    0.000 
#
# Total GULP energy -744043.032494 kJ/mol
# GULP energy per Si atom -12400.717208 kJ/mol
# Density = 1.617019 g / cm^3
# Si number density = 16.207076 Si / 1000 Ang^3
#
#
#
# Elastic Constant Matrix: (Units=GPa)
#
#
# Indices 1 2 3 4 5 6 
#
# 1 92.0245 25.0667 54.7919 0.0001 0.0000 0.0000
# 2 25.0667 39.6640 18.9424 0.0000 0.0000 0.0000
# 3 54.7919 18.9424 101.9384 -0.0001 0.0000 0.0000
# 4 0.0001 0.0000 -0.0001 11.9402 0.0000 0.0000
# 5 0.0000 0.0000 0.0000 0.0000 27.5490 0.0000
# 6 0.0000 0.0000 0.0000 0.0000 0.0000 14.3943
#
#
#
# Elastic Compliance Matrix: (Units=1/GPa)
#
#
# Indices 1 2 3 4 5 6 
#
# 1 0.017717 -0.007296 -0.008167 0.000000 0.000000 0.000000
# 2 -0.007296 0.030672 -0.001778 0.000000 0.000000 0.000000
# 3 -0.008167 -0.001778 0.014530 0.000000 0.000000 0.000000
# 4 0.000000 0.000000 0.000000 0.083751 0.000000 0.000000
# 5 0.000000 0.000000 0.000000 0.000000 0.036299 0.000000
# 6 0.000000 0.000000 0.000000 0.000000 0.000000 0.069472
#
#
# Mechanical properties :
#
#
# Convention : Reuss Voigt Hill
#
# Bulk Modulus (GPa) = 35.16594 47.91430 41.54012
# Shear Modulus (GPa) = 16.86903 19.76509 18.31706
#
# Velocity S-wave (km/s) = 3.22971 3.49597 3.36548
# Velocity P-wave (km/s) = 5.97102 6.77671 6.38658
#
# Compressibility (1/GPa) = 0.02843661
#
# Stress axis : x y z
#
# Youngs Moduli (GPa) = 56.44376 32.60318 68.82351
#
# Poissons Ratio (x) = 0.23788 0.56208
# Poissons Ratio (y) = 0.41183 0.12235
# Poissons Ratio (z) = 0.46097 0.05796
#
# Static dielectric constant tensor:
#      x y z
#    x 3.179350 0.000000 0.000000 
#    y 0.000000 2.739760 0.000000 
#    z 0.000000 0.000000 3.275480 
# 
# 
# High freq. dielectric constant tensor:
#      x y z
#    x 1.619300 0.000000 0.000000 
#    y 0.000000 1.571670 0.000000 
#    z 0.000000 0.000000 1.644610 
# 
# From -- ./inp_files/46467.got.cif
#   From: 2010.06.25/outbox.cif.g09.slc.cpg/sg71_24_cif.got.tgz:46467.got - 2010.06.28 04:59:45.
