data_PCOD8287865
_publ_section_title
;
Structure prediction by ZEFSAII (Michael W. Deem and Ramdas Pophale) SiO2 
 PCOD8287865
Probable space group: I M M M
;
_chemical_formula_sum "Si O2"
_cell_formula_units_Z 56
_cell_length_a 25.136211
_cell_length_b 16.532948
_cell_length_c 7.514052
_cell_angle_alpha 90.000000
_cell_angle_beta 90.000000
_cell_angle_gamma 90.000000
_cell_volume 3122.657190
_symmetry_space_group_name_H-M "I M M M"
_symmetry_group_IT_number 71
_symmetry_cell_setting 'orthorhombic'
loop_
_space_group_symop_operation_xyz
x,y,z
-x,-y,z
x,-y,-z
-x,y,-z
-x,-y,-z
x,y,-z
-x,y,z
x,-y,z
1/2+x,1/2+y,1/2+z
1/2-x,1/2-y,1/2+z
1/2+x,1/2-y,1/2-z
1/2-x,1/2+y,1/2-z
1/2-x,1/2-y,1/2-z
1/2+x,1/2+y,1/2-z
1/2-x,1/2+y,1/2+z
1/2+x,1/2-y,1/2+z
loop_
_atom_site_type_symbol
_atom_site_label
_atom_site_fract_x
_atom_site_fract_y
_atom_site_fract_z
Si Si1 0.056797 0.651825 0.000000
Si Si2 0.000000 0.089817 0.708838
Si Si3 0.667293 0.909972 0.500000
Si Si4 0.082572 0.222259 0.705973
Si Si5 0.306063 0.787247 0.797138
O O1 0.059162 0.706148 0.823301
O O2 0.103236 0.585932 0.000000
O O3 0.000000 0.606488 0.000000
O O4 0.946267 0.138590 0.765761
O O5 0.000000 0.078341 0.500000
O O6 0.000000 0.000000 0.798161
O O7 0.687080 0.865752 0.323455
O O8 0.690735 0.000000 0.500000
O O9 0.068975 0.240375 0.500000
O O10 0.146811 0.220915 0.736844
O O11 0.250000 0.750000 0.750000
O O12 0.307283 0.816893 0.000000
#
# Coordination Sequence:
#
# PCOD8287865 Si02
#       5
#     8   8   8  16  16
#     4  10  18  31  54  78  98 138 177 215 261 326
#     4   9  16  29  49  73 104 138 170 212 268 317
#     4  10  22  37  54  82 114 137 174 231 280 319
#     4   9  18  31  49  74 104 136 177 217 260 318
#     4  10  19  35  59  81 102 143 188 223 265 329
#
# _framework density 17.933443
#
# number of rings (size 3 to 8) (size 9 to 14) (size 15 to 20)
#    0.000    2.429    2.857    0.000    0.000    0.857 
#    0.000    2.857    0.000    0.000    0.000    8.000 
#    0.000    0.000    0.000    0.000    0.000    0.000 
#
# Total GULP energy -346949.307920 kJ/mol
# GULP energy per Si atom -12391.046711 kJ/mol
# Density = 1.789263 g / cm^3
# Si number density = 17.933443 Si / 1000 Ang^3
#
#
#
# Elastic Constant Matrix: (Units=GPa)
#
#
# Indices 1 2 3 4 5 6 
#
# 1 153.2027 55.7746 37.1391 0.0000 0.0000 0.0000
# 2 55.7746 115.1682 40.1743 0.0000 0.0000 0.0000
# 3 37.1391 40.1743 98.8062 0.0000 0.0000 0.0000
# 4 0.0000 0.0000 0.0000 13.8420 0.0000 0.0000
# 5 0.0000 0.0000 0.0000 0.0000 9.3283 0.0000
# 6 0.0000 0.0000 0.0000 0.0000 0.0000 16.0319
#
#
#
# Elastic Compliance Matrix: (Units=1/GPa)
#
#
# Indices 1 2 3 4 5 6 
#
# 1 0.008163 -0.003359 -0.001702 0.000000 0.000000 0.000000
# 2 -0.003359 0.011501 -0.003413 0.000000 0.000000 0.000000
# 3 -0.001702 -0.003413 0.012149 0.000000 0.000000 0.000000
# 4 0.000000 0.000000 0.000000 0.072244 0.000000 0.000000
# 5 0.000000 0.000000 0.000000 0.000000 0.107200 0.000000
# 6 0.000000 0.000000 0.000000 0.000000 0.000000 0.062376
#
#
# Mechanical properties :
#
#
# Convention : Reuss Voigt Hill
#
# Bulk Modulus (GPa) = 67.28635 70.37254 68.82944
# Shear Modulus (GPa) = 16.91839 23.44638 20.18239
#
# Velocity S-wave (km/s) = 3.07481 3.61974 3.35835
# Velocity P-wave (km/s) = 7.08572 7.53632 7.31449
#
# Compressibility (1/GPa) = 0.01486186
#
# Stress axis : x y z
#
# Youngs Moduli (GPa) = 122.50395 86.95225 82.31419
#
# Poissons Ratio (x) = 0.29211 0.14013
# Poissons Ratio (y) = 0.41154 0.28097
# Poissons Ratio (z) = 0.20855 0.29680
#
# Static dielectric constant tensor:
#      x y z
#    x 3.676060 0.000000 0.000000 
#    y 0.000000 3.088570 0.000000 
#    z 0.000000 0.000000 3.471160 
# 
# 
# High freq. dielectric constant tensor:
#      x y z
#    x 1.708010 0.000000 0.000000 
#    y 0.000000 1.651080 0.000000 
#    z 0.000000 0.000000 1.708230 
# 
# From -- ./inp_files/11905.got.cif
#   From: 2010.06.25/outbox.cif.g09.slc.cpg/sg71_6_cif.got.tgz:11905.got - 2010.06.28 04:59:45.
