data_PCOD8287899
_publ_section_title
;
Structure prediction by ZEFSAII (Michael W. Deem and Ramdas Pophale) SiO2 
 PCOD8287899
Probable space group: I M M M
;
_chemical_formula_sum "Si O2"
_cell_formula_units_Z 104
_cell_length_a 18.245189
_cell_length_b 18.299130
_cell_length_c 18.115031
_cell_angle_alpha 90.000000
_cell_angle_beta 90.000000
_cell_angle_gamma 90.000000
_cell_volume 6048.085062
_symmetry_space_group_name_H-M "I M M M"
_symmetry_group_IT_number 71
_symmetry_cell_setting 'orthorhombic'
loop_
_space_group_symop_operation_xyz
x,y,z
-x,-y,z
x,-y,-z
-x,y,-z
-x,-y,-z
x,y,-z
-x,y,z
x,-y,z
1/2+x,1/2+y,1/2+z
1/2-x,1/2-y,1/2+z
1/2+x,1/2-y,1/2-z
1/2-x,1/2+y,1/2-z
1/2-x,1/2-y,1/2-z
1/2+x,1/2+y,1/2-z
1/2-x,1/2+y,1/2+z
1/2+x,1/2-y,1/2+z
loop_
_atom_site_type_symbol
_atom_site_label
_atom_site_fract_x
_atom_site_fract_y
_atom_site_fract_z
Si Si1 0.121862 0.337578 0.827201
Si Si2 0.916692 0.171876 0.172788
Si Si3 0.845522 0.083968 0.298807
Si Si4 0.000000 0.585820 0.917291
Si Si5 0.768131 0.175940 0.585517
Si Si6 0.229853 0.840667 0.915962
Si Si7 0.696870 0.080282 0.791855
O O1 0.090106 0.257770 0.811928
O O2 0.192083 0.345710 0.878494
O O3 0.137020 0.367232 0.744998
O O4 0.068796 0.389278 0.871327
O O5 0.905191 0.124480 0.247212
O O6 0.854312 0.154054 0.112447
O O7 0.000000 0.155754 0.144055
O O8 0.834291 0.132965 0.372920
O O9 0.769893 0.082655 0.255971
O O10 0.870151 0.000000 0.317257
O O11 0.000000 0.500000 0.924312
O O12 0.000000 0.620636 0.000000
O O13 0.770696 0.152534 0.500000
O O14 0.770658 0.263291 0.594637
O O15 0.282908 0.896270 0.874324
O O16 0.226261 0.864945 0.000000
O O17 0.662638 0.000000 0.794961
#
# Coordination Sequence:
#
# PCOD8287899 Si02
#       7
#    16  16  16   8  16  16  16
#     4  10  18  32  48  71  99 135 172 201 233 288
#     4  10  19  32  49  71  97 136 171 200 237 290
#     4   9  18  31  48  70  95 124 165 212 251 291
#     4  11  22  32  44  70 110 144 166 195 236 286
#     4   9  17  30  49  72  97 126 159 201 251 296
#     4   9  18  31  48  74 102 127 161 207 249 291
#     4   9  17  30  49  69  94 128 165 207 251 290
#
# _framework density 17.195526000000001
#
# number of rings (size 3 to 8) (size 9 to 14) (size 15 to 20)
#    0.000    2.538    0.769    1.846    0.000    6.154 
#    0.000    0.000    0.000    0.462    0.000    5.923 
#    0.000    1.846    0.000    0.000    0.000    0.000 
#
# Total GULP energy -644337.013979 kJ/mol
# GULP energy per Si atom -12391.096423 kJ/mol
# Density = 1.715639 g / cm^3
# Si number density = 17.195526 Si / 1000 Ang^3
#
#
#
# Elastic Constant Matrix: (Units=GPa)
#
#
# Indices 1 2 3 4 5 6 
#
# 1 41.2693 15.3056 32.8670 0.0000 0.0000 0.0000
# 2 15.3056 53.5819 35.0717 0.0000 0.0000 0.0000
# 3 32.8670 35.0717 117.2063 0.0000 0.0000 0.0000
# 4 0.0000 0.0000 0.0000 25.7012 0.0000 0.0000
# 5 0.0000 0.0000 0.0000 0.0000 3.7628 0.0000
# 6 0.0000 0.0000 0.0000 0.0000 0.0000 6.9661
#
#
#
# Elastic Compliance Matrix: (Units=1/GPa)
#
#
# Indices 1 2 3 4 5 6 
#
# 1 0.031890 -0.004049 -0.007731 0.000000 0.000000 0.000000
# 2 -0.004049 0.023723 -0.005963 0.000000 0.000000 0.000000
# 3 -0.007731 -0.005963 0.012484 0.000000 0.000000 0.000000
# 4 0.000000 0.000000 0.000000 0.038909 0.000000 0.000000
# 5 0.000000 0.000000 0.000000 0.000000 0.265758 0.000000
# 6 0.000000 0.000000 0.000000 0.000000 0.000000 0.143553
#
#
# Mechanical properties :
#
#
# Convention : Reuss Voigt Hill
#
# Bulk Modulus (GPa) = 30.66499 42.06069 36.36284
# Shear Modulus (GPa) = 8.88616 15.87357 12.37987
#
# Velocity S-wave (km/s) = 2.27573 3.04159 2.68609
# Velocity P-wave (km/s) = 4.97766 6.07029 5.55092
#
# Compressibility (1/GPa) = 0.03261047
#
# Stress axis : x y z
#
# Youngs Moduli (GPa) = 31.35812 42.15365 80.10105
#
# Poissons Ratio (x) = 0.17068 0.61926
# Poissons Ratio (y) = 0.12697 0.47765
# Poissons Ratio (z) = 0.24243 0.25137
#
# Static dielectric constant tensor:
#      x y z
#    x 2.952100 0.000000 0.000000 
#    y 0.000000 3.399200 0.000000 
#    z 0.000000 0.000000 3.278010 
# 
# 
# High freq. dielectric constant tensor:
#      x y z
#    x 1.633050 0.000000 0.000000 
#    y 0.000000 1.671190 0.000000 
#    z 0.000000 0.000000 1.657440 
# 
# From -- ./inp_files/46119.got.cif
#   From: 2010.06.25/outbox.cif.g09.slc.cpg/sg71_24_cif.got.tgz:46119.got - 2010.06.28 04:59:45.
