data_PCOD8287657
_publ_section_title
;
Structure prediction by ZEFSAII (Michael W. Deem and Ramdas Pophale) SiO2 
 PCOD8287657
Probable space group: I M M M
;
_chemical_formula_sum "Si O2"
_cell_formula_units_Z 112
_cell_length_a 23.835330
_cell_length_b 13.505489
_cell_length_c 19.477675
_cell_angle_alpha 90.000000
_cell_angle_beta 90.000000
_cell_angle_gamma 90.000000
_cell_volume 6270.015258
_symmetry_space_group_name_H-M "I M M M"
_symmetry_group_IT_number 71
_symmetry_cell_setting 'orthorhombic'
loop_
_space_group_symop_operation_xyz
x,y,z
-x,-y,z
x,-y,-z
-x,y,-z
-x,-y,-z
x,y,-z
-x,y,z
x,-y,z
1/2+x,1/2+y,1/2+z
1/2-x,1/2-y,1/2+z
1/2+x,1/2-y,1/2-z
1/2-x,1/2+y,1/2-z
1/2-x,1/2-y,1/2-z
1/2+x,1/2+y,1/2-z
1/2-x,1/2+y,1/2+z
1/2+x,1/2-y,1/2+z
loop_
_atom_site_type_symbol
_atom_site_label
_atom_site_fract_x
_atom_site_fract_y
_atom_site_fract_z
Si Si1 0.438670 0.609320 0.080726
Si Si2 0.360023 0.736327 0.835788
Si Si3 0.262760 0.743410 0.669250
Si Si4 0.164193 0.384064 0.077648
Si Si5 0.936736 0.272159 0.868322
Si Si6 0.638787 0.617201 0.305276
Si Si7 0.937706 0.612324 0.272325
O O1 0.500000 0.641930 0.109660
O O2 0.424568 0.500000 0.109385
O O3 0.390797 0.683955 0.102040
O O4 0.440975 0.606786 0.000000
O O5 0.298475 0.764960 0.864597
O O6 0.360335 0.662346 0.771027
O O7 0.392158 0.837607 0.820901
O O8 0.250000 0.750000 0.750000
O O9 0.294537 0.838127 0.635766
O O10 0.302458 0.647605 0.657514
O O11 0.157060 0.500000 0.094785
O O12 0.103827 0.328815 0.078564
O O13 0.188188 0.370200 0.000000
O O14 0.912650 0.163388 0.848838
O O15 0.937331 0.338745 0.801375
O O16 0.000000 0.260475 0.898358
O O17 0.631846 0.500000 0.302939
O O18 0.918820 0.500000 0.263484
O O19 0.000000 0.621202 0.304860
#
# Coordination Sequence:
#
# PCOD8287657 Si02
#       7
#    16  16  16  16  16  16  16
#     4   9  18  31  46  68 100 133 161 196 249 308
#     4  10  18  30  49  73  96 126 169 210 249 301
#     4   9  20  34  49  73 103 136 174 215 257 304
#     4  10  21  36  54  78 109 140 169 211 265 312
#     4   9  18  32  50  75 105 134 166 203 245 302
#     4   9  18  32  49  72 101 130 163 208 258 298
#     4   9  17  29  47  73 104 133 161 202 255 303
#
# _framework density 17.862794000000001
#
# number of rings (size 3 to 8) (size 9 to 14) (size 15 to 20)
#    0.000    2.714    0.000    2.571    0.000    6.000 
#    0.000    2.143    0.000    7.286    0.000   10.000 
#    0.000    0.000    0.000    0.000    0.000    0.000 
#
# Total GULP energy -693900.472772 kJ/mol
# GULP energy per Si atom -12391.079871 kJ/mol
# Density = 1.782214 g / cm^3
# Si number density = 17.862794 Si / 1000 Ang^3
#
#
#
# Elastic Constant Matrix: (Units=GPa)
#
#
# Indices 1 2 3 4 5 6 
#
# 1 134.3400 54.6723 26.8619 0.0000 0.0000 0.0000
# 2 54.6723 130.3052 22.6085 0.0000 0.0000 0.0000
# 3 26.8619 22.6085 42.9377 0.0000 0.0000 0.0000
# 4 0.0000 0.0000 0.0000 23.6628 0.0000 0.0000
# 5 0.0000 0.0000 0.0000 0.0000 19.6474 0.0000
# 6 0.0000 0.0000 0.0000 0.0000 0.0000 29.7076
#
#
#
# Elastic Compliance Matrix: (Units=1/GPa)
#
#
# Indices 1 2 3 4 5 6 
#
# 1 0.009647 -0.003302 -0.004296 0.000000 0.000000 0.000000
# 2 -0.003302 0.009576 -0.002976 0.000000 0.000000 0.000000
# 3 -0.004296 -0.002976 0.027545 0.000000 0.000000 0.000000
# 4 0.000000 0.000000 0.000000 0.042261 0.000000 0.000000
# 5 0.000000 0.000000 0.000000 0.000000 0.050897 0.000000
# 6 0.000000 0.000000 0.000000 0.000000 0.000000 0.033661
#
#
# Mechanical properties :
#
#
# Convention : Reuss Voigt Hill
#
# Bulk Modulus (GPa) = 39.03545 57.31870 48.17708
# Shear Modulus (GPa) = 24.59714 28.16623 26.38168
#
# Velocity S-wave (km/s) = 3.71483 3.97521 3.84722
# Velocity P-wave (km/s) = 6.34825 7.29573 6.83842
#
# Compressibility (1/GPa) = 0.02561774
#
# Stress axis : x y z
#
# Youngs Moduli (GPa) = 103.66226 104.42586 36.30475
#
# Poissons Ratio (x) = 0.34482 0.15598
# Poissons Ratio (y) = 0.34230 0.10806
# Poissons Ratio (z) = 0.44537 0.31082
#
# Static dielectric constant tensor:
#      x y z
#    x 4.149040 0.000000 0.000000 
#    y 0.000000 3.266520 0.000000 
#    z 0.000000 0.000000 2.988500 
# 
# 
# High freq. dielectric constant tensor:
#      x y z
#    x 1.706720 0.000000 0.000000 
#    y 0.000000 1.682220 0.000000 
#    z 0.000000 0.000000 1.658140 
# 
# From -- ./inp_files/26279.got.cif
#   From: 2010.06.25/outbox.cif.g09.slc.cpg/sg71_14_cif.got.tgz:26279.got - 2010.06.28 04:59:45.
