data_PCOD8287360
_publ_section_title
;
Structure prediction by ZEFSAII (Michael W. Deem and Ramdas Pophale) SiO2 
 PCOD8287360
Probable space group: I M M M
;
_chemical_formula_sum "Si O2"
_cell_formula_units_Z 88
_cell_length_a 9.102633
_cell_length_b 26.355711
_cell_length_c 19.575252
_cell_angle_alpha 90.000000
_cell_angle_beta 90.000000
_cell_angle_gamma 90.000000
_cell_volume 4696.227545
_symmetry_space_group_name_H-M "I M M M"
_symmetry_group_IT_number 71
_symmetry_cell_setting 'orthorhombic'
loop_
_space_group_symop_operation_xyz
x,y,z
-x,-y,z
x,-y,-z
-x,y,-z
-x,-y,-z
x,y,-z
-x,y,z
x,-y,z
1/2+x,1/2+y,1/2+z
1/2-x,1/2-y,1/2+z
1/2+x,1/2-y,1/2-z
1/2-x,1/2+y,1/2-z
1/2-x,1/2-y,1/2-z
1/2+x,1/2+y,1/2-z
1/2-x,1/2+y,1/2+z
1/2+x,1/2-y,1/2+z
loop_
_atom_site_type_symbol
_atom_site_label
_atom_site_fract_x
_atom_site_fract_y
_atom_site_fract_z
Si Si1 0.833591 0.389213 0.389636
Si Si2 0.327256 0.325783 0.500000
Si Si3 0.829478 0.137441 0.610062
Si Si4 0.672173 0.100732 0.268605
Si Si5 0.667444 0.278663 0.000000
Si Si6 0.672635 0.500000 0.760600
Si Si7 0.674627 0.557391 0.000000
Si Si8 0.165704 0.500000 0.624594
O O1 0.727755 0.353377 0.431851
O O2 0.790046 0.385622 0.309799
O O3 0.817680 0.447602 0.417522
O O4 0.000000 0.370396 0.400909
O O5 0.500000 0.327844 0.500000
O O6 0.277044 0.268086 0.500000
O O7 0.734794 0.143194 0.679723
O O8 0.801902 0.188300 0.567213
O O9 0.774027 0.088424 0.566981
O O10 0.000000 0.131980 0.629051
O O11 0.500000 0.093805 0.278017
O O12 0.754831 0.049774 0.293126
O O13 0.500000 0.258936 0.000000
O O14 0.500000 0.500000 0.775060
O O15 0.706984 0.500000 0.680373
O O16 0.739751 0.500000 0.000000
O O17 0.500000 0.555900 0.000000
O O18 0.000000 0.500000 0.658634
#
# Coordination Sequence:
#
# PCOD8287360 Si02
#       8
#    16   8  16  16   8   8   8   8
#     4   9  19  37  58  80 111 150 182 213 268 337
#     4  12  25  38  58  84 106 133 182 241 284 322
#     4   9  18  33  56  82 107 144 186 225 270 324
#     4  10  20  34  53  80 114 148 183 223 270 329
#     4   9  20  41  61  78 106 145 187 225 277 343
#     4  10  18  28  47  74 109 152 186 216 258 308
#     4   8  15  28  47  77 114 145 180 216 257 320
#     4   8  16  33  55  80 110 143 177 210 257 325
#
# _framework density 18.738444999999999
#
# number of rings (size 3 to 8) (size 9 to 14) (size 15 to 20)
#    0.000    2.636    0.000    4.364    1.273    4.727 
#    0.000    4.091    0.000    0.545    0.000    0.000 
#    0.000    0.000    0.000    0.000    0.000    0.000 
#
# Total GULP energy -545357.956072 kJ/mol
# GULP energy per Si atom -12394.499002 kJ/mol
# Density = 1.869580 g / cm^3
# Si number density = 18.738445 Si / 1000 Ang^3
#
#
#
# Elastic Constant Matrix: (Units=GPa)
#
#
# Indices 1 2 3 4 5 6 
#
# 1 114.0270 56.9917 64.5941 0.0000 0.0000 0.0000
# 2 56.9917 106.1734 54.7434 0.0000 0.0000 0.0000
# 3 64.5941 54.7434 111.0234 -0.0001 0.0000 0.0000
# 4 0.0000 0.0000 -0.0001 18.4892 0.0000 0.0000
# 5 0.0000 0.0000 0.0000 0.0000 30.4653 0.0000
# 6 0.0000 0.0000 0.0000 0.0000 0.0000 26.9354
#
#
#
# Elastic Compliance Matrix: (Units=1/GPa)
#
#
# Indices 1 2 3 4 5 6 
#
# 1 0.014607 -0.004638 -0.006211 0.000000 0.000000 0.000000
# 2 -0.004638 0.014102 -0.004255 0.000000 0.000000 0.000000
# 3 -0.006211 -0.004255 0.014719 0.000000 0.000000 0.000000
# 4 0.000000 0.000000 0.000000 0.054086 0.000000 0.000000
# 5 0.000000 0.000000 0.000000 0.000000 0.032824 0.000000
# 6 0.000000 0.000000 0.000000 0.000000 0.000000 0.037126
#
#
# Mechanical properties :
#
#
# Convention : Reuss Voigt Hill
#
# Bulk Modulus (GPa) = 75.64889 75.98690 75.81790
# Shear Modulus (GPa) = 24.74290 25.50426 25.12358
#
# Velocity S-wave (km/s) = 3.63772 3.69327 3.66560
# Velocity P-wave (km/s) = 7.62251 7.66983 7.64621
#
# Compressibility (1/GPa) = 0.01321896
#
# Stress axis : x y z
#
# Youngs Moduli (GPa) = 68.46263 70.91182 67.93954
#
# Poissons Ratio (x) = 0.32888 0.42199
# Poissons Ratio (y) = 0.31752 0.28909
# Poissons Ratio (z) = 0.42524 0.30173
#
# Static dielectric constant tensor:
#      x y z
#    x 3.229640 0.000000 0.000000 
#    y 0.000000 3.413490 0.000000 
#    z 0.000000 0.000000 3.334910 
# 
# 
# High freq. dielectric constant tensor:
#      x y z
#    x 1.713660 0.000000 0.000000 
#    y 0.000000 1.714600 0.000000 
#    z 0.000000 0.000000 1.722150 
# 
# From -- ./inp_files/50633.got.cif
#   From: 2010.06.25/outbox.cif.g09.slc.cpg/sg71_26_cif.got.tgz:50633.got - 2010.06.28 04:59:45.
