data_PCOD8287200
_publ_section_title
;
Structure prediction by ZEFSAII (Michael W. Deem and Ramdas Pophale) SiO2 
 PCOD8287200
Probable space group: I M M M
;
_chemical_formula_sum "Si O2"
_cell_formula_units_Z 104
_cell_length_a 36.516959
_cell_length_b 9.012620
_cell_length_c 27.645440
_cell_angle_alpha 90.000000
_cell_angle_beta 90.000000
_cell_angle_gamma 90.000000
_cell_volume 9098.486827
_symmetry_space_group_name_H-M "I M M M"
_symmetry_group_IT_number 71
_symmetry_cell_setting 'orthorhombic'
loop_
_space_group_symop_operation_xyz
x,y,z
-x,-y,z
x,-y,-z
-x,y,-z
-x,-y,-z
x,y,-z
-x,y,z
x,-y,z
1/2+x,1/2+y,1/2+z
1/2-x,1/2-y,1/2+z
1/2+x,1/2-y,1/2-z
1/2-x,1/2+y,1/2-z
1/2-x,1/2-y,1/2-z
1/2+x,1/2+y,1/2-z
1/2-x,1/2+y,1/2+z
1/2+x,1/2-y,1/2+z
loop_
_atom_site_type_symbol
_atom_site_label
_atom_site_fract_x
_atom_site_fract_y
_atom_site_fract_z
Si Si1 0.324817 0.668940 0.193380
Si Si2 0.358854 0.176158 0.892169
Si Si3 0.285446 0.174428 0.946168
Si Si4 0.250245 0.165022 0.634686
Si Si5 0.000000 0.667685 0.442604
Si Si6 0.573343 0.327540 0.942954
Si Si7 0.214355 0.674875 0.771354
O O1 0.337615 0.500000 0.201346
O O2 0.354880 0.755428 0.161483
O O3 0.286195 0.678138 0.166528
O O4 0.320962 0.749779 0.245828
O O5 0.324460 0.226075 0.925022
O O6 0.394650 0.241053 0.916469
O O7 0.361880 0.000000 0.888238
O O8 0.252248 0.228714 0.911823
O O9 0.283226 0.000000 0.948194
O O10 0.281030 0.241864 0.000000
O O11 0.284581 0.203219 0.670279
O O12 0.254563 0.000000 0.614010
O O13 0.035522 0.756326 0.424243
O O14 0.000000 0.500000 0.421660
O O15 0.000000 0.662851 0.500000
O O16 0.573970 0.500000 0.928782
O O17 0.578182 0.305089 0.000000
O O18 0.215048 0.500000 0.759865
O O19 0.250000 0.750000 0.750000
#
# Coordination Sequence:
#
# PCOD8287200 Si02
#       7
#    16  16  16  16   8  16  16
#     4   9  16  25  35  48  64  79  97 121 150 183
#     4  10  18  27  38  50  65  84 104 125 152 188
#     4   9  17  26  34  45  61  80 102 127 153 183
#     4   8  15  24  33  45  59  76  98 122 147 178
#     4   9  17  29  43  55  65  79 101 127 153 183
#     4  10  19  29  40  53  68  84 102 126 155 186
#     4   9  15  23  34  47  61  77  98 122 148 178
#
# _framework density 11.430472
#
# number of rings (size 3 to 8) (size 9 to 14) (size 15 to 20)
#    0.000    2.846    0.000    3.462    0.000    7.692 
#    0.000    0.000    0.000    0.000    0.000    0.000 
#    0.000    0.000    0.000    0.000    0.000    0.000 
#
# Total GULP energy -644432.254942 kJ/mol
# GULP energy per Si atom -12392.927980 kJ/mol
# Density = 1.140446 g / cm^3
# Si number density = 11.430472 Si / 1000 Ang^3
#
#
#
# Elastic Constant Matrix: (Units=GPa)
#
#
# Indices 1 2 3 4 5 6 
#
# 1 31.2072 27.4942 34.9343 0.0000 0.0000 0.0000
# 2 27.4942 68.6086 34.8986 0.0000 0.0000 0.0000
# 3 34.9343 34.8986 65.3006 0.0000 0.0000 0.0000
# 4 0.0000 0.0000 0.0000 19.4798 0.0000 0.0000
# 5 0.0000 0.0000 0.0000 0.0000 11.9246 0.0000
# 6 0.0000 0.0000 0.0000 0.0000 0.0000 16.6403
#
#
#
# Elastic Compliance Matrix: (Units=1/GPa)
#
#
# Indices 1 2 3 4 5 6 
#
# 1 0.091245 -0.016117 -0.040201 0.000000 0.000000 0.000000
# 2 -0.016117 0.022864 -0.003597 0.000000 0.000000 0.000000
# 3 -0.040201 -0.003597 0.038742 0.000000 0.000000 0.000000
# 4 0.000000 0.000000 0.000000 0.051335 0.000000 0.000000
# 5 0.000000 0.000000 0.000000 0.000000 0.083860 0.000000
# 6 0.000000 0.000000 0.000000 0.000000 0.000000 0.060095
#
#
# Mechanical properties :
#
#
# Convention : Reuss Voigt Hill
#
# Bulk Modulus (GPa) = 30.28252 39.97451 35.12852
# Shear Modulus (GPa) = 10.43889 14.12822 12.28356
#
# Velocity S-wave (km/s) = 3.02528 3.51951 3.28171
# Velocity P-wave (km/s) = 6.22523 7.18079 6.72001
#
# Compressibility (1/GPa) = 0.03302235
#
# Stress axis : x y z
#
# Youngs Moduli (GPa) = 10.95949 43.73736 25.81150
#
# Poissons Ratio (x) = 0.70492 1.03764
# Poissons Ratio (y) = 0.17664 0.09284
# Poissons Ratio (z) = 0.44058 0.15731
#
# Static dielectric constant tensor:
#      x y z
#    x 1.899150 0.000000 0.000000 
#    y 0.000000 2.554090 0.000000 
#    z 0.000000 0.000000 3.169360 
# 
# 
# High freq. dielectric constant tensor:
#      x y z
#    x 1.383430 0.000000 0.000000 
#    y 0.000000 1.450130 0.000000 
#    z 0.000000 0.000000 1.413710 
# 
# From -- ./inp_files/17435.got.cif
#   From: 2010.06.25/outbox.cif.g09.slc.cpg/sg71_9_cif.got.tgz:17435.got - 2010.06.28 04:59:45.
