data_PCOD8287190
_publ_section_title
;
Structure prediction by ZEFSAII (Michael W. Deem and Ramdas Pophale) SiO2 
 PCOD8287190
Probable space group: I M M M
;
_chemical_formula_sum "Si O2"
_cell_formula_units_Z 96
_cell_length_a 17.489728
_cell_length_b 13.823464
_cell_length_c 26.010991
_cell_angle_alpha 90.000000
_cell_angle_beta 90.000000
_cell_angle_gamma 90.000000
_cell_volume 6288.641539
_symmetry_space_group_name_H-M "I M M M"
_symmetry_group_IT_number 71
_symmetry_cell_setting 'orthorhombic'
loop_
_space_group_symop_operation_xyz
x,y,z
-x,-y,z
x,-y,-z
-x,y,-z
-x,-y,-z
x,y,-z
-x,y,z
x,-y,z
1/2+x,1/2+y,1/2+z
1/2-x,1/2-y,1/2+z
1/2+x,1/2-y,1/2-z
1/2-x,1/2+y,1/2-z
1/2-x,1/2-y,1/2-z
1/2+x,1/2+y,1/2-z
1/2-x,1/2+y,1/2+z
1/2+x,1/2-y,1/2+z
loop_
_atom_site_type_symbol
_atom_site_label
_atom_site_fract_x
_atom_site_fract_y
_atom_site_fract_z
Si Si1 0.357621 0.610611 0.791304
Si Si2 0.090420 0.719718 0.772383
Si Si3 0.217497 0.111649 0.442451
Si Si4 0.913143 0.212495 0.389221
Si Si5 0.696300 0.889590 0.657459
Si Si6 0.090482 0.393374 0.672073
O O1 0.376666 0.500000 0.778230
O O2 0.378605 0.673355 0.741086
O O3 0.409738 0.644043 0.839121
O O4 0.269160 0.624525 0.805790
O O5 0.129004 0.681774 0.824725
O O6 0.116937 0.646698 0.727277
O O7 0.000000 0.722315 0.780440
O O8 0.248803 0.130047 0.500000
O O9 0.140896 0.174313 0.434492
O O10 0.282114 0.140305 0.401061
O O11 0.194492 0.000000 0.433754
O O12 0.884216 0.320173 0.373105
O O13 0.000000 0.214258 0.409653
O O14 0.666974 0.000000 0.659229
O O15 0.126588 0.500000 0.662940
O O16 0.000000 0.399477 0.672340
#
# Coordination Sequence:
#
# PCOD8287190 Si02
#       6
#    16  16  16  16  16  16
#     4   9  17  28  41  60  90 123 145 162 195 248
#     4  10  18  26  41  65  89 113 142 175 207 241
#     4   9  18  31  45  60  78 104 137 172 214 258
#     4   9  16  25  40  62  85 110 139 170 204 242
#     4   9  17  29  44  60  82 113 143 171 205 248
#     4   8  14  24  37  56  84 113 136 159 192 236
#
# _framework density 15.265618
#
# number of rings (size 3 to 8) (size 9 to 14) (size 15 to 20)
#    0.000    3.000    0.000    4.000    0.000    3.667 
#    0.000    0.833    0.000    1.000    0.000    4.667 
#    0.000    0.000    0.000    1.500    0.000    0.000 
#
# Total GULP energy -595045.857017 kJ/mol
# GULP energy per Si atom -12396.788688 kJ/mol
# Density = 1.523087 g / cm^3
# Si number density = 15.265618 Si / 1000 Ang^3
#
#
#
# Elastic Constant Matrix: (Units=GPa)
#
#
# Indices 1 2 3 4 5 6 
#
# 1 49.3406 33.9751 36.1068 0.0000 0.0000 0.0000
# 2 33.9751 109.4858 43.1247 0.0000 0.0000 0.0000
# 3 36.1068 43.1247 82.6611 0.0000 0.0000 0.0000
# 4 0.0000 0.0000 0.0000 18.9928 0.0000 0.0000
# 5 0.0000 0.0000 0.0000 0.0000 15.9513 0.0000
# 6 0.0000 0.0000 0.0000 0.0000 0.0000 17.4427
#
#
#
# Elastic Compliance Matrix: (Units=1/GPa)
#
#
# Indices 1 2 3 4 5 6 
#
# 1 0.032326 -0.005626 -0.011185 0.000000 0.000000 0.000000
# 2 -0.005626 0.012475 -0.004051 0.000000 0.000000 0.000000
# 3 -0.011185 -0.004051 0.019097 0.000000 0.000000 0.000000
# 4 0.000000 0.000000 0.000000 0.052652 0.000000 0.000000
# 5 0.000000 0.000000 0.000000 0.000000 0.062691 0.000000
# 6 0.000000 0.000000 0.000000 0.000000 0.000000 0.057330
#
#
# Mechanical properties :
#
#
# Convention : Reuss Voigt Hill
#
# Bulk Modulus (GPa) = 45.09747 51.98896 48.54322
# Shear Modulus (GPa) = 17.50172 19.02942 18.26557
#
# Velocity S-wave (km/s) = 3.38964 3.53449 3.46282
# Velocity P-wave (km/s) = 6.70265 7.12650 6.91782
#
# Compressibility (1/GPa) = 0.02217419
#
# Stress axis : x y z
#
# Youngs Moduli (GPa) = 30.93456 80.16084 52.36476
#
# Poissons Ratio (x) = 0.45095 0.58572
# Poissons Ratio (y) = 0.17403 0.21213
# Poissons Ratio (z) = 0.34601 0.32473
#
# Static dielectric constant tensor:
#      x y z
#    x 2.715980 0.000000 0.000000 
#    y 0.000000 3.260560 0.000000 
#    z 0.000000 0.000000 2.722340 
# 
# 
# High freq. dielectric constant tensor:
#      x y z
#    x 1.562100 0.000000 0.000000 
#    y 0.000000 1.587320 0.000000 
#    z 0.000000 0.000000 1.551090 
# 
# From -- ./inp_files/65950.got.cif
#   From: 2010.06.25/outbox.cif.g09.slc.cpg/sg71_33_cif.got.tgz:65950.got - 2010.06.28 04:59:45.
