data_PCOD8287841
_publ_section_title
;
Structure prediction by ZEFSAII (Michael W. Deem and Ramdas Pophale) SiO2 
 PCOD8287841
Probable space group: I M M M
;
_chemical_formula_sum "Si O2"
_cell_formula_units_Z 72
_cell_length_a 9.023460
_cell_length_b 14.687545
_cell_length_c 27.204112
_cell_angle_alpha 90.000000
_cell_angle_beta 90.000000
_cell_angle_gamma 90.000000
_cell_volume 3605.428288
_symmetry_space_group_name_H-M "I M M M"
_symmetry_group_IT_number 71
_symmetry_cell_setting 'orthorhombic'
loop_
_space_group_symop_operation_xyz
x,y,z
-x,-y,z
x,-y,-z
-x,y,-z
-x,-y,-z
x,y,-z
-x,y,z
x,-y,z
1/2+x,1/2+y,1/2+z
1/2-x,1/2-y,1/2+z
1/2+x,1/2-y,1/2-z
1/2-x,1/2+y,1/2-z
1/2-x,1/2-y,1/2-z
1/2+x,1/2+y,1/2-z
1/2-x,1/2+y,1/2+z
1/2+x,1/2-y,1/2+z
loop_
_atom_site_type_symbol
_atom_site_label
_atom_site_fract_x
_atom_site_fract_y
_atom_site_fract_z
Si Si1 0.324253 0.105300 0.500000
Si Si2 0.333385 0.100307 0.663329
Si Si3 0.669135 0.838981 0.767383
Si Si4 0.324353 0.099537 0.871818
Si Si5 0.173534 0.787712 0.587641
O O1 0.500000 0.108660 0.500000
O O2 0.265885 0.158765 0.452805
O O3 0.269172 0.000000 0.500000
O O4 0.500000 0.134284 0.650267
O O5 0.315281 0.091107 0.722111
O O6 0.213465 0.169215 0.640510
O O7 0.307602 0.000000 0.640703
O O8 0.500000 0.813456 0.778462
O O9 0.750000 0.750000 0.750000
O O10 0.740274 0.880603 0.817133
O O11 0.500000 0.095297 0.867983
O O12 0.280611 0.180385 0.909897
O O13 0.264210 0.000000 0.889672
O O14 0.000000 0.798990 0.576654
#
# Coordination Sequence:
#
# PCOD8287841 Si02
#       5
#     8  16  16  16  16
#     4  11  25  45  66  85 110 146 181 219 280 353
#     4  10  20  33  52  79 113 154 192 226 273 334
#     4  10  18  31  52  78 112 153 195 233 270 318
#     4   9  18  34  56  82 114 153 193 230 272 326
#     4  11  22  37  60  88 113 141 183 237 286 328
#
# _framework density 19.969888999999998
#
# number of rings (size 3 to 8) (size 9 to 14) (size 15 to 20)
#    0.000    1.889    2.222    2.333    0.000    6.667 
#    0.000    0.556    0.000   10.667    0.000    0.000 
#    0.000    0.000    0.000    0.000    0.000    0.000 
#
# Total GULP energy -446149.387460 kJ/mol
# GULP energy per Si atom -12393.038541 kJ/mol
# Density = 1.992444 g / cm^3
# Si number density = 19.969889 Si / 1000 Ang^3
#
#
#
# Elastic Constant Matrix: (Units=GPa)
#
#
# Indices 1 2 3 4 5 6 
#
# 1 48.7822 40.9138 25.4119 0.0000 0.0000 0.0000
# 2 40.9138 174.9125 55.0084 0.0000 0.0000 0.0000
# 3 25.4119 55.0084 85.4645 0.0000 0.0000 0.0000
# 4 0.0000 0.0000 0.0000 28.4769 0.0000 0.0000
# 5 0.0000 0.0000 0.0000 0.0000 24.4271 0.0000
# 6 0.0000 0.0000 0.0000 0.0000 0.0000 23.1311
#
#
#
# Elastic Compliance Matrix: (Units=1/GPa)
#
#
# Indices 1 2 3 4 5 6 
#
# 1 0.027098 -0.004770 -0.004987 0.000000 0.000000 0.000000
# 2 -0.004770 0.008008 -0.003736 0.000000 0.000000 0.000000
# 3 -0.004987 -0.003736 0.015588 0.000000 0.000000 0.000000
# 4 0.000000 0.000000 0.000000 0.035116 0.000000 0.000000
# 5 0.000000 0.000000 0.000000 0.000000 0.040938 0.000000
# 6 0.000000 0.000000 0.000000 0.000000 0.000000 0.043232
#
#
# Mechanical properties :
#
#
# Convention : Reuss Voigt Hill
#
# Bulk Modulus (GPa) = 42.18001 61.31414 51.74708
# Shear Modulus (GPa) = 24.40593 27.72871 26.06732
#
# Velocity S-wave (km/s) = 3.49970 3.73034 3.61686
# Velocity P-wave (km/s) = 6.12358 7.02309 6.58870
#
# Compressibility (1/GPa) = 0.02370791
#
# Stress axis : x y z
#
# Youngs Moduli (GPa) = 36.90334 124.87848 64.15141
#
# Poissons Ratio (x) = 0.59568 0.31993
# Poissons Ratio (y) = 0.17603 0.23966
# Poissons Ratio (z) = 0.18404 0.46652
#
# Static dielectric constant tensor:
#      x y z
#    x 3.359410 0.000000 0.000000 
#    y 0.000000 4.196540 0.000000 
#    z 0.000000 0.000000 3.794660 
# 
# 
# High freq. dielectric constant tensor:
#      x y z
#    x 1.747320 0.000000 0.000000 
#    y 0.000000 1.792210 0.000000 
#    z 0.000000 0.000000 1.768130 
# 
# From -- ./inp_files/6013.got.cif
#   From: 2010.06.25/outbox.cif.g09.slc.cpg/sg71_4_cif.got.tgz:6013.got - 2010.06.28 04:59:45.
