data_PCOD8287722
_publ_section_title
;
Structure prediction by ZEFSAII (Michael W. Deem and Ramdas Pophale) SiO2 
 PCOD8287722
Probable space group: I M M M
;
_chemical_formula_sum "Si O2"
_cell_formula_units_Z 104
_cell_length_a 30.010975
_cell_length_b 8.815566
_cell_length_c 20.797280
_cell_angle_alpha 90.000000
_cell_angle_beta 90.000000
_cell_angle_gamma 90.000000
_cell_volume 5502.205988
_symmetry_space_group_name_H-M "I M M M"
_symmetry_group_IT_number 71
_symmetry_cell_setting 'orthorhombic'
loop_
_space_group_symop_operation_xyz
x,y,z
-x,-y,z
x,-y,-z
-x,y,-z
-x,-y,-z
x,y,-z
-x,y,z
x,-y,z
1/2+x,1/2+y,1/2+z
1/2-x,1/2-y,1/2+z
1/2+x,1/2-y,1/2-z
1/2-x,1/2+y,1/2-z
1/2-x,1/2-y,1/2-z
1/2+x,1/2+y,1/2-z
1/2-x,1/2+y,1/2+z
1/2+x,1/2-y,1/2+z
loop_
_atom_site_type_symbol
_atom_site_label
_atom_site_fract_x
_atom_site_fract_y
_atom_site_fract_z
Si Si1 0.552732 0.169632 0.500000
Si Si2 0.283699 0.678036 0.928682
Si Si3 0.448765 0.320820 0.631629
Si Si4 0.630170 0.321935 0.849588
Si Si5 0.872625 0.676434 0.214602
Si Si6 0.548826 0.320311 0.929089
Si Si7 0.226282 0.321531 0.811987
O O1 0.500000 0.165721 0.500000
O O2 0.569044 0.254716 0.435973
O O3 0.572838 0.000000 0.500000
O O4 0.276480 0.500000 0.934866
O O5 0.332793 0.714305 0.902663
O O6 0.248393 0.744250 0.877285
O O7 0.277676 0.751577 0.000000
O O8 0.500000 0.268410 0.646364
O O9 0.446904 0.500000 0.627211
O O10 0.415043 0.266230 0.686774
O O11 0.629243 0.500000 0.831709
O O12 0.637873 0.223642 0.786941
O O13 0.584145 0.259000 0.878472
O O14 0.884251 0.500000 0.210006
O O15 0.826107 0.715411 0.179332
O O16 0.500000 0.272555 0.904166
O O17 0.553236 0.500000 0.933902
O O18 0.557387 0.251543 0.000000
O O19 0.234760 0.500000 0.805273
O O20 0.250000 0.250000 0.750000
#
# Coordination Sequence:
#
# PCOD8287722 Si02
#       7
#     8  16  16  16  16  16  16
#     4   9  17  33  59  87 115 147 181 223 279 335
#     4   9  17  31  54  81 104 132 180 236 282 327
#     4  10  21  38  60  84 111 146 189 232 274 329
#     4  10  18  30  52  77 101 138 183 225 270 326
#     4  11  23  36  52  79 112 147 185 226 277 335
#     4   8  14  25  43  71 104 131 162 213 269 316
#     4  10  20  36  57  80 108 146 186 227 280 339
#
# _framework density 18.901509000000001
#
# number of rings (size 3 to 8) (size 9 to 14) (size 15 to 20)
#    0.000    2.385    1.538    2.077    0.000    4.923 
#    1.385    1.538    0.000    3.231    0.000    1.077 
#    0.000    0.000    0.000    0.000    0.000    0.000 
#
# Total GULP energy -644534.298313 kJ/mol
# GULP energy per Si atom -12394.890352 kJ/mol
# Density = 1.885849 g / cm^3
# Si number density = 18.901509 Si / 1000 Ang^3
#
#
#
# Elastic Constant Matrix: (Units=GPa)
#
#
# Indices 1 2 3 4 5 6 
#
# 1 118.5061 30.5235 59.5881 0.0000 0.0000 0.0000
# 2 30.5235 45.7783 23.5899 0.0000 0.0000 0.0000
# 3 59.5881 23.5899 132.6978 0.0000 0.0000 0.0000
# 4 0.0000 0.0000 0.0000 20.8107 0.0000 0.0000
# 5 0.0000 0.0000 0.0000 0.0000 32.9226 0.0000
# 6 0.0000 0.0000 0.0000 0.0000 0.0000 19.4782
#
#
#
# Elastic Compliance Matrix: (Units=1/GPa)
#
#
# Indices 1 2 3 4 5 6 
#
# 1 0.012166 -0.005831 -0.004427 0.000000 0.000000 0.000000
# 2 -0.005831 0.026842 -0.002153 0.000000 0.000000 0.000000
# 3 -0.004427 -0.002153 0.009907 0.000000 0.000000 0.000000
# 4 0.000000 0.000000 0.000000 0.048052 0.000000 0.000000
# 5 0.000000 0.000000 0.000000 0.000000 0.030374 0.000000
# 6 0.000000 0.000000 0.000000 0.000000 0.000000 0.051339
#
#
# Mechanical properties :
#
#
# Convention : Reuss Voigt Hill
#
# Bulk Modulus (GPa) = 41.50627 58.26502 49.88565
# Shear Modulus (GPa) = 23.63698 26.86102 25.24900
#
# Velocity S-wave (km/s) = 3.54013 3.77384 3.65885
# Velocity P-wave (km/s) = 6.22229 7.06270 6.65577
#
# Compressibility (1/GPa) = 0.02409274
#
# Stress axis : x y z
#
# Youngs Moduli (GPa) = 82.19589 37.25522 100.94375
#
# Poissons Ratio (x) = 0.21723 0.44684
# Poissons Ratio (y) = 0.47927 0.21737
# Poissons Ratio (z) = 0.36385 0.08022
#
# Static dielectric constant tensor:
#      x y z
#    x 3.684360 0.000000 0.000000 
#    y 0.000000 3.168930 0.000000 
#    z 0.000000 0.000000 3.695140 
# 
# 
# High freq. dielectric constant tensor:
#      x y z
#    x 1.739430 0.000000 0.000000 
#    y 0.000000 1.699480 0.000000 
#    z 0.000000 0.000000 1.738310 
# 
# From -- ./inp_files/56730.got.cif
#   From: 2010.06.25/outbox.cif.g09.slc.cpg/sg71_29_cif.got.tgz:56730.got - 2010.06.28 04:59:45.
