data_PCOD8287893
_publ_section_title
;
Structure prediction by ZEFSAII (Michael W. Deem and Ramdas Pophale) SiO2 
 PCOD8287893
Probable space group: I M M M
;
_chemical_formula_sum "Si O2"
_cell_formula_units_Z 72
_cell_length_a 8.567830
_cell_length_b 19.443232
_cell_length_c 27.440341
_cell_angle_alpha 90.000000
_cell_angle_beta 90.000000
_cell_angle_gamma 90.000000
_cell_volume 4571.185054
_symmetry_space_group_name_H-M "I M M M"
_symmetry_group_IT_number 71
_symmetry_cell_setting 'orthorhombic'
loop_
_space_group_symop_operation_xyz
x,y,z
-x,-y,z
x,-y,-z
-x,y,-z
-x,-y,-z
x,y,-z
-x,y,z
x,-y,z
1/2+x,1/2+y,1/2+z
1/2-x,1/2-y,1/2+z
1/2+x,1/2-y,1/2-z
1/2-x,1/2+y,1/2-z
1/2-x,1/2-y,1/2-z
1/2+x,1/2+y,1/2-z
1/2-x,1/2+y,1/2+z
1/2+x,1/2-y,1/2+z
loop_
_atom_site_type_symbol
_atom_site_label
_atom_site_fract_x
_atom_site_fract_y
_atom_site_fract_z
Si Si1 0.684274 0.351533 0.275068
Si Si2 0.319679 0.726329 0.179602
Si Si3 0.818922 0.000000 0.236673
Si Si4 0.181855 0.880847 0.600494
Si Si5 0.321192 0.000000 0.339199
Si Si6 0.185201 0.580937 0.000000
O O1 0.500000 0.357729 0.273188
O O2 0.746302 0.323062 0.222792
O O3 0.734862 0.300394 0.318391
O O4 0.755024 0.428636 0.284277
O O5 0.500000 0.740247 0.189391
O O6 0.291030 0.692843 0.126642
O O7 0.797524 0.000000 0.294624
O O8 0.000000 0.000000 0.224512
O O9 0.239320 0.878744 0.545192
O O10 0.000000 0.902186 0.603489
O O11 0.290687 0.934343 0.627794
O O12 0.500000 0.000000 0.321273
O O13 0.231567 0.500000 0.000000
O O14 0.000000 0.589685 0.000000
#
# Coordination Sequence:
#
# PCOD8287893 Si02
#       6
#    16  16   8  16   8   8
#     4   9  17  29  46  66  90 120 153 190 227 267
#     4   9  18  31  46  65  89 119 155 190 225 270
#     4  10  18  32  47  65  92 125 161 190 225 279
#     4  11  21  35  51  64  87 126 161 190 230 278
#     4  12  22  29  43  68  92 120 156 199 236 265
#     4  11  23  35  47  71  96 115 152 201 236 262
#
# _framework density 15.750838999999999
#
# number of rings (size 3 to 8) (size 9 to 14) (size 15 to 20)
#    0.000    1.889    3.333    2.000    0.000    3.111 
#    0.000    0.000    0.000    0.000    0.000    0.000 
#    0.000    0.889    0.000   10.000    0.000    4.444 
#
# Total GULP energy -446230.070246 kJ/mol
# GULP energy per Si atom -12395.279729 kJ/mol
# Density = 1.571499 g / cm^3
# Si number density = 15.750839 Si / 1000 Ang^3
#
#
#
# Elastic Constant Matrix: (Units=GPa)
#
#
# Indices 1 2 3 4 5 6 
#
# 1 30.4344 26.6241 13.0377 0.0000 0.0000 0.0000
# 2 26.6241 141.2281 48.1163 0.0000 0.0000 0.0000
# 3 13.0377 48.1163 72.3730 0.0000 0.0000 0.0000
# 4 0.0000 0.0000 0.0000 23.2735 0.0000 0.0000
# 5 0.0000 0.0000 0.0000 0.0000 21.2719 0.0000
# 6 0.0000 0.0000 0.0000 0.0000 0.0000 14.7544
#
#
#
# Elastic Compliance Matrix: (Units=1/GPa)
#
#
# Indices 1 2 3 4 5 6 
#
# 1 0.039787 -0.006540 -0.002819 0.000000 0.000000 0.000000
# 2 -0.006540 0.010229 -0.005623 0.000000 0.000000 0.000000
# 3 -0.002819 -0.005623 0.018063 0.000000 0.000000 0.000000
# 4 0.000000 0.000000 0.000000 0.042967 0.000000 0.000000
# 5 0.000000 0.000000 0.000000 0.000000 0.047010 0.000000
# 6 0.000000 0.000000 0.000000 0.000000 0.000000 0.067776
#
#
# Mechanical properties :
#
#
# Convention : Reuss Voigt Hill
#
# Bulk Modulus (GPa) = 26.23625 46.62130 36.42877
# Shear Modulus (GPa) = 18.62182 22.27713 20.44947
#
# Velocity S-wave (km/s) = 3.44215 3.76486 3.60712
# Velocity P-wave (km/s) = 5.70010 6.96867 6.36606
#
# Compressibility (1/GPa) = 0.03811520
#
# Stress axis : x y z
#
# Youngs Moduli (GPa) = 25.13414 97.75853 55.36060
#
# Poissons Ratio (x) = 0.63933 0.15608
# Poissons Ratio (y) = 0.16438 0.31127
# Poissons Ratio (z) = 0.07086 0.54966
#
# Static dielectric constant tensor:
#      x y z
#    x 2.932670 0.000000 0.000000 
#    y 0.000000 3.212440 0.000000 
#    z 0.000000 0.000000 2.806720 
# 
# 
# High freq. dielectric constant tensor:
#      x y z
#    x 1.605160 0.000000 0.000000 
#    y 0.000000 1.597960 0.000000 
#    z 0.000000 0.000000 1.565420 
# 
# From -- ./inp_files/8209.got.cif
#   From: 2010.06.25/outbox.cif.g09.slc.cpg/sg71_5_cif.got.tgz:8209.got - 2010.06.28 04:59:45.
