data_PCOD8287779
_publ_section_title
;
Structure prediction by ZEFSAII (Michael W. Deem and Ramdas Pophale) SiO2 
 PCOD8287779
Probable space group: I M M M
;
_chemical_formula_sum "Si O2"
_cell_formula_units_Z 88
_cell_length_a 27.058075
_cell_length_b 15.586562
_cell_length_c 12.019838
_cell_angle_alpha 90.000000
_cell_angle_beta 90.000000
_cell_angle_gamma 90.000000
_cell_volume 5069.274888
_symmetry_space_group_name_H-M "I M M M"
_symmetry_group_IT_number 71
_symmetry_cell_setting 'orthorhombic'
loop_
_space_group_symop_operation_xyz
x,y,z
-x,-y,z
x,-y,-z
-x,y,-z
-x,-y,-z
x,y,-z
-x,y,z
x,-y,z
1/2+x,1/2+y,1/2+z
1/2-x,1/2-y,1/2+z
1/2+x,1/2-y,1/2-z
1/2-x,1/2+y,1/2-z
1/2-x,1/2-y,1/2-z
1/2+x,1/2+y,1/2-z
1/2-x,1/2+y,1/2+z
1/2+x,1/2-y,1/2+z
loop_
_atom_site_type_symbol
_atom_site_label
_atom_site_fract_x
_atom_site_fract_y
_atom_site_fract_z
Si Si1 0.397480 0.596319 0.500000
Si Si2 0.553650 0.000000 0.869052
Si Si3 0.780592 0.093687 0.000000
Si Si4 0.893774 0.000000 0.374570
Si Si5 0.723678 0.500000 0.125509
Si Si6 0.940935 0.685598 0.373528
Si Si7 0.105285 0.836318 0.762754
Si Si8 0.722451 0.337670 0.267861
O O1 0.420742 0.500000 0.500000
O O2 0.339188 0.585638 0.500000
O O3 0.413376 0.648430 0.389388
O O4 0.580289 0.090525 0.838532
O O5 0.500000 0.000000 0.810226
O O6 0.545459 0.000000 0.000000
O O7 0.761385 0.141631 0.107612
O O8 0.756716 0.000000 0.000000
O O9 0.835043 0.000000 0.373871
O O10 0.913374 0.916209 0.311020
O O11 0.914781 0.000000 0.500000
O O12 0.742075 0.413614 0.187204
O O13 0.744741 0.500000 0.000000
O O14 0.924213 0.709087 0.500000
O O15 0.919166 0.751044 0.284651
O O16 0.000000 0.685419 0.366998
O O17 0.164011 0.826010 0.755210
O O18 0.750000 0.250000 0.250000
#
# Coordination Sequence:
#
# PCOD8287779 Si02
#       8
#     8   8   8   8   8  16  16  16
#     4   9  16  30  51  69  87 130 178 200 224 275
#     4   7  12  26  49  71  93 125 158 184 223 288
#     4   9  16  32  52  66  89 127 171 205 235 286
#     4   9  16  27  46  70  96 126 158 194 241 295
#     4   9  18  31  46  67  96 127 162 199 235 289
#     4   9  17  31  52  77 101 125 156 196 245 295
#     4  10  18  31  50  71  97 128 164 202 239 285
#     4  10  20  32  49  72  96 127 165 204 245 287
#
# _framework density 17.359483999999998
#
# number of rings (size 3 to 8) (size 9 to 14) (size 15 to 20)
#    0.000    2.818    1.818    1.636    1.273    0.727 
#    0.000    1.818    0.000    2.727    0.000    1.909 
#    0.000    0.000    0.000    0.000    0.000    0.000 
#
# Total GULP energy -545190.997684 kJ/mol
# GULP energy per Si atom -12390.704493 kJ/mol
# Density = 1.731997 g / cm^3
# Si number density = 17.359484 Si / 1000 Ang^3
#
#
#
# Elastic Constant Matrix: (Units=GPa)
#
#
# Indices 1 2 3 4 5 6 
#
# 1 17.7524 30.1009 22.4973 0.0000 0.0000 0.0000
# 2 30.1009 184.2309 94.0438 0.0000 0.0000 0.0000
# 3 22.4973 94.0438 160.4607 0.0000 0.0000 0.0000
# 4 0.0000 0.0000 0.0000 26.9926 0.0000 0.0000
# 5 0.0000 0.0000 0.0000 0.0000 18.7675 0.0000
# 6 0.0000 0.0000 0.0000 0.0000 0.0000 22.8974
#
#
#
# Elastic Compliance Matrix: (Units=1/GPa)
#
#
# Indices 1 2 3 4 5 6 
#
# 1 0.080763 -0.010581 -0.005122 0.000000 0.000000 0.000000
# 2 -0.010581 0.009131 -0.003868 0.000000 0.000000 0.000000
# 3 -0.005122 -0.003868 0.009217 0.000000 0.000000 0.000000
# 4 0.000000 0.000000 0.000000 0.037047 0.000000 0.000000
# 5 0.000000 0.000000 0.000000 0.000000 0.053284 0.000000
# 6 0.000000 0.000000 0.000000 0.000000 0.000000 0.043673
#
#
# Mechanical properties :
#
#
# Convention : Reuss Voigt Hill
#
# Bulk Modulus (GPa) = 16.67531 72.85866 44.76698
# Shear Modulus (GPa) = 17.10881 28.11830 22.61355
#
# Velocity S-wave (km/s) = 3.14277 4.02900 3.61316
# Velocity P-wave (km/s) = 4.77452 7.98157 6.57653
#
# Compressibility (1/GPa) = 0.05996891
#
# Stress axis : x y z
#
# Youngs Moduli (GPa) = 12.38198 109.51224 108.49143
#
# Poissons Ratio (x) = 1.15875 0.55568
# Poissons Ratio (y) = 0.13101 0.41968
# Poissons Ratio (z) = 0.06342 0.42362
#
# Static dielectric constant tensor:
#      x y z
#    x 2.681810 0.000000 0.000000 
#    y 0.000000 3.523270 0.000000 
#    z 0.000000 0.000000 3.469090 
# 
# 
# High freq. dielectric constant tensor:
#      x y z
#    x 1.613440 0.000000 0.000000 
#    y 0.000000 1.686140 0.000000 
#    z 0.000000 0.000000 1.670710 
# 
# From -- ./inp_files/29951.got.cif
#   From: 2010.06.25/outbox.cif.g09.slc.cpg/sg71_15_cif.got.tgz:29951.got - 2010.06.28 04:59:45.
