data_PCOD8287912
_publ_section_title
;
Structure prediction by ZEFSAII (Michael W. Deem and Ramdas Pophale) SiO2 
 PCOD8287912
Probable space group: I M M M
;
_chemical_formula_sum "Si O2"
_cell_formula_units_Z 56
_cell_length_a 33.569592
_cell_length_b 10.361492
_cell_length_c 9.260547
_cell_angle_alpha 90.000000
_cell_angle_beta 90.000000
_cell_angle_gamma 90.000000
_cell_volume 3221.105869
_symmetry_space_group_name_H-M "I M M M"
_symmetry_group_IT_number 71
_symmetry_cell_setting 'orthorhombic'
loop_
_space_group_symop_operation_xyz
x,y,z
-x,-y,z
x,-y,-z
-x,y,-z
-x,-y,-z
x,y,-z
-x,y,z
x,-y,z
1/2+x,1/2+y,1/2+z
1/2-x,1/2-y,1/2+z
1/2+x,1/2-y,1/2-z
1/2-x,1/2+y,1/2-z
1/2-x,1/2-y,1/2-z
1/2+x,1/2+y,1/2-z
1/2-x,1/2+y,1/2+z
1/2+x,1/2-y,1/2+z
loop_
_atom_site_type_symbol
_atom_site_label
_atom_site_fract_x
_atom_site_fract_y
_atom_site_fract_z
Si Si1 0.297546 0.500000 0.671007
Si Si2 0.000000 0.653665 0.337117
Si Si3 0.161273 0.737581 0.170718
Si Si4 0.286061 0.000000 0.327898
Si Si5 0.423510 0.152505 0.334112
O O1 0.289645 0.500000 0.500000
O O2 0.322524 0.624347 0.721054
O O3 0.256349 0.500000 0.753431
O O4 0.960681 0.705992 0.257211
O O5 0.000000 0.500000 0.331919
O O6 0.000000 0.706087 0.500000
O O7 0.190386 0.625751 0.228590
O O8 0.116407 0.718682 0.229505
O O9 0.159387 0.724921 0.000000
O O10 0.280500 0.000000 0.500000
O O11 0.431178 0.190539 0.500000
O O12 0.418167 0.000000 0.318075
#
# Coordination Sequence:
#
# PCOD8287912 Si02
#       5
#     8   8  16   8  16
#     4  10  20  32  46  69  96 121 151 194 239 270
#     4   9  17  27  41  68 101 120 136 182 239 272
#     4   9  17  30  49  69  92 121 156 194 228 266
#     4  10  18  32  50  67  90 123 159 192 227 274
#     4   9  15  27  47  67  86 117 157 187 216 266
#
# _framework density 17.385335000000001
#
# number of rings (size 3 to 8) (size 9 to 14) (size 15 to 20)
#    0.000    2.714    1.429    1.286    0.000    1.714 
#    0.000    2.857    0.000    0.857    0.000    6.000 
#    0.000    0.000    0.000    0.000    0.000    0.000 
#
# Total GULP energy -347166.526138 kJ/mol
# GULP energy per Si atom -12398.804505 kJ/mol
# Density = 1.734577 g / cm^3
# Si number density = 17.385335 Si / 1000 Ang^3
#
#
#
# Elastic Constant Matrix: (Units=GPa)
#
#
# Indices 1 2 3 4 5 6 
#
# 1 203.5031 69.5642 63.8993 0.0000 0.0000 0.0000
# 2 69.5642 104.4753 28.4169 0.0000 0.0000 0.0000
# 3 63.8993 28.4169 58.6724 0.0000 0.0000 0.0000
# 4 0.0000 0.0000 0.0000 7.4043 0.0000 0.0000
# 5 0.0000 0.0000 0.0000 0.0000 30.0859 0.0000
# 6 0.0000 0.0000 0.0000 0.0000 0.0000 -13.7235
#
#
#
# Elastic Compliance Matrix: (Units=1/GPa)
#
#
# Indices 1 2 3 4 5 6 
#
# 1 0.008513 -0.003624 -0.007516 0.000000 0.000000 0.000000
# 2 -0.003624 0.012567 -0.002140 0.000000 0.000000 0.000000
# 3 -0.007516 -0.002140 0.026266 0.000000 0.000000 0.000000
# 4 0.000000 0.000000 0.000000 0.135057 0.000000 0.000000
# 5 0.000000 0.000000 0.000000 0.000000 0.033238 0.000000
# 6 0.000000 0.000000 0.000000 0.000000 0.000000 -0.072868
#
#
# Mechanical properties :
#
#
# Convention : Reuss Voigt Hill
#
# Bulk Modulus (GPa) = 48.10951 76.71240 62.41095
# Shear Modulus (GPa) = 28.36735 18.40470 23.38603
#
# Velocity S-wave (km/s) = 4.04379 3.25720 3.67162
# Velocity P-wave (km/s) = 7.03815 7.63979 7.34513
#
# Compressibility (1/GPa) = 0.02078591
#
# Stress axis : x y z
#
# Youngs Moduli (GPa) = 117.47264 79.57648 38.07266
#
# Poissons Ratio (x) = 0.28837 0.28615
# Poissons Ratio (y) = 0.42570 0.08147
# Poissons Ratio (z) = 0.88291 0.17027
#
# Static dielectric constant tensor:
#      x y z
#    x 3.481150 0.000000 0.000000 
#    y 0.000000 3.259940 0.000000 
#    z 0.000000 0.000000 2.979870 
# 
# 
# High freq. dielectric constant tensor:
#      x y z
#    x 1.690780 0.000000 0.000000 
#    y 0.000000 1.643540 0.000000 
#    z 0.000000 0.000000 1.638600 
# 
# From -- ./inp_files/3401.got.cif
#   From: 2010.06.25/outbox.cif.g09.slc.cpg/sg71_2_cif.got.tgz:3401.got - 2010.06.28 04:59:45.
