data_PCOD8287067
_publ_section_title
;
Structure prediction by ZEFSAII (Michael W. Deem and Ramdas Pophale) SiO2 
 PCOD8287067
Probable space group: I M M M
;
_chemical_formula_sum "Si O2"
_cell_formula_units_Z 112
_cell_length_a 18.976667
_cell_length_b 18.311169
_cell_length_c 18.690409
_cell_angle_alpha 90.000000
_cell_angle_beta 90.000000
_cell_angle_gamma 90.000000
_cell_volume 6494.635958
_symmetry_space_group_name_H-M "I M M M"
_symmetry_group_IT_number 71
_symmetry_cell_setting 'orthorhombic'
loop_
_space_group_symop_operation_xyz
x,y,z
-x,-y,z
x,-y,-z
-x,y,-z
-x,-y,-z
x,y,-z
-x,y,z
x,-y,z
1/2+x,1/2+y,1/2+z
1/2-x,1/2-y,1/2+z
1/2+x,1/2-y,1/2-z
1/2-x,1/2+y,1/2-z
1/2-x,1/2-y,1/2-z
1/2+x,1/2+y,1/2-z
1/2-x,1/2+y,1/2+z
1/2+x,1/2-y,1/2+z
loop_
_atom_site_type_symbol
_atom_site_label
_atom_site_fract_x
_atom_site_fract_y
_atom_site_fract_z
Si Si1 0.665560 0.414438 0.211257
Si Si2 0.280512 0.827319 0.781728
Si Si3 0.290558 0.699257 0.581414
Si Si4 0.575846 0.828938 0.712791
Si Si5 0.922005 0.164487 0.827503
Si Si6 0.875584 0.581677 0.080532
Si Si7 0.268093 0.642300 0.079019
O O1 0.657468 0.500000 0.197312
O O2 0.740084 0.395060 0.246754
O O3 0.603029 0.388793 0.263518
O O4 0.667697 0.370702 0.134861
O O5 0.250000 0.750000 0.750000
O O6 0.269488 0.833621 0.866933
O O7 0.361957 0.844722 0.768289
O O8 0.278387 0.673701 0.500000
O O9 0.367027 0.669253 0.606585
O O10 0.281043 0.786061 0.590973
O O11 0.500000 0.856726 0.742743
O O12 0.572701 0.742874 0.706899
O O13 0.587373 0.864124 0.635371
O O14 0.000000 0.138728 0.854130
O O15 0.903164 0.500000 0.095115
O O16 0.790318 0.579219 0.088069
O O17 0.895937 0.607278 0.000000
O O18 0.302648 0.643669 0.000000
#
# Coordination Sequence:
#
# PCOD8287067 Si02
#       7
#    16  16  16  16  16  16  16
#     4  11  20  32  53  76 101 141 182 221 269 318
#     4  11  17  35  53  72 102 133 175 221 260 305
#     4  10  18  31  55  80 102 132 172 218 265 317
#     4  11  20  31  50  72 101 143 181 213 258 307
#     4  10  20  34  51  73 102 135 178 229 268 308
#     4  10  19  30  44  70 113 152 176 203 247 310
#     4  10  17  28  48  77 107 135 173 217 256 308
#
# _framework density 17.245000000000001
#
# number of rings (size 3 to 8) (size 9 to 14) (size 15 to 20)
#    0.000    1.571    7.143    0.429    0.000    2.000 
#    0.000    2.143    0.000    7.714    0.000    9.000 
#    0.000    0.000    0.000    6.429    0.000    2.571 
#
# Total GULP energy -693733.887664 kJ/mol
# GULP energy per Si atom -12388.105137 kJ/mol
# Density = 1.720575 g / cm^3
# Si number density = 17.245000 Si / 1000 Ang^3
#
#
#
# Elastic Constant Matrix: (Units=GPa)
#
#
# Indices 1 2 3 4 5 6 
#
# 1 108.1304 18.4850 60.2582 0.0000 0.0000 0.0000
# 2 18.4850 48.8728 34.9143 0.0000 0.0000 0.0000
# 3 60.2582 34.9143 139.9123 0.0000 0.0000 0.0000
# 4 0.0000 0.0000 0.0000 16.4709 0.0000 0.0000
# 5 0.0000 0.0000 0.0000 0.0000 20.6322 0.0000
# 6 0.0000 0.0000 0.0000 0.0000 0.0000 -27.9158
#
#
#
# Elastic Compliance Matrix: (Units=1/GPa)
#
#
# Indices 1 2 3 4 5 6 
#
# 1 0.012213 -0.001049 -0.004998 0.000000 0.000000 0.000000
# 2 -0.001049 0.024990 -0.005785 0.000000 0.000000 0.000000
# 3 -0.004998 -0.005785 0.010743 0.000000 0.000000 0.000000
# 4 0.000000 0.000000 0.000000 0.060713 0.000000 0.000000
# 5 0.000000 0.000000 0.000000 0.000000 0.048468 0.000000
# 6 0.000000 0.000000 0.000000 0.000000 0.000000 -0.035822
#
#
# Mechanical properties :
#
#
# Convention : Reuss Voigt Hill
#
# Bulk Modulus (GPa) = 41.17952 58.24783 49.71368
# Shear Modulus (GPa) = 32.66633 14.05466 23.36049
#
# Velocity S-wave (km/s) = 4.35702 2.85792 3.68451
# Velocity P-wave (km/s) = 7.01730 6.68881 6.85502
#
# Compressibility (1/GPa) = 0.02428392
#
# Stress axis : x y z
#
# Youngs Moduli (GPa) = 81.88209 40.01544 93.07964
#
# Poissons Ratio (x) = 0.04196 0.46523
# Poissons Ratio (y) = 0.08585 0.53843
# Poissons Ratio (z) = 0.40926 0.23147
#
# Static dielectric constant tensor:
#      x y z
#    x 3.809310 0.000000 0.000000 
#    y 0.000000 3.051420 0.000000 
#    z 0.000000 0.000000 3.358860 
# 
# 
# High freq. dielectric constant tensor:
#      x y z
#    x 1.644390 0.000000 0.000000 
#    y 0.000000 1.646360 0.000000 
#    z 0.000000 0.000000 1.658260 
# 
# From -- ./inp_files/47526.got.cif
#   From: 2010.06.25/outbox.cif.g09.slc.cpg/sg71_24_cif.got.tgz:47526.got - 2010.06.28 04:59:45.
