data_PCOD8287225
_publ_section_title
;
Structure prediction by ZEFSAII (Michael W. Deem and Ramdas Pophale) SiO2 
 PCOD8287225
Probable space group: I M M M
;
_chemical_formula_sum "Si O2"
_cell_formula_units_Z 120
_cell_length_a 9.711421
_cell_length_b 27.965780
_cell_length_c 29.354706
_cell_angle_alpha 90.000000
_cell_angle_beta 90.000000
_cell_angle_gamma 90.000000
_cell_volume 7972.370135
_symmetry_space_group_name_H-M "I M M M"
_symmetry_group_IT_number 71
_symmetry_cell_setting 'orthorhombic'
loop_
_space_group_symop_operation_xyz
x,y,z
-x,-y,z
x,-y,-z
-x,y,-z
-x,-y,-z
x,y,-z
-x,y,z
x,-y,z
1/2+x,1/2+y,1/2+z
1/2-x,1/2-y,1/2+z
1/2+x,1/2-y,1/2-z
1/2-x,1/2+y,1/2-z
1/2-x,1/2-y,1/2-z
1/2+x,1/2+y,1/2-z
1/2-x,1/2+y,1/2+z
1/2+x,1/2-y,1/2+z
loop_
_atom_site_type_symbol
_atom_site_label
_atom_site_fract_x
_atom_site_fract_y
_atom_site_fract_z
Si Si1 0.348037 0.556742 0.789279
Si Si2 0.160843 0.944605 0.812699
Si Si3 0.660702 0.055518 0.629104
Si Si4 0.838051 0.409715 0.608183
Si Si5 0.163157 0.500000 0.550570
Si Si6 0.659036 0.815390 0.947325
Si Si7 0.347145 0.229913 0.554097
Si Si8 0.836341 0.624569 0.050535
O O1 0.500000 0.576488 0.801926
O O2 0.352191 0.500000 0.789012
O O3 0.306448 0.573453 0.738549
O O4 0.238454 0.575269 0.826208
O O5 0.253374 0.911455 0.845023
O O6 0.000000 0.937764 0.823993
O O7 0.203424 0.000000 0.818920
O O8 0.500000 0.064621 0.637351
O O9 0.717449 0.084550 0.585543
O O10 0.692580 0.000000 0.619901
O O11 0.785729 0.453046 0.576695
O O12 0.800968 0.361250 0.582156
O O13 0.000000 0.413703 0.618939
O O14 0.228034 0.500000 0.500000
O O15 0.000000 0.500000 0.546922
O O16 0.500000 0.802064 0.941735
O O17 0.744997 0.770700 0.927635
O O18 0.694381 0.826454 0.000000
O O19 0.353703 0.231291 0.500000
O O20 0.500000 0.239216 0.574243
O O21 0.291628 0.177290 0.568350
O O22 0.000000 0.623210 0.047433
O O23 0.775156 0.613938 0.000000
#
# Coordination Sequence:
#
# PCOD8287225 Si02
#       8
#    16  16  16  16   8  16  16  16
#     4   8  15  28  43  57  78 111 142 168 205 247
#     4   9  17  29  43  58  79 107 138 173 210 247
#     4   9  16  25  40  65  91 113 140 171 199 232
#     4  10  18  27  41  61  81 106 138 170 206 248
#     4   9  16  26  39  55  79 111 141 161 188 245
#     4   9  17  28  41  59  83 107 134 172 212 245
#     4   8  14  26  43  59  76 105 143 175 202 236
#     4   8  14  25  41  62  89 117 142 168 199 237
#
# _framework density 15.051985999999999
#
# number of rings (size 3 to 8) (size 9 to 14) (size 15 to 20)
#    0.000    3.267    0.667    2.000    0.000    2.933 
#    0.000    3.333    0.000    2.800    0.000    2.800 
#    0.000    0.000    0.000    0.000    0.000    0.000 
#
# Total GULP energy -743699.949512 kJ/mol
# GULP energy per Si atom -12394.999159 kJ/mol
# Density = 1.501773 g / cm^3
# Si number density = 15.051986 Si / 1000 Ang^3
#
#
#
# Elastic Constant Matrix: (Units=GPa)
#
#
# Indices 1 2 3 4 5 6 
#
# 1 51.7867 42.3536 48.9824 0.0000 0.0000 0.0000
# 2 42.3536 88.1238 55.8294 0.0000 0.0000 0.0000
# 3 48.9824 55.8294 105.6911 0.0000 0.0000 0.0000
# 4 0.0000 0.0000 0.0000 7.5470 0.0000 0.0000
# 5 0.0000 0.0000 0.0000 0.0000 19.0586 0.0000
# 6 0.0000 0.0000 0.0000 0.0000 0.0000 17.8570
#
#
#
# Elastic Compliance Matrix: (Units=1/GPa)
#
#
# Indices 1 2 3 4 5 6 
#
# 1 0.040893 -0.011494 -0.012881 0.000000 0.000000 0.000000
# 2 -0.011494 0.020286 -0.005389 0.000000 0.000000 0.000000
# 3 -0.012881 -0.005389 0.018278 0.000000 0.000000 0.000000
# 4 0.000000 0.000000 0.000000 0.132503 0.000000 0.000000
# 5 0.000000 0.000000 0.000000 0.000000 0.052470 0.000000
# 6 0.000000 0.000000 0.000000 0.000000 0.000000 0.056000
#
#
# Mechanical properties :
#
#
# Convention : Reuss Voigt Hill
#
# Bulk Modulus (GPa) = 50.17474 59.99246 55.08360
# Shear Modulus (GPa) = 12.93331 15.45492 14.19412
#
# Velocity S-wave (km/s) = 2.93446 3.20780 3.07417
# Velocity P-wave (km/s) = 6.69986 7.32553 7.01967
#
# Compressibility (1/GPa) = 0.01993035
#
# Stress axis : x y z
#
# Youngs Moduli (GPa) = 24.45406 49.29587 54.71180
#
# Poissons Ratio (x) = 0.56658 0.70472
# Poissons Ratio (y) = 0.28106 0.29484
# Poissons Ratio (z) = 0.31498 0.26565
#
# Static dielectric constant tensor:
#      x y z
#    x 2.842130 0.000000 0.000000 
#    y 0.000000 2.886310 0.000000 
#    z 0.000000 0.000000 2.970650 
# 
# 
# High freq. dielectric constant tensor:
#      x y z
#    x 1.560050 0.000000 0.000000 
#    y 0.000000 1.556140 0.000000 
#    z 0.000000 0.000000 1.562590 
# 
# From -- ./inp_files/64965.got.cif
#   From: 2010.06.25/outbox.cif.g09.slc.cpg/sg71_33_cif.got.tgz:64965.got - 2010.06.28 04:59:45.
