data_PCOD8287016
_publ_section_title
;
Structure prediction by ZEFSAII (Michael W. Deem and Ramdas Pophale) SiO2 
 PCOD8287016
Probable space group: I M M M
;
_chemical_formula_sum "Si O2"
_cell_formula_units_Z 80
_cell_length_a 18.441263
_cell_length_b 12.517769
_cell_length_c 21.561944
_cell_angle_alpha 90.000000
_cell_angle_beta 90.000000
_cell_angle_gamma 90.000000
_cell_volume 4977.433979
_symmetry_space_group_name_H-M "I M M M"
_symmetry_group_IT_number 71
_symmetry_cell_setting 'orthorhombic'
loop_
_space_group_symop_operation_xyz
x,y,z
-x,-y,z
x,-y,-z
-x,y,-z
-x,-y,-z
x,y,-z
-x,y,z
x,-y,z
1/2+x,1/2+y,1/2+z
1/2-x,1/2-y,1/2+z
1/2+x,1/2-y,1/2-z
1/2-x,1/2+y,1/2-z
1/2-x,1/2-y,1/2-z
1/2+x,1/2+y,1/2-z
1/2-x,1/2+y,1/2+z
1/2+x,1/2-y,1/2+z
loop_
_atom_site_type_symbol
_atom_site_label
_atom_site_fract_x
_atom_site_fract_y
_atom_site_fract_z
Si Si1 0.580468 0.000000 0.073603
Si Si2 0.079930 0.873444 0.771016
Si Si3 0.824404 0.872787 0.115895
Si Si4 0.674176 0.801736 0.072587
Si Si5 0.580753 0.373606 0.500000
Si Si6 0.084135 0.876105 0.368709
O O1 0.621681 0.895033 0.097188
O O2 0.500000 0.000000 0.102687
O O3 0.575900 0.000000 0.000000
O O4 0.139607 0.833205 0.819872
O O5 0.101718 0.838925 0.701555
O O6 0.000000 0.827149 0.787723
O O7 0.074859 0.000000 0.774354
O O8 0.749061 0.810336 0.109858
O O9 0.810739 0.000000 0.113388
O O10 0.877202 0.835010 0.060959
O O11 0.635482 0.689163 0.085063
O O12 0.690895 0.814746 0.000000
O O13 0.574831 0.500000 0.500000
O O14 0.500000 0.323458 0.500000
O O15 0.000000 0.854360 0.384609
O O16 0.102646 0.000000 0.378338
#
# Coordination Sequence:
#
# PCOD8287016 Si02
#       6
#     8  16  16  16   8  16
#     4   9  18  30  44  62  88 126 162 187 219 278
#     4   8  15  29  48  68  92 123 158 192 230 281
#     4  10  17  27  44  68 100 128 150 184 232 279
#     4  11  20  30  46  68  97 127 156 192 235 279
#     4   9  16  24  40  66  97 130 155 179 220 280
#     4   9  19  35  51  67  89 120 160 205 240 270
#
# _framework density 16.072538000000002
#
# number of rings (size 3 to 8) (size 9 to 14) (size 15 to 20)
#    0.000    2.600    2.000    2.400    0.000    4.800 
#    0.000    1.000    0.000    0.000    0.000    0.000 
#    0.000    3.200    0.000    0.000    0.000    0.000 
#
# Total GULP energy -495922.907890 kJ/mol
# GULP energy per Si atom -12398.072697 kJ/mol
# Density = 1.603596 g / cm^3
# Si number density = 16.072538 Si / 1000 Ang^3
#
#
#
# Elastic Constant Matrix: (Units=GPa)
#
#
# Indices 1 2 3 4 5 6 
#
# 1 115.1632 35.5914 25.0404 0.0000 0.0000 0.0000
# 2 35.5914 49.4993 13.8647 0.0000 0.0000 0.0000
# 3 25.0404 13.8647 37.5491 0.0000 0.0000 0.0000
# 4 0.0000 0.0000 0.0000 15.3178 0.0000 0.0000
# 5 0.0000 0.0000 0.0000 0.0000 25.0182 0.0000
# 6 0.0000 0.0000 0.0000 0.0000 0.0000 20.8866
#
#
#
# Elastic Compliance Matrix: (Units=1/GPa)
#
#
# Indices 1 2 3 4 5 6 
#
# 1 0.012074 -0.007167 -0.005405 0.000000 0.000000 0.000000
# 2 -0.007167 0.026788 -0.005111 0.000000 0.000000 0.000000
# 3 -0.005405 -0.005111 0.032124 0.000000 0.000000 0.000000
# 4 0.000000 0.000000 0.000000 0.065284 0.000000 0.000000
# 5 0.000000 0.000000 0.000000 0.000000 0.039971 0.000000
# 6 0.000000 0.000000 0.000000 0.000000 0.000000 0.047878
#
#
# Mechanical properties :
#
#
# Convention : Reuss Voigt Hill
#
# Bulk Modulus (GPa) = 28.07633 39.02272 33.54952
# Shear Modulus (GPa) = 18.42592 20.75886 19.59239
#
# Velocity S-wave (km/s) = 3.38956 3.59775 3.49520
# Velocity P-wave (km/s) = 5.72933 6.44905 6.09981
#
# Compressibility (1/GPa) = 0.03561720
#
# Stress axis : x y z
#
# Youngs Moduli (GPa) = 82.82489 37.33076 31.12980
#
# Poissons Ratio (x) = 0.26756 0.16826
# Poissons Ratio (y) = 0.59364 0.15912
# Poissons Ratio (z) = 0.44767 0.19081
#
# Static dielectric constant tensor:
#      x y z
#    x 3.204540 0.000000 0.000000 
#    y 0.000000 2.605950 0.000000 
#    z 0.000000 0.000000 3.077040 
# 
# 
# High freq. dielectric constant tensor:
#      x y z
#    x 1.627410 0.000000 0.000000 
#    y 0.000000 1.566920 0.000000 
#    z 0.000000 0.000000 1.612190 
# 
# From -- ./inp_files/24143.got.cif
#   From: 2010.06.25/outbox.cif.g09.slc.cpg/sg71_13_cif.got.tgz:24143.got - 2010.06.28 04:59:45.
