data_PCOD8287704
_publ_section_title
;
Structure prediction by ZEFSAII (Michael W. Deem and Ramdas Pophale) SiO2 
 PCOD8287704
Probable space group: I M M M
;
_chemical_formula_sum "Si O2"
_cell_formula_units_Z 88
_cell_length_a 12.531448
_cell_length_b 20.772809
_cell_length_c 19.360194
_cell_angle_alpha 90.000000
_cell_angle_beta 90.000000
_cell_angle_gamma 90.000000
_cell_volume 5039.717456
_symmetry_space_group_name_H-M "I M M M"
_symmetry_group_IT_number 71
_symmetry_cell_setting 'orthorhombic'
loop_
_space_group_symop_operation_xyz
x,y,z
-x,-y,z
x,-y,-z
-x,y,-z
-x,-y,-z
x,y,-z
-x,y,z
x,-y,z
1/2+x,1/2+y,1/2+z
1/2-x,1/2-y,1/2+z
1/2+x,1/2-y,1/2-z
1/2-x,1/2+y,1/2-z
1/2-x,1/2-y,1/2-z
1/2+x,1/2+y,1/2-z
1/2-x,1/2+y,1/2+z
1/2+x,1/2-y,1/2+z
loop_
_atom_site_type_symbol
_atom_site_label
_atom_site_fract_x
_atom_site_fract_y
_atom_site_fract_z
Si Si1 0.126932 0.000000 0.576552
Si Si2 0.625055 0.351098 0.578297
Si Si3 0.122698 0.672192 0.265037
Si Si4 0.729551 0.763532 0.645375
Si Si5 0.212429 0.923460 0.207744
Si Si6 0.876649 0.124363 0.653945
O O1 0.169555 0.061679 0.616693
O O2 0.175095 0.000000 0.500000
O O3 0.000000 0.000000 0.575481
O O4 0.648628 0.374227 0.500000
O O5 0.500000 0.347607 0.593079
O O6 0.673827 0.279099 0.586363
O O7 0.676260 0.402555 0.631031
O O8 0.198883 0.715673 0.310555
O O9 0.136490 0.699177 0.187526
O O10 0.165713 0.598873 0.275740
O O11 0.000000 0.675672 0.287926
O O12 0.811805 0.817406 0.618651
O O13 0.139401 0.884958 0.263573
O O14 0.200926 0.000000 0.215278
O O15 0.000000 0.137188 0.638693
#
# Coordination Sequence:
#
# PCOD8287704 Si02
#       6
#     8  16  16  16  16  16
#     4   9  18  30  44  68 100 130 160 195 240 298
#     4  10  21  35  51  73 101 133 169 210 255 300
#     4   9  17  30  49  74 100 126 161 210 255 295
#     4   9  18  30  49  73  98 126 163 206 250 302
#     4  10  20  33  51  75 102 133 172 210 251 298
#     4  10  18  30  51  76 101 131 165 205 252 299
#
# _framework density 17.461296999999998
#
# number of rings (size 3 to 8) (size 9 to 14) (size 15 to 20)
#    0.000    2.455    0.909    2.727    0.000    2.545 
#    0.000    0.909    0.000   13.091    0.000    5.091 
#    0.000    5.818    0.000    0.000    0.000    0.000 
#
# Total GULP energy -545258.178177 kJ/mol
# GULP energy per Si atom -12392.231322 kJ/mol
# Density = 1.742155 g / cm^3
# Si number density = 17.461297 Si / 1000 Ang^3
#
#
#
# Elastic Constant Matrix: (Units=GPa)
#
#
# Indices 1 2 3 4 5 6 
#
# 1 78.9335 21.3947 16.4821 0.0000 0.0000 0.0000
# 2 21.3947 88.1581 9.7091 0.0000 0.0000 0.0000
# 3 16.4821 9.7091 68.4804 0.0000 0.0000 0.0000
# 4 0.0000 0.0000 0.0000 23.4358 0.0000 0.0000
# 5 0.0000 0.0000 0.0000 0.0000 16.9376 0.0000
# 6 0.0000 0.0000 0.0000 0.0000 0.0000 23.0508
#
#
#
# Elastic Compliance Matrix: (Units=1/GPa)
#
#
# Indices 1 2 3 4 5 6 
#
# 1 0.014128 -0.003103 -0.002961 0.000000 0.000000 0.000000
# 2 -0.003103 0.012205 -0.000984 0.000000 0.000000 0.000000
# 3 -0.002961 -0.000984 0.015455 0.000000 0.000000 0.000000
# 4 0.000000 0.000000 0.000000 0.042670 0.000000 0.000000
# 5 0.000000 0.000000 0.000000 0.000000 0.059040 0.000000
# 6 0.000000 0.000000 0.000000 0.000000 0.000000 0.043382
#
#
# Mechanical properties :
#
#
# Convention : Reuss Voigt Hill
#
# Bulk Modulus (GPa) = 36.10911 36.74932 36.42922
# Shear Modulus (GPa) = 23.78638 25.21725 24.50181
#
# Velocity S-wave (km/s) = 3.69485 3.80436 3.75000
# Velocity P-wave (km/s) = 6.23915 6.35526 6.29747
#
# Compressibility (1/GPa) = 0.02769384
#
# Stress axis : x y z
#
# Youngs Moduli (GPa) = 70.78129 81.93666 64.70514
#
# Poissons Ratio (x) = 0.25422 0.19156
# Poissons Ratio (y) = 0.21961 0.06364
# Poissons Ratio (z) = 0.20955 0.08059
#
# Static dielectric constant tensor:
#      x y z
#    x 3.122460 0.000000 0.000000 
#    y 0.000000 3.546280 0.000000 
#    z 0.000000 0.000000 3.153690 
# 
# 
# High freq. dielectric constant tensor:
#      x y z
#    x 1.659730 0.000000 0.000000 
#    y 0.000000 1.681000 0.000000 
#    z 0.000000 0.000000 1.656040 
# 
# From -- ./inp_files/25661.got.cif
#   From: 2010.06.25/outbox.cif.g09.slc.cpg/sg71_13_cif.got.tgz:25661.got - 2010.06.28 04:59:45.
