data_PCOD8287381
_publ_section_title
;
Structure prediction by ZEFSAII (Michael W. Deem and Ramdas Pophale) SiO2 
 PCOD8287381
Probable space group: I M M M
;
_chemical_formula_sum "Si O2"
_cell_formula_units_Z 128
_cell_length_a 26.407218
_cell_length_b 23.908844
_cell_length_c 12.906606
_cell_angle_alpha 90.000000
_cell_angle_beta 90.000000
_cell_angle_gamma 90.000000
_cell_volume 8148.792922
_symmetry_space_group_name_H-M "I M M M"
_symmetry_group_IT_number 71
_symmetry_cell_setting 'orthorhombic'
loop_
_space_group_symop_operation_xyz
x,y,z
-x,-y,z
x,-y,-z
-x,y,-z
-x,-y,-z
x,y,-z
-x,y,z
x,-y,z
1/2+x,1/2+y,1/2+z
1/2-x,1/2-y,1/2+z
1/2+x,1/2-y,1/2-z
1/2-x,1/2+y,1/2-z
1/2-x,1/2-y,1/2-z
1/2+x,1/2+y,1/2-z
1/2-x,1/2+y,1/2+z
1/2+x,1/2-y,1/2+z
loop_
_atom_site_type_symbol
_atom_site_label
_atom_site_fract_x
_atom_site_fract_y
_atom_site_fract_z
Si Si1 0.821326 0.439985 0.118944
Si Si2 0.941500 0.163095 0.381207
Si Si3 0.838516 0.321456 0.882213
Si Si4 0.861549 0.218152 0.242581
Si Si5 0.280633 0.323525 0.884529
Si Si6 0.648931 0.392350 0.620136
Si Si7 0.556854 0.563433 0.265745
Si Si8 0.785879 0.938154 0.703707
O O1 0.850524 0.500000 0.129568
O O2 0.856675 0.385806 0.141239
O O3 0.774959 0.440526 0.199729
O O4 0.800233 0.433458 0.000000
O O5 0.923350 0.162597 0.500000
O O6 0.909620 0.208304 0.316520
O O7 0.931348 0.101634 0.334171
O O8 0.000000 0.180341 0.372092
O O9 0.868254 0.279134 0.808188
O O10 0.778591 0.319984 0.859670
O O11 0.850651 0.304618 0.000000
O O12 0.809997 0.218374 0.308994
O O13 0.856756 0.172364 0.151997
O O14 0.303173 0.386890 0.870308
O O15 0.292242 0.303796 0.000000
O O16 0.662350 0.396357 0.500000
O O17 0.595681 0.423168 0.642053
O O18 0.694418 0.423274 0.681166
O O19 0.500000 0.574497 0.307776
O O20 0.563468 0.500000 0.228021
O O21 0.807170 0.000000 0.670893
#
# Coordination Sequence:
#
# PCOD8287381 Si02
#       8
#    16  16  16  16  16  16  16  16
#     4   8  14  26  44  65  87 107 129 160 196 234
#     4   9  18  32  48  64  82 104 130 166 213 256
#     4   9  16  26  42  62  84 112 139 161 192 234
#     4  10  18  29  43  59  82 108 137 171 204 241
#     4   9  17  27  40  60  83 106 134 170 209 245
#     4  10  20  30  38  51  74 105 140 175 207 240
#     4   9  18  31  45  60  75  94 127 171 217 260
#     4   9  16  25  38  55  75 102 135 169 205 242
#
# _framework density 15.707848
#
# number of rings (size 3 to 8) (size 9 to 14) (size 15 to 20)
#    0.000    2.875    0.000    2.625    0.000    2.250 
#    0.000    2.500    0.000   10.125    0.000    0.000 
#    0.000    0.500    0.000    4.500    0.000    0.125 
#
# Total GULP energy -792980.602103 kJ/mol
# GULP energy per Si atom -12390.321908 kJ/mol
# Density = 1.567210 g / cm^3
# Si number density = 15.707848 Si / 1000 Ang^3
#
#
#
# Elastic Constant Matrix: (Units=GPa)
#
#
# Indices 1 2 3 4 5 6 
#
# 1 29.8052 21.7001 26.0998 0.0000 0.0000 0.0000
# 2 21.7001 116.2716 40.2017 0.0000 0.0000 0.0000
# 3 26.0998 40.2017 81.8603 0.0000 0.0000 0.0000
# 4 0.0000 0.0000 0.0000 17.9186 0.0000 0.0000
# 5 0.0000 0.0000 0.0000 0.0000 19.2969 0.0000
# 6 0.0000 0.0000 0.0000 0.0000 0.0000 18.1914
#
#
#
# Elastic Compliance Matrix: (Units=1/GPa)
#
#
# Indices 1 2 3 4 5 6 
#
# 1 0.048388 -0.004453 -0.013241 0.000000 0.000000 0.000000
# 2 -0.004453 0.010769 -0.003869 0.000000 0.000000 0.000000
# 3 -0.013241 -0.003869 0.018338 0.000000 0.000000 0.000000
# 4 0.000000 0.000000 0.000000 0.055808 0.000000 0.000000
# 5 0.000000 0.000000 0.000000 0.000000 0.051822 0.000000
# 6 0.000000 0.000000 0.000000 0.000000 0.000000 0.054971
#
#
# Mechanical properties :
#
#
# Convention : Reuss Voigt Hill
#
# Bulk Modulus (GPa) = 29.09568 44.88226 36.98897
# Shear Modulus (GPa) = 16.96769 20.41041 18.68905
#
# Velocity S-wave (km/s) = 3.29021 3.60860 3.45308
# Velocity P-wave (km/s) = 5.74432 6.78217 6.28471
#
# Compressibility (1/GPa) = 0.03436937
#
# Stress axis : x y z
#
# Youngs Moduli (GPa) = 20.66636 92.85603 54.53224
#
# Poissons Ratio (x) = 0.41345 0.72206
# Poissons Ratio (y) = 0.09202 0.21100
# Poissons Ratio (z) = 0.27364 0.35928
#
# Static dielectric constant tensor:
#      x y z
#    x 2.739700 0.000000 0.000000 
#    y 0.000000 3.168120 0.000000 
#    z 0.000000 0.000000 2.841540 
# 
# 
# High freq. dielectric constant tensor:
#      x y z
#    x 1.562660 0.000000 0.000000 
#    y 0.000000 1.603250 0.000000 
#    z 0.000000 0.000000 1.589180 
# 
# From -- ./inp_files/29270.got.cif
#   From: 2010.06.25/outbox.cif.g09.slc.cpg/sg71_15_cif.got.tgz:29270.got - 2010.06.28 04:59:45.
