data_PCOD8287008
_publ_section_title
;
Structure prediction by ZEFSAII (Michael W. Deem and Ramdas Pophale) SiO2 
 PCOD8287008
Probable space group: I M M M
;
_chemical_formula_sum "Si O2"
_cell_formula_units_Z 80
_cell_length_a 23.573416
_cell_length_b 26.626806
_cell_length_c 8.675399
_cell_angle_alpha 90.000000
_cell_angle_beta 90.000000
_cell_angle_gamma 90.000000
_cell_volume 5445.415866
_symmetry_space_group_name_H-M "I M M M"
_symmetry_group_IT_number 71
_symmetry_cell_setting 'orthorhombic'
loop_
_space_group_symop_operation_xyz
x,y,z
-x,-y,z
x,-y,-z
-x,y,-z
-x,-y,-z
x,y,-z
-x,y,z
x,-y,z
1/2+x,1/2+y,1/2+z
1/2-x,1/2-y,1/2+z
1/2+x,1/2-y,1/2-z
1/2-x,1/2+y,1/2-z
1/2-x,1/2-y,1/2-z
1/2+x,1/2+y,1/2-z
1/2-x,1/2+y,1/2+z
1/2+x,1/2-y,1/2+z
loop_
_atom_site_type_symbol
_atom_site_label
_atom_site_fract_x
_atom_site_fract_y
_atom_site_fract_z
Si Si1 0.190444 0.852883 0.682382
Si Si2 0.000000 0.898708 0.681375
Si Si3 0.616043 0.555908 0.183240
Si Si4 0.214824 0.703736 0.317586
Si Si5 0.377317 0.261209 0.679338
Si Si6 0.500000 0.708022 0.675854
O O1 0.196231 0.848748 0.500000
O O2 0.166442 0.906913 0.735895
O O3 0.253054 0.846313 0.758116
O O4 0.146459 0.810758 0.738153
O O5 0.943987 0.924938 0.752144
O O6 0.000000 0.839879 0.715078
O O7 0.000000 0.906021 0.500000
O O8 0.628925 0.500000 0.246460
O O9 0.612102 0.555803 0.000000
O O10 0.213332 0.704542 0.500000
O O11 0.250000 0.750000 0.250000
O O12 0.151036 0.710633 0.251255
O O13 0.361803 0.264648 0.500000
O O14 0.444719 0.257899 0.708418
O O15 0.500000 0.688612 0.500000
#
# Coordination Sequence:
#
# PCOD8287008 Si02
#       6
#    16   8  16  16  16   8
#     4  10  17  27  43  60  78 102 134 171 208 243
#     4  10  17  28  44  58  76 106 144 181 209 241
#     4   9  17  27  41  61  81 104 139 180 214 241
#     4  10  18  28  42  59  78 100 129 165 204 246
#     4  10  18  29  42  58  80 105 133 164 202 245
#     4  10  20  29  41  59  84 110 133 169 210 243
#
# _framework density 14.691257
#
# number of rings (size 3 to 8) (size 9 to 14) (size 15 to 20)
#    0.000    2.200    2.000    5.700    0.000    2.000 
#    0.000    0.000    0.000    6.000    0.000    0.000 
#    0.000    0.000    0.000    0.900    0.000   20.600 
#
# Total GULP energy -495774.887549 kJ/mol
# GULP energy per Si atom -12394.372189 kJ/mol
# Density = 1.465782 g / cm^3
# Si number density = 14.691257 Si / 1000 Ang^3
#
#
#
# Elastic Constant Matrix: (Units=GPa)
#
#
# Indices 1 2 3 4 5 6 
#
# 1 110.6349 66.3716 30.9246 0.0000 0.0000 0.0000
# 2 66.3716 79.0125 23.9718 0.0000 0.0000 0.0000
# 3 30.9246 23.9718 60.1776 0.0000 0.0000 0.0000
# 4 0.0000 0.0000 0.0000 12.2697 0.0000 0.0000
# 5 0.0000 0.0000 0.0000 0.0000 17.6303 0.0000
# 6 0.0000 0.0000 0.0000 0.0000 0.0000 22.8897
#
#
#
# Elastic Compliance Matrix: (Units=1/GPa)
#
#
# Indices 1 2 3 4 5 6 
#
# 1 0.018982 -0.014771 -0.003871 0.000000 0.000000 0.000000
# 2 -0.014771 0.025890 -0.002723 0.000000 0.000000 0.000000
# 3 -0.003871 -0.002723 0.019691 0.000000 0.000000 0.000000
# 4 0.000000 0.000000 0.000000 0.081501 0.000000 0.000000
# 5 0.000000 0.000000 0.000000 0.000000 0.056721 0.000000
# 6 0.000000 0.000000 0.000000 0.000000 0.000000 0.043688
#
#
# Mechanical properties :
#
#
# Convention : Reuss Voigt Hill
#
# Bulk Modulus (GPa) = 45.79865 54.70678 50.25272
# Shear Modulus (GPa) = 16.86461 19.12842 17.99651
#
# Velocity S-wave (km/s) = 3.39180 3.61228 3.50377
# Velocity P-wave (km/s) = 6.82501 7.39706 7.11679
#
# Compressibility (1/GPa) = 0.02183470
#
# Stress axis : x y z
#
# Youngs Moduli (GPa) = 52.68207 38.62521 50.78420
#
# Poissons Ratio (x) = 0.57052 0.19657
# Poissons Ratio (y) = 0.77815 0.13827
# Poissons Ratio (z) = 0.20391 0.10517
#
# Static dielectric constant tensor:
#      x y z
#    x 3.331710 0.000000 0.000000 
#    y 0.000000 2.852810 0.000000 
#    z 0.000000 0.000000 2.808230 
# 
# 
# High freq. dielectric constant tensor:
#      x y z
#    x 1.557330 0.000000 0.000000 
#    y 0.000000 1.518690 0.000000 
#    z 0.000000 0.000000 1.562500 
# 
# From -- ./inp_files/13051.got.cif
#   From: 2010.06.25/outbox.cif.g09.slc.cpg/sg71_7_cif.got.tgz:13051.got - 2010.06.28 04:59:45.
