data_PCOD8287179
_publ_section_title
;
Structure prediction by ZEFSAII (Michael W. Deem and Ramdas Pophale) SiO2 
 PCOD8287179
Probable space group: I M M M
;
_chemical_formula_sum "Si O2"
_cell_formula_units_Z 112
_cell_length_a 33.482385
_cell_length_b 9.172663
_cell_length_c 26.438134
_cell_angle_alpha 90.000000
_cell_angle_beta 90.000000
_cell_angle_gamma 90.000000
_cell_volume 8119.749353
_symmetry_space_group_name_H-M "I M M M"
_symmetry_group_IT_number 71
_symmetry_cell_setting 'orthorhombic'
loop_
_space_group_symop_operation_xyz
x,y,z
-x,-y,z
x,-y,-z
-x,y,-z
-x,-y,-z
x,y,-z
-x,y,z
x,-y,z
1/2+x,1/2+y,1/2+z
1/2-x,1/2-y,1/2+z
1/2+x,1/2-y,1/2-z
1/2-x,1/2+y,1/2-z
1/2-x,1/2-y,1/2-z
1/2+x,1/2+y,1/2-z
1/2-x,1/2+y,1/2+z
1/2+x,1/2-y,1/2+z
loop_
_atom_site_type_symbol
_atom_site_label
_atom_site_fract_x
_atom_site_fract_y
_atom_site_fract_z
Si Si1 0.000000 0.335160 0.597860
Si Si2 0.847101 0.666741 0.442322
Si Si3 0.078219 0.829972 0.598723
Si Si4 0.154523 0.333759 0.259611
Si Si5 0.421775 0.330318 0.782949
Si Si6 0.000000 0.664863 0.718150
Si Si7 0.730589 0.831909 0.296509
Si Si8 0.209913 0.668715 0.645919
O O1 0.960883 0.252125 0.577719
O O2 0.000000 0.332886 0.658005
O O3 0.000000 0.500000 0.576863
O O4 0.833253 0.685334 0.500000
O O5 0.859829 0.500000 0.430231
O O6 0.884131 0.771249 0.431839
O O7 0.809485 0.711359 0.407687
O O8 0.084530 0.798354 0.657860
O O9 0.072804 0.000000 0.587806
O O10 0.139493 0.500000 0.264754
O O11 0.116606 0.229357 0.253018
O O12 0.182601 0.315392 0.209728
O O13 0.178698 0.289438 0.310040
O O14 0.427134 0.500000 0.771698
O O15 0.460822 0.248209 0.761880
O O16 0.000000 0.500000 0.739044
O O17 0.750000 0.750000 0.250000
O O18 0.748782 0.759954 0.347454
O O19 0.743141 0.000000 0.294602
O O20 0.221493 0.500000 0.649042
#
# Coordination Sequence:
#
# PCOD8287179 Si02
#       8
#     8  16  16  16  16   8  16  16
#     4   9  17  29  46  60  71  93 121 150 190 241
#     4  10  20  33  47  60  75  98 128 158 191 237
#     4  10  19  30  43  60  78  94 117 155 198 236
#     4   9  16  26  40  58  78 100 124 150 183 226
#     4  10  18  26  39  58  78  99 124 155 189 226
#     4   9  17  27  39  54  74 101 127 153 185 223
#     4   9  17  27  40  59  80 101 123 149 183 226
#     4   9  17  29  43  58  77  99 123 154 190 229
#
# _framework density 13.793528999999999
#
# number of rings (size 3 to 8) (size 9 to 14) (size 15 to 20)
#    0.000    2.571    1.429    2.571    0.000    6.571 
#    0.000    0.357    0.000    2.143    0.000    0.000 
#    0.000    0.000    0.000    0.000    0.000    0.000 
#
# Total GULP energy -694273.126796 kJ/mol
# GULP energy per Si atom -12397.734407 kJ/mol
# Density = 1.376213 g / cm^3
# Si number density = 13.793529 Si / 1000 Ang^3
#
#
#
# Elastic Constant Matrix: (Units=GPa)
#
#
# Indices 1 2 3 4 5 6 
#
# 1 94.0746 57.3556 42.3499 0.0000 0.0000 0.0000
# 2 57.3556 89.8210 29.7820 0.0000 0.0000 0.0000
# 3 42.3499 29.7820 37.9747 0.0000 0.0000 0.0000
# 4 0.0000 0.0000 0.0000 12.6741 0.0000 0.0000
# 5 0.0000 0.0000 0.0000 0.0000 13.9912 0.0000
# 6 0.0000 0.0000 0.0000 0.0000 0.0000 29.1233
#
#
#
# Elastic Compliance Matrix: (Units=1/GPa)
#
#
# Indices 1 2 3 4 5 6 
#
# 1 0.026263 -0.009540 -0.021807 0.000000 0.000000 0.000000
# 2 -0.009540 0.018511 -0.003878 0.000000 0.000000 0.000000
# 3 -0.021807 -0.003878 0.053695 0.000000 0.000000 0.000000
# 4 0.000000 0.000000 0.000000 0.078901 0.000000 0.000000
# 5 0.000000 0.000000 0.000000 0.000000 0.071474 0.000000
# 6 0.000000 0.000000 0.000000 0.000000 0.000000 0.034337
#
#
# Mechanical properties :
#
#
# Convention : Reuss Voigt Hill
#
# Bulk Modulus (GPa) = 35.69169 53.42726 44.55947
# Shear Modulus (GPa) = 13.77521 17.31658 15.54589
#
# Velocity S-wave (km/s) = 3.16361 3.54702 3.36079
# Velocity P-wave (km/s) = 6.26709 7.45606 6.88728
#
# Compressibility (1/GPa) = 0.02801773
#
# Stress axis : x y z
#
# Youngs Moduli (GPa) = 38.07609 54.02225 18.62374
#
# Poissons Ratio (x) = 0.51536 0.40614
# Poissons Ratio (y) = 0.36324 0.07223
# Poissons Ratio (z) = 0.83034 0.20952
#
# Static dielectric constant tensor:
#      x y z
#    x 2.888720 0.000000 0.000000 
#    y 0.000000 2.886740 0.000000 
#    z 0.000000 0.000000 2.460960 
# 
# 
# High freq. dielectric constant tensor:
#      x y z
#    x 1.521350 0.000000 0.000000 
#    y 0.000000 1.541420 0.000000 
#    z 0.000000 0.000000 1.461880 
# 
# From -- ./inp_files/71274.got.cif
#   From: 2010.06.25/outbox.cif.g09.slc.cpg/sg71_36_cif.got.tgz:71274.got - 2010.06.28 04:59:45.
