data_PCOD8287737
_publ_section_title
;
Structure prediction by ZEFSAII (Michael W. Deem and Ramdas Pophale) SiO2 
 PCOD8287737
Probable space group: I M M M
;
_chemical_formula_sum "Si O2"
_cell_formula_units_Z 88
_cell_length_a 22.279858
_cell_length_b 21.687914
_cell_length_c 9.862153
_cell_angle_alpha 90.000000
_cell_angle_beta 90.000000
_cell_angle_gamma 90.000000
_cell_volume 4765.428270
_symmetry_space_group_name_H-M "I M M M"
_symmetry_group_IT_number 71
_symmetry_cell_setting 'orthorhombic'
loop_
_space_group_symop_operation_xyz
x,y,z
-x,-y,z
x,-y,-z
-x,y,-z
-x,-y,-z
x,y,-z
-x,y,z
x,-y,z
1/2+x,1/2+y,1/2+z
1/2-x,1/2-y,1/2+z
1/2+x,1/2-y,1/2-z
1/2-x,1/2+y,1/2-z
1/2-x,1/2-y,1/2-z
1/2+x,1/2+y,1/2-z
1/2-x,1/2+y,1/2+z
1/2+x,1/2-y,1/2+z
loop_
_atom_site_type_symbol
_atom_site_label
_atom_site_fract_x
_atom_site_fract_y
_atom_site_fract_z
Si Si1 0.429705 0.067991 0.500000
Si Si2 0.749507 0.813190 0.337038
Si Si3 0.874267 0.361653 0.243813
Si Si4 0.372640 0.623576 0.841056
Si Si5 0.931021 0.000000 0.662412
Si Si6 0.931377 0.245361 0.345486
Si Si7 0.570677 0.926606 0.000000
O O1 0.500000 0.060339 0.500000
O O2 0.410745 0.105339 0.370997
O O3 0.399701 0.000000 0.500000
O O4 0.747555 0.798888 0.500000
O O5 0.750000 0.750000 0.250000
O O6 0.695981 0.858722 0.291477
O O7 0.807213 0.853627 0.294867
O O8 0.893751 0.290572 0.251396
O O9 0.891813 0.399701 0.376039
O O10 0.395191 0.559180 0.776792
O O11 0.420689 0.675602 0.797394
O O12 0.372859 0.613758 0.000000
O O13 0.931071 0.000000 0.500000
O O14 0.000000 0.000000 0.714172
O O15 0.908575 0.253566 0.500000
O O16 0.000000 0.263378 0.332002
O O17 0.500000 0.905534 0.000000
O O18 0.574038 0.000000 0.000000
#
# Coordination Sequence:
#
# PCOD8287737 Si02
#       7
#     8  16  16  16   8  16   8
#     4  11  24  42  59  82 120 159 196 251 319 373
#     4  11  23  40  60  85 122 162 202 252 310 372
#     4  12  22  38  59  88 117 155 205 253 307 371
#     4   9  18  32  51  79 113 156 191 232 297 355
#     4   9  16  30  52  82 119 153 188 237 295 357
#     4  10  18  30  53  83 111 143 196 253 301 353
#     4  11  24  42  63  88 118 159 210 255 309 377
#
# _framework density 18.466335999999998
#
# number of rings (size 3 to 8) (size 9 to 14) (size 15 to 20)
#    0.000    1.545    3.636    2.727    1.273    3.636 
#    3.273    0.000    0.000    0.000    0.000    0.000 
#    0.000    0.727    0.000    0.000    0.000    0.000 
#
# Total GULP energy -545343.467269 kJ/mol
# GULP energy per Si atom -12394.169711 kJ/mol
# Density = 1.842431 g / cm^3
# Si number density = 18.466336 Si / 1000 Ang^3
#
#
#
# Elastic Constant Matrix: (Units=GPa)
#
#
# Indices 1 2 3 4 5 6 
#
# 1 111.7520 58.6918 32.8057 0.0000 0.0000 0.0000
# 2 58.6918 139.3215 33.5577 0.0000 0.0000 0.0000
# 3 32.8057 33.5577 84.6065 0.0000 0.0000 0.0000
# 4 0.0000 0.0000 0.0000 233.0867 0.0000 0.0000
# 5 0.0000 0.0000 0.0000 0.0000 25.1263 0.0000
# 6 0.0000 0.0000 0.0000 0.0000 0.0000 26.0164
#
#
#
# Elastic Compliance Matrix: (Units=1/GPa)
#
#
# Indices 1 2 3 4 5 6 
#
# 1 0.012125 -0.004395 -0.002958 0.000000 0.000000 0.000000
# 2 -0.004395 0.009529 -0.002075 0.000000 0.000000 0.000000
# 3 -0.002958 -0.002075 0.013790 0.000000 0.000000 0.000000
# 4 0.000000 0.000000 0.000000 0.004290 0.000000 0.000000
# 5 0.000000 0.000000 0.000000 0.000000 0.039799 0.000000
# 6 0.000000 0.000000 0.000000 0.000000 0.000000 0.038437
#
#
# Mechanical properties :
#
#
# Convention : Reuss Voigt Hill
#
# Bulk Modulus (GPa) = 60.29084 65.08781 62.68933
# Shear Modulus (GPa) = 35.12298 70.88753 53.00526
#
# Velocity S-wave (km/s) = 4.36592 6.20248 5.36340
# Velocity P-wave (km/s) = 7.62463 9.30686 8.50743
#
# Compressibility (1/GPa) = 0.01658627
#
# Stress axis : x y z
#
# Youngs Moduli (GPa) = 82.47252 104.94077 72.51878
#
# Poissons Ratio (x) = 0.46127 0.21452
# Poissons Ratio (y) = 0.36251 0.15050
# Poissons Ratio (z) = 0.24396 0.21778
#
# Static dielectric constant tensor:
#      x y z
#    x 3.595810 0.000000 0.000000 
#    y 0.000000 3.888600 0.000000 
#    z 0.000000 0.000000 3.093510 
# 
# 
# High freq. dielectric constant tensor:
#      x y z
#    x 1.727130 0.000000 0.000000 
#    y 0.000000 1.731000 0.000000 
#    z 0.000000 0.000000 1.680470 
# 
# From -- ./inp_files/10571.got.cif
#   From: 2010.06.25/outbox.cif.g09.slc.cpg/sg71_6_cif.got.tgz:10571.got - 2010.06.28 04:59:45.
