data_PCOD8287723
_publ_section_title
;
Structure prediction by ZEFSAII (Michael W. Deem and Ramdas Pophale) SiO2 
 PCOD8287723
Probable space group: I M M M
;
_chemical_formula_sum "Si O2"
_cell_formula_units_Z 80
_cell_length_a 25.897071
_cell_length_b 8.971497
_cell_length_c 18.556779
_cell_angle_alpha 90.000000
_cell_angle_beta 90.000000
_cell_angle_gamma 90.000000
_cell_volume 4311.398431
_symmetry_space_group_name_H-M "I M M M"
_symmetry_group_IT_number 71
_symmetry_cell_setting 'orthorhombic'
loop_
_space_group_symop_operation_xyz
x,y,z
-x,-y,z
x,-y,-z
-x,y,-z
-x,-y,-z
x,y,-z
-x,y,z
x,-y,z
1/2+x,1/2+y,1/2+z
1/2-x,1/2-y,1/2+z
1/2+x,1/2-y,1/2-z
1/2-x,1/2+y,1/2-z
1/2-x,1/2-y,1/2-z
1/2+x,1/2+y,1/2-z
1/2-x,1/2+y,1/2+z
1/2+x,1/2-y,1/2+z
loop_
_atom_site_type_symbol
_atom_site_label
_atom_site_fract_x
_atom_site_fract_y
_atom_site_fract_z
Si Si1 0.704234 0.835280 0.162098
Si Si2 0.000000 0.170205 0.585159
Si Si3 0.405678 0.676758 0.678319
Si Si4 0.090328 0.322415 0.668230
Si Si5 0.500000 0.323614 0.580300
Si Si6 0.197679 0.334551 0.166855
O O1 0.647402 0.778921 0.138573
O O2 0.749481 0.729320 0.131839
O O3 0.704728 0.840246 0.248060
O O4 0.714729 0.000000 0.131120
O O5 0.949585 0.255229 0.612213
O O6 0.000000 0.176222 0.500000
O O7 0.000000 0.000000 0.613365
O O8 0.404423 0.500000 0.689474
O O9 0.419694 0.753332 0.753598
O O10 0.448956 0.729640 0.622017
O O11 0.350704 0.730401 0.646892
O O12 0.084345 0.500000 0.674431
O O13 0.500000 0.500000 0.575459
O O14 0.500000 0.253879 0.500000
O O15 0.188266 0.500000 0.135827
#
# Coordination Sequence:
#
# PCOD8287723 Si02
#       6
#    16   8  16  16   8  16
#     4   8  15  27  44  70 100 129 161 198 244 293
#     4  11  24  39  54  74 102 135 170 207 250 302
#     4  10  18  30  52  77 102 132 167 210 255 300
#     4  10  20  34  54  78 104 132 166 209 250 295
#     4   9  19  34  50  70  96 129 170 211 250 294
#     4   9  16  26  43  70 103 133 161 199 247 298
#
# _framework density 18.555464000000001
#
# number of rings (size 3 to 8) (size 9 to 14) (size 15 to 20)
#    0.000    2.600    0.000    3.900    0.000    7.200 
#    0.000    1.500    0.000    6.000    0.000    2.800 
#    0.000    0.000    0.000    0.000    0.000    0.000 
#
# Total GULP energy -495874.192792 kJ/mol
# GULP energy per Si atom -12396.854820 kJ/mol
# Density = 1.851323 g / cm^3
# Si number density = 18.555464 Si / 1000 Ang^3
#
#
#
# Elastic Constant Matrix: (Units=GPa)
#
#
# Indices 1 2 3 4 5 6 
#
# 1 169.5403 67.2253 48.2411 0.0000 0.0000 0.0000
# 2 67.2253 108.0010 33.7346 0.0000 0.0000 0.0000
# 3 48.2411 33.7346 53.6103 0.0000 0.0000 0.0000
# 4 0.0000 0.0000 0.0000 10.6497 0.0000 0.0000
# 5 0.0000 0.0000 0.0000 0.0000 0.2669 0.0000
# 6 0.0000 0.0000 0.0000 0.0000 0.0000 31.2246
#
#
#
# Elastic Compliance Matrix: (Units=1/GPa)
#
#
# Indices 1 2 3 4 5 6 
#
# 1 0.009053 -0.003846 -0.005726 0.000000 0.000000 0.000000
# 2 -0.003846 0.013159 -0.004819 0.000000 0.000000 0.000000
# 3 -0.005726 -0.004819 0.026838 0.000000 0.000000 0.000000
# 4 0.000000 0.000000 0.000000 0.093900 0.000000 0.000000
# 5 0.000000 0.000000 0.000000 0.000000 3.746433 0.000000
# 6 0.000000 0.000000 0.000000 0.000000 0.000000 0.032026
#
#
# Mechanical properties :
#
#
# Convention : Reuss Voigt Hill
#
# Bulk Modulus (GPa) = 49.34138 69.95038 59.64588
# Shear Modulus (GPa) = 1.26360 20.55828 10.91094
#
# Velocity S-wave (km/s) = 0.82611 3.33218 2.42754
# Velocity P-wave (km/s) = 5.24966 7.25151 6.33022
#
# Compressibility (1/GPa) = 0.02026696
#
# Stress axis : x y z
#
# Youngs Moduli (GPa) = 110.46520 75.99610 37.26107
#
# Poissons Ratio (x) = 0.29231 0.21334
# Poissons Ratio (y) = 0.42489 0.17956
# Poissons Ratio (z) = 0.63248 0.36622
#
# Static dielectric constant tensor:
#      x y z
#    x 3.856930 0.000000 0.000000 
#    y 0.000000 3.571470 0.000000 
#    z 0.000000 0.000000 2.959350 
# 
# 
# High freq. dielectric constant tensor:
#      x y z
#    x 1.742050 0.000000 0.000000 
#    y 0.000000 1.724300 0.000000 
#    z 0.000000 0.000000 1.662020 
# 
# From -- ./inp_files/48603.got.cif
#   From: 2010.06.25/outbox.cif.g09.slc.cpg/sg71_25_cif.got.tgz:48603.got - 2010.06.28 04:59:45.
