data_PCOD8287600
_publ_section_title
;
Structure prediction by ZEFSAII (Michael W. Deem and Ramdas Pophale) SiO2 
 PCOD8287600
Probable space group: I M M M
;
_chemical_formula_sum "Si O2"
_cell_formula_units_Z 104
_cell_length_a 9.315813
_cell_length_b 28.093336
_cell_length_c 24.239233
_cell_angle_alpha 90.000000
_cell_angle_beta 90.000000
_cell_angle_gamma 90.000000
_cell_volume 6343.704564
_symmetry_space_group_name_H-M "I M M M"
_symmetry_group_IT_number 71
_symmetry_cell_setting 'orthorhombic'
loop_
_space_group_symop_operation_xyz
x,y,z
-x,-y,z
x,-y,-z
-x,y,-z
-x,-y,-z
x,y,-z
-x,y,z
x,-y,z
1/2+x,1/2+y,1/2+z
1/2-x,1/2-y,1/2+z
1/2+x,1/2-y,1/2-z
1/2-x,1/2+y,1/2-z
1/2-x,1/2-y,1/2-z
1/2+x,1/2+y,1/2-z
1/2-x,1/2+y,1/2+z
1/2+x,1/2-y,1/2+z
loop_
_atom_site_type_symbol
_atom_site_label
_atom_site_fract_x
_atom_site_fract_y
_atom_site_fract_z
Si Si1 0.669122 0.445581 0.347071
Si Si2 0.670722 0.373672 0.561390
Si Si3 0.668000 0.093994 0.377556
Si Si4 0.831839 0.178119 0.435603
Si Si5 0.164244 0.445488 0.760448
Si Si6 0.159060 0.231029 0.934648
Si Si7 0.670567 0.000000 0.562038
O O1 0.500000 0.439506 0.340909
O O2 0.712403 0.500000 0.359796
O O3 0.730803 0.413440 0.396809
O O4 0.738222 0.428056 0.289983
O O5 0.734131 0.383359 0.500000
O O6 0.500000 0.376227 0.558281
O O7 0.715444 0.321218 0.583830
O O8 0.500000 0.101930 0.390403
O O9 0.757098 0.138216 0.399262
O O10 0.696135 0.088193 0.312501
O O11 0.727978 0.047079 0.407943
O O12 0.797041 0.169303 0.500000
O O13 0.769984 0.228748 0.415007
O O14 0.000000 0.177758 0.423988
O O15 0.198857 0.500000 0.777140
O O16 0.000000 0.440816 0.741798
O O17 0.000000 0.241625 0.910007
O O18 0.147521 0.230256 0.000000
O O19 0.500000 0.000000 0.564330
O O20 0.729909 0.000000 0.500000
#
# Coordination Sequence:
#
# PCOD8287600 Si02
#       7
#    16  16  16  16  16  16   8
#     4   9  17  28  45  71  99 125 152 182 222 272
#     4   8  14  26  46  72  98 122 151 187 223 262
#     4  10  18  30  48  67  86 116 157 195 227 265
#     4  10  20  31  43  65  96 122 145 182 234 283
#     4   9  17  31  48  65  88 119 158 196 226 260
#     4   8  14  27  47  66  85 116 156 190 220 261
#     4   9  16  26  43  67  89 109 142 189 230 264
#
# _framework density 16.394204999999999
#
# number of rings (size 3 to 8) (size 9 to 14) (size 15 to 20)
#    0.000    3.000    0.769    1.846    0.000    2.462 
#    0.000    2.692    0.000    3.692    0.000    2.154 
#    0.000    0.000    0.000    0.000    0.000    0.000 
#
# Total GULP energy -644624.767973 kJ/mol
# GULP energy per Si atom -12396.630153 kJ/mol
# Density = 1.635689 g / cm^3
# Si number density = 16.394205 Si / 1000 Ang^3
#
#
#
# Elastic Constant Matrix: (Units=GPa)
#
#
# Indices 1 2 3 4 5 6 
#
# 1 52.2869 47.8746 40.9430 0.0000 0.0000 0.0000
# 2 47.8746 125.8338 69.5652 -0.0001 0.0000 0.0000
# 3 40.9430 69.5652 94.1413 -0.0001 0.0000 0.0000
# 4 0.0000 -0.0001 -0.0001 11.6737 0.0000 0.0000
# 5 0.0000 0.0000 0.0000 0.0000 21.1880 0.0000
# 6 0.0000 0.0000 0.0000 0.0000 0.0000 13.8107
#
#
#
# Elastic Compliance Matrix: (Units=1/GPa)
#
#
# Indices 1 2 3 4 5 6 
#
# 1 0.032993 -0.007811 -0.008577 0.000000 0.000000 0.000000
# 2 -0.007811 0.015285 -0.007898 0.000000 0.000000 0.000000
# 3 -0.008577 -0.007898 0.020189 0.000000 0.000000 0.000000
# 4 0.000000 0.000000 0.000000 0.085662 0.000000 0.000000
# 5 0.000000 0.000000 0.000000 0.000000 0.047197 0.000000
# 6 0.000000 0.000000 0.000000 0.000000 0.000000 0.072408
#
#
# Mechanical properties :
#
#
# Convention : Reuss Voigt Hill
#
# Bulk Modulus (GPa) = 50.26342 65.44751 57.85547
# Shear Modulus (GPa) = 15.20049 16.92642 16.06345
#
# Velocity S-wave (km/s) = 3.04828 3.21668 3.13361
# Velocity P-wave (km/s) = 6.56621 7.33511 6.96129
#
# Compressibility (1/GPa) = 0.01989518
#
# Stress axis : x y z
#
# Youngs Moduli (GPa) = 30.30909 65.42485 49.53277
#
# Poissons Ratio (x) = 0.51101 0.42487
# Poissons Ratio (y) = 0.23674 0.39119
# Poissons Ratio (z) = 0.25998 0.51670
#
# Static dielectric constant tensor:
#      x y z
#    x 2.877830 0.000000 0.000000 
#    y 0.000000 3.302430 0.000000 
#    z 0.000000 0.000000 3.054030 
# 
# 
# High freq. dielectric constant tensor:
#      x y z
#    x 1.605890 0.000000 0.000000 
#    y 0.000000 1.631110 0.000000 
#    z 0.000000 0.000000 1.611420 
# 
# From -- ./inp_files/63692.got.cif
#   From: 2010.06.25/outbox.cif.g09.slc.cpg/sg71_32_cif.got.tgz:63692.got - 2010.06.28 04:59:45.
