data_PCOD8287959
_publ_section_title
;
Structure prediction by ZEFSAII (Michael W. Deem and Ramdas Pophale) SiO2 
 PCOD8287959
Probable space group: I M M M
;
_chemical_formula_sum "Si O2"
_cell_formula_units_Z 104
_cell_length_a 18.894105
_cell_length_b 17.765918
_cell_length_c 17.082226
_cell_angle_alpha 90.000000
_cell_angle_beta 90.000000
_cell_angle_gamma 90.000000
_cell_volume 5734.009935
_symmetry_space_group_name_H-M "I M M M"
_symmetry_group_IT_number 71
_symmetry_cell_setting 'orthorhombic'
loop_
_space_group_symop_operation_xyz
x,y,z
-x,-y,z
x,-y,-z
-x,y,-z
-x,-y,-z
x,y,-z
-x,y,z
x,-y,z
1/2+x,1/2+y,1/2+z
1/2-x,1/2-y,1/2+z
1/2+x,1/2-y,1/2-z
1/2-x,1/2+y,1/2-z
1/2-x,1/2-y,1/2-z
1/2+x,1/2+y,1/2-z
1/2-x,1/2+y,1/2+z
1/2+x,1/2-y,1/2+z
loop_
_atom_site_type_symbol
_atom_site_label
_atom_site_fract_x
_atom_site_fract_y
_atom_site_fract_z
Si Si1 0.917505 0.278412 0.196537
Si Si2 0.421982 0.582750 0.091903
Si Si3 0.272759 0.585207 0.318471
Si Si4 0.825424 0.813115 0.317563
Si Si5 0.500000 0.089011 0.085796
Si Si6 0.390620 0.084032 0.790216
Si Si7 0.201194 0.773322 0.908361
O O1 0.879570 0.238590 0.269887
O O2 0.909602 0.367184 0.213614
O O3 0.875794 0.258934 0.116429
O O4 0.000000 0.254679 0.188230
O O5 0.500000 0.601191 0.126772
O O6 0.397826 0.500000 0.122755
O O7 0.366980 0.647445 0.112785
O O8 0.426835 0.580496 0.000000
O O9 0.302421 0.500000 0.329125
O O10 0.298032 0.619968 0.237007
O O11 0.189237 0.584628 0.316655
O O12 0.298399 0.637020 0.391112
O O13 0.760973 0.764864 0.353328
O O14 0.568283 0.116209 0.134029
O O15 0.500000 0.000000 0.075089
O O16 0.500000 0.127801 0.000000
O O17 0.416123 0.000000 0.769011
O O18 0.214125 0.757603 0.000000
#
# Coordination Sequence:
#
# PCOD8287959 Si02
#       7
#    16  16  16  16   8  16  16
#     4  11  21  37  58  80 108 148 194 233 281 340
#     4   9  18  32  50  75 108 142 175 218 277 337
#     4  10  20  36  58  81 106 140 183 230 279 334
#     4  11  19  36  55  83 106 141 183 236 277 336
#     4   9  18  30  46  74 111 143 176 219 271 331
#     4  10  18  32  54  79 108 146 185 226 274 329
#     4  11  23  38  56  82 117 149 185 237 289 342
#
# _framework density 18.137394
#
# number of rings (size 3 to 8) (size 9 to 14) (size 15 to 20)
#    0.000    1.769    3.846    2.769    0.000    1.231 
#    0.000    1.538    0.000    5.538    0.000    5.385 
#    0.000    0.000    0.000    0.000    0.000    0.000 
#
# Total GULP energy -644554.003199 kJ/mol
# GULP energy per Si atom -12395.269292 kJ/mol
# Density = 1.809611 g / cm^3
# Si number density = 18.137394 Si / 1000 Ang^3
#
#
#
# Elastic Constant Matrix: (Units=GPa)
#
#
# Indices 1 2 3 4 5 6 
#
# 1 103.5005 40.3970 32.9335 0.0000 0.0000 0.0000
# 2 40.3970 103.0302 34.3976 0.0000 0.0000 0.0000
# 3 32.9335 34.3976 74.7154 0.0000 0.0000 0.0000
# 4 0.0000 0.0000 0.0000 21.1090 0.0000 0.0000
# 5 0.0000 0.0000 0.0000 0.0000 24.1505 0.0000
# 6 0.0000 0.0000 0.0000 0.0000 0.0000 32.3962
#
#
#
# Elastic Compliance Matrix: (Units=1/GPa)
#
#
# Indices 1 2 3 4 5 6 
#
# 1 0.012243 -0.003543 -0.003765 0.000000 0.000000 0.000000
# 2 -0.003543 0.012494 -0.004190 0.000000 0.000000 0.000000
# 3 -0.003765 -0.004190 0.016973 0.000000 0.000000 0.000000
# 4 0.000000 0.000000 0.000000 0.047373 0.000000 0.000000
# 5 0.000000 0.000000 0.000000 0.000000 0.041407 0.000000
# 6 0.000000 0.000000 0.000000 0.000000 0.000000 0.030868
#
#
# Mechanical properties :
#
#
# Convention : Reuss Voigt Hill
#
# Bulk Modulus (GPa) = 53.44045 55.18914 54.31479
# Shear Modulus (GPa) = 26.23394 27.09900 26.66647
#
# Velocity S-wave (km/s) = 3.80728 3.86955 3.83854
# Velocity P-wave (km/s) = 6.98966 7.10345 7.04679
#
# Compressibility (1/GPa) = 0.01871242
#
# Stress axis : x y z
#
# Youngs Moduli (GPa) = 81.68053 80.03784 58.91743
#
# Poissons Ratio (x) = 0.28359 0.22184
# Poissons Ratio (y) = 0.28941 0.24688
# Poissons Ratio (z) = 0.30755 0.33538
#
# Static dielectric constant tensor:
#      x y z
#    x 3.496350 0.000000 0.000000 
#    y 0.000000 3.670930 0.000000 
#    z 0.000000 0.000000 3.155090 
# 
# 
# High freq. dielectric constant tensor:
#      x y z
#    x 1.707720 0.000000 0.000000 
#    y 0.000000 1.709160 0.000000 
#    z 0.000000 0.000000 1.676850 
# 
# From -- ./inp_files/46130.got.cif
#   From: 2010.06.25/outbox.cif.g09.slc.cpg/sg71_24_cif.got.tgz:46130.got - 2010.06.28 04:59:45.
