data_PCOD8287530
_publ_section_title
;
Structure prediction by ZEFSAII (Michael W. Deem and Ramdas Pophale) SiO2 
 PCOD8287530
Probable space group: I M M M
;
_chemical_formula_sum "Si O2"
_cell_formula_units_Z 72
_cell_length_a 9.612315
_cell_length_b 19.653775
_cell_length_c 20.438582
_cell_angle_alpha 90.000000
_cell_angle_beta 90.000000
_cell_angle_gamma 90.000000
_cell_volume 3861.221680
_symmetry_space_group_name_H-M "I M M M"
_symmetry_group_IT_number 71
_symmetry_cell_setting 'orthorhombic'
loop_
_space_group_symop_operation_xyz
x,y,z
-x,-y,z
x,-y,-z
-x,y,-z
-x,-y,-z
x,y,-z
-x,y,z
x,-y,z
1/2+x,1/2+y,1/2+z
1/2-x,1/2-y,1/2+z
1/2+x,1/2-y,1/2-z
1/2-x,1/2+y,1/2-z
1/2-x,1/2-y,1/2-z
1/2+x,1/2+y,1/2-z
1/2-x,1/2+y,1/2+z
1/2+x,1/2-y,1/2+z
loop_
_atom_site_type_symbol
_atom_site_label
_atom_site_fract_x
_atom_site_fract_y
_atom_site_fract_z
Si Si1 0.845912 0.500000 0.241555
Si Si2 0.662224 0.748327 0.183648
Si Si3 0.844097 0.399162 0.355496
Si Si4 0.164074 0.000000 0.617422
Si Si5 0.664980 0.646136 0.927914
Si Si6 0.653084 0.500000 0.576054
O O1 0.825001 0.432137 0.284171
O O2 0.726640 0.500000 0.188985
O O3 0.000000 0.500000 0.209585
O O4 0.500000 0.735509 0.201092
O O5 0.750000 0.750000 0.250000
O O6 0.683204 0.819420 0.147147
O O7 0.721680 0.692063 0.132309
O O8 0.734726 0.431876 0.404760
O O9 0.000000 0.414547 0.381147
O O10 0.213916 0.932171 0.579946
O O11 0.000000 0.000000 0.625975
O O12 0.500000 0.651230 0.926264
O O13 0.718311 0.670774 0.000000
O O14 0.500000 0.500000 0.609489
O O15 0.633932 0.500000 0.500000
#
# Coordination Sequence:
#
# PCOD8287530 Si02
#       6
#     8  16  16   8  16   8
#     4   9  17  30  47  69  98 127 158 201 251 302
#     4  10  20  34  54  79 106 138 176 218 263 310
#     4   9  19  34  51  73 101 135 173 211 256 312
#     4  10  18  29  50  75  97 127 167 209 252 295
#     4   9  18  32  50  74 102 132 170 213 253 297
#     4  10  21  35  52  76 103 132 169 216 270 322
#
# _framework density 18.646947999999998
#
# number of rings (size 3 to 8) (size 9 to 14) (size 15 to 20)
#    0.000    2.556    0.000    2.667    0.000    5.778 
#    0.000    2.222    0.000    3.333    0.000    0.000 
#    0.000    0.000    0.000    0.000    0.000    0.000 
#
# Total GULP energy -446234.138787 kJ/mol
# GULP energy per Si atom -12395.392744 kJ/mol
# Density = 1.860451 g / cm^3
# Si number density = 18.646948 Si / 1000 Ang^3
#
#
#
# Elastic Constant Matrix: (Units=GPa)
#
#
# Indices 1 2 3 4 5 6 
#
# 1 73.0404 37.6073 45.2489 0.0000 0.0000 0.0000
# 2 37.6073 122.7950 57.6712 0.0000 0.0000 0.0000
# 3 45.2489 57.6712 122.4602 0.0000 0.0000 0.0000
# 4 0.0000 0.0000 0.0000 8.7114 0.0000 0.0000
# 5 0.0000 0.0000 0.0000 0.0000 25.2746 0.0000
# 6 0.0000 0.0000 0.0000 0.0000 0.0000 3.7403
#
#
#
# Elastic Compliance Matrix: (Units=1/GPa)
#
#
# Indices 1 2 3 4 5 6 
#
# 1 0.018676 -0.003183 -0.005402 0.000000 0.000000 0.000000
# 2 -0.003183 0.010999 -0.004004 0.000000 0.000000 0.000000
# 3 -0.005402 -0.004004 0.012047 0.000000 0.000000 0.000000
# 4 0.000000 0.000000 0.000000 0.114792 0.000000 0.000000
# 5 0.000000 0.000000 0.000000 0.000000 0.039565 0.000000
# 6 0.000000 0.000000 0.000000 0.000000 0.000000 0.267359
#
#
# Mechanical properties :
#
#
# Convention : Reuss Voigt Hill
#
# Bulk Modulus (GPa) = 60.43895 66.59449 63.51672
# Shear Modulus (GPa) = 10.11876 19.39647 14.75761
#
# Velocity S-wave (km/s) = 2.33201 3.22870 2.81628
# Velocity P-wave (km/s) = 6.30346 7.04913 6.68670
#
# Compressibility (1/GPa) = 0.01654562
#
# Stress axis : x y z
#
# Youngs Moduli (GPa) = 53.54352 90.91931 83.00500
#
# Poissons Ratio (x) = 0.28937 0.44840
# Poissons Ratio (y) = 0.17042 0.33233
# Poissons Ratio (z) = 0.28924 0.36401
#
# Static dielectric constant tensor:
#      x y z
#    x 3.331540 0.000000 0.000000 
#    y 0.000000 3.895490 0.000000 
#    z 0.000000 0.000000 3.339320 
# 
# 
# High freq. dielectric constant tensor:
#      x y z
#    x 1.697350 0.000000 0.000000 
#    y 0.000000 1.734270 0.000000 
#    z 0.000000 0.000000 1.717750 
# 
# From -- ./inp_files/10004.got.cif
#   From: 2010.06.25/outbox.cif.g09.slc.cpg/sg71_6_cif.got.tgz:10004.got - 2010.06.28 04:59:45.
