data_PCOD8287984
_publ_section_title
;
Structure prediction by ZEFSAII (Michael W. Deem and Ramdas Pophale) SiO2 
 PCOD8287984
Probable space group: I M M M
;
_chemical_formula_sum "Si O2"
_cell_formula_units_Z 104
_cell_length_a 22.126398
_cell_length_b 8.860694
_cell_length_c 27.657512
_cell_angle_alpha 90.000000
_cell_angle_beta 90.000000
_cell_angle_gamma 90.000000
_cell_volume 5422.400208
_symmetry_space_group_name_H-M "I M M M"
_symmetry_group_IT_number 71
_symmetry_cell_setting 'orthorhombic'
loop_
_space_group_symop_operation_xyz
x,y,z
-x,-y,z
x,-y,-z
-x,y,-z
-x,-y,-z
x,y,-z
-x,y,z
x,-y,z
1/2+x,1/2+y,1/2+z
1/2-x,1/2-y,1/2+z
1/2+x,1/2-y,1/2-z
1/2-x,1/2+y,1/2-z
1/2-x,1/2-y,1/2-z
1/2+x,1/2+y,1/2-z
1/2-x,1/2+y,1/2+z
1/2+x,1/2-y,1/2+z
loop_
_atom_site_type_symbol
_atom_site_label
_atom_site_fract_x
_atom_site_fract_y
_atom_site_fract_z
Si Si1 0.433868 0.164605 0.443683
Si Si2 0.618198 0.820934 0.107662
Si Si3 0.760791 0.679249 0.555289
Si Si4 0.500000 0.179491 0.053526
Si Si5 0.930961 0.177788 0.698853
Si Si6 0.569226 0.177579 0.699498
Si Si7 0.149375 0.173110 0.118598
O O1 0.439554 0.179321 0.500000
O O2 0.500000 0.172320 0.419736
O O3 0.396468 0.307670 0.425793
O O4 0.405401 0.000000 0.429423
O O5 0.675060 0.765364 0.076094
O O6 0.559307 0.760531 0.080102
O O7 0.616415 0.746905 0.160636
O O8 0.619006 0.000000 0.113874
O O9 0.750863 0.742954 0.500000
O O10 0.757809 0.500000 0.552230
O O11 0.712229 0.734946 0.595607
O O12 0.500000 0.000000 0.051913
O O13 0.500000 0.247801 0.000000
O O14 0.913239 0.243133 0.750678
O O15 0.000000 0.224062 0.685598
O O16 0.922918 0.000000 0.700368
O O17 0.500000 0.222751 0.684371
O O18 0.620976 0.228385 0.661759
O O19 0.574102 0.000000 0.706507
O O20 0.154537 0.000000 0.135141
#
# Coordination Sequence:
#
# PCOD8287984 Si02
#       7
#    16  16  16   8  16  16  16
#     4   9  18  32  49  70  98 133 175 224 275 324
#     4  10  18  32  56  83 110 142 184 226 266 316
#     4   9  19  35  54  78 111 149 186 226 268 313
#     4   9  16  26  49  85 113 135 175 227 266 307
#     4  10  20  35  56  83 115 144 172 216 278 337
#     4  10  21  37  58  82 108 139 181 230 276 324
#     4  11  21  33  51  76 107 143 182 223 274 328
#
# _framework density 19.179698999999999
#
# number of rings (size 3 to 8) (size 9 to 14) (size 15 to 20)
#    0.000    2.231    0.769    3.231    0.000    6.462 
#    0.000    3.077    0.000    4.154    0.000    0.000 
#    0.000    0.000    0.000    0.000    0.000    0.000 
#
# Total GULP energy -644353.013557 kJ/mol
# GULP energy per Si atom -12391.404107 kJ/mol
# Density = 1.913605 g / cm^3
# Si number density = 19.179699 Si / 1000 Ang^3
#
#
#
# Elastic Constant Matrix: (Units=GPa)
#
#
# Indices 1 2 3 4 5 6 
#
# 1 113.5208 23.7253 70.1911 0.0000 0.0000 0.0000
# 2 23.7253 41.4439 27.2864 0.0000 0.0000 0.0000
# 3 70.1911 27.2864 121.9282 0.0000 0.0000 0.0000
# 4 0.0000 0.0000 0.0000 28.0026 0.0000 0.0000
# 5 0.0000 0.0000 0.0000 0.0000 37.0057 0.0000
# 6 0.0000 0.0000 0.0000 0.0000 0.0000 18.7015
#
#
#
# Elastic Compliance Matrix: (Units=1/GPa)
#
#
# Indices 1 2 3 4 5 6 
#
# 1 0.014026 -0.003182 -0.007362 0.000000 0.000000 0.000000
# 2 -0.003182 0.029021 -0.004663 0.000000 0.000000 0.000000
# 3 -0.007362 -0.004663 0.013483 0.000000 0.000000 0.000000
# 4 0.000000 0.000000 0.000000 0.035711 0.000000 0.000000
# 5 0.000000 0.000000 0.000000 0.000000 0.027023 0.000000
# 6 0.000000 0.000000 0.000000 0.000000 0.000000 0.053472
#
#
# Mechanical properties :
#
#
# Convention : Reuss Voigt Hill
#
# Bulk Modulus (GPa) = 38.29115 57.69981 47.99548
# Shear Modulus (GPa) = 23.60099 27.12130 25.36115
#
# Velocity S-wave (km/s) = 3.51168 3.76448 3.64028
# Velocity P-wave (km/s) = 6.03741 7.00316 6.53814
#
# Compressibility (1/GPa) = 0.02611570
#
# Stress axis : x y z
#
# Youngs Moduli (GPa) = 71.29458 34.45835 74.16535
#
# Poissons Ratio (x) = 0.10965 0.54604
# Poissons Ratio (y) = 0.22687 0.34580
# Poissons Ratio (z) = 0.52490 0.16067
#
# Static dielectric constant tensor:
#      x y z
#    x 3.647200 0.000000 0.000000 
#    y 0.000000 3.288540 0.000000 
#    z 0.000000 0.000000 3.623500 
# 
# 
# High freq. dielectric constant tensor:
#      x y z
#    x 1.733170 0.000000 0.000000 
#    y 0.000000 1.720730 0.000000 
#    z 0.000000 0.000000 1.756440 
# 
# From -- ./inp_files/66445.got.cif
#   From: 2010.06.25/outbox.cif.g09.slc.cpg/sg71_34_cif.got.tgz:66445.got - 2010.06.28 04:59:45.
