data_PCOD8287645
_publ_section_title
;
Structure prediction by ZEFSAII (Michael W. Deem and Ramdas Pophale) SiO2 
 PCOD8287645
Probable space group: I M M M
;
_chemical_formula_sum "Si O2"
_cell_formula_units_Z 80
_cell_length_a 25.277138
_cell_length_b 8.809734
_cell_length_c 20.755907
_cell_angle_alpha 90.000000
_cell_angle_beta 90.000000
_cell_angle_gamma 90.000000
_cell_volume 4622.026287
_symmetry_space_group_name_H-M "I M M M"
_symmetry_group_IT_number 71
_symmetry_cell_setting 'orthorhombic'
loop_
_space_group_symop_operation_xyz
x,y,z
-x,-y,z
x,-y,-z
-x,y,-z
-x,-y,-z
x,y,-z
-x,y,z
x,-y,z
1/2+x,1/2+y,1/2+z
1/2-x,1/2-y,1/2+z
1/2+x,1/2-y,1/2-z
1/2-x,1/2+y,1/2-z
1/2-x,1/2-y,1/2-z
1/2+x,1/2+y,1/2-z
1/2-x,1/2+y,1/2+z
1/2+x,1/2-y,1/2+z
loop_
_atom_site_type_symbol
_atom_site_label
_atom_site_fract_x
_atom_site_fract_y
_atom_site_fract_z
Si Si1 0.500000 0.175384 0.725187
Si Si2 0.614724 0.325977 0.133472
Si Si3 0.719257 0.679443 0.689964
Si Si4 0.885528 0.681036 0.227653
Si Si5 0.709334 0.175540 0.928118
Si Si6 0.500000 0.670605 0.855784
O O1 0.443182 0.239185 0.699608
O O2 0.500000 0.202331 0.801245
O O3 0.500000 0.000000 0.710198
O O4 0.627620 0.500000 0.149780
O O5 0.622386 0.231060 0.198695
O O6 0.654796 0.266570 0.079861
O O7 0.554738 0.308373 0.104571
O O8 0.717941 0.500000 0.698624
O O9 0.750000 0.750000 0.750000
O O10 0.659860 0.743607 0.684523
O O11 0.747473 0.729713 0.623781
O O12 0.880907 0.500000 0.224645
O O13 0.696098 0.000000 0.917852
O O14 0.731354 0.207277 0.000000
O O15 0.500000 0.500000 0.825025
#
# Coordination Sequence:
#
# PCOD8287645 Si02
#       6
#     8  16  16  16  16   8
#     4   8  16  28  44  69 100 131 160 195 242 291
#     4  10  18  30  49  71  97 129 167 207 248 291
#     4  11  21  33  52  76 101 129 165 208 252 297
#     4  10  18  30  49  74 103 132 163 201 245 295
#     4  10  22  38  52  68  96 133 169 206 250 298
#     4   8  16  28  43  67  96 126 161 205 248 286
#
# _framework density 17.308426000000001
#
# number of rings (size 3 to 8) (size 9 to 14) (size 15 to 20)
#    0.000    2.200    2.000    1.800    0.000    2.800 
#    0.000    0.500    0.000    3.000    0.000    0.700 
#    0.000    5.600    0.000    0.000    0.000    0.000 
#
# Total GULP energy -495596.427484 kJ/mol
# GULP energy per Si atom -12389.910687 kJ/mol
# Density = 1.726903 g / cm^3
# Si number density = 17.308426 Si / 1000 Ang^3
#
#
#
# Elastic Constant Matrix: (Units=GPa)
#
#
# Indices 1 2 3 4 5 6 
#
# 1 169.4692 44.9253 63.1125 0.0000 0.0000 0.0000
# 2 44.9253 57.1186 30.6654 0.0000 0.0000 0.0000
# 3 63.1125 30.6654 83.7172 0.0000 0.0000 0.0000
# 4 0.0000 0.0000 0.0000 16.9830 0.0000 0.0000
# 5 0.0000 0.0000 0.0000 0.0000 17.4264 0.0000
# 6 0.0000 0.0000 0.0000 0.0000 0.0000 28.4158
#
#
#
# Elastic Compliance Matrix: (Units=1/GPa)
#
#
# Indices 1 2 3 4 5 6 
#
# 1 0.008967 -0.004261 -0.005199 0.000000 0.000000 0.000000
# 2 -0.004261 0.023818 -0.005512 0.000000 0.000000 0.000000
# 3 -0.005199 -0.005512 0.017883 0.000000 0.000000 0.000000
# 4 0.000000 0.000000 0.000000 0.058882 0.000000 0.000000
# 5 0.000000 0.000000 0.000000 0.000000 0.057384 0.000000
# 6 0.000000 0.000000 0.000000 0.000000 0.000000 0.035192
#
#
# Mechanical properties :
#
#
# Convention : Reuss Voigt Hill
#
# Bulk Modulus (GPa) = 48.25366 65.30127 56.77747
# Shear Modulus (GPa) = 20.92236 24.00515 22.46376
#
# Velocity S-wave (km/s) = 3.48055 3.72816 3.60648
# Velocity P-wave (km/s) = 6.64014 7.50614 7.08638
#
# Compressibility (1/GPa) = 0.02072382
#
# Stress axis : x y z
#
# Youngs Moduli (GPa) = 111.52612 41.98442 55.91833
#
# Poissons Ratio (x) = 0.17891 0.29070
# Poissons Ratio (y) = 0.47525 0.30823
# Poissons Ratio (z) = 0.57979 0.23142
#
# Static dielectric constant tensor:
#      x y z
#    x 3.874690 0.000000 0.000000 
#    y 0.000000 3.281940 0.000000 
#    z 0.000000 0.000000 2.814280 
# 
# 
# High freq. dielectric constant tensor:
#      x y z
#    x 1.690960 0.000000 0.000000 
#    y 0.000000 1.676570 0.000000 
#    z 0.000000 0.000000 1.605690 
# 
# From -- ./inp_files/10237.got.cif
#   From: 2010.06.25/outbox.cif.g09.slc.cpg/sg71_6_cif.got.tgz:10237.got - 2010.06.28 04:59:45.
