data_PCOD8287650
_publ_section_title
;
Structure prediction by ZEFSAII (Michael W. Deem and Ramdas Pophale) SiO2 
 PCOD8287650
Probable space group: I M M M
;
_chemical_formula_sum "Si O2"
_cell_formula_units_Z 72
_cell_length_a 29.205292
_cell_length_b 8.735956
_cell_length_c 15.757442
_cell_angle_alpha 90.000000
_cell_angle_beta 90.000000
_cell_angle_gamma 90.000000
_cell_volume 4020.293021
_symmetry_space_group_name_H-M "I M M M"
_symmetry_group_IT_number 71
_symmetry_cell_setting 'orthorhombic'
loop_
_space_group_symop_operation_xyz
x,y,z
-x,-y,z
x,-y,-z
-x,y,-z
-x,-y,-z
x,y,-z
-x,y,z
x,-y,z
1/2+x,1/2+y,1/2+z
1/2-x,1/2-y,1/2+z
1/2+x,1/2-y,1/2-z
1/2-x,1/2+y,1/2-z
1/2-x,1/2-y,1/2-z
1/2+x,1/2+y,1/2-z
1/2-x,1/2+y,1/2+z
1/2+x,1/2-y,1/2+z
loop_
_atom_site_type_symbol
_atom_site_label
_atom_site_fract_x
_atom_site_fract_y
_atom_site_fract_z
Si Si1 0.551869 0.318068 0.672320
Si Si2 0.054406 0.672494 0.000000
Si Si3 0.375628 0.323812 0.000000
Si Si4 0.779238 0.818155 0.325480
Si Si5 0.279891 0.821357 0.000000
Si Si6 0.616499 0.322881 0.817085
O O1 0.500000 0.258863 0.686299
O O2 0.552750 0.500000 0.670435
O O3 0.572763 0.257372 0.583901
O O4 0.582847 0.246194 0.748109
O O5 0.072969 0.500000 0.000000
O O6 0.000000 0.679578 0.000000
O O7 0.334012 0.206407 0.000000
O O8 0.404004 0.296436 0.087132
O O9 0.356384 0.500000 0.000000
O O10 0.750000 0.750000 0.250000
O O11 0.759148 0.754959 0.414696
O O12 0.831627 0.759949 0.312728
O O13 0.776001 0.000000 0.325887
O O14 0.268285 0.000000 0.000000
O O15 0.617799 0.500000 0.794443
#
# Coordination Sequence:
#
# PCOD8287650 Si02
#       6
#    16   8   8  16   8  16
#     4   9  16  28  47  69  91 118 153 187 221 269
#     4   9  17  29  44  63  88 119 153 188 228 270
#     4   8  14  28  47  65  91 126 157 184 222 272
#     4  10  19  33  51  71  96 125 158 195 236 280
#     4  10  18  30  49  72  95 123 160 195 232 279
#     4   8  15  28  47  69  93 121 150 185 228 270
#
# _framework density 17.909141999999999
#
# number of rings (size 3 to 8) (size 9 to 14) (size 15 to 20)
#    0.000    3.000    0.000    3.333    0.000    1.333 
#    0.000    7.222    0.000    6.000    0.000    0.000 
#    0.000   17.778    0.000    0.000    0.000    0.000 
#
# Total GULP energy -446061.423397 kJ/mol
# GULP energy per Si atom -12390.595094 kJ/mol
# Density = 1.786838 g / cm^3
# Si number density = 17.909142 Si / 1000 Ang^3
#
#
#
# Elastic Constant Matrix: (Units=GPa)
#
#
# Indices 1 2 3 4 5 6 
#
# 1 56.6430 19.9967 71.1240 0.0000 0.0000 0.0000
# 2 19.9967 57.9898 41.1666 0.0000 0.0000 0.0000
# 3 71.1240 41.1666 212.7964 0.0000 0.0000 0.0000
# 4 0.0000 0.0000 0.0000 22.8911 0.0000 0.0000
# 5 0.0000 0.0000 0.0000 0.0000 34.3185 0.0000
# 6 0.0000 0.0000 0.0000 0.0000 0.0000 12.9312
#
#
#
# Elastic Compliance Matrix: (Units=1/GPa)
#
#
# Indices 1 2 3 4 5 6 
#
# 1 0.031159 -0.003885 -0.009663 0.000000 0.000000 0.000000
# 2 -0.003885 0.020474 -0.002662 0.000000 0.000000 0.000000
# 3 -0.009663 -0.002662 0.008444 0.000000 0.000000 0.000000
# 4 0.000000 0.000000 0.000000 0.043685 0.000000 0.000000
# 5 0.000000 0.000000 0.000000 0.000000 0.029139 0.000000
# 6 0.000000 0.000000 0.000000 0.000000 0.000000 0.077333
#
#
# Mechanical properties :
#
#
# Convention : Reuss Voigt Hill
#
# Bulk Modulus (GPa) = 36.15746 65.77821 50.96783
# Shear Modulus (GPa) = 19.85125 27.03760 23.44443
#
# Velocity S-wave (km/s) = 3.33294 3.88971 3.62204
# Velocity P-wave (km/s) = 5.91984 7.54863 6.78330
#
# Compressibility (1/GPa) = 0.02765681
#
# Stress axis : x y z
#
# Youngs Moduli (GPa) = 32.09320 48.84229 118.42654
#
# Poissons Ratio (x) = 0.18975 1.14435
# Poissons Ratio (y) = 0.12468 0.31529
# Poissons Ratio (z) = 0.31011 0.13003
#
# Static dielectric constant tensor:
#      x y z
#    x 3.124790 0.000000 0.000000 
#    y 0.000000 3.073800 0.000000 
#    z 0.000000 0.000000 4.046050 
# 
# 
# High freq. dielectric constant tensor:
#      x y z
#    x 1.642750 0.000000 0.000000 
#    y 0.000000 1.671950 0.000000 
#    z 0.000000 0.000000 1.719840 
# 
# From -- ./inp_files/31719.got.cif
#   From: 2010.06.25/outbox.cif.g09.slc.cpg/sg71_16_cif.got.tgz:31719.got - 2010.06.28 04:59:45.
