data_PCOD8287127
_publ_section_title
;
Structure prediction by ZEFSAII (Michael W. Deem and Ramdas Pophale) SiO2 
 PCOD8287127
Probable space group: I M M M
;
_chemical_formula_sum "Si O2"
_cell_formula_units_Z 104
_cell_length_a 27.884370
_cell_length_b 9.183673
_cell_length_c 21.622074
_cell_angle_alpha 90.000000
_cell_angle_beta 90.000000
_cell_angle_gamma 90.000000
_cell_volume 5537.000946
_symmetry_space_group_name_H-M "I M M M"
_symmetry_group_IT_number 71
_symmetry_cell_setting 'orthorhombic'
loop_
_space_group_symop_operation_xyz
x,y,z
-x,-y,z
x,-y,-z
-x,y,-z
-x,-y,-z
x,y,-z
-x,y,z
x,-y,z
1/2+x,1/2+y,1/2+z
1/2-x,1/2-y,1/2+z
1/2+x,1/2-y,1/2-z
1/2-x,1/2+y,1/2-z
1/2-x,1/2-y,1/2-z
1/2+x,1/2+y,1/2-z
1/2-x,1/2+y,1/2+z
1/2+x,1/2-y,1/2+z
loop_
_atom_site_type_symbol
_atom_site_label
_atom_site_fract_x
_atom_site_fract_y
_atom_site_fract_z
Si Si1 0.357198 0.328816 0.205203
Si Si2 0.225750 0.332676 0.633438
Si Si3 0.000000 0.835500 0.073523
Si Si4 0.166209 0.829813 0.156716
Si Si5 0.447100 0.673207 0.129258
Si Si6 0.191101 0.334407 0.500000
Si Si7 0.407256 0.327370 0.000000
Si Si8 0.906141 0.331292 0.072766
O O1 0.352841 0.500000 0.195205
O O2 0.312992 0.261216 0.169110
O O3 0.355856 0.287625 0.277086
O O4 0.407459 0.268547 0.177691
O O5 0.215349 0.500000 0.649303
O O6 0.278087 0.286207 0.656836
O O7 0.223520 0.303609 0.560006
O O8 0.046929 0.752297 0.098042
O O9 0.000000 0.000000 0.099917
O O10 0.000000 0.835982 0.000000
O O11 0.140371 0.735280 0.104794
O O12 0.159396 0.000000 0.141267
O O13 0.500000 0.732048 0.147848
O O14 0.447222 0.500000 0.129272
O O15 0.434577 0.731096 0.060651
O O16 0.171903 0.500000 0.500000
O O17 0.146708 0.227030 0.500000
O O18 0.405283 0.500000 0.000000
O O19 0.911651 0.500000 0.089875
O O20 0.899877 0.308382 0.000000
#
# Coordination Sequence:
#
# PCOD8287127 Si02
#       8
#    16  16   8  16  16   8   8  16
#     4  10  20  36  56  80 108 141 186 230 271 328
#     4  10  21  36  55  77 107 146 184 226 279 335
#     4   9  17  33  59  85 109 143 181 220 271 330
#     4  10  22  37  55  82 111 145 187 226 273 336
#     4   9  17  30  51  79 109 139 174 222 275 323
#     4  10  20  33  51  77 106 141 181 224 279 334
#     4  10  17  30  54  80 104 138 181 225 273 328
#     4  10  21  37  57  83 113 144 181 229 281 331
#
# _framework density 18.782730999999998
#
# number of rings (size 3 to 8) (size 9 to 14) (size 15 to 20)
#    0.000    2.231    1.538    1.385    1.077    4.000 
#    1.385    0.000    0.000    2.308    0.000    0.000 
#    0.000    0.000    0.000    0.000    0.000    0.000 
#
# Total GULP energy -644866.611129 kJ/mol
# GULP energy per Si atom -12401.280983 kJ/mol
# Density = 1.873998 g / cm^3
# Si number density = 18.782731 Si / 1000 Ang^3
#
#
#
# Elastic Constant Matrix: (Units=GPa)
#
#
# Indices 1 2 3 4 5 6 
#
# 1 153.3890 44.1001 66.6333 0.0000 0.0000 0.0000
# 2 44.1001 57.2545 40.5589 0.0000 0.0000 0.0000
# 3 66.6333 40.5589 85.4622 0.0000 0.0000 0.0000
# 4 0.0000 0.0000 0.0000 20.5582 0.0000 0.0000
# 5 0.0000 0.0000 0.0000 0.0000 17.4688 0.0000
# 6 0.0000 0.0000 0.0000 0.0000 0.0000 31.9878
#
#
#
# Elastic Compliance Matrix: (Units=1/GPa)
#
#
# Indices 1 2 3 4 5 6 
#
# 1 0.010273 -0.003373 -0.006409 0.000000 0.000000 0.000000
# 2 -0.003373 0.027419 -0.010383 0.000000 0.000000 0.000000
# 3 -0.006409 -0.010383 0.021626 0.000000 0.000000 0.000000
# 4 0.000000 0.000000 0.000000 0.048642 0.000000 0.000000
# 5 0.000000 0.000000 0.000000 0.000000 0.057245 0.000000
# 6 0.000000 0.000000 0.000000 0.000000 0.000000 0.031262
#
#
# Mechanical properties :
#
#
# Convention : Reuss Voigt Hill
#
# Bulk Modulus (GPa) = 52.66414 66.52115 59.59265
# Shear Modulus (GPa) = 20.56544 23.65719 22.11131
#
# Velocity S-wave (km/s) = 3.31254 3.55282 3.43478
# Velocity P-wave (km/s) = 6.53682 7.23347 6.89395
#
# Compressibility (1/GPa) = 0.01898825
#
# Stress axis : x y z
#
# Youngs Moduli (GPa) = 97.34014 36.47122 46.24097
#
# Poissons Ratio (x) = 0.12300 0.29637
# Poissons Ratio (y) = 0.32829 0.48012
# Poissons Ratio (z) = 0.62388 0.37868
#
# Static dielectric constant tensor:
#      x y z
#    x 3.614620 0.000000 0.000000 
#    y 0.000000 3.290210 0.000000 
#    z 0.000000 0.000000 3.531520 
# 
# 
# High freq. dielectric constant tensor:
#      x y z
#    x 1.738900 0.000000 0.000000 
#    y 0.000000 1.708610 0.000000 
#    z 0.000000 0.000000 1.726690 
# 
# From -- ./inp_files/56324.got.cif
#   From: 2010.06.25/outbox.cif.g09.slc.cpg/sg71_29_cif.got.tgz:56324.got - 2010.06.28 04:59:45.
