data_PCOD8287824
_publ_section_title
;
Structure prediction by ZEFSAII (Michael W. Deem and Ramdas Pophale) SiO2 
 PCOD8287824
Probable space group: I M M M
;
_chemical_formula_sum "Si O2"
_cell_formula_units_Z 104
_cell_length_a 27.392345
_cell_length_b 21.952469
_cell_length_c 9.310610
_cell_angle_alpha 90.000000
_cell_angle_beta 90.000000
_cell_angle_gamma 90.000000
_cell_volume 5598.745428
_symmetry_space_group_name_H-M "I M M M"
_symmetry_group_IT_number 71
_symmetry_cell_setting 'orthorhombic'
loop_
_space_group_symop_operation_xyz
x,y,z
-x,-y,z
x,-y,-z
-x,y,-z
-x,-y,-z
x,y,-z
-x,y,z
x,-y,z
1/2+x,1/2+y,1/2+z
1/2-x,1/2-y,1/2+z
1/2+x,1/2-y,1/2-z
1/2-x,1/2+y,1/2-z
1/2-x,1/2-y,1/2-z
1/2+x,1/2+y,1/2-z
1/2-x,1/2+y,1/2+z
1/2+x,1/2-y,1/2+z
loop_
_atom_site_type_symbol
_atom_site_label
_atom_site_fract_x
_atom_site_fract_y
_atom_site_fract_z
Si Si1 0.352992 0.429170 0.330327
Si Si2 0.285891 0.338969 0.833132
Si Si3 0.420755 0.781721 0.337785
Si Si4 0.310706 0.777587 0.660617
Si Si5 0.554652 0.890898 0.156249
Si Si6 0.445505 0.645822 0.330132
Si Si7 0.941522 0.500000 0.159865
O O1 0.347464 0.418490 0.500000
O O2 0.351651 0.500000 0.289616
O O3 0.307608 0.396216 0.252936
O O4 0.404814 0.401902 0.273857
O O5 0.308242 0.275961 0.776449
O O6 0.227310 0.332693 0.807769
O O7 0.299155 0.346997 0.000000
O O8 0.441304 0.788043 0.500000
O O9 0.364869 0.803812 0.331436
O O10 0.449285 0.825441 0.231351
O O11 0.428427 0.712972 0.282410
O O12 0.300480 0.750960 0.500000
O O13 0.500000 0.913846 0.130118
O O14 0.580094 0.940782 0.258477
O O15 0.581120 0.886700 0.000000
O O16 0.447575 0.641602 0.500000
O O17 0.500000 0.631220 0.268006
O O18 0.000000 0.500000 0.150796
O O19 0.919409 0.500000 0.000000
#
# Coordination Sequence:
#
# PCOD8287824 Si02
#       7
#    16  16  16  16  16  16   8
#     4  10  20  35  55  77 106 145 186 228 272 321
#     4  10  19  32  54  81 106 131 165 212 264 316
#     4  10  18  31  52  75 103 136 175 217 260 317
#     4   9  18  33  54  79 105 132 165 209 261 314
#     4  10  20  32  47  71 104 136 167 209 260 311
#     4   9  17  30  50  77 107 139 179 229 274 310
#     4   9  17  31  51  71  91 125 175 215 245 295
#
# _framework density 18.575589000000001
#
# number of rings (size 3 to 8) (size 9 to 14) (size 15 to 20)
#    0.000    2.385    1.538    1.615    0.000    4.308 
#    0.000    1.538    1.692    0.462    0.000    1.077 
#    0.000    0.000    0.000    0.000    0.000    0.000 
#
# Total GULP energy -644473.597608 kJ/mol
# GULP energy per Si atom -12393.723031 kJ/mol
# Density = 1.853331 g / cm^3
# Si number density = 18.575589 Si / 1000 Ang^3
#
#
#
# Elastic Constant Matrix: (Units=GPa)
#
#
# Indices 1 2 3 4 5 6 
#
# 1 87.4681 41.3836 23.5327 0.0000 0.0000 0.0000
# 2 41.3836 131.5661 57.3856 0.0000 0.0000 0.0000
# 3 23.5327 57.3856 94.1968 0.0000 0.0000 0.0000
# 4 0.0000 0.0000 0.0000 24.5610 0.0000 0.0000
# 5 0.0000 0.0000 0.0000 0.0000 20.0135 0.0000
# 6 0.0000 0.0000 0.0000 0.0000 0.0000 26.5200
#
#
#
# Elastic Compliance Matrix: (Units=1/GPa)
#
#
# Indices 1 2 3 4 5 6 
#
# 1 0.013510 -0.003783 -0.001071 0.000000 0.000000 0.000000
# 2 -0.003783 0.011410 -0.006006 0.000000 0.000000 0.000000
# 3 -0.001071 -0.006006 0.014543 0.000000 0.000000 0.000000
# 4 0.000000 0.000000 0.000000 0.040715 0.000000 0.000000
# 5 0.000000 0.000000 0.000000 0.000000 0.049966 0.000000
# 6 0.000000 0.000000 0.000000 0.000000 0.000000 0.037707
#
#
# Mechanical properties :
#
#
# Convention : Reuss Voigt Hill
#
# Bulk Modulus (GPa) = 56.35706 61.98166 59.16936
# Shear Modulus (GPa) = 25.57722 26.94750 26.26236
#
# Velocity S-wave (km/s) = 3.71472 3.81293 3.76415
# Velocity P-wave (km/s) = 6.98599 7.26803 7.12841
#
# Compressibility (1/GPa) = 0.01774400
#
# Stress axis : x y z
#
# Youngs Moduli (GPa) = 74.01654 87.63994 68.76310
#
# Poissons Ratio (x) = 0.33151 0.07364
# Poissons Ratio (y) = 0.27997 0.41301
# Poissons Ratio (z) = 0.07926 0.52639
#
# Static dielectric constant tensor:
#      x y z
#    x 3.493450 0.000000 0.000000 
#    y 0.000000 3.240110 0.000000 
#    z 0.000000 0.000000 3.430500 
# 
# 
# High freq. dielectric constant tensor:
#      x y z
#    x 1.705690 0.000000 0.000000 
#    y 0.000000 1.705060 0.000000 
#    z 0.000000 0.000000 1.709590 
# 
# From -- ./inp_files/17012.got.cif
#   From: 2010.06.25/outbox.cif.g09.slc.cpg/sg71_9_cif.got.tgz:17012.got - 2010.06.28 04:59:45.
