data_PCOD8287443
_publ_section_title
;
Structure prediction by ZEFSAII (Michael W. Deem and Ramdas Pophale) SiO2 
 PCOD8287443
Probable space group: I M M M
;
_chemical_formula_sum "Si O2"
_cell_formula_units_Z 112
_cell_length_a 11.384490
_cell_length_b 25.851939
_cell_length_c 22.638920
_cell_angle_alpha 90.000000
_cell_angle_beta 90.000000
_cell_angle_gamma 90.000000
_cell_volume 6662.886377
_symmetry_space_group_name_H-M "I M M M"
_symmetry_group_IT_number 71
_symmetry_cell_setting 'orthorhombic'
loop_
_space_group_symop_operation_xyz
x,y,z
-x,-y,z
x,-y,-z
-x,y,-z
-x,-y,-z
x,y,-z
-x,y,z
x,-y,z
1/2+x,1/2+y,1/2+z
1/2-x,1/2-y,1/2+z
1/2+x,1/2-y,1/2-z
1/2-x,1/2+y,1/2-z
1/2-x,1/2-y,1/2-z
1/2+x,1/2+y,1/2-z
1/2-x,1/2+y,1/2+z
1/2+x,1/2-y,1/2+z
loop_
_atom_site_type_symbol
_atom_site_label
_atom_site_fract_x
_atom_site_fract_y
_atom_site_fract_z
Si Si1 0.300633 0.863592 0.850769
Si Si2 0.370147 0.133224 0.656103
Si Si3 0.000000 0.760277 0.567144
Si Si4 0.362621 0.694386 0.566160
Si Si5 0.256999 0.699362 0.930901
Si Si6 0.138708 0.440192 0.744081
Si Si7 0.000000 0.362640 0.433812
Si Si8 0.869035 0.283066 0.742655
O O1 0.182913 0.845361 0.884126
O O2 0.281529 0.910532 0.804630
O O3 0.385875 0.884720 0.901636
O O4 0.359602 0.815058 0.817786
O O5 0.500000 0.124596 0.629518
O O6 0.283922 0.147353 0.602324
O O7 0.328895 0.081451 0.690717
O O8 0.370973 0.179650 0.702032
O O9 0.882964 0.783988 0.596487
O O10 0.000000 0.778791 0.500000
O O11 0.000000 0.699048 0.569514
O O12 0.311004 0.682247 0.500000
O O13 0.500000 0.688036 0.565699
O O14 0.331327 0.753365 0.582530
O O15 0.261918 0.686565 0.000000
O O16 0.171753 0.500000 0.741737
O O17 0.000000 0.429930 0.731476
O O18 0.000000 0.383737 0.500000
O O19 0.750000 0.250000 0.750000
O O20 0.000000 0.254596 0.740462
#
# Coordination Sequence:
#
# PCOD8287443 Si02
#       8
#    16  16   8  16  16  16   8  16
#     4  11  18  31  50  71  94 126 167 203 243 294
#     4   9  18  31  46  68  96 126 159 196 241 293
#     4   9  18  28  42  67 101 139 165 187 228 277
#     4  10  20  31  46  71 104 141 170 192 228 288
#     4  10  18  29  46  70 102 136 165 194 229 280
#     4   9  18  34  55  74  92 119 156 204 260 305
#     4  11  18  28  47  72 101 131 161 197 240 284
#     4  10  20  31  43  65  99 133 165 203 244 289
#
# _framework density 16.809531
#
# number of rings (size 3 to 8) (size 9 to 14) (size 15 to 20)
#    0.000    2.143    2.857    2.571    0.000    2.571 
#    0.000    0.000    1.571    3.000    0.000    3.000 
#    0.000    1.714    0.000    0.000    0.000    0.000 
#
# Total GULP energy -693922.860572 kJ/mol
# GULP energy per Si atom -12391.479653 kJ/mol
# Density = 1.677127 g / cm^3
# Si number density = 16.809531 Si / 1000 Ang^3
#
#
#
# Elastic Constant Matrix: (Units=GPa)
#
#
# Indices 1 2 3 4 5 6 
#
# 1 75.0027 27.6580 25.6992 0.0000 0.0000 0.0000
# 2 27.6580 77.1739 34.3084 0.0000 0.0000 0.0000
# 3 25.6992 34.3084 67.6092 0.0000 0.0000 0.0000
# 4 0.0000 0.0000 0.0000 19.1349 0.0000 0.0000
# 5 0.0000 0.0000 0.0000 0.0000 5.5057 0.0000
# 6 0.0000 0.0000 0.0000 0.0000 0.0000 14.2070
#
#
#
# Elastic Compliance Matrix: (Units=1/GPa)
#
#
# Indices 1 2 3 4 5 6 
#
# 1 0.016218 -0.003967 -0.004152 0.000000 0.000000 0.000000
# 2 -0.003967 0.017703 -0.007475 0.000000 0.000000 0.000000
# 3 -0.004152 -0.007475 0.020162 0.000000 0.000000 0.000000
# 4 0.000000 0.000000 0.000000 0.052261 0.000000 0.000000
# 5 0.000000 0.000000 0.000000 0.000000 0.181631 0.000000
# 6 0.000000 0.000000 0.000000 0.000000 0.000000 0.070388
#
#
# Mechanical properties :
#
#
# Convention : Reuss Voigt Hill
#
# Bulk Modulus (GPa) = 43.67690 43.90189 43.78939
# Shear Modulus (GPa) = 12.58868 16.57753 14.58310
#
# Velocity S-wave (km/s) = 2.73957 3.14379 2.94862
# Velocity P-wave (km/s) = 6.00390 6.27310 6.13998
#
# Compressibility (1/GPa) = 0.02289540
#
# Stress axis : x y z
#
# Youngs Moduli (GPa) = 61.65915 56.48891 49.59707
#
# Poissons Ratio (x) = 0.22407 0.20592
# Poissons Ratio (y) = 0.24458 0.37076
# Poissons Ratio (z) = 0.25600 0.42228
#
# Static dielectric constant tensor:
#      x y z
#    x 4.134730 0.000000 0.000000 
#    y 0.000000 2.810920 0.000000 
#    z 0.000000 0.000000 3.560820 
# 
# 
# High freq. dielectric constant tensor:
#      x y z
#    x 1.640060 0.000000 0.000000 
#    y 0.000000 1.592080 0.000000 
#    z 0.000000 0.000000 1.659590 
# 
# From -- ./inp_files/59159.got.cif
#   From: 2010.06.25/outbox.cif.g09.slc.cpg/sg71_30_cif.got.tgz:59159.got - 2010.06.28 04:59:45.
