data_PCOD8287368
_publ_section_title
;
Structure prediction by ZEFSAII (Michael W. Deem and Ramdas Pophale) SiO2 
 PCOD8287368
Probable space group: I M M M
;
_chemical_formula_sum "Si O2"
_cell_formula_units_Z 88
_cell_length_a 22.462464
_cell_length_b 9.269166
_cell_length_c 22.543154
_cell_angle_alpha 90.000000
_cell_angle_beta 90.000000
_cell_angle_gamma 90.000000
_cell_volume 4693.671942
_symmetry_space_group_name_H-M "I M M M"
_symmetry_group_IT_number 71
_symmetry_cell_setting 'orthorhombic'
loop_
_space_group_symop_operation_xyz
x,y,z
-x,-y,z
x,-y,-z
-x,y,-z
-x,-y,-z
x,y,-z
-x,y,z
x,-y,z
1/2+x,1/2+y,1/2+z
1/2-x,1/2-y,1/2+z
1/2+x,1/2-y,1/2-z
1/2-x,1/2+y,1/2-z
1/2-x,1/2-y,1/2-z
1/2+x,1/2+y,1/2-z
1/2-x,1/2+y,1/2+z
1/2+x,1/2-y,1/2+z
loop_
_atom_site_type_symbol
_atom_site_label
_atom_site_fract_x
_atom_site_fract_y
_atom_site_fract_z
Si Si1 0.279418 0.169355 0.000000
Si Si2 0.213352 0.835753 0.388590
Si Si3 0.588135 0.666668 0.154241
Si Si4 0.500000 0.171861 0.929648
Si Si5 0.565877 0.666916 0.285409
Si Si6 0.338869 0.163359 0.500000
Si Si7 0.652198 0.164150 0.630038
O O1 0.309666 0.235822 0.057950
O O2 0.210850 0.214867 0.000000
O O3 0.287683 0.000000 0.000000
O O4 0.160158 0.819173 0.341634
O O5 0.278352 0.786401 0.364849
O O6 0.219708 0.000000 0.411071
O O7 0.569517 0.500000 0.143762
O O8 0.558487 0.761004 0.102002
O O9 0.566175 0.724285 0.217884
O O10 0.500000 0.000000 0.920794
O O11 0.500000 0.210270 0.000000
O O12 0.500000 0.694644 0.311815
O O13 0.582751 0.500000 0.285166
O O14 0.614168 0.742182 0.325837
O O15 0.373778 0.184028 0.437655
O O16 0.311780 0.000000 0.500000
O O17 0.645660 0.000000 0.650687
#
# Coordination Sequence:
#
# PCOD8287368 Si02
#       7
#     8  16  16   8  16   8  16
#     4  10  18  28  48  78 114 146 176 218 277 333
#     4   9  19  35  55  80 109 145 188 230 270 329
#     4  10  21  40  62  80 106 152 199 228 266 335
#     4  11  25  41  57  85 123 150 181 242 291 315
#     4  10  21  38  57  79 109 145 188 234 276 326
#     4   8  16  34  55  77 111 146 180 221 262 325
#     4   9  18  34  57  84 112 143 181 227 280 331
#
# _framework density 18.748646999999998
#
# number of rings (size 3 to 8) (size 9 to 14) (size 15 to 20)
#    0.000    2.455    0.909    2.182    1.273    6.182 
#    0.000    0.455    0.000    2.727    0.000    0.000 
#    0.000    0.000    0.000    0.000    0.000    0.000 
#
# Total GULP energy -545161.724961 kJ/mol
# GULP energy per Si atom -12390.039204 kJ/mol
# Density = 1.870597 g / cm^3
# Si number density = 18.748647 Si / 1000 Ang^3
#
#
#
# Elastic Constant Matrix: (Units=GPa)
#
#
# Indices 1 2 3 4 5 6 
#
# 1 114.3743 43.6684 66.0406 0.0000 0.0000 0.0000
# 2 43.6684 71.3343 46.0480 0.0000 0.0000 0.0000
# 3 66.0406 46.0480 114.4149 0.0000 0.0000 0.0000
# 4 0.0000 0.0000 0.0000 32.3021 0.0000 0.0000
# 5 0.0000 0.0000 0.0000 0.0000 32.6654 0.0000
# 6 0.0000 0.0000 0.0000 0.0000 0.0000 28.2018
#
#
#
# Elastic Compliance Matrix: (Units=1/GPa)
#
#
# Indices 1 2 3 4 5 6 
#
# 1 0.014139 -0.004576 -0.006320 0.000000 0.000000 0.000000
# 2 -0.004576 0.020420 -0.005577 0.000000 0.000000 0.000000
# 3 -0.006320 -0.005577 0.014632 0.000000 0.000000 0.000000
# 4 0.000000 0.000000 0.000000 0.030958 0.000000 0.000000
# 5 0.000000 0.000000 0.000000 0.000000 0.030613 0.000000
# 6 0.000000 0.000000 0.000000 0.000000 0.000000 0.035459
#
#
# Mechanical properties :
#
#
# Convention : Reuss Voigt Hill
#
# Bulk Modulus (GPa) = 61.55253 67.95973 64.75613
# Shear Modulus (GPa) = 27.08819 28.25829 27.67324
#
# Velocity S-wave (km/s) = 3.80519 3.88650 3.84606
# Velocity P-wave (km/s) = 7.22548 7.51441 7.37136
#
# Compressibility (1/GPa) = 0.01624629
#
# Stress axis : x y z
#
# Youngs Moduli (GPa) = 70.72441 48.97171 68.34204
#
# Poissons Ratio (x) = 0.22411 0.43189
# Poissons Ratio (y) = 0.32365 0.38114
# Poissons Ratio (z) = 0.44694 0.27311
#
# Static dielectric constant tensor:
#      x y z
#    x 3.321300 0.000000 0.000000 
#    y 0.000000 3.296880 0.000000 
#    z 0.000000 0.000000 3.518360 
# 
# 
# High freq. dielectric constant tensor:
#      x y z
#    x 1.719030 0.000000 0.000000 
#    y 0.000000 1.717270 0.000000 
#    z 0.000000 0.000000 1.724580 
# 
# From -- ./inp_files/55597.got.cif
#   From: 2010.06.25/outbox.cif.g09.slc.cpg/sg71_28_cif.got.tgz:55597.got - 2010.06.28 04:59:45.
