data_PCOD8287674
_publ_section_title
;
Structure prediction by ZEFSAII (Michael W. Deem and Ramdas Pophale) SiO2 
 PCOD8287674
Probable space group: I M M M
;
_chemical_formula_sum "Si O2"
_cell_formula_units_Z 96
_cell_length_a 23.877973
_cell_length_b 18.730512
_cell_length_c 12.536936
_cell_angle_alpha 90.000000
_cell_angle_beta 90.000000
_cell_angle_gamma 90.000000
_cell_volume 5607.102750
_symmetry_space_group_name_H-M "I M M M"
_symmetry_group_IT_number 71
_symmetry_cell_setting 'orthorhombic'
loop_
_space_group_symop_operation_xyz
x,y,z
-x,-y,z
x,-y,-z
-x,y,-z
-x,-y,-z
x,y,-z
-x,y,z
x,-y,z
1/2+x,1/2+y,1/2+z
1/2-x,1/2-y,1/2+z
1/2+x,1/2-y,1/2-z
1/2-x,1/2+y,1/2-z
1/2-x,1/2-y,1/2-z
1/2+x,1/2+y,1/2-z
1/2-x,1/2+y,1/2+z
1/2+x,1/2-y,1/2+z
loop_
_atom_site_type_symbol
_atom_site_label
_atom_site_fract_x
_atom_site_fract_y
_atom_site_fract_z
Si Si1 0.315724 0.284933 0.375082
Si Si2 0.793590 0.921708 0.619033
Si Si3 0.607606 0.671309 0.801048
Si Si4 0.500000 0.414765 0.127102
Si Si5 0.604123 0.832048 0.874962
Si Si6 0.500000 0.080171 0.872780
Si Si7 0.214545 0.350022 0.734795
O O1 0.327509 0.275251 0.500000
O O2 0.371464 0.321152 0.322012
O O3 0.260331 0.331421 0.355477
O O4 0.301795 0.211026 0.318328
O O5 0.770334 0.913923 0.500000
O O6 0.840289 0.861467 0.634769
O O7 0.740273 0.914314 0.696559
O O8 0.820539 0.000000 0.637838
O O9 0.553932 0.620320 0.815674
O O10 0.595178 0.749210 0.847270
O O11 0.500000 0.500000 0.146994
O O12 0.500000 0.398197 0.000000
O O13 0.553109 0.877327 0.827577
O O14 0.658581 0.870460 0.826864
O O15 0.607705 0.839887 0.000000
O O16 0.500000 0.000000 0.826980
O O17 0.500000 0.079555 0.000000
#
# Coordination Sequence:
#
# PCOD8287674 Si02
#       7
#    16  16  16   8  16   8  16
#     4   9  17  31  49  70  99 129 157 200 248 286
#     4  10  19  31  47  69 101 133 157 193 245 293
#     4  10  20  32  50  75  99 126 165 205 245 297
#     4  11  21  33  52  75 100 130 165 211 260 303
#     4  10  18  30  50  73  98 126 157 199 244 287
#     4   9  19  33  47  66  94 126 154 186 237 290
#     4   9  18  28  47  74  95 122 162 198 234 288
#
# _framework density 17.121141999999999
#
# number of rings (size 3 to 8) (size 9 to 14) (size 15 to 20)
#    0.000    2.333    0.000    4.500    0.000    2.667 
#    0.000    0.417    0.000   17.000    0.000    1.750 
#    0.000   18.000    0.000    0.000    0.000    0.000 
#
# Total GULP energy -594858.178416 kJ/mol
# GULP energy per Si atom -12392.878717 kJ/mol
# Density = 1.708217 g / cm^3
# Si number density = 17.121142 Si / 1000 Ang^3
#
#
#
# Elastic Constant Matrix: (Units=GPa)
#
#
# Indices 1 2 3 4 5 6 
#
# 1 134.3739 52.3439 46.5855 0.0000 0.0000 0.0000
# 2 52.3439 99.9654 25.4191 0.0000 0.0000 0.0000
# 3 46.5855 25.4191 91.9657 0.0000 0.0000 0.0000
# 4 0.0000 0.0000 0.0000 19.4755 0.0000 0.0000
# 5 0.0000 0.0000 0.0000 0.0000 22.5000 0.0000
# 6 0.0000 0.0000 0.0000 0.0000 0.0000 26.1380
#
#
#
# Elastic Compliance Matrix: (Units=1/GPa)
#
#
# Indices 1 2 3 4 5 6 
#
# 1 0.010637 -0.004517 -0.004140 0.000000 0.000000 0.000000
# 2 -0.004517 0.012678 -0.001216 0.000000 0.000000 0.000000
# 3 -0.004140 -0.001216 0.013307 0.000000 0.000000 0.000000
# 4 0.000000 0.000000 0.000000 0.051347 0.000000 0.000000
# 5 0.000000 0.000000 0.000000 0.000000 0.044444 0.000000
# 6 0.000000 0.000000 0.000000 0.000000 0.000000 0.038258
#
#
# Mechanical properties :
#
#
# Convention : Reuss Voigt Hill
#
# Bulk Modulus (GPa) = 59.25571 63.88911 61.57241
# Shear Modulus (GPa) = 25.50489 27.08646 26.29568
#
# Velocity S-wave (km/s) = 3.86381 3.98181 3.92326
# Velocity P-wave (km/s) = 7.38852 7.65093 7.52087
#
# Compressibility (1/GPa) = 0.01687601
#
# Stress axis : x y z
#
# Youngs Moduli (GPa) = 94.01551 78.87785 75.15054
#
# Poissons Ratio (x) = 0.35628 0.31109
# Poissons Ratio (y) = 0.42466 0.09139
# Poissons Ratio (z) = 0.38918 0.09592
#
# Static dielectric constant tensor:
#      x y z
#    x 3.451770 0.000000 0.000000 
#    y 0.000000 3.260590 0.000000 
#    z 0.000000 0.000000 3.087540 
# 
# 
# High freq. dielectric constant tensor:
#      x y z
#    x 1.661990 0.000000 0.000000 
#    y 0.000000 1.657510 0.000000 
#    z 0.000000 0.000000 1.641930 
# 
# From -- ./inp_files/26041.got.cif
#   From: 2010.06.25/outbox.cif.g09.slc.cpg/sg71_14_cif.got.tgz:26041.got - 2010.06.28 04:59:45.
