data_PCOD8287598
_publ_section_title
;
Structure prediction by ZEFSAII (Michael W. Deem and Ramdas Pophale) SiO2 
 PCOD8287598
Probable space group: I M M M
;
_chemical_formula_sum "Si O2"
_cell_formula_units_Z 72
_cell_length_a 27.524408
_cell_length_b 19.255115
_cell_length_c 9.249512
_cell_angle_alpha 90.000000
_cell_angle_beta 90.000000
_cell_angle_gamma 90.000000
_cell_volume 4902.108549
_symmetry_space_group_name_H-M "I M M M"
_symmetry_group_IT_number 71
_symmetry_cell_setting 'orthorhombic'
loop_
_space_group_symop_operation_xyz
x,y,z
-x,-y,z
x,-y,-z
-x,y,-z
-x,-y,-z
x,y,-z
-x,y,z
x,-y,z
1/2+x,1/2+y,1/2+z
1/2-x,1/2-y,1/2+z
1/2+x,1/2-y,1/2-z
1/2-x,1/2+y,1/2-z
1/2-x,1/2-y,1/2-z
1/2+x,1/2+y,1/2-z
1/2-x,1/2+y,1/2+z
1/2+x,1/2-y,1/2+z
loop_
_atom_site_type_symbol
_atom_site_label
_atom_site_fract_x
_atom_site_fract_y
_atom_site_fract_z
Si Si1 0.654872 0.000000 0.828981
Si Si2 0.738452 0.500000 0.328172
Si Si3 0.593229 0.870817 0.830403
Si Si4 0.776700 0.151425 0.830655
Si Si5 0.500000 0.918389 0.671951
Si Si6 0.678703 0.772217 0.167355
O O1 0.626334 0.933316 0.775414
O O2 0.707957 0.000000 0.758556
O O3 0.659851 0.000000 0.000000
O O4 0.742942 0.500000 0.500000
O O5 0.712719 0.428153 0.278826
O O6 0.545093 0.875079 0.734999
O O7 0.625030 0.801990 0.798439
O O8 0.579793 0.876646 0.000000
O O9 0.721290 0.173097 0.789869
O O10 0.815607 0.200632 0.753530
O O11 0.785230 0.158831 0.000000
O O12 0.500000 0.913451 0.500000
O O13 0.500000 0.000000 0.721453
O O14 0.683570 0.754295 0.000000
#
# Coordination Sequence:
#
# PCOD8287598 Si02
#       6
#     8   8  16  16   8  16
#     4   9  14  23  42  63  80 106 149 189 208 231
#     4   9  14  24  42  64  85 111 151 184 206 243
#     4  10  18  30  48  62  78 112 155 187 209 246
#     4   9  16  26  42  62  85 113 143 177 214 252
#     4  11  23  33  41  61  91 114 137 180 229 259
#     4   9  17  28  42  62  85 110 143 181 216 250
#
# _framework density 14.687557999999999
#
# number of rings (size 3 to 8) (size 9 to 14) (size 15 to 20)
#    0.000    2.556    3.333    0.333    0.000    1.333 
#    0.000    0.556    0.000    1.333    0.000    0.000 
#    0.000    0.889    0.000   10.000    0.000    4.444 
#
# Total GULP energy -446124.698747 kJ/mol
# GULP energy per Si atom -12392.352743 kJ/mol
# Density = 1.465413 g / cm^3
# Si number density = 14.687558 Si / 1000 Ang^3
#
#
#
# Elastic Constant Matrix: (Units=GPa)
#
#
# Indices 1 2 3 4 5 6 
#
# 1 77.7888 49.6629 35.0127 0.0000 0.0000 0.0000
# 2 49.6629 126.6559 40.6236 0.0000 0.0000 0.0000
# 3 35.0127 40.6236 40.4588 0.0000 0.0000 0.0000
# 4 0.0000 0.0000 0.0000 21.8650 0.0000 0.0000
# 5 0.0000 0.0000 0.0000 0.0000 19.1686 0.0000
# 6 0.0000 0.0000 0.0000 0.0000 0.0000 26.2696
#
#
#
# Elastic Compliance Matrix: (Units=1/GPa)
#
#
# Indices 1 2 3 4 5 6 
#
# 1 0.022204 -0.003751 -0.015448 0.000000 0.000000 0.000000
# 2 -0.003751 0.012280 -0.009083 0.000000 0.000000 0.000000
# 3 -0.015448 -0.009083 0.047206 0.000000 0.000000 0.000000
# 4 0.000000 0.000000 0.000000 0.045735 0.000000 0.000000
# 5 0.000000 0.000000 0.000000 0.000000 0.052169 0.000000
# 6 0.000000 0.000000 0.000000 0.000000 0.000000 0.038067
#
#
# Mechanical properties :
#
#
# Convention : Reuss Voigt Hill
#
# Bulk Modulus (GPa) = 39.80392 55.05577 47.42984
# Shear Modulus (GPa) = 17.69287 21.43424 19.56355
#
# Velocity S-wave (km/s) = 3.47452 3.82428 3.65359
# Velocity P-wave (km/s) = 6.57691 7.55422 7.08244
#
# Compressibility (1/GPa) = 0.02512315
#
# Stress axis : x y z
#
# Youngs Moduli (GPa) = 45.03788 81.43491 21.18394
#
# Poissons Ratio (x) = 0.30549 0.32725
# Poissons Ratio (y) = 0.16895 0.19242
# Poissons Ratio (z) = 0.69575 0.73970
#
# Static dielectric constant tensor:
#      x y z
#    x 2.708560 0.000000 0.000000 
#    y 0.000000 2.925460 0.000000 
#    z 0.000000 0.000000 2.628390 
# 
# 
# High freq. dielectric constant tensor:
#      x y z
#    x 1.533110 0.000000 0.000000 
#    y 0.000000 1.554130 0.000000 
#    z 0.000000 0.000000 1.541930 
# 
# From -- ./inp_files/10704.got.cif
#   From: 2010.06.25/outbox.cif.g09.slc.cpg/sg71_6_cif.got.tgz:10704.got - 2010.06.28 04:59:45.
