data_PCOD8287904
_publ_section_title
;
Structure prediction by ZEFSAII (Michael W. Deem and Ramdas Pophale) SiO2 
 PCOD8287904
Probable space group: I M M M
;
_chemical_formula_sum "Si O2"
_cell_formula_units_Z 104
_cell_length_a 14.270787
_cell_length_b 18.644484
_cell_length_c 23.399554
_cell_angle_alpha 90.000000
_cell_angle_beta 90.000000
_cell_angle_gamma 90.000000
_cell_volume 6225.953494
_symmetry_space_group_name_H-M "I M M M"
_symmetry_group_IT_number 71
_symmetry_cell_setting 'orthorhombic'
loop_
_space_group_symop_operation_xyz
x,y,z
-x,-y,z
x,-y,-z
-x,y,-z
-x,-y,-z
x,y,-z
-x,y,z
x,-y,z
1/2+x,1/2+y,1/2+z
1/2-x,1/2-y,1/2+z
1/2+x,1/2-y,1/2-z
1/2-x,1/2+y,1/2-z
1/2-x,1/2-y,1/2-z
1/2+x,1/2+y,1/2-z
1/2-x,1/2+y,1/2+z
1/2+x,1/2-y,1/2+z
loop_
_atom_site_type_symbol
_atom_site_label
_atom_site_fract_x
_atom_site_fract_y
_atom_site_fract_z
Si Si1 0.388895 0.919964 0.500000
Si Si2 0.601713 0.714691 0.665768
Si Si3 0.392587 0.705972 0.203934
Si Si4 0.745189 0.917155 0.283244
Si Si5 0.792727 0.345720 0.333919
Si Si6 0.107561 0.629939 0.121325
Si Si7 0.395432 0.915351 0.062635
O O1 0.500000 0.917856 0.500000
O O2 0.351901 0.882529 0.557657
O O3 0.349331 0.000000 0.500000
O O4 0.500000 0.679438 0.652805
O O5 0.608749 0.736506 0.732071
O O6 0.682608 0.658888 0.651008
O O7 0.615705 0.785693 0.629506
O O8 0.500000 0.694339 0.182636
O O9 0.336225 0.630810 0.200483
O O10 0.340163 0.766994 0.167315
O O11 0.695325 0.888592 0.225401
O O12 0.669138 0.913752 0.333490
O O13 0.776691 0.000000 0.275353
O O14 0.832080 0.388942 0.386439
O O15 0.000000 0.603246 0.127569
O O16 0.500000 0.885313 0.072124
O O17 0.396583 0.000000 0.064354
O O18 0.358572 0.889619 0.000000
#
# Coordination Sequence:
#
# PCOD8287904 Si02
#       7
#     8  16  16  16  16  16  16
#     4   9  18  30  44  64  95 133 160 183 231 295
#     4   9  17  31  50  71 100 131 161 200 248 294
#     4  10  19  33  51  71 102 137 165 203 251 300
#     4  11  21  32  49  77 103 128 166 206 249 298
#     4  11  18  33  53  78  98 129 167 211 251 295
#     4  10  18  32  49  69  98 129 160 199 244 290
#     4   9  19  35  53  75 104 134 163 203 258 311
#
# _framework density 16.704267999999999
#
# number of rings (size 3 to 8) (size 9 to 14) (size 15 to 20)
#    0.000    2.077    3.077    2.769    0.000    1.846 
#    1.385    0.000    0.000    1.385    0.000    1.077 
#    0.000    1.846    0.000    0.000    0.000    0.000 
#
# Total GULP energy -644557.339551 kJ/mol
# GULP energy per Si atom -12395.333453 kJ/mol
# Density = 1.666625 g / cm^3
# Si number density = 16.704268 Si / 1000 Ang^3
#
#
#
# Elastic Constant Matrix: (Units=GPa)
#
#
# Indices 1 2 3 4 5 6 
#
# 1 99.1208 33.2252 52.7581 0.0000 0.0000 0.0000
# 2 33.2252 72.0006 37.4995 0.0000 0.0000 0.0000
# 3 52.7581 37.4995 107.7516 0.0000 0.0000 0.0000
# 4 0.0000 0.0000 0.0000 25.7472 0.0000 0.0000
# 5 0.0000 0.0000 0.0000 0.0000 5.3781 0.0000
# 6 0.0000 0.0000 0.0000 0.0000 0.0000 20.9073
#
#
#
# Elastic Compliance Matrix: (Units=1/GPa)
#
#
# Indices 1 2 3 4 5 6 
#
# 1 0.014380 -0.003626 -0.005779 0.000000 0.000000 0.000000
# 2 -0.003626 0.017878 -0.004446 0.000000 0.000000 0.000000
# 3 -0.005779 -0.004446 0.013658 0.000000 0.000000 0.000000
# 4 0.000000 0.000000 0.000000 0.038839 0.000000 0.000000
# 5 0.000000 0.000000 0.000000 0.000000 0.185939 0.000000
# 6 0.000000 0.000000 0.000000 0.000000 0.000000 0.047830
#
#
# Mechanical properties :
#
#
# Convention : Reuss Voigt Hill
#
# Bulk Modulus (GPa) = 54.90666 58.42649 56.66658
# Shear Modulus (GPa) = 14.19256 20.76584 17.47920
#
# Velocity S-wave (km/s) = 2.91801 3.52965 3.23831
# Velocity P-wave (km/s) = 6.65539 7.18778 6.92670
#
# Compressibility (1/GPa) = 0.01821273
#
# Stress axis : x y z
#
# Youngs Moduli (GPa) = 69.54082 55.93530 73.21938
#
# Poissons Ratio (x) = 0.20282 0.42313
# Poissons Ratio (y) = 0.25215 0.32556
# Poissons Ratio (z) = 0.40187 0.24871
#
# Static dielectric constant tensor:
#      x y z
#    x 3.319990 0.000000 0.000000 
#    y 0.000000 2.959580 0.000000 
#    z 0.000000 0.000000 3.207690 
# 
# 
# High freq. dielectric constant tensor:
#      x y z
#    x 1.637920 0.000000 0.000000 
#    y 0.000000 1.630590 0.000000 
#    z 0.000000 0.000000 1.635550 
# 
# From -- ./inp_files/36902.got.cif
#   From: 2010.06.25/outbox.cif.g09.slc.cpg/sg71_19_cif.got.tgz:36902.got - 2010.06.28 04:59:45.
