data_PCOD8287816
_publ_section_title
;
Structure prediction by ZEFSAII (Michael W. Deem and Ramdas Pophale) SiO2 
 PCOD8287816
Probable space group: I M M M
;
_chemical_formula_sum "Si O2"
_cell_formula_units_Z 120
_cell_length_a 24.836189
_cell_length_b 12.853014
_cell_length_c 21.450225
_cell_angle_alpha 90.000000
_cell_angle_beta 90.000000
_cell_angle_gamma 90.000000
_cell_volume 6847.338356
_symmetry_space_group_name_H-M "I M M M"
_symmetry_group_IT_number 71
_symmetry_cell_setting 'orthorhombic'
loop_
_space_group_symop_operation_xyz
x,y,z
-x,-y,z
x,-y,-z
-x,y,-z
-x,-y,-z
x,y,-z
-x,y,z
x,-y,z
1/2+x,1/2+y,1/2+z
1/2-x,1/2-y,1/2+z
1/2+x,1/2-y,1/2-z
1/2-x,1/2+y,1/2-z
1/2-x,1/2-y,1/2-z
1/2+x,1/2+y,1/2-z
1/2-x,1/2+y,1/2+z
1/2+x,1/2-y,1/2+z
loop_
_atom_site_type_symbol
_atom_site_label
_atom_site_fract_x
_atom_site_fract_y
_atom_site_fract_z
Si Si1 0.563988 0.378032 0.500000
Si Si2 0.235081 0.197304 0.070712
Si Si3 0.622554 0.694159 0.622463
Si Si4 0.845855 0.616684 0.801785
Si Si5 0.131847 0.251346 0.315755
Si Si6 0.560261 0.617172 0.737725
Si Si7 0.230553 0.117808 0.353059
Si Si8 0.349197 0.882617 0.070718
O O1 0.580728 0.500000 0.500000
O O2 0.500000 0.366233 0.500000
O O3 0.587134 0.319738 0.439388
O O4 0.184422 0.158882 0.111612
O O5 0.254412 0.314787 0.086008
O O6 0.284850 0.120046 0.083002
O O7 0.215265 0.195454 0.000000
O O8 0.623800 0.814425 0.645449
O O9 0.598463 0.624543 0.677502
O O10 0.868524 0.500000 0.809258
O O11 0.857105 0.656610 0.732587
O O12 0.781499 0.618429 0.807484
O O13 0.078915 0.189411 0.294748
O O14 0.181099 0.170084 0.316541
O O15 0.120541 0.303586 0.382936
O O16 0.500000 0.650561 0.718227
O O17 0.561661 0.500000 0.762380
O O18 0.215630 0.000000 0.373375
O O19 0.369273 0.000000 0.082051
O O20 0.361712 0.846749 0.000000
#
# Coordination Sequence:
#
# PCOD8287816 Si02
#       8
#     8  16  16  16  16  16  16  16
#     4  11  22  34  51  73  97 131 176 224 270 307
#     4   9  17  30  45  70 105 139 174 202 239 294
#     4  10  19  33  51  72 102 136 172 216 255 295
#     4   9  18  31  48  71  99 132 169 207 249 300
#     4  10  18  31  52  72  98 131 165 204 248 303
#     4  10  21  36  53  74  99 128 166 211 260 305
#     4   9  17  28  44  70 101 131 167 208 250 297
#     4   9  18  31  49  76 108 136 160 194 241 299
#
# _framework density 17.525058000000001
#
# number of rings (size 3 to 8) (size 9 to 14) (size 15 to 20)
#    0.000    2.467    0.667    2.000    0.000    3.467 
#    0.000    0.333    0.000   15.600    0.000    1.867 
#    0.000    0.000    0.000    0.000    0.000    0.000 
#
# Total GULP energy -743837.809033 kJ/mol
# GULP energy per Si atom -12397.296817 kJ/mol
# Density = 1.748517 g / cm^3
# Si number density = 17.525058 Si / 1000 Ang^3
#
#
#
# Elastic Constant Matrix: (Units=GPa)
#
#
# Indices 1 2 3 4 5 6 
#
# 1 54.7980 30.3531 35.4848 0.0000 0.0000 0.0000
# 2 30.3531 99.2463 45.1921 0.0000 0.0000 0.0000
# 3 35.4848 45.1921 109.2080 0.0000 0.0000 0.0000
# 4 0.0000 0.0000 0.0000 23.0082 0.0000 0.0000
# 5 0.0000 0.0000 0.0000 0.0000 24.8773 0.0000
# 6 0.0000 0.0000 0.0000 0.0000 0.0000 22.9582
#
#
#
# Elastic Compliance Matrix: (Units=1/GPa)
#
#
# Indices 1 2 3 4 5 6 
#
# 1 0.024863 -0.004837 -0.006077 0.000000 0.000000 0.000000
# 2 -0.004837 0.013356 -0.003955 0.000000 0.000000 0.000000
# 3 -0.006077 -0.003955 0.012768 0.000000 0.000000 0.000000
# 4 0.000000 0.000000 0.000000 0.043463 0.000000 0.000000
# 5 0.000000 0.000000 0.000000 0.000000 0.040197 0.000000
# 6 0.000000 0.000000 0.000000 0.000000 0.000000 0.043557
#
#
# Mechanical properties :
#
#
# Convention : Reuss Voigt Hill
#
# Bulk Modulus (GPa) = 47.06107 53.92358 50.49233
# Shear Modulus (GPa) = 23.25285 24.31691 23.78488
#
# Velocity S-wave (km/s) = 3.64653 3.72903 3.68801
# Velocity P-wave (km/s) = 6.68142 7.02688 6.85633
#
# Compressibility (1/GPa) = 0.02124898
#
# Stress axis : x y z
#
# Youngs Moduli (GPa) = 40.21981 74.87076 78.31862
#
# Poissons Ratio (x) = 0.36214 0.47596
# Poissons Ratio (y) = 0.19454 0.30979
# Poissons Ratio (z) = 0.24443 0.29615
#
# Static dielectric constant tensor:
#      x y z
#    x 3.109200 0.000000 0.000000 
#    y 0.000000 3.329240 0.000000 
#    z 0.000000 0.000000 3.244130 
# 
# 
# High freq. dielectric constant tensor:
#      x y z
#    x 1.653600 0.000000 0.000000 
#    y 0.000000 1.678190 0.000000 
#    z 0.000000 0.000000 1.673920 
# 
# From -- ./inp_files/26533.got.cif
#   From: 2010.06.25/outbox.cif.g09.slc.cpg/sg71_14_cif.got.tgz:26533.got - 2010.06.28 04:59:45.
