data_PCOD8287219
_publ_section_title
;
Structure prediction by ZEFSAII (Michael W. Deem and Ramdas Pophale) SiO2 
 PCOD8287219
Probable space group: I M M M
;
_chemical_formula_sum "Si O2"
_cell_formula_units_Z 104
_cell_length_a 26.818684
_cell_length_b 17.929219
_cell_length_c 15.506936
_cell_angle_alpha 90.000000
_cell_angle_beta 90.000000
_cell_angle_gamma 90.000000
_cell_volume 7456.325003
_symmetry_space_group_name_H-M "I M M M"
_symmetry_group_IT_number 71
_symmetry_cell_setting 'orthorhombic'
loop_
_space_group_symop_operation_xyz
x,y,z
-x,-y,z
x,-y,-z
-x,y,-z
-x,-y,-z
x,y,-z
-x,y,z
x,-y,z
1/2+x,1/2+y,1/2+z
1/2-x,1/2-y,1/2+z
1/2+x,1/2-y,1/2-z
1/2-x,1/2+y,1/2-z
1/2-x,1/2-y,1/2-z
1/2+x,1/2+y,1/2-z
1/2-x,1/2+y,1/2+z
1/2+x,1/2-y,1/2+z
loop_
_atom_site_type_symbol
_atom_site_label
_atom_site_fract_x
_atom_site_fract_y
_atom_site_fract_z
Si Si1 0.866852 0.914668 0.654874
Si Si2 0.610040 0.148015 0.897695
Si Si3 0.442249 0.298733 0.898198
Si Si4 0.727482 0.350016 0.907061
Si Si5 0.776403 0.083703 0.764440
Si Si6 0.943393 0.500000 0.602922
Si Si7 0.278649 0.824747 0.098908
O O1 0.917240 0.866375 0.655335
O O2 0.829807 0.878424 0.583779
O O3 0.836281 0.911171 0.746299
O O4 0.880152 0.000000 0.631433
O O5 0.580692 0.220810 0.864853
O O6 0.667150 0.150637 0.866191
O O7 0.584217 0.073478 0.860448
O O8 0.608025 0.147159 0.000000
O O9 0.500000 0.298803 0.874217
O O10 0.433763 0.310275 0.000000
O O11 0.752640 0.390711 0.824342
O O12 0.727851 0.262620 0.889195
O O13 0.753640 0.367668 0.000000
O O14 0.763493 0.135273 0.844859
O O15 0.759635 0.000000 0.786093
O O16 0.942335 0.500000 0.500000
O O17 0.000000 0.500000 0.636862
O O18 0.271340 0.849241 0.000000
#
# Coordination Sequence:
#
# PCOD8287219 Si02
#       7
#    16  16  16  16  16   8  16
#     4   9  18  29  41  57  80 108 141 175 207 248
#     4   9  16  26  38  54  76 107 139 173 209 244
#     4  10  18  27  40  58  81 108 139 175 212 249
#     4   9  16  28  44  59  76 107 144 174 205 247
#     4   9  19  29  41  61  83 111 142 178 217 256
#     4   9  16  24  34  50  72 102 139 173 202 237
#     4  10  18  28  44  62  83 110 145 181 214 253
#
# _framework density 13.947889999999999
#
# number of rings (size 3 to 8) (size 9 to 14) (size 15 to 20)
#    0.923    1.769    1.538    1.385    1.077    4.615 
#    0.000    0.769    0.000    0.000    0.000    0.000 
#    0.000    0.615    0.000    3.692    0.000    5.077 
#
# Total GULP energy -644201.695474 kJ/mol
# GULP energy per Si atom -12388.494144 kJ/mol
# Density = 1.391614 g / cm^3
# Si number density = 13.947890 Si / 1000 Ang^3
#
#
#
# Elastic Constant Matrix: (Units=GPa)
#
#
# Indices 1 2 3 4 5 6 
#
# 1 54.7559 37.5360 22.0084 0.0000 0.0000 0.0000
# 2 37.5360 112.5084 27.9069 0.0000 0.0000 0.0000
# 3 22.0084 27.9069 42.7092 0.0000 0.0000 0.0000
# 4 0.0000 0.0000 0.0000 -5.2859 0.0000 0.0000
# 5 0.0000 0.0000 0.0000 0.0000 14.3997 0.0000
# 6 0.0000 0.0000 0.0000 0.0000 0.0000 16.3867
#
#
#
# Elastic Compliance Matrix: (Units=1/GPa)
#
#
# Indices 1 2 3 4 5 6 
#
# 1 0.026506 -0.006510 -0.009405 0.000000 0.000000 0.000000
# 2 -0.006510 0.012206 -0.004621 0.000000 0.000000 0.000000
# 3 -0.009405 -0.004621 0.031280 0.000000 0.000000 0.000000
# 4 0.000000 0.000000 0.000000 -0.189182 0.000000 0.000000
# 5 0.000000 0.000000 0.000000 0.000000 0.069446 0.000000
# 6 0.000000 0.000000 0.000000 0.000000 0.000000 0.061025
#
#
# Mechanical properties :
#
#
# Convention : Reuss Voigt Hill
#
# Bulk Modulus (GPa) = 34.57809 42.76402 38.67106
# Shear Modulus (GPa) = 80.65255 13.26824 46.96039
#
# Velocity S-wave (km/s) = 7.61247 3.08762 5.80875
# Velocity P-wave (km/s) = 10.10500 6.59072 8.53079
#
# Compressibility (1/GPa) = 0.02892005
#
# Stress axis : x y z
#
# Youngs Moduli (GPa) = 37.72743 81.92362 31.96930
#
# Poissons Ratio (x) = 0.53335 0.30066
# Poissons Ratio (y) = 0.24562 0.14773
# Poissons Ratio (z) = 0.35482 0.37858
#
# Static dielectric constant tensor:
#      x y z
#    x 2.577330 0.000000 0.000000 
#    y 0.000000 2.879040 0.000000 
#    z 0.000000 0.000000 2.388310 
# 
# 
# High freq. dielectric constant tensor:
#      x y z
#    x 1.504590 0.000000 0.000000 
#    y 0.000000 1.553040 0.000000 
#    z 0.000000 0.000000 1.483180 
# 
# From -- ./inp_files/41067.got.cif
#   From: 2010.06.25/outbox.cif.g09.slc.cpg/sg71_21_cif.got.tgz:41067.got - 2010.06.28 04:59:45.
