data_PCOD8287654
_publ_section_title
;
Structure prediction by ZEFSAII (Michael W. Deem and Ramdas Pophale) SiO2 
 PCOD8287654
Probable space group: I M M M
;
_chemical_formula_sum "Si O2"
_cell_formula_units_Z 72
_cell_length_a 14.682174
_cell_length_b 27.209976
_cell_length_c 9.442473
_cell_angle_alpha 90.000000
_cell_angle_beta 90.000000
_cell_angle_gamma 90.000000
_cell_volume 3772.283092
_symmetry_space_group_name_H-M "I M M M"
_symmetry_group_IT_number 71
_symmetry_cell_setting 'orthorhombic'
loop_
_space_group_symop_operation_xyz
x,y,z
-x,-y,z
x,-y,-z
-x,y,-z
-x,-y,-z
x,y,-z
-x,y,z
x,-y,z
1/2+x,1/2+y,1/2+z
1/2-x,1/2-y,1/2+z
1/2+x,1/2-y,1/2-z
1/2-x,1/2+y,1/2-z
1/2-x,1/2-y,1/2-z
1/2+x,1/2+y,1/2-z
1/2-x,1/2+y,1/2+z
1/2+x,1/2-y,1/2+z
loop_
_atom_site_type_symbol
_atom_site_label
_atom_site_fract_x
_atom_site_fract_y
_atom_site_fract_z
Si Si1 0.104010 0.876474 0.833155
Si Si2 0.904257 0.332339 0.837918
Si Si3 0.832211 0.230021 0.839782
Si Si4 0.231829 0.589636 0.167726
Si Si5 0.603898 0.000000 0.333014
O O1 0.123369 0.820349 0.783762
O O2 0.171424 0.913334 0.748976
O O3 0.000000 0.889642 0.792898
O O4 0.119797 0.882912 0.000000
O O5 0.905577 0.273490 0.828109
O O6 0.815784 0.359773 0.774731
O O7 0.000000 0.350040 0.767457
O O8 0.905063 0.350032 0.000000
O O9 0.750000 0.250000 0.750000
O O10 0.798007 0.222765 0.000000
O O11 0.162673 0.546961 0.216353
O O12 0.252096 0.588026 0.000000
O O13 0.500000 0.000000 0.268999
O O14 0.594550 0.000000 0.500000
#
# Coordination Sequence:
#
# PCOD8287654 Si02
#       5
#    16  16  16  16   8
#     4  10  21  36  53  74 105 145 181 214 257 308
#     4   9  16  27  47  74 101 131 167 204 248 306
#     4  10  18  30  49  73 103 137 174 214 255 300
#     4  10  19  33  55  81 105 132 170 218 265 309
#     4   9  18  34  58  87 112 132 163 213 270 321
#
# _framework density 19.086584999999999
#
# number of rings (size 3 to 8) (size 9 to 14) (size 15 to 20)
#    0.000    2.333    2.222    1.333    0.000    5.778 
#    0.000    1.111    0.000   10.000    0.000    0.000 
#    0.000    0.000    0.000    0.000    0.000    0.000 
#
# Total GULP energy -445992.548890 kJ/mol
# GULP energy per Si atom -12388.681914 kJ/mol
# Density = 1.904314 g / cm^3
# Si number density = 19.086585 Si / 1000 Ang^3
#
#
#
# Elastic Constant Matrix: (Units=GPa)
#
#
# Indices 1 2 3 4 5 6 
#
# 1 176.4112 47.8938 49.5401 0.0008 0.0002 -0.0002
# 2 47.8938 79.6776 20.0758 -0.0019 -0.0007 -0.0006
# 3 49.5401 20.0758 36.4562 -0.0235 0.0015 0.0032
# 4 0.0008 -0.0019 -0.0235 18.0365 0.0001 -0.0001
# 5 0.0002 -0.0007 0.0015 0.0001 26.0790 0.0001
# 6 -0.0002 -0.0006 0.0032 -0.0001 0.0001 24.6458
#
#
#
# Elastic Compliance Matrix: (Units=1/GPa)
#
#
# Indices 1 2 3 4 5 6 
#
# 1 0.009718 -0.002919 -0.011599 -0.000016 0.000001 0.000002
# 2 -0.002919 0.015449 -0.004541 -0.000004 0.000001 0.000001
# 3 -0.011599 -0.004541 0.045692 0.000060 -0.000003 -0.000006
# 4 -0.000016 -0.000004 0.000060 0.055443 0.000000 0.000000
# 5 0.000001 0.000001 -0.000003 0.000000 0.038345 0.000000
# 6 0.000002 0.000001 -0.000006 0.000000 0.000000 0.040575
#
#
# Mechanical properties :
#
#
# Convention : Reuss Voigt Hill
#
# Bulk Modulus (GPa) = 30.54134 58.61827 44.57980
# Shear Modulus (GPa) = 19.66536 25.42126 22.54331
#
# Velocity S-wave (km/s) = 3.21335 3.65347 3.44045
# Velocity P-wave (km/s) = 5.45928 6.96962 6.26016
#
# Compressibility (1/GPa) = 0.03274250
#
# Stress axis : x y z
#
# Youngs Moduli (GPa) = 102.89954 64.72736 21.88568
#
# Poissons Ratio (x) = 0.18895 0.25384
# Poissons Ratio (y) = 0.30038 0.09938
# Poissons Ratio (z) = 1.19348 0.29392
#
# Static dielectric constant tensor:
#      x y z
#    x 2.678530 0.000050 -0.000060 
#    y 0.000050 3.713760 -0.000010 
#    z -0.000060 -0.000010 3.091220 
# 
# 
# High freq. dielectric constant tensor:
#      x y z
#    x 1.756710 0.000000 0.000000 
#    y 0.000000 1.734120 0.000000 
#    z 0.000000 0.000000 1.689870 
# 
# From -- ./inp_files/6007.got.cif
#   From: 2010.06.25/outbox.cif.g09.slc.cpg/sg71_4_cif.got.tgz:6007.got - 2010.06.28 04:59:45.
