data_PCOD8287052
_publ_section_title
;
Structure prediction by ZEFSAII (Michael W. Deem and Ramdas Pophale) SiO2 
 PCOD8287052
Probable space group: I M M M
;
_chemical_formula_sum "Si O2"
_cell_formula_units_Z 120
_cell_length_a 18.375246
_cell_length_b 12.556838
_cell_length_c 30.624570
_cell_angle_alpha 90.000000
_cell_angle_beta 90.000000
_cell_angle_gamma 90.000000
_cell_volume 7066.159768
_symmetry_space_group_name_H-M "I M M M"
_symmetry_group_IT_number 71
_symmetry_cell_setting 'orthorhombic'
loop_
_space_group_symop_operation_xyz
x,y,z
-x,-y,z
x,-y,-z
-x,y,-z
-x,-y,-z
x,y,-z
-x,y,z
x,-y,z
1/2+x,1/2+y,1/2+z
1/2-x,1/2-y,1/2+z
1/2+x,1/2-y,1/2-z
1/2-x,1/2+y,1/2-z
1/2-x,1/2-y,1/2-z
1/2+x,1/2+y,1/2-z
1/2-x,1/2+y,1/2+z
1/2+x,1/2-y,1/2+z
loop_
_atom_site_type_symbol
_atom_site_label
_atom_site_fract_x
_atom_site_fract_y
_atom_site_fract_z
Si Si1 0.579574 0.874425 0.000000
Si Si2 0.164537 0.373784 0.585153
Si Si3 0.175325 0.224218 0.798303
Si Si4 0.195539 0.123032 0.292151
Si Si5 0.181417 0.874512 0.048843
Si Si6 0.582188 0.625960 0.374621
Si Si7 0.417839 0.885619 0.247781
Si Si8 0.583938 0.758181 0.162566
O O1 0.621893 0.837285 0.957590
O O2 0.500000 0.821123 0.000000
O O3 0.572818 0.000000 0.000000
O O4 0.156052 0.500000 0.595587
O O5 0.247794 0.340119 0.576541
O O6 0.131103 0.301004 0.622658
O O7 0.193250 0.138111 0.760468
O O8 0.246143 0.292842 0.811799
O O9 0.140309 0.167317 0.839656
O O10 0.116397 0.304864 0.780880
O O11 0.119334 0.151664 0.316110
O O12 0.214708 0.000000 0.302177
O O13 0.110640 0.840728 0.077082
O O14 0.184970 0.000000 0.042620
O O15 0.178169 0.822689 0.000000
O O16 0.500000 0.671295 0.368147
O O17 0.580773 0.500000 0.369904
O O18 0.500000 0.895899 0.262887
O O19 0.412143 0.851297 0.197867
O O20 0.378139 0.000000 0.251725
O O21 0.500000 0.733650 0.149387
#
# Coordination Sequence:
#
# PCOD8287052 Si02
#       8
#     8  16  16  16  16  16  16  16
#     4   9  16  24  38  64  96 130 164 201 252 304
#     4  10  17  28  46  69 100 135 167 205 248 293
#     4  10  19  33  51  72  97 125 164 208 244 287
#     4  10  21  35  51  70  95 129 167 207 252 295
#     4   9  17  30  46  66  96 133 167 195 233 288
#     4  10  20  32  49  74 103 135 166 196 234 285
#     4   9  17  29  45  67  97 131 162 196 241 287
#     4  10  20  31  45  68  97 132 172 206 241 291
#
# _framework density 16.982351000000001
#
# number of rings (size 3 to 8) (size 9 to 14) (size 15 to 20)
#    0.000    2.333    0.667    2.800    0.000    2.400 
#    0.000    5.333    0.000    0.000    0.000    0.467 
#    0.000    3.200    0.000    9.867    0.000    0.667 
#
# Total GULP energy -743585.173335 kJ/mol
# GULP energy per Si atom -12393.086222 kJ/mol
# Density = 1.694370 g / cm^3
# Si number density = 16.982351 Si / 1000 Ang^3
#
#
#
# Elastic Constant Matrix: (Units=GPa)
#
#
# Indices 1 2 3 4 5 6 
#
# 1 104.0886 26.3351 46.7209 0.0000 0.0000 0.0000
# 2 26.3351 52.4682 20.0893 0.0000 0.0000 0.0000
# 3 46.7209 20.0893 87.4815 0.0000 0.0000 0.0000
# 4 0.0000 0.0000 0.0000 -2.8489 0.0000 0.0000
# 5 0.0000 0.0000 0.0000 0.0000 -8.6293 0.0000
# 6 0.0000 0.0000 0.0000 0.0000 0.0000 13.3039
#
#
#
# Elastic Compliance Matrix: (Units=1/GPa)
#
#
# Indices 1 2 3 4 5 6 
#
# 1 0.013505 -0.004404 -0.006201 0.000000 0.000000 0.000000
# 2 -0.004404 0.022333 -0.002776 0.000000 0.000000 0.000000
# 3 -0.006201 -0.002776 0.015380 0.000000 0.000000 0.000000
# 4 0.000000 0.000000 0.000000 -0.351007 0.000000 0.000000
# 5 0.000000 0.000000 0.000000 0.000000 -0.115885 0.000000
# 6 0.000000 0.000000 0.000000 0.000000 0.000000 0.075166
#
#
# Mechanical properties :
#
#
# Convention : Reuss Voigt Hill
#
# Bulk Modulus (GPa) = 40.89198 47.81434 44.35316
# Shear Modulus (GPa) = -16.36162 10.42467 -2.96848
#
# Velocity S-wave (km/s) = -3.10731 2.48029 -1.32355
# Velocity P-wave (km/s) = 3.35522 6.03481 4.88244
#
# Compressibility (1/GPa) = 0.02445467
#
# Stress axis : x y z
#
# Youngs Moduli (GPa) = 74.04724 44.77726 65.01790
#
# Poissons Ratio (x) = 0.19720 0.40318
# Poissons Ratio (y) = 0.32611 0.18052
# Poissons Ratio (z) = 0.45918 0.12432
#
# Static dielectric constant tensor:
#      x y z
#    x 3.573760 0.000000 0.000000 
#    y 0.000000 2.839010 0.000000 
#    z 0.000000 0.000000 3.277970 
# 
# 
# High freq. dielectric constant tensor:
#      x y z
#    x 1.673710 0.000000 0.000000 
#    y 0.000000 1.608580 0.000000 
#    z 0.000000 0.000000 1.651000 
# 
# From -- ./inp_files/66621.got.cif
#   From: 2010.06.25/outbox.cif.g09.slc.cpg/sg71_34_cif.got.tgz:66621.got - 2010.06.28 04:59:45.
