data_PCOD8287681
_publ_section_title
;
Structure prediction by ZEFSAII (Michael W. Deem and Ramdas Pophale) SiO2 
 PCOD8287681
Probable space group: I M M M
;
_chemical_formula_sum "Si O2"
_cell_formula_units_Z 120
_cell_length_a 22.212546
_cell_length_b 18.641382
_cell_length_c 17.569687
_cell_angle_alpha 90.000000
_cell_angle_beta 90.000000
_cell_angle_gamma 90.000000
_cell_volume 7275.125190
_symmetry_space_group_name_H-M "I M M M"
_symmetry_group_IT_number 71
_symmetry_cell_setting 'orthorhombic'
loop_
_space_group_symop_operation_xyz
x,y,z
-x,-y,z
x,-y,-z
-x,y,-z
-x,-y,-z
x,y,-z
-x,y,z
x,-y,z
1/2+x,1/2+y,1/2+z
1/2-x,1/2-y,1/2+z
1/2+x,1/2-y,1/2-z
1/2-x,1/2+y,1/2-z
1/2-x,1/2-y,1/2-z
1/2+x,1/2+y,1/2-z
1/2-x,1/2+y,1/2+z
1/2+x,1/2-y,1/2+z
loop_
_atom_site_type_symbol
_atom_site_label
_atom_site_fract_x
_atom_site_fract_y
_atom_site_fract_z
Si Si1 0.776649 0.080430 0.155696
Si Si2 0.206307 0.781102 0.589559
Si Si3 0.127609 0.582788 0.199566
Si Si4 0.262739 0.420544 0.833516
Si Si5 0.331330 0.711110 0.588729
Si Si6 0.068341 0.318726 0.912833
Si Si7 0.429684 0.084622 0.000000
Si Si8 0.148135 0.357498 0.362597
O O1 0.778145 0.086159 0.245664
O O2 0.829103 0.132531 0.126039
O O3 0.711496 0.102442 0.122242
O O4 0.790653 0.000000 0.127949
O O5 0.195524 0.779038 0.500000
O O6 0.198838 0.862368 0.619473
O O7 0.273026 0.756365 0.613218
O O8 0.158192 0.728330 0.629452
O O9 0.114118 0.500000 0.218181
O O10 0.191453 0.592082 0.157478
O O11 0.078175 0.612332 0.140708
O O12 0.123504 0.626134 0.278564
O O13 0.279922 0.500000 0.863968
O O14 0.333392 0.698500 0.500000
O O15 0.390215 0.753461 0.616943
O O16 0.000000 0.292711 0.906269
O O17 0.084719 0.339411 0.000000
O O18 0.399941 0.117108 0.924448
O O19 0.500000 0.105100 0.000000
O O20 0.419967 0.000000 0.000000
#
# Coordination Sequence:
#
# PCOD8287681 Si02
#       8
#    16  16  16  16  16  16   8  16
#     4   9  18  30  49  75 102 128 159 202 253 306
#     4  10  18  30  50  75 100 130 168 204 247 301
#     4  10  20  33  51  73 100 133 171 210 249 299
#     4   9  18  30  46  74 106 132 156 197 258 305
#     4   9  18  30  46  71  96 126 166 203 245 295
#     4  10  21  36  51  69  98 134 174 215 250 293
#     4  11  22  36  52  70 103 145 174 204 248 289
#     4  10  20  34  51  75 103 134 169 209 247 295
#
# _framework density 16.494561000000001
#
# number of rings (size 3 to 8) (size 9 to 14) (size 15 to 20)
#    0.000    2.333    2.000    2.000    2.800    3.200 
#    0.000    2.000    0.000    0.400    0.000    1.867 
#    0.000    1.067    0.000    0.000    0.000    0.000 
#
# Total GULP energy -743976.131336 kJ/mol
# GULP energy per Si atom -12399.602189 kJ/mol
# Density = 1.645702 g / cm^3
# Si number density = 16.494561 Si / 1000 Ang^3
#
#
#
# Elastic Constant Matrix: (Units=GPa)
#
#
# Indices 1 2 3 4 5 6 
#
# 1 67.0252 45.0595 40.0500 0.0000 0.0000 0.0000
# 2 45.0595 134.1590 53.1834 0.0000 0.0000 0.0000
# 3 40.0500 53.1834 63.0210 0.0000 0.0000 0.0000
# 4 0.0000 0.0000 0.0000 31.5513 0.0000 0.0000
# 5 0.0000 0.0000 0.0000 0.0000 20.4721 0.0000
# 6 0.0000 0.0000 0.0000 0.0000 0.0000 19.6985
#
#
#
# Elastic Compliance Matrix: (Units=1/GPa)
#
#
# Indices 1 2 3 4 5 6 
#
# 1 0.024905 -0.003141 -0.013176 0.000000 0.000000 0.000000
# 2 -0.003141 0.011597 -0.007791 0.000000 0.000000 0.000000
# 3 -0.013176 -0.007791 0.030815 0.000000 0.000000 0.000000
# 4 0.000000 0.000000 0.000000 0.031694 0.000000 0.000000
# 5 0.000000 0.000000 0.000000 0.000000 0.048847 0.000000
# 6 0.000000 0.000000 0.000000 0.000000 0.000000 0.050765
#
#
# Mechanical properties :
#
#
# Convention : Reuss Voigt Hill
#
# Bulk Modulus (GPa) = 52.35148 60.08788 56.21968
# Shear Modulus (GPa) = 19.74666 22.73853 21.24260
#
# Velocity S-wave (km/s) = 3.46376 3.71691 3.59256
# Velocity P-wave (km/s) = 6.91407 7.41138 7.16704
#
# Compressibility (1/GPa) = 0.01910166
#
# Stress axis : x y z
#
# Youngs Moduli (GPa) = 40.15290 86.22711 32.45122
#
# Poissons Ratio (x) = 0.27088 0.42758
# Poissons Ratio (y) = 0.12614 0.25281
# Poissons Ratio (z) = 0.52905 0.67176
#
# Static dielectric constant tensor:
#      x y z
#    x 2.862160 0.000000 0.000000 
#    y 0.000000 3.261560 0.000000 
#    z 0.000000 0.000000 3.049320 
# 
# 
# High freq. dielectric constant tensor:
#      x y z
#    x 1.592210 0.000000 0.000000 
#    y 0.000000 1.639530 0.000000 
#    z 0.000000 0.000000 1.638960 
# 
# From -- ./inp_files/47578.got.cif
#   From: 2010.06.25/outbox.cif.g09.slc.cpg/sg71_24_cif.got.tgz:47578.got - 2010.06.28 04:59:45.
