data_PCOD8287754
_publ_section_title
;
Structure prediction by ZEFSAII (Michael W. Deem and Ramdas Pophale) SiO2 
 PCOD8287754
Probable space group: I M M M
;
_chemical_formula_sum "Si O2"
_cell_formula_units_Z 88
_cell_length_a 33.736165
_cell_length_b 9.567733
_cell_length_c 18.765754
_cell_angle_alpha 90.000000
_cell_angle_beta 90.000000
_cell_angle_gamma 90.000000
_cell_volume 6057.184164
_symmetry_space_group_name_H-M "I M M M"
_symmetry_group_IT_number 71
_symmetry_cell_setting 'orthorhombic'
loop_
_space_group_symop_operation_xyz
x,y,z
-x,-y,z
x,-y,-z
-x,y,-z
-x,-y,-z
x,y,-z
-x,y,z
x,-y,z
1/2+x,1/2+y,1/2+z
1/2-x,1/2-y,1/2+z
1/2+x,1/2-y,1/2-z
1/2-x,1/2+y,1/2-z
1/2-x,1/2-y,1/2-z
1/2+x,1/2+y,1/2-z
1/2-x,1/2+y,1/2+z
1/2+x,1/2-y,1/2+z
loop_
_atom_site_type_symbol
_atom_site_label
_atom_site_fract_x
_atom_site_fract_y
_atom_site_fract_z
Si Si1 0.456213 0.343163 0.129502
Si Si2 0.045834 0.650632 0.500000
Si Si3 0.340881 0.339839 0.000000
Si Si4 0.238353 0.661769 0.500000
Si Si5 0.231413 0.159255 0.848679
Si Si6 0.371371 0.342189 0.155594
Si Si7 0.189519 0.661813 0.261169
O O1 0.500000 0.307211 0.163587
O O2 0.458266 0.500000 0.097661
O O3 0.443371 0.236940 0.069074
O O4 0.417849 0.333043 0.180943
O O5 0.068296 0.500000 0.500000
O O6 0.000000 0.620362 0.500000
O O7 0.301384 0.249565 0.000000
O O8 0.366365 0.305800 0.071174
O O9 0.327304 0.500000 0.000000
O O10 0.225346 0.500000 0.500000
O O11 0.265528 0.696683 0.568147
O O12 0.199616 0.262936 0.813452
O O13 0.274677 0.182973 0.815699
O O14 0.217369 0.000000 0.836235
O O15 0.355502 0.500000 0.169389
O O16 0.348758 0.232465 0.204460
O O17 0.180414 0.500000 0.245973
#
# Coordination Sequence:
#
# PCOD8287754 Si02
#       7
#    16   8   8   8  16  16  16
#     4   9  17  29  43  56  74 105 142 177 214 257
#     4   9  16  25  37  54  75  99 131 173 217 254
#     4  10  19  27  38  59  83 107 139 180 220 251
#     4  10  18  31  47  63  82 108 140 176 213 246
#     4   9  18  31  46  62  84 109 138 172 209 251
#     4  10  19  30  43  60  83 109 142 181 219 254
#     4  10  19  30  45  63  84 111 140 170 210 254
#
# _framework density 14.528202
#
# number of rings (size 3 to 8) (size 9 to 14) (size 15 to 20)
#    0.000    2.455    1.818    1.364    0.000    4.727 
#    0.000    0.909    0.000    0.000    0.000    0.000 
#    0.000    0.000    0.000    0.818    0.000   18.727 
#
# Total GULP energy -545161.052651 kJ/mol
# GULP energy per Si atom -12390.023924 kJ/mol
# Density = 1.449514 g / cm^3
# Si number density = 14.528202 Si / 1000 Ang^3
#
#
#
# Elastic Constant Matrix: (Units=GPa)
#
#
# Indices 1 2 3 4 5 6 
#
# 1 89.7131 53.6656 40.0756 0.0000 0.0000 0.0000
# 2 53.6656 89.4751 37.9245 0.0000 0.0000 0.0000
# 3 40.0756 37.9245 71.6934 0.0000 0.0000 0.0000
# 4 0.0000 0.0000 0.0000 11.1058 0.0000 0.0000
# 5 0.0000 0.0000 0.0000 0.0000 13.0113 0.0000
# 6 0.0000 0.0000 0.0000 0.0000 0.0000 18.6031
#
#
#
# Elastic Compliance Matrix: (Units=1/GPa)
#
#
# Indices 1 2 3 4 5 6 
#
# 1 0.019184 -0.008973 -0.005977 0.000000 0.000000 0.000000
# 2 -0.008973 0.018603 -0.004825 0.000000 0.000000 0.000000
# 3 -0.005977 -0.004825 0.019842 0.000000 0.000000 0.000000
# 4 0.000000 0.000000 0.000000 0.090043 0.000000 0.000000
# 5 0.000000 0.000000 0.000000 0.000000 0.076856 0.000000
# 6 0.000000 0.000000 0.000000 0.000000 0.000000 0.053755
#
#
# Mechanical properties :
#
#
# Convention : Reuss Voigt Hill
#
# Bulk Modulus (GPa) = 55.31292 57.13479 56.22386
# Shear Modulus (GPa) = 15.43880 16.49176 15.96528
#
# Velocity S-wave (km/s) = 3.26341 3.37286 3.31859
# Velocity P-wave (km/s) = 7.23569 7.38786 7.31217
#
# Compressibility (1/GPa) = 0.01807896
#
# Stress axis : x y z
#
# Youngs Moduli (GPa) = 52.12612 53.75414 50.39858
#
# Poissons Ratio (x) = 0.48233 0.30124
# Poissons Ratio (y) = 0.46772 0.24318
# Poissons Ratio (z) = 0.31157 0.25937
#
# Static dielectric constant tensor:
#      x y z
#    x 2.784340 0.000000 0.000000 
#    y 0.000000 3.134900 0.000000 
#    z 0.000000 0.000000 2.599870 
# 
# 
# High freq. dielectric constant tensor:
#      x y z
#    x 1.542170 0.000000 0.000000 
#    y 0.000000 1.569930 0.000000 
#    z 0.000000 0.000000 1.508090 
# 
# From -- ./inp_files/56604.got.cif
#   From: 2010.06.25/outbox.cif.g09.slc.cpg/sg71_29_cif.got.tgz:56604.got - 2010.06.28 04:59:45.
