data_PCOD8287000
_publ_section_title
;
Structure prediction by ZEFSAII (Michael W. Deem and Ramdas Pophale) SiO2 
 PCOD8287000
Probable space group: I M M M
;
_chemical_formula_sum "Si O2"
_cell_formula_units_Z 80
_cell_length_a 16.841368
_cell_length_b 17.721386
_cell_length_c 18.848436
_cell_angle_alpha 90.000000
_cell_angle_beta 90.000000
_cell_angle_gamma 90.000000
_cell_volume 5625.360642
_symmetry_space_group_name_H-M "I M M M"
_symmetry_group_IT_number 71
_symmetry_cell_setting 'orthorhombic'
loop_
_space_group_symop_operation_xyz
x,y,z
-x,-y,z
x,-y,-z
-x,y,-z
-x,-y,-z
x,y,-z
-x,y,z
x,-y,z
1/2+x,1/2+y,1/2+z
1/2-x,1/2-y,1/2+z
1/2+x,1/2-y,1/2-z
1/2-x,1/2+y,1/2-z
1/2-x,1/2-y,1/2-z
1/2+x,1/2+y,1/2-z
1/2-x,1/2+y,1/2+z
1/2+x,1/2-y,1/2+z
loop_
_atom_site_type_symbol
_atom_site_label
_atom_site_fract_x
_atom_site_fract_y
_atom_site_fract_z
Si Si1 0.411924 0.000000 0.915933
Si Si2 0.156989 0.911937 0.843435
Si Si3 0.591387 0.288811 0.918899
Si Si4 0.500000 0.589665 0.420231
Si Si5 0.591385 0.414829 0.807620
Si Si6 0.310038 0.858786 0.916571
O O1 0.366317 0.925957 0.889557
O O2 0.500000 0.000000 0.882376
O O3 0.418346 0.000000 0.000000
O O4 0.078333 0.880180 0.881359
O O5 0.147833 0.899367 0.759447
O O6 0.229146 0.862020 0.872257
O O7 0.171219 0.000000 0.861904
O O8 0.500000 0.265030 0.906586
O O9 0.616213 0.359399 0.870764
O O10 0.646479 0.218894 0.898240
O O11 0.605167 0.313252 0.000000
O O12 0.500000 0.500000 0.417362
O O13 0.500000 0.620719 0.500000
O O14 0.500000 0.402940 0.784112
O O15 0.603733 0.500000 0.835407
O O16 0.291157 0.866681 0.000000
#
# Coordination Sequence:
#
# PCOD8287000 Si02
#       6
#     8  16  16   8  16  16
#     4   9  16  26  40  57  81 115 148 172 199 235
#     4  10  17  27  41  61  87 114 143 173 206 247
#     4   9  18  31  45  62  84 109 140 179 218 253
#     4   9  16  24  38  58  83 115 144 172 204 237
#     4   9  17  30  46  62  83 111 141 174 215 258
#     4  10  18  27  41  62  87 114 144 175 203 243
#
# _framework density 14.221311
#
# number of rings (size 3 to 8) (size 9 to 14) (size 15 to 20)
#    0.000    2.600    2.000    1.200    0.000    4.400 
#    0.000    2.000    0.000    0.000    0.000    0.000 
#    0.000    0.000    0.000    0.100    0.000   10.600 
#
# Total GULP energy -495992.087438 kJ/mol
# GULP energy per Si atom -12399.802186 kJ/mol
# Density = 1.418894 g / cm^3
# Si number density = 14.221311 Si / 1000 Ang^3
#
#
#
# Elastic Constant Matrix: (Units=GPa)
#
#
# Indices 1 2 3 4 5 6 
#
# 1 102.5421 53.6180 49.1647 0.0000 0.0000 0.0000
# 2 53.6180 90.9736 55.9420 0.0000 0.0000 0.0000
# 3 49.1647 55.9420 73.1605 0.0000 0.0000 0.0000
# 4 0.0000 0.0000 0.0000 19.0219 0.0000 0.0000
# 5 0.0000 0.0000 0.0000 0.0000 18.5577 0.0000
# 6 0.0000 0.0000 0.0000 0.0000 0.0000 16.1943
#
#
#
# Elastic Compliance Matrix: (Units=1/GPa)
#
#
# Indices 1 2 3 4 5 6 
#
# 1 0.015582 -0.005181 -0.006510 0.000000 0.000000 0.000000
# 2 -0.005181 0.022470 -0.013700 0.000000 0.000000 0.000000
# 3 -0.006510 -0.013700 0.028519 0.000000 0.000000 0.000000
# 4 0.000000 0.000000 0.000000 0.052571 0.000000 0.000000
# 5 0.000000 0.000000 0.000000 0.000000 0.053886 0.000000
# 6 0.000000 0.000000 0.000000 0.000000 0.000000 0.061750
#
#
# Mechanical properties :
#
#
# Convention : Reuss Voigt Hill
#
# Bulk Modulus (GPa) = 63.33245 64.90286 64.11765
# Shear Modulus (GPa) = 17.19247 17.95153 17.57200
#
# Velocity S-wave (km/s) = 3.48073 3.55674 3.51894
# Velocity P-wave (km/s) = 7.79642 7.91227 7.85456
#
# Compressibility (1/GPa) = 0.01578969
#
# Stress axis : x y z
#
# Youngs Moduli (GPa) = 64.17514 44.50311 35.06374
#
# Poissons Ratio (x) = 0.23056 0.22827
# Poissons Ratio (y) = 0.33247 0.48039
# Poissons Ratio (z) = 0.41779 0.60971
#
# Static dielectric constant tensor:
#      x y z
#    x 2.780970 0.000000 0.000000 
#    y 0.000000 2.626860 0.000000 
#    z 0.000000 0.000000 2.663930 
# 
# 
# High freq. dielectric constant tensor:
#      x y z
#    x 1.540270 0.000000 0.000000 
#    y 0.000000 1.522050 0.000000 
#    z 0.000000 0.000000 1.529380 
# 
# From -- ./inp_files/36494.got.cif
#   From: 2010.06.25/outbox.cif.g09.slc.cpg/sg71_19_cif.got.tgz:36494.got - 2010.06.28 04:59:45.
