data_PCOD8287038
_publ_section_title
;
Structure prediction by ZEFSAII (Michael W. Deem and Ramdas Pophale) SiO2 
 PCOD8287038
Probable space group: I M M M
;
_chemical_formula_sum "Si O2"
_cell_formula_units_Z 104
_cell_length_a 18.592415
_cell_length_b 25.728906
_cell_length_c 13.350719
_cell_angle_alpha 90.000000
_cell_angle_beta 90.000000
_cell_angle_gamma 90.000000
_cell_volume 6386.483289
_symmetry_space_group_name_H-M "I M M M"
_symmetry_group_IT_number 71
_symmetry_cell_setting 'orthorhombic'
loop_
_space_group_symop_operation_xyz
x,y,z
-x,-y,z
x,-y,-z
-x,y,-z
-x,-y,-z
x,y,-z
-x,y,z
x,-y,z
1/2+x,1/2+y,1/2+z
1/2-x,1/2-y,1/2+z
1/2+x,1/2-y,1/2-z
1/2-x,1/2+y,1/2-z
1/2-x,1/2-y,1/2-z
1/2+x,1/2+y,1/2-z
1/2-x,1/2+y,1/2+z
1/2+x,1/2-y,1/2+z
loop_
_atom_site_type_symbol
_atom_site_label
_atom_site_fract_x
_atom_site_fract_y
_atom_site_fract_z
Si Si1 0.793854 0.557996 0.384930
Si Si2 0.651073 0.591673 0.293606
Si Si3 0.082068 0.751639 0.732886
Si Si4 0.080546 0.000000 0.106987
Si Si5 0.842594 0.332060 0.615387
Si Si6 0.582955 0.644725 0.114967
Si Si7 0.819641 0.196784 0.885105
O O1 0.766194 0.564059 0.500000
O O2 0.827914 0.500000 0.369160
O O3 0.728437 0.564567 0.307385
O O4 0.848815 0.605531 0.363878
O O5 0.592549 0.550773 0.327438
O O6 0.635277 0.606994 0.178345
O O7 0.641682 0.642045 0.363704
O O8 0.097683 0.696076 0.682222
O O9 0.093730 0.796022 0.649785
O O10 0.139046 0.758891 0.822799
O O11 0.000000 0.751831 0.773335
O O12 0.000000 0.000000 0.074293
O O13 0.124850 0.000000 0.000000
O O14 0.858828 0.320161 0.500000
O O15 0.763988 0.309526 0.645414
O O16 0.500000 0.627831 0.129410
O O17 0.607034 0.640404 0.000000
O O18 0.827771 0.212307 0.000000
#
# Coordination Sequence:
#
# PCOD8287038 Si02
#       7
#    16  16  16   8  16  16  16
#     4   9  16  28  48  69  89 113 142 182 231 278
#     4  10  17  28  44  62  84 113 148 187 228 267
#     4  10  19  30  47  69  94 125 156 190 230 275
#     4  11  20  26  37  59  85 111 141 181 226 271
#     4   9  17  29  47  70  93 121 156 190 224 269
#     4   9  18  31  43  57  83 120 157 186 217 262
#     4   9  18  31  47  68  94 122 152 189 233 278
#
# _framework density 16.284392
#
# number of rings (size 3 to 8) (size 9 to 14) (size 15 to 20)
#    0.000    2.538    0.769    3.692    0.000    1.846 
#    0.000    0.385    0.000    1.846    0.000    2.154 
#    0.000    0.000    0.000    1.385    0.000    0.000 
#
# Total GULP energy -644473.753629 kJ/mol
# GULP energy per Si atom -12393.726031 kJ/mol
# Density = 1.624733 g / cm^3
# Si number density = 16.284392 Si / 1000 Ang^3
#
#
#
# Elastic Constant Matrix: (Units=GPa)
#
#
# Indices 1 2 3 4 5 6 
#
# 1 28.8876 19.6516 18.0525 0.0000 0.0000 0.0000
# 2 19.6516 92.9924 32.2858 0.0000 0.0000 0.0000
# 3 18.0525 32.2858 76.4938 0.0000 0.0000 0.0000
# 4 0.0000 0.0000 0.0000 21.9962 0.0000 0.0000
# 5 0.0000 0.0000 0.0000 0.0000 19.8021 0.0000
# 6 0.0000 0.0000 0.0000 0.0000 0.0000 20.0043
#
#
#
# Elastic Compliance Matrix: (Units=1/GPa)
#
#
# Indices 1 2 3 4 5 6 
#
# 1 0.043854 -0.006648 -0.007543 0.000000 0.000000 0.000000
# 2 -0.006648 0.013608 -0.004174 0.000000 0.000000 0.000000
# 3 -0.007543 -0.004174 0.016615 0.000000 0.000000 0.000000
# 4 0.000000 0.000000 0.000000 0.045462 0.000000 0.000000
# 5 0.000000 0.000000 0.000000 0.000000 0.050500 0.000000
# 6 0.000000 0.000000 0.000000 0.000000 0.000000 0.049989
#
#
# Mechanical properties :
#
#
# Convention : Reuss Voigt Hill
#
# Bulk Modulus (GPa) = 26.77790 37.59484 32.18637
# Shear Modulus (GPa) = 18.57295 20.91944 19.74620
#
# Velocity S-wave (km/s) = 3.38085 3.58806 3.48600
# Velocity P-wave (km/s) = 5.63203 6.34840 6.00091
#
# Compressibility (1/GPa) = 0.03734423
#
# Stress axis : x y z
#
# Youngs Moduli (GPa) = 22.80308 73.48683 60.18623
#
# Poissons Ratio (x) = 0.48857 0.45400
# Poissons Ratio (y) = 0.15161 0.25125
# Poissons Ratio (z) = 0.17201 0.30677
#
# Static dielectric constant tensor:
#      x y z
#    x 2.831680 0.000000 0.000000 
#    y 0.000000 3.153490 0.000000 
#    z 0.000000 0.000000 2.972190 
# 
# 
# High freq. dielectric constant tensor:
#      x y z
#    x 1.596620 0.000000 0.000000 
#    y 0.000000 1.624090 0.000000 
#    z 0.000000 0.000000 1.610590 
# 
# From -- ./inp_files/24586.got.cif
#   From: 2010.06.25/outbox.cif.g09.slc.cpg/sg71_13_cif.got.tgz:24586.got - 2010.06.28 04:59:45.
