data_PCOD8287259
_publ_section_title
;
Structure prediction by ZEFSAII (Michael W. Deem and Ramdas Pophale) SiO2 
 PCOD8287259
Probable space group: I M M M
;
_chemical_formula_sum "Si O2"
_cell_formula_units_Z 96
_cell_length_a 13.960139
_cell_length_b 25.827928
_cell_length_c 19.000866
_cell_angle_alpha 90.000000
_cell_angle_beta 90.000000
_cell_angle_gamma 90.000000
_cell_volume 6850.980081
_symmetry_space_group_name_H-M "I M M M"
_symmetry_group_IT_number 71
_symmetry_cell_setting 'orthorhombic'
loop_
_space_group_symop_operation_xyz
x,y,z
-x,-y,z
x,-y,-z
-x,y,-z
-x,-y,-z
x,y,-z
-x,y,z
x,-y,z
1/2+x,1/2+y,1/2+z
1/2-x,1/2-y,1/2+z
1/2+x,1/2-y,1/2-z
1/2-x,1/2+y,1/2-z
1/2-x,1/2-y,1/2-z
1/2+x,1/2+y,1/2-z
1/2-x,1/2+y,1/2+z
1/2+x,1/2-y,1/2+z
loop_
_atom_site_type_symbol
_atom_site_label
_atom_site_fract_x
_atom_site_fract_y
_atom_site_fract_z
Si Si1 0.388237 0.060981 0.817298
Si Si2 0.113950 0.306832 0.078760
Si Si3 0.769687 0.903247 0.916555
Si Si4 0.385664 0.000000 0.421069
Si Si5 0.393702 0.500000 0.416620
Si Si6 0.386069 0.903060 0.665740
Si Si7 0.893261 0.807622 0.916517
O O1 0.500000 0.070721 0.830382
O O2 0.333274 0.088622 0.881083
O O3 0.352095 0.088327 0.745621
O O4 0.365999 0.000000 0.813500
O O5 0.154281 0.349120 0.133960
O O6 0.144515 0.249528 0.105171
O O7 0.000000 0.309416 0.075389
O O8 0.154263 0.318070 0.000000
O O9 0.817683 0.850038 0.889253
O O10 0.838856 0.949120 0.890756
O O11 0.753762 0.903661 0.000000
O O12 0.345365 0.050574 0.381997
O O13 0.500000 0.000000 0.420442
O O14 0.345454 0.000000 0.500000
O O15 0.500000 0.500000 0.383569
O O16 0.400631 0.500000 0.500000
O O17 0.500000 0.903936 0.663137
O O18 0.000000 0.818239 0.885301
O O19 0.900892 0.811003 0.000000
#
# Coordination Sequence:
#
# PCOD8287259 Si02
#       7
#    16  16  16   8   8  16  16
#     4  10  19  30  40  51  74 108 140 166 195 223
#     4   8  13  22  38  59  80 102 126 151 185 234
#     4  10  18  28  41  57  74  97 133 170 198 229
#     4   9  14  19  32  54  75  96 124 156 185 218
#     4   9  16  25  39  59  77  90 111 151 200 243
#     4   9  15  24  36  52  76 104 131 158 187 223
#     4   8  14  25  41  60  81 101 120 151 197 243
#
# _framework density 14.012593000000001
#
# number of rings (size 3 to 8) (size 9 to 14) (size 15 to 20)
#    0.000    3.000    1.667    2.000    0.000    4.333 
#    0.000    1.667    0.000    0.000    0.000    0.000 
#    0.000    0.000    0.000    0.000    0.000   31.667 
#
# Total GULP energy -594907.616148 kJ/mol
# GULP energy per Si atom -12393.908670 kJ/mol
# Density = 1.398070 g / cm^3
# Si number density = 14.012593 Si / 1000 Ang^3
#
#
#
# Elastic Constant Matrix: (Units=GPa)
#
#
# Indices 1 2 3 4 5 6 
#
# 1 44.8769 37.1004 30.9978 0.0000 0.0000 0.0000
# 2 37.1004 126.4008 44.8968 -0.0001 0.0000 0.0000
# 3 30.9978 44.8968 61.8647 -0.0002 0.0000 0.0000
# 4 0.0000 -0.0001 -0.0002 15.4955 0.0000 0.0000
# 5 0.0000 0.0000 0.0000 0.0000 8.1921 0.0000
# 6 0.0000 0.0000 0.0000 0.0000 0.0000 8.4164
#
#
#
# Elastic Compliance Matrix: (Units=1/GPa)
#
#
# Indices 1 2 3 4 5 6 
#
# 1 0.036939 -0.005750 -0.014335 0.000000 0.000000 0.000000
# 2 -0.005750 0.011554 -0.005504 0.000000 0.000000 0.000000
# 3 -0.014335 -0.005504 0.027342 0.000000 0.000000 0.000000
# 4 0.000000 0.000000 0.000000 0.064535 0.000000 0.000000
# 5 0.000000 0.000000 0.000000 0.000000 0.122069 0.000000
# 6 0.000000 0.000000 0.000000 0.000000 0.000000 0.118816
#
#
# Mechanical properties :
#
#
# Convention : Reuss Voigt Hill
#
# Bulk Modulus (GPa) = 40.55915 51.01471 45.78693
# Shear Modulus (GPa) = 11.34685 14.43063 12.88874
#
# Velocity S-wave (km/s) = 2.84872 3.21258 3.03611
# Velocity P-wave (km/s) = 6.31093 7.08846 6.71097
#
# Compressibility (1/GPa) = 0.02465535
#
# Stress axis : x y z
#
# Youngs Moduli (GPa) = 27.07177 86.54969 36.57437
#
# Poissons Ratio (x) = 0.49768 0.52431
# Poissons Ratio (y) = 0.15567 0.20130
# Poissons Ratio (z) = 0.38809 0.47636
#
# Static dielectric constant tensor:
#      x y z
#    x 2.407740 0.000000 0.000000 
#    y 0.000000 3.114890 0.000000 
#    z 0.000000 0.000000 2.629720 
# 
# 
# High freq. dielectric constant tensor:
#      x y z
#    x 1.481480 0.000000 0.000000 
#    y 0.000000 1.548510 0.000000 
#    z 0.000000 0.000000 1.511080 
# 
# From -- ./inp_files/35046.got.cif
#   From: 2010.06.25/outbox.cif.g09.slc.cpg/sg71_18_cif.got.tgz:35046.got - 2010.06.28 04:59:45.
