data_PCOD8287412
_publ_section_title
;
Structure prediction by ZEFSAII (Michael W. Deem and Ramdas Pophale) SiO2 
 PCOD8287412
Probable space group: I M M M
;
_chemical_formula_sum "Si O2"
_cell_formula_units_Z 88
_cell_length_a 12.986051
_cell_length_b 27.736752
_cell_length_c 15.611883
_cell_angle_alpha 90.000000
_cell_angle_beta 90.000000
_cell_angle_gamma 90.000000
_cell_volume 5623.257815
_symmetry_space_group_name_H-M "I M M M"
_symmetry_group_IT_number 71
_symmetry_cell_setting 'orthorhombic'
loop_
_space_group_symop_operation_xyz
x,y,z
-x,-y,z
x,-y,-z
-x,y,-z
-x,-y,-z
x,y,-z
-x,y,z
x,-y,z
1/2+x,1/2+y,1/2+z
1/2-x,1/2-y,1/2+z
1/2+x,1/2-y,1/2-z
1/2-x,1/2+y,1/2-z
1/2-x,1/2-y,1/2-z
1/2+x,1/2+y,1/2-z
1/2-x,1/2+y,1/2+z
1/2+x,1/2-y,1/2+z
loop_
_atom_site_type_symbol
_atom_site_label
_atom_site_fract_x
_atom_site_fract_y
_atom_site_fract_z
Si Si1 0.877436 0.500000 0.822505
Si Si2 0.312902 0.186002 0.000000
Si Si3 0.309911 0.197001 0.660997
Si Si4 0.621846 0.920856 0.000000
Si Si5 0.114927 0.754184 0.000000
Si Si6 0.116299 0.740831 0.335572
Si Si7 0.378107 0.000000 0.131859
Si Si8 0.379647 0.900560 0.599562
O O1 0.830880 0.500000 0.726786
O O2 0.837815 0.547326 0.871604
O O3 0.000000 0.500000 0.821185
O O4 0.369618 0.205797 0.916183
O O5 0.315384 0.128497 0.000000
O O6 0.193342 0.201243 0.000000
O O7 0.371951 0.221503 0.583837
O O8 0.190610 0.212912 0.658150
O O9 0.361382 0.210669 0.750460
O O10 0.315594 0.139497 0.651298
O O11 0.656491 0.951494 0.083049
O O12 0.500000 0.910164 0.000000
O O13 0.000000 0.775746 0.000000
O O14 0.000000 0.760464 0.333995
O O15 0.500000 0.000000 0.134779
O O16 0.357758 0.894261 0.500000
O O17 0.500000 0.894591 0.621153
#
# Coordination Sequence:
#
# PCOD8287412 Si02
#       8
#     8   8  16   8   8  16   8  16
#     4   9  18  28  42  65  88 114 148 186 230 274
#     4  10  21  30  46  71  94 125 158 186 230 273
#     4  10  20  31  49  70  91 126 162 183 228 282
#     4   9  16  28  42  60  90 121 149 181 219 269
#     4  10  18  33  49  67  95 123 154 194 227 270
#     4  10  20  33  46  68  98 124 155 196 226 264
#     4   8  16  28  42  60  85 119 151 180 221 273
#     4  10  18  29  45  65  91 119 149 188 230 276
#
# _framework density 15.649292000000001
#
# number of rings (size 3 to 8) (size 9 to 14) (size 15 to 20)
#    0.000    2.364    0.909    3.273    2.545    1.091 
#    0.000    0.000    0.000    0.000    0.000    1.909 
#    0.000    2.909    0.000    0.000    0.000    0.000 
#
# Total GULP energy -545613.271994 kJ/mol
# GULP energy per Si atom -12400.301636 kJ/mol
# Density = 1.561367 g / cm^3
# Si number density = 15.649292 Si / 1000 Ang^3
#
#
#
# Elastic Constant Matrix: (Units=GPa)
#
#
# Indices 1 2 3 4 5 6 
#
# 1 86.0751 44.1170 31.3789 0.0002 0.0000 0.0000
# 2 44.1170 140.5306 48.0154 0.0033 0.0002 0.0000
# 3 31.3789 48.0154 110.9581 0.0110 0.0006 0.0000
# 4 0.0002 0.0033 0.0110 -499.0842 0.0107 -0.0004
# 5 0.0000 0.0002 0.0006 0.0107 86.1723 0.0000
# 6 0.0000 0.0000 0.0000 -0.0004 0.0000 19.8501
#
#
#
# Elastic Compliance Matrix: (Units=1/GPa)
#
#
# Indices 1 2 3 4 5 6 
#
# 1 0.014406 -0.003674 -0.002484 0.000000 0.000000 0.000000
# 2 -0.003674 0.009287 -0.002980 0.000000 0.000000 0.000000
# 3 -0.002484 -0.002980 0.011005 0.000000 0.000000 0.000000
# 4 0.000000 0.000000 0.000000 -0.002004 0.000000 0.000000
# 5 0.000000 0.000000 0.000000 0.000000 0.011605 0.000000
# 6 0.000000 0.000000 0.000000 0.000000 0.000000 0.050378
#
#
# Mechanical properties :
#
#
# Convention : Reuss Voigt Hill
#
# Bulk Modulus (GPa) = 60.89390 64.95405 62.92397
# Shear Modulus (GPa) = 42.21997 -64.34220 -11.06111
#
# Velocity S-wave (km/s) = 5.19975 -6.41906 -2.66148
# Velocity P-wave (km/s) = 8.66291 3.65280 5.55441
#
# Compressibility (1/GPa) = 0.01642201
#
# Stress axis : x y z
#
# Youngs Moduli (GPa) = 69.41353 107.67267 90.87152
#
# Poissons Ratio (x) = 0.39557 0.22576
# Poissons Ratio (y) = 0.25501 0.27080
# Poissons Ratio (z) = 0.17245 0.32087
#
# Static dielectric constant tensor:
#      x y z
#    x 2.706850 0.000000 0.000000 
#    y 0.000000 2.951590 0.000000 
#    z 0.000000 0.000000 3.321110 
# 
# 
# High freq. dielectric constant tensor:
#      x y z
#    x 1.556790 0.000000 0.000000 
#    y 0.000000 1.595440 0.000000 
#    z 0.000000 0.000000 1.623580 
# 
# From -- ./inp_files/33045.got.cif
#   From: 2010.06.25/outbox.cif.g09.slc.cpg/sg71_17_cif.got.tgz:33045.got - 2010.06.28 04:59:45.
