data_PCOD8287445
_publ_section_title
;
Structure prediction by ZEFSAII (Michael W. Deem and Ramdas Pophale) SiO2 
 PCOD8287445
Probable space group: I M M M
;
_chemical_formula_sum "Si O2"
_cell_formula_units_Z 128
_cell_length_a 19.736553
_cell_length_b 23.750085
_cell_length_c 16.805891
_cell_angle_alpha 90.000000
_cell_angle_beta 90.000000
_cell_angle_gamma 90.000000
_cell_volume 7877.674206
_symmetry_space_group_name_H-M "I M M M"
_symmetry_group_IT_number 71
_symmetry_cell_setting 'orthorhombic'
loop_
_space_group_symop_operation_xyz
x,y,z
-x,-y,z
x,-y,-z
-x,y,-z
-x,-y,-z
x,y,-z
-x,y,z
x,-y,z
1/2+x,1/2+y,1/2+z
1/2-x,1/2-y,1/2+z
1/2+x,1/2-y,1/2-z
1/2-x,1/2+y,1/2-z
1/2-x,1/2-y,1/2-z
1/2+x,1/2+y,1/2-z
1/2-x,1/2+y,1/2+z
1/2+x,1/2-y,1/2+z
loop_
_atom_site_type_symbol
_atom_site_label
_atom_site_fract_x
_atom_site_fract_y
_atom_site_fract_z
Si Si1 0.922460 0.236382 0.846345
Si Si2 0.224260 0.295805 0.314014
Si Si3 0.334782 0.157580 0.669999
Si Si4 0.077803 0.565472 0.091686
Si Si5 0.161200 0.856004 0.910962
Si Si6 0.803330 0.192306 0.406882
Si Si7 0.576053 0.661289 0.803817
Si Si8 0.922943 0.936037 0.182507
O O1 0.878985 0.291443 0.864283
O O2 0.899766 0.189250 0.909501
O O3 0.909861 0.212603 0.757353
O O4 0.000000 0.251721 0.861135
O O5 0.250000 0.250000 0.250000
O O6 0.171588 0.336111 0.266541
O O7 0.282329 0.336064 0.348250
O O8 0.193493 0.259179 0.386091
O O9 0.371845 0.099475 0.649210
O O10 0.260504 0.159976 0.631176
O O11 0.092434 0.500000 0.106258
O O12 0.000000 0.579661 0.113219
O O13 0.092212 0.581428 0.000000
O O14 0.129896 0.915968 0.885024
O O15 0.190893 0.861194 0.000000
O O16 0.799011 0.184725 0.500000
O O17 0.872017 0.163567 0.376379
O O18 0.500000 0.666113 0.837924
O O19 0.586511 0.601686 0.760694
O O20 0.000000 0.929904 0.150410
O O21 0.905943 0.000000 0.205383
#
# Coordination Sequence:
#
# PCOD8287445 Si02
#       8
#    16  16  16  16  16  16  16  16
#     4  10  18  29  46  70  97 127 160 199 241 288
#     4  10  18  32  48  66  96 131 164 196 240 292
#     4  11  18  31  51  72  97 131 169 199 235 292
#     4   9  19  35  52  73 104 136 162 196 245 293
#     4  11  20  31  46  70 100 128 158 201 251 295
#     4  11  20  31  49  74 102 132 161 198 252 306
#     4   9  18  34  52  71  95 125 166 210 246 289
#     4   9  18  33  52  70  91 128 170 201 237 289
#
# _framework density 16.248450999999999
#
# number of rings (size 3 to 8) (size 9 to 14) (size 15 to 20)
#    0.000    2.000    3.750    4.875    0.000    2.000 
#    0.000    3.125    0.000    1.125    0.000    1.750 
#    0.000    0.000    0.000    5.500    0.000    0.000 
#
# Total GULP energy -793366.266178 kJ/mol
# GULP energy per Si atom -12396.347909 kJ/mol
# Density = 1.621147 g / cm^3
# Si number density = 16.248451 Si / 1000 Ang^3
#
#
#
# Elastic Constant Matrix: (Units=GPa)
#
#
# Indices 1 2 3 4 5 6 
#
# 1 93.3547 45.2139 33.9141 0.0000 0.0000 0.0000
# 2 45.2139 83.9219 27.1658 0.0000 0.0000 0.0000
# 3 33.9141 27.1658 62.9328 0.0000 0.0000 0.0000
# 4 0.0000 0.0000 0.0000 17.9243 0.0000 0.0000
# 5 0.0000 0.0000 0.0000 0.0000 21.5992 0.0000
# 6 0.0000 0.0000 0.0000 0.0000 0.0000 27.7509
#
#
#
# Elastic Compliance Matrix: (Units=1/GPa)
#
#
# Indices 1 2 3 4 5 6 
#
# 1 0.016095 -0.006816 -0.005731 0.000000 0.000000 0.000000
# 2 -0.006816 0.016738 -0.003552 0.000000 0.000000 0.000000
# 3 -0.005731 -0.003552 0.020512 0.000000 0.000000 0.000000
# 4 0.000000 0.000000 0.000000 0.055790 0.000000 0.000000
# 5 0.000000 0.000000 0.000000 0.000000 0.046298 0.000000
# 6 0.000000 0.000000 0.000000 0.000000 0.000000 0.036035
#
#
# Mechanical properties :
#
#
# Convention : Reuss Voigt Hill
#
# Bulk Modulus (GPa) = 47.29027 50.31075 48.80051
# Shear Modulus (GPa) = 21.67171 22.38258 22.02715
#
# Velocity S-wave (km/s) = 3.65604 3.71552 3.68590
# Velocity P-wave (km/s) = 6.85492 7.03118 6.94361
#
# Compressibility (1/GPa) = 0.02114600
#
# Stress axis : x y z
#
# Youngs Moduli (GPa) = 62.13045 59.74449 48.75258
#
# Poissons Ratio (x) = 0.40723 0.27941
# Poissons Ratio (y) = 0.42350 0.17317
# Poissons Ratio (z) = 0.35609 0.21221
#
# Static dielectric constant tensor:
#      x y z
#    x 3.130550 0.000000 0.000000 
#    y 0.000000 3.027890 0.000000 
#    z 0.000000 0.000000 3.055240 
# 
# 
# High freq. dielectric constant tensor:
#      x y z
#    x 1.624880 0.000000 0.000000 
#    y 0.000000 1.609440 0.000000 
#    z 0.000000 0.000000 1.603840 
# 
# From -- ./inp_files/47799.got.cif
#   From: 2010.06.25/outbox.cif.g09.slc.cpg/sg71_24_cif.got.tgz:47799.got - 2010.06.28 04:59:45.
