data_PCOD8287049
_publ_section_title
;
Structure prediction by ZEFSAII (Michael W. Deem and Ramdas Pophale) SiO2 
 PCOD8287049
Probable space group: I M M M
;
_chemical_formula_sum "Si O2"
_cell_formula_units_Z 104
_cell_length_a 14.149466
_cell_length_b 18.672652
_cell_length_c 24.733603
_cell_angle_alpha 90.000000
_cell_angle_beta 90.000000
_cell_angle_gamma 90.000000
_cell_volume 6534.817132
_symmetry_space_group_name_H-M "I M M M"
_symmetry_group_IT_number 71
_symmetry_cell_setting 'orthorhombic'
loop_
_space_group_symop_operation_xyz
x,y,z
-x,-y,z
x,-y,-z
-x,y,-z
-x,-y,-z
x,y,-z
-x,y,z
x,-y,z
1/2+x,1/2+y,1/2+z
1/2-x,1/2-y,1/2+z
1/2+x,1/2-y,1/2-z
1/2-x,1/2+y,1/2-z
1/2-x,1/2-y,1/2-z
1/2+x,1/2+y,1/2-z
1/2-x,1/2+y,1/2+z
1/2+x,1/2-y,1/2+z
loop_
_atom_site_type_symbol
_atom_site_label
_atom_site_fract_x
_atom_site_fract_y
_atom_site_fract_z
Si Si1 0.388905 0.581202 0.938861
Si Si2 0.604187 0.231311 0.337848
Si Si3 0.608039 0.609116 0.645693
Si Si4 0.248161 0.581298 0.261707
Si Si5 0.792238 0.163791 0.656598
Si Si6 0.111479 0.000000 0.941111
Si Si7 0.608965 0.792226 0.215240
O O1 0.500000 0.586348 0.930074
O O2 0.354536 0.500000 0.928726
O O3 0.340792 0.633731 0.896529
O O4 0.362293 0.604706 0.000000
O O5 0.500000 0.199100 0.350071
O O6 0.618323 0.307135 0.366496
O O7 0.682847 0.177135 0.359585
O O8 0.616749 0.245039 0.273705
O O9 0.500000 0.588438 0.659069
O O10 0.668271 0.581538 0.695525
O O11 0.644103 0.570330 0.591458
O O12 0.210125 0.500000 0.254639
O O13 0.294139 0.607435 0.205439
O O14 0.162300 0.631468 0.282314
O O15 0.841559 0.238815 0.672900
O O16 0.000000 0.000000 0.948606
O O17 0.160944 0.000000 0.000000
O O18 0.500000 0.805148 0.198391
#
# Coordination Sequence:
#
# PCOD8287049 Si02
#       7
#    16  16  16  16  16   8  16
#     4   9  19  35  52  72 100 130 159 201 256 302
#     4   9  17  30  47  69 100 129 154 192 246 290
#     4  10  17  28  46  67  93 123 153 196 241 282
#     4  11  20  30  46  73 103 128 160 197 245 298
#     4  11  18  31  51  76  96 126 166 207 242 292
#     4   9  18  30  44  64  93 129 158 184 231 288
#     4  10  19  31  47  69 101 135 162 198 243 294
#
# _framework density 15.914752999999999
#
# number of rings (size 3 to 8) (size 9 to 14) (size 15 to 20)
#    0.000    2.077    3.846    2.308    0.000    0.923 
#    0.000    0.769    0.000    2.769    0.000    1.077 
#    0.000    0.615    0.000    0.000    0.000    0.000 
#
# Total GULP energy -644665.565015 kJ/mol
# GULP energy per Si atom -12397.414712 kJ/mol
# Density = 1.587853 g / cm^3
# Si number density = 15.914753 Si / 1000 Ang^3
#
#
#
# Elastic Constant Matrix: (Units=GPa)
#
#
# Indices 1 2 3 4 5 6 
#
# 1 81.2986 42.6690 46.2562 0.0000 0.0000 0.0000
# 2 42.6690 104.2886 56.6820 0.0000 0.0000 0.0000
# 3 46.2562 56.6820 100.6441 0.0000 0.0000 0.0000
# 4 0.0000 0.0000 0.0000 25.2024 0.0000 0.0000
# 5 0.0000 0.0000 0.0000 0.0000 16.7840 0.0000
# 6 0.0000 0.0000 0.0000 0.0000 0.0000 22.6065
#
#
#
# Elastic Compliance Matrix: (Units=1/GPa)
#
#
# Indices 1 2 3 4 5 6 
#
# 1 0.017786 -0.004084 -0.005874 0.000000 0.000000 0.000000
# 2 -0.004084 0.014757 -0.006434 0.000000 0.000000 0.000000
# 3 -0.005874 -0.006434 0.016259 0.000000 0.000000 0.000000
# 4 0.000000 0.000000 0.000000 0.039679 0.000000 0.000000
# 5 0.000000 0.000000 0.000000 0.000000 0.059580 0.000000
# 6 0.000000 0.000000 0.000000 0.000000 0.000000 0.044235
#
#
# Mechanical properties :
#
#
# Convention : Reuss Voigt Hill
#
# Bulk Modulus (GPa) = 62.43183 64.16064 63.29623
# Shear Modulus (GPa) = 21.69949 22.29353 21.99651
#
# Velocity S-wave (km/s) = 3.69654 3.74680 3.72176
# Velocity P-wave (km/s) = 7.58507 7.68900 7.63721
#
# Compressibility (1/GPa) = 0.01601747
#
# Stress axis : x y z
#
# Youngs Moduli (GPa) = 56.22306 67.76615 61.50357
#
# Poissons Ratio (x) = 0.27678 0.36129
# Poissons Ratio (y) = 0.22964 0.39569
# Poissons Ratio (z) = 0.33027 0.43598
#
# Static dielectric constant tensor:
#      x y z
#    x 3.086750 0.000000 0.000000 
#    y 0.000000 3.046300 0.000000 
#    z 0.000000 0.000000 2.941380 
# 
# 
# High freq. dielectric constant tensor:
#      x y z
#    x 1.605860 0.000000 0.000000 
#    y 0.000000 1.611370 0.000000 
#    z 0.000000 0.000000 1.587330 
# 
# From -- ./inp_files/36903.got.cif
#   From: 2010.06.25/outbox.cif.g09.slc.cpg/sg71_19_cif.got.tgz:36903.got - 2010.06.28 04:59:45.
