data_PCOD8287071
_publ_section_title
;
Structure prediction by ZEFSAII (Michael W. Deem and Ramdas Pophale) SiO2 
 PCOD8287071
Probable space group: I M M M
;
_chemical_formula_sum "Si O2"
_cell_formula_units_Z 104
_cell_length_a 23.135232
_cell_length_b 28.384999
_cell_length_c 8.516732
_cell_angle_alpha 90.000000
_cell_angle_beta 90.000000
_cell_angle_gamma 90.000000
_cell_volume 5592.882862
_symmetry_space_group_name_H-M "I M M M"
_symmetry_group_IT_number 71
_symmetry_cell_setting 'orthorhombic'
loop_
_space_group_symop_operation_xyz
x,y,z
-x,-y,z
x,-y,-z
-x,y,-z
-x,-y,-z
x,y,-z
-x,y,z
x,-y,z
1/2+x,1/2+y,1/2+z
1/2-x,1/2-y,1/2+z
1/2+x,1/2-y,1/2-z
1/2-x,1/2+y,1/2-z
1/2-x,1/2-y,1/2-z
1/2+x,1/2+y,1/2-z
1/2-x,1/2+y,1/2+z
1/2+x,1/2-y,1/2+z
loop_
_atom_site_type_symbol
_atom_site_label
_atom_site_fract_x
_atom_site_fract_y
_atom_site_fract_z
Si Si1 0.675906 0.303286 0.316006
Si Si2 0.226063 0.052339 0.313751
Si Si3 0.807526 0.707139 0.683120
Si Si4 0.000000 0.055142 0.185554
Si Si5 0.886453 0.106448 0.685409
Si Si6 0.062602 0.447967 0.814298
Si Si7 0.333396 0.887350 0.312753
O O1 0.671478 0.312196 0.500000
O O2 0.742528 0.305337 0.254613
O O3 0.659302 0.249787 0.271086
O O4 0.632076 0.340526 0.235736
O O5 0.229527 0.050220 0.500000
O O6 0.164478 0.071904 0.258012
O O7 0.275677 0.086864 0.250459
O O8 0.234413 0.000000 0.243324
O O9 0.806191 0.718723 0.500000
O O10 0.844087 0.661654 0.726269
O O11 0.055328 0.085501 0.240083
O O12 0.000000 0.000000 0.248792
O O13 0.000000 0.053381 0.000000
O O14 0.894874 0.106423 0.500000
O O15 0.068618 0.500000 0.742085
O O16 0.113064 0.416480 0.745539
O O17 0.000000 0.426501 0.769429
O O18 0.069530 0.451167 0.000000
O O19 0.332605 0.880877 0.500000
#
# Coordination Sequence:
#
# PCOD8287071 Si02
#       7
#    16  16  16   8  16  16  16
#     4  10  20  35  56  80 108 140 177 221 274 333
#     4   9  17  28  46  76 109 138 172 217 268 324
#     4  10  20  33  52  79 111 141 176 220 273 331
#     4  11  25  43  61  83 115 155 197 237 280 337
#     4  11  21  36  59  84 112 144 184 232 284 338
#     4   8  14  25  44  72 104 138 177 218 256 300
#     4  10  17  28  49  76 106 139 177 221 270 320
#
# _framework density 18.59506
#
# number of rings (size 3 to 8) (size 9 to 14) (size 15 to 20)
#    0.000    2.231    1.538    3.000    0.000    4.308 
#    0.000    0.000    1.692    3.231    0.000    1.077 
#    0.000    0.000    0.000    0.000    0.000    0.000 
#
# Total GULP energy -644416.334465 kJ/mol
# GULP energy per Si atom -12392.621817 kJ/mol
# Density = 1.855274 g / cm^3
# Si number density = 18.595060 Si / 1000 Ang^3
#
#
#
# Elastic Constant Matrix: (Units=GPa)
#
#
# Indices 1 2 3 4 5 6 
#
# 1 114.9550 64.9963 22.1505 0.0000 0.0000 0.0000
# 2 64.9963 149.6098 20.3476 0.0000 0.0000 0.0000
# 3 22.1505 20.3476 39.8811 0.0000 0.0000 0.0000
# 4 0.0000 0.0000 0.0000 25.7892 0.0000 0.0000
# 5 0.0000 0.0000 0.0000 0.0000 14.8580 0.0000
# 6 0.0000 0.0000 0.0000 0.0000 0.0000 27.5659
#
#
#
# Elastic Compliance Matrix: (Units=1/GPa)
#
#
# Indices 1 2 3 4 5 6 
#
# 1 0.012203 -0.004706 -0.004377 0.000000 0.000000 0.000000
# 2 -0.004706 0.008998 -0.001977 0.000000 0.000000 0.000000
# 3 -0.004377 -0.001977 0.028514 0.000000 0.000000 0.000000
# 4 0.000000 0.000000 0.000000 0.038776 0.000000 0.000000
# 5 0.000000 0.000000 0.000000 0.000000 0.067304 0.000000
# 6 0.000000 0.000000 0.000000 0.000000 0.000000 0.036277
#
#
# Mechanical properties :
#
#
# Convention : Reuss Voigt Hill
#
# Bulk Modulus (GPa) = 36.23788 57.71495 46.97642
# Shear Modulus (GPa) = 22.38248 26.77273 24.57760
#
# Velocity S-wave (km/s) = 3.47317 3.79856 3.63950
# Velocity P-wave (km/s) = 5.96776 7.09534 6.55584
#
# Compressibility (1/GPa) = 0.02759543
#
# Stress axis : x y z
#
# Youngs Moduli (GPa) = 81.94428 111.14171 35.07065
#
# Poissons Ratio (x) = 0.52308 0.15349
# Poissons Ratio (y) = 0.38566 0.06932
# Poissons Ratio (z) = 0.35865 0.21968
#
# Static dielectric constant tensor:
#      x y z
#    x 3.449340 0.000000 0.000000 
#    y 0.000000 3.685110 0.000000 
#    z 0.000000 0.000000 3.076120 
# 
# 
# High freq. dielectric constant tensor:
#      x y z
#    x 1.706250 0.000000 0.000000 
#    y 0.000000 1.733780 0.000000 
#    z 0.000000 0.000000 1.695400 
# 
# From -- ./inp_files/13289.got.cif
#   From: 2010.06.25/outbox.cif.g09.slc.cpg/sg71_7_cif.got.tgz:13289.got - 2010.06.28 04:59:45.
