data_PCOD8287289
_publ_section_title
;
Structure prediction by ZEFSAII (Michael W. Deem and Ramdas Pophale) SiO2 
 PCOD8287289
Probable space group: I M M M
;
_chemical_formula_sum "Si O2"
_cell_formula_units_Z 104
_cell_length_a 13.844513
_cell_length_b 17.445268
_cell_length_c 26.716212
_cell_angle_alpha 90.000000
_cell_angle_beta 90.000000
_cell_angle_gamma 90.000000
_cell_volume 6452.532640
_symmetry_space_group_name_H-M "I M M M"
_symmetry_group_IT_number 71
_symmetry_cell_setting 'orthorhombic'
loop_
_space_group_symop_operation_xyz
x,y,z
-x,-y,z
x,-y,-z
-x,y,-z
-x,-y,-z
x,y,-z
-x,y,z
x,-y,z
1/2+x,1/2+y,1/2+z
1/2-x,1/2-y,1/2+z
1/2+x,1/2-y,1/2-z
1/2-x,1/2+y,1/2-z
1/2-x,1/2-y,1/2-z
1/2+x,1/2+y,1/2-z
1/2-x,1/2+y,1/2+z
1/2+x,1/2-y,1/2+z
loop_
_atom_site_type_symbol
_atom_site_label
_atom_site_fract_x
_atom_site_fract_y
_atom_site_fract_z
Si Si1 0.292200 0.590541 0.373956
Si Si2 0.606485 0.409283 0.726762
Si Si3 0.887856 0.794779 0.057313
Si Si4 0.606068 0.090736 0.181492
Si Si5 0.613425 0.856196 0.380997
Si Si6 0.614529 0.000000 0.555465
Si Si7 0.706637 0.909183 0.282665
O O1 0.301138 0.500000 0.383087
O O2 0.359069 0.618822 0.327838
O O3 0.325677 0.633038 0.424072
O O4 0.181927 0.615277 0.361380
O O5 0.500000 0.374864 0.738584
O O6 0.602720 0.500000 0.724494
O O7 0.682392 0.386031 0.770034
O O8 0.861404 0.721794 0.090806
O O9 0.000000 0.815762 0.062151
O O10 0.860436 0.776954 0.000000
O O11 0.500000 0.125716 0.169885
O O12 0.641004 0.117419 0.236135
O O13 0.601761 0.000000 0.182644
O O14 0.500000 0.864331 0.369190
O O15 0.650637 0.924894 0.415866
O O16 0.672910 0.859363 0.329646
O O17 0.500000 0.000000 0.551482
O O18 0.660163 0.000000 0.500000
O O19 0.695523 0.000000 0.293419
#
# Coordination Sequence:
#
# PCOD8287289 Si02
#       7
#    16  16  16  16  16   8  16
#     4   9  17  30  49  69  88 118 154 183 217 266
#     4   8  14  25  42  65  94 123 150 182 218 257
#     4  10  21  34  46  63  89 118 148 188 235 269
#     4   8  14  25  44  70  98 121 143 176 218 264
#     4  10  18  28  43  64  92 121 147 181 224 267
#     4   9  16  26  42  62  85 117 153 183 215 264
#     4   9  15  24  42  69  94 119 151 179 212 262
#
# _framework density 16.117702999999999
#
# number of rings (size 3 to 8) (size 9 to 14) (size 15 to 20)
#    0.000    3.000    0.769    3.231    0.000    3.692 
#    0.000    3.846    0.000    3.231    0.000    2.154 
#    0.000    2.462    0.000    0.000    0.000    0.000 
#
# Total GULP energy -644555.761758 kJ/mol
# GULP energy per Si atom -12395.303111 kJ/mol
# Density = 1.608102 g / cm^3
# Si number density = 16.117703 Si / 1000 Ang^3
#
#
#
# Elastic Constant Matrix: (Units=GPa)
#
#
# Indices 1 2 3 4 5 6 
#
# 1 111.0931 31.0286 47.8557 0.0000 0.0000 0.0000
# 2 31.0286 53.6855 37.6094 0.0000 0.0000 0.0000
# 3 47.8557 37.6094 89.1635 0.0000 0.0000 0.0000
# 4 0.0000 0.0000 0.0000 22.2026 0.0000 0.0000
# 5 0.0000 0.0000 0.0000 0.0000 24.3302 0.0000
# 6 0.0000 0.0000 0.0000 0.0000 0.0000 13.1054
#
#
#
# Elastic Compliance Matrix: (Units=1/GPa)
#
#
# Indices 1 2 3 4 5 6 
#
# 1 0.012151 -0.003483 -0.005052 0.000000 0.000000 0.000000
# 2 -0.003483 0.027438 -0.009704 0.000000 0.000000 0.000000
# 3 -0.005052 -0.009704 0.018020 0.000000 0.000000 0.000000
# 4 0.000000 0.000000 0.000000 0.045040 0.000000 0.000000
# 5 0.000000 0.000000 0.000000 0.000000 0.041101 0.000000
# 6 0.000000 0.000000 0.000000 0.000000 0.000000 0.076304
#
#
# Mechanical properties :
#
#
# Convention : Reuss Voigt Hill
#
# Bulk Modulus (GPa) = 47.32593 54.10329 50.71461
# Shear Modulus (GPa) = 18.96977 21.09087 20.03032
#
# Velocity S-wave (km/s) = 3.43440 3.62132 3.52909
# Velocity P-wave (km/s) = 6.71961 7.15023 6.93826
#
# Compressibility (1/GPa) = 0.02113007
#
# Stress axis : x y z
#
# Youngs Moduli (GPa) = 82.29959 36.44517 55.49355
#
# Poissons Ratio (x) = 0.12696 0.28036
# Poissons Ratio (y) = 0.28669 0.53851
# Poissons Ratio (z) = 0.41579 0.35366
#
# Static dielectric constant tensor:
#      x y z
#    x 3.411650 0.000000 0.000000 
#    y 0.000000 2.753890 0.000000 
#    z 0.000000 0.000000 2.972490 
# 
# 
# High freq. dielectric constant tensor:
#      x y z
#    x 1.603880 0.000000 0.000000 
#    y 0.000000 1.594720 0.000000 
#    z 0.000000 0.000000 1.608890 
# 
# From -- ./inp_files/40472.got.cif
#   From: 2010.06.25/outbox.cif.g09.slc.cpg/sg71_21_cif.got.tgz:40472.got - 2010.06.28 04:59:45.
