data_PCOD8287315
_publ_section_title
;
Structure prediction by ZEFSAII (Michael W. Deem and Ramdas Pophale) SiO2 
 PCOD8287315
Probable space group: I M M M
;
_chemical_formula_sum "Si O2"
_cell_formula_units_Z 96
_cell_length_a 19.635259
_cell_length_b 31.440176
_cell_length_c 9.105926
_cell_angle_alpha 90.000000
_cell_angle_beta 90.000000
_cell_angle_gamma 90.000000
_cell_volume 5621.415922
_symmetry_space_group_name_H-M "I M M M"
_symmetry_group_IT_number 71
_symmetry_cell_setting 'orthorhombic'
loop_
_space_group_symop_operation_xyz
x,y,z
-x,-y,z
x,-y,-z
-x,y,-z
-x,-y,-z
x,y,-z
-x,y,z
x,-y,z
1/2+x,1/2+y,1/2+z
1/2-x,1/2-y,1/2+z
1/2+x,1/2-y,1/2-z
1/2-x,1/2+y,1/2-z
1/2-x,1/2-y,1/2-z
1/2+x,1/2+y,1/2-z
1/2-x,1/2+y,1/2+z
1/2+x,1/2-y,1/2+z
loop_
_atom_site_type_symbol
_atom_site_label
_atom_site_fract_x
_atom_site_fract_y
_atom_site_fract_z
Si Si1 0.922452 0.837109 0.672651
Si Si2 0.188033 0.500000 0.831572
Si Si3 0.576177 0.838169 0.324258
Si Si4 0.331287 0.415363 0.174694
Si Si5 0.581000 0.254951 0.337250
Si Si6 0.672452 0.500000 0.674082
Si Si7 0.176515 0.408118 0.169370
O O1 0.918117 0.832878 0.500000
O O2 0.877506 0.876367 0.728782
O O3 0.891732 0.793275 0.736718
O O4 0.000000 0.844602 0.725436
O O5 0.248334 0.500000 0.714921
O O6 0.145897 0.543801 0.807463
O O7 0.217612 0.500000 0.000000
O O8 0.574000 0.839742 0.500000
O O9 0.500000 0.846870 0.263201
O O10 0.603263 0.791413 0.274860
O O11 0.626718 0.873745 0.254342
O O12 0.360465 0.457555 0.254597
O O13 0.253909 0.406110 0.228688
O O14 0.334938 0.422213 0.000000
O O15 0.611042 0.261937 0.500000
O O16 0.500000 0.255170 0.342405
O O17 0.661438 0.500000 0.500000
O O18 0.178426 0.395834 0.000000
#
# Coordination Sequence:
#
# PCOD8287315 Si02
#       7
#    16   8  16  16  16   8  16
#     4   9  17  29  45  63  81 105 139 174 205 241
#     4   8  14  26  43  61  83 114 145 169 202 246
#     4   8  13  22  38  61  86 110 138 171 205 243
#     4   9  17  30  46  62  83 110 137 167 206 248
#     4   8  14  25  41  59  80 109 140 168 204 248
#     4  10  18  28  45  66  85 108 139 170 200 240
#     4   8  13  23  40  59  80 109 141 169 202 246
#
# _framework density 17.077548
#
# number of rings (size 3 to 8) (size 9 to 14) (size 15 to 20)
#    0.000    3.500    0.000    2.750    0.000    0.667 
#    0.000    1.667    0.000    9.000    0.000    0.000 
#    0.000   10.667    0.000    0.000    0.000    0.000 
#
# Total GULP energy -594627.644634 kJ/mol
# GULP energy per Si atom -12388.075930 kJ/mol
# Density = 1.703868 g / cm^3
# Si number density = 17.077548 Si / 1000 Ang^3
#
#
#
# Elastic Constant Matrix: (Units=GPa)
#
#
# Indices 1 2 3 4 5 6 
#
# 1 57.7688 69.7326 14.7669 -0.0005 0.0004 0.0000
# 2 69.7326 200.2084 35.3147 0.0001 0.0005 0.0002
# 3 14.7669 35.3147 28.5953 0.0008 0.0005 0.0010
# 4 -0.0005 0.0001 0.0008 21.8916 -0.0010 0.0000
# 5 0.0004 0.0005 0.0005 -0.0010 8.3834 -0.0003
# 6 0.0000 0.0002 0.0010 0.0000 -0.0003 33.4624
#
#
#
# Elastic Compliance Matrix: (Units=1/GPa)
#
#
# Indices 1 2 3 4 5 6 
#
# 1 0.030112 -0.009902 -0.003321 0.000001 -0.000001 0.000000
# 2 -0.009902 0.009642 -0.006794 0.000000 0.000000 0.000000
# 3 -0.003321 -0.006794 0.045077 -0.000002 -0.000002 -0.000001
# 4 0.000001 0.000000 -0.000002 0.045680 0.000006 0.000000
# 5 -0.000001 0.000000 -0.000002 0.000006 0.119283 0.000001
# 6 0.000000 0.000000 -0.000001 0.000000 0.000001 0.029884
#
#
# Mechanical properties :
#
#
# Convention : Reuss Voigt Hill
#
# Bulk Modulus (GPa) = 22.32347 58.46677 40.39512
# Shear Modulus (GPa) = 14.94116 23.86469 19.40293
#
# Velocity S-wave (km/s) = 2.96108 3.74228 3.37436
# Velocity P-wave (km/s) = 4.97904 7.27896 6.23595
#
# Compressibility (1/GPa) = 0.04479591
#
# Stress axis : x y z
#
# Youngs Moduli (GPa) = 33.20884 103.71022 22.18435
#
# Poissons Ratio (x) = 1.02698 0.07368
# Poissons Ratio (y) = 0.32885 0.15073
# Poissons Ratio (z) = 0.11029 0.70464
#
# Static dielectric constant tensor:
#      x y z
#    x 3.040780 0.000000 0.000000 
#    y 0.000000 3.770850 -0.000010 
#    z 0.000000 -0.000010 2.813510 
# 
# 
# High freq. dielectric constant tensor:
#      x y z
#    x 1.614760 0.000000 0.000000 
#    y 0.000000 1.683170 0.000000 
#    z 0.000000 0.000000 1.613900 
# 
# From -- ./inp_files/13227.got.cif
#   From: 2010.06.25/outbox.cif.g09.slc.cpg/sg71_7_cif.got.tgz:13227.got - 2010.06.28 04:59:45.
