data_PCOD8287999
_publ_section_title
;
Structure prediction by ZEFSAII (Michael W. Deem and Ramdas Pophale) SiO2 
 PCOD8287999
Probable space group: I M M M
;
_chemical_formula_sum "Si O2"
_cell_formula_units_Z 104
_cell_length_a 21.109800
_cell_length_b 14.459746
_cell_length_c 20.850363
_cell_angle_alpha 90.000000
_cell_angle_beta 90.000000
_cell_angle_gamma 90.000000
_cell_volume 6364.413719
_symmetry_space_group_name_H-M "I M M M"
_symmetry_group_IT_number 71
_symmetry_cell_setting 'orthorhombic'
loop_
_space_group_symop_operation_xyz
x,y,z
-x,-y,z
x,-y,-z
-x,y,-z
-x,-y,-z
x,y,-z
-x,y,z
x,-y,z
1/2+x,1/2+y,1/2+z
1/2-x,1/2-y,1/2+z
1/2+x,1/2-y,1/2-z
1/2-x,1/2+y,1/2-z
1/2-x,1/2-y,1/2-z
1/2+x,1/2+y,1/2-z
1/2-x,1/2+y,1/2+z
1/2+x,1/2-y,1/2+z
loop_
_atom_site_type_symbol
_atom_site_label
_atom_site_fract_x
_atom_site_fract_y
_atom_site_fract_z
Si Si1 0.687638 0.744460 0.829634
Si Si2 0.284491 0.893745 0.270574
Si Si3 0.331160 0.500000 0.572172
Si Si4 0.571564 0.315428 0.236453
Si Si5 0.000000 0.605117 0.924380
Si Si6 0.574210 0.500000 0.309944
Si Si7 0.114183 0.691577 0.149491
Si Si8 0.782749 0.198196 0.926977
O O1 0.694830 0.842667 0.794216
O O2 0.723262 0.660182 0.795252
O O3 0.614313 0.712459 0.825512
O O4 0.715855 0.761225 0.900479
O O5 0.341025 0.889571 0.322868
O O6 0.267252 0.000000 0.256105
O O7 0.361139 0.500000 0.500000
O O8 0.387941 0.500000 0.623248
O O9 0.285060 0.412241 0.580348
O O10 0.500000 0.318723 0.211028
O O11 0.592738 0.412545 0.266747
O O12 0.578165 0.239650 0.291994
O O13 0.936729 0.652506 0.899289
O O14 0.000000 0.500000 0.900969
O O15 0.000000 0.614502 0.000000
O O16 0.500000 0.500000 0.328231
O O17 0.157661 0.764789 0.112645
O O18 0.787850 0.231521 0.000000
#
# Coordination Sequence:
#
# PCOD8287999 Si02
#       8
#    16  16   8  16   8   8  16  16
#     4   9  20  31  49  75  93 128 163 199 260 295
#     4   9  18  30  48  71  95 122 159 207 248 290
#     4  10  20  31  48  74 105 141 171 202 242 294
#     4  10  19  33  51  73 103 127 161 205 244 301
#     4  11  22  32  46  65  91 135 178 207 238 277
#     4  10  20  31  48  74 105 141 165 198 244 292
#     4  10  18  33  48  68  95 131 166 203 242 284
#     4  10  20  34  50  71 101 132 168 207 246 300
#
# _framework density 16.340861
#
# number of rings (size 3 to 8) (size 9 to 14) (size 15 to 20)
#    0.000    2.231    2.308    1.846    2.154    0.154 
#    0.000    0.000    0.000    4.615    0.000    0.000 
#    0.000    3.692    0.000    0.000    0.000    0.000 
#
# Total GULP energy -644558.935899 kJ/mol
# GULP energy per Si atom -12395.364152 kJ/mol
# Density = 1.630367 g / cm^3
# Si number density = 16.340861 Si / 1000 Ang^3
#
#
#
# Elastic Constant Matrix: (Units=GPa)
#
#
# Indices 1 2 3 4 5 6 
#
# 1 86.8573 26.9285 33.1215 0.0000 0.0000 0.0000
# 2 26.9285 96.8574 11.9145 0.0000 0.0000 0.0000
# 3 33.1215 11.9145 41.5975 0.0000 0.0000 0.0000
# 4 0.0000 0.0000 0.0000 18.6269 0.0000 0.0000
# 5 0.0000 0.0000 0.0000 0.0000 24.5078 0.0000
# 6 0.0000 0.0000 0.0000 0.0000 0.0000 19.9456
#
#
#
# Elastic Compliance Matrix: (Units=1/GPa)
#
#
# Indices 1 2 3 4 5 6 
#
# 1 0.017474 -0.003261 -0.012979 0.000000 0.000000 0.000000
# 2 -0.003261 0.011310 -0.000643 0.000000 0.000000 0.000000
# 3 -0.012979 -0.000643 0.034558 0.000000 0.000000 0.000000
# 4 0.000000 0.000000 0.000000 0.053686 0.000000 0.000000
# 5 0.000000 0.000000 0.000000 0.000000 0.040803 0.000000
# 6 0.000000 0.000000 0.000000 0.000000 0.000000 0.050136
#
#
# Mechanical properties :
#
#
# Convention : Reuss Voigt Hill
#
# Bulk Modulus (GPa) = 33.81112 41.02679 37.41895
# Shear Modulus (GPa) = 19.87338 22.83923 21.35630
#
# Velocity S-wave (km/s) = 3.49116 3.74261 3.61907
# Velocity P-wave (km/s) = 6.08169 6.62099 6.35706
#
# Compressibility (1/GPa) = 0.02957607
#
# Stress axis : x y z
#
# Youngs Moduli (GPa) = 57.22917 88.41527 28.93656
#
# Poissons Ratio (x) = 0.28837 0.37557
# Poissons Ratio (y) = 0.18665 0.01859
# Poissons Ratio (z) = 0.74278 0.05682
#
# Static dielectric constant tensor:
#      x y z
#    x 3.089770 0.000000 0.000000 
#    y 0.000000 3.129690 0.000000 
#    z 0.000000 0.000000 2.966450 
# 
# 
# High freq. dielectric constant tensor:
#      x y z
#    x 1.622800 0.000000 0.000000 
#    y 0.000000 1.636820 0.000000 
#    z 0.000000 0.000000 1.603170 
# 
# From -- ./inp_files/48272.got.cif
#   From: 2010.06.25/outbox.cif.g09.slc.cpg/sg71_25_cif.got.tgz:48272.got - 2010.06.28 04:59:45.
