data_PCOD8287074
_publ_section_title
;
Structure prediction by ZEFSAII (Michael W. Deem and Ramdas Pophale) SiO2 
 PCOD8287074
Probable space group: I M M M
;
_chemical_formula_sum "Si O2"
_cell_formula_units_Z 104
_cell_length_a 23.863560
_cell_length_b 12.880251
_cell_length_c 19.528174
_cell_angle_alpha 90.000000
_cell_angle_beta 90.000000
_cell_angle_gamma 90.000000
_cell_volume 6002.348334
_symmetry_space_group_name_H-M "I M M M"
_symmetry_group_IT_number 71
_symmetry_cell_setting 'orthorhombic'
loop_
_space_group_symop_operation_xyz
x,y,z
-x,-y,z
x,-y,-z
-x,y,-z
-x,-y,-z
x,y,-z
-x,y,z
x,-y,z
1/2+x,1/2+y,1/2+z
1/2-x,1/2-y,1/2+z
1/2+x,1/2-y,1/2-z
1/2-x,1/2+y,1/2-z
1/2-x,1/2-y,1/2-z
1/2+x,1/2+y,1/2-z
1/2-x,1/2+y,1/2+z
1/2+x,1/2-y,1/2+z
loop_
_atom_site_type_symbol
_atom_site_label
_atom_site_fract_x
_atom_site_fract_y
_atom_site_fract_z
Si Si1 0.815842 0.743098 0.000000
Si Si2 0.564368 0.882638 0.920530
Si Si3 0.703543 0.621935 0.000000
Si Si4 0.344122 0.381763 0.260289
Si Si5 0.562480 0.382541 0.361399
Si Si6 0.768031 0.882331 0.885195
Si Si7 0.438299 0.255657 0.500000
Si Si8 0.161431 0.247124 0.624532
O O1 0.769129 0.653661 0.000000
O O2 0.809011 0.815094 0.066878
O O3 0.879128 0.691229 0.000000
O O4 0.500000 0.852455 0.908681
O O5 0.600518 0.799523 0.878678
O O6 0.575531 0.000000 0.894388
O O7 0.580518 0.875024 0.000000
O O8 0.670539 0.661930 0.066141
O O9 0.700985 0.500000 0.000000
O O10 0.355952 0.500000 0.235637
O O11 0.396593 0.335928 0.303556
O O12 0.289337 0.377897 0.307562
O O13 0.331908 0.308161 0.196867
O O14 0.500000 0.378085 0.330806
O O15 0.582343 0.500000 0.376181
O O16 0.564757 0.324935 0.433012
O O17 0.705522 0.838995 0.886545
O O18 0.766590 0.000000 0.912857
O O19 0.500000 0.195864 0.500000
#
# Coordination Sequence:
#
# PCOD8287074 Si02
#       8
#     8  16   8  16  16  16   8  16
#     4  10  19  32  54  79 103 131 167 205 258 311
#     4   9  18  34  56  81 105 126 157 208 265 311
#     4  10  22  37  52  72 101 134 174 215 247 293
#     4  10  20  32  47  68 103 140 171 208 250 301
#     4   9  17  28  44  70 102 135 166 200 247 301
#     4  10  20  32  49  76 106 130 161 212 263 310
#     4  10  17  28  50  77 102 127 162 206 253 301
#     4  11  20  34  53  75  97 135 176 209 252 302
#
# _framework density 17.326550999999998
#
# number of rings (size 3 to 8) (size 9 to 14) (size 15 to 20)
#    0.000    2.154    2.308    2.308    0.000    2.154 
#    0.000    0.000    0.000    3.000    0.000    0.000 
#    0.000    0.000    0.000    0.000    0.000    0.000 
#
# Total GULP energy -644578.018607 kJ/mol
# GULP energy per Si atom -12395.731127 kJ/mol
# Density = 1.728711 g / cm^3
# Si number density = 17.326551 Si / 1000 Ang^3
#
#
#
# Elastic Constant Matrix: (Units=GPa)
#
#
# Indices 1 2 3 4 5 6 
#
# 1 98.2505 35.9219 23.3385 0.0000 0.0000 0.0000
# 2 35.9219 76.5673 27.9207 0.0000 0.0000 0.0000
# 3 23.3385 27.9207 78.1293 0.0000 0.0000 0.0000
# 4 0.0000 0.0000 0.0000 12.3960 0.0000 0.0000
# 5 0.0000 0.0000 0.0000 0.0000 18.0650 0.0000
# 6 0.0000 0.0000 0.0000 0.0000 0.0000 18.7060
#
#
#
# Elastic Compliance Matrix: (Units=1/GPa)
#
#
# Indices 1 2 3 4 5 6 
#
# 1 0.012523 -0.005187 -0.001887 0.000000 0.000000 0.000000
# 2 -0.005187 0.017166 -0.004585 0.000000 0.000000 0.000000
# 3 -0.001887 -0.004585 0.015002 0.000000 0.000000 0.000000
# 4 0.000000 0.000000 0.000000 0.080671 0.000000 0.000000
# 5 0.000000 0.000000 0.000000 0.000000 0.055356 0.000000
# 6 0.000000 0.000000 0.000000 0.000000 0.000000 0.053459
#
#
# Mechanical properties :
#
#
# Convention : Reuss Voigt Hill
#
# Bulk Modulus (GPa) = 46.79040 47.47882 47.13461
# Shear Modulus (GPa) = 18.89517 20.88448 19.88982
#
# Velocity S-wave (km/s) = 3.30590 3.47558 3.39180
# Velocity P-wave (km/s) = 6.45257 6.60061 6.52701
#
# Compressibility (1/GPa) = 0.02137191
#
# Stress axis : x y z
#
# Youngs Moduli (GPa) = 79.85459 58.25524 66.65986
#
# Poissons Ratio (x) = 0.30217 0.12580
# Poissons Ratio (y) = 0.41420 0.30564
# Poissons Ratio (z) = 0.15070 0.26710
#
# Static dielectric constant tensor:
#      x y z
#    x 3.513620 0.000000 0.000000 
#    y 0.000000 2.927740 0.000000 
#    z 0.000000 0.000000 3.133340 
# 
# 
# High freq. dielectric constant tensor:
#      x y z
#    x 1.684750 0.000000 0.000000 
#    y 0.000000 1.637080 0.000000 
#    z 0.000000 0.000000 1.663070 
# 
# From -- ./inp_files/48866.got.cif
#   From: 2010.06.25/outbox.cif.g09.slc.cpg/sg71_25_cif.got.tgz:48866.got - 2010.06.28 04:59:45.
