data_PCOD8287476
_publ_section_title
;
Structure prediction by ZEFSAII (Michael W. Deem and Ramdas Pophale) SiO2 
 PCOD8287476
Probable space group: I M M M
;
_chemical_formula_sum "Si O2"
_cell_formula_units_Z 120
_cell_length_a 21.193084
_cell_length_b 23.080044
_cell_length_c 14.311841
_cell_angle_alpha 90.000000
_cell_angle_beta 90.000000
_cell_angle_gamma 90.000000
_cell_volume 7000.455425
_symmetry_space_group_name_H-M "I M M M"
_symmetry_group_IT_number 71
_symmetry_cell_setting 'orthorhombic'
loop_
_space_group_symop_operation_xyz
x,y,z
-x,-y,z
x,-y,-z
-x,y,-z
-x,-y,-z
x,y,-z
-x,y,z
x,-y,z
1/2+x,1/2+y,1/2+z
1/2-x,1/2-y,1/2+z
1/2+x,1/2-y,1/2-z
1/2-x,1/2+y,1/2-z
1/2-x,1/2-y,1/2-z
1/2+x,1/2+y,1/2-z
1/2-x,1/2+y,1/2+z
1/2+x,1/2-y,1/2+z
loop_
_atom_site_type_symbol
_atom_site_label
_atom_site_fract_x
_atom_site_fract_y
_atom_site_fract_z
Si Si1 0.569852 0.714009 0.892925
Si Si2 0.311204 0.358186 0.107143
Si Si3 0.390356 0.064944 0.261430
Si Si4 0.750773 0.334139 0.607361
Si Si5 0.500000 0.067076 0.600266
Si Si6 0.124059 0.315606 0.707109
Si Si7 0.254400 0.435155 0.749994
Si Si8 0.812080 0.283227 0.893391
O O1 0.500000 0.686613 0.881793
O O2 0.622362 0.668608 0.858999
O O3 0.571527 0.771503 0.829131
O O4 0.583303 0.731800 0.000000
O O5 0.300121 0.416320 0.166215
O O6 0.255341 0.312851 0.127465
O O7 0.314532 0.376799 0.000000
O O8 0.435643 0.082584 0.346400
O O9 0.399747 0.117903 0.188207
O O10 0.316950 0.066942 0.290788
O O11 0.407209 0.000000 0.221861
O O12 0.761117 0.351198 0.500000
O O13 0.813407 0.304016 0.647287
O O14 0.734523 0.392823 0.662435
O O15 0.695703 0.286268 0.618297
O O16 0.500000 0.099781 0.500000
O O17 0.500000 0.000000 0.581086
O O18 0.137205 0.306193 0.818253
O O19 0.271847 0.500000 0.717720
O O20 0.834088 0.297452 0.000000
#
# Coordination Sequence:
#
# PCOD8287476 Si02
#       8
#    16  16  16  16   8  16  16  16
#     4  10  21  34  51  75  99 127 170 213 254 305
#     4  10  18  32  52  74 101 130 160 205 258 306
#     4   9  19  31  43  64  93 127 166 201 237 281
#     4  10  18  29  47  71  99 131 160 194 240 292
#     4   9  18  32  46  58  81 123 167 201 235 280
#     4  11  18  30  50  69  99 129 165 204 252 287
#     4  10  20  33  49  74 100 128 164 204 246 295
#     4  10  18  29  49  77 101 126 160 199 251 308
#
# _framework density 17.141743000000002
#
# number of rings (size 3 to 8) (size 9 to 14) (size 15 to 20)
#    0.000    2.067    4.000    1.600    0.933    1.600 
#    0.000    1.333    0.000    1.600    0.000    2.800 
#    0.000    0.000    0.000    4.800    0.000    0.000 
#
# Total GULP energy -743573.091594 kJ/mol
# GULP energy per Si atom -12392.884860 kJ/mol
# Density = 1.710273 g / cm^3
# Si number density = 17.141743 Si / 1000 Ang^3
#
#
#
# Elastic Constant Matrix: (Units=GPa)
#
#
# Indices 1 2 3 4 5 6 
#
# 1 49.4306 20.1299 22.4719 0.0000 0.0000 0.0000
# 2 20.1299 84.3533 29.9566 0.0000 0.0000 0.0000
# 3 22.4719 29.9566 73.1962 0.0000 0.0000 0.0000
# 4 0.0000 0.0000 0.0000 20.8518 0.0000 0.0000
# 5 0.0000 0.0000 0.0000 0.0000 21.2833 0.0000
# 6 0.0000 0.0000 0.0000 0.0000 0.0000 15.3097
#
#
#
# Elastic Compliance Matrix: (Units=1/GPa)
#
#
# Indices 1 2 3 4 5 6 
#
# 1 0.024466 -0.003710 -0.005993 0.000000 0.000000 0.000000
# 2 -0.003710 0.014434 -0.004768 0.000000 0.000000 0.000000
# 3 -0.005993 -0.004768 0.017453 0.000000 0.000000 0.000000
# 4 0.000000 0.000000 0.000000 0.047958 0.000000 0.000000
# 5 0.000000 0.000000 0.000000 0.000000 0.046985 0.000000
# 6 0.000000 0.000000 0.000000 0.000000 0.000000 0.065318
#
#
# Mechanical properties :
#
#
# Convention : Reuss Voigt Hill
#
# Bulk Modulus (GPa) = 36.48254 39.12186 37.80220
# Shear Modulus (GPa) = 19.63154 20.45040 20.04097
#
# Velocity S-wave (km/s) = 3.38782 3.45776 3.42297
# Velocity P-wave (km/s) = 6.05245 6.23005 6.14189
#
# Compressibility (1/GPa) = 0.02741037
#
# Stress axis : x y z
#
# Youngs Moduli (GPa) = 40.87352 69.28280 57.29628
#
# Poissons Ratio (x) = 0.25706 0.34336
# Poissons Ratio (y) = 0.15165 0.27319
# Poissons Ratio (z) = 0.24494 0.33035
#
# Static dielectric constant tensor:
#      x y z
#    x 3.265500 0.000000 0.000000 
#    y 0.000000 3.271150 0.000000 
#    z 0.000000 0.000000 3.227120 
# 
# 
# High freq. dielectric constant tensor:
#      x y z
#    x 1.632420 0.000000 0.000000 
#    y 0.000000 1.656440 0.000000 
#    z 0.000000 0.000000 1.651860 
# 
# From -- ./inp_files/38527.got.cif
#   From: 2010.06.25/outbox.cif.g09.slc.cpg/sg71_20_cif.got.tgz:38527.got - 2010.06.28 04:59:45.
