data_PCOD8287249
_publ_section_title
;
Structure prediction by ZEFSAII (Michael W. Deem and Ramdas Pophale) SiO2 
 PCOD8287249
Probable space group: I M M M
;
_chemical_formula_sum "Si O2"
_cell_formula_units_Z 72
_cell_length_a 14.109021
_cell_length_b 14.314288
_cell_length_c 20.862840
_cell_angle_alpha 90.000000
_cell_angle_beta 90.000000
_cell_angle_gamma 90.000000
_cell_volume 4213.471475
_symmetry_space_group_name_H-M "I M M M"
_symmetry_group_IT_number 71
_symmetry_cell_setting 'orthorhombic'
loop_
_space_group_symop_operation_xyz
x,y,z
-x,-y,z
x,-y,-z
-x,y,-z
-x,-y,-z
x,y,-z
-x,y,z
x,-y,z
1/2+x,1/2+y,1/2+z
1/2-x,1/2-y,1/2+z
1/2+x,1/2-y,1/2-z
1/2-x,1/2+y,1/2-z
1/2-x,1/2-y,1/2-z
1/2+x,1/2+y,1/2-z
1/2-x,1/2+y,1/2+z
1/2+x,1/2-y,1/2+z
loop_
_atom_site_type_symbol
_atom_site_label
_atom_site_fract_x
_atom_site_fract_y
_atom_site_fract_z
Si Si1 0.887790 0.104520 0.429185
Si Si2 0.605941 0.393901 0.309188
Si Si3 0.296211 0.892792 0.130200
Si Si4 0.892860 0.610583 0.500000
Si Si5 0.888760 0.773116 0.686668
O O1 0.861133 0.144518 0.500000
O O2 0.844940 0.169300 0.373367
O O3 0.000000 0.099801 0.421418
O O4 0.846167 0.000000 0.421615
O O5 0.500000 0.369991 0.334707
O O6 0.608255 0.500000 0.282468
O O7 0.681607 0.382526 0.366875
O O8 0.636639 0.325495 0.252098
O O9 0.342146 0.829759 0.186254
O O10 0.326790 0.000000 0.142139
O O11 0.335442 0.855429 0.062294
O O12 0.899188 0.500000 0.500000
O O13 0.000000 0.653213 0.500000
O O14 0.000000 0.760867 0.678990
#
# Coordination Sequence:
#
# PCOD8287249 Si02
#       5
#    16  16  16   8  16
#     4   8  14  24  38  60  90 120 150 183 220 267
#     4   9  18  33  50  67  88 118 158 201 240 275
#     4  10  20  32  46  66  94 126 158 192 229 275
#     4   9  18  32  47  65  92 122 149 178 219 275
#     4  10  18  27  45  68  93 124 153 185 231 280
#
# _framework density 17.088048000000001
#
# number of rings (size 3 to 8) (size 9 to 14) (size 15 to 20)
#    0.000    2.778    0.000    2.667    1.556    4.000 
#    0.000    0.556    0.000    3.333    0.000    0.000 
#    0.000    0.000    0.000    2.444    0.000    0.889 
#
# Total GULP energy -446181.992537 kJ/mol
# GULP energy per Si atom -12393.944237 kJ/mol
# Density = 1.704915 g / cm^3
# Si number density = 17.088048 Si / 1000 Ang^3
#
#
#
# Elastic Constant Matrix: (Units=GPa)
#
#
# Indices 1 2 3 4 5 6 
#
# 1 82.8469 33.7236 59.6334 0.0000 0.0000 0.0000
# 2 33.7236 61.7399 31.1545 0.0000 0.0000 0.0000
# 3 59.6334 31.1545 74.9773 0.0000 0.0000 0.0000
# 4 0.0000 0.0000 0.0000 16.9136 0.0000 0.0000
# 5 0.0000 0.0000 0.0000 0.0000 26.4776 0.0000
# 6 0.0000 0.0000 0.0000 0.0000 0.0000 18.1045
#
#
#
# Elastic Compliance Matrix: (Units=1/GPa)
#
#
# Indices 1 2 3 4 5 6 
#
# 1 0.029605 -0.005427 -0.021292 0.000000 0.000000 0.000000
# 2 -0.005427 0.021489 -0.004613 0.000000 0.000000 0.000000
# 3 -0.021292 -0.004613 0.032188 0.000000 0.000000 0.000000
# 4 0.000000 0.000000 0.000000 0.059124 0.000000 0.000000
# 5 0.000000 0.000000 0.000000 0.000000 0.037768 0.000000
# 6 0.000000 0.000000 0.000000 0.000000 0.000000 0.055235
#
#
# Mechanical properties :
#
#
# Convention : Reuss Voigt Hill
#
# Bulk Modulus (GPa) = 48.49670 52.06524 50.28097
# Shear Modulus (GPa) = 16.39636 18.63597 17.51616
#
# Velocity S-wave (km/s) = 3.10098 3.30598 3.20512
# Velocity P-wave (km/s) = 6.42367 6.71622 6.57157
#
# Compressibility (1/GPa) = 0.02061996
#
# Stress axis : x y z
#
# Youngs Moduli (GPa) = 33.77756 46.53557 31.06708
#
# Poissons Ratio (x) = 0.25255 0.66147
# Poissons Ratio (y) = 0.18331 0.14330
# Poissons Ratio (z) = 0.71918 0.21465
#
# Static dielectric constant tensor:
#      x y z
#    x 3.012800 0.000000 0.000000 
#    y 0.000000 3.334360 0.000000 
#    z 0.000000 0.000000 3.156990 
# 
# 
# High freq. dielectric constant tensor:
#      x y z
#    x 1.625090 0.000000 0.000000 
#    y 0.000000 1.668270 0.000000 
#    z 0.000000 0.000000 1.641590 
# 
# From -- ./inp_files/21793.got.cif
#   From: 2010.06.25/outbox.cif.g09.slc.cpg/sg71_11_cif.got.tgz:21793.got - 2010.06.28 04:59:45.
