data_PCOD8287393
_publ_section_title
;
Structure prediction by ZEFSAII (Michael W. Deem and Ramdas Pophale) SiO2 
 PCOD8287393
Probable space group: I M M M
;
_chemical_formula_sum "Si O2"
_cell_formula_units_Z 120
_cell_length_a 20.375097
_cell_length_b 14.116328
_cell_length_c 25.504845
_cell_angle_alpha 90.000000
_cell_angle_beta 90.000000
_cell_angle_gamma 90.000000
_cell_volume 7335.743110
_symmetry_space_group_name_H-M "I M M M"
_symmetry_group_IT_number 71
_symmetry_cell_setting 'orthorhombic'
loop_
_space_group_symop_operation_xyz
x,y,z
-x,-y,z
x,-y,-z
-x,y,-z
-x,-y,-z
x,y,-z
-x,y,z
x,-y,z
1/2+x,1/2+y,1/2+z
1/2-x,1/2-y,1/2+z
1/2+x,1/2-y,1/2-z
1/2-x,1/2+y,1/2-z
1/2-x,1/2-y,1/2-z
1/2+x,1/2+y,1/2-z
1/2-x,1/2+y,1/2+z
1/2+x,1/2-y,1/2+z
loop_
_atom_site_type_symbol
_atom_site_label
_atom_site_fract_x
_atom_site_fract_y
_atom_site_fract_z
Si Si1 0.125120 0.224529 0.440863
Si Si2 0.500000 0.602097 0.938864
Si Si3 0.759267 0.609621 0.058354
Si Si4 0.423284 0.227647 0.160313
Si Si5 0.202701 0.695076 0.842064
Si Si6 0.644153 0.892501 0.755499
Si Si7 0.338729 0.392110 0.803132
Si Si8 0.714603 0.603712 0.692696
O O1 0.116733 0.267182 0.500000
O O2 0.065860 0.156362 0.423684
O O3 0.191529 0.166209 0.436544
O O4 0.117820 0.301692 0.393529
O O5 0.500000 0.500000 0.910340
O O6 0.500000 0.585872 0.000000
O O7 0.745022 0.500000 0.070374
O O8 0.811429 0.652362 0.099999
O O9 0.788691 0.622500 0.000000
O O10 0.500000 0.227551 0.148128
O O11 0.409640 0.153485 0.206646
O O12 0.401461 0.332717 0.178473
O O13 0.147877 0.660838 0.800602
O O14 0.273731 0.657337 0.825388
O O15 0.201410 0.809699 0.846939
O O16 0.713573 0.884307 0.783543
O O17 0.623541 0.000000 0.744475
O O18 0.342891 0.500000 0.823810
O O19 0.337107 0.390100 0.740109
O O20 0.708041 0.500000 0.664804
#
# Coordination Sequence:
#
# PCOD8287393 Si02
#       8
#    16   8  16  16  16  16  16  16
#     4  10  19  30  41  56  85 124 159 194 234 275
#     4   9  16  26  38  52  75 115 163 195 217 258
#     4  10  19  28  42  68  98 124 152 190 238 287
#     4  12  22  32  44  63  92 126 164 202 235 272
#     4  11  16  30  51  69  92 121 151 189 236 292
#     4  10  19  32  49  68  86 113 154 200 245 284
#     4  10  18  29  44  67  92 117 152 192 234 280
#     4   9  16  28  50  70  87 113 150 192 233 285
#
# _framework density 16.358260999999999
#
# number of rings (size 3 to 8) (size 9 to 14) (size 15 to 20)
#    0.000    1.800    4.667    3.200    0.000    2.667 
#    0.000    0.000    0.000    0.800    0.000    4.667 
#    0.000    0.533    0.000    2.800    0.000    4.267 
#
# Total GULP energy -743434.877126 kJ/mol
# GULP energy per Si atom -12390.581285 kJ/mol
# Density = 1.632103 g / cm^3
# Si number density = 16.358261 Si / 1000 Ang^3
#
#
#
# Elastic Constant Matrix: (Units=GPa)
#
#
# Indices 1 2 3 4 5 6 
#
# 1 24.2920 12.2895 25.8269 0.0000 0.0000 0.0000
# 2 12.2895 100.8196 43.6310 0.0000 0.0000 0.0000
# 3 25.8269 43.6310 105.4699 0.0000 0.0000 0.0000
# 4 0.0000 0.0000 0.0000 21.4307 0.0000 0.0000
# 5 0.0000 0.0000 0.0000 0.0000 21.1269 0.0000
# 6 0.0000 0.0000 0.0000 0.0000 0.0000 8.2341
#
#
#
# Elastic Compliance Matrix: (Units=1/GPa)
#
#
# Indices 1 2 3 4 5 6 
#
# 1 0.055752 -0.001081 -0.013205 0.000000 0.000000 0.000000
# 2 -0.001081 0.012103 -0.004742 0.000000 0.000000 0.000000
# 3 -0.013205 -0.004742 0.014677 0.000000 0.000000 0.000000
# 4 0.000000 0.000000 0.000000 0.046662 0.000000 0.000000
# 5 0.000000 0.000000 0.000000 0.000000 0.047333 0.000000
# 6 0.000000 0.000000 0.000000 0.000000 0.000000 0.121447
#
#
# Mechanical properties :
#
#
# Convention : Reuss Voigt Hill
#
# Bulk Modulus (GPa) = 22.48450 43.78626 33.13538
# Shear Modulus (GPa) = 14.25091 20.08059 17.16575
#
# Velocity S-wave (km/s) = 2.95477 3.50744 3.24290
# Velocity P-wave (km/s) = 5.04141 6.57480 5.85849
#
# Compressibility (1/GPa) = 0.04447508
#
# Stress axis : x y z
#
# Youngs Moduli (GPa) = 17.93650 82.62685 68.13584
#
# Poissons Ratio (x) = 0.08935 0.89973
# Poissons Ratio (y) = 0.01940 0.32309
# Poissons Ratio (z) = 0.23685 0.39180
#
# Static dielectric constant tensor:
#      x y z
#    x 3.264640 0.000000 0.000000 
#    y 0.000000 3.277860 0.000000 
#    z 0.000000 0.000000 3.489170 
# 
# 
# High freq. dielectric constant tensor:
#      x y z
#    x 1.576920 0.000000 0.000000 
#    y 0.000000 1.621940 0.000000 
#    z 0.000000 0.000000 1.627610 
# 
# From -- ./inp_files/61416.got.cif
#   From: 2010.06.25/outbox.cif.g09.slc.cpg/sg71_31_cif.got.tgz:61416.got - 2010.06.28 04:59:45.
