data_PCOD8287784
_publ_section_title
;
Structure prediction by ZEFSAII (Michael W. Deem and Ramdas Pophale) SiO2 
 PCOD8287784
Probable space group: I M M M
;
_chemical_formula_sum "Si O2"
_cell_formula_units_Z 120
_cell_length_a 12.811426
_cell_length_b 19.804726
_cell_length_c 26.315523
_cell_angle_alpha 90.000000
_cell_angle_beta 90.000000
_cell_angle_gamma 90.000000
_cell_volume 6676.952957
_symmetry_space_group_name_H-M "I M M M"
_symmetry_group_IT_number 71
_symmetry_cell_setting 'orthorhombic'
loop_
_space_group_symop_operation_xyz
x,y,z
-x,-y,z
x,-y,-z
-x,y,-z
-x,-y,-z
x,y,-z
-x,y,z
x,-y,z
1/2+x,1/2+y,1/2+z
1/2-x,1/2-y,1/2+z
1/2+x,1/2-y,1/2-z
1/2-x,1/2+y,1/2-z
1/2-x,1/2-y,1/2-z
1/2+x,1/2+y,1/2-z
1/2-x,1/2+y,1/2+z
1/2+x,1/2-y,1/2+z
loop_
_atom_site_type_symbol
_atom_site_label
_atom_site_fract_x
_atom_site_fract_y
_atom_site_fract_z
Si Si1 0.382390 0.795396 0.290321
Si Si2 0.376307 0.845234 0.101155
Si Si3 0.779880 0.926020 0.557138
Si Si4 0.807017 0.574800 0.839118
Si Si5 0.381024 0.577425 0.767701
Si Si6 0.623509 0.923998 0.000000
Si Si7 0.751576 0.828396 0.803998
Si Si8 0.120403 0.790221 0.554752
O O1 0.500000 0.769341 0.286414
O O2 0.382682 0.867286 0.319004
O O3 0.339535 0.804724 0.233692
O O4 0.315580 0.738779 0.320416
O O5 0.500000 0.856152 0.111915
O O6 0.305529 0.866685 0.149159
O O7 0.343847 0.766425 0.094527
O O8 0.339344 0.886217 0.051226
O O9 0.733991 0.916258 0.500000
O O10 0.689398 0.922485 0.599428
O O11 0.860091 0.866917 0.572270
O O12 0.835351 0.000000 0.560851
O O13 0.845117 0.500000 0.821077
O O14 0.688916 0.587808 0.818343
O O15 0.500000 0.601441 0.779073
O O16 0.380377 0.500000 0.750134
O O17 0.331982 0.619992 0.721759
O O18 0.500000 0.925213 0.000000
O O19 0.669147 0.000000 0.000000
O O20 0.175603 0.777590 0.500000
O O21 0.000000 0.778738 0.546636
#
# Coordination Sequence:
#
# PCOD8287784 Si02
#       8
#    16  16  16  16  16   8  16  16
#     4  10  20  34  50  72 102 131 165 210 254 296
#     4  10  18  31  50  73 102 135 166 200 246 301
#     4   9  17  28  43  66  95 124 157 201 243 277
#     4   9  18  32  49  70  95 129 170 202 240 295
#     4   9  18  33  51  70  96 129 163 201 245 297
#     4   9  18  32  50  74 104 136 168 203 250 310
#     4  10  20  32  51  77 101 128 166 206 252 301
#     4   9  16  26  40  60  90 128 162 187 224 284
#
# _framework density 17.972270000000002
#
# number of rings (size 3 to 8) (size 9 to 14) (size 15 to 20)
#    0.000    2.600    0.667    1.600    0.000    1.600 
#    0.000    6.000    0.000    2.800    0.000    3.267 
#    0.000    3.200    0.000    0.000    0.000    0.000 
#
# Total GULP energy -743363.703494 kJ/mol
# GULP energy per Si atom -12389.395058 kJ/mol
# Density = 1.793136 g / cm^3
# Si number density = 17.972270 Si / 1000 Ang^3
#
#
#
# Elastic Constant Matrix: (Units=GPa)
#
#
# Indices 1 2 3 4 5 6 
#
# 1 66.9857 23.6802 32.1843 0.0000 0.0000 0.0000
# 2 23.6802 95.0215 36.2052 0.0000 0.0000 0.0000
# 3 32.1843 36.2052 94.2782 0.0000 0.0000 0.0000
# 4 0.0000 0.0000 0.0000 11.2750 0.0000 0.0000
# 5 0.0000 0.0000 0.0000 0.0000 20.9647 0.0000
# 6 0.0000 0.0000 0.0000 0.0000 0.0000 19.8605
#
#
#
# Elastic Compliance Matrix: (Units=1/GPa)
#
#
# Indices 1 2 3 4 5 6 
#
# 1 0.018376 -0.002565 -0.005288 0.000000 0.000000 0.000000
# 2 -0.002565 0.012686 -0.003996 0.000000 0.000000 0.000000
# 3 -0.005288 -0.003996 0.013947 0.000000 0.000000 0.000000
# 4 0.000000 0.000000 0.000000 0.088691 0.000000 0.000000
# 5 0.000000 0.000000 0.000000 0.000000 0.047699 0.000000
# 6 0.000000 0.000000 0.000000 0.000000 0.000000 0.050351
#
#
# Mechanical properties :
#
#
# Convention : Reuss Voigt Hill
#
# Bulk Modulus (GPa) = 46.92506 48.93609 47.93057
# Shear Modulus (GPa) = 19.04387 21.36776 20.20582
#
# Velocity S-wave (km/s) = 3.25872 3.45183 3.35666
# Velocity P-wave (km/s) = 6.35023 6.57074 6.46142
#
# Compressibility (1/GPa) = 0.02131057
#
# Stress axis : x y z
#
# Youngs Moduli (GPa) = 54.41887 78.82919 71.70090
#
# Poissons Ratio (x) = 0.20216 0.37917
# Poissons Ratio (y) = 0.13956 0.28653
# Poissons Ratio (z) = 0.28778 0.31501
#
# Static dielectric constant tensor:
#      x y z
#    x 2.894390 0.000000 0.000000 
#    y 0.000000 3.612720 0.000000 
#    z 0.000000 0.000000 3.369870 
# 
# 
# High freq. dielectric constant tensor:
#      x y z
#    x 1.647650 0.000000 0.000000 
#    y 0.000000 1.709940 0.000000 
#    z 0.000000 0.000000 1.691060 
# 
# From -- ./inp_files/59080.got.cif
#   From: 2010.06.25/outbox.cif.g09.slc.cpg/sg71_30_cif.got.tgz:59080.got - 2010.06.28 04:59:45.
