data_PCOD8287277
_publ_section_title
;
Structure prediction by ZEFSAII (Michael W. Deem and Ramdas Pophale) SiO2 
 PCOD8287277
Probable space group: I M M M
;
_chemical_formula_sum "Si O2"
_cell_formula_units_Z 96
_cell_length_a 13.963927
_cell_length_b 14.005837
_cell_length_c 31.591527
_cell_angle_alpha 90.000000
_cell_angle_beta 90.000000
_cell_angle_gamma 90.000000
_cell_volume 6178.559820
_symmetry_space_group_name_H-M "I M M M"
_symmetry_group_IT_number 71
_symmetry_cell_setting 'orthorhombic'
loop_
_space_group_symop_operation_xyz
x,y,z
-x,-y,z
x,-y,-z
-x,y,-z
-x,-y,-z
x,y,-z
-x,y,z
x,-y,z
1/2+x,1/2+y,1/2+z
1/2-x,1/2-y,1/2+z
1/2+x,1/2-y,1/2-z
1/2-x,1/2+y,1/2-z
1/2-x,1/2-y,1/2-z
1/2+x,1/2+y,1/2-z
1/2-x,1/2+y,1/2+z
1/2+x,1/2-y,1/2+z
loop_
_atom_site_type_symbol
_atom_site_label
_atom_site_fract_x
_atom_site_fract_y
_atom_site_fract_z
Si Si1 0.234244 0.886483 0.623933
Si Si2 0.797971 0.888586 0.209931
Si Si3 0.893865 0.390631 0.249734
Si Si4 0.393126 0.613289 0.047064
Si Si5 0.389978 0.774338 0.664363
Si Si6 0.393533 0.387174 0.202493
O O1 0.182459 0.848856 0.581424
O O2 0.335788 0.832179 0.627238
O O3 0.170680 0.851699 0.663629
O O4 0.250891 0.000000 0.623378
O O5 0.684562 0.865060 0.214485
O O6 0.842853 0.830149 0.170935
O O7 0.848657 0.853648 0.253247
O O8 0.816818 0.000000 0.201070
O O9 0.878593 0.500000 0.235655
O O10 0.877392 0.331346 0.207671
O O11 0.000000 0.373440 0.268814
O O12 0.500000 0.652369 0.057260
O O13 0.396473 0.500000 0.049488
O O14 0.361325 0.646573 0.000000
O O15 0.500000 0.763188 0.650641
O O16 0.500000 0.342683 0.198795
O O17 0.399762 0.500000 0.200847
#
# Coordination Sequence:
#
# PCOD8287277 Si02
#       6
#    16  16  16  16  16  16
#     4  10  18  28  42  62  88 115 142 173 210 252
#     4  10  19  32  44  56  79 112 150 190 225 253
#     4   9  17  29  43  58  78 106 141 180 219 258
#     4   8  14  26  45  68  93 119 142 165 202 255
#     4  11  21  30  42  59  81 112 151 186 217 255
#     4   9  16  25  38  57  81 109 142 180 215 244
#
# _framework density 15.537602
#
# number of rings (size 3 to 8) (size 9 to 14) (size 15 to 20)
#    0.000    2.500    1.667    2.500    0.000    4.000 
#    0.000    0.833    0.000    0.500    0.000    2.333 
#    0.000    0.667    0.000    3.333    0.000    0.167 
#
# Total GULP energy -595048.873744 kJ/mol
# GULP energy per Si atom -12396.851536 kJ/mol
# Density = 1.550224 g / cm^3
# Si number density = 15.537602 Si / 1000 Ang^3
#
#
#
# Elastic Constant Matrix: (Units=GPa)
#
#
# Indices 1 2 3 4 5 6 
#
# 1 134.2636 34.8677 45.8199 0.0000 0.0000 0.0000
# 2 34.8677 38.9677 27.6552 0.0000 0.0000 0.0000
# 3 45.8199 27.6552 63.6549 0.0000 0.0000 0.0000
# 4 0.0000 0.0000 0.0000 10.6916 0.0000 0.0000
# 5 0.0000 0.0000 0.0000 0.0000 24.2387 0.0000
# 6 0.0000 0.0000 0.0000 0.0000 0.0000 17.6410
#
#
#
# Elastic Compliance Matrix: (Units=1/GPa)
#
#
# Indices 1 2 3 4 5 6 
#
# 1 0.010755 -0.005970 -0.005148 0.000000 0.000000 0.000000
# 2 -0.005970 0.040416 -0.013261 0.000000 0.000000 0.000000
# 3 -0.005148 -0.013261 0.025177 0.000000 0.000000 0.000000
# 4 0.000000 0.000000 0.000000 0.093531 0.000000 0.000000
# 5 0.000000 0.000000 0.000000 0.000000 0.041256 0.000000
# 6 0.000000 0.000000 0.000000 0.000000 0.000000 0.056686
#
#
# Mechanical properties :
#
#
# Convention : Reuss Voigt Hill
#
# Bulk Modulus (GPa) = 36.24675 50.39686 43.32180
# Shear Modulus (GPa) = 15.34792 19.08384 17.21588
#
# Velocity S-wave (km/s) = 3.14633 3.50842 3.33230
# Velocity P-wave (km/s) = 6.04799 6.99413 6.53820
#
# Compressibility (1/GPa) = 0.02758868
#
# Stress axis : x y z
#
# Youngs Moduli (GPa) = 92.97709 24.74281 39.71890
#
# Poissons Ratio (x) = 0.14772 0.20448
# Poissons Ratio (y) = 0.55508 0.52673
# Poissons Ratio (z) = 0.47866 0.32813
#
# Static dielectric constant tensor:
#      x y z
#    x 3.308060 0.000000 0.000000 
#    y 0.000000 2.780130 0.000000 
#    z 0.000000 0.000000 2.741960 
# 
# 
# High freq. dielectric constant tensor:
#      x y z
#    x 1.612390 0.000000 0.000000 
#    y 0.000000 1.572570 0.000000 
#    z 0.000000 0.000000 1.540010 
# 
# From -- ./inp_files/35239.got.cif
#   From: 2010.06.25/outbox.cif.g09.slc.cpg/sg71_18_cif.got.tgz:35239.got - 2010.06.28 04:59:45.
