data_PCOD8287889
_publ_section_title
;
Structure prediction by ZEFSAII (Michael W. Deem and Ramdas Pophale) SiO2 
 PCOD8287889
Probable space group: I M M M
;
_chemical_formula_sum "Si O2"
_cell_formula_units_Z 80
_cell_length_a 19.094237
_cell_length_b 32.628462
_cell_length_c 9.216997
_cell_angle_alpha 90.000000
_cell_angle_beta 90.000000
_cell_angle_gamma 90.000000
_cell_volume 5742.332791
_symmetry_space_group_name_H-M "I M M M"
_symmetry_group_IT_number 71
_symmetry_cell_setting 'orthorhombic'
loop_
_space_group_symop_operation_xyz
x,y,z
-x,-y,z
x,-y,-z
-x,y,-z
-x,-y,-z
x,y,-z
-x,y,z
x,-y,z
1/2+x,1/2+y,1/2+z
1/2-x,1/2-y,1/2+z
1/2+x,1/2-y,1/2-z
1/2-x,1/2+y,1/2-z
1/2-x,1/2-y,1/2-z
1/2+x,1/2+y,1/2-z
1/2-x,1/2+y,1/2+z
1/2+x,1/2-y,1/2+z
loop_
_atom_site_type_symbol
_atom_site_label
_atom_site_fract_x
_atom_site_fract_y
_atom_site_fract_z
Si Si1 0.081587 0.046840 0.167500
Si Si2 0.000000 0.249185 0.332660
Si Si3 0.768473 0.810152 0.333078
Si Si4 0.347594 0.229117 0.166695
Si Si5 0.500000 0.334266 0.327280
Si Si6 0.374723 0.378417 0.830079
O O1 0.129881 0.075077 0.270872
O O2 0.000000 0.056387 0.197242
O O3 0.098739 0.000000 0.207018
O O4 0.099355 0.055681 0.000000
O O5 0.069459 0.276117 0.303625
O O6 0.000000 0.232696 0.500000
O O7 0.000000 0.212561 0.219742
O O8 0.750804 0.804541 0.500000
O O9 0.694742 0.806176 0.250438
O O10 0.822705 0.774529 0.282474
O O11 0.801687 0.854762 0.302754
O O12 0.329934 0.222646 0.000000
O O13 0.500000 0.338038 0.500000
O O14 0.567672 0.355807 0.263950
O O15 0.394565 0.377861 0.000000
#
# Coordination Sequence:
#
# PCOD8287889 Si02
#       6
#    16   8  16  16   8  16
#     4   9  18  31  44  61  85 108 134 172 212 246
#     4  10  18  32  46  59  81 108 139 177 216 245
#     4   9  18  30  42  58  82 108 135 171 209 243
#     4   9  17  29  44  59  80 107 136 171 209 247
#     4  12  22  28  39  61  82 106 142 178 211 248
#     4  11  20  31  45  60  81 109 141 177 211 246
#
# _framework density 13.931620000000001
#
# number of rings (size 3 to 8) (size 9 to 14) (size 15 to 20)
#    0.000    2.200    3.000    2.100    0.000    2.800 
#    0.000    1.000    0.000    0.000    0.000    0.000 
#    0.000    0.000    0.000    0.900    0.000   17.600 
#
# Total GULP energy -495896.439876 kJ/mol
# GULP energy per Si atom -12397.410997 kJ/mol
# Density = 1.389991 g / cm^3
# Si number density = 13.931620 Si / 1000 Ang^3
#
#
#
# Elastic Constant Matrix: (Units=GPa)
#
#
# Indices 1 2 3 4 5 6 
#
# 1 89.4691 43.2001 45.7136 0.0001 0.0002 0.0014
# 2 43.2001 78.9639 49.0776 -0.0009 0.0001 0.0026
# 3 45.7136 49.0776 79.0636 -0.0022 -0.0033 0.0194
# 4 0.0001 -0.0009 -0.0022 24.9910 -0.0009 0.0015
# 5 0.0002 0.0001 -0.0033 -0.0009 20.0937 -0.0077
# 6 0.0014 0.0026 0.0194 0.0015 -0.0077 37.9642
#
#
#
# Elastic Compliance Matrix: (Units=1/GPa)
#
#
# Indices 1 2 3 4 5 6 
#
# 1 0.017092 -0.005224 -0.006640 -0.000001 -0.000001 0.000003
# 2 -0.005224 0.022216 -0.010769 0.000000 -0.000002 0.000004
# 3 -0.006640 -0.010769 0.023172 0.000002 0.000004 -0.000011
# 4 -0.000001 0.000000 0.000002 0.040014 0.000002 -0.000002
# 5 -0.000001 -0.000002 0.000004 0.000002 0.049767 0.000010
# 6 0.000003 0.000004 -0.000011 -0.000002 0.000010 0.026341
#
#
# Mechanical properties :
#
#
# Convention : Reuss Voigt Hill
#
# Bulk Modulus (GPa) = 58.09518 58.16435 58.12976
# Shear Modulus (GPa) = 21.77651 23.91012 22.84331
#
# Velocity S-wave (km/s) = 3.95789 4.14726 4.05368
# Velocity P-wave (km/s) = 7.91690 8.04820 7.98282
#
# Compressibility (1/GPa) = 0.01721313
#
# Stress axis : x y z
#
# Youngs Moduli (GPa) = 58.50707 45.01359 43.15575
#
# Poissons Ratio (x) = 0.23516 0.28653
# Poissons Ratio (y) = 0.30565 0.46476
# Poissons Ratio (z) = 0.38846 0.48477
#
# Static dielectric constant tensor:
#      x y z
#    x 3.046900 -0.000050 -0.000110 
#    y -0.000050 2.698910 -0.000020 
#    z -0.000110 -0.000020 2.817230 
# 
# 
# High freq. dielectric constant tensor:
#      x y z
#    x 1.504190 0.000000 0.000000 
#    y 0.000000 1.504790 0.000000 
#    z 0.000000 0.000000 1.540120 
# 
# From -- ./inp_files/11294.got.cif
#   From: 2010.06.25/outbox.cif.g09.slc.cpg/sg71_6_cif.got.tgz:11294.got - 2010.06.28 04:59:45.
