data_PCOD8287044
_publ_section_title
;
Structure prediction by ZEFSAII (Michael W. Deem and Ramdas Pophale) SiO2 
 PCOD8287044
Probable space group: I M M M
;
_chemical_formula_sum "Si O2"
_cell_formula_units_Z 96
_cell_length_a 14.894623
_cell_length_b 16.270891
_cell_length_c 23.782586
_cell_angle_alpha 90.000000
_cell_angle_beta 90.000000
_cell_angle_gamma 90.000000
_cell_volume 5763.680876
_symmetry_space_group_name_H-M "I M M M"
_symmetry_group_IT_number 71
_symmetry_cell_setting 'orthorhombic'
loop_
_space_group_symop_operation_xyz
x,y,z
-x,-y,z
x,-y,-z
-x,y,-z
-x,-y,-z
x,y,-z
-x,y,z
x,-y,z
1/2+x,1/2+y,1/2+z
1/2-x,1/2-y,1/2+z
1/2+x,1/2-y,1/2-z
1/2-x,1/2+y,1/2-z
1/2-x,1/2-y,1/2-z
1/2+x,1/2+y,1/2-z
1/2-x,1/2+y,1/2+z
1/2+x,1/2-y,1/2+z
loop_
_atom_site_type_symbol
_atom_site_label
_atom_site_fract_x
_atom_site_fract_y
_atom_site_fract_z
Si Si1 0.000000 0.097405 0.066993
Si Si2 0.650746 0.908542 0.139754
Si Si3 0.396230 0.596206 0.765672
Si Si4 0.744285 0.200874 0.692928
Si Si5 0.163662 0.148043 0.858445
Si Si6 0.898611 0.403319 0.760002
Si Si7 0.500000 0.901752 0.061269
O O1 0.912689 0.141341 0.093974
O O2 0.000000 0.000000 0.081442
O O3 0.000000 0.112115 0.000000
O O4 0.755860 0.912999 0.123957
O O5 0.634804 0.865513 0.200181
O O6 0.588962 0.866771 0.092327
O O7 0.612378 0.000000 0.146498
O O8 0.500000 0.611680 0.780107
O O9 0.371214 0.500000 0.770214
O O10 0.337191 0.648237 0.811067
O O11 0.377816 0.625593 0.701918
O O12 0.750000 0.250000 0.750000
O O13 0.717455 0.263802 0.642738
O O14 0.662364 0.136414 0.692330
O O15 0.885780 0.500000 0.762529
O O16 0.000000 0.375837 0.771002
O O17 0.500000 0.000000 0.056149
O O18 0.500000 0.861326 0.000000
#
# Coordination Sequence:
#
# PCOD8287044 Si02
#       7
#     8  16  16  16  16  16   8
#     4  11  24  40  57  74  95 135 190 227 247 285
#     4  10  17  28  45  63  88 124 161 197 242 292
#     4  10  18  30  49  71 103 141 171 202 245 306
#     4  10  20  29  43  72 100 130 162 203 246 304
#     4  11  21  33  48  73  98 131 169 214 260 289
#     4  10  18  28  44  65  94 129 163 194 232 295
#     4   9  18  30  43  62  84 112 156 207 250 280
#
# _framework density 16.656022
#
# number of rings (size 3 to 8) (size 9 to 14) (size 15 to 20)
#    0.000    1.833    5.000    2.000    1.167    1.333 
#    1.500    1.667    0.000    0.000    0.000    0.000 
#    0.000    5.333    0.000    1.833    0.000    0.000 
#
# Total GULP energy -594662.737250 kJ/mol
# GULP energy per Si atom -12388.807026 kJ/mol
# Density = 1.661811 g / cm^3
# Si number density = 16.656022 Si / 1000 Ang^3
#
#
#
# Elastic Constant Matrix: (Units=GPa)
#
#
# Indices 1 2 3 4 5 6 
#
# 1 129.2335 41.1811 29.8229 0.0000 0.0000 0.0000
# 2 41.1811 62.3021 27.5070 0.0000 0.0000 0.0000
# 3 29.8229 27.5070 51.9369 0.0000 0.0000 0.0000
# 4 0.0000 0.0000 0.0000 14.5787 0.0000 0.0000
# 5 0.0000 0.0000 0.0000 0.0000 18.2737 0.0000
# 6 0.0000 0.0000 0.0000 0.0000 0.0000 24.2255
#
#
#
# Elastic Compliance Matrix: (Units=1/GPa)
#
#
# Indices 1 2 3 4 5 6 
#
# 1 0.010141 -0.005393 -0.002967 0.000000 0.000000 0.000000
# 2 -0.005393 0.023818 -0.009518 0.000000 0.000000 0.000000
# 3 -0.002967 -0.009518 0.025998 0.000000 0.000000 0.000000
# 4 0.000000 0.000000 0.000000 0.068593 0.000000 0.000000
# 5 0.000000 0.000000 0.000000 0.000000 0.054723 0.000000
# 6 0.000000 0.000000 0.000000 0.000000 0.000000 0.041279
#
#
# Mechanical properties :
#
#
# Convention : Reuss Voigt Hill
#
# Bulk Modulus (GPa) = 41.31872 48.94382 45.13127
# Shear Modulus (GPa) = 18.63059 21.07968 19.85513
#
# Velocity S-wave (km/s) = 3.34810 3.56137 3.45638
# Velocity P-wave (km/s) = 6.30930 6.80882 6.56381
#
# Compressibility (1/GPa) = 0.02420211
#
# Stress axis : x y z
#
# Youngs Moduli (GPa) = 98.60765 41.98523 38.46385
#
# Poissons Ratio (x) = 0.22644 0.11411
# Poissons Ratio (y) = 0.53183 0.36608
# Poissons Ratio (z) = 0.29255 0.39960
#
# Static dielectric constant tensor:
#      x y z
#    x 3.442330 0.000000 0.000000 
#    y 0.000000 3.368090 0.000000 
#    z 0.000000 0.000000 2.834880 
# 
# 
# High freq. dielectric constant tensor:
#      x y z
#    x 1.669730 0.000000 0.000000 
#    y 0.000000 1.627150 0.000000 
#    z 0.000000 0.000000 1.574140 
# 
# From -- ./inp_files/65488.got.cif
#   From: 2010.06.25/outbox.cif.g09.slc.cpg/sg71_33_cif.got.tgz:65488.got - 2010.06.28 04:59:45.
