data_PCOD8287371
_publ_section_title
;
Structure prediction by ZEFSAII (Michael W. Deem and Ramdas Pophale) SiO2 
 PCOD8287371
Probable space group: I M M M
;
_chemical_formula_sum "Si O2"
_cell_formula_units_Z 96
_cell_length_a 9.480192
_cell_length_b 28.386565
_cell_length_c 28.376207
_cell_angle_alpha 90.000000
_cell_angle_beta 90.000000
_cell_angle_gamma 90.000000
_cell_volume 7636.323518
_symmetry_space_group_name_H-M "I M M M"
_symmetry_group_IT_number 71
_symmetry_cell_setting 'orthorhombic'
loop_
_space_group_symop_operation_xyz
x,y,z
-x,-y,z
x,-y,-z
-x,y,-z
-x,-y,-z
x,y,-z
-x,y,z
x,-y,z
1/2+x,1/2+y,1/2+z
1/2-x,1/2-y,1/2+z
1/2+x,1/2-y,1/2-z
1/2-x,1/2+y,1/2-z
1/2-x,1/2-y,1/2-z
1/2+x,1/2+y,1/2-z
1/2-x,1/2+y,1/2+z
1/2+x,1/2-y,1/2+z
loop_
_atom_site_type_symbol
_atom_site_label
_atom_site_fract_x
_atom_site_fract_y
_atom_site_fract_z
Si Si1 0.840583 0.150677 0.872808
Si Si2 0.162097 0.101246 0.225682
Si Si3 0.837920 0.677701 0.235750
Si Si4 0.834332 0.402757 0.446338
Si Si5 0.334610 0.000000 0.899263
Si Si6 0.163708 0.000000 0.196221
Si Si7 0.660142 0.732178 0.310768
O O1 0.799973 0.120950 0.826136
O O2 0.739275 0.137456 0.915491
O O3 0.822987 0.206859 0.861715
O O4 0.000000 0.138662 0.887926
O O5 0.252648 0.128461 0.265822
O O6 0.000000 0.110401 0.237772
O O7 0.199490 0.045908 0.227453
O O8 0.778212 0.709723 0.277634
O O9 0.820914 0.710584 0.188510
O O10 0.000000 0.665188 0.245513
O O11 0.784568 0.396874 0.500000
O O12 0.789090 0.454498 0.429092
O O13 0.000000 0.395518 0.441254
O O14 0.500000 0.000000 0.888501
O O15 0.254989 0.000000 0.850351
O O16 0.000000 0.000000 0.180883
O O17 0.500000 0.720750 0.292142
#
# Coordination Sequence:
#
# PCOD8287371 Si02
#       7
#    16  16  16  16   8   8  16
#     4   9  16  27  41  53  66  85 111 141 172 209
#     4   9  17  27  38  51  70  91 112 140 174 207
#     4   9  15  23  37  54  70  88 109 133 164 202
#     4  10  20  31  40  51  68  88 111 144 187 226
#     4  10  19  30  42  52  64  84 114 150 186 221
#     4  10  18  29  41  51  68  94 118 144 179 215
#     4   8  15  26  37  51  71  90 106 130 166 206
#
# _framework density 12.571495000000001
#
# number of rings (size 3 to 8) (size 9 to 14) (size 15 to 20)
#    0.000    2.833    1.667    1.750    0.000    5.333 
#    0.000    0.000    0.000    1.500    0.000    0.000 
#    0.000    0.000    0.000    0.000    0.000    0.000 
#
# Total GULP energy -594712.937973 kJ/mol
# GULP energy per Si atom -12389.852874 kJ/mol
# Density = 1.254288 g / cm^3
# Si number density = 12.571495 Si / 1000 Ang^3
#
#
#
# Elastic Constant Matrix: (Units=GPa)
#
#
# Indices 1 2 3 4 5 6 
#
# 1 48.4073 42.5013 24.7535 0.0000 0.0000 0.0000
# 2 42.5013 104.5810 46.6334 0.0000 0.0000 0.0000
# 3 24.7535 46.6334 37.6566 0.0000 0.0000 0.0000
# 4 0.0000 0.0000 0.0000 8.3091 0.0000 0.0000
# 5 0.0000 0.0000 0.0000 0.0000 15.7519 0.0000
# 6 0.0000 0.0000 0.0000 0.0000 0.0000 20.2884
#
#
#
# Elastic Compliance Matrix: (Units=1/GPa)
#
#
# Indices 1 2 3 4 5 6 
#
# 1 0.034319 -0.008682 -0.011808 0.000000 0.000000 0.000000
# 2 -0.008682 0.023550 -0.023457 0.000000 0.000000 0.000000
# 3 -0.011808 -0.023457 0.063366 0.000000 0.000000 0.000000
# 4 0.000000 0.000000 0.000000 0.120351 0.000000 0.000000
# 5 0.000000 0.000000 0.000000 0.000000 0.063484 0.000000
# 6 0.000000 0.000000 0.000000 0.000000 0.000000 0.049289
#
#
# Mechanical properties :
#
#
# Convention : Reuss Voigt Hill
#
# Bulk Modulus (GPa) = 29.99246 46.49126 38.24186
# Shear Modulus (GPa) = 11.02863 13.98699 12.50781
#
# Velocity S-wave (km/s) = 2.96509 3.33918 3.15768
# Velocity P-wave (km/s) = 5.96923 7.20615 6.61666
#
# Compressibility (1/GPa) = 0.03334172
#
# Stress axis : x y z
#
# Youngs Moduli (GPa) = 29.13875 42.46334 15.78127
#
# Poissons Ratio (x) = 0.36865 0.18634
# Poissons Ratio (y) = 0.25297 0.37018
# Poissons Ratio (z) = 0.34407 0.99605
#
# Static dielectric constant tensor:
#      x y z
#    x 2.629520 0.000000 0.000000 
#    y 0.000000 2.913780 0.000000 
#    z 0.000000 0.000000 2.293830 
# 
# 
# High freq. dielectric constant tensor:
#      x y z
#    x 1.488060 0.000000 0.000000 
#    y 0.000000 1.476350 0.000000 
#    z 0.000000 0.000000 1.418480 
# 
# From -- ./inp_files/17560.got.cif
#   From: 2010.06.25/outbox.cif.g09.slc.cpg/sg71_9_cif.got.tgz:17560.got - 2010.06.28 04:59:45.
