data_PCOD8287619
_publ_section_title
;
Structure prediction by ZEFSAII (Michael W. Deem and Ramdas Pophale) SiO2 
 PCOD8287619
Probable space group: I M M M
;
_chemical_formula_sum "Si O2"
_cell_formula_units_Z 120
_cell_length_a 8.803217
_cell_length_b 26.845657
_cell_length_c 27.822068
_cell_angle_alpha 90.000000
_cell_angle_beta 90.000000
_cell_angle_gamma 90.000000
_cell_volume 6575.137695
_symmetry_space_group_name_H-M "I M M M"
_symmetry_group_IT_number 71
_symmetry_cell_setting 'orthorhombic'
loop_
_space_group_symop_operation_xyz
x,y,z
-x,-y,z
x,-y,-z
-x,y,-z
-x,-y,-z
x,y,-z
-x,y,z
x,-y,z
1/2+x,1/2+y,1/2+z
1/2-x,1/2-y,1/2+z
1/2+x,1/2-y,1/2-z
1/2-x,1/2+y,1/2-z
1/2-x,1/2-y,1/2-z
1/2+x,1/2+y,1/2-z
1/2-x,1/2+y,1/2+z
1/2+x,1/2-y,1/2+z
loop_
_atom_site_type_symbol
_atom_site_label
_atom_site_fract_x
_atom_site_fract_y
_atom_site_fract_z
Si Si1 0.821071 0.906579 0.385899
Si Si2 0.678959 0.798006 0.054736
Si Si3 0.180105 0.735878 0.300583
Si Si4 0.179131 0.797584 0.608992
Si Si5 0.671618 0.058088 0.706190
Si Si6 0.818463 0.000000 0.554602
Si Si7 0.177990 0.556980 0.684658
Si Si8 0.178548 0.850814 0.858426
O O1 0.753381 0.852627 0.401900
O O2 0.782138 0.913422 0.329969
O O3 0.000000 0.907461 0.391871
O O4 0.752091 0.950706 0.418938
O O5 0.500000 0.804677 0.064018
O O6 0.728672 0.741364 0.067723
O O7 0.767945 0.836644 0.088043
O O8 0.723900 0.808909 0.000000
O O9 0.250000 0.750000 0.250000
O O10 0.234277 0.777126 0.339266
O O11 0.239492 0.682275 0.317895
O O12 0.000000 0.732915 0.296202
O O13 0.000000 0.802550 0.610472
O O14 0.500000 0.076843 0.698035
O O15 0.723808 0.069169 0.760425
O O16 0.682955 0.000000 0.695236
O O17 0.759201 0.000000 0.500000
O O18 0.000000 0.000000 0.556460
O O19 0.218701 0.500000 0.672153
O O20 0.275897 0.591872 0.649876
O O21 0.000000 0.566591 0.676824
O O22 0.000000 0.843529 0.854058
#
# Coordination Sequence:
#
# PCOD8287619 Si02
#       8
#    16  16  16  16  16   8  16  16
#     4  10  18  30  48  71 100 133 171 218 267 318
#     4   9  18  36  60  80 101 137 183 227 274 327
#     4  10  20  35  51  73 107 144 184 226 272 327
#     4   8  17  31  48  73 102 130 170 222 266 314
#     4   9  18  32  49  70  98 134 175 215 257 307
#     4   9  18  30  45  69  99 131 169 215 268 319
#     4   9  19  36  56  79 109 146 184 221 262 314
#     4  11  22  35  54  82 114 146 179 220 272 326
#
# _framework density 18.250568999999999
#
# number of rings (size 3 to 8) (size 9 to 14) (size 15 to 20)
#    0.000    2.600    0.667    3.200    1.867    1.600 
#    0.000    6.667    0.000    1.200    0.000    2.800 
#    0.000    0.000    0.000    0.000    0.000    0.000 
#
# Total GULP energy -743849.489899 kJ/mol
# GULP energy per Si atom -12397.491498 kJ/mol
# Density = 1.820903 g / cm^3
# Si number density = 18.250569 Si / 1000 Ang^3
#
#
#
# Elastic Constant Matrix: (Units=GPa)
#
#
# Indices 1 2 3 4 5 6 
#
# 1 51.7514 31.5016 34.0515 0.0000 0.0000 0.0000
# 2 31.5016 123.8588 60.6655 0.0000 0.0000 0.0000
# 3 34.0515 60.6655 109.6654 0.0000 0.0000 0.0000
# 4 0.0000 0.0000 0.0000 20.2793 0.0000 0.0000
# 5 0.0000 0.0000 0.0000 0.0000 25.9972 0.0000
# 6 0.0000 0.0000 0.0000 0.0000 0.0000 17.7951
#
#
#
# Elastic Compliance Matrix: (Units=1/GPa)
#
#
# Indices 1 2 3 4 5 6 
#
# 1 0.025379 -0.003560 -0.005911 0.000000 0.000000 0.000000
# 2 -0.003560 0.011574 -0.005297 0.000000 0.000000 0.000000
# 3 -0.005911 -0.005297 0.013884 0.000000 0.000000 0.000000
# 4 0.000000 0.000000 0.000000 0.049311 0.000000 0.000000
# 5 0.000000 0.000000 0.000000 0.000000 0.038466 0.000000
# 6 0.000000 0.000000 0.000000 0.000000 0.000000 0.056195
#
#
# Mechanical properties :
#
#
# Convention : Reuss Voigt Hill
#
# Bulk Modulus (GPa) = 46.94504 59.74587 53.34545
# Shear Modulus (GPa) = 21.60330 23.41810 22.51070
#
# Velocity S-wave (km/s) = 3.44423 3.58599 3.51582
# Velocity P-wave (km/s) = 6.44945 7.06776 6.76567
#
# Compressibility (1/GPa) = 0.02130150
#
# Stress axis : x y z
#
# Youngs Moduli (GPa) = 39.40197 86.40426 72.02321
#
# Poissons Ratio (x) = 0.30756 0.42575
# Poissons Ratio (y) = 0.14025 0.38151
# Poissons Ratio (z) = 0.23292 0.45769
#
# Static dielectric constant tensor:
#      x y z
#    x 3.081850 0.000000 0.000000 
#    y 0.000000 3.612150 0.000000 
#    z 0.000000 0.000000 3.317150 
# 
# 
# High freq. dielectric constant tensor:
#      x y z
#    x 1.681120 0.000000 0.000000 
#    y 0.000000 1.710440 0.000000 
#    z 0.000000 0.000000 1.697020 
# 
# From -- ./inp_files/63809.got.cif
#   From: 2010.06.25/outbox.cif.g09.slc.cpg/sg71_32_cif.got.tgz:63809.got - 2010.06.28 04:59:45.
