data_PCOD8287512
_publ_section_title
;
Structure prediction by ZEFSAII (Michael W. Deem and Ramdas Pophale) SiO2 
 PCOD8287512
Probable space group: I M M M
;
_chemical_formula_sum "Si O2"
_cell_formula_units_Z 120
_cell_length_a 21.703122
_cell_length_b 21.194087
_cell_length_c 15.259767
_cell_angle_alpha 90.000000
_cell_angle_beta 90.000000
_cell_angle_gamma 90.000000
_cell_volume 7019.154905
_symmetry_space_group_name_H-M "I M M M"
_symmetry_group_IT_number 71
_symmetry_cell_setting 'orthorhombic'
loop_
_space_group_symop_operation_xyz
x,y,z
-x,-y,z
x,-y,-z
-x,y,-z
-x,-y,-z
x,y,-z
-x,y,z
x,-y,z
1/2+x,1/2+y,1/2+z
1/2-x,1/2-y,1/2+z
1/2+x,1/2-y,1/2-z
1/2-x,1/2+y,1/2-z
1/2-x,1/2-y,1/2-z
1/2+x,1/2+y,1/2-z
1/2-x,1/2+y,1/2+z
1/2+x,1/2-y,1/2+z
loop_
_atom_site_type_symbol
_atom_site_label
_atom_site_fract_x
_atom_site_fract_y
_atom_site_fract_z
Si Si1 0.384880 0.810210 0.099507
Si Si2 0.688568 0.428702 0.327335
Si Si3 0.763436 0.238380 0.647475
Si Si4 0.818456 0.430375 0.400470
Si Si5 0.141016 0.799796 0.902692
Si Si6 0.344565 0.374630 0.154890
Si Si7 0.431369 0.274188 0.241799
Si Si8 0.071497 0.925649 0.500000
O O1 0.317344 0.782124 0.111747
O O2 0.376888 0.884942 0.114522
O O3 0.430665 0.785453 0.175199
O O4 0.408990 0.795028 0.000000
O O5 0.672666 0.500000 0.362291
O O6 0.760659 0.413572 0.339148
O O7 0.650145 0.373482 0.375229
O O8 0.675494 0.428578 0.222938
O O9 0.750000 0.250000 0.750000
O O10 0.703280 0.258772 0.594853
O O11 0.783659 0.165497 0.625791
O O12 0.793999 0.424699 0.500000
O O13 0.843438 0.500000 0.379503
O O14 0.093446 0.761793 0.839988
O O15 0.112897 0.800102 0.000000
O O16 0.386555 0.325576 0.204516
O O17 0.387732 0.403467 0.081029
O O18 0.500000 0.300520 0.248004
O O19 0.000000 0.898863 0.500000
O O20 0.066736 0.000000 0.500000
#
# Coordination Sequence:
#
# PCOD8287512 Si02
#       8
#    16  16  16  16  16  16  16   8
#     4  10  18  29  49  74 104 134 164 205 251 305
#     4  10  18  30  49  74 104 133 165 204 249 303
#     4  11  17  32  50  76 105 132 162 211 267 310
#     4   9  16  26  44  74 109 138 161 191 242 313
#     4  11  21  33  52  75 103 136 169 208 263 313
#     4  10  21  34  53  74 100 133 175 218 260 303
#     4  10  22  36  51  73  99 130 174 220 258 306
#     4  11  24  40  54  72 104 148 190 220 254 301
#
# _framework density 17.096076
#
# number of rings (size 3 to 8) (size 9 to 14) (size 15 to 20)
#    0.000    1.800    5.333    1.600    4.667    1.333 
#    0.000    0.000    0.000    4.000    0.000    5.600 
#    0.000    0.000    0.000    1.200    0.000    0.000 
#
# Total GULP energy -743305.777598 kJ/mol
# GULP energy per Si atom -12388.429627 kJ/mol
# Density = 1.705716 g / cm^3
# Si number density = 17.096076 Si / 1000 Ang^3
#
#
#
# Elastic Constant Matrix: (Units=GPa)
#
#
# Indices 1 2 3 4 5 6 
#
# 1 26.8362 14.3673 17.2182 0.0000 0.0000 0.0000
# 2 14.3673 69.4549 34.7993 0.0000 0.0000 0.0000
# 3 17.2182 34.7993 110.2971 0.0000 0.0000 0.0000
# 4 0.0000 0.0000 0.0000 12.2151 0.0000 0.0000
# 5 0.0000 0.0000 0.0000 0.0000 28.5087 0.0000
# 6 0.0000 0.0000 0.0000 0.0000 0.0000 13.2354
#
#
#
# Elastic Compliance Matrix: (Units=1/GPa)
#
#
# Indices 1 2 3 4 5 6 
#
# 1 0.043892 -0.006707 -0.004736 0.000000 0.000000 0.000000
# 2 -0.006707 0.018126 -0.004672 0.000000 0.000000 0.000000
# 3 -0.004736 -0.004672 0.011280 0.000000 0.000000 0.000000
# 4 0.000000 0.000000 0.000000 0.081866 0.000000 0.000000
# 5 0.000000 0.000000 0.000000 0.000000 0.035077 0.000000
# 6 0.000000 0.000000 0.000000 0.000000 0.000000 0.075555
#
#
# Mechanical properties :
#
#
# Convention : Reuss Voigt Hill
#
# Bulk Modulus (GPa) = 24.34922 37.70641 31.02781
# Shear Modulus (GPa) = 16.04032 20.13872 18.08952
#
# Velocity S-wave (km/s) = 3.06640 3.43588 3.25639
# Velocity P-wave (km/s) = 5.17789 6.15174 5.68570
#
# Compressibility (1/GPa) = 0.04106909
#
# Stress axis : x y z
#
# Youngs Moduli (GPa) = 22.78309 55.16959 88.65451
#
# Poissons Ratio (x) = 0.37000 0.41986
# Poissons Ratio (y) = 0.15280 0.41418
# Poissons Ratio (z) = 0.10790 0.25775
#
# Static dielectric constant tensor:
#      x y z
#    x 3.142940 0.000000 0.000000 
#    y 0.000000 3.503600 0.000000 
#    z 0.000000 0.000000 3.260470 
# 
# 
# High freq. dielectric constant tensor:
#      x y z
#    x 1.630410 0.000000 0.000000 
#    y 0.000000 1.652970 0.000000 
#    z 0.000000 0.000000 1.663110 
# 
# From -- ./inp_files/38521.got.cif
#   From: 2010.06.25/outbox.cif.g09.slc.cpg/sg71_20_cif.got.tgz:38521.got - 2010.06.28 04:59:45.
