data_PCOD8287282
_publ_section_title
;
Structure prediction by ZEFSAII (Michael W. Deem and Ramdas Pophale) SiO2 
 PCOD8287282
Probable space group: I M M M
;
_chemical_formula_sum "Si O2"
_cell_formula_units_Z 56
_cell_length_a 13.748928
_cell_length_b 31.915720
_cell_length_c 9.016552
_cell_angle_alpha 90.000000
_cell_angle_beta 90.000000
_cell_angle_gamma 90.000000
_cell_volume 3956.525560
_symmetry_space_group_name_H-M "I M M M"
_symmetry_group_IT_number 71
_symmetry_cell_setting 'orthorhombic'
loop_
_space_group_symop_operation_xyz
x,y,z
-x,-y,z
x,-y,-z
-x,y,-z
-x,-y,-z
x,y,-z
-x,y,z
x,-y,z
1/2+x,1/2+y,1/2+z
1/2-x,1/2-y,1/2+z
1/2+x,1/2-y,1/2-z
1/2-x,1/2+y,1/2-z
1/2-x,1/2-y,1/2-z
1/2+x,1/2+y,1/2-z
1/2-x,1/2+y,1/2+z
1/2+x,1/2-y,1/2+z
loop_
_atom_site_type_symbol
_atom_site_label
_atom_site_fract_x
_atom_site_fract_y
_atom_site_fract_z
Si Si1 0.888152 0.769334 0.827292
Si Si2 0.500000 0.048296 0.675176
Si Si3 0.777818 0.685406 0.173400
Si Si4 0.892718 0.614934 0.668050
O O1 0.851870 0.722800 0.787455
O O2 0.829125 0.803522 0.733404
O O3 0.000000 0.773053 0.781117
O O4 0.871499 0.778640 0.000000
O O5 0.500000 0.054725 0.500000
O O6 0.596498 0.070499 0.744773
O O7 0.500000 0.000000 0.721258
O O8 0.813821 0.643520 0.252122
O O9 0.771946 0.676721 0.000000
O O10 0.858321 0.606461 0.500000
O O11 0.000000 0.636918 0.670229
#
# Coordination Sequence:
#
# PCOD8287282 Si02
#       4
#    16   8  16  16
#     4   9  18  30  42  57  81 113 146 184 222 256
#     4   9  17  29  45  65  89 115 141 173 213 257
#     4  10  18  28  43  61  82 110 146 184 218 256
#     4   9  18  28  42  62  85 114 142 172 207 255
#
# _framework density 14.153832
#
# number of rings (size 3 to 8) (size 9 to 14) (size 15 to 20)
#    0.857    1.857    0.000    2.571    0.000    4.000 
#    0.000    0.000    0.000    0.000    0.000    0.000 
#    0.000    1.143    0.000   12.000    0.000    5.143 
#
# Total GULP energy -347057.396048 kJ/mol
# GULP energy per Si atom -12394.907002 kJ/mol
# Density = 1.412162 g / cm^3
# Si number density = 14.153832 Si / 1000 Ang^3
#
#
#
# Elastic Constant Matrix: (Units=GPa)
#
#
# Indices 1 2 3 4 5 6 
#
# 1 82.1344 45.4897 43.6512 0.0011 0.0022 -0.0001
# 2 45.4897 102.7916 59.3516 -0.0007 0.0005 0.0000
# 3 43.6512 59.3516 91.4820 -0.0075 0.0102 0.0020
# 4 0.0011 -0.0007 -0.0075 22.5504 0.0001 0.0003
# 5 0.0022 0.0005 0.0102 0.0001 23.7748 -0.0003
# 6 -0.0001 0.0000 0.0020 0.0003 -0.0003 20.2020
#
#
#
# Elastic Compliance Matrix: (Units=1/GPa)
#
#
# Indices 1 2 3 4 5 6 
#
# 1 0.017630 -0.004709 -0.005357 -0.000003 0.000001 0.000001
# 2 -0.004709 0.016813 -0.008661 -0.000002 0.000004 0.000001
# 3 -0.005357 -0.008661 0.019107 0.000006 -0.000008 -0.000002
# 4 -0.000003 -0.000002 0.000006 0.044345 0.000000 -0.000001
# 5 0.000001 0.000004 -0.000008 0.000000 0.042061 0.000001
# 6 0.000001 0.000001 -0.000002 -0.000001 0.000001 0.049500
#
#
# Mechanical properties :
#
#
# Convention : Reuss Voigt Hill
#
# Bulk Modulus (GPa) = 62.13000 63.71034 62.92017
# Shear Modulus (GPa) = 21.52600 21.83312 21.67956
#
# Velocity S-wave (km/s) = 3.90405 3.93180 3.91795
# Velocity P-wave (km/s) = 8.01958 8.10695 8.06338
#
# Compressibility (1/GPa) = 0.01609528
#
# Stress axis : x y z
#
# Youngs Moduli (GPa) = 56.72015 59.47685 52.33767
#
# Poissons Ratio (x) = 0.28007 0.28040
# Poissons Ratio (y) = 0.26709 0.45331
# Poissons Ratio (z) = 0.30388 0.51514
#
# Static dielectric constant tensor:
#      x y z
#    x 2.618450 0.000000 0.000010 
#    y 0.000000 2.534900 0.000000 
#    z 0.000010 0.000000 2.847290 
# 
# 
# High freq. dielectric constant tensor:
#      x y z
#    x 1.515170 0.000000 0.000000 
#    y 0.000000 1.512640 0.000000 
#    z 0.000000 0.000000 1.558200 
# 
# From -- ./inp_files/6278.got.cif
#   From: 2010.06.25/outbox.cif.g09.slc.cpg/sg71_4_cif.got.tgz:6278.got - 2010.06.28 04:59:45.
