data_PCOD8287252
_publ_section_title
;
Structure prediction by ZEFSAII (Michael W. Deem and Ramdas Pophale) SiO2 
 PCOD8287252
Probable space group: I M M M
;
_chemical_formula_sum "Si O2"
_cell_formula_units_Z 128
_cell_length_a 21.306002
_cell_length_b 19.337082
_cell_length_c 19.132651
_cell_angle_alpha 90.000000
_cell_angle_beta 90.000000
_cell_angle_gamma 90.000000
_cell_volume 7882.573917
_symmetry_space_group_name_H-M "I M M M"
_symmetry_group_IT_number 71
_symmetry_cell_setting 'orthorhombic'
loop_
_space_group_symop_operation_xyz
x,y,z
-x,-y,z
x,-y,-z
-x,y,-z
-x,-y,-z
x,y,-z
-x,y,z
x,-y,z
1/2+x,1/2+y,1/2+z
1/2-x,1/2-y,1/2+z
1/2+x,1/2-y,1/2-z
1/2-x,1/2+y,1/2-z
1/2-x,1/2-y,1/2-z
1/2+x,1/2+y,1/2-z
1/2-x,1/2+y,1/2+z
1/2+x,1/2-y,1/2+z
loop_
_atom_site_type_symbol
_atom_site_label
_atom_site_fract_x
_atom_site_fract_y
_atom_site_fract_z
Si Si1 0.229363 0.076019 0.787282
Si Si2 0.803463 0.422918 0.852074
Si Si3 0.930437 0.577275 0.209520
Si Si4 0.309610 0.076129 0.922616
Si Si5 0.430591 0.785640 0.217103
Si Si6 0.188005 0.778726 0.789290
Si Si7 0.738833 0.212769 0.420028
Si Si8 0.628003 0.218137 0.922795
O O1 0.283046 0.084007 0.728865
O O2 0.257191 0.085905 0.864190
O O3 0.180688 0.138758 0.778086
O O4 0.196953 0.000000 0.780503
O O5 0.788515 0.500000 0.880923
O O6 0.878521 0.408441 0.850908
O O7 0.767338 0.368394 0.900711
O O8 0.919531 0.500000 0.240516
O O9 0.924323 0.631608 0.272968
O O10 0.000000 0.583242 0.175174
O O11 0.360291 0.136331 0.915205
O O12 0.341313 0.000000 0.914440
O O13 0.278126 0.082705 0.000000
O O14 0.500000 0.760319 0.240644
O O15 0.376994 0.751418 0.263188
O O16 0.422782 0.764019 0.136078
O O17 0.250000 0.750000 0.750000
O O18 0.193890 0.758420 0.870737
O O19 0.718222 0.224523 0.500000
O O20 0.810078 0.236683 0.408049
O O21 0.601430 0.235492 0.000000
#
# Coordination Sequence:
#
# PCOD8287252 Si02
#       8
#    16  16  16  16  16  16  16  16
#     4  10  18  27  47  74  97 126 164 203 252 302
#     4  10  18  30  47  68  96 127 163 208 252 292
#     4   9  17  28  44  67  94 127 168 205 238 285
#     4   9  16  25  40  68 104 134 162 200 243 289
#     4  11  21  32  50  73  96 131 172 210 248 294
#     4  12  18  33  55  73  99 132 164 209 250 295
#     4  11  21  32  50  75  99 129 164 204 255 301
#     4  10  19  31  46  68  99 133 165 201 249 297
#
# _framework density 16.238351000000002
#
# number of rings (size 3 to 8) (size 9 to 14) (size 15 to 20)
#    0.000    1.750    5.000    0.750    0.000    2.000 
#    0.000    0.000    0.000    1.875    0.000    5.250 
#    0.000    0.000    0.000   15.000    0.000    0.000 
#
# Total GULP energy -792987.106137 kJ/mol
# GULP energy per Si atom -12390.423533 kJ/mol
# Density = 1.620139 g / cm^3
# Si number density = 16.238351 Si / 1000 Ang^3
#
#
#
# Elastic Constant Matrix: (Units=GPa)
#
#
# Indices 1 2 3 4 5 6 
#
# 1 78.4995 40.3866 35.4248 0.0000 0.0000 0.0000
# 2 40.3866 105.7550 26.8827 0.0000 0.0000 0.0000
# 3 35.4248 26.8827 80.4418 0.0000 0.0000 0.0000
# 4 0.0000 0.0000 0.0000 21.5991 0.0000 0.0000
# 5 0.0000 0.0000 0.0000 0.0000 16.2530 0.0000
# 6 0.0000 0.0000 0.0000 0.0000 0.0000 17.1177
#
#
#
# Elastic Compliance Matrix: (Units=1/GPa)
#
#
# Indices 1 2 3 4 5 6 
#
# 1 0.018356 -0.005415 -0.006274 0.000000 0.000000 0.000000
# 2 -0.005415 0.011931 -0.001603 0.000000 0.000000 0.000000
# 3 -0.006274 -0.001603 0.015730 0.000000 0.000000 0.000000
# 4 0.000000 0.000000 0.000000 0.046298 0.000000 0.000000
# 5 0.000000 0.000000 0.000000 0.000000 0.061527 0.000000
# 6 0.000000 0.000000 0.000000 0.000000 0.000000 0.058419
#
#
# Mechanical properties :
#
#
# Convention : Reuss Voigt Hill
#
# Bulk Modulus (GPa) = 51.45670 52.23161 51.84415
# Shear Modulus (GPa) = 20.38128 21.79408 21.08768
#
# Velocity S-wave (km/s) = 3.54663 3.66749 3.60757
# Velocity P-wave (km/s) = 6.96625 7.08304 7.02488
#
# Compressibility (1/GPa) = 0.01943382
#
# Stress axis : x y z
#
# Youngs Moduli (GPa) = 54.47728 83.81394 63.57347
#
# Poissons Ratio (x) = 0.45387 0.39886
# Poissons Ratio (y) = 0.29501 0.10188
# Poissons Ratio (z) = 0.34179 0.13431
#
# Static dielectric constant tensor:
#      x y z
#    x 2.801470 0.000000 0.000000 
#    y 0.000000 3.404270 0.000000 
#    z 0.000000 0.000000 3.109550 
# 
# 
# High freq. dielectric constant tensor:
#      x y z
#    x 1.580240 0.000000 0.000000 
#    y 0.000000 1.634300 0.000000 
#    z 0.000000 0.000000 1.619650 
# 
# From -- ./inp_files/47762.got.cif
#   From: 2010.06.25/outbox.cif.g09.slc.cpg/sg71_24_cif.got.tgz:47762.got - 2010.06.28 04:59:45.
