data_PCOD8287788
_publ_section_title
;
Structure prediction by ZEFSAII (Michael W. Deem and Ramdas Pophale) SiO2 
 PCOD8287788
Probable space group: I M M M
;
_chemical_formula_sum "Si O2"
_cell_formula_units_Z 56
_cell_length_a 18.902260
_cell_length_b 18.940967
_cell_length_c 9.604226
_cell_angle_alpha 90.000000
_cell_angle_beta 90.000000
_cell_angle_gamma 90.000000
_cell_volume 3438.573018
_symmetry_space_group_name_H-M "I M M M"
_symmetry_group_IT_number 71
_symmetry_cell_setting 'orthorhombic'
loop_
_space_group_symop_operation_xyz
x,y,z
-x,-y,z
x,-y,-z
-x,y,-z
-x,-y,-z
x,y,-z
-x,y,z
x,-y,z
1/2+x,1/2+y,1/2+z
1/2-x,1/2-y,1/2+z
1/2+x,1/2-y,1/2-z
1/2-x,1/2+y,1/2-z
1/2-x,1/2-y,1/2-z
1/2+x,1/2+y,1/2-z
1/2-x,1/2+y,1/2+z
1/2+x,1/2-y,1/2+z
loop_
_atom_site_type_symbol
_atom_site_label
_atom_site_fract_x
_atom_site_fract_y
_atom_site_fract_z
Si Si1 0.083154 0.083439 0.000000
Si Si2 0.582776 0.919978 0.155487
Si Si3 0.811088 0.170641 0.847963
Si Si4 0.317005 0.168211 0.338276
O O1 0.119926 0.119095 0.137567
O O2 0.000000 0.100571 0.000000
O O3 0.097529 0.000000 0.000000
O O4 0.500000 0.915525 0.181846
O O5 0.618410 0.873529 0.273284
O O6 0.609552 0.000000 0.171133
O O7 0.601427 0.892501 0.000000
O O8 0.756229 0.142588 0.733431
O O9 0.834145 0.249868 0.808106
O O10 0.772672 0.173004 0.000000
O O11 0.311207 0.150037 0.500000
#
# Coordination Sequence:
#
# PCOD8287788 Si02
#       4
#     8  16  16  16
#     4   9  18  34  56  78  96 126 178 225 252 292
#     4   9  19  34  49  68  99 140 179 209 242 298
#     4   8  18  33  50  75 100 131 168 207 251 309
#     4  10  18  31  50  75 105 135 161 212 260 305
#
# _framework density 16.285826
#
# number of rings (size 3 to 8) (size 9 to 14) (size 15 to 20)
#    0.857    2.143    0.000    1.714    0.000    4.571 
#    0.000    1.429    0.000    0.857    0.000    2.000 
#    0.000    0.000    0.000    0.000    0.000    0.000 
#
# Total GULP energy -346959.443134 kJ/mol
# GULP energy per Si atom -12391.408683 kJ/mol
# Density = 1.624876 g / cm^3
# Si number density = 16.285826 Si / 1000 Ang^3
#
#
#
# Elastic Constant Matrix: (Units=GPa)
#
#
# Indices 1 2 3 4 5 6 
#
# 1 84.1626 57.1204 47.5574 0.0000 0.0000 0.0000
# 2 57.1204 76.6848 41.9122 0.0000 0.0000 0.0000
# 3 47.5574 41.9122 99.1452 0.0000 0.0000 0.0000
# 4 0.0000 0.0000 0.0000 27.9007 0.0000 0.0000
# 5 0.0000 0.0000 0.0000 0.0000 29.3217 0.0000
# 6 0.0000 0.0000 0.0000 0.0000 0.0000 29.5924
#
#
#
# Elastic Compliance Matrix: (Units=1/GPa)
#
#
# Indices 1 2 3 4 5 6 
#
# 1 0.026237 -0.016470 -0.005623 0.000000 0.000000 0.000000
# 2 -0.016470 0.027298 -0.003639 0.000000 0.000000 0.000000
# 3 -0.005623 -0.003639 0.014322 0.000000 0.000000 0.000000
# 4 0.000000 0.000000 0.000000 0.035841 0.000000 0.000000
# 5 0.000000 0.000000 0.000000 0.000000 0.034104 0.000000
# 6 0.000000 0.000000 0.000000 0.000000 0.000000 0.033792
#
#
# Mechanical properties :
#
#
# Convention : Reuss Voigt Hill
#
# Bulk Modulus (GPa) = 61.00539 61.46362 61.23450
# Shear Modulus (GPa) = 21.87956 24.92312 23.40134
#
# Velocity S-wave (km/s) = 3.66932 3.91622 3.79478
# Velocity P-wave (km/s) = 7.44932 7.63358 7.54201
#
# Compressibility (1/GPa) = 0.01639200
#
# Stress axis : x y z
#
# Youngs Moduli (GPa) = 38.11381 36.63308 69.82367
#
# Poissons Ratio (x) = 0.60336 0.39260
# Poissons Ratio (y) = 0.62774 0.25411
# Poissons Ratio (z) = 0.21430 0.13332
#
# Static dielectric constant tensor:
#      x y z
#    x 2.895230 0.000000 0.000000 
#    y 0.000000 3.039770 0.000000 
#    z 0.000000 0.000000 3.024560 
# 
# 
# High freq. dielectric constant tensor:
#      x y z
#    x 1.615690 0.000000 0.000000 
#    y 0.000000 1.623390 0.000000 
#    z 0.000000 0.000000 1.617100 
# 
# From -- ./inp_files/9742.got.cif
#   From: 2010.06.25/outbox.cif.g09.slc.cpg/sg71_5_cif.got.tgz:9742.got - 2010.06.28 04:59:45.
