data_PCOD8287826
_publ_section_title
;
Structure prediction by ZEFSAII (Michael W. Deem and Ramdas Pophale) SiO2 
 PCOD8287826
Probable space group: I M M M
;
_chemical_formula_sum "Si O2"
_cell_formula_units_Z 104
_cell_length_a 27.242730
_cell_length_b 8.748462
_cell_length_c 24.251219
_cell_angle_alpha 90.000000
_cell_angle_beta 90.000000
_cell_angle_gamma 90.000000
_cell_volume 5779.841240
_symmetry_space_group_name_H-M "I M M M"
_symmetry_group_IT_number 71
_symmetry_cell_setting 'orthorhombic'
loop_
_space_group_symop_operation_xyz
x,y,z
-x,-y,z
x,-y,-z
-x,y,-z
-x,-y,-z
x,y,-z
-x,y,z
x,-y,z
1/2+x,1/2+y,1/2+z
1/2-x,1/2-y,1/2+z
1/2+x,1/2-y,1/2-z
1/2-x,1/2+y,1/2-z
1/2-x,1/2-y,1/2-z
1/2+x,1/2+y,1/2-z
1/2-x,1/2+y,1/2+z
1/2+x,1/2-y,1/2+z
loop_
_atom_site_type_symbol
_atom_site_label
_atom_site_fract_x
_atom_site_fract_y
_atom_site_fract_z
Si Si1 0.676110 0.681212 0.346373
Si Si2 0.099480 0.179792 0.937698
Si Si3 0.360141 0.820019 0.766575
Si Si4 0.768619 0.182121 0.307321
Si Si5 0.442720 0.324169 0.169954
Si Si6 0.058204 0.671331 0.439799
Si Si7 0.000000 0.672086 0.065484
O O1 0.680986 0.500000 0.340684
O O2 0.645179 0.730155 0.400052
O O3 0.648767 0.745670 0.292802
O O4 0.730538 0.755295 0.353345
O O5 0.049347 0.248174 0.912214
O O6 0.092730 0.000000 0.937326
O O7 0.109250 0.239717 0.000000
O O8 0.323667 0.748282 0.813391
O O9 0.415121 0.780049 0.785354
O O10 0.351998 0.000000 0.762185
O O11 0.750000 0.250000 0.250000
O O12 0.769177 0.000000 0.307320
O O13 0.500000 0.286865 0.176363
O O14 0.430970 0.500000 0.181705
O O15 0.423699 0.284088 0.108290
O O16 0.078173 0.725721 0.500000
O O17 0.077340 0.500000 0.427061
O O18 0.000000 0.670914 0.441771
O O19 0.000000 0.500000 0.087262
O O20 0.000000 0.683664 0.000000
#
# Coordination Sequence:
#
# PCOD8287826 Si02
#       7
#    16  16  16  16  16  16   8
#     4  10  19  33  53  77 102 128 165 210 254 303
#     4   9  18  33  53  75 101 136 174 211 255 309
#     4  11  21  34  52  73 100 133 170 209 253 305
#     4  10  18  31  52  75  99 124 157 200 244 293
#     4  10  20  33  49  71 101 134 167 205 249 298
#     4   8  14  26  45  68  93 123 160 198 234 277
#     4   9  17  29  47  71  99 131 169 213 254 295
#
# _framework density 17.993573999999999
#
# number of rings (size 3 to 8) (size 9 to 14) (size 15 to 20)
#    0.000    2.385    0.000    6.231    0.000    3.385 
#    1.385    1.538    0.000    0.923    0.000    2.154 
#    0.000    0.000    0.000    0.000    0.000    0.000 
#
# Total GULP energy -644549.626952 kJ/mol
# GULP energy per Si atom -12395.185134 kJ/mol
# Density = 1.795262 g / cm^3
# Si number density = 17.993574 Si / 1000 Ang^3
#
#
#
# Elastic Constant Matrix: (Units=GPa)
#
#
# Indices 1 2 3 4 5 6 
#
# 1 90.9679 43.1426 43.7891 0.0000 0.0000 0.0000
# 2 43.1426 93.0153 29.6909 0.0000 0.0000 0.0000
# 3 43.7891 29.6909 68.5774 0.0000 0.0000 0.0000
# 4 0.0000 0.0000 0.0000 23.9440 0.0000 0.0000
# 5 0.0000 0.0000 0.0000 0.0000 27.0636 0.0000
# 6 0.0000 0.0000 0.0000 0.0000 0.0000 29.5440
#
#
#
# Elastic Compliance Matrix: (Units=1/GPa)
#
#
# Indices 1 2 3 4 5 6 
#
# 1 0.017950 -0.005415 -0.009117 0.000000 0.000000 0.000000
# 2 -0.005415 0.014109 -0.002651 0.000000 0.000000 0.000000
# 3 -0.009117 -0.002651 0.021551 0.000000 0.000000 0.000000
# 4 0.000000 0.000000 0.000000 0.041764 0.000000 0.000000
# 5 0.000000 0.000000 0.000000 0.000000 0.036950 0.000000
# 6 0.000000 0.000000 0.000000 0.000000 0.000000 0.033848
#
#
# Mechanical properties :
#
#
# Convention : Reuss Voigt Hill
#
# Bulk Modulus (GPa) = 51.96442 53.97840 52.97141
# Shear Modulus (GPa) = 24.16020 25.17287 24.66653
#
# Velocity S-wave (km/s) = 3.66828 3.74437 3.70652
# Velocity P-wave (km/s) = 6.84718 6.98266 6.91525
#
# Compressibility (1/GPa) = 0.01924394
#
# Stress axis : x y z
#
# Youngs Moduli (GPa) = 55.71092 70.87804 46.40122
#
# Poissons Ratio (x) = 0.38383 0.42304
# Poissons Ratio (y) = 0.30169 0.12299
# Poissons Ratio (z) = 0.50792 0.18787
#
# Static dielectric constant tensor:
#      x y z
#    x 3.637830 0.000000 0.000000 
#    y 0.000000 3.369030 0.000000 
#    z 0.000000 0.000000 3.320170 
# 
# 
# High freq. dielectric constant tensor:
#      x y z
#    x 1.687070 0.000000 0.000000 
#    y 0.000000 1.705880 0.000000 
#    z 0.000000 0.000000 1.668450 
# 
# From -- ./inp_files/56739.got.cif
#   From: 2010.06.25/outbox.cif.g09.slc.cpg/sg71_29_cif.got.tgz:56739.got - 2010.06.28 04:59:45.
