data_PCOD8287696
_publ_section_title
;
Structure prediction by ZEFSAII (Michael W. Deem and Ramdas Pophale) SiO2 
 PCOD8287696
Probable space group: I M M M
;
_chemical_formula_sum "Si O2"
_cell_formula_units_Z 68
_cell_length_a 28.111148
_cell_length_b 12.175812
_cell_length_c 11.885050
_cell_angle_alpha 90.000000
_cell_angle_beta 90.000000
_cell_angle_gamma 90.000000
_cell_volume 4067.968006
_symmetry_space_group_name_H-M "I M M M"
_symmetry_group_IT_number 71
_symmetry_cell_setting 'orthorhombic'
loop_
_space_group_symop_operation_xyz
x,y,z
-x,-y,z
x,-y,-z
-x,y,-z
-x,-y,-z
x,y,-z
-x,y,z
x,-y,z
1/2+x,1/2+y,1/2+z
1/2-x,1/2-y,1/2+z
1/2+x,1/2-y,1/2-z
1/2-x,1/2+y,1/2-z
1/2-x,1/2-y,1/2-z
1/2+x,1/2+y,1/2-z
1/2-x,1/2+y,1/2+z
1/2+x,1/2-y,1/2+z
loop_
_atom_site_type_symbol
_atom_site_label
_atom_site_fract_x
_atom_site_fract_y
_atom_site_fract_z
Si Si1 0.157472 0.500000 0.500000
Si Si2 0.798484 0.294475 0.872650
Si Si3 0.657923 0.000000 0.750758
Si Si4 0.949407 0.500000 0.686571
Si Si5 0.879673 0.123295 0.500000
Si Si6 0.073795 0.342663 0.500000
Si Si7 0.802234 0.126785 0.687878
O O1 0.182899 0.500000 0.377044
O O2 0.127403 0.388402 0.500000
O O3 0.825606 0.393296 0.813712
O O4 0.811823 0.182359 0.808431
O O5 0.741981 0.314264 0.872553
O O6 0.816489 0.282760 0.000000
O O7 0.600052 0.000000 0.745741
O O8 0.951853 0.610388 0.610578
O O9 0.000000 0.500000 0.756675
O O10 0.923327 0.209978 0.500000
O O11 0.848276 0.141554 0.610890
O O12 0.901077 0.000000 0.500000
O O13 0.789508 0.000000 0.707209
#
# Coordination Sequence:
#
# PCOD8287696 Si02
#       7
#     4  16   8   8   8   8  16
#     4   8  16  28  45  72  94 114 160 216 240 296
#     4  11  21  33  48  67  97 133 172 211 247 285
#     4  10  19  32  52  74  98 128 168 208 252 309
#     4   9  17  30  51  76 101 128 159 210 262 307
#     4  10  18  30  51  70 104 134 166 204 242 303
#     4   8  14  27  46  73  99 128 160 190 258 312
#     4  10  20  33  46  67  95 134 172 209 242 283
#
# _framework density 16.715962999999999
#
# number of rings (size 3 to 8) (size 9 to 14) (size 15 to 20)
#    0.000    2.588    2.353    3.882    0.000    0.471 
#    2.118    0.000    0.000    2.824    0.000    0.000 
#    0.000    0.000    0.000    8.471    0.000    0.000 
#
# Total GULP energy -421256.314821 kJ/mol
# GULP energy per Si atom -12389.891612 kJ/mol
# Density = 1.667792 g / cm^3
# Si number density = 16.715963 Si / 1000 Ang^3
#
#
#
# Elastic Constant Matrix: (Units=GPa)
#
#
# Indices 1 2 3 4 5 6 
#
# 1 48.4150 11.4679 9.9748 0.0000 0.0000 0.0000
# 2 11.4679 103.6677 34.9081 0.0000 0.0000 0.0000
# 3 9.9748 34.9081 118.2444 0.0000 0.0000 0.0000
# 4 0.0000 0.0000 0.0000 21.2859 0.0000 0.0000
# 5 0.0000 0.0000 0.0000 0.0000 9.9748 0.0000
# 6 0.0000 0.0000 0.0000 0.0000 0.0000 6.8521
#
#
#
# Elastic Compliance Matrix: (Units=1/GPa)
#
#
# Indices 1 2 3 4 5 6 
#
# 1 0.021370 -0.001951 -0.001227 0.000000 0.000000 0.000000
# 2 -0.001951 0.010889 -0.003050 0.000000 0.000000 0.000000
# 3 -0.001227 -0.003050 0.009461 0.000000 0.000000 0.000000
# 4 0.000000 0.000000 0.000000 0.046979 0.000000 0.000000
# 5 0.000000 0.000000 0.000000 0.000000 0.100252 0.000000
# 6 0.000000 0.000000 0.000000 0.000000 0.000000 0.145941
#
#
# Mechanical properties :
#
#
# Convention : Reuss Voigt Hill
#
# Bulk Modulus (GPa) = 34.17138 42.55874 38.36506
# Shear Modulus (GPa) = 14.00159 21.88766 17.94463
#
# Velocity S-wave (km/s) = 2.89730 3.62247 3.27999
# Velocity P-wave (km/s) = 5.62843 6.55832 6.11109
#
# Compressibility (1/GPa) = 0.02926425
#
# Stress axis : x y z
#
# Youngs Moduli (GPa) = 46.79544 91.83512 105.69714
#
# Poissons Ratio (x) = 0.17916 0.12966
# Poissons Ratio (y) = 0.09129 0.32239
# Poissons Ratio (z) = 0.05741 0.28011
#
# Static dielectric constant tensor:
#      x y z
#    x 2.867610 0.000000 0.000000 
#    y 0.000000 3.252740 0.000000 
#    z 0.000000 0.000000 3.101590 
# 
# 
# High freq. dielectric constant tensor:
#      x y z
#    x 1.608560 0.000000 0.000000 
#    y 0.000000 1.649640 0.000000 
#    z 0.000000 0.000000 1.627630 
# 
# From -- ./inp_files/29655.got.cif
#   From: 2010.06.25/outbox.cif.g09.slc.cpg/sg71_15_cif.got.tgz:29655.got - 2010.06.28 04:59:45.
