data_PCOD8287377
_publ_section_title
;
Structure prediction by ZEFSAII (Michael W. Deem and Ramdas Pophale) SiO2 
 PCOD8287377
Probable space group: I M M M
;
_chemical_formula_sum "Si O2"
_cell_formula_units_Z 96
_cell_length_a 22.066026
_cell_length_b 12.486473
_cell_length_c 24.249579
_cell_angle_alpha 90.000000
_cell_angle_beta 90.000000
_cell_angle_gamma 90.000000
_cell_volume 6681.409821
_symmetry_space_group_name_H-M "I M M M"
_symmetry_group_IT_number 71
_symmetry_cell_setting 'orthorhombic'
loop_
_space_group_symop_operation_xyz
x,y,z
-x,-y,z
x,-y,-z
-x,y,-z
-x,-y,-z
x,y,-z
-x,y,z
x,-y,z
1/2+x,1/2+y,1/2+z
1/2-x,1/2-y,1/2+z
1/2+x,1/2-y,1/2-z
1/2-x,1/2+y,1/2-z
1/2-x,1/2-y,1/2-z
1/2+x,1/2+y,1/2-z
1/2-x,1/2+y,1/2+z
1/2+x,1/2-y,1/2+z
loop_
_atom_site_type_symbol
_atom_site_label
_atom_site_fract_x
_atom_site_fract_y
_atom_site_fract_z
Si Si1 0.568404 0.000000 0.934405
Si Si2 0.266348 0.376163 0.436614
Si Si3 0.567245 0.372914 0.260382
Si Si4 0.500000 0.372306 0.437672
Si Si5 0.636404 0.790886 0.064477
Si Si6 0.929308 0.125025 0.638041
Si Si7 0.617002 0.627363 0.626902
O O1 0.601433 0.894365 0.911725
O O2 0.500000 0.000000 0.912371
O O3 0.571919 0.000000 0.000000
O O4 0.286668 0.365117 0.500000
O O5 0.251127 0.500000 0.423401
O O6 0.207605 0.304873 0.424063
O O7 0.320384 0.329608 0.398802
O O8 0.500000 0.326775 0.271999
O O9 0.562900 0.500000 0.260976
O O10 0.589634 0.336707 0.199827
O O11 0.611906 0.333640 0.309292
O O12 0.500000 0.500000 0.436314
O O13 0.500000 0.329019 0.500000
O O14 0.559765 0.327445 0.407196
O O15 0.612685 0.686090 0.094986
O O16 0.623106 0.776213 0.000000
O O17 0.000000 0.150417 0.627451
O O18 0.916478 0.000000 0.629843
O O19 0.616966 0.500000 0.622598
#
# Coordination Sequence:
#
# PCOD8287377 Si02
#       7
#     8  16  16   8  16  16  16
#     4   9  16  26  42  60  76  99 133 169 203 240
#     4   9  16  26  38  55  82 115 141 161 194 243
#     4   8  13  24  39  55  77 105 137 168 200 239
#     4   9  14  18  28  54  84 106 134 170 199 230
#     4  10  18  29  42  58  82 108 136 169 206 248
#     4   9  18  30  44  61  80 103 134 174 214 248
#     4   9  14  21  36  55  78 109 140 166 196 235
#
# _framework density 14.368226
#
# number of rings (size 3 to 8) (size 9 to 14) (size 15 to 20)
#    0.000    3.000    1.667    2.000    0.000    3.333 
#    0.000    1.667    0.000    0.000    0.000    0.000 
#    0.000    0.000    0.000    0.750    0.000    8.417 
#
# Total GULP energy -594929.827994 kJ/mol
# GULP energy per Si atom -12394.371417 kJ/mol
# Density = 1.433552 g / cm^3
# Si number density = 14.368226 Si / 1000 Ang^3
#
#
#
# Elastic Constant Matrix: (Units=GPa)
#
#
# Indices 1 2 3 4 5 6 
#
# 1 101.1784 33.1147 61.6200 0.0000 0.0000 0.0000
# 2 33.1147 35.8209 33.0069 0.0000 0.0000 0.0000
# 3 61.6200 33.0069 92.8112 0.0000 0.0000 0.0000
# 4 0.0000 0.0000 0.0000 9.8356 0.0000 0.0000
# 5 0.0000 0.0000 0.0000 0.0000 23.3314 0.0000
# 6 0.0000 0.0000 0.0000 0.0000 0.0000 13.3882
#
#
#
# Elastic Compliance Matrix: (Units=1/GPa)
#
#
# Indices 1 2 3 4 5 6 
#
# 1 0.018163 -0.008447 -0.009055 0.000000 0.000000 0.000000
# 2 -0.008447 0.045453 -0.010556 0.000000 0.000000 0.000000
# 3 -0.009055 -0.010556 0.020540 0.000000 0.000000 0.000000
# 4 0.000000 0.000000 0.000000 0.101672 0.000000 0.000000
# 5 0.000000 0.000000 0.000000 0.000000 0.042861 0.000000
# 6 0.000000 0.000000 0.000000 0.000000 0.000000 0.074693
#
#
# Mechanical properties :
#
#
# Convention : Reuss Voigt Hill
#
# Bulk Modulus (GPa) = 35.66386 53.92152 44.79269
# Shear Modulus (GPa) = 13.55590 16.11563 14.83576
#
# Velocity S-wave (km/s) = 3.07492 3.35269 3.21680
# Velocity P-wave (km/s) = 6.12226 7.25239 6.71115
#
# Compressibility (1/GPa) = 0.02803959
#
# Stress axis : x y z
#
# Youngs Moduli (GPa) = 55.05782 22.00095 48.68481
#
# Poissons Ratio (x) = 0.18585 0.44082
# Poissons Ratio (y) = 0.46509 0.51392
# Poissons Ratio (z) = 0.49853 0.23224
#
# Static dielectric constant tensor:
#      x y z
#    x 2.860840 0.000000 0.000000 
#    y 0.000000 2.318090 0.000000 
#    z 0.000000 0.000000 2.927100 
# 
# 
# High freq. dielectric constant tensor:
#      x y z
#    x 1.549230 0.000000 0.000000 
#    y 0.000000 1.487100 0.000000 
#    z 0.000000 0.000000 1.548230 
# 
# From -- ./inp_files/61268.got.cif
#   From: 2010.06.25/outbox.cif.g09.slc.cpg/sg71_31_cif.got.tgz:61268.got - 2010.06.28 04:59:45.
