data_PCOD8287048
_publ_section_title
;
Structure prediction by ZEFSAII (Michael W. Deem and Ramdas Pophale) SiO2 
 PCOD8287048
Probable space group: I M M M
;
_chemical_formula_sum "Si O2"
_cell_formula_units_Z 128
_cell_length_a 17.905710
_cell_length_b 18.253938
_cell_length_c 23.451135
_cell_angle_alpha 90.000000
_cell_angle_beta 90.000000
_cell_angle_gamma 90.000000
_cell_volume 7664.996913
_symmetry_space_group_name_H-M "I M M M"
_symmetry_group_IT_number 71
_symmetry_cell_setting 'orthorhombic'
loop_
_space_group_symop_operation_xyz
x,y,z
-x,-y,z
x,-y,-z
-x,y,-z
-x,-y,-z
x,y,-z
-x,y,z
x,-y,z
1/2+x,1/2+y,1/2+z
1/2-x,1/2-y,1/2+z
1/2+x,1/2-y,1/2-z
1/2-x,1/2+y,1/2-z
1/2-x,1/2-y,1/2-z
1/2+x,1/2+y,1/2-z
1/2-x,1/2+y,1/2+z
1/2+x,1/2-y,1/2+z
loop_
_atom_site_type_symbol
_atom_site_label
_atom_site_fract_x
_atom_site_fract_y
_atom_site_fract_z
Si Si1 0.277746 0.185876 0.838760
Si Si2 0.763760 0.084108 0.936116
Si Si3 0.916620 0.716536 0.267154
Si Si4 0.919334 0.881446 0.764521
Si Si5 0.412933 0.084497 0.566324
Si Si6 0.767291 0.079732 0.738714
Si Si7 0.581454 0.415277 0.610162
Si Si8 0.323564 0.170792 0.340333
O O1 0.282884 0.136964 0.895352
O O2 0.362925 0.202459 0.821275
O O3 0.242165 0.140354 0.787314
O O4 0.226591 0.256948 0.850684
O O5 0.852535 0.102768 0.933948
O O6 0.750186 0.000000 0.917541
O O7 0.735675 0.097870 0.000000
O O8 0.921716 0.802520 0.262889
O O9 0.884668 0.681802 0.209089
O O10 0.000000 0.683706 0.278006
O O11 0.856748 0.928988 0.732316
O O12 0.902320 0.871010 0.832020
O O13 0.000000 0.920316 0.756961
O O14 0.394391 0.098158 0.500000
O O15 0.500000 0.099899 0.578312
O O16 0.364073 0.142557 0.602500
O O17 0.394168 0.000000 0.582596
O O18 0.731847 0.106253 0.679711
O O19 0.733608 0.000000 0.755040
O O20 0.500000 0.394066 0.583810
O O21 0.582590 0.500000 0.627518
#
# Coordination Sequence:
#
# PCOD8287048 Si02
#       8
#    16  16  16  16  16  16  16  16
#     4  11  20  34  49  71 102 131 164 204 256 298
#     4  10  20  33  50  70  93 128 172 213 250 293
#     4  10  19  32  50  71  99 131 162 200 247 296
#     4  10  17  28  45  69  98 133 166 193 230 286
#     4   9  19  36  55  74 100 135 171 207 249 296
#     4  11  19  30  48  72 102 137 167 201 244 291
#     4   9  16  26  42  65  96 133 165 192 227 276
#     4  11  19  32  50  79 102 131 165 209 243 293
#
# _framework density 16.699289
#
# number of rings (size 3 to 8) (size 9 to 14) (size 15 to 20)
#    0.000    1.875    3.750    2.625    0.000    1.500 
#    0.000    1.875    0.000    7.875    0.000    0.875 
#    0.000    0.500    0.000    4.250    0.000    0.000 
#
# Total GULP energy -793132.955932 kJ/mol
# GULP energy per Si atom -12392.702436 kJ/mol
# Density = 1.666128 g / cm^3
# Si number density = 16.699289 Si / 1000 Ang^3
#
#
#
# Elastic Constant Matrix: (Units=GPa)
#
#
# Indices 1 2 3 4 5 6 
#
# 1 91.1976 37.6856 47.3790 0.0000 0.0000 0.0000
# 2 37.6856 84.3086 42.5246 0.0000 0.0000 0.0000
# 3 47.3790 42.5246 86.9243 0.0000 0.0000 0.0000
# 4 0.0000 0.0000 0.0000 -5.3671 0.0000 0.0000
# 5 0.0000 0.0000 0.0000 0.0000 27.2674 0.0000
# 6 0.0000 0.0000 0.0000 0.0000 0.0000 18.4374
#
#
#
# Elastic Compliance Matrix: (Units=1/GPa)
#
#
# Indices 1 2 3 4 5 6 
#
# 1 0.016114 -0.003681 -0.006982 0.000000 0.000000 0.000000
# 2 -0.003681 0.016588 -0.006109 0.000000 0.000000 0.000000
# 3 -0.006982 -0.006109 0.018298 0.000000 0.000000 0.000000
# 4 0.000000 0.000000 0.000000 -0.186320 0.000000 0.000000
# 5 0.000000 0.000000 0.000000 0.000000 0.036674 0.000000
# 6 0.000000 0.000000 0.000000 0.000000 0.000000 0.054238
#
#
# Mechanical properties :
#
#
# Convention : Reuss Voigt Hill
#
# Bulk Modulus (GPa) = 57.28587 57.51208 57.39898
# Shear Modulus (GPa) = -990.67871 17.05696 -486.81087
#
# Velocity S-wave (km/s) = -24.38307 3.19943 -17.09236
# Velocity P-wave (km/s) = 27.53785 6.93996 18.84370
#
# Compressibility (1/GPa) = 0.01745631
#
# Stress axis : x y z
#
# Youngs Moduli (GPa) = 62.05917 60.28563 54.64985
#
# Poissons Ratio (x) = 0.22191 0.38157
# Poissons Ratio (y) = 0.22844 0.33383
# Poissons Ratio (z) = 0.43330 0.36826
#
# Static dielectric constant tensor:
#      x y z
#    x 3.519020 0.000000 0.000000 
#    y 0.000000 3.120880 0.000000 
#    z 0.000000 0.000000 2.903310 
# 
# 
# High freq. dielectric constant tensor:
#      x y z
#    x 1.640680 0.000000 0.000000 
#    y 0.000000 1.645240 0.000000 
#    z 0.000000 0.000000 1.610380 
# 
# From -- ./inp_files/48432.got.cif
#   From: 2010.06.25/outbox.cif.g09.slc.cpg/sg71_25_cif.got.tgz:48432.got - 2010.06.28 04:59:45.
