data_PCOD8287238
_publ_section_title
;
Structure prediction by ZEFSAII (Michael W. Deem and Ramdas Pophale) SiO2 
 PCOD8287238
Probable space group: I M M M
;
_chemical_formula_sum "Si O2"
_cell_formula_units_Z 88
_cell_length_a 27.941236
_cell_length_b 20.124984
_cell_length_c 9.214633
_cell_angle_alpha 90.000000
_cell_angle_beta 90.000000
_cell_angle_gamma 90.000000
_cell_volume 5181.544116
_symmetry_space_group_name_H-M "I M M M"
_symmetry_group_IT_number 71
_symmetry_cell_setting 'orthorhombic'
loop_
_space_group_symop_operation_xyz
x,y,z
-x,-y,z
x,-y,-z
-x,y,-z
-x,-y,-z
x,y,-z
-x,y,z
x,-y,z
1/2+x,1/2+y,1/2+z
1/2-x,1/2-y,1/2+z
1/2+x,1/2-y,1/2-z
1/2-x,1/2+y,1/2-z
1/2-x,1/2-y,1/2-z
1/2+x,1/2+y,1/2-z
1/2-x,1/2+y,1/2+z
1/2+x,1/2-y,1/2+z
loop_
_atom_site_type_symbol
_atom_site_label
_atom_site_fract_x
_atom_site_fract_y
_atom_site_fract_z
Si Si1 0.446415 0.142840 0.673866
Si Si2 0.556530 0.000000 0.657686
Si Si3 0.638037 0.234553 0.670425
Si Si4 0.783396 0.370303 0.169608
Si Si5 0.327184 0.644041 0.164492
Si Si6 0.182477 0.000000 0.665037
Si Si7 0.779067 0.500000 0.672020
O O1 0.445079 0.137997 0.500000
O O2 0.500000 0.161841 0.726668
O O3 0.430277 0.069872 0.737557
O O4 0.409499 0.198173 0.731068
O O5 0.500000 0.000000 0.635437
O O6 0.581846 0.000000 0.500000
O O7 0.634401 0.243713 0.500000
O O8 0.684775 0.192633 0.715182
O O9 0.641288 0.307635 0.737672
O O10 0.728585 0.354154 0.210520
O O11 0.802751 0.433805 0.259665
O O12 0.789018 0.386614 0.000000
O O13 0.347519 0.568308 0.184569
O O14 0.332774 0.668260 0.000000
O O15 0.223577 0.000000 0.784619
O O16 0.204742 0.000000 0.500000
O O17 0.785476 0.500000 0.500000
#
# Coordination Sequence:
#
# PCOD8287238 Si02
#       7
#    16   8  16  16  16   8   8
#     4   8  14  25  41  63  89 113 141 182 225 256
#     4   7  10  19  36  56  80 111 143 172 205 246
#     4  10  19  28  43  67  90 115 147 180 217 263
#     4   9  18  31  43  59  89 124 151 178 216 259
#     4   9  17  30  46  62  86 117 144 175 216 262
#     4   8  16  32  49  63  83 115 148 177 218 264
#     4  10  18  27  43  65  86 115 154 190 218 247
#
# _framework density 16.983353999999999
#
# number of rings (size 3 to 8) (size 9 to 14) (size 15 to 20)
#    0.000    3.182    0.000    3.545    0.000    4.364 
#    0.000    2.727    0.000    0.545    0.000    0.636 
#    0.000    8.000    0.000    0.000    0.000    0.000 
#
# Total GULP energy -545124.659820 kJ/mol
# GULP energy per Si atom -12389.196814 kJ/mol
# Density = 1.694470 g / cm^3
# Si number density = 16.983354 Si / 1000 Ang^3
#
#
#
# Elastic Constant Matrix: (Units=GPa)
#
#
# Indices 1 2 3 4 5 6 
#
# 1 65.2170 58.3177 16.5056 0.0000 0.0000 0.0000
# 2 58.3177 156.7356 38.5618 0.0000 0.0000 0.0000
# 3 16.5056 38.5618 39.7019 0.0000 0.0000 0.0000
# 4 0.0000 0.0000 0.0000 28.2420 0.0000 0.0000
# 5 0.0000 0.0000 0.0000 0.0000 9.6674 0.0000
# 6 0.0000 0.0000 0.0000 0.0000 0.0000 17.5552
#
#
#
# Elastic Compliance Matrix: (Units=1/GPa)
#
#
# Indices 1 2 3 4 5 6 
#
# 1 0.023060 -0.008175 -0.001647 0.000000 0.000000 0.000000
# 2 -0.008175 0.011282 -0.007559 0.000000 0.000000 0.000000
# 3 -0.001647 -0.007559 0.033214 0.000000 0.000000 0.000000
# 4 0.000000 0.000000 0.000000 0.035408 0.000000 0.000000
# 5 0.000000 0.000000 0.000000 0.000000 0.103440 0.000000
# 6 0.000000 0.000000 0.000000 0.000000 0.000000 0.056963
#
#
# Mechanical properties :
#
#
# Convention : Reuss Voigt Hill
#
# Bulk Modulus (GPa) = 30.49275 54.26940 42.38107
# Shear Modulus (GPa) = 16.17800 20.97755 18.57777
#
# Velocity S-wave (km/s) = 3.08974 3.51833 3.31098
# Velocity P-wave (km/s) = 5.54275 6.96625 6.29487
#
# Compressibility (1/GPa) = 0.03279469
#
# Stress axis : x y z
#
# Youngs Moduli (GPa) = 43.36429 88.63910 30.10749
#
# Poissons Ratio (x) = 0.72463 0.04958
# Poissons Ratio (y) = 0.35451 0.22758
# Poissons Ratio (z) = 0.07141 0.67003
#
# Static dielectric constant tensor:
#      x y z
#    x 2.921550 0.000000 0.000000 
#    y 0.000000 3.493830 0.000000 
#    z 0.000000 0.000000 2.773030 
# 
# 
# High freq. dielectric constant tensor:
#      x y z
#    x 1.610070 0.000000 0.000000 
#    y 0.000000 1.667990 0.000000 
#    z 0.000000 0.000000 1.616440 
# 
# From -- ./inp_files/16920.got.cif
#   From: 2010.06.25/outbox.cif.g09.slc.cpg/sg71_9_cif.got.tgz:16920.got - 2010.06.28 04:59:45.
