data_PCOD8287131
_publ_section_title
;
Structure prediction by ZEFSAII (Michael W. Deem and Ramdas Pophale) SiO2 
 PCOD8287131
Probable space group: I M M M
;
_chemical_formula_sum "Si O2"
_cell_formula_units_Z 80
_cell_length_a 16.820056
_cell_length_b 27.565764
_cell_length_c 8.865032
_cell_angle_alpha 90.000000
_cell_angle_beta 90.000000
_cell_angle_gamma 90.000000
_cell_volume 4110.340296
_symmetry_space_group_name_H-M "I M M M"
_symmetry_group_IT_number 71
_symmetry_cell_setting 'orthorhombic'
loop_
_space_group_symop_operation_xyz
x,y,z
-x,-y,z
x,-y,-z
-x,y,-z
-x,-y,-z
x,y,-z
-x,y,z
x,-y,z
1/2+x,1/2+y,1/2+z
1/2-x,1/2-y,1/2+z
1/2+x,1/2-y,1/2-z
1/2-x,1/2+y,1/2-z
1/2-x,1/2-y,1/2-z
1/2+x,1/2+y,1/2-z
1/2-x,1/2+y,1/2+z
1/2+x,1/2-y,1/2+z
loop_
_atom_site_type_symbol
_atom_site_label
_atom_site_fract_x
_atom_site_fract_y
_atom_site_fract_z
Si Si1 0.174961 0.052356 0.169422
Si Si2 0.648004 0.711587 0.179551
Si Si3 0.000000 0.156229 0.661970
Si Si4 0.407699 0.189541 0.676721
Si Si5 0.730597 0.855732 0.180071
Si Si6 0.000000 0.946956 0.739838
O O1 0.221388 0.097344 0.246269
O O2 0.079582 0.059127 0.161606
O O3 0.194821 0.000000 0.248687
O O4 0.206378 0.050197 0.000000
O O5 0.579932 0.674559 0.242573
O O6 0.621471 0.764456 0.229036
O O7 0.727288 0.694011 0.264556
O O8 0.662125 0.709307 0.000000
O O9 0.000000 0.182896 0.500000
O O10 0.000000 0.098590 0.628144
O O11 0.391372 0.197259 0.500000
O O12 0.500000 0.178965 0.708168
O O13 0.356832 0.144269 0.743161
O O14 0.724876 0.855747 0.000000
O O15 0.000000 0.000000 0.657633
#
# Coordination Sequence:
#
# PCOD8287131 Si02
#       6
#    16  16   8  16  16   8
#     4   9  18  32  52  80 112 145 181 222 266 316
#     4  11  21  37  57  80 114 150 187 226 270 321
#     4  10  20  32  49  76 112 153 186 223 267 312
#     4  11  24  41  59  80 107 141 184 231 279 331
#     4  11  22  36  58  85 112 145 183 225 274 327
#     4  10  17  31  52  77 111 148 190 225 262 312
#
# _framework density 19.463108999999999
#
# number of rings (size 3 to 8) (size 9 to 14) (size 15 to 20)
#    0.000    1.600    3.000    2.700    0.000    2.600 
#    0.000    0.000    0.000    3.000    0.000    4.200 
#    0.000    0.000    0.000    0.000    0.000    0.000 
#
# Total GULP energy -495560.883435 kJ/mol
# GULP energy per Si atom -12389.022086 kJ/mol
# Density = 1.941881 g / cm^3
# Si number density = 19.463109 Si / 1000 Ang^3
#
#
#
# Elastic Constant Matrix: (Units=GPa)
#
#
# Indices 1 2 3 4 5 6 
#
# 1 133.9714 61.0517 37.8496 -0.0006 -0.0005 -0.0002
# 2 61.0517 105.7924 18.2961 -0.0004 -0.0005 -0.0002
# 3 37.8496 18.2961 72.3015 -0.0053 -0.0023 -0.0003
# 4 -0.0006 -0.0004 -0.0053 15.7082 -0.0004 -0.0001
# 5 -0.0005 -0.0005 -0.0023 -0.0004 22.3561 0.0004
# 6 -0.0002 -0.0002 -0.0003 -0.0001 0.0004 27.3283
#
#
#
# Elastic Compliance Matrix: (Units=1/GPa)
#
#
# Indices 1 2 3 4 5 6 
#
# 1 0.011368 -0.005784 -0.004487 -0.000001 0.000000 0.000000
# 2 -0.005784 0.012828 -0.000218 0.000000 0.000000 0.000000
# 3 -0.004487 -0.000218 0.016235 0.000005 0.000002 0.000000
# 4 -0.000001 0.000000 0.000005 0.063661 0.000001 0.000000
# 5 0.000000 0.000000 0.000002 0.000001 0.044730 -0.000001
# 6 0.000000 0.000000 0.000000 0.000000 -0.000001 0.036592
#
#
# Mechanical properties :
#
#
# Convention : Reuss Voigt Hill
#
# Bulk Modulus (GPa) = 51.40889 60.71777 56.06333
# Shear Modulus (GPa) = 23.48756 26.06974 24.77865
#
# Velocity S-wave (km/s) = 3.47763 3.66381 3.57194
# Velocity P-wave (km/s) = 6.52657 7.01157 6.77341
#
# Compressibility (1/GPa) = 0.01945189
#
# Stress axis : x y z
#
# Youngs Moduli (GPa) = 87.96628 77.95293 61.59418
#
# Poissons Ratio (x) = 0.45090 0.27640
# Poissons Ratio (y) = 0.50882 0.01344
# Poissons Ratio (z) = 0.39474 0.01701
#
# Static dielectric constant tensor:
#      x y z
#    x 3.841130 0.000000 -0.000010 
#    y 0.000000 3.794090 -0.000010 
#    z -0.000010 -0.000010 3.256160 
# 
# 
# High freq. dielectric constant tensor:
#      x y z
#    x 1.757280 0.000000 0.000000 
#    y 0.000000 1.752570 0.000000 
#    z 0.000000 0.000000 1.736600 
# 
# From -- ./inp_files/8416.got.cif
#   From: 2010.06.25/outbox.cif.g09.slc.cpg/sg71_5_cif.got.tgz:8416.got - 2010.06.28 04:59:45.
