data_PCOD8287382
_publ_section_title
;
Structure prediction by ZEFSAII (Michael W. Deem and Ramdas Pophale) SiO2 
 PCOD8287382
Probable space group: I M M M
;
_chemical_formula_sum "Si O2"
_cell_formula_units_Z 80
_cell_length_a 25.518328
_cell_length_b 23.537710
_cell_length_c 9.427226
_cell_angle_alpha 90.000000
_cell_angle_beta 90.000000
_cell_angle_gamma 90.000000
_cell_volume 5662.397345
_symmetry_space_group_name_H-M "I M M M"
_symmetry_group_IT_number 71
_symmetry_cell_setting 'orthorhombic'
loop_
_space_group_symop_operation_xyz
x,y,z
-x,-y,z
x,-y,-z
-x,y,-z
-x,-y,-z
x,y,-z
-x,y,z
x,-y,z
1/2+x,1/2+y,1/2+z
1/2-x,1/2-y,1/2+z
1/2+x,1/2-y,1/2-z
1/2-x,1/2+y,1/2-z
1/2-x,1/2-y,1/2-z
1/2+x,1/2+y,1/2-z
1/2-x,1/2+y,1/2+z
1/2+x,1/2-y,1/2+z
loop_
_atom_site_type_symbol
_atom_site_label
_atom_site_fract_x
_atom_site_fract_y
_atom_site_fract_z
Si Si1 0.250633 0.622506 0.163145
Si Si2 0.940257 0.383211 0.667087
Si Si3 0.388141 0.000000 0.832825
Si Si4 0.292565 0.284977 0.663994
Si Si5 0.282252 0.000000 0.337803
Si Si6 0.858122 0.681457 0.839123
O O1 0.294673 0.652841 0.262160
O O2 0.253536 0.555171 0.191542
O O3 0.192740 0.644637 0.205130
O O4 0.262673 0.637927 0.000000
O O5 0.934517 0.376204 0.500000
O O6 0.920408 0.444946 0.716892
O O7 0.906439 0.333742 0.739024
O O8 0.000000 0.376197 0.716364
O O9 0.331749 0.000000 0.762916
O O10 0.379625 0.000000 0.000000
O O11 0.275843 0.291346 0.500000
O O12 0.250000 0.250000 0.750000
O O13 0.346566 0.249230 0.676039
O O14 0.302551 0.000000 0.500000
O O15 0.873595 0.666493 0.000000
#
# Coordination Sequence:
#
# PCOD8287382 Si02
#       6
#    16  16   8  16   8  16
#     4   9  17  28  42  60  81 105 133 165 202 242
#     4  10  20  31  42  57  78 105 138 177 215 246
#     4  10  19  30  42  56  76 106 142 177 211 245
#     4   9  17  28  42  59  79 101 129 165 203 245
#     4  10  18  29  43  59  84 110 135 171 206 239
#     4   9  17  29  43  58  76 101 133 169 206 243
#
# _framework density 14.128291000000001
#
# number of rings (size 3 to 8) (size 9 to 14) (size 15 to 20)
#    0.000    2.600    2.000    2.100    0.000    6.400 
#    0.000    0.000    0.000    1.800    0.000    0.000 
#    0.000    0.000    0.000    0.900    0.000   17.600 
#
# Total GULP energy -495831.758659 kJ/mol
# GULP energy per Si atom -12395.793966 kJ/mol
# Density = 1.409613 g / cm^3
# Si number density = 14.128291 Si / 1000 Ang^3
#
#
#
# Elastic Constant Matrix: (Units=GPa)
#
#
# Indices 1 2 3 4 5 6 
#
# 1 46.5921 42.2740 31.6856 0.0000 0.0000 0.0000
# 2 42.2740 101.1783 43.7570 0.0000 0.0000 0.0000
# 3 31.6856 43.7570 58.4276 0.0000 0.0000 0.0000
# 4 0.0000 0.0000 0.0000 23.3776 0.0000 0.0000
# 5 0.0000 0.0000 0.0000 0.0000 20.9749 0.0000
# 6 0.0000 0.0000 0.0000 0.0000 0.0000 14.9811
#
#
#
# Elastic Compliance Matrix: (Units=1/GPa)
#
#
# Indices 1 2 3 4 5 6 
#
# 1 0.041014 -0.011118 -0.013916 0.000000 0.000000 0.000000
# 2 -0.011118 0.017632 -0.007175 0.000000 0.000000 0.000000
# 3 -0.013916 -0.007175 0.030035 0.000000 0.000000 0.000000
# 4 0.000000 0.000000 0.000000 0.042776 0.000000 0.000000
# 5 0.000000 0.000000 0.000000 0.000000 0.047676 0.000000
# 6 0.000000 0.000000 0.000000 0.000000 0.000000 0.066751
#
#
# Mechanical properties :
#
#
# Convention : Reuss Voigt Hill
#
# Bulk Modulus (GPa) = 41.21471 49.07016 45.14243
# Shear Modulus (GPa) = 15.70394 17.76545 16.73469
#
# Velocity S-wave (km/s) = 3.33757 3.54988 3.44536
# Velocity P-wave (km/s) = 6.63985 7.18397 6.91726
#
# Compressibility (1/GPa) = 0.02426318
#
# Stress axis : x y z
#
# Youngs Moduli (GPa) = 24.38174 56.71464 33.29399
#
# Poissons Ratio (x) = 0.63057 0.46331
# Poissons Ratio (y) = 0.27108 0.23890
# Poissons Ratio (z) = 0.33929 0.40695
#
# Static dielectric constant tensor:
#      x y z
#    x 2.506550 0.000000 0.000000 
#    y 0.000000 3.168280 0.000000 
#    z 0.000000 0.000000 2.882640 
# 
# 
# High freq. dielectric constant tensor:
#      x y z
#    x 1.488230 0.000000 0.000000 
#    y 0.000000 1.537460 0.000000 
#    z 0.000000 0.000000 1.548140 
# 
# From -- ./inp_files/8451.got.cif
#   From: 2010.06.25/outbox.cif.g09.slc.cpg/sg71_5_cif.got.tgz:8451.got - 2010.06.28 04:59:45.
