data_PCOD8287711
_publ_section_title
;
Structure prediction by ZEFSAII (Michael W. Deem and Ramdas Pophale) SiO2 
 PCOD8287711
Probable space group: I M M M
;
_chemical_formula_sum "Si O2"
_cell_formula_units_Z 96
_cell_length_a 28.397744
_cell_length_b 9.446342
_cell_length_c 19.645494
_cell_angle_alpha 90.000000
_cell_angle_beta 90.000000
_cell_angle_gamma 90.000000
_cell_volume 5269.998100
_symmetry_space_group_name_H-M "I M M M"
_symmetry_group_IT_number 71
_symmetry_cell_setting 'orthorhombic'
loop_
_space_group_symop_operation_xyz
x,y,z
-x,-y,z
x,-y,-z
-x,y,-z
-x,-y,-z
x,y,-z
-x,y,z
x,-y,z
1/2+x,1/2+y,1/2+z
1/2-x,1/2-y,1/2+z
1/2+x,1/2-y,1/2-z
1/2-x,1/2+y,1/2-z
1/2-x,1/2-y,1/2-z
1/2+x,1/2+y,1/2-z
1/2-x,1/2+y,1/2+z
1/2+x,1/2-y,1/2+z
loop_
_atom_site_type_symbol
_atom_site_label
_atom_site_fract_x
_atom_site_fract_y
_atom_site_fract_z
Si Si1 0.054134 0.164174 0.157470
Si Si2 0.631983 0.164899 0.420479
Si Si3 0.894134 0.835160 0.295661
Si Si4 0.552309 0.332438 0.925681
Si Si5 0.273077 0.844301 0.348431
Si Si6 0.302910 0.155935 0.197381
O O1 0.086583 0.252274 0.106397
O O2 0.068823 0.191530 0.235408
O O3 0.000000 0.212587 0.148595
O O4 0.060079 0.000000 0.138638
O O5 0.637995 0.195713 0.500000
O O6 0.679318 0.217986 0.382290
O O7 0.623796 0.000000 0.404921
O O8 0.915431 0.772819 0.365635
O O9 0.847938 0.746488 0.282328
O O10 0.880640 0.000000 0.301260
O O11 0.500000 0.268242 0.918454
O O12 0.549056 0.500000 0.918033
O O13 0.573311 0.291226 0.000000
O O14 0.275878 0.864195 0.267817
O O15 0.229583 0.735483 0.359365
O O16 0.262151 0.000000 0.380793
O O17 0.316007 0.000000 0.168381
#
# Coordination Sequence:
#
# PCOD8287711 Si02
#       6
#    16  16  16  16  16  16
#     4  10  21  35  52  77 108 140 177 221 266 313
#     4  10  21  38  58  78 103 137 177 221 267 314
#     4  10  18  30  51  78 106 137 172 213 259 305
#     4   8  14  26  46  72 100 131 170 213 252 293
#     4   9  18  34  53  75 100 128 165 208 253 303
#     4  10  19  31  52  78 103 130 164 207 254 304
#
# _framework density 18.216325000000001
#
# number of rings (size 3 to 8) (size 9 to 14) (size 15 to 20)
#    0.000    2.500    1.667    1.500    0.000    4.333 
#    0.000    2.500    0.000    7.000    0.000    1.167 
#    0.000    0.000    0.000    0.000    0.000    0.000 
#
# Total GULP energy -594966.570681 kJ/mol
# GULP energy per Si atom -12395.136889 kJ/mol
# Density = 1.817486 g / cm^3
# Si number density = 18.216325 Si / 1000 Ang^3
#
#
#
# Elastic Constant Matrix: (Units=GPa)
#
#
# Indices 1 2 3 4 5 6 
#
# 1 95.6395 51.8617 27.7448 0.0000 0.0000 0.0000
# 2 51.8617 73.7688 29.3298 0.0000 0.0000 0.0000
# 3 27.7448 29.3298 71.9342 0.0000 0.0000 0.0000
# 4 0.0000 0.0000 0.0000 15.5899 0.0000 0.0000
# 5 0.0000 0.0000 0.0000 0.0000 20.3246 0.0000
# 6 0.0000 0.0000 0.0000 0.0000 0.0000 20.1489
#
#
#
# Elastic Compliance Matrix: (Units=1/GPa)
#
#
# Indices 1 2 3 4 5 6 
#
# 1 0.017142 -0.011246 -0.002026 0.000000 0.000000 0.000000
# 2 -0.011246 0.023556 -0.005267 0.000000 0.000000 0.000000
# 3 -0.002026 -0.005267 0.016831 0.000000 0.000000 0.000000
# 4 0.000000 0.000000 0.000000 0.064144 0.000000 0.000000
# 5 0.000000 0.000000 0.000000 0.000000 0.049202 0.000000
# 6 0.000000 0.000000 0.000000 0.000000 0.000000 0.049631
#
#
# Mechanical properties :
#
#
# Convention : Reuss Voigt Hill
#
# Bulk Modulus (GPa) = 48.89876 51.02388 49.96132
# Shear Modulus (GPa) = 18.91075 20.03973 19.47524
#
# Velocity S-wave (km/s) = 3.22548 3.32037 3.27327
# Velocity P-wave (km/s) = 6.38540 6.53992 6.46312
#
# Compressibility (1/GPa) = 0.02045042
#
# Stress axis : x y z
#
# Youngs Moduli (GPa) = 58.33692 42.45207 59.41505
#
# Poissons Ratio (x) = 0.47740 0.12040
# Poissons Ratio (y) = 0.65603 0.31295
# Poissons Ratio (z) = 0.11821 0.22360
#
# Static dielectric constant tensor:
#      x y z
#    x 3.349040 0.000000 0.000000 
#    y 0.000000 3.400300 0.000000 
#    z 0.000000 0.000000 3.310180 
# 
# 
# High freq. dielectric constant tensor:
#      x y z
#    x 1.705070 0.000000 0.000000 
#    y 0.000000 1.687220 0.000000 
#    z 0.000000 0.000000 1.690540 
# 
# From -- ./inp_files/14818.got.cif
#   From: 2010.06.25/outbox.cif.g09.slc.cpg/sg71_8_cif.got.tgz:14818.got - 2010.06.28 04:59:45.
