data_PCOD8287604
_publ_section_title
;
Structure prediction by ZEFSAII (Michael W. Deem and Ramdas Pophale) SiO2 
 PCOD8287604
Probable space group: I M M M
;
_chemical_formula_sum "Si O2"
_cell_formula_units_Z 104
_cell_length_a 14.425772
_cell_length_b 32.476377
_cell_length_c 14.089319
_cell_angle_alpha 90.000000
_cell_angle_beta 90.000000
_cell_angle_gamma 90.000000
_cell_volume 6600.801006
_symmetry_space_group_name_H-M "I M M M"
_symmetry_group_IT_number 71
_symmetry_cell_setting 'orthorhombic'
loop_
_space_group_symop_operation_xyz
x,y,z
-x,-y,z
x,-y,-z
-x,y,-z
-x,-y,-z
x,y,-z
-x,y,z
x,-y,z
1/2+x,1/2+y,1/2+z
1/2-x,1/2-y,1/2+z
1/2+x,1/2-y,1/2-z
1/2-x,1/2+y,1/2-z
1/2-x,1/2-y,1/2-z
1/2+x,1/2+y,1/2-z
1/2-x,1/2+y,1/2+z
1/2+x,1/2-y,1/2+z
loop_
_atom_site_type_symbol
_atom_site_label
_atom_site_fract_x
_atom_site_fract_y
_atom_site_fract_z
Si Si1 0.890148 0.886283 0.604680
Si Si2 0.893249 0.267189 0.392144
Si Si3 0.390780 0.310735 0.769092
Si Si4 0.758430 0.429792 0.611119
Si Si5 0.253623 0.664316 0.390383
Si Si6 0.894493 0.953268 0.250985
Si Si7 0.396172 0.000000 0.112644
O O1 0.844940 0.887440 0.500000
O O2 0.856881 0.845367 0.657675
O O3 0.855062 0.925868 0.662918
O O4 0.000000 0.886634 0.595650
O O5 0.875722 0.251310 0.500000
O O6 0.863135 0.232428 0.317133
O O7 0.836399 0.308286 0.370451
O O8 0.000000 0.278907 0.378066
O O9 0.500000 0.313544 0.748659
O O10 0.338937 0.317696 0.669858
O O11 0.745339 0.435685 0.500000
O O12 0.775187 0.382130 0.638385
O O13 0.663315 0.445454 0.656464
O O14 0.843102 0.458574 0.647585
O O15 0.284838 0.666292 0.500000
O O16 0.000000 0.940851 0.226512
O O17 0.886983 0.000000 0.285344
O O18 0.500000 0.000000 0.156258
O O19 0.402268 0.000000 0.000000
#
# Coordination Sequence:
#
# PCOD8287604 Si02
#       7
#    16  16  16  16  16  16   8
#     4   9  17  29  45  66  91 121 155 187 223 266
#     4   9  18  32  49  69  92 120 156 195 234 272
#     4  10  18  30  48  68  94 127 156 185 222 272
#     4  10  19  31  46  66  95 126 155 189 226 272
#     4  10  20  31  46  69  96 124 152 189 233 275
#     4  10  19  30  45  66  95 128 155 184 224 272
#     4   9  18  32  49  67  88 119 159 199 235 266
#
# _framework density 15.755663
#
# number of rings (size 3 to 8) (size 9 to 14) (size 15 to 20)
#    0.000    2.385    2.308    0.923    0.000    3.385 
#    0.000    6.923    0.000    0.000    0.000    0.000 
#    0.000    2.462    0.000    0.000    0.000    0.000 
#
# Total GULP energy -644713.978375 kJ/mol
# GULP energy per Si atom -12398.345738 kJ/mol
# Density = 1.571980 g / cm^3
# Si number density = 15.755663 Si / 1000 Ang^3
#
#
#
# Elastic Constant Matrix: (Units=GPa)
#
#
# Indices 1 2 3 4 5 6 
#
# 1 75.3760 53.0224 43.6972 0.0003 0.0001 -0.0001
# 2 53.0224 120.8340 43.8890 0.0001 -0.0001 0.0000
# 3 43.6972 43.8890 67.4289 -0.0049 0.0006 0.0005
# 4 0.0003 0.0001 -0.0049 24.2055 0.0003 0.0002
# 5 0.0001 -0.0001 0.0006 0.0003 17.0810 0.0001
# 6 -0.0001 0.0000 0.0005 0.0002 0.0001 23.8667
#
#
#
# Elastic Compliance Matrix: (Units=1/GPa)
#
#
# Indices 1 2 3 4 5 6 
#
# 1 0.024685 -0.006576 -0.011717 -0.000003 0.000000 0.000000
# 2 -0.006576 0.012590 -0.003933 -0.000001 0.000000 0.000000
# 3 -0.011717 -0.003933 0.024984 0.000005 -0.000001 -0.000001
# 4 -0.000003 -0.000001 0.000005 0.041313 -0.000001 0.000000
# 5 0.000000 0.000000 -0.000001 -0.000001 0.058545 0.000000
# 6 0.000000 0.000000 -0.000001 0.000000 0.000000 0.041899
#
#
# Mechanical properties :
#
#
# Convention : Reuss Voigt Hill
#
# Bulk Modulus (GPa) = 56.15895 60.53955 58.34925
# Shear Modulus (GPa) = 19.65380 21.23266 20.44323
#
# Velocity S-wave (km/s) = 3.53570 3.67498 3.60601
# Velocity P-wave (km/s) = 7.23805 7.51763 7.37916
#
# Compressibility (1/GPa) = 0.01780660
#
# Stress axis : x y z
#
# Youngs Moduli (GPa) = 40.50986 79.42776 40.02634
#
# Poissons Ratio (x) = 0.52234 0.46898
# Poissons Ratio (y) = 0.26640 0.15743
# Poissons Ratio (z) = 0.47465 0.31239
#
# Static dielectric constant tensor:
#      x y z
#    x 2.861020 0.000000 0.000000 
#    y 0.000000 3.221550 0.000000 
#    z 0.000000 0.000000 3.002110 
# 
# 
# High freq. dielectric constant tensor:
#      x y z
#    x 1.578770 0.000000 0.000000 
#    y 0.000000 1.621420 0.000000 
#    z 0.000000 0.000000 1.592280 
# 
# From -- ./inp_files/22698.got.cif
#   From: 2010.06.25/outbox.cif.g09.slc.cpg/sg71_12_cif.got.tgz:22698.got - 2010.06.28 04:59:45.
