data_PCOD8287613
_publ_section_title
;
Structure prediction by ZEFSAII (Michael W. Deem and Ramdas Pophale) SiO2 
 PCOD8287613
Probable space group: I M M M
;
_chemical_formula_sum "Si O2"
_cell_formula_units_Z 104
_cell_length_a 9.222256
_cell_length_b 19.290750
_cell_length_c 33.234282
_cell_angle_alpha 90.000000
_cell_angle_beta 90.000000
_cell_angle_gamma 90.000000
_cell_volume 5912.519513
_symmetry_space_group_name_H-M "I M M M"
_symmetry_group_IT_number 71
_symmetry_cell_setting 'orthorhombic'
loop_
_space_group_symop_operation_xyz
x,y,z
-x,-y,z
x,-y,-z
-x,y,-z
-x,-y,-z
x,y,-z
-x,y,z
x,-y,z
1/2+x,1/2+y,1/2+z
1/2-x,1/2-y,1/2+z
1/2+x,1/2-y,1/2-z
1/2-x,1/2+y,1/2-z
1/2-x,1/2-y,1/2-z
1/2+x,1/2+y,1/2-z
1/2-x,1/2+y,1/2+z
1/2+x,1/2-y,1/2+z
loop_
_atom_site_type_symbol
_atom_site_label
_atom_site_fract_x
_atom_site_fract_y
_atom_site_fract_z
Si Si1 0.827212 0.155733 0.876277
Si Si2 0.667681 0.919926 0.805663
Si Si3 0.156983 0.418383 0.000000
Si Si4 0.169479 0.317323 0.764016
Si Si5 0.674283 0.077449 0.414184
Si Si6 0.172093 0.921802 0.955286
Si Si7 0.171661 0.691354 0.854263
O O1 0.763916 0.105167 0.842651
O O2 0.771729 0.130189 0.920339
O O3 0.768475 0.233305 0.867621
O O4 0.000000 0.152117 0.873336
O O5 0.500000 0.906000 0.816158
O O6 0.712518 0.881409 0.764391
O O7 0.699597 0.000000 0.797836
O O8 0.237829 0.399438 0.958188
O O9 0.131119 0.500000 0.000000
O O10 0.000000 0.380773 0.000000
O O11 0.250000 0.250000 0.750000
O O12 0.219911 0.330985 0.809652
O O13 0.000000 0.301747 0.762370
O O14 0.500000 0.078742 0.415731
O O15 0.738756 0.132204 0.382742
O O16 0.726925 0.000000 0.402438
O O17 0.000000 0.922088 0.954947
O O18 0.228506 0.000000 0.946474
O O19 0.226231 0.897893 0.000000
O O20 0.000000 0.692439 0.858388
#
# Coordination Sequence:
#
# PCOD8287613 Si02
#       7
#    16  16   8  16  16  16  16
#     4  10  18  30  48  70  96 123 155 192 232 278
#     4  10  21  34  49  71  95 121 156 194 231 273
#     4   7  10  18  32  50  78 118 154 179 214 268
#     4  10  19  33  50  66  91 123 154 189 231 277
#     4   8  13  22  36  56  85 120 154 186 222 267
#     4   8  14  25  41  62  89 120 151 184 227 275
#     4   9  17  27  41  63  87 115 153 191 225 270
#
# _framework density 17.589793
#
# number of rings (size 3 to 8) (size 9 to 14) (size 15 to 20)
#    0.000    3.000    1.538    1.846    0.000    1.538 
#    1.385    3.077    0.000    0.462    0.000    2.154 
#    0.000    0.615    0.000    0.000    0.000   17.308 
#
# Total GULP energy -644318.363407 kJ/mol
# GULP energy per Si atom -12390.737758 kJ/mol
# Density = 1.754976 g / cm^3
# Si number density = 17.589793 Si / 1000 Ang^3
#
#
#
# Elastic Constant Matrix: (Units=GPa)
#
#
# Indices 1 2 3 4 5 6 
#
# 1 11.2728 19.5115 23.1563 0.0000 0.0000 0.0000
# 2 19.5115 125.5241 91.2398 0.0000 0.0000 0.0000
# 3 23.1563 91.2398 188.6795 0.0000 0.0000 0.0000
# 4 0.0000 0.0000 0.0000 39.2728 0.0000 0.0000
# 5 0.0000 0.0000 0.0000 0.0000 14.6808 0.0000
# 6 0.0000 0.0000 0.0000 0.0000 0.0000 13.9838
#
#
#
# Elastic Compliance Matrix: (Units=1/GPa)
#
#
# Indices 1 2 3 4 5 6 
#
# 1 0.131895 -0.013471 -0.009673 0.000000 0.000000 0.000000
# 2 -0.013471 0.013660 -0.004952 0.000000 0.000000 0.000000
# 3 -0.009673 -0.004952 0.008882 0.000000 0.000000 0.000000
# 4 0.000000 0.000000 0.000000 0.025463 0.000000 0.000000
# 5 0.000000 0.000000 0.000000 0.000000 0.068116 0.000000
# 6 0.000000 0.000000 0.000000 0.000000 0.000000 0.071511
#
#
# Mechanical properties :
#
#
# Convention : Reuss Voigt Hill
#
# Bulk Modulus (GPa) = 10.17870 65.92129 38.05000
# Shear Modulus (GPa) = 12.24086 26.35874 19.29980
#
# Velocity S-wave (km/s) = 2.64087 3.87528 3.31602
# Velocity P-wave (km/s) = 3.88564 7.58829 6.02828
#
# Compressibility (1/GPa) = 0.09824437
#
# Stress axis : x y z
#
# Youngs Moduli (GPa) = 7.58181 73.20483 112.58669
#
# Poissons Ratio (x) = 0.98611 1.08907
# Poissons Ratio (y) = 0.10213 0.55758
# Poissons Ratio (z) = 0.07334 0.36255
#
# Static dielectric constant tensor:
#      x y z
#    x 2.693210 0.000000 0.000000 
#    y 0.000000 2.935820 0.000000 
#    z 0.000000 0.000000 3.697270 
# 
# 
# High freq. dielectric constant tensor:
#      x y z
#    x 1.611310 0.000000 0.000000 
#    y 0.000000 1.676470 0.000000 
#    z 0.000000 0.000000 1.701040 
# 
# From -- ./inp_files/69447.got.cif
#   From: 2010.06.25/outbox.cif.g09.slc.cpg/sg71_35_cif.got.tgz:69447.got - 2010.06.28 04:59:45.
