data_PCOD8287212
_publ_section_title
;
Structure prediction by ZEFSAII (Michael W. Deem and Ramdas Pophale) SiO2 
 PCOD8287212
Probable space group: I M M M
;
_chemical_formula_sum "Si O2"
_cell_formula_units_Z 112
_cell_length_a 9.240697
_cell_length_b 31.290518
_cell_length_c 32.375079
_cell_angle_alpha 90.000000
_cell_angle_beta 90.000000
_cell_angle_gamma 90.000000
_cell_volume 9361.130932
_symmetry_space_group_name_H-M "I M M M"
_symmetry_group_IT_number 71
_symmetry_cell_setting 'orthorhombic'
loop_
_space_group_symop_operation_xyz
x,y,z
-x,-y,z
x,-y,-z
-x,y,-z
-x,-y,-z
x,y,-z
-x,y,z
x,-y,z
1/2+x,1/2+y,1/2+z
1/2-x,1/2-y,1/2+z
1/2+x,1/2-y,1/2-z
1/2-x,1/2+y,1/2-z
1/2-x,1/2-y,1/2-z
1/2+x,1/2+y,1/2-z
1/2-x,1/2+y,1/2+z
1/2+x,1/2-y,1/2+z
loop_
_atom_site_type_symbol
_atom_site_label
_atom_site_fract_x
_atom_site_fract_y
_atom_site_fract_z
Si Si1 0.669384 0.049329 0.585751
Si Si2 0.163738 0.749817 0.845778
Si Si3 0.834396 0.176022 0.500000
Si Si4 0.333844 0.703819 0.089043
Si Si5 0.160362 0.338918 0.797388
Si Si6 0.669801 0.214428 0.223752
Si Si7 0.329109 0.911757 0.500000
Si Si8 0.331384 0.382193 0.136446
O O1 0.500000 0.058741 0.590390
O O2 0.724656 0.062733 0.540286
O O3 0.753172 0.075532 0.620563
O O4 0.706081 0.000000 0.592695
O O5 0.236008 0.740471 0.890215
O O6 0.169638 0.706654 0.819659
O O7 0.255161 0.786508 0.821509
O O8 0.000000 0.765972 0.852340
O O9 0.803459 0.204981 0.540125
O O10 0.732609 0.135459 0.500000
O O11 0.000000 0.159639 0.500000
O O12 0.500000 0.713905 0.099808
O O13 0.293280 0.656657 0.105659
O O14 0.190507 0.330588 0.748441
O O15 0.275181 0.371363 0.817329
O O16 0.000000 0.358323 0.803460
O O17 0.500000 0.225798 0.219528
O O18 0.750000 0.250000 0.250000
O O19 0.500000 0.907913 0.500000
O O20 0.500000 0.391523 0.139057
#
# Coordination Sequence:
#
# PCOD8287212 Si02
#       8
#    16  16   8  16  16  16   8  16
#     4  10  20  32  43  53  66  83 103 130 167 210
#     4   9  16  24  35  50  68  87 107 128 151 182
#     4  10  18  29  41  53  68  84 106 136 172 206
#     4   9  17  27  38  50  66  86 106 131 163 198
#     4   8  15  25  36  50  68  87 104 122 146 182
#     4   9  15  23  35  51  69  87 106 125 147 177
#     4  10  19  30  44  56  64  78 102 134 168 208
#     4  10  18  27  40  54  67  82 102 129 159 195
#
# _framework density 11.964366
#
# number of rings (size 3 to 8) (size 9 to 14) (size 15 to 20)
#    0.000    2.714    1.429    2.357    0.000    6.286 
#    0.000    0.000    0.000    1.286    0.000    0.000 
#    0.000    0.000    0.000    0.000    0.000    0.000 
#
# Total GULP energy -694127.273437 kJ/mol
# GULP energy per Si atom -12395.129883 kJ/mol
# Density = 1.193713 g / cm^3
# Si number density = 11.964366 Si / 1000 Ang^3
#
#
#
# Elastic Constant Matrix: (Units=GPa)
#
#
# Indices 1 2 3 4 5 6 
#
# 1 59.4447 25.0050 38.7616 0.0000 0.0000 0.0000
# 2 25.0050 29.9262 36.6699 0.0000 0.0000 0.0000
# 3 38.7616 36.6699 73.4928 0.0000 0.0000 0.0000
# 4 0.0000 0.0000 0.0000 11.3378 0.0000 0.0000
# 5 0.0000 0.0000 0.0000 0.0000 17.3417 0.0000
# 6 0.0000 0.0000 0.0000 0.0000 0.0000 14.3098
#
#
#
# Elastic Compliance Matrix: (Units=1/GPa)
#
#
# Indices 1 2 3 4 5 6 
#
# 1 0.027592 -0.013440 -0.007847 0.000000 0.000000 0.000000
# 2 -0.013440 0.092535 -0.039083 0.000000 0.000000 0.000000
# 3 -0.007847 -0.039083 0.037246 0.000000 0.000000 0.000000
# 4 0.000000 0.000000 0.000000 0.088201 0.000000 0.000000
# 5 0.000000 0.000000 0.000000 0.000000 0.057664 0.000000
# 6 0.000000 0.000000 0.000000 0.000000 0.000000 0.069882
#
#
# Mechanical properties :
#
#
# Convention : Reuss Voigt Hill
#
# Bulk Modulus (GPa) = 27.29661 40.41520 33.85591
# Shear Modulus (GPa) = 9.88002 12.75967 11.31985
#
# Velocity S-wave (km/s) = 2.87677 3.26923 3.07926
# Velocity P-wave (km/s) = 5.82227 6.93567 6.40322
#
# Compressibility (1/GPa) = 0.03663458
#
# Stress axis : x y z
#
# Youngs Moduli (GPa) = 36.24189 10.80670 26.84849
#
# Poissons Ratio (x) = 0.14524 0.21068
# Poissons Ratio (y) = 0.48709 1.04931
# Poissons Ratio (z) = 0.28438 0.42236
#
# Static dielectric constant tensor:
#      x y z
#    x 2.598600 0.000000 0.000000 
#    y 0.000000 2.173440 0.000000 
#    z 0.000000 0.000000 2.694040 
# 
# 
# High freq. dielectric constant tensor:
#      x y z
#    x 1.467240 0.000000 0.000000 
#    y 0.000000 1.393730 0.000000 
#    z 0.000000 0.000000 1.444060 
# 
# From -- ./inp_files/68689.got.cif
#   From: 2010.06.25/outbox.cif.g09.slc.cpg/sg71_35_cif.got.tgz:68689.got - 2010.06.28 04:59:45.
