data_PCOD8287160
_publ_section_title
;
Structure prediction by ZEFSAII (Michael W. Deem and Ramdas Pophale) SiO2 
 PCOD8287160
Probable space group: I M M M
;
_chemical_formula_sum "Si O2"
_cell_formula_units_Z 80
_cell_length_a 19.240003
_cell_length_b 32.509742
_cell_length_c 9.707454
_cell_angle_alpha 90.000000
_cell_angle_beta 90.000000
_cell_angle_gamma 90.000000
_cell_volume 6071.891460
_symmetry_space_group_name_H-M "I M M M"
_symmetry_group_IT_number 71
_symmetry_cell_setting 'orthorhombic'
loop_
_space_group_symop_operation_xyz
x,y,z
-x,-y,z
x,-y,-z
-x,y,-z
-x,-y,-z
x,y,-z
-x,y,z
x,-y,z
1/2+x,1/2+y,1/2+z
1/2-x,1/2-y,1/2+z
1/2+x,1/2-y,1/2-z
1/2-x,1/2+y,1/2-z
1/2-x,1/2-y,1/2-z
1/2+x,1/2+y,1/2-z
1/2-x,1/2+y,1/2+z
1/2+x,1/2-y,1/2+z
loop_
_atom_site_type_symbol
_atom_site_label
_atom_site_fract_x
_atom_site_fract_y
_atom_site_fract_z
Si Si1 0.282626 0.808355 0.659613
Si Si2 0.500000 0.752620 0.842572
Si Si3 0.634825 0.114882 0.342353
Si Si4 0.500000 0.168206 0.343590
Si Si5 0.349320 0.260391 0.841681
Si Si6 0.920374 0.547203 0.340928
O O1 0.301272 0.800004 0.500000
O O2 0.298880 0.856087 0.694535
O O3 0.331391 0.778689 0.748393
O O4 0.201501 0.798823 0.692010
O O5 0.500000 0.793078 0.753457
O O6 0.570419 0.726372 0.812497
O O7 0.500000 0.767381 0.000000
O O8 0.637863 0.099907 0.500000
O O9 0.566853 0.141230 0.311377
O O10 0.633151 0.074676 0.246816
O O11 0.500000 0.184068 0.500000
O O12 0.339147 0.246834 0.000000
O O13 0.912408 0.559268 0.500000
O O14 0.899407 0.500000 0.316845
O O15 0.000000 0.554374 0.293035
#
# Coordination Sequence:
#
# PCOD8287160 Si02
#       6
#    16   8  16   8  16  16
#     4   9  17  28  39  52  73  98 124 155 189 222
#     4  10  18  26  38  55  73  96 129 162 190 219
#     4  10  18  27  39  54  72  96 125 156 186 217
#     4  10  18  26  35  53  76  97 126 157 187 220
#     4   9  17  27  38  53  73  97 125 157 189 220
#     4   9  18  30  41  54  73  96 121 150 184 219
#
# _framework density 13.175465000000001
#
# number of rings (size 3 to 8) (size 9 to 14) (size 15 to 20)
#    0.000    2.600    3.000    0.600    0.000    2.000 
#    0.000    1.000    0.000    0.000    0.000    0.000 
#    0.000    0.000    0.000    0.900    0.000   22.000 
#
# Total GULP energy -495749.832099 kJ/mol
# GULP energy per Si atom -12393.745802 kJ/mol
# Density = 1.314548 g / cm^3
# Si number density = 13.175465 Si / 1000 Ang^3
#
#
#
# Elastic Constant Matrix: (Units=GPa)
#
#
# Indices 1 2 3 4 5 6 
#
# 1 85.6117 39.8711 31.1115 0.0002 0.0000 -0.0066
# 2 39.8711 74.7142 41.0762 -0.0006 -0.0006 0.0022
# 3 31.1115 41.0762 48.6007 -0.0037 -0.0041 0.0225
# 4 0.0002 -0.0006 -0.0037 23.0291 -0.0013 0.0015
# 5 0.0000 -0.0006 -0.0041 -0.0013 12.8438 -0.0101
# 6 -0.0066 0.0022 0.0225 0.0015 -0.0101 -47.6581
#
#
#
# Elastic Compliance Matrix: (Units=1/GPa)
#
#
# Indices 1 2 3 4 5 6 
#
# 1 0.016370 -0.005556 -0.005783 -0.000001 -0.000002 -0.000005
# 2 -0.005556 0.026888 -0.019168 -0.000002 -0.000005 -0.000007
# 3 -0.005783 -0.019168 0.040478 0.000006 0.000012 0.000019
# 4 -0.000001 -0.000002 0.000006 0.043423 0.000004 0.000001
# 5 -0.000002 -0.000005 0.000012 0.000004 0.077858 -0.000016
# 6 -0.000005 -0.000007 0.000019 0.000001 -0.000016 -0.020983
#
#
# Mechanical properties :
#
#
# Convention : Reuss Voigt Hill
#
# Bulk Modulus (GPa) = 44.01207 48.11601 46.06404
# Shear Modulus (GPa) = 19.79237 4.10083 11.94660
#
# Velocity S-wave (km/s) = 3.88005 1.76613 3.01446
# Velocity P-wave (km/s) = 7.31779 6.38417 6.86687
#
# Compressibility (1/GPa) = 0.02272104
#
# Stress axis : x y z
#
# Youngs Moduli (GPa) = 61.08765 37.19185 24.70477
#
# Poissons Ratio (x) = 0.20666 0.14287
# Poissons Ratio (y) = 0.33943 0.47354
# Poissons Ratio (z) = 0.35326 0.71289
#
# Static dielectric constant tensor:
#      x y z
#    x 2.992220 -0.000020 0.000000 
#    y -0.000020 2.477180 -0.000010 
#    z 0.000000 -0.000010 2.723390 
# 
# 
# High freq. dielectric constant tensor:
#      x y z
#    x 1.484110 0.000000 0.000000 
#    y 0.000000 1.470030 0.000000 
#    z 0.000000 0.000000 1.510310 
# 
# From -- ./inp_files/11284.got.cif
#   From: 2010.06.25/outbox.cif.g09.slc.cpg/sg71_6_cif.got.tgz:11284.got - 2010.06.28 04:59:45.
