data_PCOD8287830
_publ_section_title
;
Structure prediction by ZEFSAII (Michael W. Deem and Ramdas Pophale) SiO2 
 PCOD8287830
Probable space group: I M M M
;
_chemical_formula_sum "Si O2"
_cell_formula_units_Z 80
_cell_length_a 17.605173
_cell_length_b 28.161062
_cell_length_c 8.702607
_cell_angle_alpha 90.000000
_cell_angle_beta 90.000000
_cell_angle_gamma 90.000000
_cell_volume 4314.581704
_symmetry_space_group_name_H-M "I M M M"
_symmetry_group_IT_number 71
_symmetry_cell_setting 'orthorhombic'
loop_
_space_group_symop_operation_xyz
x,y,z
-x,-y,z
x,-y,-z
-x,y,-z
-x,-y,-z
x,y,-z
-x,y,z
x,-y,z
1/2+x,1/2+y,1/2+z
1/2-x,1/2-y,1/2+z
1/2+x,1/2-y,1/2-z
1/2-x,1/2+y,1/2-z
1/2-x,1/2-y,1/2-z
1/2+x,1/2+y,1/2-z
1/2-x,1/2+y,1/2+z
1/2+x,1/2-y,1/2+z
loop_
_atom_site_type_symbol
_atom_site_label
_atom_site_fract_x
_atom_site_fract_y
_atom_site_fract_z
Si Si1 0.790775 0.356401 0.819154
Si Si2 0.412572 0.787094 0.820389
Si Si3 0.582752 0.556075 0.171268
Si Si4 0.235550 0.054346 0.821512
Si Si5 0.812446 0.785079 0.182599
O O1 0.863699 0.330038 0.749450
O O2 0.793362 0.411971 0.772571
O O3 0.710762 0.336332 0.750323
O O4 0.792669 0.349640 0.000000
O O5 0.500000 0.798355 0.786332
O O6 0.392442 0.735962 0.742996
O O7 0.394914 0.783607 0.000000
O O8 0.500000 0.576418 0.224602
O O9 0.576771 0.500000 0.165639
O O10 0.648943 0.570934 0.288210
O O11 0.602454 0.575250 0.000000
O O12 0.249102 0.000000 0.767878
O O13 0.252266 0.060377 0.000000
O O14 0.750000 0.750000 0.250000
O O15 0.811603 0.786630 0.000000
#
# Coordination Sequence:
#
# PCOD8287830 Si02
#       5
#    16  16  16  16  16
#     4  11  21  34  54  77 105 139 176 216 257 307
#     4  10  20  35  56  81 109 138 169 208 257 313
#     4   8  14  26  44  65  90 121 158 201 249 299
#     4  10  20  33  50  73 102 137 179 224 266 310
#     4  10  18  31  52  76 104 133 165 204 248 302
#
# _framework density 18.541775000000001
#
# number of rings (size 3 to 8) (size 9 to 14) (size 15 to 20)
#    0.000    2.200    0.000    7.800    0.000    3.200 
#    0.000    3.000    0.000    6.600    0.000    4.200 
#    0.000    0.000    0.000    0.000    0.000    0.000 
#
# Total GULP energy -495725.942072 kJ/mol
# GULP energy per Si atom -12393.148552 kJ/mol
# Density = 1.849957 g / cm^3
# Si number density = 18.541775 Si / 1000 Ang^3
#
#
#
# Elastic Constant Matrix: (Units=GPa)
#
#
# Indices 1 2 3 4 5 6 
#
# 1 90.3435 45.6631 49.7056 -0.0002 -0.0001 0.0000
# 2 45.6631 89.5598 44.9316 0.0000 0.0000 0.0000
# 3 49.7056 44.9316 131.9937 0.0010 0.0005 0.0002
# 4 -0.0002 0.0000 0.0010 28.0730 -0.0001 0.0000
# 5 -0.0001 0.0000 0.0005 -0.0001 28.6663 0.0000
# 6 0.0000 0.0000 0.0002 0.0000 0.0000 20.8708
#
#
#
# Elastic Compliance Matrix: (Units=1/GPa)
#
#
# Indices 1 2 3 4 5 6 
#
# 1 0.016529 -0.006397 -0.004047 0.000000 0.000000 0.000000
# 2 -0.006397 0.015941 -0.003018 0.000000 0.000000 0.000000
# 3 -0.004047 -0.003018 0.010127 0.000000 0.000000 0.000000
# 4 0.000000 0.000000 0.000000 0.035621 0.000000 0.000000
# 5 0.000000 0.000000 0.000000 0.000000 0.034884 0.000000
# 6 0.000000 0.000000 0.000000 0.000000 0.000000 0.047914
#
#
# Mechanical properties :
#
#
# Convention : Reuss Voigt Hill
#
# Bulk Modulus (GPa) = 63.79807 65.83307 64.81557
# Shear Modulus (GPa) = 25.88477 26.96182 26.42330
#
# Velocity S-wave (km/s) = 3.74039 3.81742 3.77910
# Velocity P-wave (km/s) = 7.28948 7.41705 7.35354
#
# Compressibility (1/GPa) = 0.01567446
#
# Stress axis : x y z
#
# Youngs Moduli (GPa) = 60.50113 62.73040 98.74434
#
# Poissons Ratio (x) = 0.40129 0.39958
# Poissons Ratio (y) = 0.38703 0.29796
# Poissons Ratio (z) = 0.24483 0.18929
#
# Static dielectric constant tensor:
#      x y z
#    x 3.451500 0.000000 0.000000 
#    y 0.000000 3.656430 0.000000 
#    z 0.000000 0.000000 3.467950 
# 
# 
# High freq. dielectric constant tensor:
#      x y z
#    x 1.694770 0.000000 0.000000 
#    y 0.000000 1.705730 0.000000 
#    z 0.000000 0.000000 1.730970 
# 
# From -- ./inp_files/8323.got.cif
#   From: 2010.06.25/outbox.cif.g09.slc.cpg/sg71_5_cif.got.tgz:8323.got - 2010.06.28 04:59:45.
