data_PCOD8287077
_publ_section_title
;
Structure prediction by ZEFSAII (Michael W. Deem and Ramdas Pophale) SiO2 
 PCOD8287077
Probable space group: I M M M
;
_chemical_formula_sum "Si O2"
_cell_formula_units_Z 68
_cell_length_a 14.235143
_cell_length_b 22.006060
_cell_length_c 11.618680
_cell_angle_alpha 90.000000
_cell_angle_beta 90.000000
_cell_angle_gamma 90.000000
_cell_volume 3639.660853
_symmetry_space_group_name_H-M "I M M M"
_symmetry_group_IT_number 71
_symmetry_cell_setting 'orthorhombic'
loop_
_space_group_symop_operation_xyz
x,y,z
-x,-y,z
x,-y,-z
-x,y,-z
-x,-y,-z
x,y,-z
-x,y,z
x,-y,z
1/2+x,1/2+y,1/2+z
1/2-x,1/2-y,1/2+z
1/2+x,1/2-y,1/2-z
1/2-x,1/2+y,1/2-z
1/2-x,1/2-y,1/2-z
1/2+x,1/2+y,1/2-z
1/2-x,1/2+y,1/2+z
1/2+x,1/2-y,1/2+z
loop_
_atom_site_type_symbol
_atom_site_label
_atom_site_fract_x
_atom_site_fract_y
_atom_site_fract_z
Si Si1 0.869546 0.000000 0.000000
Si Si2 0.293390 0.610768 0.132325
Si Si3 0.398040 0.500000 0.242891
Si Si4 0.387332 0.369954 0.500000
Si Si5 0.895310 0.332466 0.867728
Si Si6 0.891229 0.796668 0.775625
O O1 0.923497 0.000000 0.122119
O O2 0.823056 0.067639 0.000000
O O3 0.337975 0.558840 0.210403
O O4 0.180579 0.614161 0.153041
O O5 0.335682 0.676443 0.166404
O O6 0.316567 0.596622 0.000000
O O7 0.500000 0.500000 0.179524
O O8 0.500000 0.385483 0.500000
O O9 0.357722 0.331398 0.389706
O O10 0.870980 0.274930 0.787249
O O11 0.000000 0.357463 0.839244
O O12 0.891376 0.309935 0.000000
O O13 0.000000 0.809080 0.754110
#
# Coordination Sequence:
#
# PCOD8287077 Si02
#       6
#     4  16   8   8  16  16
#     4  12  21  34  56  82 103 134 179 216 252 300
#     4  11  23  35  50  78 112 145 175 206 262 331
#     4  12  24  38  56  79 109 138 171 216 260 314
#     4  10  17  28  50  80 106 132 173 217 260 298
#     4   9  18  35  57  78 102 135 181 232 266 291
#     4  10  18  31  54  80 108 139 172 216 263 309
#
# _framework density 18.683059
#
# number of rings (size 3 to 8) (size 9 to 14) (size 15 to 20)
#    0.000    1.647    3.529    2.824    0.000    2.353 
#    0.000    0.588    0.000    2.824    0.000    0.824 
#    0.000    0.000    0.000    0.000    0.000    0.000 
#
# Total GULP energy -421217.255428 kJ/mol
# GULP energy per Si atom -12388.742807 kJ/mol
# Density = 1.864054 g / cm^3
# Si number density = 18.683059 Si / 1000 Ang^3
#
#
#
# Elastic Constant Matrix: (Units=GPa)
#
#
# Indices 1 2 3 4 5 6 
#
# 1 100.4629 56.4535 36.7354 0.0000 0.0000 0.0000
# 2 56.4535 70.2792 28.2651 -0.0001 0.0000 0.0000
# 3 36.7354 28.2651 74.4485 -0.0004 -0.0001 0.0000
# 4 0.0000 -0.0001 -0.0004 14.9353 0.0000 0.0000
# 5 0.0000 0.0000 -0.0001 0.0000 12.8448 0.0000
# 6 0.0000 0.0000 0.0000 0.0000 0.0000 23.4209
#
#
#
# Elastic Compliance Matrix: (Units=1/GPa)
#
#
# Indices 1 2 3 4 5 6 
#
# 1 0.019233 -0.013729 -0.004278 0.000000 0.000000 0.000000
# 2 -0.013729 0.026593 -0.003322 0.000000 0.000000 0.000000
# 3 -0.004278 -0.003322 0.016804 0.000000 0.000000 0.000000
# 4 0.000000 0.000000 0.000000 0.066955 0.000000 0.000000
# 5 0.000000 0.000000 0.000000 0.000000 0.077852 0.000000
# 6 0.000000 0.000000 0.000000 0.000000 0.000000 0.042697
#
#
# Mechanical properties :
#
#
# Convention : Reuss Voigt Hill
#
# Bulk Modulus (GPa) = 50.06845 54.23318 52.15082
# Shear Modulus (GPa) = 16.69730 18.48931 17.59330
#
# Velocity S-wave (km/s) = 2.99275 3.14925 3.07200
# Velocity P-wave (km/s) = 6.22889 6.50498 6.36843
#
# Compressibility (1/GPa) = 0.01997266
#
# Stress axis : x y z
#
# Youngs Moduli (GPa) = 51.99442 37.60387 59.50893
#
# Poissons Ratio (x) = 0.51625 0.25457
# Poissons Ratio (y) = 0.71382 0.19769
# Poissons Ratio (z) = 0.22243 0.12492
#
# Static dielectric constant tensor:
#      x y z
#    x 3.360350 0.000000 0.000000 
#    y 0.000000 3.346550 0.000000 
#    z 0.000000 0.000000 3.389120 
# 
# 
# High freq. dielectric constant tensor:
#      x y z
#    x 1.703500 0.000000 0.000000 
#    y 0.000000 1.717650 0.000000 
#    z 0.000000 0.000000 1.717820 
# 
# From -- ./inp_files/21590.got.cif
#   From: 2010.06.25/outbox.cif.g09.slc.cpg/sg71_11_cif.got.tgz:21590.got - 2010.06.28 04:59:45.
