data_PCOD8287529
_publ_section_title
;
Structure prediction by ZEFSAII (Michael W. Deem and Ramdas Pophale) SiO2 
 PCOD8287529
Probable space group: I M M M
;
_chemical_formula_sum "Si O2"
_cell_formula_units_Z 80
_cell_length_a 20.105452
_cell_length_b 24.822194
_cell_length_c 9.726495
_cell_angle_alpha 90.000000
_cell_angle_beta 90.000000
_cell_angle_gamma 90.000000
_cell_volume 4854.118504
_symmetry_space_group_name_H-M "I M M M"
_symmetry_group_IT_number 71
_symmetry_cell_setting 'orthorhombic'
loop_
_space_group_symop_operation_xyz
x,y,z
-x,-y,z
x,-y,-z
-x,y,-z
-x,-y,-z
x,y,-z
-x,y,z
x,-y,z
1/2+x,1/2+y,1/2+z
1/2-x,1/2-y,1/2+z
1/2+x,1/2-y,1/2-z
1/2-x,1/2+y,1/2-z
1/2-x,1/2-y,1/2-z
1/2+x,1/2+y,1/2-z
1/2-x,1/2+y,1/2+z
1/2+x,1/2-y,1/2+z
loop_
_atom_site_type_symbol
_atom_site_label
_atom_site_fract_x
_atom_site_fract_y
_atom_site_fract_z
Si Si1 0.188283 0.183383 0.000000
Si Si2 0.923748 0.680773 0.500000
Si Si3 0.423914 0.231977 0.500000
Si Si4 0.689917 0.734448 0.000000
Si Si5 0.778136 0.940247 0.500000
Si Si6 0.879399 0.440341 0.000000
Si Si7 0.379697 0.853654 0.285795
Si Si8 0.221753 0.146608 0.714051
O O1 0.118544 0.213752 0.000000
O O2 0.249063 0.224702 0.000000
O O3 0.192649 0.144795 0.867239
O O4 0.879638 0.734456 0.500000
O O5 0.908161 0.643916 0.367693
O O6 0.000000 0.699184 0.500000
O O7 0.500000 0.250183 0.500000
O O8 0.408647 0.198065 0.636586
O O9 0.692776 0.698632 0.863345
O O10 0.699364 0.944919 0.500000
O O11 0.800968 0.907818 0.636080
O O12 0.810391 0.000000 0.500000
O O13 0.902663 0.407987 0.864161
O O14 0.911744 0.500000 0.000000
O O15 0.300794 0.848031 0.284498
#
# Coordination Sequence:
#
# PCOD8287529 Si02
#       8
#     8   8   8   8   8   8  16  16
#     4  12  18  29  49  71 101 122 160 200 221 277
#     4  12  23  31  44  68 100 130 154 192 238 278
#     4  11  21  31  46  68  98 133 159 186 227 274
#     4  11  18  31  49  67  97 128 161 191 224 281
#     4   8  16  31  48  71 101 119 144 198 250 282
#     4   8  16  31  53  70  83 114 161 206 244 274
#     4  10  18  32  48  67  94 124 160 196 232 280
#     4  10  18  29  50  74  90 127 166 189 230 280
#
# _framework density 16.480851000000001
#
# number of rings (size 3 to 8) (size 9 to 14) (size 15 to 20)
#    0.000    1.800    4.000    3.600    0.000    0.000 
#    0.000    1.000    0.000   16.200    0.000    0.000 
#    0.000   15.200    0.000    0.000    0.000    0.000 
#
# Total GULP energy -495998.824470 kJ/mol
# GULP energy per Si atom -12399.970612 kJ/mol
# Density = 1.644334 g / cm^3
# Si number density = 16.480851 Si / 1000 Ang^3
#
#
#
# Elastic Constant Matrix: (Units=GPa)
#
#
# Indices 1 2 3 4 5 6 
#
# 1 84.3117 43.6688 34.9002 0.0000 0.0000 0.0000
# 2 43.6688 111.5108 67.0843 0.0000 0.0000 0.0000
# 3 34.9002 67.0843 162.5120 0.0000 0.0000 0.0000
# 4 0.0000 0.0000 0.0000 -8.7336 0.0000 0.0000
# 5 0.0000 0.0000 0.0000 0.0000 -15.0732 0.0000
# 6 0.0000 0.0000 0.0000 0.0000 0.0000 10.5820
#
#
#
# Elastic Compliance Matrix: (Units=1/GPa)
#
#
# Indices 1 2 3 4 5 6 
#
# 1 0.015015 -0.005242 -0.001061 0.000000 0.000000 0.000000
# 2 -0.005242 0.013761 -0.004555 0.000000 0.000000 0.000000
# 3 -0.001061 -0.004555 0.008261 0.000000 0.000000 0.000000
# 4 0.000000 0.000000 0.000000 -0.114500 0.000000 0.000000
# 5 0.000000 0.000000 0.000000 0.000000 -0.066343 0.000000
# 6 0.000000 0.000000 0.000000 0.000000 0.000000 0.094500
#
#
# Mechanical properties :
#
#
# Convention : Reuss Voigt Hill
#
# Bulk Modulus (GPa) = 65.26398 72.18234 68.72316
# Shear Modulus (GPa) = -222.37452 11.53379 -105.42036
#
# Velocity S-wave (km/s) = -11.62850 2.64830 -8.00651
# Velocity P-wave (km/s) = 11.85791 7.29686 6.60931
#
# Compressibility (1/GPa) = 0.01532239
#
# Stress axis : x y z
#
# Youngs Moduli (GPa) = 66.60096 72.67172 121.04648
#
# Poissons Ratio (x) = 0.38093 0.12839
# Poissons Ratio (y) = 0.34911 0.55132
# Poissons Ratio (z) = 0.07064 0.33099
#
# Static dielectric constant tensor:
#      x y z
#    x 2.871940 0.000000 0.000000 
#    y 0.000000 3.216230 0.000000 
#    z 0.000000 0.000000 3.481030 
# 
# 
# High freq. dielectric constant tensor:
#      x y z
#    x 1.604970 0.000000 0.000000 
#    y 0.000000 1.610340 0.000000 
#    z 0.000000 0.000000 1.649770 
# 
# From -- ./inp_files/8490.got.cif
#   From: 2010.06.25/outbox.cif.g09.slc.cpg/sg71_5_cif.got.tgz:8490.got - 2010.06.28 04:59:45.
