data_PCOD8287266
_publ_section_title
;
Structure prediction by ZEFSAII (Michael W. Deem and Ramdas Pophale) SiO2 
 PCOD8287266
Probable space group: I M M M
;
_chemical_formula_sum "Si O2"
_cell_formula_units_Z 96
_cell_length_a 27.783837
_cell_length_b 9.166083
_cell_length_c 28.575908
_cell_angle_alpha 90.000000
_cell_angle_beta 90.000000
_cell_angle_gamma 90.000000
_cell_volume 7277.396657
_symmetry_space_group_name_H-M "I M M M"
_symmetry_group_IT_number 71
_symmetry_cell_setting 'orthorhombic'
loop_
_space_group_symop_operation_xyz
x,y,z
-x,-y,z
x,-y,-z
-x,y,-z
-x,-y,-z
x,y,-z
-x,y,z
x,-y,z
1/2+x,1/2+y,1/2+z
1/2-x,1/2-y,1/2+z
1/2+x,1/2-y,1/2-z
1/2-x,1/2+y,1/2-z
1/2-x,1/2-y,1/2-z
1/2+x,1/2+y,1/2-z
1/2-x,1/2+y,1/2+z
1/2+x,1/2-y,1/2+z
loop_
_atom_site_type_symbol
_atom_site_label
_atom_site_fract_x
_atom_site_fract_y
_atom_site_fract_z
Si Si1 0.741235 0.665122 0.178720
Si Si2 0.660577 0.828964 0.129441
Si Si3 0.600548 0.330510 0.945648
Si Si4 0.103652 0.332622 0.277393
Si Si5 0.819387 0.164294 0.226667
Si Si6 0.500000 0.167594 0.192361
Si Si7 0.000000 0.828131 0.595350
O O1 0.750142 0.500000 0.161555
O O2 0.711685 0.752903 0.139570
O O3 0.792550 0.743893 0.186337
O O4 0.712155 0.666563 0.226785
O O5 0.639710 0.763617 0.081846
O O6 0.623091 0.794178 0.170950
O O7 0.669469 0.000000 0.123399
O O8 0.606855 0.500000 0.932324
O O9 0.547007 0.275253 0.932749
O O10 0.609553 0.302935 0.000000
O O11 0.115416 0.500000 0.265549
O O12 0.128814 0.235020 0.237741
O O13 0.046802 0.299109 0.276156
O O14 0.827192 0.000000 0.208609
O O15 0.500000 0.266058 0.147052
O O16 0.500000 0.000000 0.175449
O O17 0.000000 0.000000 0.599850
#
# Coordination Sequence:
#
# PCOD8287266 Si02
#       7
#    16  16  16  16  16   8   8
#     4   9  16  26  40  56  75  94 114 139 177 223
#     4  10  18  28  42  57  73  92 118 151 189 230
#     4  10  20  32  43  55  72  94 122 158 200 242
#     4   9  17  27  39  53  73  97 121 150 187 225
#     4   9  16  25  38  56  75  93 116 144 176 215
#     4  10  18  29  41  55  74  98 126 158 193 231
#     4  10  19  30  44  56  68  90 124 162 200 239
#
# _framework density 13.191530999999999
#
# number of rings (size 3 to 8) (size 9 to 14) (size 15 to 20)
#    0.000    2.500    1.667    1.750    0.000    6.667 
#    0.000    0.000    0.000    1.500    0.000    0.000 
#    0.000    0.000    0.000    0.000    0.000    0.000 
#
# Total GULP energy -595216.280526 kJ/mol
# GULP energy per Si atom -12400.339178 kJ/mol
# Density = 1.316151 g / cm^3
# Si number density = 13.191531 Si / 1000 Ang^3
#
#
#
# Elastic Constant Matrix: (Units=GPa)
#
#
# Indices 1 2 3 4 5 6 
#
# 1 79.9616 41.8847 41.1682 0.0000 0.0000 0.0000
# 2 41.8847 71.5814 32.4829 0.0000 0.0000 0.0000
# 3 41.1682 32.4829 41.5156 0.0000 0.0000 0.0000
# 4 0.0000 0.0000 0.0000 18.2342 0.0000 0.0000
# 5 0.0000 0.0000 0.0000 0.0000 11.5275 0.0000
# 6 0.0000 0.0000 0.0000 0.0000 0.0000 19.3945
#
#
#
# Elastic Compliance Matrix: (Units=1/GPa)
#
#
# Indices 1 2 3 4 5 6 
#
# 1 0.026946 -0.005646 -0.022303 0.000000 0.000000 0.000000
# 2 -0.005646 0.022844 -0.012275 0.000000 0.000000 0.000000
# 3 -0.022303 -0.012275 0.055808 0.000000 0.000000 0.000000
# 4 0.000000 0.000000 0.000000 0.054842 0.000000 0.000000
# 5 0.000000 0.000000 0.000000 0.000000 0.086749 0.000000
# 6 0.000000 0.000000 0.000000 0.000000 0.000000 0.051561
#
#
# Mechanical properties :
#
#
# Convention : Reuss Voigt Hill
#
# Bulk Modulus (GPa) = 39.76129 47.12557 43.44343
# Shear Modulus (GPa) = 12.90050 14.99943 13.94996
#
# Velocity S-wave (km/s) = 3.13059 3.37568 3.25544
# Velocity P-wave (km/s) = 6.57833 7.14110 6.86548
#
# Compressibility (1/GPa) = 0.02515009
#
# Stress axis : x y z
#
# Youngs Moduli (GPa) = 37.11072 43.77488 17.91858
#
# Poissons Ratio (x) = 0.24717 0.39964
# Poissons Ratio (y) = 0.20954 0.21995
# Poissons Ratio (z) = 0.82768 0.53733
#
# Static dielectric constant tensor:
#      x y z
#    x 2.674960 0.000000 0.000000 
#    y 0.000000 2.767160 0.000000 
#    z 0.000000 0.000000 2.278420 
# 
# 
# High freq. dielectric constant tensor:
#      x y z
#    x 1.490790 0.000000 0.000000 
#    y 0.000000 1.515970 0.000000 
#    z 0.000000 0.000000 1.448090 
# 
# From -- ./inp_files/17547.got.cif
#   From: 2010.06.25/outbox.cif.g09.slc.cpg/sg71_9_cif.got.tgz:17547.got - 2010.06.28 04:59:45.
