data_PCOD8287599
_publ_section_title
;
Structure prediction by ZEFSAII (Michael W. Deem and Ramdas Pophale) SiO2 
 PCOD8287599
Probable space group: I M M M
;
_chemical_formula_sum "Si O2"
_cell_formula_units_Z 96
_cell_length_a 9.608047
_cell_length_b 34.481681
_cell_length_c 15.936960
_cell_angle_alpha 90.000000
_cell_angle_beta 90.000000
_cell_angle_gamma 90.000000
_cell_volume 5279.940533
_symmetry_space_group_name_H-M "I M M M"
_symmetry_group_IT_number 71
_symmetry_cell_setting 'orthorhombic'
loop_
_space_group_symop_operation_xyz
x,y,z
-x,-y,z
x,-y,-z
-x,y,-z
-x,-y,-z
x,y,-z
-x,y,z
x,-y,z
1/2+x,1/2+y,1/2+z
1/2-x,1/2-y,1/2+z
1/2+x,1/2-y,1/2-z
1/2-x,1/2+y,1/2-z
1/2-x,1/2-y,1/2-z
1/2+x,1/2+y,1/2-z
1/2-x,1/2+y,1/2+z
1/2+x,1/2-y,1/2+z
loop_
_atom_site_type_symbol
_atom_site_label
_atom_site_fract_x
_atom_site_fract_y
_atom_site_fract_z
Si Si1 0.334899 0.410997 0.592215
Si Si2 0.840815 0.827417 0.143115
Si Si3 0.833848 0.043844 0.746140
Si Si4 0.165826 0.096045 0.406351
Si Si5 0.659346 0.324522 0.162150
Si Si6 0.656320 0.754883 0.097061
O O1 0.288116 0.426821 0.500000
O O2 0.500000 0.411698 0.600269
O O3 0.284852 0.366487 0.599452
O O4 0.273433 0.437049 0.667950
O O5 0.825596 0.834711 0.241222
O O6 0.748872 0.792043 0.113361
O O7 0.000000 0.818547 0.117980
O O8 0.776304 0.066281 0.663775
O O9 0.000000 0.044904 0.747206
O O10 0.778182 0.000000 0.741578
O O11 0.212152 0.082835 0.500000
O O12 0.225909 0.139313 0.388575
O O13 0.000000 0.097284 0.398919
O O14 0.500000 0.320139 0.133851
O O15 0.727888 0.282694 0.141684
O O16 0.500000 0.762953 0.131605
O O17 0.651674 0.745107 0.000000
#
# Coordination Sequence:
#
# PCOD8287599 Si02
#       6
#    16  16  16  16  16  16
#     4   9  16  26  40  58  81 112 149 184 220 267
#     4  10  18  30  48  66  87 119 158 192 223 265
#     4   9  16  25  36  54  82 113 146 184 224 267
#     4   9  15  24  39  57  80 114 152 184 219 269
#     4   9  16  28  44  61  83 114 151 187 223 267
#     4  10  20  31  43  64  92 119 152 192 229 267
#
# _framework density 18.182023000000001
#
# number of rings (size 3 to 8) (size 9 to 14) (size 15 to 20)
#    0.000    2.667    1.667    1.500    0.000    3.667 
#    0.000    3.333    0.000    0.000    0.000    0.000 
#    0.000    0.667    0.000    3.500    0.000    5.833 
#
# Total GULP energy -594884.807903 kJ/mol
# GULP energy per Si atom -12393.433498 kJ/mol
# Density = 1.814064 g / cm^3
# Si number density = 18.182023 Si / 1000 Ang^3
#
#
#
# Elastic Constant Matrix: (Units=GPa)
#
#
# Indices 1 2 3 4 5 6 
#
# 1 17.5771 13.5371 9.8728 0.0001 -0.0001 -0.0001
# 2 13.5371 120.1651 62.8113 0.0002 -0.0002 -0.0001
# 3 9.8728 62.8113 124.5347 0.0008 -0.0004 -0.0001
# 4 0.0001 0.0002 0.0008 19.1663 -0.0002 0.0000
# 5 -0.0001 -0.0002 -0.0004 -0.0002 6.4138 0.0001
# 6 -0.0001 -0.0001 -0.0001 0.0000 0.0001 14.1920
#
#
#
# Elastic Compliance Matrix: (Units=1/GPa)
#
#
# Indices 1 2 3 4 5 6 
#
# 1 0.062630 -0.006057 -0.001910 0.000000 0.000001 0.000000
# 2 -0.006057 0.011887 -0.005515 0.000000 0.000000 0.000000
# 3 -0.001910 -0.005515 0.010963 0.000000 0.000000 0.000000
# 4 0.000000 0.000000 0.000000 0.052175 0.000002 0.000000
# 5 0.000001 0.000000 0.000000 0.000002 0.155915 -0.000001
# 6 0.000000 0.000000 0.000000 0.000000 -0.000001 0.070462
#
#
# Mechanical properties :
#
#
# Convention : Reuss Voigt Hill
#
# Bulk Modulus (GPa) = 17.08955 48.30214 32.69584
# Shear Modulus (GPa) = 12.18019 19.69146 15.93582
#
# Velocity S-wave (km/s) = 2.59106 3.29449 2.96372
# Velocity P-wave (km/s) = 4.28614 6.41055 5.45280
#
# Compressibility (1/GPa) = 0.05851528
#
# Stress axis : x y z
#
# Youngs Moduli (GPa) = 15.96675 84.12462 91.21545
#
# Poissons Ratio (x) = 0.50955 0.17423
# Poissons Ratio (y) = 0.09671 0.50308
# Poissons Ratio (z) = 0.03050 0.46397
#
# Static dielectric constant tensor:
#      x y z
#    x 2.664380 0.000000 0.000000 
#    y 0.000000 3.515570 0.000000 
#    z 0.000000 0.000000 3.622780 
# 
# 
# High freq. dielectric constant tensor:
#      x y z
#    x 1.608150 0.000000 0.000000 
#    y 0.000000 1.714680 0.000000 
#    z 0.000000 0.000000 1.724540 
# 
# From -- ./inp_files/43708.got.cif
#   From: 2010.06.25/outbox.cif.g09.slc.cpg/sg71_22_cif.got.tgz:43708.got - 2010.06.28 04:59:45.
