data_PCOD8287028
_publ_section_title
;
Structure prediction by ZEFSAII (Michael W. Deem and Ramdas Pophale) SiO2 
 PCOD8287028
Probable space group: I M M M
;
_chemical_formula_sum "Si O2"
_cell_formula_units_Z 120
_cell_length_a 19.350641
_cell_length_b 19.267586
_cell_length_c 17.387607
_cell_angle_alpha 90.000000
_cell_angle_beta 90.000000
_cell_angle_gamma 90.000000
_cell_volume 6482.797822
_symmetry_space_group_name_H-M "I M M M"
_symmetry_group_IT_number 71
_symmetry_cell_setting 'orthorhombic'
loop_
_space_group_symop_operation_xyz
x,y,z
-x,-y,z
x,-y,-z
-x,y,-z
-x,-y,-z
x,y,-z
-x,y,z
x,-y,z
1/2+x,1/2+y,1/2+z
1/2-x,1/2-y,1/2+z
1/2+x,1/2-y,1/2-z
1/2-x,1/2+y,1/2-z
1/2-x,1/2-y,1/2-z
1/2+x,1/2+y,1/2-z
1/2-x,1/2+y,1/2+z
1/2+x,1/2-y,1/2+z
loop_
_atom_site_type_symbol
_atom_site_label
_atom_site_fract_x
_atom_site_fract_y
_atom_site_fract_z
Si Si1 0.826699 0.279750 0.590574
Si Si2 0.811451 0.081109 0.319310
Si Si3 0.286384 0.171058 0.588622
Si Si4 0.078970 0.254623 0.911350
Si Si5 0.212306 0.423253 0.588252
Si Si6 0.421748 0.500000 0.415943
Si Si7 0.149008 0.877325 0.846492
Si Si8 0.422140 0.341745 0.091259
O O1 0.829049 0.288988 0.500000
O O2 0.754504 0.241735 0.613335
O O3 0.831763 0.358660 0.625657
O O4 0.890645 0.232422 0.618485
O O5 0.741014 0.107974 0.359329
O O6 0.820821 0.120883 0.239255
O O7 0.877566 0.095988 0.373202
O O8 0.804014 0.000000 0.304556
O O9 0.268569 0.153760 0.500000
O O10 0.369126 0.179896 0.599965
O O11 0.110700 0.195117 0.858621
O O12 0.000000 0.273807 0.887175
O O13 0.080624 0.229952 0.000000
O O14 0.192236 0.432747 0.500000
O O15 0.201825 0.500000 0.628495
O O16 0.290610 0.396273 0.593608
O O17 0.500000 0.500000 0.438372
O O18 0.382349 0.500000 0.500000
O O19 0.408384 0.565374 0.361632
O O20 0.500000 0.346465 0.122387
O O21 0.418987 0.349080 0.000000
#
# Coordination Sequence:
#
# PCOD8287028 Si02
#       8
#    16  16  16  16  16   8  16  16
#     4   8  14  28  49  72  96 125 168 217 259 301
#     4  11  23  37  52  78 111 143 176 225 278 326
#     4   9  18  35  58  79 103 139 184 232 280 330
#     4  10  20  35  56  81 110 145 186 229 270 321
#     4  10  17  27  48  73 101 135 172 211 249 297
#     4  11  22  34  48  70 107 157 196 215 251 315
#     4  12  21  33  49  74 110 144 179 216 264 315
#     4   9  19  36  56  74  95 131 176 220 270 327
#
# _framework density 18.510525999999999
#
# number of rings (size 3 to 8) (size 9 to 14) (size 15 to 20)
#    0.000    2.067    2.667    2.800    0.000    4.000 
#    0.000    0.667    0.000    0.800    0.000    4.667 
#    0.000    2.133    0.000    0.133    0.000    0.267 
#
# Total GULP energy -743382.085371 kJ/mol
# GULP energy per Si atom -12389.701423 kJ/mol
# Density = 1.846840 g / cm^3
# Si number density = 18.510526 Si / 1000 Ang^3
#
#
#
# Elastic Constant Matrix: (Units=GPa)
#
#
# Indices 1 2 3 4 5 6 
#
# 1 101.8451 39.5935 34.9191 0.0000 0.0000 0.0000
# 2 39.5935 72.9683 22.6300 0.0000 0.0000 0.0000
# 3 34.9191 22.6300 59.2763 0.0000 0.0000 0.0000
# 4 0.0000 0.0000 0.0000 25.7947 0.0000 0.0000
# 5 0.0000 0.0000 0.0000 0.0000 12.3350 0.0000
# 6 0.0000 0.0000 0.0000 0.0000 0.0000 21.3030
#
#
#
# Elastic Compliance Matrix: (Units=1/GPa)
#
#
# Indices 1 2 3 4 5 6 
#
# 1 0.014174 -0.005786 -0.006141 0.000000 0.000000 0.000000
# 2 -0.005786 0.017907 -0.003428 0.000000 0.000000 0.000000
# 3 -0.006141 -0.003428 0.021796 0.000000 0.000000 0.000000
# 4 0.000000 0.000000 0.000000 0.038768 0.000000 0.000000
# 5 0.000000 0.000000 0.000000 0.000000 0.081070 0.000000
# 6 0.000000 0.000000 0.000000 0.000000 0.000000 0.046942
#
#
# Mechanical properties :
#
#
# Convention : Reuss Voigt Hill
#
# Bulk Modulus (GPa) = 43.16342 47.59719 45.38031
# Shear Modulus (GPa) = 19.29841 21.01636 20.15738
#
# Velocity S-wave (km/s) = 3.23238 3.37319 3.30353
# Velocity P-wave (km/s) = 6.10737 6.39848 6.25462
#
# Compressibility (1/GPa) = 0.02316776
#
# Stress axis : x y z
#
# Youngs Moduli (GPa) = 70.55293 55.84259 45.87974
#
# Poissons Ratio (x) = 0.32313 0.28173
# Poissons Ratio (y) = 0.40825 0.15727
# Poissons Ratio (z) = 0.43323 0.19142
#
# Static dielectric constant tensor:
#      x y z
#    x 3.460660 0.000000 0.000000 
#    y 0.000000 3.567070 0.000000 
#    z 0.000000 0.000000 3.206660 
# 
# 
# High freq. dielectric constant tensor:
#      x y z
#    x 1.698880 0.000000 0.000000 
#    y 0.000000 1.707960 0.000000 
#    z 0.000000 0.000000 1.697570 
# 
# From -- ./inp_files/46462.got.cif
#   From: 2010.06.25/outbox.cif.g09.slc.cpg/sg71_24_cif.got.tgz:46462.got - 2010.06.28 04:59:45.
