data_PCOD8287284
_publ_section_title
;
Structure prediction by ZEFSAII (Michael W. Deem and Ramdas Pophale) SiO2 
 PCOD8287284
Probable space group: I M M M
;
_chemical_formula_sum "Si O2"
_cell_formula_units_Z 96
_cell_length_a 28.729665
_cell_length_b 26.365305
_cell_length_c 8.684200
_cell_angle_alpha 90.000000
_cell_angle_beta 90.000000
_cell_angle_gamma 90.000000
_cell_volume 6577.989540
_symmetry_space_group_name_H-M "I M M M"
_symmetry_group_IT_number 71
_symmetry_cell_setting 'orthorhombic'
loop_
_space_group_symop_operation_xyz
x,y,z
-x,-y,z
x,-y,-z
-x,y,-z
-x,-y,-z
x,y,-z
-x,y,z
x,-y,z
1/2+x,1/2+y,1/2+z
1/2-x,1/2-y,1/2+z
1/2+x,1/2-y,1/2-z
1/2-x,1/2+y,1/2-z
1/2-x,1/2-y,1/2-z
1/2+x,1/2+y,1/2-z
1/2-x,1/2+y,1/2+z
1/2+x,1/2-y,1/2+z
loop_
_atom_site_type_symbol
_atom_site_label
_atom_site_fract_x
_atom_site_fract_y
_atom_site_fract_z
Si Si1 0.223906 0.298539 0.182651
Si Si2 0.695120 0.650970 0.681105
Si Si3 0.365983 0.556855 0.322280
Si Si4 0.447576 0.717790 0.679541
Si Si5 0.643171 0.253216 0.181126
Si Si6 0.552302 0.610730 0.175895
O O1 0.250000 0.250000 0.250000
O O2 0.252529 0.346828 0.247871
O O3 0.170956 0.294588 0.244327
O O4 0.224513 0.298996 0.000000
O O5 0.697325 0.661182 0.500000
O O6 0.675086 0.595672 0.722520
O O7 0.661886 0.693235 0.755607
O O8 0.379642 0.563414 0.500000
O O9 0.348246 0.500000 0.286616
O O10 0.412208 0.566702 0.222946
O O11 0.439045 0.726230 0.500000
O O12 0.500000 0.733644 0.727966
O O13 0.411058 0.752375 0.773239
O O14 0.438812 0.658998 0.716453
O O15 0.649807 0.251494 0.000000
O O16 0.500000 0.589685 0.198000
O O17 0.560954 0.627499 0.000000
#
# Coordination Sequence:
#
# PCOD8287284 Si02
#       6
#    16  16  16  16  16  16
#     4  10  18  28  43  62  83 104 130 160 201 246
#     4  10  18  30  45  60  81 104 132 169 208 248
#     4  10  21  34  47  61  78 105 138 172 213 259
#     4  10  19  30  44  61  82 109 138 168 205 248
#     4  11  19  28  44  64  85 105 132 165 203 245
#     4  10  20  32  45  60  77 100 133 175 219 257
#
# _framework density 14.594124000000001
#
# number of rings (size 3 to 8) (size 9 to 14) (size 15 to 20)
#    0.000    1.833    1.667    6.500    0.000    3.333 
#    0.000    1.667    0.000    0.000    0.000    0.000 
#    0.000    0.000    0.000    0.000    0.000    0.833 
#
# Total GULP energy -595111.941205 kJ/mol
# GULP energy per Si atom -12398.165442 kJ/mol
# Density = 1.456091 g / cm^3
# Si number density = 14.594124 Si / 1000 Ang^3
#
#
#
# Elastic Constant Matrix: (Units=GPa)
#
#
# Indices 1 2 3 4 5 6 
#
# 1 109.5122 51.9281 47.8595 0.0000 0.0000 0.0000
# 2 51.9281 48.7080 28.7176 0.0000 0.0000 0.0000
# 3 47.8595 28.7176 97.5368 0.0000 0.0000 0.0000
# 4 0.0000 0.0000 0.0000 13.2045 0.0000 0.0000
# 5 0.0000 0.0000 0.0000 0.0000 27.0063 0.0000
# 6 0.0000 0.0000 0.0000 0.0000 0.0000 20.7376
#
#
#
# Elastic Compliance Matrix: (Units=1/GPa)
#
#
# Indices 1 2 3 4 5 6 
#
# 1 0.019817 -0.018627 -0.004239 0.000000 0.000000 0.000000
# 2 -0.018627 0.042352 -0.003330 0.000000 0.000000 0.000000
# 3 -0.004239 -0.003330 0.013313 0.000000 0.000000 0.000000
# 4 0.000000 0.000000 0.000000 0.075732 0.000000 0.000000
# 5 0.000000 0.000000 0.000000 0.000000 0.037028 0.000000
# 6 0.000000 0.000000 0.000000 0.000000 0.000000 0.048222
#
#
# Mechanical properties :
#
#
# Convention : Reuss Voigt Hill
#
# Bulk Modulus (GPa) = 43.30959 56.97415 50.14187
# Shear Modulus (GPa) = 16.86038 20.67313 18.76676
#
# Velocity S-wave (km/s) = 3.40264 3.76778 3.58985
# Velocity P-wave (km/s) = 6.72144 7.61919 7.18435
#
# Compressibility (1/GPa) = 0.02308958
#
# Stress axis : x y z
#
# Youngs Moduli (GPa) = 50.46252 23.61139 75.11448
#
# Poissons Ratio (x) = 0.43982 0.31843
# Poissons Ratio (y) = 0.93998 0.25011
# Poissons Ratio (z) = 0.21392 0.07862
#
# Static dielectric constant tensor:
#      x y z
#    x 3.302470 0.000000 0.000000 
#    y 0.000000 2.628940 0.000000 
#    z 0.000000 0.000000 2.945260 
# 
# 
# High freq. dielectric constant tensor:
#      x y z
#    x 1.559360 0.000000 0.000000 
#    y 0.000000 1.496160 0.000000 
#    z 0.000000 0.000000 1.578150 
# 
# From -- ./inp_files/15459.got.cif
#   From: 2010.06.25/outbox.cif.g09.slc.cpg/sg71_8_cif.got.tgz:15459.got - 2010.06.28 04:59:45.
