data_PCOD8287451
_publ_section_title
;
Structure prediction by ZEFSAII (Michael W. Deem and Ramdas Pophale) SiO2 
 PCOD8287451
Probable space group: I M M M
;
_chemical_formula_sum "Si O2"
_cell_formula_units_Z 120
_cell_length_a 11.512200
_cell_length_b 25.947160
_cell_length_c 22.510295
_cell_angle_alpha 90.000000
_cell_angle_beta 90.000000
_cell_angle_gamma 90.000000
_cell_volume 6724.025353
_symmetry_space_group_name_H-M "I M M M"
_symmetry_group_IT_number 71
_symmetry_cell_setting 'orthorhombic'
loop_
_space_group_symop_operation_xyz
x,y,z
-x,-y,z
x,-y,-z
-x,y,-z
-x,-y,-z
x,y,-z
-x,y,z
x,-y,z
1/2+x,1/2+y,1/2+z
1/2-x,1/2-y,1/2+z
1/2+x,1/2-y,1/2-z
1/2-x,1/2+y,1/2-z
1/2-x,1/2-y,1/2-z
1/2+x,1/2+y,1/2-z
1/2-x,1/2+y,1/2+z
1/2+x,1/2-y,1/2+z
loop_
_atom_site_type_symbol
_atom_site_label
_atom_site_fract_x
_atom_site_fract_y
_atom_site_fract_z
Si Si1 0.864020 0.941107 0.218114
Si Si2 0.862321 0.942888 0.564443
Si Si3 0.782254 0.721676 0.163993
Si Si4 0.788609 0.384696 0.368706
Si Si5 0.126399 0.305589 0.281621
Si Si6 0.137284 0.124305 0.331093
Si Si7 0.500000 0.058803 0.070247
Si Si8 0.134440 0.797031 0.930401
O O1 0.800538 0.927196 0.156629
O O2 0.822108 0.900848 0.268943
O O3 0.000000 0.934749 0.206728
O O4 0.834911 0.000000 0.237012
O O5 0.829827 0.919339 0.500000
O O6 0.806307 0.909046 0.616087
O O7 0.000000 0.945375 0.572042
O O8 0.810216 0.000000 0.570009
O O9 0.871718 0.693591 0.209356
O O10 0.731902 0.771762 0.195571
O O11 0.677874 0.681900 0.155006
O O12 0.840790 0.742365 0.103263
O O13 0.855042 0.361047 0.311675
O O14 0.718250 0.342360 0.407102
O O15 0.883595 0.412228 0.409373
O O16 0.000000 0.284388 0.300944
O O17 0.000000 0.124507 0.333787
O O18 0.500000 0.000000 0.094517
O O19 0.500000 0.059211 0.000000
O O20 0.000000 0.812535 0.919203
O O21 0.158979 0.787968 0.000000
#
# Coordination Sequence:
#
# PCOD8287451 Si02
#       8
#    16  16  16  16  16  16   8  16
#     4  10  20  33  52  80 112 144 180 227 277 321
#     4   8  14  25  41  61  90 133 177 210 248 307
#     4  10  20  32  51  76 104 135 173 221 265 317
#     4  11  20  37  59  80 105 142 179 221 262 321
#     4  10  19  33  51  75 101 133 172 212 263 316
#     4  10  18  29  46  73 109 142 173 215 271 324
#     4  11  24  40  60  86 116 148 179 217 266 322
#     4  10  22  39  58  79 105 140 183 228 272 320
#
# _framework density 17.846453
#
# number of rings (size 3 to 8) (size 9 to 14) (size 15 to 20)
#    0.000    2.067    2.000    2.800    0.000    2.133 
#    0.000    0.000    0.000    0.000    0.000    5.600 
#    0.000    0.000    0.000    6.400    0.000    0.533 
#
# Total GULP energy -743516.995047 kJ/mol
# GULP energy per Si atom -12391.949917 kJ/mol
# Density = 1.780583 g / cm^3
# Si number density = 17.846453 Si / 1000 Ang^3
#
#
#
# Elastic Constant Matrix: (Units=GPa)
#
#
# Indices 1 2 3 4 5 6 
#
# 1 67.6992 27.6739 41.9489 0.0000 0.0000 0.0000
# 2 27.6739 86.2318 45.2034 0.0000 0.0000 0.0000
# 3 41.9489 45.2034 111.9833 0.0000 0.0000 0.0000
# 4 0.0000 0.0000 0.0000 30.4187 0.0000 0.0000
# 5 0.0000 0.0000 0.0000 0.0000 24.3795 0.0000
# 6 0.0000 0.0000 0.0000 0.0000 0.0000 21.9570
#
#
#
# Elastic Compliance Matrix: (Units=1/GPa)
#
#
# Indices 1 2 3 4 5 6 
#
# 1 0.019885 -0.003142 -0.006181 0.000000 0.000000 0.000000
# 2 -0.003142 0.015205 -0.004961 0.000000 0.000000 0.000000
# 3 -0.006181 -0.004961 0.013248 0.000000 0.000000 0.000000
# 4 0.000000 0.000000 0.000000 0.032874 0.000000 0.000000
# 5 0.000000 0.000000 0.000000 0.000000 0.041018 0.000000
# 6 0.000000 0.000000 0.000000 0.000000 0.000000 0.045544
#
#
# Mechanical properties :
#
#
# Convention : Reuss Voigt Hill
#
# Bulk Modulus (GPa) = 50.57762 55.06298 52.82030
# Shear Modulus (GPa) = 24.63875 25.42359 25.03117
#
# Velocity S-wave (km/s) = 3.71967 3.77845 3.74917
# Velocity P-wave (km/s) = 6.84470 7.06798 6.95723
#
# Compressibility (1/GPa) = 0.01977159
#
# Stress axis : x y z
#
# Youngs Moduli (GPa) = 50.28824 65.76575 75.48395
#
# Poissons Ratio (x) = 0.20661 0.46656
# Poissons Ratio (y) = 0.15799 0.37448
# Poissons Ratio (z) = 0.31083 0.32627
#
# Static dielectric constant tensor:
#      x y z
#    x 3.073450 0.000000 0.000000 
#    y 0.000000 3.356370 0.000000 
#    z 0.000000 0.000000 3.510720 
# 
# 
# High freq. dielectric constant tensor:
#      x y z
#    x 1.669350 0.000000 0.000000 
#    y 0.000000 1.687750 0.000000 
#    z 0.000000 0.000000 1.694540 
# 
# From -- ./inp_files/52256.got.cif
#   From: 2010.06.25/outbox.cif.g09.slc.cpg/sg71_27_cif.got.tgz:52256.got - 2010.06.28 04:59:45.
