data_PCOD8287189
_publ_section_title
;
Structure prediction by ZEFSAII (Michael W. Deem and Ramdas Pophale) SiO2 
 PCOD8287189
Probable space group: I M M M
;
_chemical_formula_sum "Si O2"
_cell_formula_units_Z 112
_cell_length_a 15.402868
_cell_length_b 16.940228
_cell_length_c 26.283929
_cell_angle_alpha 90.000000
_cell_angle_beta 90.000000
_cell_angle_gamma 90.000000
_cell_volume 6858.215543
_symmetry_space_group_name_H-M "I M M M"
_symmetry_group_IT_number 71
_symmetry_cell_setting 'orthorhombic'
loop_
_space_group_symop_operation_xyz
x,y,z
-x,-y,z
x,-y,-z
-x,y,-z
-x,-y,-z
x,y,-z
-x,y,z
x,-y,z
1/2+x,1/2+y,1/2+z
1/2-x,1/2-y,1/2+z
1/2+x,1/2-y,1/2-z
1/2-x,1/2+y,1/2-z
1/2-x,1/2-y,1/2-z
1/2+x,1/2+y,1/2-z
1/2-x,1/2+y,1/2+z
1/2+x,1/2-y,1/2+z
loop_
_atom_site_type_symbol
_atom_site_label
_atom_site_fract_x
_atom_site_fract_y
_atom_site_fract_z
Si Si1 0.778399 0.085795 0.941925
Si Si2 0.595877 0.683565 0.257237
Si Si3 0.185138 0.723660 0.844835
Si Si4 0.260201 0.092475 0.729227
Si Si5 0.593154 0.908906 0.906349
Si Si6 0.350581 0.814695 0.183756
Si Si7 0.602778 0.726679 0.558989
O O1 0.678510 0.116437 0.938008
O O2 0.849588 0.146956 0.921021
O O3 0.789569 0.000000 0.914336
O O4 0.800899 0.074172 0.000000
O O5 0.500000 0.647087 0.262210
O O6 0.618729 0.728927 0.309060
O O7 0.660832 0.612845 0.243237
O O8 0.596607 0.746854 0.211877
O O9 0.208292 0.638158 0.821501
O O10 0.271532 0.776492 0.848089
O O11 0.140943 0.709325 0.900756
O O12 0.317548 0.120246 0.776444
O O13 0.270678 0.000000 0.719241
O O14 0.500000 0.894681 0.935296
O O15 0.586864 0.858746 0.854962
O O16 0.601849 0.000000 0.891614
O O17 0.626863 0.747928 0.500000
O O18 0.500000 0.716982 0.564616
#
# Coordination Sequence:
#
# PCOD8287189 Si02
#       7
#    16  16  16  16  16  16  16
#     4   9  18  31  44  61  90 123 153 191 234 274
#     4   9  17  28  45  68  94 123 152 188 231 277
#     4   9  17  31  48  65  92 126 157 190 236 282
#     4   9  18  30  47  68  92 125 156 188 234 284
#     4  10  18  26  41  63  88 121 155 187 221 261
#     4   9  16  29  45  63  91 126 155 184 220 270
#     4  10  19  31  50  71  90 120 161 200 239 284
#
# _framework density 16.330779
#
# number of rings (size 3 to 8) (size 9 to 14) (size 15 to 20)
#    0.000    2.714    1.429    3.000    0.000    0.857 
#    0.000    2.857    0.000   10.714    0.000    1.000 
#    0.000    0.000    0.000    3.714    0.000    0.000 
#
# Total GULP energy -693740.325612 kJ/mol
# GULP energy per Si atom -12388.220100 kJ/mol
# Density = 1.629361 g / cm^3
# Si number density = 16.330779 Si / 1000 Ang^3
#
#
#
# Elastic Constant Matrix: (Units=GPa)
#
#
# Indices 1 2 3 4 5 6 
#
# 1 90.1133 22.7463 20.5779 0.0000 0.0000 0.0000
# 2 22.7463 71.5699 21.7154 0.0000 0.0000 0.0000
# 3 20.5779 21.7154 64.6225 0.0000 0.0000 0.0000
# 4 0.0000 0.0000 0.0000 14.3286 0.0000 0.0000
# 5 0.0000 0.0000 0.0000 0.0000 22.8185 0.0000
# 6 0.0000 0.0000 0.0000 0.0000 0.0000 15.7980
#
#
#
# Elastic Compliance Matrix: (Units=1/GPa)
#
#
# Indices 1 2 3 4 5 6 
#
# 1 0.012553 -0.003092 -0.002958 0.000000 0.000000 0.000000
# 2 -0.003092 0.016320 -0.004500 0.000000 0.000000 0.000000
# 3 -0.002958 -0.004500 0.017929 0.000000 0.000000 0.000000
# 4 0.000000 0.000000 0.000000 0.069790 0.000000 0.000000
# 5 0.000000 0.000000 0.000000 0.000000 0.043824 0.000000
# 6 0.000000 0.000000 0.000000 0.000000 0.000000 0.063299
#
#
# Mechanical properties :
#
#
# Convention : Reuss Voigt Hill
#
# Bulk Modulus (GPa) = 38.90725 39.59831 39.25278
# Shear Modulus (GPa) = 19.73299 21.34009 20.53654
#
# Velocity S-wave (km/s) = 3.47988 3.61881 3.55002
# Velocity P-wave (km/s) = 6.32632 6.46230 6.39467
#
# Compressibility (1/GPa) = 0.02570215
#
# Stress axis : x y z
#
# Youngs Moduli (GPa) = 79.66107 61.27331 55.77703
#
# Poissons Ratio (x) = 0.18946 0.16500
# Poissons Ratio (y) = 0.24632 0.25097
# Poissons Ratio (z) = 0.23566 0.27570
#
# Static dielectric constant tensor:
#      x y z
#    x 3.180100 0.000000 0.000000 
#    y 0.000000 3.014870 0.000000 
#    z 0.000000 0.000000 3.003980 
# 
# 
# High freq. dielectric constant tensor:
#      x y z
#    x 1.639070 0.000000 0.000000 
#    y 0.000000 1.594110 0.000000 
#    z 0.000000 0.000000 1.616750 
# 
# From -- ./inp_files/40335.got.cif
#   From: 2010.06.25/outbox.cif.g09.slc.cpg/sg71_21_cif.got.tgz:40335.got - 2010.06.28 04:59:45.
