data_PCOD8287483
_publ_section_title
;
Structure prediction by ZEFSAII (Michael W. Deem and Ramdas Pophale) SiO2 
 PCOD8287483
Probable space group: I M M M
;
_chemical_formula_sum "Si O2"
_cell_formula_units_Z 88
_cell_length_a 9.708462
_cell_length_b 27.363824
_cell_length_c 17.108549
_cell_angle_alpha 90.000000
_cell_angle_beta 90.000000
_cell_angle_gamma 90.000000
_cell_volume 4545.068171
_symmetry_space_group_name_H-M "I M M M"
_symmetry_group_IT_number 71
_symmetry_cell_setting 'orthorhombic'
loop_
_space_group_symop_operation_xyz
x,y,z
-x,-y,z
x,-y,-z
-x,y,-z
-x,-y,-z
x,y,-z
-x,y,z
x,-y,z
1/2+x,1/2+y,1/2+z
1/2-x,1/2-y,1/2+z
1/2+x,1/2-y,1/2-z
1/2-x,1/2+y,1/2-z
1/2-x,1/2-y,1/2-z
1/2+x,1/2+y,1/2-z
1/2-x,1/2+y,1/2+z
1/2+x,1/2-y,1/2+z
loop_
_atom_site_type_symbol
_atom_site_label
_atom_site_fract_x
_atom_site_fract_y
_atom_site_fract_z
Si Si1 0.849412 0.443869 0.262576
Si Si2 0.840344 0.137199 0.305946
Si Si3 0.222274 0.603009 0.588633
Si Si4 0.158181 0.701163 0.091414
Si Si5 0.500000 0.553530 0.407837
Si Si6 0.656714 0.693524 0.351976
O O1 0.799874 0.500000 0.268070
O O2 0.734678 0.413432 0.216075
O O3 0.879732 0.421587 0.349689
O O4 0.000000 0.440755 0.221143
O O5 0.761261 0.158705 0.381013
O O6 0.827443 0.177284 0.237642
O O7 0.000000 0.126398 0.326328
O O8 0.182112 0.588141 0.500000
O O9 0.368266 0.582874 0.620229
O O10 0.236943 0.661611 0.595398
O O11 0.198625 0.750303 0.138130
O O12 0.000000 0.686229 0.109776
O O13 0.179857 0.710306 0.000000
O O14 0.500000 0.500000 0.369084
O O15 0.500000 0.548868 0.500000
O O16 0.500000 0.686038 0.382288
#
# Coordination Sequence:
#
# PCOD8287483 Si02
#       6
#    16  16  16  16   8  16
#     4  10  22  38  55  76 105 142 181 224 275 331
#     4  10  21  37  58  82 109 142 180 227 273 317
#     4  10  18  29  47  74 110 149 188 228 267 308
#     4  10  20  34  56  83 111 145 182 219 267 326
#     4   9  16  24  38  64  98 138 181 225 266 300
#     4   9  17  31  51  78 111 149 188 223 263 313
#
# _framework density 19.361646
#
# number of rings (size 3 to 8) (size 9 to 14) (size 15 to 20)
#    0.000    2.273    0.909    2.182    1.273    2.909 
#    0.000    4.545    0.000    4.909    0.000    3.818 
#    0.000    0.000    0.000    0.000    0.000    0.000 
#
# Total GULP energy -545371.722584 kJ/mol
# GULP energy per Si atom -12394.811877 kJ/mol
# Density = 1.931758 g / cm^3
# Si number density = 19.361646 Si / 1000 Ang^3
#
#
#
# Elastic Constant Matrix: (Units=GPa)
#
#
# Indices 1 2 3 4 5 6 
#
# 1 105.0376 54.5248 27.0298 0.0000 0.0000 0.0000
# 2 54.5248 116.5143 32.6970 0.0000 0.0000 0.0000
# 3 27.0298 32.6970 45.2642 0.0002 -0.0001 -0.0001
# 4 0.0000 0.0000 0.0002 19.5143 0.0000 0.0000
# 5 0.0000 0.0000 -0.0001 0.0000 24.2583 0.0000
# 6 0.0000 0.0000 -0.0001 0.0000 0.0000 25.9164
#
#
#
# Elastic Compliance Matrix: (Units=1/GPa)
#
#
# Indices 1 2 3 4 5 6 
#
# 1 0.013208 -0.004976 -0.004293 0.000000 0.000000 0.000000
# 2 -0.004976 0.012640 -0.006159 0.000000 0.000000 0.000000
# 3 -0.004293 -0.006159 0.029105 0.000000 0.000000 0.000000
# 4 0.000000 0.000000 0.000000 0.051244 0.000000 0.000000
# 5 0.000000 0.000000 0.000000 0.000000 0.041223 0.000000
# 6 0.000000 0.000000 0.000000 0.000000 0.000000 0.038586
#
#
# Mechanical properties :
#
#
# Convention : Reuss Voigt Hill
#
# Bulk Modulus (GPa) = 41.49868 55.03547 48.26708
# Shear Modulus (GPa) = 22.23272 24.10877 23.17074
#
# Velocity S-wave (km/s) = 3.39231 3.53254 3.46314
# Velocity P-wave (km/s) = 6.06825 6.71753 6.40113
#
# Compressibility (1/GPa) = 0.02409715
#
# Stress axis : x y z
#
# Youngs Moduli (GPa) = 75.70997 79.11562 34.35868
#
# Poissons Ratio (x) = 0.39371 0.14749
# Poissons Ratio (y) = 0.37676 0.21161
# Poissons Ratio (z) = 0.32500 0.48725
#
# Static dielectric constant tensor:
#      x y z
#    x 3.625070 0.000000 0.000000 
#    y 0.000000 3.497150 0.000000 
#    z 0.000000 0.000000 3.160990 
# 
# 
# High freq. dielectric constant tensor:
#      x y z
#    x 1.750120 0.000000 0.000000 
#    y 0.000000 1.750460 0.000000 
#    z 0.000000 0.000000 1.718730 
# 
# From -- ./inp_files/42489.got.cif
#   From: 2010.06.25/outbox.cif.g09.slc.cpg/sg71_22_cif.got.tgz:42489.got - 2010.06.28 04:59:45.
