data_PCOD8287936
_publ_section_title
;
Structure prediction by ZEFSAII (Michael W. Deem and Ramdas Pophale) SiO2 
 PCOD8287936
Probable space group: I M M M
;
_chemical_formula_sum "Si O2"
_cell_formula_units_Z 88
_cell_length_a 9.302842
_cell_length_b 28.131193
_cell_length_c 19.065975
_cell_angle_alpha 90.000000
_cell_angle_beta 90.000000
_cell_angle_gamma 90.000000
_cell_volume 4989.566492
_symmetry_space_group_name_H-M "I M M M"
_symmetry_group_IT_number 71
_symmetry_cell_setting 'orthorhombic'
loop_
_space_group_symop_operation_xyz
x,y,z
-x,-y,z
x,-y,-z
-x,y,-z
-x,-y,-z
x,y,-z
-x,y,z
x,-y,z
1/2+x,1/2+y,1/2+z
1/2-x,1/2-y,1/2+z
1/2+x,1/2-y,1/2-z
1/2-x,1/2+y,1/2-z
1/2-x,1/2-y,1/2-z
1/2+x,1/2+y,1/2-z
1/2-x,1/2+y,1/2+z
1/2+x,1/2-y,1/2+z
loop_
_atom_site_type_symbol
_atom_site_label
_atom_site_fract_x
_atom_site_fract_y
_atom_site_fract_z
Si Si1 0.329431 0.176374 0.921933
Si Si2 0.840240 0.779879 0.583388
Si Si3 0.664119 0.500000 0.417130
Si Si4 0.169171 0.629525 0.919553
Si Si5 0.170142 0.583304 0.656523
Si Si6 0.329827 0.946910 0.689830
O O1 0.500000 0.178467 0.927312
O O2 0.277212 0.228165 0.893572
O O3 0.280435 0.135752 0.867818
O O4 0.266826 0.165671 0.000000
O O5 0.846549 0.780118 0.500000
O O6 0.738154 0.822039 0.610382
O O7 0.000000 0.788210 0.614306
O O8 0.500000 0.500000 0.389637
O O9 0.668969 0.500000 0.500000
O O10 0.746054 0.546256 0.390792
O O11 0.228361 0.585431 0.873839
O O12 0.000000 0.635458 0.910994
O O13 0.213104 0.619686 0.000000
O O14 0.216838 0.576777 0.736997
O O15 0.000000 0.575197 0.646169
O O16 0.500000 0.950377 0.685664
O O17 0.263625 0.000000 0.683565
#
# Coordination Sequence:
#
# PCOD8287936 Si02
#       6
#    16  16   8  16  16  16
#     4   8  14  25  45  72  94 115 151 196 234 270
#     4   8  14  27  46  67  93 121 149 188 236 281
#     4  11  23  35  47  69 102 131 156 192 237 279
#     4   9  17  29  47  70  94 122 157 195 237 290
#     4  10  18  32  53  72  91 122 165 203 233 274
#     4   9  17  30  48  70  94 120 156 202 247 279
#
# _framework density 17.636804000000001
#
# number of rings (size 3 to 8) (size 9 to 14) (size 15 to 20)
#    0.000    3.000    0.909    1.909    0.000    1.818 
#    0.000    4.545    0.000    3.273    0.000    2.545 
#    0.000    0.000    0.000    0.000    0.000    0.000 
#
# Total GULP energy -545353.256871 kJ/mol
# GULP energy per Si atom -12394.392202 kJ/mol
# Density = 1.759666 g / cm^3
# Si number density = 17.636804 Si / 1000 Ang^3
#
#
#
# Elastic Constant Matrix: (Units=GPa)
#
#
# Indices 1 2 3 4 5 6 
#
# 1 33.9668 35.0392 25.5037 0.0000 0.0000 0.0000
# 2 35.0392 192.5297 82.9302 0.0000 0.0000 0.0000
# 3 25.5037 82.9302 86.8092 0.0006 0.0002 0.0001
# 4 0.0000 0.0000 0.0006 6.1017 -0.0001 0.0000
# 5 0.0000 0.0000 0.0002 -0.0001 11.6817 0.0000
# 6 0.0000 0.0000 0.0001 0.0000 0.0000 22.8226
#
#
#
# Elastic Compliance Matrix: (Units=1/GPa)
#
#
# Indices 1 2 3 4 5 6 
#
# 1 0.039265 -0.003699 -0.008002 0.000001 0.000000 0.000000
# 2 -0.003699 0.009174 -0.007677 0.000001 0.000000 0.000000
# 3 -0.008002 -0.007677 0.021205 -0.000002 0.000000 0.000000
# 4 0.000001 0.000001 -0.000002 0.163888 0.000001 0.000000
# 5 0.000000 0.000000 0.000000 0.000001 0.085604 0.000000
# 6 0.000000 0.000000 0.000000 0.000000 0.000000 0.043816
#
#
# Mechanical properties :
#
#
# Convention : Reuss Voigt Hill
#
# Bulk Modulus (GPa) = 32.37623 66.69467 49.53545
# Shear Modulus (GPa) = 12.13581 19.44338 15.78960
#
# Velocity S-wave (km/s) = 2.62600 3.32389 2.99534
# Velocity P-wave (km/s) = 5.25277 7.25457 6.33326
#
# Compressibility (1/GPa) = 0.03088685
#
# Stress axis : x y z
#
# Youngs Moduli (GPa) = 25.46824 109.00062 47.15928
#
# Poissons Ratio (x) = 0.40323 0.37735
# Poissons Ratio (y) = 0.09422 0.36207
# Poissons Ratio (z) = 0.20379 0.83685
#
# Static dielectric constant tensor:
#      x y z
#    x 2.989590 0.000000 0.000000 
#    y 0.000000 3.882240 0.000000 
#    z 0.000000 0.000000 3.196960 
# 
# 
# High freq. dielectric constant tensor:
#      x y z
#    x 1.637820 0.000000 0.000000 
#    y 0.000000 1.699390 0.000000 
#    z 0.000000 0.000000 1.662300 
# 
# From -- ./inp_files/8882.got.cif
#   From: 2010.06.25/outbox.cif.g09.slc.cpg/sg71_5_cif.got.tgz:8882.got - 2010.06.28 04:59:45.
