data_PCOD8287748
_publ_section_title
;
Structure prediction by ZEFSAII (Michael W. Deem and Ramdas Pophale) SiO2 
 PCOD8287748
Probable space group: I M M M
;
_chemical_formula_sum "Si O2"
_cell_formula_units_Z 96
_cell_length_a 13.487557
_cell_length_b 30.326578
_cell_length_c 14.882071
_cell_angle_alpha 90.000000
_cell_angle_beta 90.000000
_cell_angle_gamma 90.000000
_cell_volume 6087.235071
_symmetry_space_group_name_H-M "I M M M"
_symmetry_group_IT_number 71
_symmetry_cell_setting 'orthorhombic'
loop_
_space_group_symop_operation_xyz
x,y,z
-x,-y,z
x,-y,-z
-x,y,-z
-x,-y,-z
x,y,-z
-x,y,z
x,-y,z
1/2+x,1/2+y,1/2+z
1/2-x,1/2-y,1/2+z
1/2+x,1/2-y,1/2-z
1/2-x,1/2+y,1/2-z
1/2-x,1/2-y,1/2-z
1/2+x,1/2+y,1/2-z
1/2-x,1/2+y,1/2+z
1/2+x,1/2-y,1/2+z
loop_
_atom_site_type_symbol
_atom_site_label
_atom_site_fract_x
_atom_site_fract_y
_atom_site_fract_z
Si Si1 0.304221 0.195141 0.095520
Si Si2 0.700895 0.167466 0.602823
Si Si3 0.388805 0.283187 0.146838
Si Si4 0.882473 0.625149 0.730845
Si Si5 0.611750 0.738872 0.352593
Si Si6 0.382197 0.950628 0.100598
O O1 0.359723 0.241826 0.085872
O O2 0.349248 0.168279 0.177207
O O3 0.186361 0.203611 0.104161
O O4 0.321802 0.170388 0.000000
O O5 0.688449 0.151446 0.500000
O O6 0.816403 0.176110 0.625045
O O7 0.662721 0.128417 0.668833
O O8 0.636828 0.211442 0.618534
O O9 0.500000 0.299410 0.126454
O O10 0.375457 0.265395 0.246841
O O11 0.840472 0.582636 0.676679
O O12 0.000000 0.623705 0.738297
O O13 0.500000 0.727777 0.383879
O O14 0.500000 0.948342 0.100457
O O15 0.346330 0.000000 0.125301
O O16 0.344037 0.938053 0.000000
#
# Coordination Sequence:
#
# PCOD8287748 Si02
#       6
#    16  16  16  16  16  16
#     4  11  20  29  43  64  88 114 150 190 228 265
#     4  11  21  32  45  62  87 120 159 191 221 264
#     4  10  18  31  47  60  84 120 154 193 232 260
#     4  11  20  31  45  65  93 117 146 186 221 256
#     4  10  18  31  46  58  84 124 157 189 226 261
#     4   8  15  29  49  71  92 115 141 170 215 272
#
# _framework density 15.770706000000001
#
# number of rings (size 3 to 8) (size 9 to 14) (size 15 to 20)
#    0.000    1.833    3.333    5.000    0.000    5.333 
#    0.000    0.000    0.000    0.500    0.000    2.333 
#    0.000    2.667    0.000   10.667    0.000    0.667 
#
# Total GULP energy -594951.933952 kJ/mol
# GULP energy per Si atom -12394.831957 kJ/mol
# Density = 1.573481 g / cm^3
# Si number density = 15.770706 Si / 1000 Ang^3
#
#
#
# Elastic Constant Matrix: (Units=GPa)
#
#
# Indices 1 2 3 4 5 6 
#
# 1 83.1981 23.5358 37.2055 0.0002 -0.0001 0.0000
# 2 23.5358 66.8577 40.0333 0.0004 -0.0003 -0.0001
# 3 37.2055 40.0333 126.4956 0.0034 -0.0028 -0.0005
# 4 0.0002 0.0004 0.0034 23.7202 -0.0007 -0.0001
# 5 -0.0001 -0.0003 -0.0028 -0.0007 6.5350 0.0002
# 6 0.0000 -0.0001 -0.0005 -0.0001 0.0002 11.3946
#
#
#
# Elastic Compliance Matrix: (Units=1/GPa)
#
#
# Indices 1 2 3 4 5 6 
#
# 1 0.014347 -0.003114 -0.003234 0.000000 -0.000001 0.000000
# 2 -0.003114 0.019130 -0.005138 0.000000 -0.000001 0.000000
# 3 -0.003234 -0.005138 0.010483 -0.000001 0.000004 0.000000
# 4 0.000000 0.000000 -0.000001 0.042158 0.000005 0.000001
# 5 -0.000001 -0.000001 0.000004 0.000005 0.153022 -0.000003
# 6 0.000000 0.000000 0.000000 0.000001 -0.000003 0.087761
#
#
# Mechanical properties :
#
#
# Convention : Reuss Voigt Hill
#
# Bulk Modulus (GPa) = 47.64929 53.12229 50.38579
# Shear Modulus (GPa) = 14.01072 20.04841 17.02956
#
# Velocity S-wave (km/s) = 2.98384 3.56932 3.28963
# Velocity P-wave (km/s) = 6.49234 7.12348 6.81522
#
# Compressibility (1/GPa) = 0.02098667
#
# Stress axis : x y z
#
# Youngs Moduli (GPa) = 69.70244 52.27361 95.39339
#
# Poissons Ratio (x) = 0.16277 0.30853
# Poissons Ratio (y) = 0.21704 0.49017
# Poissons Ratio (z) = 0.22544 0.26861
#
# Static dielectric constant tensor:
#      x y z
#    x 3.027580 0.000000 0.000000 
#    y 0.000000 2.759690 0.000000 
#    z 0.000000 0.000000 3.240810 
# 
# 
# High freq. dielectric constant tensor:
#      x y z
#    x 1.593050 0.000000 0.000000 
#    y 0.000000 1.548310 0.000000 
#    z 0.000000 0.000000 1.623410 
# 
# From -- ./inp_files/35251.got.cif
#   From: 2010.06.25/outbox.cif.g09.slc.cpg/sg71_18_cif.got.tgz:35251.got - 2010.06.28 04:59:45.
