data_PCOD8287972
_publ_section_title
;
Structure prediction by ZEFSAII (Michael W. Deem and Ramdas Pophale) SiO2 
 PCOD8287972
Probable space group: I M M M
;
_chemical_formula_sum "Si O2"
_cell_formula_units_Z 88
_cell_length_a 8.970780
_cell_length_b 17.987344
_cell_length_c 28.953905
_cell_angle_alpha 90.000000
_cell_angle_beta 90.000000
_cell_angle_gamma 90.000000
_cell_volume 4672.016756
_symmetry_space_group_name_H-M "I M M M"
_symmetry_group_IT_number 71
_symmetry_cell_setting 'orthorhombic'
loop_
_space_group_symop_operation_xyz
x,y,z
-x,-y,z
x,-y,-z
-x,y,-z
-x,-y,-z
x,y,-z
-x,y,z
x,-y,z
1/2+x,1/2+y,1/2+z
1/2-x,1/2-y,1/2+z
1/2+x,1/2-y,1/2-z
1/2-x,1/2+y,1/2-z
1/2-x,1/2-y,1/2-z
1/2+x,1/2+y,1/2-z
1/2-x,1/2+y,1/2+z
1/2+x,1/2-y,1/2+z
loop_
_atom_site_type_symbol
_atom_site_label
_atom_site_fract_x
_atom_site_fract_y
_atom_site_fract_z
Si Si1 0.822992 0.145402 0.103872
Si Si2 0.827519 0.414864 0.123634
Si Si3 0.677014 0.500000 0.551143
Si Si4 0.325937 0.173813 0.802249
Si Si5 0.673949 0.345648 0.209364
Si Si6 0.823106 0.707426 0.948114
O O1 0.766172 0.073766 0.076320
O O2 0.750169 0.137419 0.153723
O O3 0.764075 0.218122 0.076814
O O4 0.000000 0.148057 0.109608
O O5 0.803981 0.500000 0.108611
O O6 0.734443 0.399215 0.169626
O O7 0.769454 0.363808 0.081429
O O8 0.000000 0.397203 0.134348
O O9 0.500000 0.500000 0.549122
O O10 0.745287 0.500000 0.500000
O O11 0.500000 0.157140 0.802436
O O12 0.290049 0.261153 0.804137
O O13 0.256237 0.135251 0.757110
O O14 0.500000 0.359971 0.216168
O O15 0.000000 0.709791 0.951229
O O16 0.756133 0.702199 0.000000
#
# Coordination Sequence:
#
# PCOD8287972 Si02
#       6
#    16  16   8  16  16  16
#     4  10  18  32  55  80 109 142 179 222 268 323
#     4  10  20  34  53  79 112 145 180 225 271 316
#     4   9  18  32  53  83 113 141 179 227 272 315
#     4  10  20  34  56  82 108 138 177 224 272 323
#     4  10  20  35  56  80 106 139 180 223 268 323
#     4   9  17  30  52  80 107 139 179 221 266 317
#
# _framework density 18.835549
#
# number of rings (size 3 to 8) (size 9 to 14) (size 15 to 20)
#    0.000    2.273    1.818    1.636    0.000    4.364 
#    1.636    2.273    0.000    4.364    0.000    1.273 
#    0.000    0.000    0.000    0.000    0.000    0.000 
#
# Total GULP energy -545702.855959 kJ/mol
# GULP energy per Si atom -12402.337635 kJ/mol
# Density = 1.879268 g / cm^3
# Si number density = 18.835549 Si / 1000 Ang^3
#
#
#
# Elastic Constant Matrix: (Units=GPa)
#
#
# Indices 1 2 3 4 5 6 
#
# 1 48.2590 29.4869 41.5267 0.0000 0.0000 0.0000
# 2 29.4869 124.3966 74.8618 0.0000 0.0000 0.0000
# 3 41.5267 74.8618 182.2127 0.0000 0.0000 0.0000
# 4 0.0000 0.0000 0.0000 29.2239 0.0000 0.0000
# 5 0.0000 0.0000 0.0000 0.0000 25.6397 0.0000
# 6 0.0000 0.0000 0.0000 0.0000 0.0000 15.6258
#
#
#
# Elastic Compliance Matrix: (Units=1/GPa)
#
#
# Indices 1 2 3 4 5 6 
#
# 1 0.026921 -0.003572 -0.004668 0.000000 0.000000 0.000000
# 2 -0.003572 0.011153 -0.003768 0.000000 0.000000 0.000000
# 3 -0.004668 -0.003768 0.008100 0.000000 0.000000 0.000000
# 4 0.000000 0.000000 0.000000 0.034219 0.000000 0.000000
# 5 0.000000 0.000000 0.000000 0.000000 0.039002 0.000000
# 6 0.000000 0.000000 0.000000 0.000000 0.000000 0.063997
#
#
# Mechanical properties :
#
#
# Convention : Reuss Voigt Hill
#
# Bulk Modulus (GPa) = 45.13081 71.84659 58.48870
# Shear Modulus (GPa) = 23.27817 28.03073 25.65445
#
# Velocity S-wave (km/s) = 3.51930 3.86188 3.69456
# Velocity P-wave (km/s) = 6.36604 7.62315 7.02278
#
# Compressibility (1/GPa) = 0.02215781
#
# Stress axis : x y z
#
# Youngs Moduli (GPa) = 37.14607 89.65982 123.45683
#
# Poissons Ratio (x) = 0.32029 0.57625
# Poissons Ratio (y) = 0.13270 0.46521
# Poissons Ratio (z) = 0.17338 0.33785
#
# Static dielectric constant tensor:
#      x y z
#    x 3.108130 0.000000 0.000000 
#    y 0.000000 3.429850 0.000000 
#    z 0.000000 0.000000 3.622280 
# 
# 
# High freq. dielectric constant tensor:
#      x y z
#    x 1.698990 0.000000 0.000000 
#    y 0.000000 1.724650 0.000000 
#    z 0.000000 0.000000 1.745600 
# 
# From -- ./inp_files/8820.got.cif
#   From: 2010.06.25/outbox.cif.g09.slc.cpg/sg71_5_cif.got.tgz:8820.got - 2010.06.28 04:59:45.
