data_PCOD8287138
_publ_section_title
;
Structure prediction by ZEFSAII (Michael W. Deem and Ramdas Pophale) SiO2 
 PCOD8287138
Probable space group: I M M M
;
_chemical_formula_sum "Si O2"
_cell_formula_units_Z 88
_cell_length_a 27.850047
_cell_length_b 19.409904
_cell_length_c 8.868095
_cell_angle_alpha 90.000000
_cell_angle_beta 90.000000
_cell_angle_gamma 90.000000
_cell_volume 4793.797192
_symmetry_space_group_name_H-M "I M M M"
_symmetry_group_IT_number 71
_symmetry_cell_setting 'orthorhombic'
loop_
_space_group_symop_operation_xyz
x,y,z
-x,-y,z
x,-y,-z
-x,y,-z
-x,-y,-z
x,y,-z
-x,y,z
x,-y,z
1/2+x,1/2+y,1/2+z
1/2-x,1/2-y,1/2+z
1/2+x,1/2-y,1/2-z
1/2-x,1/2+y,1/2-z
1/2-x,1/2-y,1/2-z
1/2+x,1/2+y,1/2-z
1/2-x,1/2+y,1/2+z
1/2+x,1/2-y,1/2+z
loop_
_atom_site_type_symbol
_atom_site_label
_atom_site_fract_x
_atom_site_fract_y
_atom_site_fract_z
Si Si1 0.681201 0.149041 0.180393
Si Si2 0.444291 0.357553 0.824994
Si Si3 0.365172 0.273282 0.678181
Si Si4 0.721201 0.652114 0.834154
Si Si5 0.209066 0.000000 0.728316
Si Si6 0.191147 0.500000 0.335966
Si Si7 0.395516 0.500000 0.176812
O O1 0.640141 0.197343 0.249201
O O2 0.732433 0.176676 0.240205
O O3 0.673395 0.070691 0.243719
O O4 0.681006 0.150761 0.000000
O O5 0.500000 0.351508 0.786370
O O6 0.417304 0.301316 0.723636
O O7 0.427137 0.434007 0.781888
O O8 0.433737 0.342302 0.000000
O O9 0.360116 0.268343 0.500000
O O10 0.325800 0.325171 0.744324
O O11 0.718657 0.570080 0.863754
O O12 0.722371 0.687329 0.000000
O O13 0.250324 0.000000 0.857340
O O14 0.153080 0.000000 0.779131
O O15 0.167850 0.500000 0.500000
O O16 0.380444 0.500000 0.000000
#
# Coordination Sequence:
#
# PCOD8287138 Si02
#       7
#    16  16  16  16   8   8   8
#     4  10  20  36  55  78 106 137 172 213 263 318
#     4  10  21  38  59  80 103 136 180 229 275 317
#     4  12  24  36  51  74 105 141 178 218 265 316
#     4  11  20  33  51  75 106 141 182 223 262 309
#     4  10  18  29  50  76 106 143 184 223 262 307
#     4   8  18  34  53  77 108 137 171 214 260 312
#     4  10  17  32  54  79 104 135 182 228 269 310
#
# _framework density 18.357054999999999
#
# number of rings (size 3 to 8) (size 9 to 14) (size 15 to 20)
#    0.000    1.636    1.818    4.364    0.000    2.182 
#    0.000    1.818    0.000    1.091    0.000    0.636 
#    0.000    5.091    0.000    0.000    0.000    0.000 
#
# Total GULP energy -545310.704693 kJ/mol
# GULP energy per Si atom -12393.425107 kJ/mol
# Density = 1.831527 g / cm^3
# Si number density = 18.357055 Si / 1000 Ang^3
#
#
#
# Elastic Constant Matrix: (Units=GPa)
#
#
# Indices 1 2 3 4 5 6 
#
# 1 88.4103 54.1793 35.3969 0.0000 0.0000 0.0000
# 2 54.1793 128.4278 41.0652 0.0000 0.0000 0.0000
# 3 35.3969 41.0652 99.5682 0.0000 0.0000 0.0000
# 4 0.0000 0.0000 0.0000 16.1523 0.0000 0.0000
# 5 0.0000 0.0000 0.0000 0.0000 25.0837 0.0000
# 6 0.0000 0.0000 0.0000 0.0000 0.0000 27.2793
#
#
#
# Elastic Compliance Matrix: (Units=1/GPa)
#
#
# Indices 1 2 3 4 5 6 
#
# 1 0.016188 -0.005747 -0.003385 0.000000 0.000000 0.000000
# 2 -0.005747 0.011009 -0.002498 0.000000 0.000000 0.000000
# 3 -0.003385 -0.002498 0.012277 0.000000 0.000000 0.000000
# 4 0.000000 0.000000 0.000000 0.061911 0.000000 0.000000
# 5 0.000000 0.000000 0.000000 0.000000 0.039867 0.000000
# 6 0.000000 0.000000 0.000000 0.000000 0.000000 0.036658
#
#
# Mechanical properties :
#
#
# Convention : Reuss Voigt Hill
#
# Bulk Modulus (GPa) = 61.66839 64.18769 62.92804
# Shear Modulus (GPa) = 24.20458 26.08738 25.14598
#
# Velocity S-wave (km/s) = 3.63511 3.77385 3.70513
# Velocity P-wave (km/s) = 7.16139 7.35060 7.25661
#
# Compressibility (1/GPa) = 0.01621576
#
# Stress axis : x y z
#
# Youngs Moduli (GPa) = 61.77507 90.83065 81.45487
#
# Poissons Ratio (x) = 0.52199 0.27569
# Poissons Ratio (y) = 0.35501 0.20345
# Poissons Ratio (z) = 0.20909 0.22686
#
# Static dielectric constant tensor:
#      x y z
#    x 3.154220 0.000000 0.000000 
#    y 0.000000 3.670240 0.000000 
#    z 0.000000 0.000000 3.200030 
# 
# 
# High freq. dielectric constant tensor:
#      x y z
#    x 1.675740 0.000000 0.000000 
#    y 0.000000 1.724650 0.000000 
#    z 0.000000 0.000000 1.699250 
# 
# From -- ./inp_files/12596.got.cif
#   From: 2010.06.25/outbox.cif.g09.slc.cpg/sg71_7_cif.got.tgz:12596.got - 2010.06.28 04:59:45.
