data_PCOD8287470
_publ_section_title
;
Structure prediction by ZEFSAII (Michael W. Deem and Ramdas Pophale) SiO2 
 PCOD8287470
Probable space group: I M M M
;
_chemical_formula_sum "Si O2"
_cell_formula_units_Z 80
_cell_length_a 16.443650
_cell_length_b 26.557615
_cell_length_c 10.527811
_cell_angle_alpha 90.000000
_cell_angle_beta 90.000000
_cell_angle_gamma 90.000000
_cell_volume 4597.538500
_symmetry_space_group_name_H-M "I M M M"
_symmetry_group_IT_number 71
_symmetry_cell_setting 'orthorhombic'
loop_
_space_group_symop_operation_xyz
x,y,z
-x,-y,z
x,-y,-z
-x,y,-z
-x,-y,-z
x,y,-z
-x,y,z
x,-y,z
1/2+x,1/2+y,1/2+z
1/2-x,1/2-y,1/2+z
1/2+x,1/2-y,1/2-z
1/2-x,1/2+y,1/2-z
1/2-x,1/2-y,1/2-z
1/2+x,1/2+y,1/2-z
1/2-x,1/2+y,1/2+z
1/2+x,1/2-y,1/2+z
loop_
_atom_site_type_symbol
_atom_site_label
_atom_site_fract_x
_atom_site_fract_y
_atom_site_fract_z
Si Si1 0.500000 0.942461 0.150417
Si Si2 0.087280 0.146325 0.856928
Si Si3 0.826258 0.941649 0.243009
Si Si4 0.242039 0.794455 0.149822
Si Si5 0.408535 0.559520 0.000000
Si Si6 0.831472 0.395285 0.647940
O O1 0.421070 0.911025 0.196971
O O2 0.500000 0.000000 0.204576
O O3 0.500000 0.945063 0.000000
O O4 0.118732 0.088725 0.856840
O O5 0.157343 0.181733 0.801355
O O6 0.000000 0.152318 0.784841
O O7 0.073520 0.162584 0.000000
O O8 0.856979 0.922176 0.379676
O O9 0.731227 0.929165 0.227776
O O10 0.842344 0.000000 0.220545
O O11 0.250000 0.750000 0.250000
O O12 0.314114 0.835693 0.168622
O O13 0.240113 0.777586 0.000000
O O14 0.415423 0.500000 0.000000
O O15 0.500000 0.582669 0.000000
O O16 0.820142 0.408872 0.500000
#
# Coordination Sequence:
#
# PCOD8287470 Si02
#       6
#     8  16  16  16   8  16
#     4   9  16  28  50  79 109 139 167 202 258 321
#     4   9  18  32  49  71  99 127 155 196 251 301
#     4  10  18  29  47  70  99 135 170 201 238 291
#     4   9  18  35  54  73  99 130 166 212 262 308
#     4   9  18  30  42  61  93 135 175 206 240 282
#     4   9  18  32  50  76 106 132 163 210 259 304
#
# _framework density 17.400614000000001
#
# number of rings (size 3 to 8) (size 9 to 14) (size 15 to 20)
#    0.000    2.800    0.000    3.000    0.000    3.600 
#    9.000    1.000    0.000    0.600    0.000    2.800 
#    0.000    0.000    0.000    0.000    0.000    0.000 
#
# Total GULP energy -495548.908132 kJ/mol
# GULP energy per Si atom -12388.722703 kJ/mol
# Density = 1.736101 g / cm^3
# Si number density = 17.400614 Si / 1000 Ang^3
#
#
#
# Elastic Constant Matrix: (Units=GPa)
#
#
# Indices 1 2 3 4 5 6 
#
# 1 173.9599 64.8375 40.5411 -0.0001 -0.0001 0.0000
# 2 64.8375 111.0460 38.9560 -0.0002 0.0000 0.0000
# 3 40.5411 38.9560 52.8230 -0.0043 -0.0010 -0.0002
# 4 -0.0001 -0.0002 -0.0043 27.0791 -0.0004 -0.0001
# 5 -0.0001 0.0000 -0.0010 -0.0004 19.1170 -0.0001
# 6 0.0000 0.0000 -0.0002 -0.0001 -0.0001 16.8813
#
#
#
# Elastic Compliance Matrix: (Units=1/GPa)
#
#
# Indices 1 2 3 4 5 6 
#
# 1 0.007812 -0.003316 -0.003550 -0.000001 0.000000 0.000000
# 2 -0.003316 0.013556 -0.007452 -0.000001 0.000000 0.000000
# 3 -0.003550 -0.007452 0.027152 0.000004 0.000001 0.000000
# 4 -0.000001 -0.000001 0.000004 0.036929 0.000001 0.000000
# 5 0.000000 0.000000 0.000001 0.000001 0.052310 0.000000
# 6 0.000000 0.000000 0.000000 0.000000 0.000000 0.059237
#
#
# Mechanical properties :
#
#
# Convention : Reuss Voigt Hill
#
# Bulk Modulus (GPa) = 50.29454 69.61091 59.95272
# Shear Modulus (GPa) = 21.52782 25.51511 23.52147
#
# Velocity S-wave (km/s) = 3.52118 3.83343 3.68062
# Velocity P-wave (km/s) = 6.74524 7.72562 7.25202
#
# Compressibility (1/GPa) = 0.01988287
#
# Stress axis : x y z
#
# Youngs Moduli (GPa) = 128.01510 73.77074 36.83014
#
# Poissons Ratio (x) = 0.24460 0.13075
# Poissons Ratio (y) = 0.42445 0.27447
# Poissons Ratio (z) = 0.45447 0.54976
#
# Static dielectric constant tensor:
#      x y z
#    x 3.842200 0.000000 0.000000 
#    y 0.000000 3.067910 0.000000 
#    z 0.000000 0.000000 3.097330 
# 
# 
# High freq. dielectric constant tensor:
#      x y z
#    x 1.683820 0.000000 0.000000 
#    y 0.000000 1.655840 0.000000 
#    z 0.000000 0.000000 1.642560 
# 
# From -- ./inp_files/8444.got.cif
#   From: 2010.06.25/outbox.cif.g09.slc.cpg/sg71_5_cif.got.tgz:8444.got - 2010.06.28 04:59:45.
