data_PCOD8287671
_publ_section_title
;
Structure prediction by ZEFSAII (Michael W. Deem and Ramdas Pophale) SiO2 
 PCOD8287671
Probable space group: I M M M
;
_chemical_formula_sum "Si O2"
_cell_formula_units_Z 72
_cell_length_a 23.865384
_cell_length_b 18.093064
_cell_length_c 8.838517
_cell_angle_alpha 90.000000
_cell_angle_beta 90.000000
_cell_angle_gamma 90.000000
_cell_volume 3816.453257
_symmetry_space_group_name_H-M "I M M M"
_symmetry_group_IT_number 71
_symmetry_cell_setting 'orthorhombic'
loop_
_space_group_symop_operation_xyz
x,y,z
-x,-y,z
x,-y,-z
-x,y,-z
-x,-y,-z
x,y,-z
-x,y,z
x,-y,z
1/2+x,1/2+y,1/2+z
1/2-x,1/2-y,1/2+z
1/2+x,1/2-y,1/2-z
1/2-x,1/2+y,1/2-z
1/2-x,1/2-y,1/2-z
1/2+x,1/2+y,1/2-z
1/2-x,1/2+y,1/2+z
1/2+x,1/2-y,1/2+z
loop_
_atom_site_type_symbol
_atom_site_label
_atom_site_fract_x
_atom_site_fract_y
_atom_site_fract_z
Si Si1 0.239232 0.082227 0.820595
Si Si2 0.436595 0.783693 0.179830
Si Si3 0.062683 0.000000 0.179560
Si Si4 0.363162 0.917367 0.179943
Si Si5 0.374525 0.646381 0.679294
O O1 0.300905 0.107587 0.764319
O O2 0.190571 0.138767 0.768389
O O3 0.226330 0.000000 0.757342
O O4 0.238286 0.077896 0.000000
O O5 0.500000 0.779460 0.242231
O O6 0.408686 0.859379 0.242320
O O7 0.400678 0.716003 0.239026
O O8 0.436002 0.782284 0.000000
O O9 0.093735 0.073256 0.237411
O O10 0.000000 0.000000 0.246129
O O11 0.062172 0.000000 0.000000
O O12 0.377188 0.000000 0.240541
O O13 0.364345 0.918323 0.000000
O O14 0.380613 0.656418 0.500000
#
# Coordination Sequence:
#
# PCOD8287671 Si02
#       5
#    16  16   8  16  16
#     4   8  13  25  47  74  97 116 151 201 240 272
#     4  10  21  34  46  67 100 130 158 195 236 279
#     4   9  16  26  43  67  91 119 158 194 220 259
#     4   8  15  29  50  72  93 121 157 198 241 281
#     4  10  18  30  50  73  95 123 158 196 236 278
#
# _framework density 18.865683000000001
#
# number of rings (size 3 to 8) (size 9 to 14) (size 15 to 20)
#    0.000    3.000    1.111    2.000    0.000    2.667 
#    0.000    2.778    0.000    2.667    0.000    4.667 
#    0.000    0.000    0.000    0.000    0.000    0.000 
#
# Total GULP energy -446127.138649 kJ/mol
# GULP energy per Si atom -12392.420518 kJ/mol
# Density = 1.882274 g / cm^3
# Si number density = 18.865683 Si / 1000 Ang^3
#
#
#
# Elastic Constant Matrix: (Units=GPa)
#
#
# Indices 1 2 3 4 5 6 
#
# 1 139.1784 85.0665 14.8895 0.0000 0.0000 0.0000
# 2 85.0665 145.3175 12.9258 0.0000 0.0000 0.0000
# 3 14.8895 12.9258 6.9948 0.0000 0.0000 0.0000
# 4 0.0000 0.0000 0.0000 21.0562 0.0000 0.0000
# 5 0.0000 0.0000 0.0000 0.0000 15.0714 0.0000
# 6 0.0000 0.0000 0.0000 0.0000 0.0000 36.6452
#
#
#
# Elastic Compliance Matrix: (Units=1/GPa)
#
#
# Indices 1 2 3 4 5 6 
#
# 1 0.012468 -0.005909 -0.015620 0.000000 0.000000 0.000000
# 2 -0.005909 0.011036 -0.007815 0.000000 0.000000 0.000000
# 3 -0.015620 -0.007815 0.190653 0.000000 0.000000 0.000000
# 4 0.000000 0.000000 0.000000 0.047492 0.000000 0.000000
# 5 0.000000 0.000000 0.000000 0.000000 0.066351 0.000000
# 6 0.000000 0.000000 0.000000 0.000000 0.000000 0.027289
#
#
# Mechanical properties :
#
#
# Convention : Reuss Voigt Hill
#
# Bulk Modulus (GPa) = 6.43214 57.47268 31.95241
# Shear Modulus (GPa) = 10.73427 26.46184 18.59805
#
# Velocity S-wave (km/s) = 2.38793 3.74925 3.14317
# Velocity P-wave (km/s) = 3.31960 7.01946 5.49056
#
# Compressibility (1/GPa) = 0.15546929
#
# Stress axis : x y z
#
# Youngs Moduli (GPa) = 80.20738 90.61568 5.24513
#
# Poissons Ratio (x) = 0.53545 0.08193
# Poissons Ratio (y) = 0.47395 0.04099
# Poissons Ratio (z) = 1.25284 0.70813
#
# Static dielectric constant tensor:
#      x y z
#    x 4.013940 0.000000 0.000000 
#    y 0.000000 3.591640 0.000000 
#    z 0.000000 0.000000 2.792330 
# 
# 
# High freq. dielectric constant tensor:
#      x y z
#    x 1.751590 0.000000 0.000000 
#    y 0.000000 1.732680 0.000000 
#    z 0.000000 0.000000 1.662220 
# 
# From -- ./inp_files/12165.got.cif
#   From: 2010.06.25/outbox.cif.g09.slc.cpg/sg71_7_cif.got.tgz:12165.got - 2010.06.28 04:59:45.
