data_PCOD8287806
_publ_section_title
;
Structure prediction by ZEFSAII (Michael W. Deem and Ramdas Pophale) SiO2 
 PCOD8287806
Probable space group: I M M M
;
_chemical_formula_sum "Si O2"
_cell_formula_units_Z 72
_cell_length_a 14.201208
_cell_length_b 29.214469
_cell_length_c 9.038197
_cell_angle_alpha 90.000000
_cell_angle_beta 90.000000
_cell_angle_gamma 90.000000
_cell_volume 3749.773958
_symmetry_space_group_name_H-M "I M M M"
_symmetry_group_IT_number 71
_symmetry_cell_setting 'orthorhombic'
loop_
_space_group_symop_operation_xyz
x,y,z
-x,-y,z
x,-y,-z
-x,y,-z
-x,-y,-z
x,y,-z
-x,y,z
x,-y,z
1/2+x,1/2+y,1/2+z
1/2-x,1/2-y,1/2+z
1/2+x,1/2-y,1/2-z
1/2-x,1/2+y,1/2-z
1/2-x,1/2-y,1/2-z
1/2+x,1/2+y,1/2-z
1/2-x,1/2+y,1/2+z
1/2+x,1/2-y,1/2+z
loop_
_atom_site_type_symbol
_atom_site_label
_atom_site_fract_x
_atom_site_fract_y
_atom_site_fract_z
Si Si1 0.278345 0.682022 0.172701
Si Si2 0.891314 0.272595 0.672953
Si Si3 0.898100 0.550854 0.675219
Si Si4 0.791571 0.091211 0.824887
Si Si5 0.894374 0.000000 0.175716
O O1 0.175442 0.691526 0.242665
O O2 0.352791 0.721953 0.207607
O O3 0.326173 0.636942 0.243664
O O4 0.263802 0.674766 0.000000
O O5 0.884197 0.283945 0.500000
O O6 0.000000 0.276412 0.726908
O O7 0.894909 0.546595 0.500000
O O8 0.880934 0.500000 0.741017
O O9 0.817056 0.585286 0.725737
O O10 0.000000 0.569799 0.727845
O O11 0.846076 0.046402 0.765497
O O12 0.805037 0.097220 0.000000
O O13 0.000000 0.000000 0.235398
O O14 0.888241 0.000000 0.000000
#
# Coordination Sequence:
#
# PCOD8287806 Si02
#       5
#    16  16  16  16   8
#     4  10  21  35  53  81 111 137 169 217 272 321
#     4   9  19  38  60  78 101 137 179 218 258 315
#     4   8  13  23  42  67  91 119 162 211 249 284
#     4  10  18  31  51  74 102 138 178 218 258 307
#     4   9  18  32  50  74 104 139 183 230 262 289
#
# _framework density 19.201158
#
# number of rings (size 3 to 8) (size 9 to 14) (size 15 to 20)
#    0.000    2.778    1.111    1.333    0.000    3.111 
#    0.000    2.778    0.000    0.667    0.000    1.556 
#    0.000    0.000    0.000    0.000    0.000    0.000 
#
# Total GULP energy -446192.456201 kJ/mol
# GULP energy per Si atom -12394.234894 kJ/mol
# Density = 1.915746 g / cm^3
# Si number density = 19.201158 Si / 1000 Ang^3
#
#
#
# Elastic Constant Matrix: (Units=GPa)
#
#
# Indices 1 2 3 4 5 6 
#
# 1 105.5224 41.2280 28.3118 0.0004 0.0001 0.0000
# 2 41.2280 126.0601 39.4961 0.0011 -0.0005 -0.0001
# 3 28.3118 39.4961 41.7460 0.0056 -0.0033 -0.0010
# 4 0.0004 0.0011 0.0056 26.9998 -0.0012 -0.0002
# 5 0.0001 -0.0005 -0.0033 -0.0012 16.5423 0.0002
# 6 0.0000 -0.0001 -0.0010 -0.0002 0.0002 16.5466
#
#
#
# Elastic Compliance Matrix: (Units=1/GPa)
#
#
# Indices 1 2 3 4 5 6 
#
# 1 0.011909 -0.001939 -0.006242 0.000001 -0.000001 0.000000
# 2 -0.001939 0.011591 -0.009651 0.000002 -0.000002 0.000000
# 3 -0.006242 -0.009651 0.037318 -0.000007 0.000007 0.000002
# 4 0.000001 0.000002 -0.000007 0.037037 0.000003 0.000000
# 5 -0.000001 -0.000002 0.000007 0.000003 0.060451 -0.000001
# 6 0.000000 0.000000 0.000002 0.000000 -0.000001 0.060435
#
#
# Mechanical properties :
#
#
# Convention : Reuss Voigt Hill
#
# Bulk Modulus (GPa) = 39.75492 54.60002 47.17747
# Shear Modulus (GPa) = 19.02659 22.97060 20.99859
#
# Velocity S-wave (km/s) = 3.15128 3.46253 3.31057
# Velocity P-wave (km/s) = 5.83011 6.66956 6.26391
#
# Compressibility (1/GPa) = 0.02515412
#
# Stress axis : x y z
#
# Youngs Moduli (GPa) = 83.96996 86.27644 26.79648
#
# Poissons Ratio (x) = 0.16731 0.16726
# Poissons Ratio (y) = 0.16283 0.25861
# Poissons Ratio (z) = 0.52413 0.83264
#
# Static dielectric constant tensor:
#      x y z
#    x 3.794420 0.000000 0.000000 
#    y 0.000000 3.533930 0.000000 
#    z 0.000000 0.000000 3.042240 
# 
# 
# High freq. dielectric constant tensor:
#      x y z
#    x 1.749430 0.000000 0.000000 
#    y 0.000000 1.751570 0.000000 
#    z 0.000000 0.000000 1.697470 
# 
# From -- ./inp_files/6071.got.cif
#   From: 2010.06.25/outbox.cif.g09.slc.cpg/sg71_4_cif.got.tgz:6071.got - 2010.06.28 04:59:45.
