data_PCOD8287500
_publ_section_title
;
Structure prediction by ZEFSAII (Michael W. Deem and Ramdas Pophale) SiO2 
 PCOD8287500
Probable space group: I M M M
;
_chemical_formula_sum "Si O2"
_cell_formula_units_Z 120
_cell_length_a 27.627484
_cell_length_b 9.190001
_cell_length_c 27.959304
_cell_angle_alpha 90.000000
_cell_angle_beta 90.000000
_cell_angle_gamma 90.000000
_cell_volume 7098.772380
_symmetry_space_group_name_H-M "I M M M"
_symmetry_group_IT_number 71
_symmetry_cell_setting 'orthorhombic'
loop_
_space_group_symop_operation_xyz
x,y,z
-x,-y,z
x,-y,-z
-x,y,-z
-x,-y,-z
x,y,-z
-x,y,z
x,-y,z
1/2+x,1/2+y,1/2+z
1/2-x,1/2-y,1/2+z
1/2+x,1/2-y,1/2-z
1/2-x,1/2+y,1/2-z
1/2-x,1/2-y,1/2-z
1/2+x,1/2+y,1/2-z
1/2-x,1/2+y,1/2+z
1/2+x,1/2-y,1/2+z
loop_
_atom_site_type_symbol
_atom_site_label
_atom_site_fract_x
_atom_site_fract_y
_atom_site_fract_z
Si Si1 0.445775 0.172758 0.053596
Si Si2 0.056288 0.665037 0.732741
Si Si3 0.702077 0.334378 0.702904
Si Si4 0.442189 0.336389 0.500000
Si Si5 0.381514 0.831535 0.859983
Si Si6 0.295301 0.670845 0.187631
Si Si7 0.404739 0.666791 0.679294
Si Si8 0.057044 0.337894 0.090522
O O1 0.500000 0.232675 0.064757
O O2 0.406368 0.231635 0.091666
O O3 0.447407 0.000000 0.057646
O O4 0.430097 0.220725 0.000000
O O5 0.065508 0.500000 0.750769
O O6 0.079440 0.691129 0.681376
O O7 0.079708 0.778305 0.768934
O O8 0.000000 0.698219 0.727758
O O9 0.721191 0.500000 0.702368
O O10 0.691474 0.287180 0.757737
O O11 0.741590 0.232473 0.677511
O O12 0.652862 0.317635 0.673140
O O13 0.421683 0.500000 0.500000
O O14 0.500000 0.337846 0.500000
O O15 0.421410 0.254638 0.546587
O O16 0.332941 0.742692 0.848884
O O17 0.366983 0.000000 0.865595
O O18 0.295600 0.500000 0.178477
O O19 0.421132 0.500000 0.673788
O O20 0.431137 0.761924 0.640019
O O21 0.079497 0.500000 0.089507
O O22 0.000000 0.348000 0.085038
#
# Coordination Sequence:
#
# PCOD8287500 Si02
#       8
#    16  16  16   8  16  16  16  16
#     4   8  14  26  46  73 102 131 168 212 251 290
#     4  10  20  31  43  64  97 134 167 196 231 283
#     4   9  19  34  49  68  95 125 160 201 242 288
#     4   9  17  31  51  73  95 123 163 205 241 275
#     4  10  18  29  48  72  98 129 164 204 249 293
#     4  10  19  32  50  71  95 123 159 200 244 292
#     4  11  21  33  48  69  97 128 162 199 242 291
#     4  10  20  33  49  71 100 132 165 200 238 284
#
# _framework density 16.904330999999999
#
# number of rings (size 3 to 8) (size 9 to 14) (size 15 to 20)
#    0.000    2.333    1.333    2.600    0.000    6.667 
#    0.000    0.000    0.000    1.600    1.733    0.933 
#    0.000    0.000    0.000    0.000    0.000    0.000 
#
# Total GULP energy -743987.808442 kJ/mol
# GULP energy per Si atom -12399.796807 kJ/mol
# Density = 1.686586 g / cm^3
# Si number density = 16.904331 Si / 1000 Ang^3
#
#
#
# Elastic Constant Matrix: (Units=GPa)
#
#
# Indices 1 2 3 4 5 6 
#
# 1 63.1114 36.3335 41.5580 0.0000 0.0000 0.0000
# 2 36.3335 97.4286 45.1836 0.0000 0.0000 0.0000
# 3 41.5580 45.1836 92.2376 0.0000 0.0000 0.0000
# 4 0.0000 0.0000 0.0000 80.1840 0.0000 0.0000
# 5 0.0000 0.0000 0.0000 0.0000 18.6443 0.0000
# 6 0.0000 0.0000 0.0000 0.0000 0.0000 22.5960
#
#
#
# Elastic Compliance Matrix: (Units=1/GPa)
#
#
# Indices 1 2 3 4 5 6 
#
# 1 0.024392 -0.005175 -0.008455 0.000000 0.000000 0.000000
# 2 -0.005175 0.014379 -0.004712 0.000000 0.000000 0.000000
# 3 -0.008455 -0.004712 0.016959 0.000000 0.000000 0.000000
# 4 0.000000 0.000000 0.000000 0.012471 0.000000 0.000000
# 5 0.000000 0.000000 0.000000 0.000000 0.053636 0.000000
# 6 0.000000 0.000000 0.000000 0.000000 0.000000 0.044256
#
#
# Mechanical properties :
#
#
# Convention : Reuss Voigt Hill
#
# Bulk Modulus (GPa) = 52.50440 55.43642 53.97041
# Shear Modulus (GPa) = 23.90913 32.93169 28.42041
#
# Velocity S-wave (km/s) = 3.76490 4.41854 4.10475
# Velocity P-wave (km/s) = 7.07294 7.67442 7.37981
#
# Compressibility (1/GPa) = 0.01904602
#
# Stress axis : x y z
#
# Youngs Moduli (GPa) = 40.99760 69.54494 58.96555
#
# Poissons Ratio (x) = 0.35992 0.49853
# Poissons Ratio (y) = 0.21218 0.27785
# Poissons Ratio (z) = 0.34662 0.32770
#
# Static dielectric constant tensor:
#      x y z
#    x 3.070660 0.000000 0.000000 
#    y 0.000000 3.178160 0.000000 
#    z 0.000000 0.000000 3.139840 
# 
# 
# High freq. dielectric constant tensor:
#      x y z
#    x 1.635590 0.000000 0.000000 
#    y 0.000000 1.647610 0.000000 
#    z 0.000000 0.000000 1.637280 
# 
# From -- ./inp_files/67157.got.cif
#   From: 2010.06.25/outbox.cif.g09.slc.cpg/sg71_34_cif.got.tgz:67157.got - 2010.06.28 04:59:45.
