data_PCOD8287997
_publ_section_title
;
Structure prediction by ZEFSAII (Michael W. Deem and Ramdas Pophale) SiO2 
 PCOD8287997
Probable space group: I M M M
;
_chemical_formula_sum "Si O2"
_cell_formula_units_Z 88
_cell_length_a 21.298955
_cell_length_b 9.564213
_cell_length_c 22.342569
_cell_angle_alpha 90.000000
_cell_angle_beta 90.000000
_cell_angle_gamma 90.000000
_cell_volume 4551.354288
_symmetry_space_group_name_H-M "I M M M"
_symmetry_group_IT_number 71
_symmetry_cell_setting 'orthorhombic'
loop_
_space_group_symop_operation_xyz
x,y,z
-x,-y,z
x,-y,-z
-x,y,-z
-x,-y,-z
x,y,-z
-x,y,z
x,-y,z
1/2+x,1/2+y,1/2+z
1/2-x,1/2-y,1/2+z
1/2+x,1/2-y,1/2-z
1/2-x,1/2+y,1/2-z
1/2-x,1/2-y,1/2-z
1/2+x,1/2+y,1/2-z
1/2-x,1/2+y,1/2+z
1/2+x,1/2-y,1/2+z
loop_
_atom_site_type_symbol
_atom_site_label
_atom_site_fract_x
_atom_site_fract_y
_atom_site_fract_z
Si Si1 0.252385 0.659022 0.566631
Si Si2 0.183587 0.670289 0.242961
Si Si3 0.624570 0.339061 0.363951
Si Si4 0.637363 0.245436 0.131917
Si Si5 0.000000 0.834605 0.067898
Si Si6 0.425378 0.500000 0.930010
Si Si7 0.426194 0.000000 0.934001
O O1 0.244844 0.717339 0.500000
O O2 0.227715 0.500000 0.572058
O O3 0.324804 0.667166 0.583406
O O4 0.209761 0.751864 0.610194
O O5 0.192941 0.500000 0.239950
O O6 0.250000 0.750000 0.250000
O O7 0.145753 0.729062 0.186291
O O8 0.138801 0.715339 0.297595
O O9 0.619348 0.500000 0.339418
O O10 0.560290 0.285554 0.393967
O O11 0.601166 0.379804 0.111217
O O12 0.595905 0.132109 0.100734
O O13 0.000000 0.000000 0.061967
O O14 0.000000 0.771146 0.000000
O O15 0.500000 0.500000 0.930014
O O16 0.402097 0.500000 0.000000
O O17 0.500000 0.000000 0.938886
O O18 0.395903 0.000000 0.000000
#
# Coordination Sequence:
#
# PCOD8287997 Si02
#       7
#    16  16  16  16   8   8   8
#     4  10  18  32  59  92 121 152 208 272 322 376
#     4  12  25  43  64  92 132 171 218 271 325 388
#     4  10  21  38  63  95 129 173 215 264 331 387
#     4  12  23  40  62  93 125 166 216 263 320 385
#     4   9  18  38  67 101 135 171 220 273 326 389
#     4  11  26  46  65  94 134 171 208 261 331 391
#     4  11  22  40  65  90 122 163 212 263 317 383
#
# _framework density 19.334903000000001
#
# number of rings (size 3 to 8) (size 9 to 14) (size 15 to 20)
#    0.000    1.182    3.636    3.273    2.545    3.636 
#    3.273    0.455    0.000    2.182    0.000    0.000 
#    0.000    0.000    0.000    0.000    0.000    0.000 
#
# Total GULP energy -545289.509645 kJ/mol
# GULP energy per Si atom -12392.943401 kJ/mol
# Density = 1.929090 g / cm^3
# Si number density = 19.334903 Si / 1000 Ang^3
#
#
#
# Elastic Constant Matrix: (Units=GPa)
#
#
# Indices 1 2 3 4 5 6 
#
# 1 113.3937 38.9276 45.3955 0.0000 0.0000 0.0000
# 2 38.9276 123.8387 50.6703 0.0000 0.0000 0.0000
# 3 45.3955 50.6703 133.8451 0.0000 0.0000 0.0000
# 4 0.0000 0.0000 0.0000 8.7995 0.0000 0.0000
# 5 0.0000 0.0000 0.0000 0.0000 -10.4221 0.0000
# 6 0.0000 0.0000 0.0000 0.0000 0.0000 37.3369
#
#
#
# Elastic Compliance Matrix: (Units=1/GPa)
#
#
# Indices 1 2 3 4 5 6 
#
# 1 0.010697 -0.002222 -0.002787 0.000000 0.000000 0.000000
# 2 -0.002222 0.010017 -0.003038 0.000000 0.000000 0.000000
# 3 -0.002787 -0.003038 0.009567 0.000000 0.000000 0.000000
# 4 0.000000 0.000000 0.000000 0.113643 0.000000 0.000000
# 5 0.000000 0.000000 0.000000 0.000000 -0.095950 0.000000
# 6 0.000000 0.000000 0.000000 0.000000 0.000000 0.026783
#
#
# Mechanical properties :
#
#
# Convention : Reuss Voigt Hill
#
# Bulk Modulus (GPa) = 70.49280 71.22935 70.86108
# Shear Modulus (GPa) = 52.31145 22.88179 37.59662
#
# Velocity S-wave (km/s) = 5.20713 3.44385 4.41443
# Velocity P-wave (km/s) = 8.52586 7.26177 7.91907
#
# Compressibility (1/GPa) = 0.01418585
#
# Stress axis : x y z
#
# Youngs Moduli (GPa) = 93.48037 99.83248 104.52847
#
# Poissons Ratio (x) = 0.22186 0.29131
# Poissons Ratio (y) = 0.20775 0.31759
# Poissons Ratio (z) = 0.26052 0.30333
#
# Static dielectric constant tensor:
#      x y z
#    x 3.690790 0.000000 0.000000 
#    y 0.000000 3.440660 0.000000 
#    z 0.000000 0.000000 4.464050 
# 
# 
# High freq. dielectric constant tensor:
#      x y z
#    x 1.762850 0.000000 0.000000 
#    y 0.000000 1.734780 0.000000 
#    z 0.000000 0.000000 1.763710 
# 
# From -- ./inp_files/61147.got.cif
#   From: 2010.06.25/outbox.cif.g09.slc.cpg/sg71_31_cif.got.tgz:61147.got - 2010.06.28 04:59:45.
