data_PCOD8287390
_publ_section_title
;
Structure prediction by ZEFSAII (Michael W. Deem and Ramdas Pophale) SiO2 
 PCOD8287390
Probable space group: I M M M
;
_chemical_formula_sum "Si O2"
_cell_formula_units_Z 120
_cell_length_a 28.179176
_cell_length_b 10.043994
_cell_length_c 27.246802
_cell_angle_alpha 90.000000
_cell_angle_beta 90.000000
_cell_angle_gamma 90.000000
_cell_volume 7711.702550
_symmetry_space_group_name_H-M "I M M M"
_symmetry_group_IT_number 71
_symmetry_cell_setting 'orthorhombic'
loop_
_space_group_symop_operation_xyz
x,y,z
-x,-y,z
x,-y,-z
-x,y,-z
-x,-y,-z
x,y,-z
-x,y,z
x,-y,z
1/2+x,1/2+y,1/2+z
1/2-x,1/2-y,1/2+z
1/2+x,1/2-y,1/2-z
1/2-x,1/2+y,1/2-z
1/2-x,1/2-y,1/2-z
1/2+x,1/2+y,1/2-z
1/2-x,1/2+y,1/2+z
1/2+x,1/2-y,1/2+z
loop_
_atom_site_type_symbol
_atom_site_label
_atom_site_fract_x
_atom_site_fract_y
_atom_site_fract_z
Si Si1 0.553077 0.646939 0.320900
Si Si2 0.052375 0.655663 0.731835
Si Si3 0.118595 0.283847 0.109462
Si Si4 0.649760 0.155619 0.799059
Si Si5 0.796706 0.154578 0.054588
Si Si6 0.813181 0.649082 0.193722
Si Si7 0.739418 0.156966 0.146872
Si Si8 0.444435 0.000000 0.558136
O O1 0.500000 0.658198 0.342272
O O2 0.561408 0.500000 0.297719
O O3 0.560675 0.760382 0.280632
O O4 0.589740 0.663691 0.365492
O O5 0.057434 0.500000 0.746305
O O6 0.094186 0.697164 0.693237
O O7 0.000000 0.684203 0.709064
O O8 0.155952 0.230725 0.069968
O O9 0.146508 0.361387 0.152184
O O10 0.080453 0.372350 0.081385
O O11 0.665115 0.201346 0.744788
O O12 0.685774 0.208901 0.841168
O O13 0.653539 0.000000 0.802468
O O14 0.752131 0.187226 0.090177
O O15 0.809107 0.000000 0.056451
O O16 0.781818 0.200277 0.000000
O O17 0.791225 0.500000 0.199149
O O18 0.773957 0.758687 0.181313
O O19 0.746441 0.000000 0.158749
O O20 0.500000 0.000000 0.572177
O O21 0.437160 0.000000 0.500000
#
# Coordination Sequence:
#
# PCOD8287390 Si02
#       8
#    16  16  16  16  16  16  16   8
#     4  10  20  31  44  65  90 115 148 187 223 263
#     4   9  17  29  46  65  90 123 153 178 211 255
#     4  11  19  32  48  63  83 113 146 184 232 267
#     4   9  16  28  43  65  92 116 143 176 213 257
#     4   9  18  32  49  66  82 106 144 185 225 270
#     4  10  18  29  44  64  89 112 142 178 213 266
#     4   9  18  30  46  64  88 115 141 177 220 263
#     4  11  24  36  46  64  86 112 154 200 236 270
#
# _framework density 15.560767
#
# number of rings (size 3 to 8) (size 9 to 14) (size 15 to 20)
#    0.000    2.333    2.000    1.600    0.933    0.533 
#    0.000    0.667    0.000    0.000    0.000    5.600 
#    0.000    0.533    0.000    7.467    0.000    0.000 
#
# Total GULP energy -743362.874548 kJ/mol
# GULP energy per Si atom -12389.381242 kJ/mol
# Density = 1.552535 g / cm^3
# Si number density = 15.560767 Si / 1000 Ang^3
#
#
#
# Elastic Constant Matrix: (Units=GPa)
#
#
# Indices 1 2 3 4 5 6 
#
# 1 141.5467 36.8600 66.5028 0.0000 0.0000 0.0000
# 2 36.8600 52.5053 19.2762 0.0000 0.0000 0.0000
# 3 66.5028 19.2762 71.3562 0.0000 0.0000 0.0000
# 4 0.0000 0.0000 0.0000 11.9513 0.0000 0.0000
# 5 0.0000 0.0000 0.0000 0.0000 24.8748 0.0000
# 6 0.0000 0.0000 0.0000 0.0000 0.0000 14.3042
#
#
#
# Elastic Compliance Matrix: (Units=1/GPa)
#
#
# Indices 1 2 3 4 5 6 
#
# 1 0.013885 -0.005547 -0.011442 0.000000 0.000000 0.000000
# 2 -0.005547 0.023358 -0.001140 0.000000 0.000000 0.000000
# 3 -0.011442 -0.001140 0.024986 0.000000 0.000000 0.000000
# 4 0.000000 0.000000 0.000000 0.083673 0.000000 0.000000
# 5 0.000000 0.000000 0.000000 0.000000 0.040201 0.000000
# 6 0.000000 0.000000 0.000000 0.000000 0.000000 0.069910
#
#
# Mechanical properties :
#
#
# Convention : Reuss Voigt Hill
#
# Bulk Modulus (GPa) = 38.50501 56.74291 47.62396
# Shear Modulus (GPa) = 16.61516 19.74401 18.17958
#
# Velocity S-wave (km/s) = 3.27120 3.56593 3.42174
# Velocity P-wave (km/s) = 6.25031 7.31430 6.80314
#
# Compressibility (1/GPa) = 0.02597065
#
# Stress axis : x y z
#
# Youngs Moduli (GPa) = 72.01894 42.81105 40.02191
#
# Poissons Ratio (x) = 0.23747 0.45794
# Poissons Ratio (y) = 0.39949 0.04564
# Poissons Ratio (z) = 0.82407 0.04882
#
# Static dielectric constant tensor:
#      x y z
#    x 3.376900 0.000000 0.000000 
#    y 0.000000 2.907120 0.000000 
#    z 0.000000 0.000000 2.944070 
# 
# 
# High freq. dielectric constant tensor:
#      x y z
#    x 1.602450 0.000000 0.000000 
#    y 0.000000 1.590840 0.000000 
#    z 0.000000 0.000000 1.560800 
# 
# From -- ./inp_files/67226.got.cif
#   From: 2010.06.25/outbox.cif.g09.slc.cpg/sg71_34_cif.got.tgz:67226.got - 2010.06.28 04:59:45.
