data_PCOD8287095
_publ_section_title
;
Structure prediction by ZEFSAII (Michael W. Deem and Ramdas Pophale) SiO2 
 PCOD8287095
Probable space group: I M M M
;
_chemical_formula_sum "Si O2"
_cell_formula_units_Z 104
_cell_length_a 25.026557
_cell_length_b 17.941162
_cell_length_c 13.825729
_cell_angle_alpha 90.000000
_cell_angle_beta 90.000000
_cell_angle_gamma 90.000000
_cell_volume 6207.828548
_symmetry_space_group_name_H-M "I M M M"
_symmetry_group_IT_number 71
_symmetry_cell_setting 'orthorhombic'
loop_
_space_group_symop_operation_xyz
x,y,z
-x,-y,z
x,-y,-z
-x,y,-z
-x,-y,-z
x,y,-z
-x,y,z
x,-y,z
1/2+x,1/2+y,1/2+z
1/2-x,1/2-y,1/2+z
1/2+x,1/2-y,1/2-z
1/2-x,1/2+y,1/2-z
1/2-x,1/2-y,1/2-z
1/2+x,1/2+y,1/2-z
1/2-x,1/2+y,1/2+z
1/2+x,1/2-y,1/2+z
loop_
_atom_site_type_symbol
_atom_site_label
_atom_site_fract_x
_atom_site_fract_y
_atom_site_fract_z
Si Si1 0.058730 0.000000 0.384935
Si Si2 0.233675 0.692426 0.390866
Si Si3 0.739533 0.643760 0.809152
Si Si4 0.347030 0.913574 0.394025
Si Si5 0.110884 0.698941 0.609249
Si Si6 0.561359 0.086813 0.747850
Si Si7 0.128347 0.864365 0.614893
O O1 0.086440 0.075070 0.347669
O O2 0.058270 0.000000 0.500000
O O3 0.000000 0.000000 0.340391
O O4 0.255607 0.676829 0.500000
O O5 0.264037 0.645871 0.308114
O O6 0.243086 0.777813 0.363761
O O7 0.171557 0.670058 0.386036
O O8 0.791828 0.598122 0.837815
O O9 0.684910 0.606238 0.844092
O O10 0.345742 0.874694 0.500000
O O11 0.398403 0.883620 0.335186
O O12 0.355598 0.000000 0.408495
O O13 0.089714 0.702271 0.500000
O O14 0.071855 0.641024 0.661803
O O15 0.110127 0.782978 0.654378
O O16 0.500000 0.096135 0.713538
O O17 0.572617 0.000000 0.775607
O O18 0.133700 0.860153 0.500000
#
# Coordination Sequence:
#
# PCOD8287095 Si02
#       7
#     8  16  16  16  16  16  16
#     4   9  18  32  48  70 103 135 160 192 240 293
#     4   9  17  29  48  72  99 130 156 190 244 296
#     4  10  17  29  49  73 101 125 158 196 239 293
#     4  10  20  32  48  70  94 125 163 203 252 301
#     4   9  17  32  49  68  96 127 163 201 241 290
#     4  10  21  35  48  66  93 126 168 210 247 290
#     4   9  18  30  48  75 102 130 160 194 242 292
#
# _framework density 16.753039999999999
#
# number of rings (size 3 to 8) (size 9 to 14) (size 15 to 20)
#    0.000    2.538    1.538    2.308    1.077    1.538 
#    0.000    3.846    0.000    0.462    0.000    0.000 
#    0.000    1.231    0.000    0.000    0.000    0.154 
#
# Total GULP energy -644423.164213 kJ/mol
# GULP energy per Si atom -12392.753158 kJ/mol
# Density = 1.671491 g / cm^3
# Si number density = 16.753040 Si / 1000 Ang^3
#
#
#
# Elastic Constant Matrix: (Units=GPa)
#
#
# Indices 1 2 3 4 5 6 
#
# 1 111.8570 42.2636 36.8746 0.0000 0.0000 0.0000
# 2 42.2636 56.4734 26.3003 0.0000 0.0000 0.0000
# 3 36.8746 26.3003 91.4476 0.0000 0.0000 0.0000
# 4 0.0000 0.0000 0.0000 16.3626 0.0000 0.0000
# 5 0.0000 0.0000 0.0000 0.0000 23.4508 0.0000
# 6 0.0000 0.0000 0.0000 0.0000 0.0000 25.5587
#
#
#
# Elastic Compliance Matrix: (Units=1/GPa)
#
#
# Indices 1 2 3 4 5 6 
#
# 1 0.013073 -0.008462 -0.002838 0.000000 0.000000 0.000000
# 2 -0.008462 0.025923 -0.004043 0.000000 0.000000 0.000000
# 3 -0.002838 -0.004043 0.013242 0.000000 0.000000 0.000000
# 4 0.000000 0.000000 0.000000 0.061115 0.000000 0.000000
# 5 0.000000 0.000000 0.000000 0.000000 0.042642 0.000000
# 6 0.000000 0.000000 0.000000 0.000000 0.000000 0.039126
#
#
# Mechanical properties :
#
#
# Convention : Reuss Voigt Hill
#
# Bulk Modulus (GPa) = 46.39866 52.29499 49.34683
# Shear Modulus (GPa) = 21.46006 23.36372 22.41189
#
# Velocity S-wave (km/s) = 3.58294 3.73848 3.66154
# Velocity P-wave (km/s) = 6.69869 7.06526 6.88442
#
# Compressibility (1/GPa) = 0.02155235
#
# Stress axis : x y z
#
# Youngs Moduli (GPa) = 76.49590 38.57565 75.51518
#
# Poissons Ratio (x) = 0.32642 0.21429
# Poissons Ratio (y) = 0.64729 0.30534
# Poissons Ratio (z) = 0.21707 0.15598
#
# Static dielectric constant tensor:
#      x y z
#    x 3.190870 0.000000 0.000000 
#    y 0.000000 3.052820 0.000000 
#    z 0.000000 0.000000 3.314840 
# 
# 
# High freq. dielectric constant tensor:
#      x y z
#    x 1.639910 0.000000 0.000000 
#    y 0.000000 1.628580 0.000000 
#    z 0.000000 0.000000 1.628670 
# 
# From -- ./inp_files/40467.got.cif
#   From: 2010.06.25/outbox.cif.g09.slc.cpg/sg71_21_cif.got.tgz:40467.got - 2010.06.28 04:59:45.
