data_PCOD8287413
_publ_section_title
;
Structure prediction by ZEFSAII (Michael W. Deem and Ramdas Pophale) SiO2 
 PCOD8287413
Probable space group: I M M M
;
_chemical_formula_sum "Si O2"
_cell_formula_units_Z 88
_cell_length_a 9.234390
_cell_length_b 29.970474
_cell_length_c 18.107075
_cell_angle_alpha 90.000000
_cell_angle_beta 90.000000
_cell_angle_gamma 90.000000
_cell_volume 5011.296792
_symmetry_space_group_name_H-M "I M M M"
_symmetry_group_IT_number 71
_symmetry_cell_setting 'orthorhombic'
loop_
_space_group_symop_operation_xyz
x,y,z
-x,-y,z
x,-y,-z
-x,y,-z
-x,-y,-z
x,y,-z
-x,y,z
x,-y,z
1/2+x,1/2+y,1/2+z
1/2-x,1/2-y,1/2+z
1/2+x,1/2-y,1/2-z
1/2-x,1/2+y,1/2-z
1/2-x,1/2-y,1/2-z
1/2+x,1/2+y,1/2-z
1/2-x,1/2+y,1/2+z
1/2+x,1/2-y,1/2+z
loop_
_atom_site_type_symbol
_atom_site_label
_atom_site_fract_x
_atom_site_fract_y
_atom_site_fract_z
Si Si1 0.330107 0.142564 0.914332
Si Si2 0.828840 0.885115 0.222453
Si Si3 0.667526 0.291180 0.783193
Si Si4 0.331234 0.758559 0.921360
Si Si5 0.165115 0.553031 0.000000
Si Si6 0.168459 0.051941 0.354697
O O1 0.500000 0.136493 0.900557
O O2 0.247363 0.109259 0.857624
O O3 0.273044 0.192845 0.894163
O O4 0.291859 0.131293 0.000000
O O5 0.773253 0.838939 0.258988
O O6 0.780628 0.923641 0.279496
O O7 0.000000 0.885959 0.210103
O O8 0.500000 0.286412 0.762420
O O9 0.750000 0.250000 0.750000
O O10 0.696942 0.284214 0.870298
O O11 0.500000 0.767398 0.931618
O O12 0.259348 0.746664 0.000000
O O13 0.244480 0.570571 0.925795
O O14 0.173428 0.500000 0.000000
O O15 0.000000 0.570188 0.000000
O O16 0.000000 0.061551 0.370324
O O17 0.199452 0.000000 0.341956
#
# Coordination Sequence:
#
# PCOD8287413 Si02
#       6
#    16  16  16  16   8  16
#     4   9  17  30  49  70  91 124 165 196 234 292
#     4  10  20  31  47  75  99 123 162 203 243 286
#     4  10  18  29  45  67  94 122 154 192 235 281
#     4   8  14  26  43  61  84 119 157 186 220 272
#     4   9  17  31  53  79 101 125 163 205 243 285
#     4   9  18  34  53  72  99 133 165 199 242 291
#
# _framework density 17.560324999999999
#
# number of rings (size 3 to 8) (size 9 to 14) (size 15 to 20)
#    0.000    2.818    1.818    1.364    0.000    2.182 
#    1.636    0.000    0.000    1.091    0.000    3.818 
#    0.000    0.000    0.000    0.000    0.000    0.000 
#
# Total GULP energy -545142.526330 kJ/mol
# GULP energy per Si atom -12389.602871 kJ/mol
# Density = 1.752036 g / cm^3
# Si number density = 17.560325 Si / 1000 Ang^3
#
#
#
# Elastic Constant Matrix: (Units=GPa)
#
#
# Indices 1 2 3 4 5 6 
#
# 1 47.9133 27.4329 51.3142 0.0000 0.0000 0.0000
# 2 27.4329 58.5029 50.5189 -0.0001 0.0000 0.0000
# 3 51.3142 50.5189 140.5986 -0.0002 0.0000 0.0000
# 4 0.0000 -0.0001 -0.0002 23.6270 0.0000 0.0000
# 5 0.0000 0.0000 0.0000 0.0000 30.1811 0.0000
# 6 0.0000 0.0000 0.0000 0.0000 0.0000 16.7157
#
#
#
# Elastic Compliance Matrix: (Units=1/GPa)
#
#
# Indices 1 2 3 4 5 6 
#
# 1 0.036792 -0.008202 -0.010481 0.000000 0.000000 0.000000
# 2 -0.008202 0.026611 -0.006568 0.000000 0.000000 0.000000
# 3 -0.010481 -0.006568 0.013298 0.000000 0.000000 0.000000
# 4 0.000000 0.000000 0.000000 0.042324 0.000000 0.000000
# 5 0.000000 0.000000 0.000000 0.000000 0.033133 0.000000
# 6 0.000000 0.000000 0.000000 0.000000 0.000000 0.059824
#
#
# Mechanical properties :
#
#
# Convention : Reuss Voigt Hill
#
# Bulk Modulus (GPa) = 38.16984 56.17187 47.17085
# Shear Modulus (GPa) = 18.43545 21.95470 20.19508
#
# Velocity S-wave (km/s) = 3.24363 3.53972 3.39490
# Velocity P-wave (km/s) = 5.98430 6.98309 6.50290
#
# Compressibility (1/GPa) = 0.02619870
#
# Stress axis : x y z
#
# Youngs Moduli (GPa) = 27.18005 37.57851 75.20081
#
# Poissons Ratio (x) = 0.30821 0.78817
# Poissons Ratio (y) = 0.22292 0.49394
# Poissons Ratio (z) = 0.28487 0.24683
#
# Static dielectric constant tensor:
#      x y z
#    x 3.060480 0.000000 0.000000 
#    y 0.000000 2.531600 0.000000 
#    z 0.000000 0.000000 3.278180 
# 
# 
# High freq. dielectric constant tensor:
#      x y z
#    x 1.655370 0.000000 0.000000 
#    y 0.000000 1.642360 0.000000 
#    z 0.000000 0.000000 1.694310 
# 
# From -- ./inp_files/42500.got.cif
#   From: 2010.06.25/outbox.cif.g09.slc.cpg/sg71_22_cif.got.tgz:42500.got - 2010.06.28 04:59:45.
