data_PCOD8287956
_publ_section_title
;
Structure prediction by ZEFSAII (Michael W. Deem and Ramdas Pophale) SiO2 
 PCOD8287956
Probable space group: I M M M
;
_chemical_formula_sum "Si O2"
_cell_formula_units_Z 104
_cell_length_a 28.225370
_cell_length_b 8.824485
_cell_length_c 22.731916
_cell_angle_alpha 90.000000
_cell_angle_beta 90.000000
_cell_angle_gamma 90.000000
_cell_volume 5661.937297
_symmetry_space_group_name_H-M "I M M M"
_symmetry_group_IT_number 71
_symmetry_cell_setting 'orthorhombic'
loop_
_space_group_symop_operation_xyz
x,y,z
-x,-y,z
x,-y,-z
-x,y,-z
-x,-y,-z
x,y,-z
-x,y,z
x,-y,z
1/2+x,1/2+y,1/2+z
1/2-x,1/2-y,1/2+z
1/2+x,1/2-y,1/2-z
1/2-x,1/2+y,1/2-z
1/2-x,1/2-y,1/2-z
1/2+x,1/2+y,1/2-z
1/2-x,1/2+y,1/2+z
1/2+x,1/2-y,1/2+z
loop_
_atom_site_type_symbol
_atom_site_label
_atom_site_fract_x
_atom_site_fract_y
_atom_site_fract_z
Si Si1 0.447472 0.820129 0.729847
Si Si2 0.112190 0.675919 0.339599
Si Si3 0.444844 0.669412 0.933713
Si Si4 0.204060 0.822726 0.310573
Si Si5 0.055002 0.319834 0.000000
Si Si6 0.300803 0.321345 0.675569
Si Si7 0.609527 0.820387 0.617161
O O1 0.500000 0.750118 0.735103
O O2 0.415881 0.758911 0.783235
O O3 0.425237 0.765381 0.668719
O O4 0.450164 0.000000 0.732350
O O5 0.124785 0.500000 0.331989
O O6 0.080586 0.700900 0.396715
O O7 0.159430 0.773272 0.349131
O O8 0.500000 0.704009 0.930854
O O9 0.434164 0.500000 0.909441
O O10 0.426207 0.682491 0.000000
O O11 0.248531 0.737979 0.340041
O O12 0.191835 0.771054 0.243603
O O13 0.214010 0.000000 0.313958
O O14 0.084950 0.262475 0.943245
O O15 0.052430 0.500000 0.000000
O O16 0.000000 0.258780 0.000000
O O17 0.303386 0.500000 0.667864
O O18 0.338822 0.249720 0.630455
O O19 0.615795 0.000000 0.615841
#
# Coordination Sequence:
#
# PCOD8287956 Si02
#       7
#    16  16  16  16   8  16  16
#     4   9  17  28  45  73 108 141 172 212 262 313
#     4  11  20  31  51  80 111 139 173 218 271 321
#     4   9  19  36  55  74 102 143 184 217 255 308
#     4  10  20  34  54  79 108 139 175 215 266 326
#     4   9  18  32  55  85 111 145 195 239 270 315
#     4  10  20  34  54  79 107 137 174 218 269 326
#     4  10  18  32  54  78 108 144 184 227 272 319
#
# _framework density 18.368269999999999
#
# number of rings (size 3 to 8) (size 9 to 14) (size 15 to 20)
#    0.000    2.231    1.538    2.769    0.000    4.308 
#    0.000    1.154    1.692    3.231    0.000    0.000 
#    0.000    0.000    0.000    0.000    0.000    0.000 
#
# Total GULP energy -644702.307746 kJ/mol
# GULP energy per Si atom -12398.121303 kJ/mol
# Density = 1.832646 g / cm^3
# Si number density = 18.368270 Si / 1000 Ang^3
#
#
#
# Elastic Constant Matrix: (Units=GPa)
#
#
# Indices 1 2 3 4 5 6 
#
# 1 138.8719 31.1007 64.9118 0.0000 0.0000 0.0000
# 2 31.1007 38.5338 24.0001 0.0000 0.0000 0.0000
# 3 64.9118 24.0001 95.3501 0.0000 0.0000 0.0000
# 4 0.0000 0.0000 0.0000 22.4110 0.0000 0.0000
# 5 0.0000 0.0000 0.0000 0.0000 29.8620 0.0000
# 6 0.0000 0.0000 0.0000 0.0000 0.0000 28.4547
#
#
#
# Elastic Compliance Matrix: (Units=1/GPa)
#
#
# Indices 1 2 3 4 5 6 
#
# 1 0.011367 -0.005164 -0.006438 0.000000 0.000000 0.000000
# 2 -0.005164 0.033122 -0.004821 0.000000 0.000000 0.000000
# 3 -0.006438 -0.004821 0.016084 0.000000 0.000000 0.000000
# 4 0.000000 0.000000 0.000000 0.044621 0.000000 0.000000
# 5 0.000000 0.000000 0.000000 0.000000 0.033487 0.000000
# 6 0.000000 0.000000 0.000000 0.000000 0.000000 0.035144
#
#
# Mechanical properties :
#
#
# Convention : Reuss Voigt Hill
#
# Bulk Modulus (GPa) = 36.06801 56.97569 46.52185
# Shear Modulus (GPa) = 23.15726 26.32843 24.74284
#
# Velocity S-wave (km/s) = 3.55452 3.79009 3.67419
# Velocity P-wave (km/s) = 6.04357 7.08794 6.58649
#
# Compressibility (1/GPa) = 0.02772540
#
# Stress axis : x y z
#
# Youngs Moduli (GPa) = 87.97509 30.19128 62.17235
#
# Poissons Ratio (x) = 0.15591 0.40029
# Poissons Ratio (y) = 0.45432 0.29976
# Poissons Ratio (z) = 0.56642 0.14556
#
# Static dielectric constant tensor:
#      x y z
#    x 3.484020 0.000000 0.000000 
#    y 0.000000 3.091480 0.000000 
#    z 0.000000 0.000000 3.315330 
# 
# 
# High freq. dielectric constant tensor:
#      x y z
#    x 1.722330 0.000000 0.000000 
#    y 0.000000 1.690660 0.000000 
#    z 0.000000 0.000000 1.692540 
# 
# From -- ./inp_files/11555.got.cif
#   From: 2010.06.25/outbox.cif.g09.slc.cpg/sg71_6_cif.got.tgz:11555.got - 2010.06.28 04:59:45.
