data_PCOD8287397
_publ_section_title
;
Structure prediction by ZEFSAII (Michael W. Deem and Ramdas Pophale) SiO2 
 PCOD8287397
Probable space group: I M M M
;
_chemical_formula_sum "Si O2"
_cell_formula_units_Z 80
_cell_length_a 9.111905
_cell_length_b 18.777557
_cell_length_c 33.072184
_cell_angle_alpha 90.000000
_cell_angle_beta 90.000000
_cell_angle_gamma 90.000000
_cell_volume 5658.628045
_symmetry_space_group_name_H-M "I M M M"
_symmetry_group_IT_number 71
_symmetry_cell_setting 'orthorhombic'
loop_
_space_group_symop_operation_xyz
x,y,z
-x,-y,z
x,-y,-z
-x,y,-z
-x,-y,-z
x,y,-z
-x,y,z
x,-y,z
1/2+x,1/2+y,1/2+z
1/2-x,1/2-y,1/2+z
1/2+x,1/2-y,1/2-z
1/2-x,1/2+y,1/2-z
1/2-x,1/2-y,1/2-z
1/2+x,1/2+y,1/2-z
1/2-x,1/2+y,1/2+z
1/2+x,1/2-y,1/2+z
loop_
_atom_site_type_symbol
_atom_site_label
_atom_site_fract_x
_atom_site_fract_y
_atom_site_fract_z
Si Si1 0.168840 0.637821 0.618129
Si Si2 0.327290 0.580509 0.454611
Si Si3 0.330547 0.765943 0.190708
Si Si4 0.670589 0.858047 0.731716
Si Si5 0.169830 0.500000 0.669498
Si Si6 0.174422 0.000000 0.253350
O O1 0.258878 0.637281 0.576479
O O2 0.209065 0.705646 0.645968
O O3 0.207834 0.567958 0.643112
O O4 0.000000 0.639406 0.605940
O O5 0.282038 0.603275 0.500000
O O6 0.500000 0.582667 0.449478
O O7 0.270140 0.500000 0.446082
O O8 0.500000 0.742072 0.193666
O O9 0.301496 0.828962 0.222991
O O10 0.226657 0.699147 0.199109
O O11 0.500000 0.873109 0.724003
O O12 0.760827 0.930250 0.724831
O O13 0.277614 0.500000 0.707069
O O14 0.000000 0.500000 0.684483
O O15 0.000000 0.000000 0.257044
#
# Coordination Sequence:
#
# PCOD8287397 Si02
#       6
#    16  16  16  16   8   8
#     4  10  18  29  45  61  82 109 141 181 218 253
#     4   9  18  30  41  57  83 111 141 179 217 252
#     4   9  18  31  44  61  84 108 138 177 216 254
#     4  10  19  32  46  60  83 111 139 175 215 254
#     4  10  18  30  41  59  84 109 142 181 219 250
#     4  12  22  30  44  63  83 110 145 180 214 254
#
# _framework density 14.137703
#
# number of rings (size 3 to 8) (size 9 to 14) (size 15 to 20)
#    0.000    2.200    3.000    2.100    0.000    2.800 
#    0.000    1.000    0.000    0.000    0.000    0.000 
#    0.000    0.000    0.000    0.900    0.000   16.800 
#
# Total GULP energy -495981.294413 kJ/mol
# GULP energy per Si atom -12399.532360 kJ/mol
# Density = 1.410552 g / cm^3
# Si number density = 14.137703 Si / 1000 Ang^3
#
#
#
# Elastic Constant Matrix: (Units=GPa)
#
#
# Indices 1 2 3 4 5 6 
#
# 1 75.2473 46.9408 38.6006 0.0000 0.0000 0.0000
# 2 46.9408 74.0763 35.5791 0.0000 0.0000 0.0000
# 3 38.6006 35.5791 87.1708 0.0000 0.0000 0.0000
# 4 0.0000 0.0000 0.0000 58.5916 0.0000 0.0000
# 5 0.0000 0.0000 0.0000 0.0000 24.9654 0.0000
# 6 0.0000 0.0000 0.0000 0.0000 0.0000 23.7415
#
#
#
# Elastic Compliance Matrix: (Units=1/GPa)
#
#
# Indices 1 2 3 4 5 6 
#
# 1 0.023910 -0.012520 -0.005477 0.000000 0.000000 0.000000
# 2 -0.012520 0.023348 -0.003985 0.000000 0.000000 0.000000
# 3 -0.005477 -0.003985 0.015524 0.000000 0.000000 0.000000
# 4 0.000000 0.000000 0.000000 0.017067 0.000000 0.000000
# 5 0.000000 0.000000 0.000000 0.000000 0.040055 0.000000
# 6 0.000000 0.000000 0.000000 0.000000 0.000000 0.042120
#
#
# Mechanical properties :
#
#
# Convention : Reuss Voigt Hill
#
# Bulk Modulus (GPa) = 53.14836 53.19282 53.17059
# Shear Modulus (GPa) = 23.55580 29.15131 26.35356
#
# Velocity S-wave (km/s) = 4.08630 4.54580 4.32216
# Velocity P-wave (km/s) = 7.74201 8.07830 7.91194
#
# Compressibility (1/GPa) = 0.01881525
#
# Stress axis : x y z
#
# Youngs Moduli (GPa) = 41.82389 42.83090 64.41733
#
# Poissons Ratio (x) = 0.53626 0.35284
# Poissons Ratio (y) = 0.52365 0.25672
# Poissons Ratio (z) = 0.22909 0.17069
#
# Static dielectric constant tensor:
#      x y z
#    x 2.752300 0.000000 0.000000 
#    y 0.000000 2.611310 0.000000 
#    z 0.000000 0.000000 2.655790 
# 
# 
# High freq. dielectric constant tensor:
#      x y z
#    x 1.545310 0.000000 0.000000 
#    y 0.000000 1.515330 0.000000 
#    z 0.000000 0.000000 1.515240 
# 
# From -- ./inp_files/67951.got.cif
#   From: 2010.06.25/outbox.cif.g09.slc.cpg/sg71_34_cif.got.tgz:67951.got - 2010.06.28 04:59:45.
