data_PCOD8287438
_publ_section_title
;
Structure prediction by ZEFSAII (Michael W. Deem and Ramdas Pophale) SiO2 
 PCOD8287438
Probable space group: I M M M
;
_chemical_formula_sum "Si O2"
_cell_formula_units_Z 96
_cell_length_a 23.067667
_cell_length_b 23.190464
_cell_length_c 10.552483
_cell_angle_alpha 90.000000
_cell_angle_beta 90.000000
_cell_angle_gamma 90.000000
_cell_volume 5645.049737
_symmetry_space_group_name_H-M "I M M M"
_symmetry_group_IT_number 71
_symmetry_cell_setting 'orthorhombic'
loop_
_space_group_symop_operation_xyz
x,y,z
-x,-y,z
x,-y,-z
-x,y,-z
-x,-y,-z
x,y,-z
-x,y,z
x,-y,z
1/2+x,1/2+y,1/2+z
1/2-x,1/2-y,1/2+z
1/2+x,1/2-y,1/2-z
1/2-x,1/2+y,1/2-z
1/2-x,1/2-y,1/2-z
1/2+x,1/2+y,1/2-z
1/2-x,1/2+y,1/2+z
1/2+x,1/2-y,1/2+z
loop_
_atom_site_type_symbol
_atom_site_label
_atom_site_fract_x
_atom_site_fract_y
_atom_site_fract_z
Si Si1 0.325804 0.718031 0.144934
Si Si2 0.434432 0.774967 0.235568
Si Si3 0.063643 0.599934 0.356064
Si Si4 0.816250 0.436131 0.731691
Si Si5 0.348420 0.934417 0.500000
Si Si6 0.249204 0.829546 0.858167
Si Si7 0.067866 0.672033 0.000000
O O1 0.393546 0.725183 0.178434
O O2 0.296364 0.780063 0.163951
O O3 0.298875 0.673465 0.247122
O O4 0.318139 0.695485 0.000000
O O5 0.500000 0.750857 0.234888
O O6 0.428477 0.831279 0.148752
O O7 0.414028 0.790812 0.377834
O O8 0.067406 0.579555 0.500000
O O9 0.113956 0.567580 0.281303
O O10 0.000000 0.583826 0.298876
O O11 0.795591 0.500000 0.690942
O O12 0.781832 0.390631 0.647329
O O13 0.805782 0.424522 0.880402
O O14 0.400868 0.889325 0.500000
O O15 0.373249 0.000000 0.500000
O O16 0.221836 0.824010 0.000000
O O17 0.000000 0.658207 0.000000
#
# Coordination Sequence:
#
# PCOD8287438 Si02
#       7
#    16  16  16  16   8  16   8
#     4  10  20  34  53  74  98 129 163 205 253 304
#     4  10  19  31  50  73  99 129 164 204 251 301
#     4  10  19  31  47  66  93 128 168 213 251 289
#     4  11  22  35  51  69  96 131 171 215 258 299
#     4  10  20  31  46  66  90 128 171 213 251 290
#     4  10  21  35  51  73  98 128 168 209 252 299
#     4  10  18  29  46  68  96 132 167 205 249 293
#
# _framework density 17.006049999999998
#
# number of rings (size 3 to 8) (size 9 to 14) (size 15 to 20)
#    0.000    1.833    3.333    1.000    2.333    2.833 
#    0.000    2.500    0.000    0.000    0.000    0.000 
#    0.000    0.667    0.000    3.000    0.000    0.000 
#
# Total GULP energy -595065.525825 kJ/mol
# GULP energy per Si atom -12397.198455 kJ/mol
# Density = 1.696734 g / cm^3
# Si number density = 17.006050 Si / 1000 Ang^3
#
#
#
# Elastic Constant Matrix: (Units=GPa)
#
#
# Indices 1 2 3 4 5 6 
#
# 1 63.5059 27.1057 33.8813 0.0000 0.0000 0.0000
# 2 27.1057 51.2261 24.3138 0.0000 0.0000 0.0000
# 3 33.8813 24.3138 110.6710 0.0000 0.0000 0.0000
# 4 0.0000 0.0000 0.0000 17.2724 0.0000 0.0000
# 5 0.0000 0.0000 0.0000 0.0000 23.7455 0.0000
# 6 0.0000 0.0000 0.0000 0.0000 0.0000 18.5693
#
#
#
# Elastic Compliance Matrix: (Units=1/GPa)
#
#
# Indices 1 2 3 4 5 6 
#
# 1 0.022367 -0.009585 -0.004742 0.000000 0.000000 0.000000
# 2 -0.009585 0.025901 -0.002756 0.000000 0.000000 0.000000
# 3 -0.004742 -0.002756 0.011093 0.000000 0.000000 0.000000
# 4 0.000000 0.000000 0.000000 0.057896 0.000000 0.000000
# 5 0.000000 0.000000 0.000000 0.000000 0.042113 0.000000
# 6 0.000000 0.000000 0.000000 0.000000 0.000000 0.053852
#
#
# Mechanical properties :
#
#
# Convention : Reuss Voigt Hill
#
# Bulk Modulus (GPa) = 39.68873 44.00053 41.84463
# Shear Modulus (GPa) = 19.54751 21.25758 20.40254
#
# Velocity S-wave (km/s) = 3.39402 3.53937 3.46746
# Velocity P-wave (km/s) = 6.22478 6.52936 6.37889
#
# Compressibility (1/GPa) = 0.02519607
#
# Stress axis : x y z
#
# Youngs Moduli (GPa) = 44.70783 38.60840 90.14697
#
# Poissons Ratio (x) = 0.37005 0.42747
# Poissons Ratio (y) = 0.42851 0.24845
# Poissons Ratio (z) = 0.21200 0.10641
#
# Static dielectric constant tensor:
#      x y z
#    x 2.998160 0.000000 0.000000 
#    y 0.000000 2.783660 0.000000 
#    z 0.000000 0.000000 3.512980 
# 
# 
# High freq. dielectric constant tensor:
#      x y z
#    x 1.625170 0.000000 0.000000 
#    y 0.000000 1.606200 0.000000 
#    z 0.000000 0.000000 1.682040 
# 
# From -- ./inp_files/26006.got.cif
#   From: 2010.06.25/outbox.cif.g09.slc.cpg/sg71_14_cif.got.tgz:26006.got - 2010.06.28 04:59:45.
