data_PCOD8287014
_publ_section_title
;
Structure prediction by ZEFSAII (Michael W. Deem and Ramdas Pophale) SiO2 
 PCOD8287014
Probable space group: I M M M
;
_chemical_formula_sum "Si O2"
_cell_formula_units_Z 96
_cell_length_a 29.292908
_cell_length_b 23.165482
_cell_length_c 9.029266
_cell_angle_alpha 90.000000
_cell_angle_beta 90.000000
_cell_angle_gamma 90.000000
_cell_volume 6127.118446
_symmetry_space_group_name_H-M "I M M M"
_symmetry_group_IT_number 71
_symmetry_cell_setting 'orthorhombic'
loop_
_space_group_symop_operation_xyz
x,y,z
-x,-y,z
x,-y,-z
-x,y,-z
-x,-y,-z
x,y,-z
-x,y,z
x,-y,z
1/2+x,1/2+y,1/2+z
1/2-x,1/2-y,1/2+z
1/2+x,1/2-y,1/2-z
1/2-x,1/2+y,1/2-z
1/2-x,1/2-y,1/2-z
1/2+x,1/2+y,1/2-z
1/2-x,1/2+y,1/2+z
1/2+x,1/2-y,1/2+z
loop_
_atom_site_type_symbol
_atom_site_label
_atom_site_fract_x
_atom_site_fract_y
_atom_site_fract_z
Si Si1 0.089194 0.387888 0.828564
Si Si2 0.818585 0.225268 0.326548
Si Si3 0.000000 0.390484 0.333806
Si Si4 0.239764 0.337037 0.327097
Si Si5 0.314089 0.933361 0.670582
Si Si6 0.409062 0.246417 0.326189
Si Si7 0.500000 0.753073 0.831317
O O1 0.045703 0.414213 0.743581
O O2 0.133968 0.422520 0.777313
O O3 0.096923 0.321002 0.790232
O O4 0.078756 0.396824 0.000000
O O5 0.825031 0.214843 0.500000
O O6 0.797408 0.287904 0.291948
O O7 0.786143 0.175774 0.261024
O O8 0.867036 0.219678 0.246133
O O9 0.000000 0.413596 0.500000
O O10 0.000000 0.321779 0.324129
O O11 0.251116 0.340215 0.500000
O O12 0.220572 0.397909 0.271945
O O13 0.308843 0.913444 0.500000
O O14 0.301752 0.000000 0.691229
O O15 0.410577 0.258827 0.500000
O O16 0.455353 0.270645 0.252690
O O17 0.500000 0.730767 0.000000
#
# Coordination Sequence:
#
# PCOD8287014 Si02
#       7
#    16  16   8  16  16  16   8
#     4   9  17  29  44  61  82 110 145 184 227 273
#     4  10  19  30  47  68  91 117 146 183 227 271
#     4   9  17  27  42  60  79 106 142 186 230 270
#     4  10  20  32  47  67  90 115 146 185 228 272
#     4  10  20  34  50  66  86 115 150 188 230 276
#     4  10  17  27  44  65  89 117 150 186 224 268
#     4   9  17  27  39  60  90 119 149 180 220 271
#
# _framework density 15.668049999999999
#
# number of rings (size 3 to 8) (size 9 to 14) (size 15 to 20)
#    0.000    2.333    1.667    2.000    0.000    5.000 
#    0.000    0.417    0.000    2.500    0.000    0.000 
#    0.000    0.000    0.000    0.750    0.000   13.833 
#
# Total GULP energy -595320.187575 kJ/mol
# GULP energy per Si atom -12402.503908 kJ/mol
# Density = 1.563239 g / cm^3
# Si number density = 15.668050 Si / 1000 Ang^3
#
#
#
# Elastic Constant Matrix: (Units=GPa)
#
#
# Indices 1 2 3 4 5 6 
#
# 1 117.4966 33.9463 60.5078 0.0000 0.0000 0.0000
# 2 33.9463 40.8714 26.1693 0.0000 0.0000 0.0000
# 3 60.5078 26.1693 90.0892 0.0000 0.0000 0.0000
# 4 0.0000 0.0000 0.0000 16.9838 0.0000 0.0000
# 5 0.0000 0.0000 0.0000 0.0000 33.4104 0.0000
# 6 0.0000 0.0000 0.0000 0.0000 0.0000 15.1422
#
#
#
# Elastic Compliance Matrix: (Units=1/GPa)
#
#
# Indices 1 2 3 4 5 6 
#
# 1 0.014534 -0.007151 -0.007685 0.000000 0.000000 0.000000
# 2 -0.007151 0.033576 -0.004950 0.000000 0.000000 0.000000
# 3 -0.007685 -0.004950 0.017699 0.000000 0.000000 0.000000
# 4 0.000000 0.000000 0.000000 0.058880 0.000000 0.000000
# 5 0.000000 0.000000 0.000000 0.000000 0.029931 0.000000
# 6 0.000000 0.000000 0.000000 0.000000 0.000000 0.066040
#
#
# Mechanical properties :
#
#
# Convention : Reuss Voigt Hill
#
# Bulk Modulus (GPa) = 38.11305 54.41155 46.26230
# Shear Modulus (GPa) = 18.58883 21.62954 20.10919
#
# Velocity S-wave (km/s) = 3.44818 3.71952 3.58642
# Velocity P-wave (km/s) = 6.34282 7.29723 6.83670
#
# Compressibility (1/GPa) = 0.02623773
#
# Stress axis : x y z
#
# Youngs Moduli (GPa) = 68.80247 29.78304 56.49940
#
# Poissons Ratio (x) = 0.21299 0.43417
# Poissons Ratio (y) = 0.49203 0.27968
# Poissons Ratio (z) = 0.52872 0.14743
#
# Static dielectric constant tensor:
#      x y z
#    x 3.059900 0.000000 0.000000 
#    y 0.000000 2.510630 0.000000 
#    z 0.000000 0.000000 3.055240 
# 
# 
# High freq. dielectric constant tensor:
#      x y z
#    x 1.606050 0.000000 0.000000 
#    y 0.000000 1.539210 0.000000 
#    z 0.000000 0.000000 1.614760 
# 
# From -- ./inp_files/13201.got.cif
#   From: 2010.06.25/outbox.cif.g09.slc.cpg/sg71_7_cif.got.tgz:13201.got - 2010.06.28 04:59:45.
