data_PCOD8287825
_publ_section_title
;
Structure prediction by ZEFSAII (Michael W. Deem and Ramdas Pophale) SiO2 
 PCOD8287825
Probable space group: I M M M
;
_chemical_formula_sum "Si O2"
_cell_formula_units_Z 104
_cell_length_a 27.146180
_cell_length_b 9.554197
_cell_length_c 21.106589
_cell_angle_alpha 90.000000
_cell_angle_beta 90.000000
_cell_angle_gamma 90.000000
_cell_volume 5474.203900
_symmetry_space_group_name_H-M "I M M M"
_symmetry_group_IT_number 71
_symmetry_cell_setting 'orthorhombic'
loop_
_space_group_symop_operation_xyz
x,y,z
-x,-y,z
x,-y,-z
-x,y,-z
-x,-y,-z
x,y,-z
-x,y,z
x,-y,z
1/2+x,1/2+y,1/2+z
1/2-x,1/2-y,1/2+z
1/2+x,1/2-y,1/2-z
1/2-x,1/2+y,1/2-z
1/2-x,1/2-y,1/2-z
1/2+x,1/2+y,1/2-z
1/2-x,1/2+y,1/2+z
1/2+x,1/2-y,1/2+z
loop_
_atom_site_type_symbol
_atom_site_label
_atom_site_fract_x
_atom_site_fract_y
_atom_site_fract_z
Si Si1 0.222572 0.165171 0.071321
Si Si2 0.116667 0.834127 0.117040
Si Si3 0.553929 0.333898 0.500000
Si Si4 0.887877 0.656783 0.333441
Si Si5 0.721224 0.164732 0.804213
Si Si6 0.055947 0.341566 0.790447
Si Si7 0.055253 0.840494 0.426285
O O1 0.170640 0.220174 0.098546
O O2 0.262438 0.209285 0.124253
O O3 0.219500 0.000000 0.064215
O O4 0.233436 0.226940 0.000000
O O5 0.081234 0.780673 0.061794
O O6 0.096461 0.759339 0.179165
O O7 0.115391 0.000000 0.128064
O O8 0.552201 0.500000 0.500000
O O9 0.500000 0.266623 0.500000
O O10 0.880885 0.500000 0.360155
O O11 0.836490 0.703201 0.300530
O O12 0.932499 0.663049 0.283876
O O13 0.902313 0.754113 0.391677
O O14 0.750000 0.250000 0.750000
O O15 0.731539 0.000000 0.792620
O O16 0.061852 0.500000 0.816164
O O17 0.000000 0.287746 0.801387
O O18 0.066771 0.828530 0.500000
O O19 0.000000 0.783590 0.412030
O O20 0.058915 0.000000 0.403268
#
# Coordination Sequence:
#
# PCOD8287825 Si02
#       7
#    16  16   8  16  16  16  16
#     4   9  17  32  54  79 105 135 173 217 266 314
#     4  10  18  31  52  75  98 129 171 215 257 304
#     4   9  16  26  43  69  97 121 155 207 252 289
#     4  10  21  36  54  78 107 142 183 223 267 322
#     4  10  21  36  56  81 109 142 182 230 277 324
#     4  10  21  35  49  69 103 141 172 210 260 311
#     4   9  19  36  57  82 112 143 175 217 272 331
#
# _framework density 18.998196
#
# number of rings (size 3 to 8) (size 9 to 14) (size 15 to 20)
#    0.000    2.385    0.769    2.308    0.000    4.000 
#    0.000    2.692    0.000    2.769    0.000    0.000 
#    0.000    0.000    0.000    0.000    0.000    0.000 
#
# Total GULP energy -644592.720842 kJ/mol
# GULP energy per Si atom -12396.013862 kJ/mol
# Density = 1.895496 g / cm^3
# Si number density = 18.998196 Si / 1000 Ang^3
#
#
#
# Elastic Constant Matrix: (Units=GPa)
#
#
# Indices 1 2 3 4 5 6 
#
# 1 90.9870 33.1205 42.2065 0.0000 0.0000 0.0000
# 2 33.1205 54.6905 40.4360 0.0000 0.0000 0.0000
# 3 42.2065 40.4360 94.0803 0.0000 0.0000 0.0000
# 4 0.0000 0.0000 0.0000 27.3864 0.0000 0.0000
# 5 0.0000 0.0000 0.0000 0.0000 45.5141 0.0000
# 6 0.0000 0.0000 0.0000 0.0000 0.0000 25.3728
#
#
#
# Elastic Compliance Matrix: (Units=1/GPa)
#
#
# Indices 1 2 3 4 5 6 
#
# 1 0.015143 -0.006080 -0.004180 0.000000 0.000000 0.000000
# 2 -0.006080 0.029243 -0.009841 0.000000 0.000000 0.000000
# 3 -0.004180 -0.009841 0.016734 0.000000 0.000000 0.000000
# 4 0.000000 0.000000 0.000000 0.036514 0.000000 0.000000
# 5 0.000000 0.000000 0.000000 0.000000 0.021971 0.000000
# 6 0.000000 0.000000 0.000000 0.000000 0.000000 0.039412
#
#
# Mechanical properties :
#
#
# Convention : Reuss Voigt Hill
#
# Bulk Modulus (GPa) = 47.80670 52.36487 50.08579
# Shear Modulus (GPa) = 24.24918 27.92100 26.08509
#
# Velocity S-wave (km/s) = 3.57654 3.83778 3.70946
# Velocity P-wave (km/s) = 6.50184 6.87466 6.69085
#
# Compressibility (1/GPa) = 0.02091757
#
# Stress axis : x y z
#
# Youngs Moduli (GPa) = 66.03794 34.19659 59.75737
#
# Poissons Ratio (x) = 0.20791 0.24980
# Poissons Ratio (y) = 0.40149 0.58808
# Poissons Ratio (z) = 0.27606 0.33653
#
# Static dielectric constant tensor:
#      x y z
#    x 3.604560 0.000000 0.000000 
#    y 0.000000 3.166910 0.000000 
#    z 0.000000 0.000000 3.453590 
# 
# 
# High freq. dielectric constant tensor:
#      x y z
#    x 1.747760 0.000000 0.000000 
#    y 0.000000 1.702680 0.000000 
#    z 0.000000 0.000000 1.741510 
# 
# From -- ./inp_files/56655.got.cif
#   From: 2010.06.25/outbox.cif.g09.slc.cpg/sg71_29_cif.got.tgz:56655.got - 2010.06.28 04:59:45.
