data_PCOD8287329
_publ_section_title
;
Structure prediction by ZEFSAII (Michael W. Deem and Ramdas Pophale) SiO2 
 PCOD8287329
Probable space group: I M M M
;
_chemical_formula_sum "Si O2"
_cell_formula_units_Z 80
_cell_length_a 19.567215
_cell_length_b 8.911567
_cell_length_c 26.079724
_cell_angle_alpha 90.000000
_cell_angle_beta 90.000000
_cell_angle_gamma 90.000000
_cell_volume 4547.640071
_symmetry_space_group_name_H-M "I M M M"
_symmetry_group_IT_number 71
_symmetry_cell_setting 'orthorhombic'
loop_
_space_group_symop_operation_xyz
x,y,z
-x,-y,z
x,-y,-z
-x,y,-z
-x,-y,-z
x,y,-z
-x,y,z
x,-y,z
1/2+x,1/2+y,1/2+z
1/2-x,1/2-y,1/2+z
1/2+x,1/2-y,1/2-z
1/2-x,1/2+y,1/2-z
1/2-x,1/2-y,1/2-z
1/2+x,1/2+y,1/2-z
1/2-x,1/2+y,1/2+z
1/2+x,1/2-y,1/2+z
loop_
_atom_site_type_symbol
_atom_site_label
_atom_site_fract_x
_atom_site_fract_y
_atom_site_fract_z
Si Si1 0.686030 0.827405 0.500000
Si Si2 0.077267 0.321669 0.802311
Si Si3 0.825158 0.673713 0.889260
Si Si4 0.329849 0.678018 0.103289
Si Si5 0.171978 0.324045 0.500000
Si Si6 0.421512 0.324632 0.802432
O O1 0.644060 0.800427 0.447132
O O2 0.747999 0.712194 0.500000
O O3 0.714441 0.000000 0.500000
O O4 0.079981 0.500000 0.801144
O O5 0.124868 0.251230 0.847364
O O6 0.104451 0.260198 0.748233
O O7 0.000000 0.265190 0.812325
O O8 0.822789 0.500000 0.875639
O O9 0.747676 0.735920 0.886334
O O10 0.332152 0.500000 0.096268
O O11 0.376353 0.732863 0.150229
O O12 0.360265 0.752284 0.051544
O O13 0.158372 0.500000 0.500000
O O14 0.500000 0.284810 0.814530
O O15 0.411041 0.500000 0.793090
#
# Coordination Sequence:
#
# PCOD8287329 Si02
#       6
#     8  16  16  16   8  16
#     4   8  14  28  47  63  87 122 151 177 214 258
#     4   9  17  29  44  63  90 120 146 178 222 264
#     4   8  14  26  45  66  86 114 150 180 212 258
#     4   9  17  31  49  65  86 117 148 179 215 257
#     4  10  18  28  45  70  95 114 139 178 220 262
#     4   9  18  32  48  65  85 113 150 185 217 258
#
# _framework density 17.591543000000001
#
# number of rings (size 3 to 8) (size 9 to 14) (size 15 to 20)
#    0.000    3.200    0.000    2.100    0.000    1.600 
#    0.000    5.000    0.000    6.000    0.000    0.000 
#    0.000   16.000    0.000    0.000    0.000    0.000 
#
# Total GULP energy -495673.127216 kJ/mol
# GULP energy per Si atom -12391.828180 kJ/mol
# Density = 1.755150 g / cm^3
# Si number density = 17.591543 Si / 1000 Ang^3
#
#
#
# Elastic Constant Matrix: (Units=GPa)
#
#
# Indices 1 2 3 4 5 6 
#
# 1 68.6984 16.4524 82.3550 0.0000 0.0000 0.0000
# 2 16.4524 28.7925 32.2823 0.0000 0.0000 0.0000
# 3 82.3550 32.2823 199.4674 0.0000 0.0000 0.0000
# 4 0.0000 0.0000 0.0000 27.0567 0.0000 0.0000
# 5 0.0000 0.0000 0.0000 0.0000 19.9793 0.0000
# 6 0.0000 0.0000 0.0000 0.0000 0.0000 12.3634
#
#
#
# Elastic Compliance Matrix: (Units=1/GPa)
#
#
# Indices 1 2 3 4 5 6 
#
# 1 0.029170 -0.003866 -0.011418 0.000000 0.000000 0.000000
# 2 -0.003866 0.042943 -0.005354 0.000000 0.000000 0.000000
# 3 -0.011418 -0.005354 0.010594 0.000000 0.000000 0.000000
# 4 0.000000 0.000000 0.000000 0.036959 0.000000 0.000000
# 5 0.000000 0.000000 0.000000 0.000000 0.050052 0.000000
# 6 0.000000 0.000000 0.000000 0.000000 0.000000 0.080884
#
#
# Mechanical properties :
#
#
# Convention : Reuss Voigt Hill
#
# Bulk Modulus (GPa) = 24.13636 62.12640 43.13138
# Shear Modulus (GPa) = 16.35656 22.93780 19.64718
#
# Velocity S-wave (km/s) = 3.05256 3.61489 3.34556
# Velocity P-wave (km/s) = 5.11609 7.26746 6.28452
#
# Compressibility (1/GPa) = 0.04143126
#
# Stress axis : x y z
#
# Youngs Moduli (GPa) = 34.28212 23.28655 94.39418
#
# Poissons Ratio (x) = 0.09004 1.07776
# Poissons Ratio (y) = 0.13255 0.50536
# Poissons Ratio (z) = 0.39142 0.12467
#
# Static dielectric constant tensor:
#      x y z
#    x 3.214290 0.000000 0.000000 
#    y 0.000000 2.911910 0.000000 
#    z 0.000000 0.000000 3.692230 
# 
# 
# High freq. dielectric constant tensor:
#      x y z
#    x 1.647670 0.000000 0.000000 
#    y 0.000000 1.647280 0.000000 
#    z 0.000000 0.000000 1.700980 
# 
# From -- ./inp_files/8431.got.cif
#   From: 2010.06.25/outbox.cif.g09.slc.cpg/sg71_5_cif.got.tgz:8431.got - 2010.06.28 04:59:45.
