data_PCOD8287492
_publ_section_title
;
Structure prediction by ZEFSAII (Michael W. Deem and Ramdas Pophale) SiO2 
 PCOD8287492
Probable space group: I M M M
;
_chemical_formula_sum "Si O2"
_cell_formula_units_Z 80
_cell_length_a 18.862217
_cell_length_b 8.705496
_cell_length_c 27.287752
_cell_angle_alpha 90.000000
_cell_angle_beta 90.000000
_cell_angle_gamma 90.000000
_cell_volume 4480.784080
_symmetry_space_group_name_H-M "I M M M"
_symmetry_group_IT_number 71
_symmetry_cell_setting 'orthorhombic'
loop_
_space_group_symop_operation_xyz
x,y,z
-x,-y,z
x,-y,-z
-x,y,-z
-x,-y,-z
x,y,-z
-x,y,z
x,-y,z
1/2+x,1/2+y,1/2+z
1/2-x,1/2-y,1/2+z
1/2+x,1/2-y,1/2-z
1/2-x,1/2+y,1/2-z
1/2-x,1/2-y,1/2-z
1/2+x,1/2+y,1/2-z
1/2-x,1/2+y,1/2+z
1/2+x,1/2-y,1/2+z
loop_
_atom_site_type_symbol
_atom_site_label
_atom_site_fract_x
_atom_site_fract_y
_atom_site_fract_z
Si Si1 0.218255 0.819048 0.701095
Si Si2 0.077647 0.817863 0.054528
Si Si3 0.578025 0.681471 0.849562
Si Si4 0.158894 0.821291 0.444800
Si Si5 0.784845 0.180913 0.892147
O O1 0.250000 0.750000 0.750000
O O2 0.138306 0.757354 0.688393
O O3 0.269580 0.772588 0.657207
O O4 0.216753 0.000000 0.706645
O O5 0.138274 0.758145 0.090850
O O6 0.000000 0.766868 0.074289
O O7 0.082265 0.000000 0.051413
O O8 0.089579 0.750099 0.000000
O O9 0.500000 0.752617 0.837768
O O10 0.573872 0.500000 0.844755
O O11 0.598652 0.726107 0.905499
O O12 0.131654 0.787274 0.500000
O O13 0.228818 0.721399 0.434622
O O14 0.178600 0.000000 0.438084
O O15 0.783411 0.000000 0.881601
#
# Coordination Sequence:
#
# PCOD8287492 Si02
#       5
#    16  16  16  16  16
#     4  10  20  35  54  73  93 119 152 193 239 284
#     4   8  14  25  42  66  95 125 159 198 233 265
#     4   8  15  29  49  72  95 120 155 196 231 266
#     4   9  17  28  44  69 100 131 160 192 230 271
#     4  10  18  29  48  71  94 123 159 198 237 279
#
# _framework density 17.854018
#
# number of rings (size 3 to 8) (size 9 to 14) (size 15 to 20)
#    0.000    3.000    0.000    3.600    0.000    1.600 
#    0.000    3.000    0.000   23.400    0.000   12.600 
#    0.000    0.000    0.000    0.000    0.000    0.000 
#
# Total GULP energy -495680.524982 kJ/mol
# GULP energy per Si atom -12392.013125 kJ/mol
# Density = 1.781338 g / cm^3
# Si number density = 17.854018 Si / 1000 Ang^3
#
#
#
# Elastic Constant Matrix: (Units=GPa)
#
#
# Indices 1 2 3 4 5 6 
#
# 1 175.2452 21.8233 81.8855 0.0000 0.0000 0.0000
# 2 21.8233 30.8595 20.3632 0.0000 0.0000 0.0000
# 3 81.8855 20.3632 126.2684 0.0000 0.0000 0.0000
# 4 0.0000 0.0000 0.0000 26.2474 0.0000 0.0000
# 5 0.0000 0.0000 0.0000 0.0000 19.7984 0.0000
# 6 0.0000 0.0000 0.0000 0.0000 0.0000 20.4404
#
#
#
# Elastic Compliance Matrix: (Units=1/GPa)
#
#
# Indices 1 2 3 4 5 6 
#
# 1 0.008372 -0.002616 -0.005007 0.000000 0.000000 0.000000
# 2 -0.002616 0.037082 -0.004283 0.000000 0.000000 0.000000
# 3 -0.005007 -0.004283 0.011858 0.000000 0.000000 0.000000
# 4 0.000000 0.000000 0.000000 0.038099 0.000000 0.000000
# 5 0.000000 0.000000 0.000000 0.000000 0.050509 0.000000
# 6 0.000000 0.000000 0.000000 0.000000 0.000000 0.048923
#
#
# Mechanical properties :
#
#
# Convention : Reuss Voigt Hill
#
# Bulk Modulus (GPa) = 29.85331 64.50190 47.17761
# Shear Modulus (GPa) = 21.75602 27.18398 24.47000
#
# Velocity S-wave (km/s) = 3.49456 3.90624 3.70612
# Velocity P-wave (km/s) = 5.74802 7.52003 6.69293
#
# Compressibility (1/GPa) = 0.03349712
#
# Stress axis : x y z
#
# Youngs Moduli (GPa) = 119.44912 26.96757 84.33406
#
# Poissons Ratio (x) = 0.07055 0.42228
# Poissons Ratio (y) = 0.31251 0.36124
# Poissons Ratio (z) = 0.59810 0.11551
#
# Static dielectric constant tensor:
#      x y z
#    x 3.866490 0.000000 0.000000 
#    y 0.000000 3.021520 0.000000 
#    z 0.000000 0.000000 3.316250 
# 
# 
# High freq. dielectric constant tensor:
#      x y z
#    x 1.695330 0.000000 0.000000 
#    y 0.000000 1.657940 0.000000 
#    z 0.000000 0.000000 1.680000 
# 
# From -- ./inp_files/8262.got.cif
#   From: 2010.06.25/outbox.cif.g09.slc.cpg/sg71_5_cif.got.tgz:8262.got - 2010.06.28 04:59:45.
