data_PCOD8287361
_publ_section_title
;
Structure prediction by ZEFSAII (Michael W. Deem and Ramdas Pophale) SiO2 
 PCOD8287361
Probable space group: I M M M
;
_chemical_formula_sum "Si O2"
_cell_formula_units_Z 120
_cell_length_a 22.175268
_cell_length_b 20.334317
_cell_length_c 15.620950
_cell_angle_alpha 90.000000
_cell_angle_beta 90.000000
_cell_angle_gamma 90.000000
_cell_volume 7043.782045
_symmetry_space_group_name_H-M "I M M M"
_symmetry_group_IT_number 71
_symmetry_cell_setting 'orthorhombic'
loop_
_space_group_symop_operation_xyz
x,y,z
-x,-y,z
x,-y,-z
-x,y,-z
-x,-y,-z
x,y,-z
-x,y,z
x,-y,z
1/2+x,1/2+y,1/2+z
1/2-x,1/2-y,1/2+z
1/2+x,1/2-y,1/2-z
1/2-x,1/2+y,1/2-z
1/2-x,1/2-y,1/2-z
1/2+x,1/2+y,1/2-z
1/2-x,1/2+y,1/2+z
1/2+x,1/2-y,1/2+z
loop_
_atom_site_type_symbol
_atom_site_label
_atom_site_fract_x
_atom_site_fract_y
_atom_site_fract_z
Si Si1 0.394681 0.698747 0.903713
Si Si2 0.141975 0.391790 0.313415
Si Si3 0.220178 0.287261 0.595230
Si Si4 0.932466 0.723317 0.756232
Si Si5 0.301576 0.927391 0.353875
Si Si6 0.932626 0.500000 0.401314
Si Si7 0.829416 0.927491 0.597905
Si Si8 0.659397 0.215101 0.597996
O O1 0.329266 0.730793 0.903966
O O2 0.433448 0.727294 0.825514
O O3 0.384144 0.622019 0.882437
O O4 0.423978 0.708211 0.000000
O O5 0.197384 0.349179 0.350595
O O6 0.089373 0.346610 0.276405
O O7 0.171247 0.436059 0.240410
O O8 0.107501 0.436304 0.381431
O O9 0.231970 0.313576 0.500000
O O10 0.280871 0.253255 0.630700
O O11 0.891531 0.743208 0.837838
O O12 0.000000 0.717971 0.791266
O O13 0.230166 0.913808 0.346095
O O14 0.333041 0.864547 0.399004
O O15 0.312291 0.000000 0.398896
O O16 0.945261 0.500000 0.500000
O O17 0.000000 0.500000 0.356778
O O18 0.807774 0.919352 0.500000
O O19 0.855499 0.000000 0.616276
O O20 0.643118 0.233350 0.500000
#
# Coordination Sequence:
#
# PCOD8287361 Si02
#       8
#    16  16  16  16  16   8  16  16
#     4   9  17  30  50  74 103 131 160 202 251 306
#     4  10  20  33  50  71  99 128 166 214 256 297
#     4   9  17  30  48  73  99 126 162 206 260 310
#     4  10  22  35  50  71  97 132 175 216 252 297
#     4  10  18  28  47  75 103 131 160 197 247 304
#     4  11  22  36  52  68  95 141 182 210 246 295
#     4   9  16  26  44  73 107 132 154 187 235 302
#     4  10  20  33  52  74 101 135 168 209 259 304
#
# _framework density 17.036301999999999
#
# number of rings (size 3 to 8) (size 9 to 14) (size 15 to 20)
#    0.000    2.333    2.000    1.200    1.867    3.467 
#    0.000    0.000    0.000    0.400    0.000    3.733 
#    0.000    0.000    0.000    1.200    0.000    0.000 
#
# Total GULP energy -743354.351518 kJ/mol
# GULP energy per Si atom -12389.239192 kJ/mol
# Density = 1.699753 g / cm^3
# Si number density = 17.036302 Si / 1000 Ang^3
#
#
#
# Elastic Constant Matrix: (Units=GPa)
#
#
# Indices 1 2 3 4 5 6 
#
# 1 86.6042 32.7594 35.1751 0.0000 0.0000 0.0000
# 2 32.7594 82.4729 28.8377 0.0000 0.0000 0.0000
# 3 35.1751 28.8377 70.1617 0.0000 0.0000 0.0000
# 4 0.0000 0.0000 0.0000 19.6071 0.0000 0.0000
# 5 0.0000 0.0000 0.0000 0.0000 19.5620 0.0000
# 6 0.0000 0.0000 0.0000 0.0000 0.0000 13.1199
#
#
#
# Elastic Compliance Matrix: (Units=1/GPa)
#
#
# Indices 1 2 3 4 5 6 
#
# 1 0.015570 -0.004035 -0.006147 0.000000 0.000000 0.000000
# 2 -0.004035 0.015206 -0.004227 0.000000 0.000000 0.000000
# 3 -0.006147 -0.004227 0.019072 0.000000 0.000000 0.000000
# 4 0.000000 0.000000 0.000000 0.051002 0.000000 0.000000
# 5 0.000000 0.000000 0.000000 0.000000 0.051120 0.000000
# 6 0.000000 0.000000 0.000000 0.000000 0.000000 0.076220
#
#
# Mechanical properties :
#
#
# Convention : Reuss Voigt Hill
#
# Bulk Modulus (GPa) = 47.55305 48.08703 47.82004
# Shear Modulus (GPa) = 18.93810 19.95558 19.44684
#
# Velocity S-wave (km/s) = 3.33773 3.42622 3.38227
# Velocity P-wave (km/s) = 6.54426 6.62869 6.58661
#
# Compressibility (1/GPa) = 0.02102914
#
# Stress axis : x y z
#
# Youngs Moduli (GPa) = 64.22637 65.76350 52.43260
#
# Poissons Ratio (x) = 0.26536 0.32232
# Poissons Ratio (y) = 0.25916 0.22163
# Poissons Ratio (z) = 0.39482 0.27798
#
# Static dielectric constant tensor:
#      x y z
#    x 2.944360 0.000000 0.000000 
#    y 0.000000 3.254240 0.000000 
#    z 0.000000 0.000000 3.239770 
# 
# 
# High freq. dielectric constant tensor:
#      x y z
#    x 1.632800 0.000000 0.000000 
#    y 0.000000 1.655380 0.000000 
#    z 0.000000 0.000000 1.649910 
# 
# From -- ./inp_files/38403.got.cif
#   From: 2010.06.25/outbox.cif.g09.slc.cpg/sg71_20_cif.got.tgz:38403.got - 2010.06.28 04:59:45.
