data_PCOD8287003
_publ_section_title
;
Structure prediction by ZEFSAII (Michael W. Deem and Ramdas Pophale) SiO2 
 PCOD8287003
Probable space group: I M M M
;
_chemical_formula_sum "Si O2"
_cell_formula_units_Z 96
_cell_length_a 13.303340
_cell_length_b 26.183533
_cell_length_c 18.796677
_cell_angle_alpha 90.000000
_cell_angle_beta 90.000000
_cell_angle_gamma 90.000000
_cell_volume 6547.417212
_symmetry_space_group_name_H-M "I M M M"
_symmetry_group_IT_number 71
_symmetry_cell_setting 'orthorhombic'
loop_
_space_group_symop_operation_xyz
x,y,z
-x,-y,z
x,-y,-z
-x,y,-z
-x,-y,-z
x,y,-z
-x,y,z
x,-y,z
1/2+x,1/2+y,1/2+z
1/2-x,1/2-y,1/2+z
1/2+x,1/2-y,1/2-z
1/2-x,1/2+y,1/2-z
1/2-x,1/2-y,1/2-z
1/2+x,1/2+y,1/2-z
1/2-x,1/2+y,1/2+z
1/2+x,1/2-y,1/2+z
loop_
_atom_site_type_symbol
_atom_site_label
_atom_site_fract_x
_atom_site_fract_y
_atom_site_fract_z
Si Si1 0.118763 0.891245 0.668133
Si Si2 0.381393 0.500000 0.800602
Si Si3 0.302544 0.672283 0.706979
Si Si4 0.381168 0.699840 0.922575
Si Si5 0.383929 0.235256 0.211238
Si Si6 0.119429 0.000000 0.140979
Si Si7 0.618156 0.608353 0.417794
O O1 0.169881 0.873563 0.740836
O O2 0.154133 0.856849 0.601733
O O3 0.000000 0.885554 0.679989
O O4 0.152242 0.949836 0.655325
O O5 0.500000 0.500000 0.791983
O O6 0.336220 0.500000 0.721041
O O7 0.366063 0.723598 0.725734
O O8 0.184384 0.684990 0.718807
O O9 0.325425 0.652307 0.627597
O O10 0.500000 0.700900 0.928522
O O11 0.347342 0.740380 0.863731
O O12 0.332934 0.711824 0.000000
O O13 0.500000 0.218681 0.210894
O O14 0.157678 0.948670 0.101431
O O15 0.000000 0.000000 0.140168
O O16 0.642739 0.619186 0.500000
O O17 0.500000 0.612551 0.401676
#
# Coordination Sequence:
#
# PCOD8287003 Si02
#       7
#    16   8  16  16  16   8  16
#     4   9  15  24  39  59  80 102 129 156 188 232
#     4   9  14  21  37  57  79 104 128 156 187 229
#     4  10  17  27  42  58  77 103 133 162 199 233
#     4   8  14  25  39  53  73 101 128 155 186 220
#     4   9  18  29  42  58  76 100 134 169 197 230
#     4   9  15  24  37  55  82 110 131 156 192 235
#     4  10  18  26  38  59  86 109 130 160 197 238
#
# _framework density 14.662269999999999
#
# number of rings (size 3 to 8) (size 9 to 14) (size 15 to 20)
#    0.000    2.833    1.667    2.750    0.000    1.667 
#    0.000    0.417    0.000    2.500    0.000    2.333 
#    0.000    1.333    0.000    0.000    0.000   15.000 
#
# Total GULP energy -594807.758701 kJ/mol
# GULP energy per Si atom -12391.828306 kJ/mol
# Density = 1.462890 g / cm^3
# Si number density = 14.662270 Si / 1000 Ang^3
#
#
#
# Elastic Constant Matrix: (Units=GPa)
#
#
# Indices 1 2 3 4 5 6 
#
# 1 46.5590 21.8286 10.3888 0.0000 0.0000 0.0000
# 2 21.8286 59.7057 14.9575 0.0000 0.0000 0.0000
# 3 10.3888 14.9575 63.7977 0.0000 0.0000 0.0000
# 4 0.0000 0.0000 0.0000 11.9704 0.0000 0.0000
# 5 0.0000 0.0000 0.0000 0.0000 9.2699 0.0000
# 6 0.0000 0.0000 0.0000 0.0000 0.0000 15.4419
#
#
#
# Elastic Compliance Matrix: (Units=1/GPa)
#
#
# Indices 1 2 3 4 5 6 
#
# 1 0.026195 -0.009039 -0.002146 0.000000 0.000000 0.000000
# 2 -0.009039 0.020913 -0.003431 0.000000 0.000000 0.000000
# 3 -0.002146 -0.003431 0.016828 0.000000 0.000000 0.000000
# 4 0.000000 0.000000 0.000000 0.083539 0.000000 0.000000
# 5 0.000000 0.000000 0.000000 0.000000 0.107877 0.000000
# 6 0.000000 0.000000 0.000000 0.000000 0.000000 0.064759
#
#
# Mechanical properties :
#
#
# Convention : Reuss Voigt Hill
#
# Bulk Modulus (GPa) = 28.81582 29.37911 29.09747
# Shear Modulus (GPa) = 13.85377 15.52894 14.69136
#
# Velocity S-wave (km/s) = 3.07719 3.25793 3.16885
# Velocity P-wave (km/s) = 5.68517 5.85088 5.76862
#
# Compressibility (1/GPa) = 0.03470316
#
# Stress axis : x y z
#
# Youngs Moduli (GPa) = 38.17523 47.81671 59.42301
#
# Poissons Ratio (x) = 0.43223 0.12754
# Poissons Ratio (y) = 0.34508 0.20389
# Poissons Ratio (z) = 0.08194 0.16407
#
# Static dielectric constant tensor:
#      x y z
#    x 2.438910 0.000000 0.000000 
#    y 0.000000 2.952530 0.000000 
#    z 0.000000 0.000000 3.236350 
# 
# 
# High freq. dielectric constant tensor:
#      x y z
#    x 1.502570 0.000000 0.000000 
#    y 0.000000 1.560100 0.000000 
#    z 0.000000 0.000000 1.560590 
# 
# From -- ./inp_files/45368.got.cif
#   From: 2010.06.25/outbox.cif.g09.slc.cpg/sg71_23_cif.got.tgz:45368.got - 2010.06.28 04:59:45.
