data_PCOD8287714
_publ_section_title
;
Structure prediction by ZEFSAII (Michael W. Deem and Ramdas Pophale) SiO2 
 PCOD8287714
Probable space group: I M M M
;
_chemical_formula_sum "Si O2"
_cell_formula_units_Z 104
_cell_length_a 27.483096
_cell_length_b 21.778648
_cell_length_c 9.335343
_cell_angle_alpha 90.000000
_cell_angle_beta 90.000000
_cell_angle_gamma 90.000000
_cell_volume 5587.619830
_symmetry_space_group_name_H-M "I M M M"
_symmetry_group_IT_number 71
_symmetry_cell_setting 'orthorhombic'
loop_
_space_group_symop_operation_xyz
x,y,z
-x,-y,z
x,-y,-z
-x,y,-z
-x,-y,-z
x,y,-z
-x,y,z
x,-y,z
1/2+x,1/2+y,1/2+z
1/2-x,1/2-y,1/2+z
1/2+x,1/2-y,1/2-z
1/2-x,1/2+y,1/2-z
1/2-x,1/2-y,1/2-z
1/2+x,1/2+y,1/2-z
1/2-x,1/2+y,1/2+z
1/2+x,1/2-y,1/2+z
loop_
_atom_site_type_symbol
_atom_site_label
_atom_site_fract_x
_atom_site_fract_y
_atom_site_fract_z
Si Si1 0.149574 0.928455 0.167815
Si Si2 0.945821 0.140896 0.830930
Si Si3 0.905353 0.730748 0.834064
Si Si4 0.274485 0.343803 0.835737
Si Si5 0.189473 0.294798 0.663298
Si Si6 0.555087 0.105429 0.653347
Si Si7 0.558267 0.000000 0.844695
O O1 0.093935 0.910657 0.211035
O O2 0.187055 0.889212 0.261255
O O3 0.156994 0.000000 0.201940
O O4 0.158317 0.913971 0.000000
O O5 0.927006 0.206281 0.769821
O O6 0.000000 0.125386 0.768021
O O7 0.950740 0.146455 0.000000
O O8 0.860847 0.704377 0.745287
O O9 0.945187 0.677724 0.811022
O O10 0.890077 0.740481 0.000000
O O11 0.224771 0.343032 0.744435
O O12 0.293058 0.274820 0.832755
O O13 0.265629 0.365358 0.000000
O O14 0.183747 0.317489 0.500000
O O15 0.581490 0.094986 0.500000
O O16 0.500000 0.083466 0.641192
O O17 0.579841 0.061062 0.769222
O O18 0.500000 0.000000 0.854835
O O19 0.582081 0.000000 0.000000
#
# Coordination Sequence:
#
# PCOD8287714 Si02
#       7
#    16  16  16  16  16  16   8
#     4  10  20  34  55  82 112 148 189 233 280 328
#     4   9  17  30  50  78 113 149 187 232 275 318
#     4  10  18  30  51  78 108 141 177 219 270 323
#     4  10  20  35  56  80 105 135 173 216 266 324
#     4  10  20  33  54  81 107 133 166 213 269 326
#     4   9  17  29  47  71  98 131 172 214 256 307
#     4   9  17  29  45  65  91 127 169 209 251 301
#
# _framework density 18.612576000000001
#
# number of rings (size 3 to 8) (size 9 to 14) (size 15 to 20)
#    0.000    2.385    1.538    1.615    0.000    5.231 
#    0.000    1.538    1.692    2.769    0.000    1.077 
#    0.000    0.000    0.000    0.000    0.000    0.000 
#
# Total GULP energy -644339.235801 kJ/mol
# GULP energy per Si atom -12391.139150 kJ/mol
# Density = 1.857021 g / cm^3
# Si number density = 18.612576 Si / 1000 Ang^3
#
#
#
# Elastic Constant Matrix: (Units=GPa)
#
#
# Indices 1 2 3 4 5 6 
#
# 1 102.2183 27.0121 44.2814 0.0000 0.0000 0.0000
# 2 27.0121 66.5285 37.0734 0.0000 0.0000 0.0000
# 3 44.2814 37.0734 101.1380 0.0000 0.0000 0.0000
# 4 0.0000 0.0000 0.0000 16.3931 0.0000 0.0000
# 5 0.0000 0.0000 0.0000 0.0000 22.9823 0.0000
# 6 0.0000 0.0000 0.0000 0.0000 0.0000 24.9222
#
#
#
# Elastic Compliance Matrix: (Units=1/GPa)
#
#
# Indices 1 2 3 4 5 6 
#
# 1 0.012402 -0.002525 -0.004504 0.000000 0.000000 0.000000
# 2 -0.002525 0.019404 -0.006007 0.000000 0.000000 0.000000
# 3 -0.004504 -0.006007 0.014061 0.000000 0.000000 0.000000
# 4 0.000000 0.000000 0.000000 0.061001 0.000000 0.000000
# 5 0.000000 0.000000 0.000000 0.000000 0.043512 0.000000
# 6 0.000000 0.000000 0.000000 0.000000 0.000000 0.040125
#
#
# Mechanical properties :
#
#
# Convention : Reuss Voigt Hill
#
# Bulk Modulus (GPa) = 50.52054 54.06872 52.29463
# Shear Modulus (GPa) = 22.40384 23.62738 23.01561
#
# Velocity S-wave (km/s) = 3.47319 3.56677 3.52029
# Velocity P-wave (km/s) = 6.57923 6.78787 6.68436
#
# Compressibility (1/GPa) = 0.01979393
#
# Stress axis : x y z
#
# Youngs Moduli (GPa) = 80.63526 51.53572 71.11628
#
# Poissons Ratio (x) = 0.13015 0.32031
# Poissons Ratio (y) = 0.20363 0.42720
# Poissons Ratio (z) = 0.36319 0.30958
#
# Static dielectric constant tensor:
#      x y z
#    x 3.409770 0.000000 0.000000 
#    y 0.000000 3.376120 0.000000 
#    z 0.000000 0.000000 3.513690 
# 
# 
# High freq. dielectric constant tensor:
#      x y z
#    x 1.705090 0.000000 0.000000 
#    y 0.000000 1.714540 0.000000 
#    z 0.000000 0.000000 1.708010 
# 
# From -- ./inp_files/17044.got.cif
#   From: 2010.06.25/outbox.cif.g09.slc.cpg/sg71_9_cif.got.tgz:17044.got - 2010.06.28 04:59:45.
