data_PCOD8287683
_publ_section_title
;
Structure prediction by ZEFSAII (Michael W. Deem and Ramdas Pophale) SiO2 
 PCOD8287683
Probable space group: I M M M
;
_chemical_formula_sum "Si O2"
_cell_formula_units_Z 104
_cell_length_a 9.320133
_cell_length_b 27.980580
_cell_length_c 22.964150
_cell_angle_alpha 90.000000
_cell_angle_beta 90.000000
_cell_angle_gamma 90.000000
_cell_volume 5988.653661
_symmetry_space_group_name_H-M "I M M M"
_symmetry_group_IT_number 71
_symmetry_cell_setting 'orthorhombic'
loop_
_space_group_symop_operation_xyz
x,y,z
-x,-y,z
x,-y,-z
-x,y,-z
-x,-y,-z
x,y,-z
-x,y,z
x,-y,z
1/2+x,1/2+y,1/2+z
1/2-x,1/2-y,1/2+z
1/2+x,1/2-y,1/2-z
1/2-x,1/2+y,1/2-z
1/2-x,1/2-y,1/2-z
1/2+x,1/2+y,1/2-z
1/2-x,1/2+y,1/2+z
1/2+x,1/2-y,1/2+z
loop_
_atom_site_type_symbol
_atom_site_label
_atom_site_fract_x
_atom_site_fract_y
_atom_site_fract_z
Si Si1 0.829222 0.114365 0.615023
Si Si2 0.329449 0.446622 0.224732
Si Si3 0.659971 0.601605 0.340875
Si Si4 0.159834 0.200353 0.207504
Si Si5 0.169892 0.944278 0.500000
Si Si6 0.830713 0.695058 0.822063
Si Si7 0.835479 0.446749 0.565133
O O1 0.776542 0.081279 0.667964
O O2 0.779333 0.086523 0.556355
O O3 0.748807 0.165275 0.626155
O O4 0.000000 0.123455 0.614235
O O5 0.500000 0.446658 0.225024
O O6 0.266849 0.500000 0.222006
O O7 0.270223 0.420997 0.282623
O O8 0.500000 0.580810 0.348405
O O9 0.658825 0.658632 0.339475
O O10 0.750630 0.590418 0.396961
O O11 0.202707 0.248157 0.171927
O O12 0.267891 0.183441 0.258179
O O13 0.000000 0.206633 0.235149
O O14 0.000000 0.948117 0.500000
O O15 0.228942 0.000000 0.500000
O O16 0.000000 0.683590 0.824538
O O17 0.774517 0.444320 0.500000
O O18 0.814799 0.500000 0.590454
O O19 0.000000 0.431725 0.565922
#
# Coordination Sequence:
#
# PCOD8287683 Si02
#       7
#    16  16  16  16   8  16  16
#     4  10  18  32  52  74 104 136 170 214 259 305
#     4   9  16  26  44  71 101 129 156 196 249 296
#     4  10  18  30  50  75  99 125 164 208 248 291
#     4   9  18  33  51  75 104 131 162 205 254 299
#     4   9  18  32  55  83 103 133 185 231 264 307
#     4  10  19  31  51  76 102 132 167 203 248 310
#     4   9  19  35  51  68  97 135 166 194 238 295
#
# _framework density 17.366174999999998
#
# number of rings (size 3 to 8) (size 9 to 14) (size 15 to 20)
#    0.000    2.538    1.538    1.846    0.000    4.308 
#    0.000    1.154    1.692    2.308    0.000    0.000 
#    0.000    0.000    0.000    0.000    0.000    0.000 
#
# Total GULP energy -644403.545707 kJ/mol
# GULP energy per Si atom -12392.375879 kJ/mol
# Density = 1.732665 g / cm^3
# Si number density = 17.366175 Si / 1000 Ang^3
#
#
#
# Elastic Constant Matrix: (Units=GPa)
#
#
# Indices 1 2 3 4 5 6 
#
# 1 49.3719 34.6186 38.6639 0.0000 0.0000 0.0000
# 2 34.6186 102.2887 59.1942 0.0000 0.0000 0.0000
# 3 38.6639 59.1942 104.4943 0.0001 0.0000 0.0000
# 4 0.0000 0.0000 0.0001 32.8800 0.0000 0.0000
# 5 0.0000 0.0000 0.0000 0.0000 18.2790 0.0000
# 6 0.0000 0.0000 0.0000 0.0000 0.0000 26.0905
#
#
#
# Elastic Compliance Matrix: (Units=1/GPa)
#
#
# Indices 1 2 3 4 5 6 
#
# 1 0.030568 -0.005653 -0.008108 0.000000 0.000000 0.000000
# 2 -0.005653 0.015590 -0.006739 0.000000 0.000000 0.000000
# 3 -0.008108 -0.006739 0.016388 0.000000 0.000000 0.000000
# 4 0.000000 0.000000 0.000000 0.030414 0.000000 0.000000
# 5 0.000000 0.000000 0.000000 0.000000 0.054708 0.000000
# 6 0.000000 0.000000 0.000000 0.000000 0.000000 0.038328
#
#
# Mechanical properties :
#
#
# Convention : Reuss Voigt Hill
#
# Bulk Modulus (GPa) = 46.41711 57.90092 52.15902
# Shear Modulus (GPa) = 21.35133 23.69510 22.52322
#
# Velocity S-wave (km/s) = 3.51020 3.69784 3.60524
# Velocity P-wave (km/s) = 6.57382 7.18649 6.88697
#
# Compressibility (1/GPa) = 0.02154378
#
# Stress axis : x y z
#
# Youngs Moduli (GPa) = 32.71413 64.14486 61.02141
#
# Poissons Ratio (x) = 0.36264 0.49475
# Poissons Ratio (y) = 0.18495 0.41125
# Poissons Ratio (z) = 0.26524 0.43230
#
# Static dielectric constant tensor:
#      x y z
#    x 3.018220 0.000000 0.000000 
#    y 0.000000 3.451030 0.000000 
#    z 0.000000 0.000000 3.115650 
# 
# 
# High freq. dielectric constant tensor:
#      x y z
#    x 1.644070 0.000000 0.000000 
#    y 0.000000 1.680940 0.000000 
#    z 0.000000 0.000000 1.650220 
# 
# From -- ./inp_files/57963.got.cif
#   From: 2010.06.25/outbox.cif.g09.slc.cpg/sg71_29_cif.got.tgz:57963.got - 2010.06.28 04:59:45.
