data_PCOD8287065
_publ_section_title
;
Structure prediction by ZEFSAII (Michael W. Deem and Ramdas Pophale) SiO2 
 PCOD8287065
Probable space group: I M M M
;
_chemical_formula_sum "Si O2"
_cell_formula_units_Z 104
_cell_length_a 9.285199
_cell_length_b 22.589051
_cell_length_c 29.846151
_cell_angle_alpha 90.000000
_cell_angle_beta 90.000000
_cell_angle_gamma 90.000000
_cell_volume 6260.046134
_symmetry_space_group_name_H-M "I M M M"
_symmetry_group_IT_number 71
_symmetry_cell_setting 'orthorhombic'
loop_
_space_group_symop_operation_xyz
x,y,z
-x,-y,z
x,-y,-z
-x,y,-z
-x,-y,-z
x,y,-z
-x,y,z
x,-y,z
1/2+x,1/2+y,1/2+z
1/2-x,1/2-y,1/2+z
1/2+x,1/2-y,1/2-z
1/2-x,1/2+y,1/2-z
1/2-x,1/2-y,1/2-z
1/2+x,1/2+y,1/2-z
1/2-x,1/2+y,1/2+z
1/2+x,1/2-y,1/2+z
loop_
_atom_site_type_symbol
_atom_site_label
_atom_site_fract_x
_atom_site_fract_y
_atom_site_fract_z
Si Si1 0.329182 0.565708 0.806353
Si Si2 0.670790 0.500000 0.050133
Si Si3 0.339479 0.429454 0.290842
Si Si4 0.329394 0.383183 0.898637
Si Si5 0.666201 0.161353 0.051198
Si Si6 0.831292 0.720188 0.948249
Si Si7 0.331464 0.067096 0.875859
O O1 0.500000 0.559299 0.805096
O O2 0.263946 0.500000 0.815066
O O3 0.278405 0.591560 0.757920
O O4 0.284638 0.609531 0.846508
O O5 0.500000 0.500000 0.049346
O O6 0.724863 0.441481 0.075351
O O7 0.734858 0.500000 0.000000
O O8 0.500000 0.404530 0.298924
O O9 0.341161 0.500000 0.289985
O O10 0.240258 0.405938 0.331058
O O11 0.500000 0.373406 0.904786
O O12 0.244885 0.327523 0.917258
O O13 0.500000 0.178923 0.059501
O O14 0.765316 0.216470 0.064218
O O15 0.713944 0.106151 0.081615
O O16 0.691363 0.141836 0.000000
O O17 0.000000 0.721499 0.937915
O O18 0.799635 0.704667 0.000000
O O19 0.500000 0.068958 0.867490
O O20 0.278723 0.000000 0.885176
#
# Coordination Sequence:
#
# PCOD8287065 Si02
#       7
#    16   8  16  16  16  16  16
#     4   8  13  24  43  68  94 120 154 195 233 268
#     4   9  16  24  39  67  95 117 147 191 238 277
#     4   8  14  25  43  66  94 127 157 182 216 270
#     4  10  17  28  48  70  92 119 156 200 237 274
#     4   9  18  33  52  71  91 120 157 190 221 267
#     4  10  21  35  48  64  90 124 159 194 233 276
#     4   9  17  29  47  74 103 123 143 179 229 276
#
# _framework density 16.613295000000001
#
# number of rings (size 3 to 8) (size 9 to 14) (size 15 to 20)
#    0.000    3.000    0.769    1.846    0.000    2.462 
#    0.000    2.692    0.000    3.231    0.000    4.308 
#    0.000    0.000    0.000    0.000    0.000    0.000 
#
# Total GULP energy -644560.307726 kJ/mol
# GULP energy per Si atom -12395.390533 kJ/mol
# Density = 1.657548 g / cm^3
# Si number density = 16.613295 Si / 1000 Ang^3
#
#
#
# Elastic Constant Matrix: (Units=GPa)
#
#
# Indices 1 2 3 4 5 6 
#
# 1 49.5149 42.4483 50.4388 0.0000 0.0000 0.0000
# 2 42.4483 89.0062 77.3330 0.0000 0.0000 0.0000
# 3 50.4388 77.3330 150.6918 0.0000 0.0000 0.0000
# 4 0.0000 0.0000 0.0000 16.9420 0.0000 0.0000
# 5 0.0000 0.0000 0.0000 0.0000 24.6885 0.0000
# 6 0.0000 0.0000 0.0000 0.0000 0.0000 13.2830
#
#
#
# Elastic Compliance Matrix: (Units=1/GPa)
#
#
# Indices 1 2 3 4 5 6 
#
# 1 0.036942 -0.012407 -0.005998 0.000000 0.000000 0.000000
# 2 -0.012407 0.024442 -0.008391 0.000000 0.000000 0.000000
# 3 -0.005998 -0.008391 0.012950 0.000000 0.000000 0.000000
# 4 0.000000 0.000000 0.000000 0.059025 0.000000 0.000000
# 5 0.000000 0.000000 0.000000 0.000000 0.040505 0.000000
# 6 0.000000 0.000000 0.000000 0.000000 0.000000 0.075284
#
#
# Mechanical properties :
#
#
# Convention : Reuss Voigt Hill
#
# Bulk Modulus (GPa) = 48.20906 69.96145 59.08526
# Shear Modulus (GPa) = 16.14708 18.91557 17.53133
#
# Velocity S-wave (km/s) = 3.12097 3.37795 3.25200
# Velocity P-wave (km/s) = 6.48604 7.57741 7.05287
#
# Compressibility (1/GPa) = 0.02074299
#
# Stress axis : x y z
#
# Youngs Moduli (GPa) = 27.06942 40.91235 77.22151
#
# Poissons Ratio (x) = 0.50759 0.46318
# Poissons Ratio (y) = 0.33584 0.64795
# Poissons Ratio (z) = 0.16236 0.34329
#
# Static dielectric constant tensor:
#      x y z
#    x 2.920010 0.000000 0.000000 
#    y 0.000000 2.938370 0.000000 
#    z 0.000000 0.000000 3.526260 
# 
# 
# High freq. dielectric constant tensor:
#      x y z
#    x 1.613630 0.000000 0.000000 
#    y 0.000000 1.610690 0.000000 
#    z 0.000000 0.000000 1.651800 
# 
# From -- ./inp_files/68434.got.cif
#   From: 2010.06.25/outbox.cif.g09.slc.cpg/sg71_35_cif.got.tgz:68434.got - 2010.06.28 04:59:45.
