data_PCOD8287068
_publ_section_title
;
Structure prediction by ZEFSAII (Michael W. Deem and Ramdas Pophale) SiO2 
 PCOD8287068
Probable space group: I M M M
;
_chemical_formula_sum "Si O2"
_cell_formula_units_Z 128
_cell_length_a 17.915991
_cell_length_b 22.780001
_cell_length_c 19.892426
_cell_angle_alpha 90.000000
_cell_angle_beta 90.000000
_cell_angle_gamma 90.000000
_cell_volume 8118.622080
_symmetry_space_group_name_H-M "I M M M"
_symmetry_group_IT_number 71
_symmetry_cell_setting 'orthorhombic'
loop_
_space_group_symop_operation_xyz
x,y,z
-x,-y,z
x,-y,-z
-x,y,-z
-x,-y,-z
x,y,-z
-x,y,z
x,-y,z
1/2+x,1/2+y,1/2+z
1/2-x,1/2-y,1/2+z
1/2+x,1/2-y,1/2-z
1/2-x,1/2+y,1/2-z
1/2-x,1/2-y,1/2-z
1/2+x,1/2+y,1/2-z
1/2-x,1/2+y,1/2+z
1/2+x,1/2-y,1/2+z
loop_
_atom_site_type_symbol
_atom_site_label
_atom_site_fract_x
_atom_site_fract_y
_atom_site_fract_z
Si Si1 0.910965 0.853022 0.216431
Si Si2 0.661296 0.248430 0.200622
Si Si3 0.414514 0.324112 0.427883
Si Si4 0.704096 0.831238 0.687920
Si Si5 0.682286 0.565679 0.803885
Si Si6 0.415156 0.185681 0.423931
Si Si7 0.585461 0.266864 0.927409
Si Si8 0.415093 0.596363 0.923104
O O1 0.884657 0.794950 0.255187
O O2 0.879562 0.852719 0.139392
O O3 0.878194 0.911028 0.250502
O O4 0.000000 0.854643 0.218994
O O5 0.666424 0.187356 0.241410
O O6 0.739374 0.276755 0.175470
O O7 0.620685 0.229092 0.132133
O O8 0.376849 0.343246 0.500000
O O9 0.500000 0.343406 0.431294
O O10 0.408364 0.254939 0.419700
O O11 0.745157 0.893242 0.695761
O O12 0.644314 0.840829 0.628431
O O13 0.706998 0.500000 0.783761
O O14 0.643184 0.562373 0.876767
O O15 0.396460 0.164164 0.500000
O O16 0.500000 0.166402 0.404933
O O17 0.500000 0.249949 0.933028
O O18 0.595677 0.334962 0.908749
O O19 0.623592 0.253703 0.000000
O O20 0.500000 0.577790 0.906024
O O21 0.396812 0.580730 0.000000
#
# Coordination Sequence:
#
# PCOD8287068 Si02
#       8
#    16  16  16  16  16  16  16  16
#     4  10  17  28  49  73  98 123 152 190 230 275
#     4  10  18  28  44  69  98 125 154 188 227 282
#     4   8  14  25  43  69  98 121 143 179 230 283
#     4  10  20  31  45  65  93 123 157 193 238 274
#     4  11  23  35  46  62  92 131 169 200 226 264
#     4   9  17  29  47  72  95 115 145 187 238 292
#     4   9  16  27  45  70 101 130 149 175 223 279
#     4   9  17  30  47  67  94 128 163 196 225 258
#
# _framework density 15.766222000000001
#
# number of rings (size 3 to 8) (size 9 to 14) (size 15 to 20)
#    0.000    2.500    3.750    2.250    0.000    2.750 
#    0.000    0.625    0.000    0.750    0.000    2.625 
#    0.000    0.000    0.000    1.375    0.000    0.000 
#
# Total GULP energy -792996.729710 kJ/mol
# GULP energy per Si atom -12390.573902 kJ/mol
# Density = 1.573034 g / cm^3
# Si number density = 15.766222 Si / 1000 Ang^3
#
#
#
# Elastic Constant Matrix: (Units=GPa)
#
#
# Indices 1 2 3 4 5 6 
#
# 1 67.3026 33.6533 51.3569 0.0000 0.0000 0.0000
# 2 33.6533 63.4800 40.2945 0.0000 0.0000 0.0000
# 3 51.3569 40.2945 133.2017 0.0000 0.0000 0.0000
# 4 0.0000 0.0000 0.0000 -28.5588 0.0000 0.0000
# 5 0.0000 0.0000 0.0000 0.0000 23.3744 0.0000
# 6 0.0000 0.0000 0.0000 0.0000 0.0000 10.6293
#
#
#
# Elastic Compliance Matrix: (Units=1/GPa)
#
#
# Indices 1 2 3 4 5 6 
#
# 1 0.024330 -0.008594 -0.006781 0.000000 0.000000 0.000000
# 2 -0.008594 0.022532 -0.003503 0.000000 0.000000 0.000000
# 3 -0.006781 -0.003503 0.011181 0.000000 0.000000 0.000000
# 4 0.000000 0.000000 0.000000 -0.035015 0.000000 0.000000
# 5 0.000000 0.000000 0.000000 0.000000 0.042782 0.000000
# 6 0.000000 0.000000 0.000000 0.000000 0.000000 0.094080
#
#
# Mechanical properties :
#
#
# Convention : Reuss Voigt Hill
#
# Bulk Modulus (GPa) = 49.28895 57.17708 53.23302
# Shear Modulus (GPa) = 24.46093 10.33427 17.39760
#
# Velocity S-wave (km/s) = 3.94315 2.56299 3.32546
# Velocity P-wave (km/s) = 7.21537 6.71587 6.97009
#
# Compressibility (1/GPa) = 0.02028852
#
# Stress axis : x y z
#
# Youngs Moduli (GPa) = 41.10188 44.38045 89.43434
#
# Poissons Ratio (x) = 0.38141 0.60643
# Poissons Ratio (y) = 0.35323 0.31326
# Poissons Ratio (z) = 0.27870 0.15545
#
# Static dielectric constant tensor:
#      x y z
#    x 2.969290 0.000000 0.000000 
#    y 0.000000 2.579680 0.000000 
#    z 0.000000 0.000000 3.306060 
# 
# 
# High freq. dielectric constant tensor:
#      x y z
#    x 1.590540 0.000000 0.000000 
#    y 0.000000 1.543310 0.000000 
#    z 0.000000 0.000000 1.625450 
# 
# From -- ./inp_files/54490.got.cif
#   From: 2010.06.25/outbox.cif.g09.slc.cpg/sg71_28_cif.got.tgz:54490.got - 2010.06.28 04:59:45.
