data_PCOD8287618
_publ_section_title
;
Structure prediction by ZEFSAII (Michael W. Deem and Ramdas Pophale) SiO2 
 PCOD8287618
Probable space group: I M M M
;
_chemical_formula_sum "Si O2"
_cell_formula_units_Z 104
_cell_length_a 9.603314
_cell_length_b 22.222255
_cell_length_c 27.521565
_cell_angle_alpha 90.000000
_cell_angle_beta 90.000000
_cell_angle_gamma 90.000000
_cell_volume 5873.302673
_symmetry_space_group_name_H-M "I M M M"
_symmetry_group_IT_number 71
_symmetry_cell_setting 'orthorhombic'
loop_
_space_group_symop_operation_xyz
x,y,z
-x,-y,z
x,-y,-z
-x,y,-z
-x,-y,-z
x,y,-z
-x,y,z
x,-y,z
1/2+x,1/2+y,1/2+z
1/2-x,1/2-y,1/2+z
1/2+x,1/2-y,1/2-z
1/2-x,1/2+y,1/2-z
1/2-x,1/2-y,1/2-z
1/2+x,1/2+y,1/2-z
1/2-x,1/2+y,1/2+z
1/2+x,1/2-y,1/2+z
loop_
_atom_site_type_symbol
_atom_site_label
_atom_site_fract_x
_atom_site_fract_y
_atom_site_fract_z
Si Si1 0.149471 0.099310 0.054853
Si Si2 0.152187 0.500000 0.441908
Si Si3 0.165691 0.648863 0.054588
Si Si4 0.835867 0.567297 0.857485
Si Si5 0.340128 0.831118 0.716109
Si Si6 0.339014 0.780318 0.816888
Si Si7 0.160328 0.222958 0.093380
O O1 0.269722 0.059148 0.079149
O O2 0.178892 0.170665 0.053802
O O3 0.000000 0.087100 0.080954
O O4 0.138458 0.076949 0.000000
O O5 0.139550 0.500000 0.500000
O O6 0.000000 0.500000 0.418124
O O7 0.222229 0.600075 0.093633
O O8 0.218326 0.714690 0.071525
O O9 0.000000 0.648958 0.053416
O O10 0.222457 0.634687 0.000000
O O11 0.770740 0.500000 0.853423
O O12 0.798709 0.605223 0.808718
O O13 0.000000 0.561933 0.862731
O O14 0.500000 0.814456 0.701195
O O15 0.326884 0.831219 0.774671
O O16 0.232394 0.782342 0.697106
O O17 0.500000 0.767850 0.829423
O O18 0.254626 0.803037 0.863140
O O19 0.000000 0.231074 0.110180
#
# Coordination Sequence:
#
# PCOD8287618 Si02
#       7
#    16   8  16  16  16  16  16
#     4   9  17  29  47  69  91 122 165 203 237 288
#     4   9  17  29  45  65  91 123 157 197 243 287
#     4   9  16  26  43  70 103 132 162 204 248 289
#     4   9  16  27  47  73  99 129 164 203 248 297
#     4   9  17  32  50  71  96 122 156 198 243 290
#     4  10  19  29  48  73  96 122 157 201 245 295
#     4  10  18  30  48  71 100 131 160 199 251 297
#
# _framework density 17.707242999999998
#
# number of rings (size 3 to 8) (size 9 to 14) (size 15 to 20)
#    0.000    2.692    1.538    1.154    0.000    4.308 
#    0.000    1.538    1.692    1.846    0.000    0.000 
#    0.000    1.231    0.000    0.000    0.000    0.000 
#
# Total GULP energy -644178.911313 kJ/mol
# GULP energy per Si atom -12388.055987 kJ/mol
# Density = 1.766694 g / cm^3
# Si number density = 17.707243 Si / 1000 Ang^3
#
#
#
# Elastic Constant Matrix: (Units=GPa)
#
#
# Indices 1 2 3 4 5 6 
#
# 1 70.4875 35.2051 27.7503 0.0000 0.0000 0.0000
# 2 35.2051 135.2031 45.2214 0.0000 0.0000 0.0000
# 3 27.7503 45.2214 88.4792 0.0000 0.0000 0.0000
# 4 0.0000 0.0000 0.0000 24.7530 0.0000 0.0000
# 5 0.0000 0.0000 0.0000 0.0000 19.8960 0.0000
# 6 0.0000 0.0000 0.0000 0.0000 0.0000 11.9827
#
#
#
# Elastic Compliance Matrix: (Units=1/GPa)
#
#
# Indices 1 2 3 4 5 6 
#
# 1 0.017289 -0.003242 -0.003765 0.000000 0.000000 0.000000
# 2 -0.003242 0.009529 -0.003854 0.000000 0.000000 0.000000
# 3 -0.003765 -0.003854 0.014453 0.000000 0.000000 0.000000
# 4 0.000000 0.000000 0.000000 0.040399 0.000000 0.000000
# 5 0.000000 0.000000 0.000000 0.000000 0.050261 0.000000
# 6 0.000000 0.000000 0.000000 0.000000 0.000000 0.083454
#
#
# Mechanical properties :
#
#
# Convention : Reuss Voigt Hill
#
# Bulk Modulus (GPa) = 51.15508 56.72482 53.93995
# Shear Modulus (GPa) = 20.52352 23.72589 22.12470
#
# Velocity S-wave (km/s) = 3.40817 3.66443 3.53862
# Velocity P-wave (km/s) = 6.66630 7.07166 6.87197
#
# Compressibility (1/GPa) = 0.01954840
#
# Stress axis : x y z
#
# Youngs Moduli (GPa) = 57.84147 104.93790 69.19215
#
# Poissons Ratio (x) = 0.34025 0.26052
# Poissons Ratio (y) = 0.18754 0.26663
# Poissons Ratio (z) = 0.21778 0.40438
#
# Static dielectric constant tensor:
#      x y z
#    x 3.187440 0.000000 0.000000 
#    y 0.000000 3.341400 0.000000 
#    z 0.000000 0.000000 3.398260 
# 
# 
# High freq. dielectric constant tensor:
#      x y z
#    x 1.651470 0.000000 0.000000 
#    y 0.000000 1.676930 0.000000 
#    z 0.000000 0.000000 1.668800 
# 
# From -- ./inp_files/63526.got.cif
#   From: 2010.06.25/outbox.cif.g09.slc.cpg/sg71_32_cif.got.tgz:63526.got - 2010.06.28 04:59:45.
