data_PCOD8287444
_publ_section_title
;
Structure prediction by ZEFSAII (Michael W. Deem and Ramdas Pophale) SiO2 
 PCOD8287444
Probable space group: I M M M
;
_chemical_formula_sum "Si O2"
_cell_formula_units_Z 120
_cell_length_a 34.215985
_cell_length_b 9.714968
_cell_length_c 22.112513
_cell_angle_alpha 90.000000
_cell_angle_beta 90.000000
_cell_angle_gamma 90.000000
_cell_volume 7350.358517
_symmetry_space_group_name_H-M "I M M M"
_symmetry_group_IT_number 71
_symmetry_cell_setting 'orthorhombic'
loop_
_space_group_symop_operation_xyz
x,y,z
-x,-y,z
x,-y,-z
-x,y,-z
-x,-y,-z
x,y,-z
-x,y,z
x,-y,z
1/2+x,1/2+y,1/2+z
1/2-x,1/2-y,1/2+z
1/2+x,1/2-y,1/2-z
1/2-x,1/2+y,1/2-z
1/2-x,1/2-y,1/2-z
1/2+x,1/2+y,1/2-z
1/2-x,1/2+y,1/2+z
1/2+x,1/2-y,1/2+z
loop_
_atom_site_type_symbol
_atom_site_label
_atom_site_fract_x
_atom_site_fract_y
_atom_site_fract_z
Si Si1 0.390719 0.163135 0.777504
Si Si2 0.453966 0.850506 0.000000
Si Si3 0.399459 0.836134 0.358791
Si Si4 0.953952 0.153813 0.931969
Si Si5 0.762802 0.658564 0.836647
Si Si6 0.175304 0.663233 0.067723
Si Si7 0.196840 0.658813 0.710321
Si Si8 0.955822 0.334902 0.630563
O O1 0.396808 0.217738 0.709777
O O2 0.347708 0.208155 0.800082
O O3 0.424701 0.223893 0.820930
O O4 0.393092 0.000000 0.776955
O O5 0.443259 0.775387 0.936265
O O6 0.500000 0.872681 0.000000
O O7 0.433198 0.000000 0.000000
O O8 0.437541 0.767756 0.386973
O O9 0.362200 0.780944 0.396198
O O10 0.403435 0.000000 0.362122
O O11 0.000000 0.162805 0.927529
O O12 0.939873 0.000000 0.914020
O O13 0.940042 0.187862 0.000000
O O14 0.749820 0.500000 0.840422
O O15 0.785570 0.706807 0.896719
O O16 0.791812 0.681726 0.780232
O O17 0.724064 0.750079 0.832661
O O18 0.172612 0.500000 0.065357
O O19 0.176475 0.725752 0.000000
O O20 0.202337 0.500000 0.692077
O O21 0.954744 0.500000 0.628109
O O22 0.000000 0.286692 0.647895
#
# Coordination Sequence:
#
# PCOD8287444 Si02
#       8
#    16   8  16  16  16  16  16  16
#     4   9  16  26  41  62  92 120 141 175 228 274
#     4   7  10  18  32  50  74 106 147 183 201 235
#     4  10  18  29  46  70  93 113 146 191 232 272
#     4   9  19  35  49  60  83 123 162 191 227 275
#     4   9  16  28  46  65  83 110 149 182 211 258
#     4   9  16  27  45  67  89 114 146 186 229 267
#     4   9  16  28  45  64  88 116 141 173 218 265
#     4   8  13  21  35  56  81 112 148 180 211 255
#
# _framework density 16.325734000000001
#
# number of rings (size 3 to 8) (size 9 to 14) (size 15 to 20)
#    0.000    3.133    1.333    1.600    0.000    1.600 
#    0.000    3.333    1.467    1.200    0.000    0.000 
#    0.000    0.000    0.000    0.000    0.000   12.333 
#
# Total GULP energy -743555.469997 kJ/mol
# GULP energy per Si atom -12392.591167 kJ/mol
# Density = 1.628858 g / cm^3
# Si number density = 16.325734 Si / 1000 Ang^3
#
#
#
# Elastic Constant Matrix: (Units=GPa)
#
#
# Indices 1 2 3 4 5 6 
#
# 1 108.0848 29.5914 70.7181 0.0000 0.0000 0.0000
# 2 29.5914 29.3359 26.3980 0.0000 0.0000 0.0000
# 3 70.7181 26.3980 132.8026 0.0000 0.0000 0.0000
# 4 0.0000 0.0000 0.0000 11.3053 0.0000 0.0000
# 5 0.0000 0.0000 0.0000 0.0000 30.0938 0.0000
# 6 0.0000 0.0000 0.0000 0.0000 0.0000 21.8096
#
#
#
# Elastic Compliance Matrix: (Units=1/GPa)
#
#
# Indices 1 2 3 4 5 6 
#
# 1 0.016554 -0.010675 -0.006693 0.000000 0.000000 0.000000
# 2 -0.010675 0.048398 -0.003936 0.000000 0.000000 0.000000
# 3 -0.006693 -0.003936 0.011876 0.000000 0.000000 0.000000
# 4 0.000000 0.000000 0.000000 0.088454 0.000000 0.000000
# 5 0.000000 0.000000 0.000000 0.000000 0.033229 0.000000
# 6 0.000000 0.000000 0.000000 0.000000 0.000000 0.045851
#
#
# Mechanical properties :
#
#
# Convention : Reuss Voigt Hill
#
# Bulk Modulus (GPa) = 29.22267 58.18203 43.70235
# Shear Modulus (GPa) = 16.75729 22.20945 19.48337
#
# Velocity S-wave (km/s) = 3.20728 3.69235 3.45833
# Velocity P-wave (km/s) = 5.62620 7.34122 6.54017
#
# Compressibility (1/GPa) = 0.03422001
#
# Stress axis : x y z
#
# Youngs Moduli (GPa) = 60.40915 20.66211 84.20108
#
# Poissons Ratio (x) = 0.22057 0.56356
# Poissons Ratio (y) = 0.64489 0.33139
# Poissons Ratio (z) = 0.40432 0.08132
#
# Static dielectric constant tensor:
#      x y z
#    x 3.084190 0.000000 0.000000 
#    y 0.000000 2.660970 0.000000 
#    z 0.000000 0.000000 3.383640 
# 
# 
# High freq. dielectric constant tensor:
#      x y z
#    x 1.623750 0.000000 0.000000 
#    y 0.000000 1.574740 0.000000 
#    z 0.000000 0.000000 1.628320 
# 
# From -- ./inp_files/56828.got.cif
#   From: 2010.06.25/outbox.cif.g09.slc.cpg/sg71_29_cif.got.tgz:56828.got - 2010.06.28 04:59:45.
