data_PCOD8287134
_publ_section_title
;
Structure prediction by ZEFSAII (Michael W. Deem and Ramdas Pophale) SiO2 
 PCOD8287134
Probable space group: I M M M
;
_chemical_formula_sum "Si O2"
_cell_formula_units_Z 120
_cell_length_a 12.645806
_cell_length_b 19.082618
_cell_length_c 31.564410
_cell_angle_alpha 90.000000
_cell_angle_beta 90.000000
_cell_angle_gamma 90.000000
_cell_volume 7616.968288
_symmetry_space_group_name_H-M "I M M M"
_symmetry_group_IT_number 71
_symmetry_cell_setting 'orthorhombic'
loop_
_space_group_symop_operation_xyz
x,y,z
-x,-y,z
x,-y,-z
-x,y,-z
-x,-y,-z
x,y,-z
-x,y,z
x,-y,z
1/2+x,1/2+y,1/2+z
1/2-x,1/2-y,1/2+z
1/2+x,1/2-y,1/2-z
1/2-x,1/2+y,1/2-z
1/2-x,1/2-y,1/2-z
1/2+x,1/2+y,1/2-z
1/2-x,1/2+y,1/2+z
1/2+x,1/2-y,1/2+z
loop_
_atom_site_type_symbol
_atom_site_label
_atom_site_fract_x
_atom_site_fract_y
_atom_site_fract_z
Si Si1 0.325356 0.848116 0.893875
Si Si2 0.685608 0.419837 0.728965
Si Si3 0.877118 0.194539 0.296558
Si Si4 0.881599 0.348434 0.297727
Si Si5 0.619213 0.418388 0.635015
Si Si6 0.374257 0.577421 0.952804
Si Si7 0.500000 0.917245 0.950731
Si Si8 0.873685 0.806110 0.390335
O O1 0.380664 0.857301 0.848361
O O2 0.204559 0.876183 0.892809
O O3 0.393547 0.888580 0.928908
O O4 0.322025 0.766385 0.905823
O O5 0.662648 0.500000 0.742444
O O6 0.643131 0.367957 0.764511
O O7 0.811074 0.408272 0.724071
O O8 0.629069 0.400577 0.684878
O O9 0.833174 0.272037 0.283961
O O10 0.834359 0.173989 0.343064
O O11 0.000000 0.208294 0.301286
O O12 0.000000 0.359738 0.280866
O O13 0.500000 0.398443 0.620544
O O14 0.642216 0.500000 0.627932
O O15 0.500000 0.578635 0.950965
O O16 0.333506 0.500000 0.940066
O O17 0.326768 0.633589 0.920376
O O18 0.335472 0.596531 0.000000
O O19 0.500000 0.000000 0.945697
O O20 0.500000 0.894524 0.000000
O O21 0.000000 0.799468 0.393630
#
# Coordination Sequence:
#
# PCOD8287134 Si02
#       8
#    16  16  16  16  16  16   8  16
#     4  10  17  32  48  67  93 120 152 192 230 271
#     4  10  19  28  42  66  90 113 147 193 234 265
#     4   9  17  28  42  57  84 118 149 187 226 272
#     4   9  17  31  47  63  84 117 153 184 226 274
#     4   9  18  31  47  66  88 119 159 196 228 264
#     4   8  14  24  38  59  88 119 149 178 211 263
#     4  11  22  32  46  72 101 123 145 181 236 292
#     4   9  16  27  43  64  88 120 154 182 226 280
#
# _framework density 15.754300000000001
#
# number of rings (size 3 to 8) (size 9 to 14) (size 15 to 20)
#    0.000    2.733    1.333    2.400    0.000    2.667 
#    0.000    1.333    0.000    0.400    0.000    1.867 
#    0.000    0.533    0.000    1.467    0.000    0.933 
#
# Total GULP energy -743653.540879 kJ/mol
# GULP energy per Si atom -12394.225681 kJ/mol
# Density = 1.571844 g / cm^3
# Si number density = 15.754300 Si / 1000 Ang^3
#
#
#
# Elastic Constant Matrix: (Units=GPa)
#
#
# Indices 1 2 3 4 5 6 
#
# 1 65.5326 29.0506 19.9963 0.0000 0.0000 0.0000
# 2 29.0506 87.0791 44.7406 0.0000 0.0000 0.0000
# 3 19.9963 44.7406 59.5650 0.0000 0.0000 0.0000
# 4 0.0000 0.0000 0.0000 28.2198 0.0000 0.0000
# 5 0.0000 0.0000 0.0000 0.0000 14.1839 0.0000
# 6 0.0000 0.0000 0.0000 0.0000 0.0000 19.1066
#
#
#
# Elastic Compliance Matrix: (Units=1/GPa)
#
#
# Indices 1 2 3 4 5 6 
#
# 1 0.018136 -0.004759 -0.002514 0.000000 0.000000 0.000000
# 2 -0.004759 0.019950 -0.013387 0.000000 0.000000 0.000000
# 3 -0.002514 -0.013387 0.027688 0.000000 0.000000 0.000000
# 4 0.000000 0.000000 0.000000 0.035436 0.000000 0.000000
# 5 0.000000 0.000000 0.000000 0.000000 0.070503 0.000000
# 6 0.000000 0.000000 0.000000 0.000000 0.000000 0.052338
#
#
# Mechanical properties :
#
#
# Convention : Reuss Voigt Hill
#
# Bulk Modulus (GPa) = 40.89337 44.41684 42.65510
# Shear Modulus (GPa) = 18.28015 20.19467 19.23741
#
# Velocity S-wave (km/s) = 3.41005 3.58418 3.49820
# Velocity P-wave (km/s) = 6.44344 6.73670 6.59170
#
# Compressibility (1/GPa) = 0.02445384
#
# Stress axis : x y z
#
# Youngs Moduli (GPa) = 55.13812 50.12652 36.11728
#
# Poissons Ratio (x) = 0.23854 0.09080
# Poissons Ratio (y) = 0.26239 0.48350
# Poissons Ratio (z) = 0.13862 0.67104
#
# Static dielectric constant tensor:
#      x y z
#    x 2.797990 0.000000 0.000000 
#    y 0.000000 3.155980 0.000000 
#    z 0.000000 0.000000 2.941300 
# 
# 
# High freq. dielectric constant tensor:
#      x y z
#    x 1.571360 0.000000 0.000000 
#    y 0.000000 1.613740 0.000000 
#    z 0.000000 0.000000 1.585680 
# 
# From -- ./inp_files/56467.got.cif
#   From: 2010.06.25/outbox.cif.g09.slc.cpg/sg71_29_cif.got.tgz:56467.got - 2010.06.28 04:59:45.
