data_PCOD8287761
_publ_section_title
;
Structure prediction by ZEFSAII (Michael W. Deem and Ramdas Pophale) SiO2 
 PCOD8287761
Probable space group: I M M M
;
_chemical_formula_sum "Si O2"
_cell_formula_units_Z 72
_cell_length_a 8.643597
_cell_length_b 28.297805
_cell_length_c 17.150064
_cell_angle_alpha 90.000000
_cell_angle_beta 90.000000
_cell_angle_gamma 90.000000
_cell_volume 4194.816858
_symmetry_space_group_name_H-M "I M M M"
_symmetry_group_IT_number 71
_symmetry_cell_setting 'orthorhombic'
loop_
_space_group_symop_operation_xyz
x,y,z
-x,-y,z
x,-y,-z
-x,y,-z
-x,-y,-z
x,y,-z
-x,y,z
x,-y,z
1/2+x,1/2+y,1/2+z
1/2-x,1/2-y,1/2+z
1/2+x,1/2-y,1/2-z
1/2-x,1/2+y,1/2-z
1/2-x,1/2-y,1/2-z
1/2+x,1/2+y,1/2-z
1/2-x,1/2+y,1/2+z
1/2+x,1/2-y,1/2+z
loop_
_atom_site_type_symbol
_atom_site_label
_atom_site_fract_x
_atom_site_fract_y
_atom_site_fract_z
Si Si1 0.317836 0.445999 0.338992
Si Si2 0.682021 0.142101 0.774285
Si Si3 0.180894 0.796146 0.910990
Si Si4 0.316580 0.280951 0.819869
Si Si5 0.172631 0.444169 0.500000
O O1 0.500000 0.440339 0.332513
O O2 0.265814 0.500000 0.323563
O O3 0.235508 0.412570 0.275543
O O4 0.266036 0.427765 0.424089
O O5 0.500000 0.145719 0.766329
O O6 0.734615 0.167095 0.854352
O O7 0.758720 0.165748 0.697158
O O8 0.246324 0.742664 0.897994
O O9 0.000000 0.796937 0.891451
O O10 0.214197 0.810920 0.000000
O O11 0.500000 0.279339 0.823126
O O12 0.250000 0.250000 0.750000
O O13 0.160418 0.500000 0.500000
O O14 0.000000 0.421918 0.500000
#
# Coordination Sequence:
#
# PCOD8287761 Si02
#       5
#    16  16  16  16   8
#     4  10  20  33  47  63  87 119 155 194 234 273
#     4  11  21  32  48  67  92 123 158 194 231 277
#     4  10  20  33  49  69  94 122 154 191 231 276
#     4  10  18  31  49  67  91 119 151 188 231 278
#     4   9  17  29  43  59  81 111 147 187 229 267
#
# _framework density 17.16404
#
# number of rings (size 3 to 8) (size 9 to 14) (size 15 to 20)
#    0.000    1.889    0.000    8.333    1.556    4.444 
#    0.000    0.000    0.000    0.000    0.000    0.000 
#    0.000    0.889    0.000    9.333    0.000    4.000 
#
# Total GULP energy -446283.966280 kJ/mol
# GULP energy per Si atom -12396.776841 kJ/mol
# Density = 1.712497 g / cm^3
# Si number density = 17.164040 Si / 1000 Ang^3
#
#
#
# Elastic Constant Matrix: (Units=GPa)
#
#
# Indices 1 2 3 4 5 6 
#
# 1 109.3660 21.6258 9.4420 -0.0001 0.0000 0.0000
# 2 21.6258 80.1620 12.6356 -0.0001 0.0000 0.0000
# 3 9.4420 12.6356 18.0352 -0.0008 0.0001 0.0000
# 4 -0.0001 -0.0001 -0.0008 22.6853 0.0000 0.0000
# 5 0.0000 0.0000 0.0001 0.0000 22.2892 0.0000
# 6 0.0000 0.0000 0.0000 0.0000 0.0000 29.4945
#
#
#
# Elastic Compliance Matrix: (Units=1/GPa)
#
#
# Indices 1 2 3 4 5 6 
#
# 1 0.009875 -0.002079 -0.003714 0.000000 0.000000 0.000000
# 2 -0.002079 0.014461 -0.009043 0.000000 0.000000 0.000000
# 3 -0.003714 -0.009043 0.063727 0.000002 0.000000 0.000000
# 4 0.000000 0.000000 0.000002 0.044081 0.000000 0.000000
# 5 0.000000 0.000000 0.000000 0.000000 0.044865 0.000000
# 6 0.000000 0.000000 0.000000 0.000000 0.000000 0.033905
#
#
# Mechanical properties :
#
#
# Convention : Reuss Voigt Hill
#
# Bulk Modulus (GPa) = 17.12562 32.77445 24.95004
# Shear Modulus (GPa) = 19.22715 25.81780 22.52248
#
# Velocity S-wave (km/s) = 3.35057 3.88258 3.62635
# Velocity P-wave (km/s) = 4.99677 6.26383 5.66583
#
# Compressibility (1/GPa) = 0.05839204
#
# Stress axis : x y z
#
# Youngs Moduli (GPa) = 101.26303 69.15169 15.69196
#
# Poissons Ratio (x) = 0.14375 0.05827
# Poissons Ratio (y) = 0.21050 0.14190
# Poissons Ratio (z) = 0.37605 0.62535
#
# Static dielectric constant tensor:
#      x y z
#    x 3.344030 0.000000 0.000000 
#    y 0.000000 3.575120 0.000000 
#    z 0.000000 0.000000 3.360990 
# 
# 
# High freq. dielectric constant tensor:
#      x y z
#    x 1.685670 0.000000 0.000000 
#    y 0.000000 1.657720 0.000000 
#    z 0.000000 0.000000 1.609510 
# 
# From -- ./inp_files/42183.got.cif
#   From: 2010.06.25/outbox.cif.g09.slc.cpg/sg71_22_cif.got.tgz:42183.got - 2010.06.28 04:59:45.
