data_PCOD8287727
_publ_section_title
;
Structure prediction by ZEFSAII (Michael W. Deem and Ramdas Pophale) SiO2 
 PCOD8287727
Probable space group: I M M M
;
_chemical_formula_sum "Si O2"
_cell_formula_units_Z 112
_cell_length_a 18.533978
_cell_length_b 18.371222
_cell_length_c 18.374238
_cell_angle_alpha 90.000000
_cell_angle_beta 90.000000
_cell_angle_gamma 90.000000
_cell_volume 6256.277818
_symmetry_space_group_name_H-M "I M M M"
_symmetry_group_IT_number 71
_symmetry_cell_setting 'orthorhombic'
loop_
_space_group_symop_operation_xyz
x,y,z
-x,-y,z
x,-y,-z
-x,y,-z
-x,-y,-z
x,y,-z
-x,y,z
x,-y,z
1/2+x,1/2+y,1/2+z
1/2-x,1/2-y,1/2+z
1/2+x,1/2-y,1/2-z
1/2-x,1/2+y,1/2-z
1/2-x,1/2-y,1/2-z
1/2+x,1/2+y,1/2-z
1/2-x,1/2+y,1/2+z
1/2+x,1/2-y,1/2+z
loop_
_atom_site_type_symbol
_atom_site_label
_atom_site_fract_x
_atom_site_fract_y
_atom_site_fract_z
Si Si1 0.277432 0.418316 0.155932
Si Si2 0.919241 0.276681 0.156241
Si Si3 0.082242 0.683097 0.316052
Si Si4 0.707319 0.308507 0.583360
Si Si5 0.782993 0.414361 0.312835
Si Si6 0.655164 0.290705 0.083551
Si Si7 0.128583 0.418574 0.083700
O O1 0.308716 0.500000 0.161798
O O2 0.246153 0.392463 0.233431
O O3 0.341716 0.366307 0.128348
O O4 0.213994 0.413901 0.096721
O O5 0.901313 0.273394 0.241743
O O6 0.867326 0.223494 0.112446
O O7 0.914052 0.360890 0.132040
O O8 0.000000 0.248941 0.141125
O O9 0.135711 0.614678 0.323379
O O10 0.094224 0.739205 0.382158
O O11 0.000000 0.654258 0.318486
O O12 0.697742 0.332120 0.500000
O O13 0.729273 0.379946 0.628069
O O14 0.766906 0.246278 0.592267
O O15 0.784797 0.500000 0.324958
O O16 0.634603 0.305207 0.000000
O O17 0.101127 0.500000 0.103923
O O18 0.113491 0.400294 0.000000
#
# Coordination Sequence:
#
# PCOD8287727 Si02
#       7
#    16  16  16  16  16  16  16
#     4  10  18  30  52  80 106 136 174 213 253 306
#     4  11  21  33  52  76 107 146 181 213 254 308
#     4  10  21  35  53  79 108 139 177 217 259 315
#     4  10  20  34  52  75 103 136 179 226 266 308
#     4  10  20  35  56  79 104 137 176 219 268 316
#     4  10  19  33  54  76 103 139 176 219 268 311
#     4  10  19  30  45  71 109 145 175 209 250 300
#
# _framework density 17.902018000000002
#
# number of rings (size 3 to 8) (size 9 to 14) (size 15 to 20)
#    0.000    1.857    2.857    1.714    0.000    5.429 
#    0.000    2.143    0.000    0.857    0.000   10.000 
#    0.000    0.000    0.000    0.000    0.000    0.000 
#
# Total GULP energy -694524.736308 kJ/mol
# GULP energy per Si atom -12402.227434 kJ/mol
# Density = 1.786127 g / cm^3
# Si number density = 17.902018 Si / 1000 Ang^3
#
#
#
# Elastic Constant Matrix: (Units=GPa)
#
#
# Indices 1 2 3 4 5 6 
#
# 1 70.5378 38.8030 43.8462 0.0000 0.0000 0.0000
# 2 38.8030 94.6689 61.2981 0.0000 0.0000 0.0000
# 3 43.8462 61.2981 113.1200 0.0000 0.0000 0.0000
# 4 0.0000 0.0000 0.0000 28.3479 0.0000 0.0000
# 5 0.0000 0.0000 0.0000 0.0000 16.0804 0.0000
# 6 0.0000 0.0000 0.0000 0.0000 0.0000 19.5963
#
#
#
# Elastic Compliance Matrix: (Units=1/GPa)
#
#
# Indices 1 2 3 4 5 6 
#
# 1 0.020056 -0.004910 -0.005113 0.000000 0.000000 0.000000
# 2 -0.004910 0.017475 -0.007566 0.000000 0.000000 0.000000
# 3 -0.005113 -0.007566 0.014922 0.000000 0.000000 0.000000
# 4 0.000000 0.000000 0.000000 0.035276 0.000000 0.000000
# 5 0.000000 0.000000 0.000000 0.000000 0.062187 0.000000
# 6 0.000000 0.000000 0.000000 0.000000 0.000000 0.051030
#
#
# Mechanical properties :
#
#
# Convention : Reuss Voigt Hill
#
# Bulk Modulus (GPa) = 57.88949 62.91350 60.40149
# Shear Modulus (GPa) = 20.67115 21.76356 21.21736
#
# Velocity S-wave (km/s) = 3.40175 3.49048 3.44640
# Velocity P-wave (km/s) = 6.91637 7.17385 7.04629
#
# Compressibility (1/GPa) = 0.01727429
#
# Stress axis : x y z
#
# Youngs Moduli (GPa) = 49.86011 57.22579 67.01426
#
# Poissons Ratio (x) = 0.28096 0.34267
# Poissons Ratio (y) = 0.24480 0.50704
# Poissons Ratio (z) = 0.25496 0.43298
#
# Static dielectric constant tensor:
#      x y z
#    x 3.036160 0.000000 0.000000 
#    y 0.000000 3.233380 0.000000 
#    z 0.000000 0.000000 3.464520 
# 
# 
# High freq. dielectric constant tensor:
#      x y z
#    x 1.666120 0.000000 0.000000 
#    y 0.000000 1.681310 0.000000 
#    z 0.000000 0.000000 1.705500 
# 
# From -- ./inp_files/46372.got.cif
#   From: 2010.06.25/outbox.cif.g09.slc.cpg/sg71_24_cif.got.tgz:46372.got - 2010.06.28 04:59:45.
