data_PCOD8287031
_publ_section_title
;
Structure prediction by ZEFSAII (Michael W. Deem and Ramdas Pophale) SiO2 
 PCOD8287031
Probable space group: I M M M
;
_chemical_formula_sum "Si O2"
_cell_formula_units_Z 96
_cell_length_a 26.902746
_cell_length_b 28.869878
_cell_length_c 8.607321
_cell_angle_alpha 90.000000
_cell_angle_beta 90.000000
_cell_angle_gamma 90.000000
_cell_volume 6685.125423
_symmetry_space_group_name_H-M "I M M M"
_symmetry_group_IT_number 71
_symmetry_cell_setting 'orthorhombic'
loop_
_space_group_symop_operation_xyz
x,y,z
-x,-y,z
x,-y,-z
-x,y,-z
-x,-y,-z
x,y,-z
-x,y,z
x,-y,z
1/2+x,1/2+y,1/2+z
1/2-x,1/2-y,1/2+z
1/2+x,1/2-y,1/2-z
1/2-x,1/2+y,1/2-z
1/2-x,1/2-y,1/2-z
1/2+x,1/2+y,1/2-z
1/2-x,1/2+y,1/2+z
1/2+x,1/2-y,1/2+z
loop_
_atom_site_type_symbol
_atom_site_label
_atom_site_fract_x
_atom_site_fract_y
_atom_site_fract_z
Si Si1 0.258833 0.143673 0.817891
Si Si2 0.101729 0.449775 0.184652
Si Si3 0.703835 0.278294 0.183925
Si Si4 0.214925 0.448097 0.818263
Si Si5 0.851008 0.300763 0.815831
Si Si6 0.554905 0.143100 0.315105
O O1 0.209447 0.169937 0.753142
O O2 0.252785 0.089502 0.776051
O O3 0.308481 0.163817 0.738638
O O4 0.262723 0.151538 0.000000
O O5 0.081545 0.500000 0.243396
O O6 0.158325 0.443390 0.239938
O O7 0.068507 0.407954 0.251818
O O8 0.100986 0.449062 0.000000
O O9 0.750000 0.250000 0.250000
O O10 0.655008 0.250731 0.242556
O O11 0.704635 0.280234 0.000000
O O12 0.234790 0.500000 0.782311
O O13 0.219223 0.437120 0.000000
O O14 0.904525 0.319599 0.758223
O O15 0.848158 0.297168 0.000000
O O16 0.555405 0.140921 0.500000
O O17 0.500000 0.156939 0.253587
#
# Coordination Sequence:
#
# PCOD8287031 Si02
#       6
#    16  16  16  16  16  16
#     4  11  19  27  41  60  80 100 127 158 196 239
#     4   8  13  22  36  53  72  95 126 165 205 238
#     4  10  18  28  42  59  77  96 123 155 196 240
#     4   9  16  27  42  58  77 104 134 163 198 234
#     4  10  17  28  42  56  78 101 126 162 201 239
#     4   9  16  24  37  57  77  99 129 167 208 243
#
# _framework density 14.360239
#
# number of rings (size 3 to 8) (size 9 to 14) (size 15 to 20)
#    0.000    2.500    1.667    6.500    0.000    0.667 
#    0.000    1.667    0.000    2.000    0.000    0.000 
#    0.000    2.667    0.000    0.000    0.000    0.833 
#
# Total GULP energy -594807.486771 kJ/mol
# GULP energy per Si atom -12391.822641 kJ/mol
# Density = 1.432755 g / cm^3
# Si number density = 14.360239 Si / 1000 Ang^3
#
#
#
# Elastic Constant Matrix: (Units=GPa)
#
#
# Indices 1 2 3 4 5 6 
#
# 1 61.3562 59.7994 16.4324 0.0000 0.0000 0.0000
# 2 59.7994 107.7492 28.5840 0.0000 0.0000 0.0000
# 3 16.4324 28.5840 58.0725 0.0000 0.0000 0.0000
# 4 0.0000 0.0000 0.0000 20.9460 0.0000 0.0000
# 5 0.0000 0.0000 0.0000 0.0000 8.9721 0.0000
# 6 0.0000 0.0000 0.0000 0.0000 0.0000 22.5570
#
#
#
# Elastic Compliance Matrix: (Units=1/GPa)
#
#
# Indices 1 2 3 4 5 6 
#
# 1 0.035509 -0.019601 -0.000400 0.000000 0.000000 0.000000
# 2 -0.019601 0.021494 -0.005033 0.000000 0.000000 0.000000
# 3 -0.000400 -0.005033 0.019811 0.000000 0.000000 0.000000
# 4 0.000000 0.000000 0.000000 0.047742 0.000000 0.000000
# 5 0.000000 0.000000 0.000000 0.000000 0.111456 0.000000
# 6 0.000000 0.000000 0.000000 0.000000 0.000000 0.044332
#
#
# Mechanical properties :
#
#
# Convention : Reuss Voigt Hill
#
# Bulk Modulus (GPa) = 37.38974 48.53438 42.96206
# Shear Modulus (GPa) = 14.73500 18.65250 16.69375
#
# Velocity S-wave (km/s) = 3.20675 3.60793 3.41324
# Velocity P-wave (km/s) = 6.30908 7.15733 6.74655
#
# Compressibility (1/GPa) = 0.02674530
#
# Stress axis : x y z
#
# Youngs Moduli (GPa) = 28.16187 46.52383 50.47822
#
# Poissons Ratio (x) = 0.91191 0.02019
# Poissons Ratio (y) = 0.55200 0.25408
# Poissons Ratio (z) = 0.01126 0.23418
#
# Static dielectric constant tensor:
#      x y z
#    x 2.763710 0.000000 0.000000 
#    y 0.000000 3.267390 0.000000 
#    z 0.000000 0.000000 2.607440 
# 
# 
# High freq. dielectric constant tensor:
#      x y z
#    x 1.493970 0.000000 0.000000 
#    y 0.000000 1.550010 0.000000 
#    z 0.000000 0.000000 1.535980 
# 
# From -- ./inp_files/15445.got.cif
#   From: 2010.06.25/outbox.cif.g09.slc.cpg/sg71_8_cif.got.tgz:15445.got - 2010.06.28 04:59:45.
