data_PCOD8287383
_publ_section_title
;
Structure prediction by ZEFSAII (Michael W. Deem and Ramdas Pophale) SiO2 
 PCOD8287383
Probable space group: I M M M
;
_chemical_formula_sum "Si O2"
_cell_formula_units_Z 112
_cell_length_a 14.681972
_cell_length_b 18.129604
_cell_length_c 25.484329
_cell_angle_alpha 90.000000
_cell_angle_beta 90.000000
_cell_angle_gamma 90.000000
_cell_volume 6783.376346
_symmetry_space_group_name_H-M "I M M M"
_symmetry_group_IT_number 71
_symmetry_cell_setting 'orthorhombic'
loop_
_space_group_symop_operation_xyz
x,y,z
-x,-y,z
x,-y,-z
-x,y,-z
-x,-y,-z
x,y,-z
-x,y,z
x,-y,z
1/2+x,1/2+y,1/2+z
1/2-x,1/2-y,1/2+z
1/2+x,1/2-y,1/2-z
1/2-x,1/2+y,1/2-z
1/2-x,1/2-y,1/2-z
1/2+x,1/2+y,1/2-z
1/2-x,1/2+y,1/2+z
1/2+x,1/2-y,1/2+z
loop_
_atom_site_type_symbol
_atom_site_label
_atom_site_fract_x
_atom_site_fract_y
_atom_site_fract_z
Si Si1 0.396525 0.921535 0.745527
Si Si2 0.144998 0.733175 0.250150
Si Si3 0.391774 0.650769 0.441150
Si Si4 0.393379 0.500000 0.724665
Si Si5 0.604130 0.785853 0.371396
Si Si6 0.278732 0.918072 0.642148
Si Si7 0.398228 0.377588 0.804873
Si Si8 0.609050 0.500000 0.391651
O O1 0.500000 0.917124 0.723924
O O2 0.374788 0.846718 0.777892
O O3 0.326428 0.922621 0.698075
O O4 0.383816 0.000000 0.776919
O O5 0.250000 0.750000 0.250000
O O6 0.108875 0.731506 0.190565
O O7 0.094730 0.793786 0.285063
O O8 0.355556 0.664982 0.500000
O O9 0.500000 0.647999 0.440094
O O10 0.357025 0.715760 0.403111
O O11 0.353322 0.572454 0.421000
O O12 0.500000 0.500000 0.716272
O O13 0.363363 0.427496 0.756414
O O14 0.348698 0.500000 0.667131
O O15 0.500000 0.802318 0.387098
O O16 0.664992 0.856245 0.389958
O O17 0.174086 0.889957 0.648339
O O18 0.280060 0.000000 0.615590
O O19 0.500000 0.401232 0.823759
O O20 0.500000 0.500000 0.390923
#
# Coordination Sequence:
#
# PCOD8287383 Si02
#       8
#    16  16  16   8  16  16  16   8
#     4   9  17  29  42  55  75 108 152 191 218 252
#     4  11  18  28  42  61  86 118 154 191 226 266
#     4   9  17  29  46  67  90 118 153 192 233 275
#     4   9  18  27  38  59  87 123 158 187 225 269
#     4  10  19  31  46  64  89 122 159 192 225 268
#     4  10  18  29  43  61  83 113 155 193 223 269
#     4  11  19  28  41  58  88 124 157 192 230 267
#     4   9  15  26  43  64  90 121 155 188 224 271
#
# _framework density 16.510952
#
# number of rings (size 3 to 8) (size 9 to 14) (size 15 to 20)
#    0.000    2.143    3.571    3.643    0.000    4.000 
#    0.000    0.000    0.000    0.429    0.000    2.000 
#    0.000    0.571    0.000    1.286    0.000    2.429 
#
# Total GULP energy -693782.956979 kJ/mol
# GULP energy per Si atom -12388.981375 kJ/mol
# Density = 1.647337 g / cm^3
# Si number density = 16.510952 Si / 1000 Ang^3
#
#
#
# Elastic Constant Matrix: (Units=GPa)
#
#
# Indices 1 2 3 4 5 6 
#
# 1 80.0975 30.6735 9.0711 0.0000 0.0000 0.0000
# 2 30.6735 183.0218 34.2603 0.0000 0.0000 0.0000
# 3 9.0711 34.2603 35.8006 0.0000 0.0000 0.0000
# 4 0.0000 0.0000 0.0000 5.7358 0.0000 0.0000
# 5 0.0000 0.0000 0.0000 0.0000 6.4646 0.0000
# 6 0.0000 0.0000 0.0000 0.0000 0.0000 18.2318
#
#
#
# Elastic Compliance Matrix: (Units=1/GPa)
#
#
# Indices 1 2 3 4 5 6 
#
# 1 0.013408 -0.001963 -0.001519 0.000000 0.000000 0.000000
# 2 -0.001963 0.006944 -0.006147 0.000000 0.000000 0.000000
# 3 -0.001519 -0.006147 0.034200 0.000000 0.000000 0.000000
# 4 0.000000 0.000000 0.000000 0.174343 0.000000 0.000000
# 5 0.000000 0.000000 0.000000 0.000000 0.154688 0.000000
# 6 0.000000 0.000000 0.000000 0.000000 0.000000 0.054849
#
#
# Mechanical properties :
#
#
# Convention : Reuss Voigt Hill
#
# Bulk Modulus (GPa) = 28.33367 49.65885 38.99626
# Shear Modulus (GPa) = 10.65065 21.08079 15.86572
#
# Velocity S-wave (km/s) = 2.54257 3.57708 3.10324
# Velocity P-wave (km/s) = 5.08108 6.87039 6.04233
#
# Compressibility (1/GPa) = 0.03529370
#
# Stress axis : x y z
#
# Youngs Moduli (GPa) = 74.57960 144.01856 29.23950
#
# Poissons Ratio (x) = 0.28269 0.04442
# Poissons Ratio (y) = 0.14639 0.17975
# Poissons Ratio (z) = 0.11329 0.88535
#
# Static dielectric constant tensor:
#      x y z
#    x 3.046040 0.000000 0.000000 
#    y 0.000000 3.992790 0.000000 
#    z 0.000000 0.000000 2.665500 
# 
# 
# High freq. dielectric constant tensor:
#      x y z
#    x 1.620350 0.000000 0.000000 
#    y 0.000000 1.668740 0.000000 
#    z 0.000000 0.000000 1.551810 
# 
# From -- ./inp_files/70203.got.cif
#   From: 2010.06.25/outbox.cif.g09.slc.cpg/sg71_36_cif.got.tgz:70203.got - 2010.06.28 04:59:45.
