data_PCOD8287706
_publ_section_title
;
Structure prediction by ZEFSAII (Michael W. Deem and Ramdas Pophale) SiO2 
 PCOD8287706
Probable space group: I M M M
;
_chemical_formula_sum "Si O2"
_cell_formula_units_Z 72
_cell_length_a 15.544094
_cell_length_b 8.975588
_cell_length_c 28.133417
_cell_angle_alpha 90.000000
_cell_angle_beta 90.000000
_cell_angle_gamma 90.000000
_cell_volume 3925.100731
_symmetry_space_group_name_H-M "I M M M"
_symmetry_group_IT_number 71
_symmetry_cell_setting 'orthorhombic'
loop_
_space_group_symop_operation_xyz
x,y,z
-x,-y,z
x,-y,-z
-x,y,-z
-x,-y,-z
x,y,-z
-x,y,z
x,-y,z
1/2+x,1/2+y,1/2+z
1/2-x,1/2-y,1/2+z
1/2+x,1/2-y,1/2-z
1/2-x,1/2+y,1/2-z
1/2-x,1/2-y,1/2-z
1/2+x,1/2+y,1/2-z
1/2-x,1/2+y,1/2+z
1/2+x,1/2-y,1/2+z
loop_
_atom_site_type_symbol
_atom_site_label
_atom_site_fract_x
_atom_site_fract_y
_atom_site_fract_z
Si Si1 0.000000 0.669218 0.378067
Si Si2 0.827073 0.326998 0.277031
Si Si3 0.500000 0.675227 0.218553
Si Si4 0.170374 0.674092 0.945706
Si Si5 0.500000 0.668194 0.556518
Si Si6 0.813895 0.332968 0.389164
O O1 0.000000 0.793504 0.337536
O O2 0.087666 0.688188 0.408583
O O3 0.000000 0.500000 0.355333
O O4 0.830645 0.500000 0.263616
O O5 0.750000 0.250000 0.250000
O O6 0.914862 0.249423 0.258890
O O7 0.813866 0.302636 0.333076
O O8 0.500000 0.500000 0.228824
O O9 0.154540 0.500000 0.942166
O O10 0.085766 0.752493 0.923923
O O11 0.253386 0.716256 0.915230
O O12 0.186196 0.724677 0.000000
O O13 0.500000 0.500000 0.575257
O O14 0.500000 0.678793 0.500000
O O15 0.781218 0.500000 0.400466
#
# Coordination Sequence:
#
# PCOD8287706 Si02
#       6
#     8  16   8  16   8  16
#     4   8  16  32  51  72  99 131 169 210 247 289
#     4  10  20  35  54  77 104 133 168 210 253 298
#     4  10  18  30  51  76 101 134 171 204 246 301
#     4  10  20  33  50  74 103 132 164 205 250 295
#     4   9  17  31  52  73  94 127 168 204 243 297
#     4   9  18  33  53  75 100 131 167 206 247 294
#
# _framework density 18.343477
#
# number of rings (size 3 to 8) (size 9 to 14) (size 15 to 20)
#    0.000    2.556    0.000    4.000    0.000    7.111 
#    0.000    1.667    0.000   10.000    0.000    0.000 
#    0.000    0.000    0.000    0.000    0.000    0.000 
#
# Total GULP energy -446298.142422 kJ/mol
# GULP energy per Si atom -12397.170623 kJ/mol
# Density = 1.830173 g / cm^3
# Si number density = 18.343477 Si / 1000 Ang^3
#
#
#
# Elastic Constant Matrix: (Units=GPa)
#
#
# Indices 1 2 3 4 5 6 
#
# 1 180.0498 77.6641 41.6853 0.0000 0.0000 0.0000
# 2 77.6641 123.3974 29.9575 0.0000 0.0000 0.0000
# 3 41.6853 29.9575 30.6986 0.0000 0.0000 0.0000
# 4 0.0000 0.0000 0.0000 25.1837 0.0000 0.0000
# 5 0.0000 0.0000 0.0000 0.0000 28.3248 0.0000
# 6 0.0000 0.0000 0.0000 0.0000 0.0000 38.0218
#
#
#
# Elastic Compliance Matrix: (Units=1/GPa)
#
#
# Indices 1 2 3 4 5 6 
#
# 1 0.009181 -0.003606 -0.008948 0.000000 0.000000 0.000000
# 2 -0.003606 0.012036 -0.006849 0.000000 0.000000 0.000000
# 3 -0.008948 -0.006849 0.051409 0.000000 0.000000 0.000000
# 4 0.000000 0.000000 0.000000 0.039708 0.000000 0.000000
# 5 0.000000 0.000000 0.000000 0.000000 0.035305 0.000000
# 6 0.000000 0.000000 0.000000 0.000000 0.000000 0.026301
#
#
# Mechanical properties :
#
#
# Convention : Reuss Voigt Hill
#
# Bulk Modulus (GPa) = 29.56821 70.30661 49.93741
# Shear Modulus (GPa) = 22.31952 30.62867 26.47409
#
# Velocity S-wave (km/s) = 3.49199 4.09067 3.80313
# Velocity P-wave (km/s) = 5.69323 7.79246 6.82405
#
# Compressibility (1/GPa) = 0.03382010
#
# Stress axis : x y z
#
# Youngs Moduli (GPa) = 108.91896 83.08210 19.45195
#
# Poissons Ratio (x) = 0.29961 0.17405
# Poissons Ratio (y) = 0.39278 0.13323
# Poissons Ratio (z) = 0.97459 0.56903
#
# Static dielectric constant tensor:
#      x y z
#    x 3.772190 0.000000 0.000000 
#    y 0.000000 3.391040 0.000000 
#    z 0.000000 0.000000 2.910100 
# 
# 
# High freq. dielectric constant tensor:
#      x y z
#    x 1.734620 0.000000 0.000000 
#    y 0.000000 1.720390 0.000000 
#    z 0.000000 0.000000 1.656230 
# 
# From -- ./inp_files/6531.got.cif
#   From: 2010.06.25/outbox.cif.g09.slc.cpg/sg71_4_cif.got.tgz:6531.got - 2010.06.28 04:59:45.
