data_PCOD8287425
_publ_section_title
;
Structure prediction by ZEFSAII (Michael W. Deem and Ramdas Pophale) SiO2 
 PCOD8287425
Probable space group: I M M M
;
_chemical_formula_sum "Si O2"
_cell_formula_units_Z 120
_cell_length_a 9.490457
_cell_length_b 28.421308
_cell_length_c 27.512600
_cell_angle_alpha 90.000000
_cell_angle_beta 90.000000
_cell_angle_gamma 90.000000
_cell_volume 7421.006653
_symmetry_space_group_name_H-M "I M M M"
_symmetry_group_IT_number 71
_symmetry_cell_setting 'orthorhombic'
loop_
_space_group_symop_operation_xyz
x,y,z
-x,-y,z
x,-y,-z
-x,y,-z
-x,-y,-z
x,y,-z
-x,y,z
x,-y,z
1/2+x,1/2+y,1/2+z
1/2-x,1/2-y,1/2+z
1/2+x,1/2-y,1/2-z
1/2-x,1/2+y,1/2-z
1/2-x,1/2-y,1/2-z
1/2+x,1/2+y,1/2-z
1/2-x,1/2+y,1/2+z
1/2+x,1/2-y,1/2+z
loop_
_atom_site_type_symbol
_atom_site_label
_atom_site_fract_x
_atom_site_fract_y
_atom_site_fract_z
Si Si1 0.663798 0.054578 0.289032
Si Si2 0.165245 0.808296 0.852393
Si Si3 0.665454 0.224179 0.055223
Si Si4 0.168014 0.000000 0.552722
Si Si5 0.837090 0.358462 0.277537
Si Si6 0.844012 0.817359 0.396499
Si Si7 0.839490 0.919120 0.381194
Si Si8 0.339643 0.207894 0.310146
O O1 0.500000 0.056233 0.302820
O O2 0.693056 0.089174 0.243309
O O3 0.749059 0.078323 0.332494
O O4 0.709452 0.000000 0.278152
O O5 0.240465 0.803048 0.905024
O O6 0.238138 0.852101 0.824884
O O7 0.189570 0.763539 0.816716
O O8 0.000000 0.818014 0.861185
O O9 0.500000 0.212990 0.063395
O O10 0.698489 0.280097 0.061818
O O11 0.709541 0.210457 0.000000
O O12 0.225977 0.955511 0.581353
O O13 0.238019 0.000000 0.500000
O O14 0.000000 0.000000 0.549189
O O15 0.798061 0.315085 0.241313
O O16 0.000000 0.354048 0.293194
O O17 0.834989 0.871218 0.413155
O O18 0.747231 0.818894 0.350022
O O19 0.000000 0.803857 0.378333
O O20 0.000000 0.931033 0.366012
O O21 0.500000 0.196041 0.321344
#
# Coordination Sequence:
#
# PCOD8287425 Si02
#       8
#    16  16  16   8  16  16  16  16
#     4  10  20  33  50  70  92 123 159 196 239 289
#     4  10  20  31  46  70  97 123 156 195 234 277
#     4   9  18  33  50  67  92 127 162 195 233 276
#     4   9  18  30  43  61  85 113 149 199 254 295
#     4  10  19  31  47  67  94 125 156 189 232 286
#     4   9  17  27  43  67  90 116 154 197 234 274
#     4  10  18  29  46  66  88 116 154 200 246 290
#     4   9  17  29  44  65  92 123 154 186 227 276
#
# _framework density 16.170311999999999
#
# number of rings (size 3 to 8) (size 9 to 14) (size 15 to 20)
#    0.000    2.467    2.000    0.800    0.000    2.400 
#    0.000    2.667    0.000    0.800    0.000    1.867 
#    0.000    0.533    0.000    6.133    0.000    1.733 
#
# Total GULP energy -743303.954999 kJ/mol
# GULP energy per Si atom -12388.399250 kJ/mol
# Density = 1.613351 g / cm^3
# Si number density = 16.170312 Si / 1000 Ang^3
#
#
#
# Elastic Constant Matrix: (Units=GPa)
#
#
# Indices 1 2 3 4 5 6 
#
# 1 48.1928 23.0111 47.1750 0.0000 0.0000 0.0000
# 2 23.0111 53.6774 40.3600 0.0000 0.0000 0.0000
# 3 47.1750 40.3600 97.8504 0.0000 0.0000 0.0000
# 4 0.0000 0.0000 0.0000 15.9746 0.0000 0.0000
# 5 0.0000 0.0000 0.0000 0.0000 21.0553 0.0000
# 6 0.0000 0.0000 0.0000 0.0000 0.0000 17.1762
#
#
#
# Elastic Compliance Matrix: (Units=1/GPa)
#
#
# Indices 1 2 3 4 5 6 
#
# 1 0.039828 -0.003821 -0.017625 0.000000 0.000000 0.000000
# 2 -0.003821 0.027372 -0.009447 0.000000 0.000000 0.000000
# 3 -0.017625 -0.009447 0.022614 0.000000 0.000000 0.000000
# 4 0.000000 0.000000 0.000000 0.062600 0.000000 0.000000
# 5 0.000000 0.000000 0.000000 0.000000 0.047494 0.000000
# 6 0.000000 0.000000 0.000000 0.000000 0.000000 0.058220
#
#
# Mechanical properties :
#
#
# Convention : Reuss Voigt Hill
#
# Bulk Modulus (GPa) = 35.68276 46.75697 41.21987
# Shear Modulus (GPa) = 15.18573 16.78618 15.98595
#
# Velocity S-wave (km/s) = 3.06782 3.22543 3.14761
# Velocity P-wave (km/s) = 5.88756 6.54594 6.22546
#
# Compressibility (1/GPa) = 0.02802473
#
# Stress axis : x y z
#
# Youngs Moduli (GPa) = 25.10819 36.53422 44.22084
#
# Poissons Ratio (x) = 0.13961 0.77940
# Poissons Ratio (y) = 0.09595 0.41777
# Poissons Ratio (z) = 0.44254 0.34516
#
# Static dielectric constant tensor:
#      x y z
#    x 3.060890 0.000000 0.000000 
#    y 0.000000 3.061980 0.000000 
#    z 0.000000 0.000000 2.881250 
# 
# 
# High freq. dielectric constant tensor:
#      x y z
#    x 1.619920 0.000000 0.000000 
#    y 0.000000 1.605650 0.000000 
#    z 0.000000 0.000000 1.596890 
# 
# From -- ./inp_files/63807.got.cif
#   From: 2010.06.25/outbox.cif.g09.slc.cpg/sg71_32_cif.got.tgz:63807.got - 2010.06.28 04:59:45.
