data_PCOD8287248
_publ_section_title
;
Structure prediction by ZEFSAII (Michael W. Deem and Ramdas Pophale) SiO2 
 PCOD8287248
Probable space group: I M M M
;
_chemical_formula_sum "Si O2"
_cell_formula_units_Z 120
_cell_length_a 25.140246
_cell_length_b 20.651338
_cell_length_c 14.154455
_cell_angle_alpha 90.000000
_cell_angle_beta 90.000000
_cell_angle_gamma 90.000000
_cell_volume 7348.705949
_symmetry_space_group_name_H-M "I M M M"
_symmetry_group_IT_number 71
_symmetry_cell_setting 'orthorhombic'
loop_
_space_group_symop_operation_xyz
x,y,z
-x,-y,z
x,-y,-z
-x,y,-z
-x,-y,-z
x,y,-z
-x,y,z
x,-y,z
1/2+x,1/2+y,1/2+z
1/2-x,1/2-y,1/2+z
1/2+x,1/2-y,1/2-z
1/2-x,1/2+y,1/2-z
1/2-x,1/2-y,1/2-z
1/2+x,1/2+y,1/2-z
1/2-x,1/2+y,1/2+z
1/2+x,1/2-y,1/2+z
loop_
_atom_site_type_symbol
_atom_site_label
_atom_site_fract_x
_atom_site_fract_y
_atom_site_fract_z
Si Si1 0.639170 0.112573 0.389135
Si Si2 0.439153 0.000000 0.387834
Si Si3 0.804667 0.072043 0.104550
Si Si4 0.059726 0.926940 0.607992
Si Si5 0.148501 0.869310 0.271587
Si Si6 0.759097 0.074322 0.608732
Si Si7 0.761318 0.699656 0.609433
Si Si8 0.171652 0.269334 0.781205
O O1 0.632845 0.126120 0.500000
O O2 0.593305 0.063422 0.353422
O O3 0.697352 0.083687 0.365576
O O4 0.632596 0.179503 0.331816
O O5 0.500000 0.000000 0.348032
O O6 0.440178 0.000000 0.500000
O O7 0.851341 0.083392 0.180618
O O8 0.759965 0.126477 0.120129
O O9 0.779878 0.000000 0.118294
O O10 0.829565 0.078872 0.000000
O O11 0.077814 0.924170 0.500000
O O12 0.097657 0.881177 0.665809
O O13 0.000000 0.901116 0.620018
O O14 0.064531 0.000000 0.645456
O O15 0.203980 0.878808 0.328524
O O16 0.140413 0.796658 0.236193
O O17 0.769589 0.091700 0.500000
O O18 0.775202 0.000000 0.629358
O O19 0.775969 0.714884 0.500000
O O20 0.811775 0.702972 0.678490
O O21 0.720308 0.754380 0.646694
#
# Coordination Sequence:
#
# PCOD8287248 Si02
#       8
#    16   8  16  16  16  16  16  16
#     4  10  18  32  50  71  99 125 153 196 243 294
#     4   9  18  34  56  78  97 121 154 196 253 310
#     4   9  17  28  42  60  84 120 165 198 223 259
#     4   9  18  33  52  72  92 117 152 194 239 283
#     4  11  20  29  44  67  97 127 159 189 232 281
#     4  10  18  27  44  73 102 127 155 194 248 297
#     4   9  17  30  43  60  95 135 165 192 226 278
#     4  10  20  29  41  68  94 128 167 189 233 289
#
# _framework density 16.329405999999999
#
# number of rings (size 3 to 8) (size 9 to 14) (size 15 to 20)
#    0.000    2.333    0.667    4.800    0.000    3.733 
#    1.200    0.667    0.000    0.400    0.000    1.867 
#    0.000    0.533    0.000    0.000    0.000    0.000 
#
# Total GULP energy -743748.470767 kJ/mol
# GULP energy per Si atom -12395.807846 kJ/mol
# Density = 1.629224 g / cm^3
# Si number density = 16.329406 Si / 1000 Ang^3
#
#
#
# Elastic Constant Matrix: (Units=GPa)
#
#
# Indices 1 2 3 4 5 6 
#
# 1 68.8456 36.5115 39.6575 0.0000 0.0000 0.0000
# 2 36.5115 104.2161 44.4202 0.0000 0.0000 0.0000
# 3 39.6575 44.4202 91.1675 0.0000 0.0000 0.0000
# 4 0.0000 0.0000 0.0000 30.5420 0.0000 0.0000
# 5 0.0000 0.0000 0.0000 0.0000 14.2643 0.0000
# 6 0.0000 0.0000 0.0000 0.0000 0.0000 14.4684
#
#
#
# Elastic Compliance Matrix: (Units=1/GPa)
#
#
# Indices 1 2 3 4 5 6 
#
# 1 0.020826 -0.004335 -0.006947 0.000000 0.000000 0.000000
# 2 -0.004335 0.013013 -0.004455 0.000000 0.000000 0.000000
# 3 -0.006947 -0.004455 0.016161 0.000000 0.000000 0.000000
# 4 0.000000 0.000000 0.000000 0.032742 0.000000 0.000000
# 5 0.000000 0.000000 0.000000 0.000000 0.070105 0.000000
# 6 0.000000 0.000000 0.000000 0.000000 0.000000 0.069116
#
#
# Mechanical properties :
#
#
# Convention : Reuss Voigt Hill
#
# Bulk Modulus (GPa) = 53.97647 56.15641 55.06644
# Shear Modulus (GPa) = 19.25949 21.43096 20.34522
#
# Velocity S-wave (km/s) = 3.43802 3.62666 3.53360
# Velocity P-wave (km/s) = 6.99189 7.21119 7.10238
#
# Compressibility (1/GPa) = 0.01852659
#
# Stress axis : x y z
#
# Youngs Moduli (GPa) = 48.01662 76.84643 61.87674
#
# Poissons Ratio (x) = 0.33315 0.42986
# Poissons Ratio (y) = 0.20817 0.27563
# Poissons Ratio (z) = 0.33357 0.34232
#
# Static dielectric constant tensor:
#      x y z
#    x 2.782680 0.000000 0.000000 
#    y 0.000000 3.189480 0.000000 
#    z 0.000000 0.000000 3.242700 
# 
# 
# High freq. dielectric constant tensor:
#      x y z
#    x 1.577990 0.000000 0.000000 
#    y 0.000000 1.637930 0.000000 
#    z 0.000000 0.000000 1.631140 
# 
# From -- ./inp_files/39661.got.cif
#   From: 2010.06.25/outbox.cif.g09.slc.cpg/sg71_20_cif.got.tgz:39661.got - 2010.06.28 04:59:45.
