data_PCOD8287376
_publ_section_title
;
Structure prediction by ZEFSAII (Michael W. Deem and Ramdas Pophale) SiO2 
 PCOD8287376
Probable space group: I M M M
;
_chemical_formula_sum "Si O2"
_cell_formula_units_Z 96
_cell_length_a 27.259935
_cell_length_b 17.595092
_cell_length_c 13.867695
_cell_angle_alpha 90.000000
_cell_angle_beta 90.000000
_cell_angle_gamma 90.000000
_cell_volume 6651.515988
_symmetry_space_group_name_H-M "I M M M"
_symmetry_group_IT_number 71
_symmetry_cell_setting 'orthorhombic'
loop_
_space_group_symop_operation_xyz
x,y,z
-x,-y,z
x,-y,-z
-x,y,-z
-x,-y,-z
x,y,-z
-x,y,z
x,-y,z
1/2+x,1/2+y,1/2+z
1/2-x,1/2-y,1/2+z
1/2+x,1/2-y,1/2-z
1/2-x,1/2+y,1/2-z
1/2-x,1/2-y,1/2-z
1/2+x,1/2+y,1/2-z
1/2-x,1/2+y,1/2+z
1/2+x,1/2-y,1/2+z
loop_
_atom_site_type_symbol
_atom_site_label
_atom_site_fract_x
_atom_site_fract_y
_atom_site_fract_z
Si Si1 0.889933 0.351964 0.385423
Si Si2 0.055060 0.500000 0.615014
Si Si3 0.317688 0.590455 0.392133
Si Si4 0.057573 0.799503 0.613075
Si Si5 0.500000 0.590024 0.606771
Si Si6 0.908623 0.090049 0.232193
Si Si7 0.210231 0.415201 0.614474
O O1 0.893443 0.351655 0.500000
O O2 0.918510 0.425014 0.344200
O O3 0.915533 0.275839 0.346195
O O4 0.833092 0.358550 0.350538
O O5 0.056471 0.500000 0.500000
O O6 0.000000 0.500000 0.654465
O O7 0.328667 0.622628 0.500000
O O8 0.318732 0.500000 0.398018
O O9 0.358091 0.619031 0.316050
O O10 0.263780 0.616813 0.354489
O O11 0.066455 0.810738 0.500000
O O12 0.082926 0.871117 0.664631
O O13 0.000000 0.793902 0.636834
O O14 0.500000 0.500000 0.599518
O O15 0.500000 0.626007 0.500000
O O16 0.451755 0.617793 0.661815
O O17 0.909069 0.000000 0.248920
O O18 0.209333 0.421714 0.500000
O O19 0.201228 0.500000 0.657103
#
# Coordination Sequence:
#
# PCOD8287376 Si02
#       7
#    16   8  16  16   8  16  16
#     4   9  15  24  38  56  79 106 136 166 196 237
#     4   9  14  20  34  56  78 102 134 165 197 240
#     4   8  14  24  41  63  84 102 124 158 205 256
#     4  10  20  31  40  53  78 113 147 174 198 222
#     4   9  16  26  43  63  79  94 120 161 210 257
#     4  10  18  29  42  58  78 105 139 172 202 235
#     4   8  12  21  38  60  82 104 128 155 195 250
#
# _framework density 14.4328
#
# number of rings (size 3 to 8) (size 9 to 14) (size 15 to 20)
#    0.000    3.000    1.667    2.000    0.000    4.333 
#    0.000    1.667    0.000    0.000    0.000    0.000 
#    0.000    0.000    0.000    3.750    0.000    0.417 
#
# Total GULP energy -594837.191386 kJ/mol
# GULP energy per Si atom -12392.441487 kJ/mol
# Density = 1.439995 g / cm^3
# Si number density = 14.432800 Si / 1000 Ang^3
#
#
#
# Elastic Constant Matrix: (Units=GPa)
#
#
# Indices 1 2 3 4 5 6 
#
# 1 139.0826 42.6423 36.8531 0.0000 0.0000 0.0000
# 2 42.6423 58.1512 28.4190 0.0000 0.0000 0.0000
# 3 36.8531 28.4190 41.7401 0.0000 0.0000 0.0000
# 4 0.0000 0.0000 0.0000 8.4573 0.0000 0.0000
# 5 0.0000 0.0000 0.0000 0.0000 8.5860 0.0000
# 6 0.0000 0.0000 0.0000 0.0000 0.0000 19.0820
#
#
#
# Elastic Compliance Matrix: (Units=1/GPa)
#
#
# Indices 1 2 3 4 5 6 
#
# 1 0.010141 -0.004587 -0.005831 0.000000 0.000000 0.000000
# 2 -0.004587 0.027847 -0.014910 0.000000 0.000000 0.000000
# 3 -0.005831 -0.014910 0.039257 0.000000 0.000000 0.000000
# 4 0.000000 0.000000 0.000000 0.118241 0.000000 0.000000
# 5 0.000000 0.000000 0.000000 0.000000 0.116469 0.000000
# 6 0.000000 0.000000 0.000000 0.000000 0.000000 0.052405
#
#
# Mechanical properties :
#
#
# Convention : Reuss Voigt Hill
#
# Bulk Modulus (GPa) = 37.60773 50.53362 44.07067
# Shear Modulus (GPa) = 11.79583 15.96237 13.87910
#
# Velocity S-wave (km/s) = 2.86194 3.32923 3.10439
# Velocity P-wave (km/s) = 6.08561 7.06169 6.59174
#
# Compressibility (1/GPa) = 0.02659028
#
# Stress axis : x y z
#
# Youngs Moduli (GPa) = 98.60590 35.91092 25.47302
#
# Poissons Ratio (x) = 0.16473 0.14853
# Poissons Ratio (y) = 0.45231 0.37979
# Poissons Ratio (z) = 0.57496 0.53542
#
# Static dielectric constant tensor:
#      x y z
#    x 3.266980 0.000000 0.000000 
#    y 0.000000 2.630110 0.000000 
#    z 0.000000 0.000000 2.443300 
# 
# 
# High freq. dielectric constant tensor:
#      x y z
#    x 1.572830 0.000000 0.000000 
#    y 0.000000 1.520420 0.000000 
#    z 0.000000 0.000000 1.496970 
# 
# From -- ./inp_files/28850.got.cif
#   From: 2010.06.25/outbox.cif.g09.slc.cpg/sg71_15_cif.got.tgz:28850.got - 2010.06.28 04:59:45.
