data_PCOD8287001
_publ_section_title
;
Structure prediction by ZEFSAII (Michael W. Deem and Ramdas Pophale) SiO2 
 PCOD8287001
Probable space group: I M M M
;
_chemical_formula_sum "Si O2"
_cell_formula_units_Z 88
_cell_length_a 8.942860
_cell_length_b 30.375515
_cell_length_c 23.792186
_cell_angle_alpha 90.000000
_cell_angle_beta 90.000000
_cell_angle_gamma 90.000000
_cell_volume 6463.004052
_symmetry_space_group_name_H-M "I M M M"
_symmetry_group_IT_number 71
_symmetry_cell_setting 'orthorhombic'
loop_
_space_group_symop_operation_xyz
x,y,z
-x,-y,z
x,-y,-z
-x,y,-z
-x,-y,-z
x,y,-z
-x,y,z
x,-y,z
1/2+x,1/2+y,1/2+z
1/2-x,1/2-y,1/2+z
1/2+x,1/2-y,1/2-z
1/2-x,1/2+y,1/2-z
1/2-x,1/2-y,1/2-z
1/2+x,1/2+y,1/2-z
1/2-x,1/2+y,1/2+z
1/2+x,1/2-y,1/2+z
loop_
_atom_site_type_symbol
_atom_site_label
_atom_site_fract_x
_atom_site_fract_y
_atom_site_fract_z
Si Si1 0.322404 0.247045 0.615877
Si Si2 0.828554 0.837671 0.824013
Si Si3 0.677111 0.907417 0.892548
Si Si4 0.323222 0.856847 0.000000
Si Si5 0.677902 0.000000 0.935703
Si Si6 0.678026 0.243119 0.000000
Si Si7 0.326429 0.711422 0.216415
O O1 0.500000 0.243487 0.612250
O O2 0.270922 0.294932 0.640298
O O3 0.249192 0.236041 0.555798
O O4 0.259333 0.208348 0.656846
O O5 0.741043 0.882701 0.837962
O O6 0.808193 0.831237 0.756620
O O7 0.000000 0.844863 0.839622
O O8 0.500000 0.906037 0.888837
O O9 0.741789 0.880593 0.945418
O O10 0.733743 0.957577 0.900380
O O11 0.500000 0.861155 0.000000
O O12 0.269420 0.807171 0.000000
O O13 0.500000 0.000000 0.940119
O O14 0.740774 0.000000 0.000000
O O15 0.500000 0.249371 0.000000
O O16 0.500000 0.722067 0.205763
O O17 0.250000 0.750000 0.250000
#
# Coordination Sequence:
#
# PCOD8287001 Si02
#       7
#    16  16  16   8   8   8  16
#     4  10  19  29  40  57  79 101 126 159 198 234
#     4   9  18  29  40  55  75  97 123 160 201 236
#     4  10  17  27  42  57  72  96 131 166 202 241
#     4   9  16  24  37  56  71  93 129 165 196 232
#     4   9  16  26  41  57  75  97 127 168 205 236
#     4  11  19  27  40  59  79 102 134 163 194 237
#     4   9  17  29  42  56  74  97 125 158 196 235
#
# _framework density 13.615959
#
# number of rings (size 3 to 8) (size 9 to 14) (size 15 to 20)
#    0.000    2.455    2.727    2.455    0.000    3.636 
#    0.000    0.909    0.000    0.545    0.000    0.000 
#    0.000    0.000    0.000    0.000    0.000    0.909 
#
# Total GULP energy -545239.675385 kJ/mol
# GULP energy per Si atom -12391.810804 kJ/mol
# Density = 1.358497 g / cm^3
# Si number density = 13.615959 Si / 1000 Ang^3
#
#
#
# Elastic Constant Matrix: (Units=GPa)
#
#
# Indices 1 2 3 4 5 6 
#
# 1 53.6162 24.0269 39.5799 0.0000 0.0000 0.0000
# 2 24.0269 54.3556 40.6186 0.0000 0.0000 0.0000
# 3 39.5799 40.6186 105.4652 0.0000 0.0000 0.0000
# 4 0.0000 0.0000 0.0000 17.8123 0.0000 0.0000
# 5 0.0000 0.0000 0.0000 0.0000 23.6366 0.0000
# 6 0.0000 0.0000 0.0000 0.0000 0.0000 14.2777
#
#
#
# Elastic Compliance Matrix: (Units=1/GPa)
#
#
# Indices 1 2 3 4 5 6 
#
# 1 0.027196 -0.006170 -0.007830 0.000000 0.000000 0.000000
# 2 -0.006170 0.027232 -0.008172 0.000000 0.000000 0.000000
# 3 -0.007830 -0.008172 0.015568 0.000000 0.000000 0.000000
# 4 0.000000 0.000000 0.000000 0.056141 0.000000 0.000000
# 5 0.000000 0.000000 0.000000 0.000000 0.042307 0.000000
# 6 0.000000 0.000000 0.000000 0.000000 0.000000 0.070039
#
#
# Mechanical properties :
#
#
# Convention : Reuss Voigt Hill
#
# Bulk Modulus (GPa) = 38.98566 46.87642 42.93104
# Shear Modulus (GPa) = 17.15975 18.42609 17.79292
#
# Velocity S-wave (km/s) = 3.55388 3.68267 3.61885
# Velocity P-wave (km/s) = 6.74793 7.25156 7.00427
#
# Compressibility (1/GPa) = 0.02565046
#
# Stress axis : x y z
#
# Youngs Moduli (GPa) = 36.76951 36.72166 64.23515
#
# Poissons Ratio (x) = 0.22659 0.50296
# Poissons Ratio (y) = 0.22689 0.52495
# Poissons Ratio (z) = 0.28791 0.30010
#
# Static dielectric constant tensor:
#      x y z
#    x 2.616280 0.000000 0.000000 
#    y 0.000000 2.581860 0.000000 
#    z 0.000000 0.000000 2.937640 
# 
# 
# High freq. dielectric constant tensor:
#      x y z
#    x 1.517510 0.000000 0.000000 
#    y 0.000000 1.470770 0.000000 
#    z 0.000000 0.000000 1.511640 
# 
# From -- ./inp_files/17216.got.cif
#   From: 2010.06.25/outbox.cif.g09.slc.cpg/sg71_9_cif.got.tgz:17216.got - 2010.06.28 04:59:45.
