data_PCOD8287494
_publ_section_title
;
Structure prediction by ZEFSAII (Michael W. Deem and Ramdas Pophale) SiO2 
 PCOD8287494
Probable space group: I M M M
;
_chemical_formula_sum "Si O2"
_cell_formula_units_Z 88
_cell_length_a 32.786890
_cell_length_b 18.088990
_cell_length_c 9.030102
_cell_angle_alpha 90.000000
_cell_angle_beta 90.000000
_cell_angle_gamma 90.000000
_cell_volume 5355.588474
_symmetry_space_group_name_H-M "I M M M"
_symmetry_group_IT_number 71
_symmetry_cell_setting 'orthorhombic'
loop_
_space_group_symop_operation_xyz
x,y,z
-x,-y,z
x,-y,-z
-x,y,-z
-x,-y,-z
x,y,-z
-x,y,z
x,-y,z
1/2+x,1/2+y,1/2+z
1/2-x,1/2-y,1/2+z
1/2+x,1/2-y,1/2-z
1/2-x,1/2+y,1/2-z
1/2-x,1/2-y,1/2-z
1/2+x,1/2+y,1/2-z
1/2-x,1/2+y,1/2+z
1/2+x,1/2-y,1/2+z
loop_
_atom_site_type_symbol
_atom_site_label
_atom_site_fract_x
_atom_site_fract_y
_atom_site_fract_z
Si Si1 0.762605 0.859546 0.165663
Si Si2 0.807698 0.704046 0.166486
Si Si3 0.336093 0.581728 0.830387
Si Si4 0.455079 0.796435 0.332278
Si Si5 0.618879 0.727440 0.824977
Si Si6 0.000000 0.585488 0.675327
O O1 0.782671 0.779348 0.164032
O O2 0.720325 0.858451 0.257007
O O3 0.794213 0.916013 0.239154
O O4 0.752856 0.886563 0.000000
O O5 0.848823 0.713721 0.261108
O O6 0.818897 0.678990 0.000000
O O7 0.355559 0.500000 0.809242
O O8 0.368374 0.643870 0.778806
O O9 0.324245 0.597252 0.000000
O O10 0.439691 0.810444 0.500000
O O11 0.500000 0.758064 0.333339
O O12 0.424813 0.741939 0.247243
O O13 0.459626 0.875309 0.245980
O O14 0.616110 0.737560 0.000000
O O15 0.000000 0.500000 0.720235
O O16 0.000000 0.596813 0.500000
#
# Coordination Sequence:
#
# PCOD8287494 Si02
#       6
#    16  16  16  16  16   8
#     4   9  16  26  41  63  88 115 152 193 234 282
#     4   9  16  26  42  63  89 118 148 188 237 284
#     4   9  18  31  46  66  93 127 166 207 251 294
#     4   9  19  32  49  73 101 131 160 194 236 286
#     4  10  18  29  48  71  96 125 163 208 246 286
#     4   9  17  31  53  79 102 123 150 183 221 272
#
# _framework density 16.431435
#
# number of rings (size 3 to 8) (size 9 to 14) (size 15 to 20)
#    0.545    2.273    0.000    2.182    0.000    6.182 
#    0.000    0.000    0.000    1.636    0.000    3.818 
#    0.000    0.000    0.000    0.000    0.000    0.000 
#
# Total GULP energy -545330.592371 kJ/mol
# GULP energy per Si atom -12393.877099 kJ/mol
# Density = 1.639404 g / cm^3
# Si number density = 16.431435 Si / 1000 Ang^3
#
#
#
# Elastic Constant Matrix: (Units=GPa)
#
#
# Indices 1 2 3 4 5 6 
#
# 1 90.4755 43.9379 50.7056 0.0000 0.0000 0.0000
# 2 43.9379 75.8712 41.3667 0.0000 0.0000 0.0000
# 3 50.7056 41.3667 118.1469 0.0000 0.0000 0.0000
# 4 0.0000 0.0000 0.0000 17.0959 0.0000 0.0000
# 5 0.0000 0.0000 0.0000 0.0000 32.7610 0.0000
# 6 0.0000 0.0000 0.0000 0.0000 0.0000 18.9061
#
#
#
# Elastic Compliance Matrix: (Units=1/GPa)
#
#
# Indices 1 2 3 4 5 6 
#
# 1 0.017378 -0.007412 -0.004863 0.000000 0.000000 0.000000
# 2 -0.007412 0.019452 -0.003629 0.000000 0.000000 0.000000
# 3 -0.004863 -0.003629 0.011822 0.000000 0.000000 0.000000
# 4 0.000000 0.000000 0.000000 0.058493 0.000000 0.000000
# 5 0.000000 0.000000 0.000000 0.000000 0.030524 0.000000
# 6 0.000000 0.000000 0.000000 0.000000 0.000000 0.052893
#
#
# Mechanical properties :
#
#
# Convention : Reuss Voigt Hill
#
# Bulk Modulus (GPa) = 59.37513 61.83489 60.60501
# Shear Modulus (GPa) = 21.93131 23.65150 22.79141
#
# Velocity S-wave (km/s) = 3.65734 3.79807 3.72837
# Velocity P-wave (km/s) = 7.35176 7.54636 7.44969
#
# Compressibility (1/GPa) = 0.01684207
#
# Stress axis : x y z
#
# Youngs Moduli (GPa) = 57.54512 51.40955 84.58958
#
# Poissons Ratio (x) = 0.38106 0.41134
# Poissons Ratio (y) = 0.42654 0.30701
# Poissons Ratio (z) = 0.27983 0.18659
#
# Static dielectric constant tensor:
#      x y z
#    x 2.935130 0.000000 0.000000 
#    y 0.000000 2.807620 0.000000 
#    z 0.000000 0.000000 3.285840 
# 
# 
# High freq. dielectric constant tensor:
#      x y z
#    x 1.610950 0.000000 0.000000 
#    y 0.000000 1.594930 0.000000 
#    z 0.000000 0.000000 1.652370 
# 
# From -- ./inp_files/16850.got.cif
#   From: 2010.06.25/outbox.cif.g09.slc.cpg/sg71_9_cif.got.tgz:16850.got - 2010.06.28 04:59:45.
