data_PCOD8287663
_publ_section_title
;
Structure prediction by ZEFSAII (Michael W. Deem and Ramdas Pophale) SiO2 
 PCOD8287663
Probable space group: I M M M
;
_chemical_formula_sum "Si O2"
_cell_formula_units_Z 80
_cell_length_a 25.836689
_cell_length_b 8.506499
_cell_length_c 19.194183
_cell_angle_alpha 90.000000
_cell_angle_beta 90.000000
_cell_angle_gamma 90.000000
_cell_volume 4218.493109
_symmetry_space_group_name_H-M "I M M M"
_symmetry_group_IT_number 71
_symmetry_cell_setting 'orthorhombic'
loop_
_space_group_symop_operation_xyz
x,y,z
-x,-y,z
x,-y,-z
-x,y,-z
-x,-y,-z
x,y,-z
-x,y,z
x,-y,z
1/2+x,1/2+y,1/2+z
1/2-x,1/2-y,1/2+z
1/2+x,1/2-y,1/2-z
1/2-x,1/2+y,1/2-z
1/2-x,1/2-y,1/2-z
1/2+x,1/2+y,1/2-z
1/2-x,1/2+y,1/2+z
1/2+x,1/2-y,1/2+z
loop_
_atom_site_type_symbol
_atom_site_label
_atom_site_fract_x
_atom_site_fract_y
_atom_site_fract_z
Si Si1 0.605421 0.317727 0.324054
Si Si2 0.191139 0.318651 0.919264
Si Si3 0.604385 0.184454 0.828055
Si Si4 0.300079 0.182894 0.080080
Si Si5 0.000000 0.182972 0.319561
Si Si6 0.500000 0.182764 0.331809
O O1 0.600984 0.500000 0.305551
O O2 0.652642 0.289053 0.375645
O O3 0.614546 0.223947 0.252565
O O4 0.552374 0.261058 0.362150
O O5 0.179435 0.500000 0.903441
O O6 0.249629 0.279794 0.896925
O O7 0.183035 0.276869 0.000000
O O8 0.652774 0.244904 0.873039
O O9 0.552991 0.270803 0.859156
O O10 0.596840 0.000000 0.837528
O O11 0.288696 0.000000 0.093265
O O12 0.314434 0.215737 0.000000
O O13 0.000000 0.289806 0.250716
O O14 0.000000 0.000000 0.300465
O O15 0.500000 0.000000 0.350465
#
# Coordination Sequence:
#
# PCOD8287663 Si02
#       6
#    16  16  16  16   8   8
#     4  11  21  34  54  79 107 137 172 212 253 303
#     4  10  21  37  56  77 103 136 172 211 258 309
#     4  10  19  33  54  78 105 136 172 214 258 305
#     4   9  19  36  56  77 102 135 174 215 260 308
#     4  10  18  30  49  74 105 137 171 210 255 307
#     4  10  18  32  53  76 105 136 169 210 257 306
#
# _framework density 18.964117999999999
#
# number of rings (size 3 to 8) (size 9 to 14) (size 15 to 20)
#    0.000    2.000    0.000    7.200    0.000    3.600 
#    0.000    1.000    0.000    6.000    0.000    0.000 
#    0.000    0.000    0.000    0.000    0.000    0.000 
#
# Total GULP energy -496020.510639 kJ/mol
# GULP energy per Si atom -12400.512766 kJ/mol
# Density = 1.892095 g / cm^3
# Si number density = 18.964118 Si / 1000 Ang^3
#
#
#
# Elastic Constant Matrix: (Units=GPa)
#
#
# Indices 1 2 3 4 5 6 
#
# 1 156.4767 33.2906 59.9047 0.0000 0.0000 0.0000
# 2 33.2906 61.1373 15.0462 0.0000 0.0000 0.0000
# 3 59.9047 15.0462 51.8089 0.0000 0.0000 0.0000
# 4 0.0000 0.0000 0.0000 17.8529 0.0000 0.0000
# 5 0.0000 0.0000 0.0000 0.0000 2.8623 0.0000
# 6 0.0000 0.0000 0.0000 0.0000 0.0000 35.9485
#
#
#
# Elastic Compliance Matrix: (Units=1/GPa)
#
#
# Indices 1 2 3 4 5 6 
#
# 1 0.012083 -0.003383 -0.012989 0.000000 0.000000 0.000000
# 2 -0.003383 0.018563 -0.001480 0.000000 0.000000 0.000000
# 3 -0.012989 -0.001480 0.034750 0.000000 0.000000 0.000000
# 4 0.000000 0.000000 0.000000 0.056013 0.000000 0.000000
# 5 0.000000 0.000000 0.000000 0.000000 0.349374 0.000000
# 6 0.000000 0.000000 0.000000 0.000000 0.000000 0.027818
#
#
# Mechanical properties :
#
#
# Convention : Reuss Voigt Hill
#
# Bulk Modulus (GPa) = 33.67749 53.98956 43.83353
# Shear Modulus (GPa) = 9.18780 22.07815 15.63297
#
# Velocity S-wave (km/s) = 2.20349 3.41575 2.87426
# Velocity P-wave (km/s) = 4.92655 6.63985 5.84630
#
# Compressibility (1/GPa) = 0.02969342
#
# Stress axis : x y z
#
# Youngs Moduli (GPa) = 82.76154 53.87121 28.77733
#
# Poissons Ratio (x) = 0.18224 0.37378
# Poissons Ratio (y) = 0.27997 0.04258
# Poissons Ratio (z) = 1.07495 0.07970
#
# Static dielectric constant tensor:
#      x y z
#    x 3.962820 0.000000 0.000000 
#    y 0.000000 3.434290 0.000000 
#    z 0.000000 0.000000 3.143490 
# 
# 
# High freq. dielectric constant tensor:
#      x y z
#    x 1.757970 0.000000 0.000000 
#    y 0.000000 1.746420 0.000000 
#    z 0.000000 0.000000 1.697490 
# 
# From -- ./inp_files/61518.got.cif
#   From: 2010.06.25/outbox.cif.g09.slc.cpg/sg71_31_cif.got.tgz:61518.got - 2010.06.28 04:59:45.
