data_PCOD8287142
_publ_section_title
;
Structure prediction by ZEFSAII (Michael W. Deem and Ramdas Pophale) SiO2 
 PCOD8287142
Probable space group: I M M M
;
_chemical_formula_sum "Si O2"
_cell_formula_units_Z 64
_cell_length_a 21.872216
_cell_length_b 7.948292
_cell_length_c 17.973362
_cell_angle_alpha 90.000000
_cell_angle_beta 90.000000
_cell_angle_gamma 90.000000
_cell_volume 3124.610740
_symmetry_space_group_name_H-M "I M M M"
_symmetry_group_IT_number 71
_symmetry_cell_setting 'orthorhombic'
loop_
_space_group_symop_operation_xyz
x,y,z
-x,-y,z
x,-y,-z
-x,y,-z
-x,-y,-z
x,y,-z
-x,y,z
x,-y,z
1/2+x,1/2+y,1/2+z
1/2-x,1/2-y,1/2+z
1/2+x,1/2-y,1/2-z
1/2-x,1/2+y,1/2-z
1/2-x,1/2-y,1/2-z
1/2+x,1/2+y,1/2-z
1/2-x,1/2+y,1/2+z
1/2+x,1/2-y,1/2+z
loop_
_atom_site_type_symbol
_atom_site_label
_atom_site_fract_x
_atom_site_fract_y
_atom_site_fract_z
Si Si1 0.626123 0.687152 0.159081
Si Si2 0.117692 0.693467 0.176986
Si Si3 0.000000 0.801363 0.085486
Si Si4 0.929405 0.500000 0.580617
Si Si5 0.754641 0.802053 0.165059
O O1 0.605134 0.500000 0.134394
O O2 0.618610 0.695115 0.248524
O O3 0.584364 0.830065 0.124666
O O4 0.695320 0.715382 0.128478
O O5 0.116445 0.500000 0.201141
O O6 0.180752 0.735179 0.131997
O O7 0.060270 0.731955 0.125139
O O8 0.000000 0.000000 0.090677
O O9 0.000000 0.739572 0.000000
O O10 0.895883 0.500000 0.500000
O O11 0.000000 0.500000 0.566689
O O12 0.750000 0.750000 0.250000
O O13 0.749052 0.000000 0.153410
#
# Coordination Sequence:
#
# PCOD8287142 Si02
#       5
#    16  16   8   8  16
#     4  11  21  39  66  96 126 161 212 262 310 371
#     4  11  21  36  61  93 126 164 213 262 309 364
#     4  11  25  43  59  85 127 172 217 259 311 377
#     4  11  26  46  64  90 128 163 203 257 323 385
#     4  10  17  32  57  92 126 155 203 261 310 354
#
# _framework density 20.482551999999998
#
# number of rings (size 3 to 8) (size 9 to 14) (size 15 to 20)
#    0.000    1.250    2.500    7.875    1.750    2.000 
#    0.000    2.500    0.000    3.000    0.000    0.000 
#    0.000    0.000    0.000    0.000    0.000    0.000 
#
# Total GULP energy -396633.620986 kJ/mol
# GULP energy per Si atom -12394.800656 kJ/mol
# Density = 2.043593 g / cm^3
# Si number density = 20.482552 Si / 1000 Ang^3
#
#
#
# Elastic Constant Matrix: (Units=GPa)
#
#
# Indices 1 2 3 4 5 6 
#
# 1 134.2489 35.6644 42.5025 0.0000 0.0000 0.0000
# 2 35.6644 172.8080 29.1884 0.0000 0.0000 0.0000
# 3 42.5025 29.1884 64.1701 0.0000 0.0000 0.0000
# 4 0.0000 0.0000 0.0000 13.2893 0.0000 0.0000
# 5 0.0000 0.0000 0.0000 0.0000 -4.2496 0.0000
# 6 0.0000 0.0000 0.0000 0.0000 0.0000 31.6861
#
#
#
# Elastic Compliance Matrix: (Units=1/GPa)
#
#
# Indices 1 2 3 4 5 6 
#
# 1 0.009576 -0.000980 -0.005897 0.000000 0.000000 0.000000
# 2 -0.000980 0.006369 -0.002248 0.000000 0.000000 0.000000
# 3 -0.005897 -0.002248 0.020512 0.000000 0.000000 0.000000
# 4 0.000000 0.000000 0.000000 0.075249 0.000000 0.000000
# 5 0.000000 0.000000 0.000000 0.000000 -0.235318 0.000000
# 6 0.000000 0.000000 0.000000 0.000000 0.000000 0.031560
#
#
# Mechanical properties :
#
#
# Convention : Reuss Voigt Hill
#
# Bulk Modulus (GPa) = 54.92353 65.10418 60.01386
# Shear Modulus (GPa) = -73.81690 25.73661 -24.04014
#
# Velocity S-wave (km/s) = -6.00975 3.54858 -3.42963
# Velocity P-wave (km/s) = 4.61337 6.97453 3.69871
#
# Compressibility (1/GPa) = 0.01820713
#
# Stress axis : x y z
#
# Youngs Moduli (GPa) = 104.42575 157.01737 48.75289
#
# Poissons Ratio (x) = 0.15393 0.28749
# Poissons Ratio (y) = 0.10237 0.10957
# Poissons Ratio (z) = 0.61578 0.35291
#
# Static dielectric constant tensor:
#      x y z
#    x 4.310010 0.000000 0.000000 
#    y 0.000000 3.856280 0.000000 
#    z 0.000000 0.000000 3.406490 
# 
# 
# High freq. dielectric constant tensor:
#      x y z
#    x 1.818050 0.000000 0.000000 
#    y 0.000000 1.820260 0.000000 
#    z 0.000000 0.000000 1.749920 
# 
# From -- ./inp_files/46816.got.cif
#   From: 2010.06.25/outbox.cif.g09.slc.cpg/sg71_24_cif.got.tgz:46816.got - 2010.06.28 04:59:45.
