data_PCOD8287673
_publ_section_title
;
Structure prediction by ZEFSAII (Michael W. Deem and Ramdas Pophale) SiO2 
 PCOD8287673
Probable space group: I M M M
;
_chemical_formula_sum "Si O2"
_cell_formula_units_Z 88
_cell_length_a 24.122393
_cell_length_b 9.196992
_cell_length_c 22.871396
_cell_angle_alpha 90.000000
_cell_angle_beta 90.000000
_cell_angle_gamma 90.000000
_cell_volume 5074.098233
_symmetry_space_group_name_H-M "I M M M"
_symmetry_group_IT_number 71
_symmetry_cell_setting 'orthorhombic'
loop_
_space_group_symop_operation_xyz
x,y,z
-x,-y,z
x,-y,-z
-x,y,-z
-x,-y,-z
x,y,-z
-x,y,z
x,-y,z
1/2+x,1/2+y,1/2+z
1/2-x,1/2-y,1/2+z
1/2+x,1/2-y,1/2-z
1/2-x,1/2+y,1/2-z
1/2-x,1/2-y,1/2-z
1/2+x,1/2+y,1/2-z
1/2-x,1/2+y,1/2+z
1/2+x,1/2-y,1/2+z
loop_
_atom_site_type_symbol
_atom_site_label
_atom_site_fract_x
_atom_site_fract_y
_atom_site_fract_z
Si Si1 0.263961 0.829533 0.432240
Si Si2 0.437179 0.170100 0.160468
Si Si3 0.436631 0.330160 0.723691
Si Si4 0.438173 0.327413 0.500000
Si Si5 0.631687 0.327970 0.610479
Si Si6 0.347267 0.168515 0.933094
O O1 0.276357 0.793923 0.500000
O O2 0.309819 0.753365 0.392095
O O3 0.204901 0.764543 0.413778
O O4 0.263630 0.000000 0.419674
O O5 0.500000 0.218522 0.145839
O O6 0.415333 0.248744 0.218647
O O7 0.399334 0.216632 0.105999
O O8 0.433597 0.000000 0.172414
O O9 0.500000 0.287425 0.708813
O O10 0.431257 0.500000 0.735517
O O11 0.398297 0.281561 0.670056
O O12 0.441736 0.500000 0.500000
O O13 0.500000 0.260807 0.500000
O O14 0.406417 0.272092 0.442652
O O15 0.641774 0.500000 0.606620
O O16 0.331854 0.000000 0.923748
O O17 0.363942 0.199585 0.000000
#
# Coordination Sequence:
#
# PCOD8287673 Si02
#       6
#    16  16  16   8  16  16
#     4  10  20  33  49  71 101 133 165 204 251 299
#     4   9  18  33  53  77 103 130 159 195 245 300
#     4   9  18  32  50  73 101 133 168 204 243 291
#     4   9  16  26  45  73  99 123 160 211 252 283
#     4  10  18  30  50  73  97 130 171 209 246 289
#     4   9  18  33  54  77 100 127 162 202 243 293
#
# _framework density 17.342983
#
# number of rings (size 3 to 8) (size 9 to 14) (size 15 to 20)
#    0.000    2.636    0.909    1.091    0.000    4.727 
#    0.000    2.727    0.000    2.182    0.000    5.091 
#    0.000    0.000    0.000    0.000    0.000    0.000 
#
# Total GULP energy -545692.822537 kJ/mol
# GULP energy per Si atom -12402.109603 kJ/mol
# Density = 1.730351 g / cm^3
# Si number density = 17.342983 Si / 1000 Ang^3
#
#
#
# Elastic Constant Matrix: (Units=GPa)
#
#
# Indices 1 2 3 4 5 6 
#
# 1 127.4124 48.9911 88.1585 0.0000 0.0000 0.0000
# 2 48.9911 47.3772 46.1177 0.0000 0.0000 0.0000
# 3 88.1585 46.1177 129.5288 0.0000 0.0000 0.0000
# 4 0.0000 0.0000 0.0000 27.6503 0.0000 0.0000
# 5 0.0000 0.0000 0.0000 0.0000 28.6277 0.0000
# 6 0.0000 0.0000 0.0000 0.0000 0.0000 20.5549
#
#
#
# Elastic Compliance Matrix: (Units=1/GPa)
#
#
# Indices 1 2 3 4 5 6 
#
# 1 0.017421 -0.009906 -0.008330 0.000000 0.000000 0.000000
# 2 -0.009906 0.037935 -0.006764 0.000000 0.000000 0.000000
# 3 -0.008330 -0.006764 0.015798 0.000000 0.000000 0.000000
# 4 0.000000 0.000000 0.000000 0.036166 0.000000 0.000000
# 5 0.000000 0.000000 0.000000 0.000000 0.034931 0.000000
# 6 0.000000 0.000000 0.000000 0.000000 0.000000 0.048650
#
#
# Mechanical properties :
#
#
# Convention : Reuss Voigt Hill
#
# Bulk Modulus (GPa) = 47.27315 74.53923 60.90619
# Shear Modulus (GPa) = 20.16501 23.43665 21.80083
#
# Velocity S-wave (km/s) = 3.41357 3.68008 3.54932
# Velocity P-wave (km/s) = 6.54626 7.81857 7.21053
#
# Compressibility (1/GPa) = 0.02115366
#
# Stress axis : x y z
#
# Youngs Moduli (GPa) = 57.40146 26.36070 63.29830
#
# Poissons Ratio (x) = 0.26113 0.52728
# Poissons Ratio (y) = 0.56862 0.42818
# Poissons Ratio (z) = 0.47816 0.17832
#
# Static dielectric constant tensor:
#      x y z
#    x 3.278830 0.000000 0.000000 
#    y 0.000000 3.058010 0.000000 
#    z 0.000000 0.000000 3.220860 
# 
# 
# High freq. dielectric constant tensor:
#      x y z
#    x 1.671290 0.000000 0.000000 
#    y 0.000000 1.655700 0.000000 
#    z 0.000000 0.000000 1.662710 
# 
# From -- ./inp_files/10418.got.cif
#   From: 2010.06.25/outbox.cif.g09.slc.cpg/sg71_6_cif.got.tgz:10418.got - 2010.06.28 04:59:45.
