data_PCOD8287809
_publ_section_title
;
Structure prediction by ZEFSAII (Michael W. Deem and Ramdas Pophale) SiO2 
 PCOD8287809
Probable space group: I M M M
;
_chemical_formula_sum "Si O2"
_cell_formula_units_Z 80
_cell_length_a 8.710459
_cell_length_b 25.182444
_cell_length_c 20.592869
_cell_angle_alpha 90.000000
_cell_angle_beta 90.000000
_cell_angle_gamma 90.000000
_cell_volume 4517.059118
_symmetry_space_group_name_H-M "I M M M"
_symmetry_group_IT_number 71
_symmetry_cell_setting 'orthorhombic'
loop_
_space_group_symop_operation_xyz
x,y,z
-x,-y,z
x,-y,-z
-x,y,-z
-x,-y,-z
x,y,-z
-x,y,z
x,-y,z
1/2+x,1/2+y,1/2+z
1/2-x,1/2-y,1/2+z
1/2+x,1/2-y,1/2-z
1/2-x,1/2+y,1/2-z
1/2-x,1/2-y,1/2-z
1/2+x,1/2+y,1/2-z
1/2-x,1/2+y,1/2+z
1/2+x,1/2-y,1/2+z
loop_
_atom_site_type_symbol
_atom_site_label
_atom_site_fract_x
_atom_site_fract_y
_atom_site_fract_z
Si Si1 0.319430 0.780720 0.310859
Si Si2 0.316397 0.386206 0.227852
Si Si3 0.670671 0.500000 0.624861
Si Si4 0.323785 0.705488 0.572936
Si Si5 0.679590 0.892217 0.867771
Si Si6 0.668789 0.500000 0.779215
O O1 0.500000 0.784624 0.300612
O O2 0.250000 0.750000 0.250000
O O3 0.249697 0.839758 0.317043
O O4 0.273811 0.751529 0.377370
O O5 0.500000 0.386234 0.226714
O O6 0.263807 0.376322 0.301295
O O7 0.251372 0.443770 0.201348
O O8 0.500000 0.500000 0.594146
O O9 0.760973 0.447569 0.601950
O O10 0.658520 0.500000 0.701902
O O11 0.300937 0.727412 0.500000
O O12 0.500000 0.688892 0.585692
O O13 0.217084 0.654028 0.581306
O O14 0.500000 0.896529 0.854481
O O15 0.500000 0.500000 0.810428
#
# Coordination Sequence:
#
# PCOD8287809 Si02
#       6
#    16  16   8  16  16   8
#     4  11  21  33  53  79 105 134 172 218 265 312
#     4  10  18  31  51  75 105 139 173 210 256 312
#     4   9  17  31  50  70  99 138 176 213 258 309
#     4  10  22  39  55  71  99 141 180 213 260 321
#     4  11  20  31  50  76 104 133 173 221 264 305
#     4   7  14  27  45  70  99 132 165 201 248 298
#
# _framework density 17.710637999999999
#
# number of rings (size 3 to 8) (size 9 to 14) (size 15 to 20)
#    0.000    2.000    2.000    4.500    0.000    1.200 
#    0.000    2.000    0.000    3.000    0.000    0.700 
#    0.000    5.600    0.000    0.000    0.000    0.000 
#
# Total GULP energy -495841.643024 kJ/mol
# GULP energy per Si atom -12396.041076 kJ/mol
# Density = 1.767033 g / cm^3
# Si number density = 17.710638 Si / 1000 Ang^3
#
#
#
# Elastic Constant Matrix: (Units=GPa)
#
#
# Indices 1 2 3 4 5 6 
#
# 1 89.4233 49.9032 29.9845 0.0000 0.0000 0.0000
# 2 49.9032 170.0662 58.2220 0.0000 0.0000 0.0000
# 3 29.9845 58.2220 76.8425 0.0000 0.0000 0.0000
# 4 0.0000 0.0000 0.0000 16.5207 0.0000 0.0000
# 5 0.0000 0.0000 0.0000 0.0000 16.2177 0.0000
# 6 0.0000 0.0000 0.0000 0.0000 0.0000 33.6373
#
#
#
# Elastic Compliance Matrix: (Units=1/GPa)
#
#
# Indices 1 2 3 4 5 6 
#
# 1 0.013917 -0.003004 -0.003155 0.000000 0.000000 0.000000
# 2 -0.003004 0.008588 -0.005335 0.000000 0.000000 0.000000
# 3 -0.003155 -0.005335 0.018287 0.000000 0.000000 0.000000
# 4 0.000000 0.000000 0.000000 0.060530 0.000000 0.000000
# 5 0.000000 0.000000 0.000000 0.000000 0.061661 0.000000
# 6 0.000000 0.000000 0.000000 0.000000 0.000000 0.029729
#
#
# Mechanical properties :
#
#
# Convention : Reuss Voigt Hill
#
# Bulk Modulus (GPa) = 56.16358 68.06126 62.11242
# Shear Modulus (GPa) = 22.55990 26.48996 24.52493
#
# Velocity S-wave (km/s) = 3.57291 3.87164 3.72527
# Velocity P-wave (km/s) = 6.98581 7.64847 7.32464
#
# Compressibility (1/GPa) = 0.01780513
#
# Stress axis : x y z
#
# Youngs Moduli (GPa) = 71.85585 116.44442 54.68490
#
# Poissons Ratio (x) = 0.34976 0.17251
# Poissons Ratio (y) = 0.21583 0.29173
# Poissons Ratio (z) = 0.22667 0.62120
#
# Static dielectric constant tensor:
#      x y z
#    x 3.285690 0.000000 0.000000 
#    y 0.000000 3.694040 0.000000 
#    z 0.000000 0.000000 2.884270 
# 
# 
# High freq. dielectric constant tensor:
#      x y z
#    x 1.685520 0.000000 0.000000 
#    y 0.000000 1.703010 0.000000 
#    z 0.000000 0.000000 1.628950 
# 
# From -- ./inp_files/10262.got.cif
#   From: 2010.06.25/outbox.cif.g09.slc.cpg/sg71_6_cif.got.tgz:10262.got - 2010.06.28 04:59:45.
