data_PCOD8287474
_publ_section_title
;
Structure prediction by ZEFSAII (Michael W. Deem and Ramdas Pophale) SiO2 
 PCOD8287474
Probable space group: I M M M
;
_chemical_formula_sum "Si O2"
_cell_formula_units_Z 88
_cell_length_a 18.903723
_cell_length_b 9.532776
_cell_length_c 27.348965
_cell_angle_alpha 90.000000
_cell_angle_beta 90.000000
_cell_angle_gamma 90.000000
_cell_volume 4928.419060
_symmetry_space_group_name_H-M "I M M M"
_symmetry_group_IT_number 71
_symmetry_cell_setting 'orthorhombic'
loop_
_space_group_symop_operation_xyz
x,y,z
-x,-y,z
x,-y,-z
-x,y,-z
-x,-y,-z
x,y,-z
-x,y,z
x,-y,z
1/2+x,1/2+y,1/2+z
1/2-x,1/2-y,1/2+z
1/2+x,1/2-y,1/2-z
1/2-x,1/2+y,1/2-z
1/2-x,1/2-y,1/2-z
1/2+x,1/2+y,1/2-z
1/2-x,1/2+y,1/2+z
1/2+x,1/2-y,1/2+z
loop_
_atom_site_type_symbol
_atom_site_label
_atom_site_fract_x
_atom_site_fract_y
_atom_site_fract_z
Si Si1 0.919749 0.662527 0.261990
Si Si2 0.186323 0.662606 0.823857
Si Si3 0.190484 0.840238 0.445862
Si Si4 0.821856 0.833782 0.083185
Si Si5 0.150370 0.841170 0.660223
Si Si6 0.424104 0.665395 0.500000
O O1 0.912172 0.500000 0.274105
O O2 0.859489 0.707591 0.223220
O O3 0.905223 0.743060 0.312413
O O4 0.000000 0.696763 0.243731
O O5 0.172432 0.500000 0.836915
O O6 0.157944 0.763747 0.865819
O O7 0.270390 0.690801 0.819508
O O8 0.153885 0.820975 0.500000
O O9 0.252567 0.728656 0.442033
O O10 0.140831 0.813685 0.398420
O O11 0.219937 0.000000 0.441273
O O12 0.811854 0.000000 0.089217
O O13 0.885397 0.787647 0.048793
O O14 0.130201 0.000000 0.672787
O O15 0.430927 0.500000 0.500000
O O16 0.500000 0.739744 0.500000
#
# Coordination Sequence:
#
# PCOD8287474 Si02
#       6
#    16  16  16  16  16   8
#     4  10  21  36  53  73 101 136 169 207 257 306
#     4   9  19  35  52  72 100 132 167 209 254 298
#     4   9  17  31  52  75 102 130 157 199 253 300
#     4  10  18  29  47  71  96 125 166 209 247 290
#     4   9  18  32  52  78 102 129 166 207 251 299
#     4   9  18  30  41  59  95 135 164 199 246 291
#
# _framework density 17.855623999999999
#
# number of rings (size 3 to 8) (size 9 to 14) (size 15 to 20)
#    0.000    2.636    0.909    2.182    0.000    4.727 
#    0.000    0.000    0.000    4.364    0.000    3.818 
#    0.000    0.000    0.000    0.000    0.000    0.000 
#
# Total GULP energy -545185.515802 kJ/mol
# GULP energy per Si atom -12390.579905 kJ/mol
# Density = 1.781498 g / cm^3
# Si number density = 17.855624 Si / 1000 Ang^3
#
#
#
# Elastic Constant Matrix: (Units=GPa)
#
#
# Indices 1 2 3 4 5 6 
#
# 1 42.6746 21.1760 30.3731 0.0000 0.0000 0.0000
# 2 21.1760 61.2890 43.6957 0.0000 0.0000 0.0000
# 3 30.3731 43.6957 123.5303 0.0000 0.0000 0.0000
# 4 0.0000 0.0000 0.0000 30.6110 0.0000 0.0000
# 5 0.0000 0.0000 0.0000 0.0000 18.3693 0.0000
# 6 0.0000 0.0000 0.0000 0.0000 0.0000 19.0907
#
#
#
# Elastic Compliance Matrix: (Units=1/GPa)
#
#
# Indices 1 2 3 4 5 6 
#
# 1 0.030458 -0.006933 -0.005037 0.000000 0.000000 0.000000
# 2 -0.006933 0.023396 -0.006571 0.000000 0.000000 0.000000
# 3 -0.005037 -0.006571 0.011658 0.000000 0.000000 0.000000
# 4 0.000000 0.000000 0.000000 0.032668 0.000000 0.000000
# 5 0.000000 0.000000 0.000000 0.000000 0.054439 0.000000
# 6 0.000000 0.000000 0.000000 0.000000 0.000000 0.052381
#
#
# Mechanical properties :
#
#
# Convention : Reuss Voigt Hill
#
# Bulk Modulus (GPa) = 35.17268 46.44262 40.80765
# Shear Modulus (GPa) = 19.87604 22.43080 21.15342
#
# Velocity S-wave (km/s) = 3.34001 3.54818 3.44567
# Velocity P-wave (km/s) = 5.88349 6.54619 6.22367
#
# Compressibility (1/GPa) = 0.02843116
#
# Stress axis : x y z
#
# Youngs Moduli (GPa) = 32.83204 42.74151 85.77814
#
# Poissons Ratio (x) = 0.29632 0.43203
# Poissons Ratio (y) = 0.22762 0.56367
# Poissons Ratio (z) = 0.16536 0.28087
#
# Static dielectric constant tensor:
#      x y z
#    x 3.183520 0.000000 0.000000 
#    y 0.000000 3.235880 0.000000 
#    z 0.000000 0.000000 3.468970 
# 
# 
# High freq. dielectric constant tensor:
#      x y z
#    x 1.656290 0.000000 0.000000 
#    y 0.000000 1.688780 0.000000 
#    z 0.000000 0.000000 1.701870 
# 
# From -- ./inp_files/8830.got.cif
#   From: 2010.06.25/outbox.cif.g09.slc.cpg/sg71_5_cif.got.tgz:8830.got - 2010.06.28 04:59:45.
