data_PCOD8287730
_publ_section_title
;
Structure prediction by ZEFSAII (Michael W. Deem and Ramdas Pophale) SiO2 
 PCOD8287730
Probable space group: I M M M
;
_chemical_formula_sum "Si O2"
_cell_formula_units_Z 96
_cell_length_a 20.392318
_cell_length_b 29.063295
_cell_length_c 8.602740
_cell_angle_alpha 90.000000
_cell_angle_beta 90.000000
_cell_angle_gamma 90.000000
_cell_volume 5098.568313
_symmetry_space_group_name_H-M "I M M M"
_symmetry_group_IT_number 71
_symmetry_cell_setting 'orthorhombic'
loop_
_space_group_symop_operation_xyz
x,y,z
-x,-y,z
x,-y,-z
-x,y,-z
-x,-y,-z
x,y,-z
-x,y,z
x,-y,z
1/2+x,1/2+y,1/2+z
1/2-x,1/2-y,1/2+z
1/2+x,1/2-y,1/2-z
1/2-x,1/2+y,1/2-z
1/2-x,1/2-y,1/2-z
1/2+x,1/2+y,1/2-z
1/2-x,1/2+y,1/2+z
1/2+x,1/2-y,1/2+z
loop_
_atom_site_type_symbol
_atom_site_label
_atom_site_fract_x
_atom_site_fract_y
_atom_site_fract_z
Si Si1 0.655837 0.208744 0.322002
Si Si2 0.328336 0.052812 0.315954
Si Si3 0.075265 0.372692 0.682328
Si Si4 0.069468 0.949214 0.316099
Si Si5 0.794832 0.196875 0.820456
Si Si6 0.805495 0.102312 0.315012
O O1 0.639850 0.196708 0.500000
O O2 0.608603 0.176453 0.221002
O O3 0.731968 0.199623 0.290782
O O4 0.649770 0.263646 0.285777
O O5 0.329741 0.051098 0.500000
O O6 0.389241 0.083495 0.259224
O O7 0.261658 0.077805 0.259563
O O8 0.332310 0.000000 0.251545
O O9 0.079196 0.379927 0.500000
O O10 0.000000 0.371633 0.740475
O O11 0.076484 0.950852 0.500000
O O12 0.134426 0.926846 0.249167
O O13 0.000000 0.924301 0.271239
O O14 0.067062 0.000000 0.246319
O O15 0.823904 0.148125 0.777814
O O16 0.772726 0.200234 0.000000
O O17 0.805044 0.110327 0.500000
#
# Coordination Sequence:
#
# PCOD8287730 Si02
#       6
#    16  16  16  16  16  16
#     4  10  20  36  57  81 106 139 180 220 266 324
#     4  10  21  36  55  81 111 145 190 238 280 329
#     4  11  24  40  58  81 111 147 187 235 288 337
#     4   8  14  26  46  73 105 141 180 220 261 307
#     4  10  20  33  54  82 111 138 171 218 271 325
#     4  10  18  30  52  82 112 144 182 225 271 319
#
# _framework density 18.828814999999999
#
# number of rings (size 3 to 8) (size 9 to 14) (size 15 to 20)
#    0.000    2.167    1.667    2.500    0.000    6.000 
#    0.000    2.500    0.000    5.000    0.000    1.167 
#    0.000    0.000    0.000    0.000    0.000    0.000 
#
# Total GULP energy -594670.039501 kJ/mol
# GULP energy per Si atom -12388.959156 kJ/mol
# Density = 1.878596 g / cm^3
# Si number density = 18.828815 Si / 1000 Ang^3
#
#
#
# Elastic Constant Matrix: (Units=GPa)
#
#
# Indices 1 2 3 4 5 6 
#
# 1 122.8120 66.9532 14.1822 0.0000 0.0000 0.0000
# 2 66.9532 147.5513 23.6705 0.0000 0.0000 0.0000
# 3 14.1822 23.6705 24.5465 0.0000 0.0000 0.0000
# 4 0.0000 0.0000 0.0000 28.6132 0.0000 0.0000
# 5 0.0000 0.0000 0.0000 0.0000 17.8180 0.0000
# 6 0.0000 0.0000 0.0000 0.0000 0.0000 30.4247
#
#
#
# Elastic Compliance Matrix: (Units=1/GPa)
#
#
# Indices 1 2 3 4 5 6 
#
# 1 0.010886 -0.004650 -0.001806 0.000000 0.000000 0.000000
# 2 -0.004650 0.010004 -0.006960 0.000000 0.000000 0.000000
# 3 -0.001806 -0.006960 0.048494 0.000000 0.000000 0.000000
# 4 0.000000 0.000000 0.000000 0.034949 0.000000 0.000000
# 5 0.000000 0.000000 0.000000 0.000000 0.056123 0.000000
# 6 0.000000 0.000000 0.000000 0.000000 0.000000 0.032868
#
#
# Mechanical properties :
#
#
# Convention : Reuss Voigt Hill
#
# Bulk Modulus (GPa) = 23.50045 56.05795 39.77920
# Shear Modulus (GPa) = 21.33655 28.04476 24.69066
#
# Velocity S-wave (km/s) = 3.36993 3.86354 3.62515
# Velocity P-wave (km/s) = 5.25834 7.05263 6.22052
#
# Compressibility (1/GPa) = 0.04255238
#
# Stress axis : x y z
#
# Youngs Moduli (GPa) = 91.86035 99.96106 20.62110
#
# Poissons Ratio (x) = 0.46482 0.03723
# Poissons Ratio (y) = 0.42716 0.14353
# Poissons Ratio (z) = 0.16586 0.69575
#
# Static dielectric constant tensor:
#      x y z
#    x 3.542430 0.000000 0.000000 
#    y 0.000000 3.921870 0.000000 
#    z 0.000000 0.000000 3.196360 
# 
# 
# High freq. dielectric constant tensor:
#      x y z
#    x 1.720310 0.000000 0.000000 
#    y 0.000000 1.742550 0.000000 
#    z 0.000000 0.000000 1.711870 
# 
# From -- ./inp_files/10870.got.cif
#   From: 2010.06.25/outbox.cif.g09.slc.cpg/sg71_6_cif.got.tgz:10870.got - 2010.06.28 04:59:45.
