data_PCOD8287197
_publ_section_title
;
Structure prediction by ZEFSAII (Michael W. Deem and Ramdas Pophale) SiO2 
 PCOD8287197
Probable space group: I M M M
;
_chemical_formula_sum "Si O2"
_cell_formula_units_Z 80
_cell_length_a 23.963484
_cell_length_b 18.376580
_cell_length_c 9.381135
_cell_angle_alpha 90.000000
_cell_angle_beta 90.000000
_cell_angle_gamma 90.000000
_cell_volume 4131.141158
_symmetry_space_group_name_H-M "I M M M"
_symmetry_group_IT_number 71
_symmetry_cell_setting 'orthorhombic'
loop_
_space_group_symop_operation_xyz
x,y,z
-x,-y,z
x,-y,-z
-x,y,-z
-x,-y,-z
x,y,-z
-x,y,z
x,-y,z
1/2+x,1/2+y,1/2+z
1/2-x,1/2-y,1/2+z
1/2+x,1/2-y,1/2-z
1/2-x,1/2+y,1/2-z
1/2-x,1/2-y,1/2-z
1/2+x,1/2+y,1/2-z
1/2-x,1/2+y,1/2+z
1/2+x,1/2-y,1/2+z
loop_
_atom_site_type_symbol
_atom_site_label
_atom_site_fract_x
_atom_site_fract_y
_atom_site_fract_z
Si Si1 0.638774 0.841894 0.661931
Si Si2 0.233159 0.865609 0.660677
Si Si3 0.934030 0.917729 0.161791
Si Si4 0.759764 0.000000 0.168892
Si Si5 0.852929 0.500000 0.836385
Si Si6 0.122356 0.791450 0.337720
O O1 0.628866 0.817265 0.500000
O O2 0.704558 0.840280 0.700021
O O3 0.613617 0.924003 0.687512
O O4 0.606327 0.784288 0.760495
O O5 0.232937 0.897183 0.500000
O O6 0.211101 0.927713 0.769282
O O7 0.189519 0.799591 0.673604
O O8 0.907031 0.860579 0.268596
O O9 0.000000 0.911291 0.175978
O O10 0.914904 0.000000 0.201634
O O11 0.915349 0.900192 0.000000
O O12 0.696624 0.000000 0.223932
O O13 0.762987 0.000000 0.000000
O O14 0.829874 0.500000 0.000000
O O15 0.101975 0.786018 0.500000
#
# Coordination Sequence:
#
# PCOD8287197 Si02
#       6
#    16  16  16   8   8  16
#     4   9  17  32  51  70  99 140 178 210 246 298
#     4   9  19  33  45  63 100 142 173 208 253 302
#     4   9  20  40  61  78 100 132 172 218 264 312
#     4  10  18  26  42  66  89 124 173 216 248 289
#     4   8  16  32  50  66  93 134 171 204 248 295
#     4  11  22  32  49  77 105 132 167 213 262 310
#
# _framework density 19.365107999999999
#
# number of rings (size 3 to 8) (size 9 to 14) (size 15 to 20)
#    0.000    2.600    0.000    3.900    1.400    5.600 
#    0.000    1.000    0.000    0.000    0.000    0.700 
#    0.000    5.600    0.000    0.000    0.000    0.000 
#
# Total GULP energy -495687.907561 kJ/mol
# GULP energy per Si atom -12392.197689 kJ/mol
# Density = 1.932103 g / cm^3
# Si number density = 19.365108 Si / 1000 Ang^3
#
#
#
# Elastic Constant Matrix: (Units=GPa)
#
#
# Indices 1 2 3 4 5 6 
#
# 1 16.6164 23.6862 18.9146 0.0000 0.0000 0.0000
# 2 23.6862 163.9477 91.4217 0.0000 0.0000 0.0000
# 3 18.9146 91.4217 133.0153 0.0000 0.0000 0.0000
# 4 0.0000 0.0000 0.0000 33.3195 0.0000 0.0000
# 5 0.0000 0.0000 0.0000 0.0000 17.7723 0.0000
# 6 0.0000 0.0000 0.0000 0.0000 0.0000 19.2010
#
#
#
# Elastic Compliance Matrix: (Units=1/GPa)
#
#
# Indices 1 2 3 4 5 6 
#
# 1 0.078141 -0.008258 -0.005436 0.000000 0.000000 0.000000
# 2 -0.008258 0.010763 -0.006223 0.000000 0.000000 0.000000
# 3 -0.005436 -0.006223 0.012568 0.000000 0.000000 0.000000
# 4 0.000000 0.000000 0.000000 0.030012 0.000000 0.000000
# 5 0.000000 0.000000 0.000000 0.000000 0.056267 0.000000
# 6 0.000000 0.000000 0.000000 0.000000 0.000000 0.052081
#
#
# Mechanical properties :
#
#
# Convention : Reuss Voigt Hill
#
# Bulk Modulus (GPa) = 16.22379 64.62494 40.42437
# Shear Modulus (GPa) = 16.65493 26.02902 21.34197
#
# Velocity S-wave (km/s) = 2.93584 3.67020 3.32337
# Velocity P-wave (km/s) = 4.45962 7.16971 5.97047
#
# Compressibility (1/GPa) = 0.06163787
#
# Stress axis : x y z
#
# Youngs Moduli (GPa) = 12.79740 92.91388 79.56801
#
# Poissons Ratio (x) = 0.76731 0.43250
# Poissons Ratio (y) = 0.10568 0.49514
# Poissons Ratio (z) = 0.06956 0.57819
#
# Static dielectric constant tensor:
#      x y z
#    x 2.984460 0.000000 0.000000 
#    y 0.000000 3.760510 0.000000 
#    z 0.000000 0.000000 3.500340 
# 
# 
# High freq. dielectric constant tensor:
#      x y z
#    x 1.694430 0.000000 0.000000 
#    y 0.000000 1.766140 0.000000 
#    z 0.000000 0.000000 1.752920 
# 
# From -- ./inp_files/14574.got.cif
#   From: 2010.06.25/outbox.cif.g09.slc.cpg/sg71_8_cif.got.tgz:14574.got - 2010.06.28 04:59:45.
