data_PCOD8287254
_publ_section_title
;
Structure prediction by ZEFSAII (Michael W. Deem and Ramdas Pophale) SiO2 
 PCOD8287254
Probable space group: I M M M
;
_chemical_formula_sum "Si O2"
_cell_formula_units_Z 80
_cell_length_a 24.300211
_cell_length_b 20.659673
_cell_length_c 7.787224
_cell_angle_alpha 90.000000
_cell_angle_beta 90.000000
_cell_angle_gamma 90.000000
_cell_volume 3909.454430
_symmetry_space_group_name_H-M "I M M M"
_symmetry_group_IT_number 71
_symmetry_cell_setting 'orthorhombic'
loop_
_space_group_symop_operation_xyz
x,y,z
-x,-y,z
x,-y,-z
-x,y,-z
-x,-y,-z
x,y,-z
-x,y,z
x,-y,z
1/2+x,1/2+y,1/2+z
1/2-x,1/2-y,1/2+z
1/2+x,1/2-y,1/2-z
1/2-x,1/2+y,1/2-z
1/2-x,1/2-y,1/2-z
1/2+x,1/2+y,1/2-z
1/2-x,1/2+y,1/2+z
1/2+x,1/2-y,1/2+z
loop_
_atom_site_type_symbol
_atom_site_label
_atom_site_fract_x
_atom_site_fract_y
_atom_site_fract_z
Si Si1 0.630942 0.120981 0.703424
Si Si2 0.000000 0.924951 0.795098
Si Si3 0.186318 0.245398 0.199928
Si Si4 0.616176 0.625669 0.296716
Si Si5 0.181832 0.000000 0.798696
Si Si6 0.697070 0.000000 0.307428
Si Si7 0.936088 0.427743 0.500000
O O1 0.615763 0.117789 0.500000
O O2 0.657774 0.188546 0.754918
O O3 0.673516 0.066276 0.770893
O O4 0.578298 0.111029 0.824710
O O5 0.053519 0.884580 0.728136
O O6 0.000000 0.000000 0.727821
O O7 0.000000 0.928110 0.000000
O O8 0.250000 0.250000 0.250000
O O9 0.149897 0.186897 0.283780
O O10 0.184243 0.234127 0.000000
O O11 0.613598 0.632504 0.500000
O O12 0.648669 0.562324 0.239344
O O13 0.238085 0.000000 0.697588
O O14 0.194339 0.000000 0.000000
O O15 0.675553 0.000000 0.500000
O O16 0.909504 0.500000 0.500000
O O17 0.000000 0.434994 0.500000
#
# Coordination Sequence:
#
# PCOD8287254 Si02
#       7
#    16   8  16  16   8   8   8
#     4  10  22  40  60  88 125 158 200 252 309 370
#     4   9  14  26  50  76 114 147 178 239 293 337
#     4  10  21  36  55  83 120 160 200 246 303 364
#     4   9  17  30  48  79 112 148 193 236 293 354
#     4  10  18  27  50  84 113 143 193 247 290 347
#     4  10  20  34  53  80 111 149 189 235 295 359
#     4  11  24  42  68  94 116 155 207 255 317 375
#
# _framework density 20.463213
#
# number of rings (size 3 to 8) (size 9 to 14) (size 15 to 20)
#    0.000    2.200    2.000    1.200    2.800    0.400 
#    1.800    1.000    0.000    0.000    0.000    2.800 
#    0.000    0.000    0.000    0.000    0.000    0.000 
#
# Total GULP energy -495618.175105 kJ/mol
# GULP energy per Si atom -12390.454378 kJ/mol
# Density = 2.041664 g / cm^3
# Si number density = 20.463213 Si / 1000 Ang^3
#
#
#
# Elastic Constant Matrix: (Units=GPa)
#
#
# Indices 1 2 3 4 5 6 
#
# 1 141.7870 85.0469 21.1721 0.0000 0.0000 0.0000
# 2 85.0469 191.1496 29.3399 0.0000 0.0000 0.0000
# 3 21.1721 29.3399 44.9716 0.0000 0.0000 0.0000
# 4 0.0000 0.0000 0.0000 7.2990 0.0000 0.0000
# 5 0.0000 0.0000 0.0000 0.0000 23.5151 0.0000
# 6 0.0000 0.0000 0.0000 0.0000 0.0000 35.5728
#
#
#
# Elastic Compliance Matrix: (Units=1/GPa)
#
#
# Indices 1 2 3 4 5 6 
#
# 1 0.009773 -0.004047 -0.001961 0.000000 0.000000 0.000000
# 2 -0.004047 0.007490 -0.002981 0.000000 0.000000 0.000000
# 3 -0.001961 -0.002981 0.025104 0.000000 0.000000 0.000000
# 4 0.000000 0.000000 0.000000 0.137006 0.000000 0.000000
# 5 0.000000 0.000000 0.000000 0.000000 0.042526 0.000000
# 6 0.000000 0.000000 0.000000 0.000000 0.000000 0.028111
#
#
# Mechanical properties :
#
#
# Convention : Reuss Voigt Hill
#
# Bulk Modulus (GPa) = 41.00160 72.11399 56.55779
# Shear Modulus (GPa) = 18.10819 29.43401 23.77110
#
# Velocity S-wave (km/s) = 2.97798 3.79672 3.41200
# Velocity P-wave (km/s) = 5.64843 7.38495 6.57427
#
# Compressibility (1/GPa) = 0.02438929
#
# Stress axis : x y z
#
# Youngs Moduli (GPa) = 102.31917 133.51389 39.83418
#
# Poissons Ratio (x) = 0.54039 0.07810
# Poissons Ratio (y) = 0.41413 0.11874
# Poissons Ratio (z) = 0.20061 0.39800
#
# Static dielectric constant tensor:
#      x y z
#    x 3.727140 0.000000 0.000000 
#    y 0.000000 4.243850 0.000000 
#    z 0.000000 0.000000 3.670120 
# 
# 
# High freq. dielectric constant tensor:
#      x y z
#    x 1.799290 0.000000 0.000000 
#    y 0.000000 1.810020 0.000000 
#    z 0.000000 0.000000 1.772200 
# 
# From -- ./inp_files/12433.got.cif
#   From: 2010.06.25/outbox.cif.g09.slc.cpg/sg71_7_cif.got.tgz:12433.got - 2010.06.28 04:59:45.
