data_PCOD8287596
_publ_section_title
;
Structure prediction by ZEFSAII (Michael W. Deem and Ramdas Pophale) SiO2 
 PCOD8287596
Probable space group: I M M M
;
_chemical_formula_sum "Si O2"
_cell_formula_units_Z 96
_cell_length_a 18.820689
_cell_length_b 17.836284
_cell_length_c 17.267296
_cell_angle_alpha 90.000000
_cell_angle_beta 90.000000
_cell_angle_gamma 90.000000
_cell_volume 5796.478522
_symmetry_space_group_name_H-M "I M M M"
_symmetry_group_IT_number 71
_symmetry_cell_setting 'orthorhombic'
loop_
_space_group_symop_operation_xyz
x,y,z
-x,-y,z
x,-y,-z
-x,y,-z
-x,-y,-z
x,y,-z
-x,y,z
x,-y,z
1/2+x,1/2+y,1/2+z
1/2-x,1/2-y,1/2+z
1/2+x,1/2-y,1/2-z
1/2-x,1/2+y,1/2-z
1/2-x,1/2-y,1/2-z
1/2+x,1/2+y,1/2-z
1/2-x,1/2+y,1/2+z
1/2+x,1/2-y,1/2+z
loop_
_atom_site_type_symbol
_atom_site_label
_atom_site_fract_x
_atom_site_fract_y
_atom_site_fract_z
Si Si1 0.417337 0.292635 0.120138
Si Si2 0.419081 0.587750 0.500000
Si Si3 0.083576 0.916056 0.500000
Si Si4 0.580335 0.082572 0.792356
Si Si5 0.327954 0.691653 0.413856
Si Si6 0.919127 0.263994 0.786763
Si Si7 0.326630 0.848293 0.085888
O O1 0.500000 0.276341 0.103218
O O2 0.403749 0.290637 0.213002
O O3 0.372261 0.227215 0.081497
O O4 0.394043 0.370662 0.078501
O O5 0.413729 0.500000 0.500000
O O6 0.500000 0.615937 0.500000
O O7 0.379414 0.619058 0.423119
O O8 0.000000 0.925955 0.500000
O O9 0.118376 0.000000 0.500000
O O10 0.500000 0.091777 0.824168
O O11 0.595622 0.148827 0.732046
O O12 0.634656 0.088896 0.863456
O O13 0.590543 0.000000 0.754127
O O14 0.318705 0.729201 0.500000
O O15 0.364648 0.748567 0.355306
O O16 0.251590 0.668534 0.379413
O O17 0.000000 0.252484 0.814940
O O18 0.317642 0.881602 0.000000
#
# Coordination Sequence:
#
# PCOD8287596 Si02
#       7
#    16   8   8  16  16  16  16
#     4   9  17  28  47  70  95 128 164 195 231 285
#     4   9  18  33  50  68  92 119 150 195 248 288
#     4   9  16  27  44  66  93 122 154 195 235 269
#     4   9  19  32  47  72 103 132 160 196 244 290
#     4   9  20  32  50  76  93 125 162 205 243 292
#     4   9  17  32  53  73  94 124 164 204 240 289
#     4  10  18  30  47  73  96 130 161 199 236 287
#
# _framework density 16.561779999999999
#
# number of rings (size 3 to 8) (size 9 to 14) (size 15 to 20)
#    0.500    2.333    0.833    2.000    0.000    4.667 
#    0.000    1.667    0.000    6.500    0.000    2.333 
#    0.000    0.000    0.000    0.000    0.000    0.000 
#
# Total GULP energy -594731.497767 kJ/mol
# GULP energy per Si atom -12390.239537 kJ/mol
# Density = 1.652408 g / cm^3
# Si number density = 16.561780 Si / 1000 Ang^3
#
#
#
# Elastic Constant Matrix: (Units=GPa)
#
#
# Indices 1 2 3 4 5 6 
#
# 1 100.9958 38.7099 40.1215 0.0000 0.0000 0.0000
# 2 38.7099 103.7486 36.0061 0.0000 0.0000 0.0000
# 3 40.1215 36.0061 73.2373 0.0000 0.0000 0.0000
# 4 0.0000 0.0000 0.0000 15.8110 0.0000 0.0000
# 5 0.0000 0.0000 0.0000 0.0000 26.1535 0.0000
# 6 0.0000 0.0000 0.0000 0.0000 0.0000 10.9737
#
#
#
# Elastic Compliance Matrix: (Units=1/GPa)
#
#
# Indices 1 2 3 4 5 6 
#
# 1 0.013364 -0.002949 -0.005872 0.000000 0.000000 0.000000
# 2 -0.002949 0.012272 -0.004418 0.000000 0.000000 0.000000
# 3 -0.005872 -0.004418 0.019043 0.000000 0.000000 0.000000
# 4 0.000000 0.000000 0.000000 0.063247 0.000000 0.000000
# 5 0.000000 0.000000 0.000000 0.000000 0.038236 0.000000
# 6 0.000000 0.000000 0.000000 0.000000 0.000000 0.091127
#
#
# Mechanical properties :
#
#
# Convention : Reuss Voigt Hill
#
# Bulk Modulus (GPa) = 54.93712 56.40631 55.67172
# Shear Modulus (GPa) = 18.52994 21.46391 19.99693
#
# Velocity S-wave (km/s) = 3.34853 3.60389 3.47856
# Velocity P-wave (km/s) = 6.94214 7.17283 7.05842
#
# Compressibility (1/GPa) = 0.01820263
#
# Stress axis : x y z
#
# Youngs Moduli (GPa) = 74.82745 81.48529 52.51273
#
# Poissons Ratio (x) = 0.24026 0.30833
# Poissons Ratio (y) = 0.22063 0.23201
# Poissons Ratio (z) = 0.43936 0.36001
#
# Static dielectric constant tensor:
#      x y z
#    x 3.150940 0.000000 0.000000 
#    y 0.000000 3.097510 0.000000 
#    z 0.000000 0.000000 2.925320 
# 
# 
# High freq. dielectric constant tensor:
#      x y z
#    x 1.639160 0.000000 0.000000 
#    y 0.000000 1.619680 0.000000 
#    z 0.000000 0.000000 1.615430 
# 
# From -- ./inp_files/54233.got.cif
#   From: 2010.06.25/outbox.cif.g09.slc.cpg/sg71_28_cif.got.tgz:54233.got - 2010.06.28 04:59:45.
