data_PCOD8287863
_publ_section_title
;
Structure prediction by ZEFSAII (Michael W. Deem and Ramdas Pophale) SiO2 
 PCOD8287863
Probable space group: I M M M
;
_chemical_formula_sum "Si O2"
_cell_formula_units_Z 72
_cell_length_a 13.545932
_cell_length_b 31.595079
_cell_length_c 8.180612
_cell_angle_alpha 90.000000
_cell_angle_beta 90.000000
_cell_angle_gamma 90.000000
_cell_volume 3501.177523
_symmetry_space_group_name_H-M "I M M M"
_symmetry_group_IT_number 71
_symmetry_cell_setting 'orthorhombic'
loop_
_space_group_symop_operation_xyz
x,y,z
-x,-y,z
x,-y,-z
-x,y,-z
-x,-y,-z
x,y,-z
-x,y,z
x,-y,z
1/2+x,1/2+y,1/2+z
1/2-x,1/2-y,1/2+z
1/2+x,1/2-y,1/2-z
1/2-x,1/2+y,1/2-z
1/2-x,1/2-y,1/2-z
1/2+x,1/2+y,1/2-z
1/2-x,1/2+y,1/2+z
1/2+x,1/2-y,1/2+z
loop_
_atom_site_type_symbol
_atom_site_label
_atom_site_fract_x
_atom_site_fract_y
_atom_site_fract_z
Si Si1 0.790799 0.416064 0.319361
Si Si2 0.116661 0.248537 0.320542
Si Si3 0.111137 0.663409 0.184801
Si Si4 0.387053 0.397263 0.500000
Si Si5 0.614210 0.703166 0.500000
Si Si6 0.889002 0.500000 0.191676
O O1 0.838815 0.410077 0.500000
O O2 0.819771 0.377080 0.205807
O O3 0.670512 0.415590 0.339727
O O4 0.827038 0.459574 0.244560
O O5 0.157217 0.233806 0.500000
O O6 0.143088 0.298035 0.300859
O O7 0.163770 0.222029 0.167962
O O8 0.000000 0.241733 0.317022
O O9 0.000000 0.648681 0.224918
O O10 0.119310 0.680100 0.000000
O O11 0.500000 0.412383 0.500000
O O12 0.375197 0.346881 0.500000
O O13 0.500000 0.717125 0.500000
O O14 0.000000 0.500000 0.267893
O O15 0.899003 0.500000 0.000000
#
# Coordination Sequence:
#
# PCOD8287863 Si02
#       6
#    16  16  16   8   8   8
#     4  10  22  37  60  90 118 157 206 247 292 366
#     4   9  16  27  50  82 116 160 209 252 308 377
#     4  10  18  31  53  85 128 167 194 239 309 379
#     4   9  22  43  64  81 112 160 211 270 325 349
#     4   9  16  34  57  80 113 159 214 267 319 371
#     4  11  23  41  65  98 138 168 181 217 297 383
#
# _framework density 20.564509000000001
#
# number of rings (size 3 to 8) (size 9 to 14) (size 15 to 20)
#    0.667    1.667    1.111    2.333    0.000    4.889 
#    0.000    4.444    0.000    6.000    0.000    0.000 
#    0.000    0.000    0.000    0.000    0.000    0.000 
#
# Total GULP energy -446110.439944 kJ/mol
# GULP energy per Si atom -12391.956665 kJ/mol
# Density = 2.051770 g / cm^3
# Si number density = 20.564509 Si / 1000 Ang^3
#
#
#
# Elastic Constant Matrix: (Units=GPa)
#
#
# Indices 1 2 3 4 5 6 
#
# 1 113.6563 46.8475 33.5530 -0.0047 0.0027 0.0085
# 2 46.8475 84.0615 45.4695 -0.0238 0.0250 0.0152
# 3 33.5530 45.4695 122.9897 -0.0537 0.0596 0.0820
# 4 -0.0047 -0.0238 -0.0537 32.1638 0.0524 0.0637
# 5 0.0027 0.0250 0.0596 0.0524 15.4570 -0.0744
# 6 0.0085 0.0152 0.0820 0.0637 -0.0744 23.5893
#
#
#
# Elastic Compliance Matrix: (Units=1/GPa)
#
#
# Indices 1 2 3 4 5 6 
#
# 1 0.011512 -0.005896 -0.000961 -0.000004 0.000011 0.000003
# 2 -0.005896 0.017889 -0.005005 0.000004 -0.000009 0.000008
# 3 -0.000961 -0.005005 0.010243 0.000013 -0.000031 -0.000032
# 4 -0.000004 0.000004 0.000013 0.031091 -0.000106 -0.000084
# 5 0.000011 -0.000009 -0.000031 -0.000106 0.064697 0.000204
# 6 0.000003 0.000008 -0.000032 -0.000084 0.000204 0.042393
#
#
# Mechanical properties :
#
#
# Convention : Reuss Voigt Hill
#
# Bulk Modulus (GPa) = 62.81142 63.60527 63.20834
# Shear Modulus (GPa) = 24.17123 27.23120 25.70121
#
# Velocity S-wave (km/s) = 3.43211 3.64288 3.53906
# Velocity P-wave (km/s) = 6.80557 6.97789 6.89227
#
# Compressibility (1/GPa) = 0.01592067
#
# Stress axis : x y z
#
# Youngs Moduli (GPa) = 86.86269 55.89941 97.62402
#
# Poissons Ratio (x) = 0.32959 0.09381
# Poissons Ratio (y) = 0.51215 0.48862
# Poissons Ratio (z) = 0.08347 0.27979
#
# Static dielectric constant tensor:
#      x y z
#    x 3.647130 0.000000 0.000010 
#    y 0.000000 3.450270 0.000000 
#    z 0.000010 0.000000 3.928560 
# 
# 
# High freq. dielectric constant tensor:
#      x y z
#    x 1.794550 0.000000 0.000000 
#    y 0.000000 1.788660 0.000000 
#    z 0.000000 0.000000 1.807060 
# 
# From -- ./inp_files/6581.got.cif
#   From: 2010.06.25/outbox.cif.g09.slc.cpg/sg71_4_cif.got.tgz:6581.got - 2010.06.28 04:59:45.
