data_PCOD8287591
_publ_section_title
;
Structure prediction by ZEFSAII (Michael W. Deem and Ramdas Pophale) SiO2 
 PCOD8287591
Probable space group: I M M M
;
_chemical_formula_sum "Si O2"
_cell_formula_units_Z 72
_cell_length_a 8.356888
_cell_length_b 19.374712
_cell_length_c 27.515037
_cell_angle_alpha 90.000000
_cell_angle_beta 90.000000
_cell_angle_gamma 90.000000
_cell_volume 4455.022876
_symmetry_space_group_name_H-M "I M M M"
_symmetry_group_IT_number 71
_symmetry_cell_setting 'orthorhombic'
loop_
_space_group_symop_operation_xyz
x,y,z
-x,-y,z
x,-y,-z
-x,y,-z
-x,-y,-z
x,y,-z
-x,y,z
x,-y,z
1/2+x,1/2+y,1/2+z
1/2-x,1/2-y,1/2+z
1/2+x,1/2-y,1/2-z
1/2-x,1/2+y,1/2-z
1/2-x,1/2-y,1/2-z
1/2+x,1/2+y,1/2-z
1/2-x,1/2+y,1/2+z
1/2+x,1/2-y,1/2+z
loop_
_atom_site_type_symbol
_atom_site_label
_atom_site_fract_x
_atom_site_fract_y
_atom_site_fract_z
Si Si1 0.315152 0.121014 0.898859
Si Si2 0.813734 0.781891 0.174542
Si Si3 0.190402 0.649181 0.230155
Si Si4 0.189636 0.080330 0.000000
Si Si5 0.818743 0.000000 0.837728
Si Si6 0.317588 0.000000 0.734997
O O1 0.500000 0.100642 0.895027
O O2 0.283389 0.195345 0.873562
O O3 0.261336 0.121455 0.954505
O O4 0.206615 0.066473 0.870786
O O5 0.761567 0.703704 0.188432
O O6 0.775674 0.832310 0.219407
O O7 0.000000 0.785503 0.162606
O O8 0.254173 0.572468 0.214476
O O9 0.000000 0.649828 0.239549
O O10 0.000000 0.085656 0.000000
O O11 0.244503 0.000000 0.000000
O O12 0.696714 0.000000 0.793180
O O13 0.000000 0.000000 0.818055
O O14 0.500000 0.000000 0.719682
#
# Coordination Sequence:
#
# PCOD8287591 Si02
#       6
#    16  16  16   8   8   8
#     4  12  23  35  50  67  92 126 160 197 237 280
#     4  10  19  31  46  66  93 125 160 196 235 279
#     4   9  18  30  46  67  93 124 158 198 239 279
#     4  11  23  37  53  71  92 119 156 201 238 272
#     4  12  22  31  45  68  92 124 162 199 236 277
#     4  10  18  30  47  69  94 123 161 200 239 281
#
# _framework density 16.161532000000001
#
# number of rings (size 3 to 8) (size 9 to 14) (size 15 to 20)
#    0.000    1.444    3.333    4.000    0.000    1.333 
#    0.000    0.000    0.000    0.000    0.000    0.000 
#    0.000    0.889    0.000   10.444    0.000    2.000 
#
# Total GULP energy -446295.854186 kJ/mol
# GULP energy per Si atom -12397.107061 kJ/mol
# Density = 1.612475 g / cm^3
# Si number density = 16.161532 Si / 1000 Ang^3
#
#
#
# Elastic Constant Matrix: (Units=GPa)
#
#
# Indices 1 2 3 4 5 6 
#
# 1 51.3070 16.6150 16.2524 0.0000 0.0000 0.0000
# 2 16.6150 136.8122 49.3048 0.0000 0.0000 0.0000
# 3 16.2524 49.3048 84.8964 0.0000 0.0000 0.0000
# 4 0.0000 0.0000 0.0000 18.7444 0.0000 0.0000
# 5 0.0000 0.0000 0.0000 0.0000 22.2407 0.0000
# 6 0.0000 0.0000 0.0000 0.0000 0.0000 17.5704
#
#
#
# Elastic Compliance Matrix: (Units=1/GPa)
#
#
# Indices 1 2 3 4 5 6 
#
# 1 0.020956 -0.001390 -0.003204 0.000000 0.000000 0.000000
# 2 -0.001390 0.009336 -0.005156 0.000000 0.000000 0.000000
# 3 -0.003204 -0.005156 0.015387 0.000000 0.000000 0.000000
# 4 0.000000 0.000000 0.000000 0.053349 0.000000 0.000000
# 5 0.000000 0.000000 0.000000 0.000000 0.044963 0.000000
# 6 0.000000 0.000000 0.000000 0.000000 0.000000 0.056914
#
#
# Mechanical properties :
#
#
# Convention : Reuss Voigt Hill
#
# Bulk Modulus (GPa) = 38.20028 48.59556 43.39792
# Shear Modulus (GPa) = 21.82149 24.43399 23.12774
#
# Velocity S-wave (km/s) = 3.67851 3.89248 3.78701
# Velocity P-wave (km/s) = 6.45986 7.09478 6.78475
#
# Compressibility (1/GPa) = 0.02617782
#
# Stress axis : x y z
#
# Youngs Moduli (GPa) = 47.71964 107.10927 64.99017
#
# Poissons Ratio (x) = 0.14890 0.20825
# Poissons Ratio (y) = 0.06634 0.33509
# Poissons Ratio (z) = 0.15291 0.55226
#
# Static dielectric constant tensor:
#      x y z
#    x 3.052820 0.000000 0.000000 
#    y 0.000000 3.489500 0.000000 
#    z 0.000000 0.000000 2.884570 
# 
# 
# High freq. dielectric constant tensor:
#      x y z
#    x 1.629380 0.000000 0.000000 
#    y 0.000000 1.616890 0.000000 
#    z 0.000000 0.000000 1.580960 
# 
# From -- ./inp_files/12347.got.cif
#   From: 2010.06.25/outbox.cif.g09.slc.cpg/sg71_7_cif.got.tgz:12347.got - 2010.06.28 04:59:45.
