data_PCOD8287647
_publ_section_title
;
Structure prediction by ZEFSAII (Michael W. Deem and Ramdas Pophale) SiO2 
 PCOD8287647
Probable space group: I M M M
;
_chemical_formula_sum "Si O2"
_cell_formula_units_Z 88
_cell_length_a 13.578620
_cell_length_b 23.343144
_cell_length_c 16.419836
_cell_angle_alpha 90.000000
_cell_angle_beta 90.000000
_cell_angle_gamma 90.000000
_cell_volume 5204.557355
_symmetry_space_group_name_H-M "I M M M"
_symmetry_group_IT_number 71
_symmetry_cell_setting 'orthorhombic'
loop_
_space_group_symop_operation_xyz
x,y,z
-x,-y,z
x,-y,-z
-x,y,-z
-x,-y,-z
x,y,-z
-x,y,z
x,-y,z
1/2+x,1/2+y,1/2+z
1/2-x,1/2-y,1/2+z
1/2+x,1/2-y,1/2-z
1/2-x,1/2+y,1/2-z
1/2-x,1/2-y,1/2-z
1/2+x,1/2+y,1/2-z
1/2-x,1/2+y,1/2+z
1/2+x,1/2-y,1/2+z
loop_
_atom_site_type_symbol
_atom_site_label
_atom_site_fract_x
_atom_site_fract_y
_atom_site_fract_z
Si Si1 0.800971 0.063367 0.096624
Si Si2 0.725798 0.770600 0.907686
Si Si3 0.393083 0.879085 0.095569
Si Si4 0.385446 0.343299 0.870446
Si Si5 0.384364 0.564011 0.000000
Si Si6 0.888959 0.166710 0.183198
O O1 0.690462 0.077700 0.128774
O O2 0.877810 0.108994 0.130938
O O3 0.829981 0.000000 0.126963
O O4 0.804384 0.067560 0.000000
O O5 0.638703 0.814236 0.883413
O O6 0.684507 0.707143 0.901507
O O7 0.818285 0.782151 0.847880
O O8 0.761468 0.782708 0.000000
O O9 0.500000 0.891264 0.136609
O O10 0.403622 0.887553 0.000000
O O11 0.500000 0.328716 0.888895
O O12 0.353201 0.400671 0.918897
O O13 0.365195 0.351472 0.775363
O O14 0.335539 0.500000 0.000000
O O15 0.500000 0.555788 0.000000
O O16 0.000000 0.189632 0.174702
#
# Coordination Sequence:
#
# PCOD8287647 Si02
#       6
#    16  16  16  16   8  16
#     4   9  18  31  45  63  90 127 167 201 238 288
#     4  10  18  30  49  71  98 129 161 196 241 301
#     4   8  14  24  41  66  92 118 150 190 233 279
#     4  10  19  32  51  73  98 127 157 195 249 303
#     4   9  18  32  50  74 101 127 160 201 243 295
#     4  10  21  33  46  68  98 130 163 204 247 287
#
# _framework density 16.908258
#
# number of rings (size 3 to 8) (size 9 to 14) (size 15 to 20)
#    0.000    2.636    0.909    2.727    0.000    3.636 
#    0.000    4.545    0.000    0.000    0.000    0.000 
#    0.000    1.455    0.000    0.000    0.000    0.727 
#
# Total GULP energy -545340.486538 kJ/mol
# GULP energy per Si atom -12394.101967 kJ/mol
# Density = 1.686977 g / cm^3
# Si number density = 16.908258 Si / 1000 Ang^3
#
#
#
# Elastic Constant Matrix: (Units=GPa)
#
#
# Indices 1 2 3 4 5 6 
#
# 1 65.8748 23.6693 36.0870 0.0000 0.0000 0.0000
# 2 23.6693 115.8113 36.2496 -0.0002 -0.0002 0.0000
# 3 36.0870 36.2496 71.6602 0.0002 -0.0003 0.0000
# 4 0.0000 -0.0002 0.0002 16.4296 -0.0002 0.0000
# 5 0.0000 -0.0002 -0.0003 -0.0002 16.8982 0.0000
# 6 0.0000 0.0000 0.0000 0.0000 0.0000 17.5276
#
#
#
# Elastic Compliance Matrix: (Units=1/GPa)
#
#
# Indices 1 2 3 4 5 6 
#
# 1 0.021097 -0.001172 -0.010031 0.000000 0.000000 0.000000
# 2 -0.001172 0.010324 -0.004632 0.000000 0.000000 0.000000
# 3 -0.010031 -0.004632 0.021350 0.000000 0.000000 0.000000
# 4 0.000000 0.000000 0.000000 0.060866 0.000001 0.000000
# 5 0.000000 0.000000 0.000000 0.000001 0.059178 0.000000
# 6 0.000000 0.000000 0.000000 0.000000 0.000000 0.057053
#
#
# Mechanical properties :
#
#
# Convention : Reuss Voigt Hill
#
# Bulk Modulus (GPa) = 47.39437 49.48426 48.43931
# Shear Modulus (GPa) = 18.61707 20.66044 19.63875
#
# Velocity S-wave (km/s) = 3.32183 3.49938 3.41176
# Velocity P-wave (km/s) = 6.54247 6.75703 6.65061
#
# Compressibility (1/GPa) = 0.02109955
#
# Stress axis : x y z
#
# Youngs Moduli (GPa) = 47.40113 96.85968 46.83929
#
# Poissons Ratio (x) = 0.11351 0.46985
# Poissons Ratio (y) = 0.05555 0.21698
# Poissons Ratio (z) = 0.47549 0.44869
#
# Static dielectric constant tensor:
#      x y z
#    x 3.195430 0.000000 0.000000 
#    y 0.000000 3.246990 0.000000 
#    z 0.000000 0.000000 3.105020 
# 
# 
# High freq. dielectric constant tensor:
#      x y z
#    x 1.636190 0.000000 0.000000 
#    y 0.000000 1.646640 0.000000 
#    z 0.000000 0.000000 1.633170 
# 
# From -- ./inp_files/34660.got.cif
#   From: 2010.06.25/outbox.cif.g09.slc.cpg/sg71_18_cif.got.tgz:34660.got - 2010.06.28 04:59:45.
