data_PCOD8287426
_publ_section_title
;
Structure prediction by ZEFSAII (Michael W. Deem and Ramdas Pophale) SiO2 
 PCOD8287426
Probable space group: I M M M
;
_chemical_formula_sum "Si O2"
_cell_formula_units_Z 120
_cell_length_a 13.092514
_cell_length_b 19.070185
_cell_length_c 29.802560
_cell_angle_alpha 90.000000
_cell_angle_beta 90.000000
_cell_angle_gamma 90.000000
_cell_volume 7441.003762
_symmetry_space_group_name_H-M "I M M M"
_symmetry_group_IT_number 71
_symmetry_cell_setting 'orthorhombic'
loop_
_space_group_symop_operation_xyz
x,y,z
-x,-y,z
x,-y,-z
-x,y,-z
-x,-y,-z
x,y,-z
-x,y,z
x,-y,z
1/2+x,1/2+y,1/2+z
1/2-x,1/2-y,1/2+z
1/2+x,1/2-y,1/2-z
1/2-x,1/2+y,1/2-z
1/2-x,1/2-y,1/2-z
1/2+x,1/2+y,1/2-z
1/2-x,1/2+y,1/2+z
1/2+x,1/2-y,1/2+z
loop_
_atom_site_type_symbol
_atom_site_label
_atom_site_fract_x
_atom_site_fract_y
_atom_site_fract_z
Si Si1 0.223735 0.081133 0.295120
Si Si2 0.199992 0.081013 0.601948
Si Si3 0.120913 0.177521 0.049563
Si Si4 0.384448 0.820510 0.594076
Si Si5 0.000000 0.083448 0.448791
Si Si6 0.614925 0.196169 0.301798
Si Si7 0.622134 0.578896 0.372672
Si Si8 0.119267 0.152098 0.216012
O O1 0.181033 0.092626 0.345141
O O2 0.323256 0.128117 0.285817
O O3 0.137957 0.106949 0.260632
O O4 0.251986 0.000000 0.286884
O O5 0.304248 0.117354 0.585500
O O6 0.101525 0.112238 0.576070
O O7 0.214904 0.000000 0.590192
O O8 0.150450 0.256431 0.062956
O O9 0.166605 0.121992 0.084945
O O10 0.000000 0.170078 0.049542
O O11 0.165439 0.161586 0.000000
O O12 0.500000 0.846329 0.582401
O O13 0.380855 0.793780 0.644889
O O14 0.000000 0.110165 0.500000
O O15 0.000000 0.000000 0.446068
O O16 0.500000 0.182864 0.285062
O O17 0.661468 0.267945 0.280584
O O18 0.500000 0.580200 0.372123
O O19 0.663577 0.500000 0.376616
O O20 0.667117 0.612403 0.326946
O O21 0.000000 0.158745 0.207756
#
# Coordination Sequence:
#
# PCOD8287426 Si02
#       8
#    16  16  16  16   8  16  16  16
#     4  10  20  30  44  69  95 119 150 192 235 273
#     4   9  19  32  47  69  92 118 155 197 236 277
#     4   9  16  26  41  61  86 117 149 181 220 265
#     4   9  16  29  47  67  93 121 152 190 232 278
#     4   9  18  34  52  64  84 122 159 193 236 284
#     4   9  17  31  48  63  86 122 157 188 224 274
#     4   9  16  26  40  60  87 118 151 182 215 263
#     4  10  18  29  46  66  90 122 154 185 224 272
#
# _framework density 16.126856
#
# number of rings (size 3 to 8) (size 9 to 14) (size 15 to 20)
#    0.000    2.733    1.333    0.800    0.933    2.133 
#    0.000    4.000    0.000    0.000    0.000    3.733 
#    0.000    0.000    0.000    0.067    0.000    2.467 
#
# Total GULP energy -743777.178306 kJ/mol
# GULP energy per Si atom -12396.286305 kJ/mol
# Density = 1.609015 g / cm^3
# Si number density = 16.126856 Si / 1000 Ang^3
#
#
#
# Elastic Constant Matrix: (Units=GPa)
#
#
# Indices 1 2 3 4 5 6 
#
# 1 58.2124 43.1159 30.0338 0.0000 0.0000 0.0000
# 2 43.1159 111.2808 51.9262 0.0000 0.0000 0.0000
# 3 30.0338 51.9262 85.0738 0.0000 0.0000 0.0000
# 4 0.0000 0.0000 0.0000 21.4935 0.0000 0.0000
# 5 0.0000 0.0000 0.0000 0.0000 15.4533 0.0000
# 6 0.0000 0.0000 0.0000 0.0000 0.0000 17.4839
#
#
#
# Elastic Compliance Matrix: (Units=1/GPa)
#
#
# Indices 1 2 3 4 5 6 
#
# 1 0.025068 -0.007806 -0.004085 0.000000 0.000000 0.000000
# 2 -0.007806 0.014996 -0.006397 0.000000 0.000000 0.000000
# 3 -0.004085 -0.006397 0.017101 0.000000 0.000000 0.000000
# 4 0.000000 0.000000 0.000000 0.046526 0.000000 0.000000
# 5 0.000000 0.000000 0.000000 0.000000 0.064711 0.000000
# 6 0.000000 0.000000 0.000000 0.000000 0.000000 0.057196
#
#
# Mechanical properties :
#
#
# Convention : Reuss Voigt Hill
#
# Bulk Modulus (GPa) = 48.57190 56.07986 52.32588
# Shear Modulus (GPa) = 18.58476 19.51886 19.05181
#
# Velocity S-wave (km/s) = 3.39840 3.48276 3.44084
# Velocity P-wave (km/s) = 6.75151 7.14300 6.95001
#
# Compressibility (1/GPa) = 0.02058804
#
# Stress axis : x y z
#
# Youngs Moduli (GPa) = 39.89141 66.68475 58.47536
#
# Poissons Ratio (x) = 0.52057 0.23887
# Poissons Ratio (y) = 0.31141 0.37407
# Poissons Ratio (z) = 0.16296 0.42659
#
# Static dielectric constant tensor:
#      x y z
#    x 2.777220 0.000000 0.000000 
#    y 0.000000 3.109490 0.000000 
#    z 0.000000 0.000000 3.146000 
# 
# 
# High freq. dielectric constant tensor:
#      x y z
#    x 1.575160 0.000000 0.000000 
#    y 0.000000 1.620440 0.000000 
#    z 0.000000 0.000000 1.621230 
# 
# From -- ./inp_files/64849.got.cif
#   From: 2010.06.25/outbox.cif.g09.slc.cpg/sg71_33_cif.got.tgz:64849.got - 2010.06.28 04:59:45.
