data_PCOD8287040
_publ_section_title
;
Structure prediction by ZEFSAII (Michael W. Deem and Ramdas Pophale) SiO2 
 PCOD8287040
Probable space group: I M M M
;
_chemical_formula_sum "Si O2"
_cell_formula_units_Z 112
_cell_length_a 13.440517
_cell_length_b 22.180548
_cell_length_c 23.278741
_cell_angle_alpha 90.000000
_cell_angle_beta 90.000000
_cell_angle_gamma 90.000000
_cell_volume 6939.812465
_symmetry_space_group_name_H-M "I M M M"
_symmetry_group_IT_number 71
_symmetry_cell_setting 'orthorhombic'
loop_
_space_group_symop_operation_xyz
x,y,z
-x,-y,z
x,-y,-z
-x,y,-z
-x,-y,-z
x,y,-z
-x,y,z
x,-y,z
1/2+x,1/2+y,1/2+z
1/2-x,1/2-y,1/2+z
1/2+x,1/2-y,1/2-z
1/2-x,1/2+y,1/2-z
1/2-x,1/2-y,1/2-z
1/2+x,1/2+y,1/2-z
1/2-x,1/2+y,1/2+z
1/2+x,1/2-y,1/2+z
loop_
_atom_site_type_symbol
_atom_site_label
_atom_site_fract_x
_atom_site_fract_y
_atom_site_fract_z
Si Si1 0.383473 0.181405 0.771316
Si Si2 0.114407 0.359401 0.563848
Si Si3 0.389352 0.638589 0.065062
Si Si4 0.194881 0.569573 0.066606
Si Si5 0.115543 0.435294 0.331916
Si Si6 0.386988 0.178588 0.363351
Si Si7 0.303052 0.748244 0.127252
O O1 0.500000 0.187879 0.787044
O O2 0.338879 0.117599 0.793082
O O3 0.364380 0.179603 0.704190
O O4 0.325443 0.234577 0.805800
O O5 0.147871 0.375896 0.500000
O O6 0.131698 0.419234 0.601220
O O7 0.180455 0.305016 0.586830
O O8 0.000000 0.338235 0.567273
O O9 0.500000 0.612149 0.074620
O O10 0.311292 0.584656 0.075818
O O11 0.373743 0.692993 0.109556
O O12 0.376971 0.663615 0.000000
O O13 0.176012 0.500000 0.084189
O O14 0.130011 0.612953 0.107855
O O15 0.163913 0.580083 0.000000
O O16 0.167514 0.500000 0.319458
O O17 0.000000 0.440828 0.317150
O O18 0.500000 0.198613 0.376043
O O19 0.310457 0.228282 0.386754
#
# Coordination Sequence:
#
# PCOD8287040 Si02
#       7
#    16  16  16  16  16  16  16
#     4   9  17  29  45  65  87 111 139 171 209 252
#     4   9  16  25  40  63  89 116 142 167 199 243
#     4   9  16  26  44  69  92 114 140 171 210 256
#     4   9  19  34  48  63  84 110 142 180 220 259
#     4   8  14  24  38  59  88 117 139 160 190 232
#     4  10  21  33  45  62  82 108 144 181 214 250
#     4  10  17  28  44  62  88 115 141 172 209 251
#
# _framework density 16.138766
#
# number of rings (size 3 to 8) (size 9 to 14) (size 15 to 20)
#    0.000    2.857    0.000    3.000    0.000    3.429 
#    0.000    5.000    0.000    0.000    0.000    0.000 
#    0.000    9.143    0.000    5.143    0.000    0.571 
#
# Total GULP energy -693928.052353 kJ/mol
# GULP energy per Si atom -12391.572363 kJ/mol
# Density = 1.610203 g / cm^3
# Si number density = 16.138766 Si / 1000 Ang^3
#
#
#
# Elastic Constant Matrix: (Units=GPa)
#
#
# Indices 1 2 3 4 5 6 
#
# 1 72.1033 25.4227 16.1666 0.0000 0.0000 0.0000
# 2 25.4227 80.5688 14.5805 0.0000 0.0000 0.0000
# 3 16.1666 14.5805 49.9383 0.0000 0.0000 0.0000
# 4 0.0000 0.0000 0.0000 19.2487 0.0000 0.0000
# 5 0.0000 0.0000 0.0000 0.0000 19.3947 0.0000
# 6 0.0000 0.0000 0.0000 0.0000 0.0000 13.8712
#
#
#
# Elastic Compliance Matrix: (Units=1/GPa)
#
#
# Indices 1 2 3 4 5 6 
#
# 1 0.016326 -0.004429 -0.003992 0.000000 0.000000 0.000000
# 2 -0.004429 0.014306 -0.002743 0.000000 0.000000 0.000000
# 3 -0.003992 -0.002743 0.022118 0.000000 0.000000 0.000000
# 4 0.000000 0.000000 0.000000 0.051952 0.000000 0.000000
# 5 0.000000 0.000000 0.000000 0.000000 0.051561 0.000000
# 6 0.000000 0.000000 0.000000 0.000000 0.000000 0.072092
#
#
# Mechanical properties :
#
#
# Convention : Reuss Voigt Hill
#
# Bulk Modulus (GPa) = 32.87176 34.99446 33.93311
# Shear Modulus (GPa) = 19.17018 20.26561 19.71790
#
# Velocity S-wave (km/s) = 3.45024 3.54744 3.49918
# Velocity P-wave (km/s) = 6.02367 6.20562 6.11532
#
# Compressibility (1/GPa) = 0.03042125
#
# Stress axis : x y z
#
# Youngs Moduli (GPa) = 61.25331 69.90232 45.21214
#
# Poissons Ratio (x) = 0.30960 0.18049
# Poissons Ratio (y) = 0.27129 0.12402
# Poissons Ratio (z) = 0.24452 0.19175
#
# Static dielectric constant tensor:
#      x y z
#    x 2.891160 0.000000 0.000000 
#    y 0.000000 3.118330 0.000000 
#    z 0.000000 0.000000 3.138650 
# 
# 
# High freq. dielectric constant tensor:
#      x y z
#    x 1.589910 0.000000 0.000000 
#    y 0.000000 1.613000 0.000000 
#    z 0.000000 0.000000 1.623340 
# 
# From -- ./inp_files/59050.got.cif
#   From: 2010.06.25/outbox.cif.g09.slc.cpg/sg71_30_cif.got.tgz:59050.got - 2010.06.28 04:59:45.
