data_PCOD8287858
_publ_section_title
;
Structure prediction by ZEFSAII (Michael W. Deem and Ramdas Pophale) SiO2 
 PCOD8287858
Probable space group: I M M M
;
_chemical_formula_sum "Si O2"
_cell_formula_units_Z 104
_cell_length_a 8.804363
_cell_length_b 30.545177
_cell_length_c 19.681101
_cell_angle_alpha 90.000000
_cell_angle_beta 90.000000
_cell_angle_gamma 90.000000
_cell_volume 5292.854753
_symmetry_space_group_name_H-M "I M M M"
_symmetry_group_IT_number 71
_symmetry_cell_setting 'orthorhombic'
loop_
_space_group_symop_operation_xyz
x,y,z
-x,-y,z
x,-y,-z
-x,y,-z
-x,-y,-z
x,y,-z
-x,y,z
x,-y,z
1/2+x,1/2+y,1/2+z
1/2-x,1/2-y,1/2+z
1/2+x,1/2-y,1/2-z
1/2-x,1/2+y,1/2-z
1/2-x,1/2-y,1/2-z
1/2+x,1/2+y,1/2-z
1/2-x,1/2+y,1/2+z
1/2+x,1/2-y,1/2+z
loop_
_atom_site_type_symbol
_atom_site_label
_atom_site_fract_x
_atom_site_fract_y
_atom_site_fract_z
Si Si1 0.165696 0.705229 0.238204
Si Si2 0.680761 0.450324 0.225808
Si Si3 0.680813 0.263748 0.500000
Si Si4 0.679359 0.412731 0.632845
Si Si5 0.322184 0.366942 0.144957
Si Si6 0.835727 0.049502 0.000000
Si Si7 0.822552 0.169291 0.500000
Si Si8 0.331784 0.176469 0.110263
O O1 0.250000 0.750000 0.250000
O O2 0.252388 0.671556 0.189996
O O3 0.144099 0.686865 0.312197
O O4 0.000000 0.713748 0.205124
O O5 0.500000 0.452360 0.228223
O O6 0.743109 0.500000 0.212154
O O7 0.748655 0.431351 0.296846
O O8 0.734751 0.415613 0.167775
O O9 0.500000 0.269508 0.500000
O O10 0.721930 0.212711 0.500000
O O11 0.752069 0.285106 0.432451
O O12 0.500000 0.418458 0.639005
O O13 0.751793 0.439537 0.569725
O O14 0.718784 0.363905 0.611690
O O15 0.500000 0.363593 0.158117
O O16 0.281377 0.359916 0.065908
O O17 0.000000 0.074898 0.000000
O O18 0.874401 0.000000 0.000000
O O19 0.000000 0.182591 0.500000
O O20 0.500000 0.166581 0.079157
#
# Coordination Sequence:
#
# PCOD8287858 Si02
#       8
#    16  16   8  16  16   8   8  16
#     4  11  23  37  57  84 114 149 190 234 284 343
#     4   9  17  31  55  85 115 151 196 246 295 343
#     4  12  25  39  58  84 113 151 199 240 280 341
#     4  10  18  31  53  80 111 149 193 234 275 332
#     4  10  20  37  59  83 115 152 193 241 295 354
#     4   9  17  28  46  76 108 137 176 227 272 311
#     4  10  22  39  58  82 114 152 189 236 303 358
#     4  11  23  38  55  79 115 152 184 228 283 335
#
# _framework density 19.649131000000001
#
# number of rings (size 3 to 8) (size 9 to 14) (size 15 to 20)
#    0.000    1.769    1.538    3.462    0.000    8.615 
#    0.000    0.385    0.000    6.000    0.000    0.000 
#    0.000    1.846    0.000    0.000    0.000    0.000 
#
# Total GULP energy -644239.663404 kJ/mol
# GULP energy per Si atom -12389.224296 kJ/mol
# Density = 1.960441 g / cm^3
# Si number density = 19.649131 Si / 1000 Ang^3
#
#
#
# Elastic Constant Matrix: (Units=GPa)
#
#
# Indices 1 2 3 4 5 6 
#
# 1 47.5900 31.4166 33.6589 0.0000 0.0000 0.0002
# 2 31.4166 151.0862 74.0064 -0.0001 0.0000 0.0000
# 3 33.6589 74.0064 147.3910 -0.0002 0.0003 0.0002
# 4 0.0000 -0.0001 -0.0002 30.1583 -0.0002 0.0006
# 5 0.0000 0.0000 0.0003 -0.0002 29.2171 -0.0002
# 6 0.0002 0.0000 0.0002 0.0006 -0.0002 -4.0794
#
#
#
# Elastic Compliance Matrix: (Units=1/GPa)
#
#
# Indices 1 2 3 4 5 6 
#
# 1 0.026278 -0.003348 -0.004320 0.000000 0.000000 0.000001
# 2 -0.003348 0.009204 -0.003857 0.000000 0.000000 0.000000
# 3 -0.004320 -0.003857 0.009708 0.000000 0.000000 0.000000
# 4 0.000000 0.000000 0.000000 0.033158 0.000000 0.000005
# 5 0.000000 0.000000 0.000000 0.000000 0.034227 -0.000001
# 6 0.000001 0.000000 0.000000 0.000005 -0.000001 -0.245135
#
#
# Mechanical properties :
#
#
# Convention : Reuss Voigt Hill
#
# Bulk Modulus (GPa) = 45.16642 69.35900 57.26271
# Shear Modulus (GPa) = -48.95755 24.85823 -12.04966
#
# Velocity S-wave (km/s) = -4.99700 3.56069 -2.47906
# Velocity P-wave (km/s) = 3.20264 7.23050 4.58384
#
# Compressibility (1/GPa) = 0.02214034
#
# Stress axis : x y z
#
# Youngs Moduli (GPa) = 38.05394 108.64626 103.01052
#
# Poissons Ratio (x) = 0.36378 0.44499
# Poissons Ratio (y) = 0.12742 0.39730
# Poissons Ratio (z) = 0.16439 0.41903
#
# Static dielectric constant tensor:
#      x y z
#    x 3.714080 0.000000 0.000000 
#    y 0.000000 3.764200 0.000000 
#    z 0.000000 0.000000 3.891210 
# 
# 
# High freq. dielectric constant tensor:
#      x y z
#    x 1.736890 0.000000 0.000000 
#    y 0.000000 1.767570 0.000000 
#    z 0.000000 0.000000 1.775680 
# 
# From -- ./inp_files/51235.got.cif
#   From: 2010.06.25/outbox.cif.g09.slc.cpg/sg71_26_cif.got.tgz:51235.got - 2010.06.28 04:59:45.
