data_PCOD8287080
_publ_section_title
;
Structure prediction by ZEFSAII (Michael W. Deem and Ramdas Pophale) SiO2 
 PCOD8287080
Probable space group: I M M M
;
_chemical_formula_sum "Si O2"
_cell_formula_units_Z 80
_cell_length_a 20.539882
_cell_length_b 9.711630
_cell_length_c 25.049276
_cell_angle_alpha 90.000000
_cell_angle_beta 90.000000
_cell_angle_gamma 90.000000
_cell_volume 4996.722722
_symmetry_space_group_name_H-M "I M M M"
_symmetry_group_IT_number 71
_symmetry_cell_setting 'orthorhombic'
loop_
_space_group_symop_operation_xyz
x,y,z
-x,-y,z
x,-y,-z
-x,y,-z
-x,-y,-z
x,y,-z
-x,y,z
x,-y,z
1/2+x,1/2+y,1/2+z
1/2-x,1/2-y,1/2+z
1/2+x,1/2-y,1/2-z
1/2-x,1/2+y,1/2-z
1/2-x,1/2-y,1/2-z
1/2+x,1/2+y,1/2-z
1/2-x,1/2+y,1/2+z
1/2+x,1/2-y,1/2+z
loop_
_atom_site_type_symbol
_atom_site_label
_atom_site_fract_x
_atom_site_fract_y
_atom_site_fract_z
Si Si1 0.786985 0.500000 0.440150
Si Si2 0.793600 0.500000 0.174947
Si Si3 0.070218 0.000000 0.714737
Si Si4 0.570350 0.000000 0.908198
Si Si5 0.427077 0.000000 0.731206
Si Si6 0.699858 0.500000 0.722947
Si Si7 0.899228 0.287959 0.321020
Si Si8 0.253681 0.214227 0.146898
O O1 0.758461 0.500000 0.500000
O O2 0.865987 0.500000 0.445435
O O3 0.761485 0.363400 0.409826
O O4 0.871123 0.500000 0.185962
O O5 0.752750 0.500000 0.229791
O O6 0.774352 0.632406 0.139034
O O7 0.074647 0.866886 0.676915
O O8 0.126131 0.000000 0.758240
O O9 0.000000 0.000000 0.743887
O O10 0.571314 0.864675 0.871673
O O11 0.500000 0.000000 0.939049
O O12 0.420102 0.136758 0.766799
O O13 0.500000 0.000000 0.705474
O O14 0.705757 0.634505 0.686476
O O15 0.821662 0.285146 0.322331
#
# Coordination Sequence:
#
# PCOD8287080 Si02
#       8
#     8   8   8   8   8   8  16  16
#     4   9  20  36  51  67  91 113 152 208 247 276
#     4  12  18  30  49  69  99 124 163 191 220 281
#     4  12  21  25  38  64  99 131 159 189 221 253
#     4   9  17  29  46  64  88 120 157 191 235 276
#     4  11  20  28  42  63  97 133 159 184 220 261
#     4  11  18  30  46  65  99 128 161 188 218 273
#     4  10  17  29  41  62  93 127 164 192 216 258
#     4  10  19  31  50  70  86 128 163 192 230 274
#
# _framework density 16.010494000000001
#
# number of rings (size 3 to 8) (size 9 to 14) (size 15 to 20)
#    0.000    1.600    4.000    5.400    0.000    0.200 
#    0.000    0.500    0.000    0.000    0.000    0.000 
#    0.000   24.800    0.000    0.000    0.000    0.000 
#
# Total GULP energy -495837.296075 kJ/mol
# GULP energy per Si atom -12395.932402 kJ/mol
# Density = 1.597405 g / cm^3
# Si number density = 16.010494 Si / 1000 Ang^3
#
#
#
# Elastic Constant Matrix: (Units=GPa)
#
#
# Indices 1 2 3 4 5 6 
#
# 1 109.8129 30.0574 35.2274 0.0000 0.0000 0.0000
# 2 30.0574 141.3339 38.4721 0.0000 0.0000 0.0000
# 3 35.2274 38.4721 66.6471 0.0000 0.0000 0.0000
# 4 0.0000 0.0000 0.0000 3.0670 0.0000 0.0000
# 5 0.0000 0.0000 0.0000 0.0000 5.0579 0.0000
# 6 0.0000 0.0000 0.0000 0.0000 0.0000 -55.9503
#
#
#
# Elastic Compliance Matrix: (Units=1/GPa)
#
#
# Indices 1 2 3 4 5 6 
#
# 1 0.011062 -0.000903 -0.005326 0.000000 0.000000 0.000000
# 2 -0.000903 0.008468 -0.004411 0.000000 0.000000 0.000000
# 3 -0.005326 -0.004411 0.020366 0.000000 0.000000 0.000000
# 4 0.000000 0.000000 0.000000 0.326048 0.000000 0.000000
# 5 0.000000 0.000000 0.000000 0.000000 0.197712 0.000000
# 6 0.000000 0.000000 0.000000 0.000000 0.000000 -0.017873
#
#
# Mechanical properties :
#
#
# Convention : Reuss Voigt Hill
#
# Bulk Modulus (GPa) = 53.71586 58.36753 56.04170
# Shear Modulus (GPa) = 8.72193 4.70405 6.71299
#
# Velocity S-wave (km/s) = 2.33655 1.71595 2.04987
# Velocity P-wave (km/s) = 6.39551 6.36089 6.37822
#
# Compressibility (1/GPa) = 0.01861647
#
# Stress axis : x y z
#
# Youngs Moduli (GPa) = 90.39933 118.08934 49.10201
#
# Poissons Ratio (x) = 0.10661 0.26151
# Poissons Ratio (y) = 0.08161 0.21659
# Poissons Ratio (z) = 0.48146 0.52090
#
# Static dielectric constant tensor:
#      x y z
#    x 3.171260 0.000000 0.000000 
#    y 0.000000 3.447680 0.000000 
#    z 0.000000 0.000000 2.516080 
# 
# 
# High freq. dielectric constant tensor:
#      x y z
#    x 1.620480 0.000000 0.000000 
#    y 0.000000 1.632230 0.000000 
#    z 0.000000 0.000000 1.550470 
# 
# From -- ./inp_files/14804.got.cif
#   From: 2010.06.25/outbox.cif.g09.slc.cpg/sg71_8_cif.got.tgz:14804.got - 2010.06.28 04:59:45.
