data_PCOD8287026
_publ_section_title
;
Structure prediction by ZEFSAII (Michael W. Deem and Ramdas Pophale) SiO2 
 PCOD8287026
Probable space group: I M M M
;
_chemical_formula_sum "Si O2"
_cell_formula_units_Z 104
_cell_length_a 30.159873
_cell_length_b 8.981693
_cell_length_c 22.492123
_cell_angle_alpha 90.000000
_cell_angle_beta 90.000000
_cell_angle_gamma 90.000000
_cell_volume 6092.817430
_symmetry_space_group_name_H-M "I M M M"
_symmetry_group_IT_number 71
_symmetry_cell_setting 'orthorhombic'
loop_
_space_group_symop_operation_xyz
x,y,z
-x,-y,z
x,-y,-z
-x,y,-z
-x,-y,-z
x,y,-z
-x,y,z
x,-y,z
1/2+x,1/2+y,1/2+z
1/2-x,1/2-y,1/2+z
1/2+x,1/2-y,1/2-z
1/2-x,1/2+y,1/2-z
1/2-x,1/2-y,1/2-z
1/2+x,1/2+y,1/2-z
1/2-x,1/2+y,1/2+z
1/2+x,1/2-y,1/2+z
loop_
_atom_site_type_symbol
_atom_site_label
_atom_site_fract_x
_atom_site_fract_y
_atom_site_fract_z
Si Si1 0.383626 0.828693 0.429238
Si Si2 0.807122 0.823332 0.432738
Si Si3 0.449201 0.824605 0.222681
Si Si4 0.787957 0.323651 0.934005
Si Si5 0.450345 0.676738 0.000000
Si Si6 0.550959 0.327250 0.655536
Si Si7 0.601454 0.676814 0.883838
O O1 0.385386 0.808654 0.500000
O O2 0.334787 0.774583 0.404370
O O3 0.420481 0.724836 0.400443
O O4 0.392806 0.000000 0.411825
O O5 0.812324 0.760485 0.500000
O O6 0.759118 0.774116 0.403833
O O7 0.847590 0.768299 0.391603
O O8 0.809676 0.000000 0.436699
O O9 0.500000 0.778174 0.209320
O O10 0.434104 0.762840 0.286349
O O11 0.417497 0.754174 0.174014
O O12 0.443108 0.000000 0.222764
O O13 0.789744 0.500000 0.938277
O O14 0.786269 0.256207 0.000000
O O15 0.425522 0.733936 0.941251
O O16 0.450925 0.500000 0.000000
O O17 0.500000 0.742362 0.000000
O O18 0.500000 0.294042 0.639746
O O19 0.559205 0.500000 0.667980
O O20 0.597498 0.500000 0.876370
#
# Coordination Sequence:
#
# PCOD8287026 Si02
#       7
#    16  16  16  16   8  16  16
#     4   9  17  30  50  77 105 131 156 183 225 278
#     4   8  12  21  40  68  98 125 158 197 235 275
#     4  10  21  36  51  66  88 123 164 201 240 288
#     4   7  11  21  40  67  98 128 156 188 224 269
#     4   9  16  24  37  63  97 127 155 193 240 283
#     4  10  21  36  53  72  94 122 157 197 237 277
#     4  10  17  27  46  71  96 124 160 202 242 280
#
# _framework density 17.069279999999999
#
# number of rings (size 3 to 8) (size 9 to 14) (size 15 to 20)
#    0.000    3.000    0.769    3.231    0.000    3.077 
#    0.000    1.923    0.000    3.231    0.000    2.154 
#    0.000    0.000    0.000    0.000    0.000    0.000 
#
# Total GULP energy -644230.692964 kJ/mol
# GULP energy per Si atom -12389.051788 kJ/mol
# Density = 1.703043 g / cm^3
# Si number density = 17.069280 Si / 1000 Ang^3
#
#
#
# Elastic Constant Matrix: (Units=GPa)
#
#
# Indices 1 2 3 4 5 6 
#
# 1 143.5223 36.7822 58.7921 0.0000 0.0000 0.0000
# 2 36.7822 37.8121 24.2677 0.0000 0.0000 0.0000
# 3 58.7921 24.2677 65.3072 0.0000 0.0000 0.0000
# 4 0.0000 0.0000 0.0000 22.0544 0.0000 0.0000
# 5 0.0000 0.0000 0.0000 0.0000 17.2188 0.0000
# 6 0.0000 0.0000 0.0000 0.0000 0.0000 15.7030
#
#
#
# Elastic Compliance Matrix: (Units=1/GPa)
#
#
# Indices 1 2 3 4 5 6 
#
# 1 0.012070 -0.006261 -0.008540 0.000000 0.000000 0.000000
# 2 -0.006261 0.037976 -0.008476 0.000000 0.000000 0.000000
# 3 -0.008540 -0.008476 0.026149 0.000000 0.000000 0.000000
# 4 0.000000 0.000000 0.000000 0.045342 0.000000 0.000000
# 5 0.000000 0.000000 0.000000 0.000000 0.058076 0.000000
# 6 0.000000 0.000000 0.000000 0.000000 0.000000 0.063682
#
#
# Mechanical properties :
#
#
# Convention : Reuss Voigt Hill
#
# Bulk Modulus (GPa) = 33.73356 54.03617 43.88487
# Shear Modulus (GPa) = 16.68170 19.44856 18.06513
#
# Velocity S-wave (km/s) = 3.12956 3.37915 3.25675
# Velocity P-wave (km/s) = 5.73276 6.85205 6.31724
#
# Compressibility (1/GPa) = 0.02964407
#
# Stress axis : x y z
#
# Youngs Moduli (GPa) = 82.84843 26.33221 38.24174
#
# Poissons Ratio (x) = 0.16486 0.32657
# Poissons Ratio (y) = 0.51869 0.32412
# Poissons Ratio (z) = 0.70750 0.22318
#
# Static dielectric constant tensor:
#      x y z
#    x 3.736010 0.000000 0.000000 
#    y 0.000000 2.811120 0.000000 
#    z 0.000000 0.000000 2.919930 
# 
# 
# High freq. dielectric constant tensor:
#      x y z
#    x 1.678190 0.000000 0.000000 
#    y 0.000000 1.620950 0.000000 
#    z 0.000000 0.000000 1.625540 
# 
# From -- ./inp_files/56680.got.cif
#   From: 2010.06.25/outbox.cif.g09.slc.cpg/sg71_29_cif.got.tgz:56680.got - 2010.06.28 04:59:45.
