data_PCOD8287469
_publ_section_title
;
Structure prediction by ZEFSAII (Michael W. Deem and Ramdas Pophale) SiO2 
 PCOD8287469
Probable space group: I M M M
;
_chemical_formula_sum "Si O2"
_cell_formula_units_Z 120
_cell_length_a 19.555719
_cell_length_b 32.875485
_cell_length_c 10.966447
_cell_angle_alpha 90.000000
_cell_angle_beta 90.000000
_cell_angle_gamma 90.000000
_cell_volume 7050.369864
_symmetry_space_group_name_H-M "I M M M"
_symmetry_group_IT_number 71
_symmetry_cell_setting 'orthorhombic'
loop_
_space_group_symop_operation_xyz
x,y,z
-x,-y,z
x,-y,-z
-x,y,-z
-x,-y,-z
x,y,-z
-x,y,z
x,-y,z
1/2+x,1/2+y,1/2+z
1/2-x,1/2-y,1/2+z
1/2+x,1/2-y,1/2-z
1/2-x,1/2+y,1/2-z
1/2-x,1/2-y,1/2-z
1/2+x,1/2+y,1/2-z
1/2-x,1/2+y,1/2+z
1/2+x,1/2-y,1/2+z
loop_
_atom_site_type_symbol
_atom_site_label
_atom_site_fract_x
_atom_site_fract_y
_atom_site_fract_z
Si Si1 0.342726 0.904642 0.289260
Si Si2 0.075596 0.668643 0.860493
Si Si3 0.837926 0.743476 0.863106
Si Si4 0.574045 0.955908 0.859097
Si Si5 0.579975 0.951971 0.500000
Si Si6 0.808055 0.107077 0.642047
Si Si7 0.694172 0.298135 0.860660
Si Si8 0.076653 0.045829 0.644818
O O1 0.367594 0.858092 0.292594
O O2 0.365995 0.923229 0.161079
O O3 0.382967 0.932748 0.384076
O O4 0.261481 0.907517 0.295557
O O5 0.094928 0.715966 0.850462
O O6 0.000000 0.663070 0.803571
O O7 0.075906 0.654146 0.000000
O O8 0.773682 0.713052 0.851209
O O9 0.843458 0.774823 0.750333
O O10 0.836282 0.764074 0.000000
O O11 0.500000 0.941687 0.804520
O O12 0.592495 0.000000 0.800802
O O13 0.565694 0.961507 0.000000
O O14 0.500000 0.940310 0.500000
O O15 0.591437 0.000000 0.500000
O O16 0.798840 0.098816 0.500000
O O17 0.820303 0.154640 0.666460
O O18 0.870204 0.079657 0.695938
O O19 0.668198 0.287425 0.000000
O O20 0.076257 0.047928 0.500000
O O21 0.000000 0.055932 0.693247
O O22 0.097778 0.000000 0.686517
#
# Coordination Sequence:
#
# PCOD8287469 Si02
#       8
#    16  16  16  16   8  16  16  16
#     4  12  19  30  46  70  96 124 162 205 244 291
#     4  10  18  29  47  70  98 132 163 193 236 296
#     4   9  17  31  50  69  93 127 165 200 241 295
#     4   9  19  35  49  59  82 129 179 213 244 283
#     4  11  22  30  40  66 101 131 157 195 246 288
#     4  10  18  30  47  71 102 129 160 198 251 306
#     4   9  17  31  50  72  96 126 159 201 249 300
#     4   8  15  28  45  66  95 132 167 195 235 302
#
# _framework density 17.020382999999999
#
# number of rings (size 3 to 8) (size 9 to 14) (size 15 to 20)
#    0.000    2.333    2.667    2.400    0.000    2.133 
#    0.000    2.000    0.000    2.000    0.000    0.000 
#    0.000    1.600    0.000    7.333    0.000    2.533 
#
# Total GULP energy -743338.579622 kJ/mol
# GULP energy per Si atom -12388.976327 kJ/mol
# Density = 1.698164 g / cm^3
# Si number density = 17.020383 Si / 1000 Ang^3
#
#
#
# Elastic Constant Matrix: (Units=GPa)
#
#
# Indices 1 2 3 4 5 6 
#
# 1 109.1139 57.6764 26.2871 0.0002 0.0004 0.0001
# 2 57.6764 102.6235 40.3737 0.0008 0.0005 0.0003
# 3 26.2871 40.3737 56.4959 0.0104 0.0014 0.0031
# 4 0.0002 0.0008 0.0104 23.0630 0.0006 0.0007
# 5 0.0004 0.0005 0.0014 0.0006 13.8642 -0.0001
# 6 0.0001 0.0003 0.0031 0.0007 -0.0001 24.4932
#
#
#
# Elastic Compliance Matrix: (Units=1/GPa)
#
#
# Indices 1 2 3 4 5 6 
#
# 1 0.013092 -0.006902 -0.001159 0.000001 0.000000 0.000000
# 2 -0.006902 0.017194 -0.009076 0.000004 0.000000 0.000001
# 3 -0.001159 -0.009076 0.024726 -0.000011 -0.000002 -0.000003
# 4 0.000001 0.000004 -0.000011 0.043359 -0.000002 -0.000001
# 5 0.000000 0.000000 -0.000002 -0.000002 0.072128 0.000000
# 6 0.000000 0.000001 -0.000003 -0.000001 0.000000 0.040828
#
#
# Mechanical properties :
#
#
# Convention : Reuss Voigt Hill
#
# Bulk Modulus (GPa) = 48.22175 57.43419 52.82797
# Shear Modulus (GPa) = 19.80080 21.87714 20.83897
#
# Velocity S-wave (km/s) = 3.41450 3.58907 3.50287
# Velocity P-wave (km/s) = 6.62860 7.14093 6.88953
#
# Compressibility (1/GPa) = 0.02073753
#
# Stress axis : x y z
#
# Youngs Moduli (GPa) = 76.38015 58.15953 40.44357
#
# Poissons Ratio (x) = 0.40142 0.04689
# Poissons Ratio (y) = 0.52718 0.36706
# Poissons Ratio (z) = 0.08855 0.52785
#
# Static dielectric constant tensor:
#      x y z
#    x 3.201080 0.000000 0.000000 
#    y 0.000000 3.226790 -0.000010 
#    z 0.000000 -0.000010 3.101480 
# 
# 
# High freq. dielectric constant tensor:
#      x y z
#    x 1.643670 0.000000 0.000000 
#    y 0.000000 1.656470 0.000000 
#    z 0.000000 0.000000 1.621660 
# 
# From -- ./inp_files/26634.got.cif
#   From: 2010.06.25/outbox.cif.g09.slc.cpg/sg71_14_cif.got.tgz:26634.got - 2010.06.28 04:59:45.
