data_PCOD8287448
_publ_section_title
;
Structure prediction by ZEFSAII (Michael W. Deem and Ramdas Pophale) SiO2 
 PCOD8287448
Probable space group: I M M M
;
_chemical_formula_sum "Si O2"
_cell_formula_units_Z 104
_cell_length_a 24.803114
_cell_length_b 8.844613
_cell_length_c 23.930922
_cell_angle_alpha 90.000000
_cell_angle_beta 90.000000
_cell_angle_gamma 90.000000
_cell_volume 5249.820755
_symmetry_space_group_name_H-M "I M M M"
_symmetry_group_IT_number 71
_symmetry_cell_setting 'orthorhombic'
loop_
_space_group_symop_operation_xyz
x,y,z
-x,-y,z
x,-y,-z
-x,y,-z
-x,-y,-z
x,y,-z
-x,y,z
x,-y,z
1/2+x,1/2+y,1/2+z
1/2-x,1/2-y,1/2+z
1/2+x,1/2-y,1/2-z
1/2-x,1/2+y,1/2-z
1/2-x,1/2-y,1/2-z
1/2+x,1/2+y,1/2-z
1/2-x,1/2+y,1/2+z
1/2+x,1/2-y,1/2+z
loop_
_atom_site_type_symbol
_atom_site_label
_atom_site_fract_x
_atom_site_fract_y
_atom_site_fract_z
Si Si1 0.730221 0.679365 0.064474
Si Si2 0.439978 0.820372 0.000000
Si Si3 0.376442 0.820997 0.107251
Si Si4 0.160393 0.334109 0.117471
Si Si5 0.804672 0.668067 0.756906
Si Si6 0.939890 0.822587 0.163855
Si Si7 0.403788 0.324206 0.783705
O O1 0.728206 0.500000 0.073995
O O2 0.684447 0.753867 0.103903
O O3 0.790636 0.739267 0.081315
O O4 0.720005 0.724306 0.000000
O O5 0.408173 0.760506 0.053590
O O6 0.500000 0.751635 0.000000
O O7 0.442449 0.000000 0.000000
O O8 0.414562 0.765254 0.158727
O O9 0.371642 0.000000 0.109644
O O10 0.146337 0.500000 0.092973
O O11 0.182045 0.350450 0.179152
O O12 0.104160 0.241199 0.120004
O O13 0.806661 0.500000 0.728741
O O14 0.750000 0.750000 0.750000
O O15 0.841683 0.788975 0.726209
O O16 0.935047 0.762192 0.228305
O O17 0.000000 0.781202 0.142287
O O18 0.929978 0.000000 0.166099
O O19 0.415643 0.500000 0.793383
#
# Coordination Sequence:
#
# PCOD8287448 Si02
#       7
#    16   8  16  16  16  16  16
#     4  10  20  35  56  80 110 144 178 223 278 328
#     4   9  20  38  55  73 103 141 180 225 272 319
#     4  11  21  35  55  79 106 140 184 228 272 321
#     4   9  19  33  50  76 105 136 175 217 264 323
#     4  10  18  29  46  71 104 137 170 209 258 316
#     4   9  19  36  56  78 106 140 176 218 270 324
#     4  10  20  33  50  73 103 136 172 215 263 317
#
# _framework density 19.810199000000001
#
# number of rings (size 3 to 8) (size 9 to 14) (size 15 to 20)
#    0.000    2.231    0.769    2.308    0.000    4.000 
#    0.000    0.000    0.000    3.692    0.000    3.231 
#    0.000    0.000    0.000    0.000    0.000    0.000 
#
# Total GULP energy -644213.269367 kJ/mol
# GULP energy per Si atom -12388.716719 kJ/mol
# Density = 1.976511 g / cm^3
# Si number density = 19.810199 Si / 1000 Ang^3
#
#
#
# Elastic Constant Matrix: (Units=GPa)
#
#
# Indices 1 2 3 4 5 6 
#
# 1 118.0743 26.4573 6.1811 0.0000 0.0000 0.0000
# 2 26.4573 49.9234 8.5971 0.0000 0.0000 0.0000
# 3 6.1811 8.5971 44.0228 0.0000 0.0000 0.0000
# 4 0.0000 0.0000 0.0000 23.5894 0.0000 0.0000
# 5 0.0000 0.0000 0.0000 0.0000 26.4573 0.0000
# 6 0.0000 0.0000 0.0000 0.0000 0.0000 23.7386
#
#
#
# Elastic Compliance Matrix: (Units=1/GPa)
#
#
# Indices 1 2 3 4 5 6 
#
# 1 0.009616 -0.005033 -0.000367 0.000000 0.000000 0.000000
# 2 -0.005033 0.023362 -0.003856 0.000000 0.000000 0.000000
# 3 -0.000367 -0.003856 0.023520 0.000000 0.000000 0.000000
# 4 0.000000 0.000000 0.000000 0.042392 0.000000 0.000000
# 5 0.000000 0.000000 0.000000 0.000000 0.037797 0.000000
# 6 0.000000 0.000000 0.000000 0.000000 0.000000 0.042126
#
#
# Mechanical properties :
#
#
# Convention : Reuss Voigt Hill
#
# Bulk Modulus (GPa) = 26.32520 32.72127 29.52323
# Shear Modulus (GPa) = 23.81109 26.14272 24.97691
#
# Velocity S-wave (km/s) = 3.47069 3.63665 3.55464
# Velocity P-wave (km/s) = 5.42019 5.84696 5.63761
#
# Compressibility (1/GPa) = 0.03798641
#
# Stress axis : x y z
#
# Youngs Moduli (GPa) = 103.99095 42.80478 42.51696
#
# Poissons Ratio (x) = 0.21543 0.01562
# Poissons Ratio (y) = 0.52338 0.16393
# Poissons Ratio (z) = 0.03820 0.16504
#
# Static dielectric constant tensor:
#      x y z
#    x 3.635110 0.000000 0.000000 
#    y 0.000000 3.533710 0.000000 
#    z 0.000000 0.000000 3.535920 
# 
# 
# High freq. dielectric constant tensor:
#      x y z
#    x 1.770850 0.000000 0.000000 
#    y 0.000000 1.757880 0.000000 
#    z 0.000000 0.000000 1.759290 
# 
# From -- ./inp_files/13254.got.cif
#   From: 2010.06.25/outbox.cif.g09.slc.cpg/sg71_7_cif.got.tgz:13254.got - 2010.06.28 04:59:45.
