data_PCOD8287454
_publ_section_title
;
Structure prediction by ZEFSAII (Michael W. Deem and Ramdas Pophale) SiO2 
 PCOD8287454
Probable space group: I M M M
;
_chemical_formula_sum "Si O2"
_cell_formula_units_Z 96
_cell_length_a 13.268823
_cell_length_b 23.308837
_cell_length_c 20.395965
_cell_angle_alpha 90.000000
_cell_angle_beta 90.000000
_cell_angle_gamma 90.000000
_cell_volume 6308.081035
_symmetry_space_group_name_H-M "I M M M"
_symmetry_group_IT_number 71
_symmetry_cell_setting 'orthorhombic'
loop_
_space_group_symop_operation_xyz
x,y,z
-x,-y,z
x,-y,-z
-x,y,-z
-x,-y,-z
x,y,-z
-x,y,z
x,-y,z
1/2+x,1/2+y,1/2+z
1/2-x,1/2-y,1/2+z
1/2+x,1/2-y,1/2-z
1/2-x,1/2+y,1/2-z
1/2-x,1/2-y,1/2-z
1/2+x,1/2+y,1/2-z
1/2-x,1/2+y,1/2+z
1/2+x,1/2-y,1/2+z
loop_
_atom_site_type_symbol
_atom_site_label
_atom_site_fract_x
_atom_site_fract_y
_atom_site_fract_z
Si Si1 0.883900 0.564051 0.225317
Si Si2 0.884391 0.563955 0.620620
Si Si3 0.697145 0.176977 0.925987
Si Si4 0.195309 0.320491 0.187777
Si Si5 0.613793 0.752692 0.189994
Si Si6 0.886663 0.752470 0.925332
O O1 0.853982 0.500000 0.201385
O O2 0.867012 0.569040 0.302406
O O3 0.812816 0.610542 0.189628
O O4 0.000000 0.576724 0.207726
O O5 0.856118 0.500000 0.596473
O O6 0.812854 0.608813 0.583596
O O7 0.000000 0.577708 0.602875
O O8 0.624663 0.211009 0.876668
O O9 0.813458 0.193555 0.911587
O O10 0.666686 0.193929 0.000000
O O11 0.312379 0.302135 0.190778
O O12 0.135395 0.294112 0.249003
O O13 0.144541 0.300293 0.120428
O O14 0.500000 0.729494 0.194669
O O15 0.000000 0.772964 0.909472
O O16 0.877046 0.730693 0.000000
#
# Coordination Sequence:
#
# PCOD8287454 Si02
#       6
#    16  16  16  16  16  16
#     4   9  16  27  45  66  87 113 145 179 216 258
#     4   9  17  28  41  59  86 117 146 178 215 254
#     4  10  19  29  43  64  90 119 146 176 216 256
#     4  10  18  29  47  66  86 114 145 179 216 260
#     4  10  19  29  43  66  90 113 145 181 216 255
#     4   9  18  31  46  65  88 113 142 178 220 264
#
# _framework density 15.218574
#
# number of rings (size 3 to 8) (size 9 to 14) (size 15 to 20)
#    0.000    2.500    1.667    3.000    0.000    1.667 
#    0.000    0.833    0.000    1.500    0.000    7.000 
#    0.000    0.000    0.000    8.333    0.000    0.333 
#
# Total GULP energy -595111.411882 kJ/mol
# GULP energy per Si atom -12398.154414 kJ/mol
# Density = 1.518394 g / cm^3
# Si number density = 15.218574 Si / 1000 Ang^3
#
#
#
# Elastic Constant Matrix: (Units=GPa)
#
#
# Indices 1 2 3 4 5 6 
#
# 1 101.2600 53.7642 38.1556 0.0000 0.0000 0.0000
# 2 53.7642 116.8556 39.6923 0.0000 0.0000 0.0000
# 3 38.1556 39.6923 69.6173 0.0001 0.0000 0.0000
# 4 0.0000 0.0000 0.0001 19.1651 0.0000 0.0000
# 5 0.0000 0.0000 0.0000 0.0000 17.3556 0.0000
# 6 0.0000 0.0000 0.0000 0.0000 0.0000 21.8296
#
#
#
# Elastic Compliance Matrix: (Units=1/GPa)
#
#
# Indices 1 2 3 4 5 6 
#
# 1 0.014394 -0.004890 -0.005101 0.000000 0.000000 0.000000
# 2 -0.004890 0.012274 -0.004318 0.000000 0.000000 0.000000
# 3 -0.005101 -0.004318 0.019622 0.000000 0.000000 0.000000
# 4 0.000000 0.000000 0.000000 0.052178 0.000000 0.000000
# 5 0.000000 0.000000 0.000000 0.000000 0.057618 0.000000
# 6 0.000000 0.000000 0.000000 0.000000 0.000000 0.045809
#
#
# Mechanical properties :
#
#
# Convention : Reuss Voigt Hill
#
# Bulk Modulus (GPa) = 56.58642 61.21744 58.90193
# Shear Modulus (GPa) = 21.15020 22.07811 21.61416
#
# Velocity S-wave (km/s) = 3.73200 3.81298 3.77271
# Velocity P-wave (km/s) = 7.47219 7.72644 7.60038
#
# Compressibility (1/GPa) = 0.01767208
#
# Stress axis : x y z
#
# Youngs Moduli (GPa) = 69.47354 81.47265 50.96341
#
# Poissons Ratio (x) = 0.39839 0.25997
# Poissons Ratio (y) = 0.33972 0.22006
# Poissons Ratio (z) = 0.35439 0.35180
#
# Static dielectric constant tensor:
#      x y z
#    x 2.880390 0.000000 0.000000 
#    y 0.000000 2.916490 0.000000 
#    z 0.000000 0.000000 2.965940 
# 
# 
# High freq. dielectric constant tensor:
#      x y z
#    x 1.569240 0.000000 0.000000 
#    y 0.000000 1.566600 0.000000 
#    z 0.000000 0.000000 1.582950 
# 
# From -- ./inp_files/26148.got.cif
#   From: 2010.06.25/outbox.cif.g09.slc.cpg/sg71_14_cif.got.tgz:26148.got - 2010.06.28 04:59:45.
