data_PCOD8287633
_publ_section_title
;
Structure prediction by ZEFSAII (Michael W. Deem and Ramdas Pophale) SiO2 
 PCOD8287633
Probable space group: I M M M
;
_chemical_formula_sum "Si O2"
_cell_formula_units_Z 112
_cell_length_a 14.098021
_cell_length_b 24.641035
_cell_length_c 19.086273
_cell_angle_alpha 90.000000
_cell_angle_beta 90.000000
_cell_angle_gamma 90.000000
_cell_volume 6630.377112
_symmetry_space_group_name_H-M "I M M M"
_symmetry_group_IT_number 71
_symmetry_cell_setting 'orthorhombic'
loop_
_space_group_symop_operation_xyz
x,y,z
-x,-y,z
x,-y,-z
-x,y,-z
-x,-y,-z
x,y,-z
-x,y,z
x,-y,z
1/2+x,1/2+y,1/2+z
1/2-x,1/2-y,1/2+z
1/2+x,1/2-y,1/2-z
1/2-x,1/2+y,1/2-z
1/2-x,1/2-y,1/2-z
1/2+x,1/2+y,1/2-z
1/2-x,1/2+y,1/2+z
1/2+x,1/2-y,1/2+z
loop_
_atom_site_type_symbol
_atom_site_label
_atom_site_fract_x
_atom_site_fract_y
_atom_site_fract_z
Si Si1 0.226738 0.642310 0.829108
Si Si2 0.894076 0.287851 0.643651
Si Si3 0.390891 0.562970 0.419553
Si Si4 0.221464 0.853206 0.828014
Si Si5 0.607026 0.322918 0.078941
Si Si6 0.609811 0.754112 0.300793
Si Si7 0.110567 0.437548 0.078610
O O1 0.248721 0.627290 0.749105
O O2 0.325675 0.644475 0.869504
O O3 0.169670 0.698636 0.838193
O O4 0.165240 0.594728 0.861890
O O5 0.817512 0.335094 0.631557
O O6 0.881953 0.242136 0.584811
O O7 0.874230 0.257890 0.717647
O O8 0.000000 0.313310 0.642408
O O9 0.371710 0.579400 0.500000
O O10 0.500000 0.574826 0.400197
O O11 0.367279 0.500000 0.407850
O O12 0.323212 0.596955 0.369191
O O13 0.147167 0.803803 0.826421
O O14 0.500000 0.339796 0.098806
O O15 0.632132 0.339542 0.000000
O O16 0.500000 0.760031 0.321972
O O17 0.139877 0.500000 0.085659
O O18 0.000000 0.429718 0.092865
O O19 0.135739 0.416807 0.000000
#
# Coordination Sequence:
#
# PCOD8287633 Si02
#       7
#    16  16  16  16  16  16  16
#     4  11  19  32  50  77 106 133 169 214 254 298
#     4   9  17  31  46  67 103 138 165 196 236 291
#     4   9  20  39  58  75  98 129 165 209 265 322
#     4  11  19  31  53  79 102 129 169 207 256 304
#     4  10  19  30  45  66  98 140 176 202 236 290
#     4  10  18  30  48  75 107 134 159 200 259 309
#     4   9  19  36  55  74 101 140 179 213 255 304
#
# _framework density 16.891950000000001
#
# number of rings (size 3 to 8) (size 9 to 14) (size 15 to 20)
#    0.000    2.143    2.857    3.000    0.000    2.286 
#    0.000    0.000    0.000    3.429    0.000    3.000 
#    0.000    0.000    0.000    0.000    0.000    0.000 
#
# Total GULP energy -694438.309760 kJ/mol
# GULP energy per Si atom -12400.684103 kJ/mol
# Density = 1.685350 g / cm^3
# Si number density = 16.891950 Si / 1000 Ang^3
#
#
#
# Elastic Constant Matrix: (Units=GPa)
#
#
# Indices 1 2 3 4 5 6 
#
# 1 87.2448 42.8155 36.5323 0.0000 0.0000 0.0000
# 2 42.8155 75.8675 41.0413 0.0000 0.0000 0.0000
# 3 36.5323 41.0413 63.0009 0.0000 0.0000 0.0000
# 4 0.0000 0.0000 0.0000 17.2694 0.0000 0.0000
# 5 0.0000 0.0000 0.0000 0.0000 27.9546 0.0000
# 6 0.0000 0.0000 0.0000 0.0000 0.0000 32.0728
#
#
#
# Elastic Compliance Matrix: (Units=1/GPa)
#
#
# Indices 1 2 3 4 5 6 
#
# 1 0.017036 -0.006594 -0.005583 0.000000 0.000000 0.000000
# 2 -0.006594 0.022906 -0.011098 0.000000 0.000000 0.000000
# 3 -0.005583 -0.011098 0.026340 0.000000 0.000000 0.000000
# 4 0.000000 0.000000 0.000000 0.057906 0.000000 0.000000
# 5 0.000000 0.000000 0.000000 0.000000 0.035772 0.000000
# 6 0.000000 0.000000 0.000000 0.000000 0.000000 0.031179
#
#
# Mechanical properties :
#
#
# Convention : Reuss Voigt Hill
#
# Bulk Modulus (GPa) = 50.68053 51.87684 51.27868
# Shear Modulus (GPa) = 20.46951 22.50763 21.48857
#
# Velocity S-wave (km/s) = 3.48485 3.65423 3.57055
# Velocity P-wave (km/s) = 6.80148 6.97009 6.88630
#
# Compressibility (1/GPa) = 0.01973144
#
# Stress axis : x y z
#
# Youngs Moduli (GPa) = 58.70016 43.65721 37.96513
#
# Poissons Ratio (x) = 0.28787 0.21196
# Poissons Ratio (y) = 0.38706 0.42134
# Poissons Ratio (z) = 0.32772 0.48451
#
# Static dielectric constant tensor:
#      x y z
#    x 3.321910 0.000000 0.000000 
#    y 0.000000 2.888470 0.000000 
#    z 0.000000 0.000000 3.073230 
# 
# 
# High freq. dielectric constant tensor:
#      x y z
#    x 1.665120 0.000000 0.000000 
#    y 0.000000 1.624850 0.000000 
#    z 0.000000 0.000000 1.644080 
# 
# From -- ./inp_files/52221.got.cif
#   From: 2010.06.25/outbox.cif.g09.slc.cpg/sg71_27_cif.got.tgz:52221.got - 2010.06.28 04:59:45.
