data_PCOD8287129
_publ_section_title
;
Structure prediction by ZEFSAII (Michael W. Deem and Ramdas Pophale) SiO2 
 PCOD8287129
Probable space group: I M M M
;
_chemical_formula_sum "Si O2"
_cell_formula_units_Z 112
_cell_length_a 15.238930
_cell_length_b 17.645152
_cell_length_c 24.760836
_cell_angle_alpha 90.000000
_cell_angle_beta 90.000000
_cell_angle_gamma 90.000000
_cell_volume 6658.021322
_symmetry_space_group_name_H-M "I M M M"
_symmetry_group_IT_number 71
_symmetry_cell_setting 'orthorhombic'
loop_
_space_group_symop_operation_xyz
x,y,z
-x,-y,z
x,-y,-z
-x,y,-z
-x,-y,-z
x,y,-z
-x,y,z
x,-y,z
1/2+x,1/2+y,1/2+z
1/2-x,1/2-y,1/2+z
1/2+x,1/2-y,1/2-z
1/2-x,1/2+y,1/2-z
1/2-x,1/2-y,1/2-z
1/2+x,1/2+y,1/2-z
1/2-x,1/2+y,1/2+z
1/2+x,1/2-y,1/2+z
loop_
_atom_site_type_symbol
_atom_site_label
_atom_site_fract_x
_atom_site_fract_y
_atom_site_fract_z
Si Si1 0.216836 0.914263 0.938186
Si Si2 0.691211 0.314362 0.345019
Si Si3 0.638158 0.263516 0.145603
Si Si4 0.094830 0.644440 0.560712
Si Si5 0.237794 0.586795 0.745147
Si Si6 0.901491 0.708841 0.234312
Si Si7 0.401536 0.417187 0.821244
O O1 0.160413 0.856934 0.900059
O O2 0.321788 0.908478 0.925867
O O3 0.187493 0.000000 0.926203
O O4 0.196250 0.892441 0.000000
O O5 0.757682 0.246966 0.360645
O O6 0.746907 0.379177 0.314039
O O7 0.615275 0.276130 0.309401
O O8 0.588049 0.214507 0.101511
O O9 0.608000 0.243635 0.206346
O O10 0.614495 0.351539 0.134577
O O11 0.105481 0.676356 0.500000
O O12 0.000000 0.601046 0.565935
O O13 0.204609 0.500000 0.741558
O O14 0.164218 0.638037 0.774940
O O15 0.331317 0.593210 0.773901
O O16 0.000000 0.679080 0.225404
O O17 0.500000 0.410440 0.796695
O O18 0.389113 0.500000 0.848704
#
# Coordination Sequence:
#
# PCOD8287129 Si02
#       7
#    16  16  16  16  16  16  16
#     4   9  18  31  47  66  91 126 160 193 238 283
#     4  10  18  31  47  69  92 123 159 196 234 284
#     4  10  17  31  46  63  93 125 157 196 232 277
#     4   9  17  27  43  68  94 124 161 195 228 272
#     4  10  19  31  45  68  98 126 156 193 236 283
#     4  11  20  31  48  69  93 126 161 197 244 290
#     4  10  18  27  43  66  91 121 154 187 227 276
#
# _framework density 16.821815000000001
#
# number of rings (size 3 to 8) (size 9 to 14) (size 15 to 20)
#    0.000    2.143    2.857    2.571    0.000    0.571 
#    0.000    1.429    0.000    7.286    0.000    3.000 
#    0.000    0.571    0.000    1.286    0.000    0.000 
#
# Total GULP energy -693807.516711 kJ/mol
# GULP energy per Si atom -12389.419941 kJ/mol
# Density = 1.678353 g / cm^3
# Si number density = 16.821815 Si / 1000 Ang^3
#
#
#
# Elastic Constant Matrix: (Units=GPa)
#
#
# Indices 1 2 3 4 5 6 
#
# 1 59.2973 29.1227 19.6931 0.0000 0.0000 0.0000
# 2 29.1227 112.5860 37.5461 0.0000 0.0000 0.0000
# 3 19.6931 37.5461 75.1271 0.0000 0.0000 0.0000
# 4 0.0000 0.0000 0.0000 22.3291 0.0000 0.0000
# 5 0.0000 0.0000 0.0000 0.0000 10.4727 0.0000
# 6 0.0000 0.0000 0.0000 0.0000 0.0000 18.0427
#
#
#
# Elastic Compliance Matrix: (Units=1/GPa)
#
#
# Indices 1 2 3 4 5 6 
#
# 1 0.019931 -0.004096 -0.003178 0.000000 0.000000 0.000000
# 2 -0.004096 0.011500 -0.004674 0.000000 0.000000 0.000000
# 3 -0.003178 -0.004674 0.016480 0.000000 0.000000 0.000000
# 4 0.000000 0.000000 0.000000 0.044785 0.000000 0.000000
# 5 0.000000 0.000000 0.000000 0.000000 0.095486 0.000000
# 6 0.000000 0.000000 0.000000 0.000000 0.000000 0.055424
#
#
# Mechanical properties :
#
#
# Convention : Reuss Voigt Hill
#
# Bulk Modulus (GPa) = 41.63827 46.63712 44.13769
# Shear Modulus (GPa) = 18.14843 20.87880 19.51361
#
# Velocity S-wave (km/s) = 3.28817 3.52685 3.40960
# Velocity P-wave (km/s) = 6.26277 6.66103 6.46497
#
# Compressibility (1/GPa) = 0.02401637
#
# Stress axis : x y z
#
# Youngs Moduli (GPa) = 50.17295 86.95474 60.68139
#
# Poissons Ratio (x) = 0.35616 0.19282
# Poissons Ratio (y) = 0.20550 0.28361
# Poissons Ratio (z) = 0.15943 0.40641
#
# Static dielectric constant tensor:
#      x y z
#    x 3.077150 0.000000 0.000000 
#    y 0.000000 3.338440 0.000000 
#    z 0.000000 0.000000 3.023340 
# 
# 
# High freq. dielectric constant tensor:
#      x y z
#    x 1.636150 0.000000 0.000000 
#    y 0.000000 1.645740 0.000000 
#    z 0.000000 0.000000 1.620590 
# 
# From -- ./inp_files/60845.got.cif
#   From: 2010.06.25/outbox.cif.g09.slc.cpg/sg71_31_cif.got.tgz:60845.got - 2010.06.28 04:59:45.
