data_PCOD8287519
_publ_section_title
;
Structure prediction by ZEFSAII (Michael W. Deem and Ramdas Pophale) SiO2 
 PCOD8287519
Probable space group: I M M M
;
_chemical_formula_sum "Si O2"
_cell_formula_units_Z 88
_cell_length_a 23.753269
_cell_length_b 9.357108
_cell_length_c 22.739046
_cell_angle_alpha 90.000000
_cell_angle_beta 90.000000
_cell_angle_gamma 90.000000
_cell_volume 5054.023645
_symmetry_space_group_name_H-M "I M M M"
_symmetry_group_IT_number 71
_symmetry_cell_setting 'orthorhombic'
loop_
_space_group_symop_operation_xyz
x,y,z
-x,-y,z
x,-y,-z
-x,y,-z
-x,-y,-z
x,y,-z
-x,y,z
x,-y,z
1/2+x,1/2+y,1/2+z
1/2-x,1/2-y,1/2+z
1/2+x,1/2-y,1/2-z
1/2-x,1/2+y,1/2-z
1/2-x,1/2-y,1/2-z
1/2+x,1/2+y,1/2-z
1/2-x,1/2+y,1/2+z
1/2+x,1/2-y,1/2+z
loop_
_atom_site_type_symbol
_atom_site_label
_atom_site_fract_x
_atom_site_fract_y
_atom_site_fract_z
Si Si1 0.063000 0.669911 0.500000
Si Si2 0.564952 0.165570 0.227057
Si Si3 0.867480 0.331339 0.611959
Si Si4 0.266963 0.665523 0.932768
Si Si5 0.065564 0.833958 0.157909
Si Si6 0.861579 0.663016 0.068705
O O1 0.060197 0.500000 0.500000
O O2 0.095004 0.725568 0.557804
O O3 0.000000 0.733791 0.500000
O O4 0.500000 0.196115 0.211454
O O5 0.601939 0.214186 0.171786
O O6 0.585424 0.256925 0.282544
O O7 0.574429 0.000000 0.242221
O O8 0.858818 0.500000 0.608233
O O9 0.806587 0.257457 0.609861
O O10 0.282579 0.500000 0.926273
O O11 0.202866 0.692677 0.913236
O O12 0.275605 0.715667 0.000000
O O13 0.098661 0.771007 0.102901
O O14 0.000000 0.805818 0.146514
O O15 0.079627 0.000000 0.164025
O O16 0.877873 0.500000 0.084165
O O17 0.870214 0.691655 0.000000
#
# Coordination Sequence:
#
# PCOD8287519 Si02
#       6
#     8  16  16  16  16  16
#     4   9  16  26  43  71 105 133 164 213 260 295
#     4   9  18  33  52  73 100 137 177 212 249 299
#     4  10  18  29  49  76 101 132 175 216 255 298
#     4   9  18  33  51  72 102 137 169 206 254 303
#     4  10  21  36  54  78 106 133 162 203 256 306
#     4   9  19  36  57  79 102 132 169 205 246 301
#
# _framework density 17.411868999999999
#
# number of rings (size 3 to 8) (size 9 to 14) (size 15 to 20)
#    0.000    2.636    0.909    2.182    0.000    5.455 
#    0.000    4.545    0.000    2.182    0.000    0.000 
#    0.000    0.000    0.000    0.000    0.000    0.000 
#
# Total GULP energy -545687.648235 kJ/mol
# GULP energy per Si atom -12401.992005 kJ/mol
# Density = 1.737224 g / cm^3
# Si number density = 17.411869 Si / 1000 Ang^3
#
#
#
# Elastic Constant Matrix: (Units=GPa)
#
#
# Indices 1 2 3 4 5 6 
#
# 1 84.4988 50.5100 62.6249 0.0000 0.0000 0.0000
# 2 50.5100 68.4661 56.0779 0.0000 0.0000 0.0000
# 3 62.6249 56.0779 106.4108 0.0000 0.0000 0.0000
# 4 0.0000 0.0000 0.0000 25.0315 0.0000 0.0000
# 5 0.0000 0.0000 0.0000 0.0000 28.2327 0.0000
# 6 0.0000 0.0000 0.0000 0.0000 0.0000 31.9968
#
#
#
# Elastic Compliance Matrix: (Units=1/GPa)
#
#
# Indices 1 2 3 4 5 6 
#
# 1 0.025147 -0.011313 -0.008837 0.000000 0.000000 0.000000
# 2 -0.011313 0.030788 -0.009567 0.000000 0.000000 0.000000
# 3 -0.008837 -0.009567 0.019640 0.000000 0.000000 0.000000
# 4 0.000000 0.000000 0.000000 0.039950 0.000000 0.000000
# 5 0.000000 0.000000 0.000000 0.000000 0.035420 0.000000
# 6 0.000000 0.000000 0.000000 0.000000 0.000000 0.031253
#
#
# Mechanical properties :
#
#
# Convention : Reuss Voigt Hill
#
# Bulk Modulus (GPa) = 61.95904 66.42234 64.19069
# Shear Modulus (GPa) = 20.24186 23.06306 21.65246
#
# Velocity S-wave (km/s) = 3.41329 3.64340 3.53022
# Velocity P-wave (km/s) = 7.15512 7.47862 7.31865
#
# Compressibility (1/GPa) = 0.01613970
#
# Stress axis : x y z
#
# Youngs Moduli (GPa) = 39.76646 32.48019 50.91615
#
# Poissons Ratio (x) = 0.36746 0.44996
# Poissons Ratio (y) = 0.44990 0.48711
# Poissons Ratio (z) = 0.35143 0.31073
#
# Static dielectric constant tensor:
#      x y z
#    x 3.207520 0.000000 0.000000 
#    y 0.000000 3.081820 0.000000 
#    z 0.000000 0.000000 3.168000 
# 
# 
# High freq. dielectric constant tensor:
#      x y z
#    x 1.672120 0.000000 0.000000 
#    y 0.000000 1.660900 0.000000 
#    z 0.000000 0.000000 1.667540 
# 
# From -- ./inp_files/10479.got.cif
#   From: 2010.06.25/outbox.cif.g09.slc.cpg/sg71_6_cif.got.tgz:10479.got - 2010.06.28 04:59:45.
