data_PCOD8287334
_publ_section_title
;
Structure prediction by ZEFSAII (Michael W. Deem and Ramdas Pophale) SiO2 
 PCOD8287334
Probable space group: I M M M
;
_chemical_formula_sum "Si O2"
_cell_formula_units_Z 128
_cell_length_a 23.008054
_cell_length_b 17.435738
_cell_length_c 19.219155
_cell_angle_alpha 90.000000
_cell_angle_beta 90.000000
_cell_angle_gamma 90.000000
_cell_volume 7710.002373
_symmetry_space_group_name_H-M "I M M M"
_symmetry_group_IT_number 71
_symmetry_cell_setting 'orthorhombic'
loop_
_space_group_symop_operation_xyz
x,y,z
-x,-y,z
x,-y,-z
-x,y,-z
-x,-y,-z
x,y,-z
-x,y,z
x,-y,z
1/2+x,1/2+y,1/2+z
1/2-x,1/2-y,1/2+z
1/2+x,1/2-y,1/2-z
1/2-x,1/2+y,1/2-z
1/2-x,1/2-y,1/2-z
1/2+x,1/2+y,1/2-z
1/2-x,1/2+y,1/2+z
1/2+x,1/2-y,1/2+z
loop_
_atom_site_type_symbol
_atom_site_label
_atom_site_fract_x
_atom_site_fract_y
_atom_site_fract_z
Si Si1 0.066573 0.910080 0.331504
Si Si2 0.740736 0.412080 0.796701
Si Si3 0.749430 0.729995 0.422175
Si Si4 0.668603 0.644146 0.918860
Si Si5 0.184887 0.087125 0.079595
Si Si6 0.655703 0.814949 0.668670
Si Si7 0.932627 0.588038 0.920000
Si Si8 0.637055 0.345884 0.288827
O O1 0.103625 0.866280 0.390277
O O2 0.085116 0.884518 0.254291
O O3 0.000000 0.888400 0.344026
O O4 0.078083 0.000000 0.339245
O O5 0.744082 0.500000 0.773662
O O6 0.714531 0.407561 0.875332
O O7 0.805347 0.376378 0.789165
O O8 0.699333 0.366115 0.744449
O O9 0.734233 0.752294 0.500000
O O10 0.812850 0.766268 0.405239
O O11 0.744169 0.638022 0.410645
O O12 0.698867 0.771096 0.381445
O O13 0.670890 0.620619 0.000000
O O14 0.135642 0.119513 0.132482
O O15 0.201151 0.000000 0.098017
O O16 0.161467 0.094022 0.000000
O O17 0.604281 0.857475 0.629224
O O18 0.628188 0.746494 0.715239
O O19 0.915413 0.500000 0.905537
O O20 0.000000 0.601555 0.902721
O O21 0.919687 0.608712 0.000000
#
# Coordination Sequence:
#
# PCOD8287334 Si02
#       8
#    16  16  16  16  16  16  16  16
#     4  10  21  35  49  65  87 119 157 192 229 274
#     4  10  19  30  45  68  96 124 151 181 226 278
#     4   8  15  26  41  66  96 118 139 177 225 265
#     4   9  17  30  47  68  95 122 149 185 227 270
#     4   9  16  27  46  69  91 118 150 181 218 268
#     4  10  18  28  46  67  88 118 157 189 215 263
#     4   9  18  32  48  67  94 125 154 189 233 273
#     4  10  19  32  47  64  93 121 148 188 234 274
#
# _framework density 16.601811000000001
#
# number of rings (size 3 to 8) (size 9 to 14) (size 15 to 20)
#    0.000    2.625    0.000    3.750    0.000    3.750 
#    0.000    0.625    0.000    0.375    0.000    1.750 
#    0.000    1.500    0.000    4.875    0.000    0.000 
#
# Total GULP energy -792998.382720 kJ/mol
# GULP energy per Si atom -12390.599730 kJ/mol
# Density = 1.656402 g / cm^3
# Si number density = 16.601811 Si / 1000 Ang^3
#
#
#
# Elastic Constant Matrix: (Units=GPa)
#
#
# Indices 1 2 3 4 5 6 
#
# 1 66.2117 34.5453 16.8516 0.0000 0.0000 0.0000
# 2 34.5453 98.6114 23.2958 0.0000 0.0000 0.0000
# 3 16.8516 23.2958 67.0372 0.0000 0.0000 0.0000
# 4 0.0000 0.0000 0.0000 26.4050 0.0000 0.0000
# 5 0.0000 0.0000 0.0000 0.0000 22.8608 0.0000
# 6 0.0000 0.0000 0.0000 0.0000 0.0000 24.5134
#
#
#
# Elastic Compliance Matrix: (Units=1/GPa)
#
#
# Indices 1 2 3 4 5 6 
#
# 1 0.018910 -0.005994 -0.002671 0.000000 0.000000 0.000000
# 2 -0.005994 0.012947 -0.002993 0.000000 0.000000 0.000000
# 3 -0.002671 -0.002993 0.016628 0.000000 0.000000 0.000000
# 4 0.000000 0.000000 0.000000 0.037872 0.000000 0.000000
# 5 0.000000 0.000000 0.000000 0.000000 0.043743 0.000000
# 6 0.000000 0.000000 0.000000 0.000000 0.000000 0.040794
#
#
# Mechanical properties :
#
#
# Convention : Reuss Voigt Hill
#
# Bulk Modulus (GPa) = 39.72690 42.36066 41.04378
# Shear Modulus (GPa) = 24.67931 25.23368 24.95650
#
# Velocity S-wave (km/s) = 3.85975 3.90286 3.88137
# Velocity P-wave (km/s) = 6.62154 6.77354 6.69797
#
# Compressibility (1/GPa) = 0.02517186
#
# Stress axis : x y z
#
# Youngs Moduli (GPa) = 52.88244 77.23540 60.13804
#
# Poissons Ratio (x) = 0.46291 0.16061
# Poissons Ratio (y) = 0.31695 0.17997
# Poissons Ratio (z) = 0.14123 0.23114
#
# Static dielectric constant tensor:
#      x y z
#    x 2.916410 0.000000 0.000000 
#    y 0.000000 3.532510 0.000000 
#    z 0.000000 0.000000 3.217140 
# 
# 
# High freq. dielectric constant tensor:
#      x y z
#    x 1.605380 0.000000 0.000000 
#    y 0.000000 1.646660 0.000000 
#    z 0.000000 0.000000 1.639980 
# 
# From -- ./inp_files/55943.got.cif
#   From: 2010.06.25/outbox.cif.g09.slc.cpg/sg71_28_cif.got.tgz:55943.got - 2010.06.28 04:59:45.
