data_PCOD8287556
_publ_section_title
;
Structure prediction by ZEFSAII (Michael W. Deem and Ramdas Pophale) SiO2 
 PCOD8287556
Probable space group: I M M M
;
_chemical_formula_sum "Si O2"
_cell_formula_units_Z 80
_cell_length_a 19.233008
_cell_length_b 33.529535
_cell_length_c 8.821706
_cell_angle_alpha 90.000000
_cell_angle_beta 90.000000
_cell_angle_gamma 90.000000
_cell_volume 5688.887202
_symmetry_space_group_name_H-M "I M M M"
_symmetry_group_IT_number 71
_symmetry_cell_setting 'orthorhombic'
loop_
_space_group_symop_operation_xyz
x,y,z
-x,-y,z
x,-y,-z
-x,y,-z
-x,-y,-z
x,y,-z
-x,y,z
x,-y,z
1/2+x,1/2+y,1/2+z
1/2-x,1/2-y,1/2+z
1/2+x,1/2-y,1/2-z
1/2-x,1/2+y,1/2-z
1/2-x,1/2-y,1/2-z
1/2+x,1/2+y,1/2-z
1/2-x,1/2+y,1/2+z
1/2+x,1/2-y,1/2+z
loop_
_atom_site_type_symbol
_atom_site_label
_atom_site_fract_x
_atom_site_fract_y
_atom_site_fract_z
Si Si1 0.279130 0.811755 0.677012
Si Si2 0.500000 0.752003 0.827403
Si Si3 0.633295 0.125434 0.179396
Si Si4 0.500000 0.165822 0.322430
Si Si5 0.348875 0.261858 0.825776
Si Si6 0.921807 0.543538 0.320193
O O1 0.288548 0.818838 0.500000
O O2 0.296679 0.853480 0.759782
O O3 0.332129 0.777065 0.726984
O O4 0.200313 0.798964 0.721247
O O5 0.500000 0.787248 0.707086
O O6 0.570194 0.725881 0.801498
O O7 0.500000 0.768927 0.000000
O O8 0.567752 0.147790 0.247050
O O9 0.629874 0.078974 0.233083
O O10 0.630955 0.129004 0.000000
O O11 0.500000 0.157053 0.500000
O O12 0.333332 0.250500 0.000000
O O13 0.924694 0.542942 0.500000
O O14 0.895722 0.500000 0.260791
O O15 0.000000 0.551862 0.258682
#
# Coordination Sequence:
#
# PCOD8287556 Si02
#       6
#    16   8  16   8  16  16
#     4  10  19  29  40  58  82 105 130 164 203 239
#     4  10  18  30  46  59  73 100 139 174 202 233
#     4  11  19  29  44  59  77 105 136 168 202 239
#     4  12  22  28  37  59  82 103 134 171 205 236
#     4   9  18  30  43  57  77 104 134 168 202 235
#     4   8  14  25  41  59  76  97 131 170 199 226
#
# _framework density 14.062504000000001
#
# number of rings (size 3 to 8) (size 9 to 14) (size 15 to 20)
#    0.000    2.200    3.000    2.700    0.000    0.800 
#    0.000    0.000    0.000    3.000    0.000    0.000 
#    0.000    0.000    0.000    0.900    0.000   20.200 
#
# Total GULP energy -495684.581724 kJ/mol
# GULP energy per Si atom -12392.114543 kJ/mol
# Density = 1.403050 g / cm^3
# Si number density = 14.062504 Si / 1000 Ang^3
#
#
#
# Elastic Constant Matrix: (Units=GPa)
#
#
# Indices 1 2 3 4 5 6 
#
# 1 97.2293 54.8055 22.7660 0.0002 0.0020 0.0005
# 2 54.8055 110.4120 30.1097 0.0006 -0.0006 -0.0003
# 3 22.7660 30.1097 50.1432 0.0105 -0.0112 -0.0019
# 4 0.0002 0.0006 0.0105 12.0194 -0.0005 -0.0008
# 5 0.0020 -0.0006 -0.0112 -0.0005 16.3343 -0.0005
# 6 0.0005 -0.0003 -0.0019 -0.0008 -0.0005 28.7606
#
#
#
# Elastic Compliance Matrix: (Units=1/GPa)
#
#
# Indices 1 2 3 4 5 6 
#
# 1 0.014584 -0.006497 -0.002720 0.000002 -0.000004 -0.000001
# 2 -0.006497 0.013725 -0.005292 0.000004 -0.000002 0.000000
# 3 -0.002720 -0.005292 0.024355 -0.000021 0.000017 0.000002
# 4 0.000002 0.000004 -0.000021 0.083199 0.000003 0.000002
# 5 -0.000004 -0.000002 0.000017 0.000003 0.061221 0.000001
# 6 -0.000001 0.000000 0.000002 0.000002 0.000001 0.034770
#
#
# Mechanical properties :
#
#
# Convention : Reuss Voigt Hill
#
# Bulk Modulus (GPa) = 42.28940 52.57189 47.43064
# Shear Modulus (GPa) = 18.60431 21.42975 20.01703
#
# Velocity S-wave (km/s) = 3.64121 3.90794 3.77693
# Velocity P-wave (km/s) = 6.91489 7.60449 7.26787
#
# Compressibility (1/GPa) = 0.02364659
#
# Stress axis : x y z
#
# Youngs Moduli (GPa) = 68.56692 72.85859 41.05875
#
# Poissons Ratio (x) = 0.47340 0.11168
# Poissons Ratio (y) = 0.44551 0.21727
# Poissons Ratio (z) = 0.18650 0.38554
#
# Static dielectric constant tensor:
#      x y z
#    x 2.850230 0.000000 0.000000 
#    y 0.000000 2.946000 -0.000020 
#    z 0.000000 -0.000020 2.726390 
# 
# 
# High freq. dielectric constant tensor:
#      x y z
#    x 1.514040 0.000000 0.000000 
#    y 0.000000 1.511290 0.000000 
#    z 0.000000 0.000000 1.534520 
# 
# From -- ./inp_files/11283.got.cif
#   From: 2010.06.25/outbox.cif.g09.slc.cpg/sg71_6_cif.got.tgz:11283.got - 2010.06.28 04:59:45.
