data_PCOD8287728
_publ_section_title
;
Structure prediction by ZEFSAII (Michael W. Deem and Ramdas Pophale) SiO2 
 PCOD8287728
Probable space group: I M M M
;
_chemical_formula_sum "Si O2"
_cell_formula_units_Z 120
_cell_length_a 17.677209
_cell_length_b 18.384354
_cell_length_c 20.001877
_cell_angle_alpha 90.000000
_cell_angle_beta 90.000000
_cell_angle_gamma 90.000000
_cell_volume 6500.291355
_symmetry_space_group_name_H-M "I M M M"
_symmetry_group_IT_number 71
_symmetry_cell_setting 'orthorhombic'
loop_
_space_group_symop_operation_xyz
x,y,z
-x,-y,z
x,-y,-z
-x,y,-z
-x,-y,-z
x,y,-z
-x,y,z
x,-y,z
1/2+x,1/2+y,1/2+z
1/2-x,1/2-y,1/2+z
1/2+x,1/2-y,1/2-z
1/2-x,1/2+y,1/2-z
1/2-x,1/2-y,1/2-z
1/2+x,1/2+y,1/2-z
1/2-x,1/2+y,1/2+z
1/2+x,1/2-y,1/2+z
loop_
_atom_site_type_symbol
_atom_site_label
_atom_site_fract_x
_atom_site_fract_y
_atom_site_fract_z
Si Si1 0.413568 0.227010 0.677855
Si Si2 0.322552 0.581972 0.226558
Si Si3 0.087376 0.209849 0.676924
Si Si4 0.414686 0.500000 0.421615
Si Si5 0.166612 0.309766 0.422877
Si Si6 0.084072 0.581294 0.337234
Si Si7 0.656451 0.919665 0.697012
Si Si8 0.324573 0.360153 0.629686
O O1 0.500000 0.229842 0.657822
O O2 0.400972 0.241479 0.756754
O O3 0.382459 0.146898 0.657962
O O4 0.374783 0.287532 0.631892
O O5 0.352743 0.500000 0.236471
O O6 0.389552 0.626606 0.191228
O O7 0.246082 0.583741 0.183035
O O8 0.299679 0.617795 0.296467
O O9 0.145367 0.238713 0.620752
O O10 0.000000 0.211555 0.653237
O O11 0.500000 0.500000 0.390239
O O12 0.421526 0.500000 0.500000
O O13 0.370666 0.572862 0.401131
O O14 0.154040 0.290367 0.500000
O O15 0.107997 0.371354 0.400450
O O16 0.251183 0.339771 0.413123
O O17 0.083804 0.500000 0.364691
O O18 0.141136 0.589877 0.275808
O O19 0.000000 0.605177 0.312997
O O20 0.625922 0.000000 0.674037
#
# Coordination Sequence:
#
# PCOD8287728 Si02
#       8
#    16  16  16   8  16  16  16  16
#     4  10  19  33  55  80 108 144 180 228 291 346
#     4  10  19  34  57  84 110 141 179 234 295 346
#     4  10  21  36  53  79 113 146 187 240 294 341
#     4  11  24  40  56  78 115 155 188 230 283 340
#     4  12  24  36  55  76 105 151 198 235 272 328
#     4  10  20  33  48  69 104 144 183 225 268 318
#     4  10  18  30  52  80 112 145 176 217 278 344
#     4  11  21  37  55  81 110 144 190 239 278 339
#
# _framework density 18.460712000000001
#
# number of rings (size 3 to 8) (size 9 to 14) (size 15 to 20)
#    0.000    1.533    3.333    2.400    0.933    5.067 
#    0.000    0.667    0.000    0.400    0.000    0.933 
#    0.000    1.600    0.000   10.800    0.000    0.133 
#
# Total GULP energy -743845.475282 kJ/mol
# GULP energy per Si atom -12397.424588 kJ/mol
# Density = 1.841869 g / cm^3
# Si number density = 18.460712 Si / 1000 Ang^3
#
#
#
# Elastic Constant Matrix: (Units=GPa)
#
#
# Indices 1 2 3 4 5 6 
#
# 1 96.1133 47.7708 13.9052 0.0000 0.0000 0.0000
# 2 47.7708 147.3611 18.4519 0.0000 0.0000 0.0000
# 3 13.9052 18.4519 39.1335 0.0000 0.0000 0.0000
# 4 0.0000 0.0000 0.0000 16.5476 0.0000 0.0000
# 5 0.0000 0.0000 0.0000 0.0000 15.3379 0.0000
# 6 0.0000 0.0000 0.0000 0.0000 0.0000 33.7924
#
#
#
# Elastic Compliance Matrix: (Units=1/GPa)
#
#
# Indices 1 2 3 4 5 6 
#
# 1 0.012671 -0.003766 -0.002726 0.000000 0.000000 0.000000
# 2 -0.003766 0.008331 -0.002590 0.000000 0.000000 0.000000
# 3 -0.002726 -0.002590 0.027744 0.000000 0.000000 0.000000
# 4 0.000000 0.000000 0.000000 0.060432 0.000000 0.000000
# 5 0.000000 0.000000 0.000000 0.000000 0.065198 0.000000
# 6 0.000000 0.000000 0.000000 0.000000 0.000000 0.029592
#
#
# Mechanical properties :
#
#
# Convention : Reuss Voigt Hill
#
# Bulk Modulus (GPa) = 32.70087 49.20707 40.95397
# Shear Modulus (GPa) = 21.52143 26.63423 24.07783
#
# Velocity S-wave (km/s) = 3.41808 3.80248 3.61539
# Velocity P-wave (km/s) = 5.77321 6.78169 6.29767
#
# Compressibility (1/GPa) = 0.03058023
#
# Stress axis : x y z
#
# Youngs Moduli (GPa) = 78.92223 120.02993 36.04432
#
# Poissons Ratio (x) = 0.45205 0.09827
# Poissons Ratio (y) = 0.29723 0.09336
# Poissons Ratio (z) = 0.21518 0.31089
#
# Static dielectric constant tensor:
#      x y z
#    x 3.500390 0.000000 0.000000 
#    y 0.000000 3.636680 0.000000 
#    z 0.000000 0.000000 2.913780 
# 
# 
# High freq. dielectric constant tensor:
#      x y z
#    x 1.729750 0.000000 0.000000 
#    y 0.000000 1.733010 0.000000 
#    z 0.000000 0.000000 1.653570 
# 
# From -- ./inp_files/54328.got.cif
#   From: 2010.06.25/outbox.cif.g09.slc.cpg/sg71_28_cif.got.tgz:54328.got - 2010.06.28 04:59:45.
