data_PCOD8287442
_publ_section_title
;
Structure prediction by ZEFSAII (Michael W. Deem and Ramdas Pophale) SiO2 
 PCOD8287442
Probable space group: I M M M
;
_chemical_formula_sum "Si O2"
_cell_formula_units_Z 104
_cell_length_a 18.687622
_cell_length_b 14.000964
_cell_length_c 22.903279
_cell_angle_alpha 90.000000
_cell_angle_beta 90.000000
_cell_angle_gamma 90.000000
_cell_volume 5992.522087
_symmetry_space_group_name_H-M "I M M M"
_symmetry_group_IT_number 71
_symmetry_cell_setting 'orthorhombic'
loop_
_space_group_symop_operation_xyz
x,y,z
-x,-y,z
x,-y,-z
-x,y,-z
-x,-y,-z
x,y,-z
-x,y,z
x,-y,z
1/2+x,1/2+y,1/2+z
1/2-x,1/2-y,1/2+z
1/2+x,1/2-y,1/2-z
1/2-x,1/2+y,1/2-z
1/2-x,1/2-y,1/2-z
1/2+x,1/2+y,1/2-z
1/2-x,1/2+y,1/2+z
1/2+x,1/2-y,1/2+z
loop_
_atom_site_type_symbol
_atom_site_label
_atom_site_fract_x
_atom_site_fract_y
_atom_site_fract_z
Si Si1 0.200970 0.755930 0.567295
Si Si2 0.178212 0.396865 0.932462
Si Si3 0.916149 0.262263 0.873119
Si Si4 0.416302 0.000000 0.936490
Si Si5 0.583661 0.180259 0.139058
Si Si6 0.177416 0.111011 0.932828
Si Si7 0.584705 0.108749 0.265670
O O1 0.176759 0.771684 0.500000
O O2 0.253414 0.838812 0.590796
O O3 0.132486 0.763267 0.610693
O O4 0.243655 0.655815 0.573390
O O5 0.174065 0.500000 0.900869
O O6 0.104867 0.338142 0.923107
O O7 0.188253 0.412128 0.000000
O O8 0.876927 0.162126 0.887182
O O9 0.888201 0.315214 0.813983
O O10 0.000000 0.242102 0.871751
O O11 0.394321 0.092351 0.901274
O O12 0.500000 0.000000 0.945796
O O13 0.377855 0.000000 0.000000
O O14 0.500000 0.208294 0.135919
O O15 0.608011 0.154087 0.204128
O O16 0.181278 0.000000 0.915767
O O17 0.150491 0.124916 0.000000
O O18 0.500000 0.100501 0.268673
O O19 0.615767 0.000000 0.273141
#
# Coordination Sequence:
#
# PCOD8287442 Si02
#       7
#    16  16  16   8  16  16  16
#     4   9  18  31  49  72  97 128 161 194 238 294
#     4   9  18  33  50  69  96 125 153 194 248 295
#     4  10  19  31  50  73  94 121 162 202 236 285
#     4   9  16  24  38  66  98 122 148 188 234 276
#     4  10  18  29  46  70 100 129 159 198 240 283
#     4   9  19  34  49  69 101 135 160 190 240 295
#     4   9  17  30  46  67  98 131 159 193 243 292
#
# _framework density 17.354963000000001
#
# number of rings (size 3 to 8) (size 9 to 14) (size 15 to 20)
#    0.000    2.692    0.769    2.308    1.077    3.385 
#    0.000    4.615    0.000    3.231    0.000    4.308 
#    0.000    0.000    0.000    0.000    0.000    0.000 
#
# Total GULP energy -644268.816168 kJ/mol
# GULP energy per Si atom -12389.784926 kJ/mol
# Density = 1.731546 g / cm^3
# Si number density = 17.354963 Si / 1000 Ang^3
#
#
#
# Elastic Constant Matrix: (Units=GPa)
#
#
# Indices 1 2 3 4 5 6 
#
# 1 55.2823 16.7284 27.8662 0.0000 0.0000 0.0000
# 2 16.7284 89.4174 28.0599 0.0000 0.0000 0.0000
# 3 27.8662 28.0599 73.7923 0.0000 0.0000 0.0000
# 4 0.0000 0.0000 0.0000 27.4757 0.0000 0.0000
# 5 0.0000 0.0000 0.0000 0.0000 22.6490 0.0000
# 6 0.0000 0.0000 0.0000 0.0000 0.0000 15.0211
#
#
#
# Elastic Compliance Matrix: (Units=1/GPa)
#
#
# Indices 1 2 3 4 5 6 
#
# 1 0.022583 -0.001759 -0.007859 0.000000 0.000000 0.000000
# 2 -0.001759 0.012836 -0.004217 0.000000 0.000000 0.000000
# 3 -0.007859 -0.004217 0.018123 0.000000 0.000000 0.000000
# 4 0.000000 0.000000 0.000000 0.036396 0.000000 0.000000
# 5 0.000000 0.000000 0.000000 0.000000 0.044152 0.000000
# 6 0.000000 0.000000 0.000000 0.000000 0.000000 0.066573
#
#
# Mechanical properties :
#
#
# Convention : Reuss Voigt Hill
#
# Bulk Modulus (GPa) = 38.65141 40.42232 39.53686
# Shear Modulus (GPa) = 21.10103 22.75167 21.92635
#
# Velocity S-wave (km/s) = 3.49069 3.62465 3.55830
# Velocity P-wave (km/s) = 6.21015 6.39214 6.30180
#
# Compressibility (1/GPa) = 0.02587228
#
# Stress axis : x y z
#
# Youngs Moduli (GPa) = 44.28165 77.90742 55.17894
#
# Poissons Ratio (x) = 0.13700 0.43366
# Poissons Ratio (y) = 0.07787 0.23268
# Poissons Ratio (z) = 0.34802 0.32852
#
# Static dielectric constant tensor:
#      x y z
#    x 2.993530 0.000000 0.000000 
#    y 0.000000 3.566750 0.000000 
#    z 0.000000 0.000000 3.346570 
# 
# 
# High freq. dielectric constant tensor:
#      x y z
#    x 1.649580 0.000000 0.000000 
#    y 0.000000 1.657810 0.000000 
#    z 0.000000 0.000000 1.664300 
# 
# From -- ./inp_files/60710.got.cif
#   From: 2010.06.25/outbox.cif.g09.slc.cpg/sg71_31_cif.got.tgz:60710.got - 2010.06.28 04:59:45.
