data_PCOD8287079
_publ_section_title
;
Structure prediction by ZEFSAII (Michael W. Deem and Ramdas Pophale) SiO2 
 PCOD8287079
Probable space group: I M M M
;
_chemical_formula_sum "Si O2"
_cell_formula_units_Z 88
_cell_length_a 22.072618
_cell_length_b 18.901362
_cell_length_c 13.615176
_cell_angle_alpha 90.000000
_cell_angle_beta 90.000000
_cell_angle_gamma 90.000000
_cell_volume 5680.286052
_symmetry_space_group_name_H-M "I M M M"
_symmetry_group_IT_number 71
_symmetry_cell_setting 'orthorhombic'
loop_
_space_group_symop_operation_xyz
x,y,z
-x,-y,z
x,-y,-z
-x,y,-z
-x,-y,-z
x,y,-z
-x,y,z
x,-y,z
1/2+x,1/2+y,1/2+z
1/2-x,1/2-y,1/2+z
1/2+x,1/2-y,1/2-z
1/2-x,1/2+y,1/2-z
1/2-x,1/2-y,1/2-z
1/2+x,1/2+y,1/2-z
1/2-x,1/2+y,1/2+z
1/2+x,1/2-y,1/2+z
loop_
_atom_site_type_symbol
_atom_site_label
_atom_site_fract_x
_atom_site_fract_y
_atom_site_fract_z
Si Si1 0.908106 0.000000 0.392000
Si Si2 0.264358 0.500000 0.109888
Si Si3 0.199757 0.286804 0.386909
Si Si4 0.500000 0.416303 0.609526
Si Si5 0.933724 0.257239 0.609770
Si Si6 0.909095 0.127066 0.739151
Si Si7 0.227481 0.858605 0.282254
O O1 0.836080 0.000000 0.397733
O O2 0.932452 0.068162 0.336091
O O3 0.936596 0.000000 0.500000
O O4 0.243321 0.427705 0.165014
O O5 0.236149 0.500000 0.000000
O O6 0.220199 0.299950 0.500000
O O7 0.127407 0.303545 0.376356
O O8 0.218834 0.206213 0.359032
O O9 0.231660 0.340033 0.311694
O O10 0.500000 0.500000 0.617533
O O11 0.500000 0.388452 0.500000
O O12 0.439729 0.384143 0.656494
O O13 0.929572 0.223531 0.500000
O O14 0.931673 0.199823 0.694358
O O15 0.000000 0.297010 0.619953
O O16 0.838029 0.122002 0.759798
#
# Coordination Sequence:
#
# PCOD8287079 Si02
#       7
#     8   8  16   8  16  16  16
#     4   9  16  25  40  61  84 109 135 175 225 258
#     4   9  16  28  46  68  92 115 147 188 224 259
#     4   9  17  30  45  66  95 121 146 180 222 273
#     4  11  22  32  38  48  76 122 162 185 206 239
#     4   9  16  26  44  67  87 107 133 172 225 274
#     4  10  17  29  41  57  82 111 148 185 212 248
#     4   9  18  29  47  67  89 119 152 185 226 266
#
# _framework density 15.492177999999999
#
# number of rings (size 3 to 8) (size 9 to 14) (size 15 to 20)
#    0.000    2.636    1.818    1.091    0.000    5.091 
#    0.000    0.909    0.000    0.000    0.000    0.636 
#    0.000    3.636    0.000    0.000    0.000    0.000 
#
# Total GULP energy -545114.706266 kJ/mol
# GULP energy per Si atom -12388.970597 kJ/mol
# Density = 1.545692 g / cm^3
# Si number density = 15.492178 Si / 1000 Ang^3
#
#
#
# Elastic Constant Matrix: (Units=GPa)
#
#
# Indices 1 2 3 4 5 6 
#
# 1 87.5620 26.0621 54.7776 0.0000 0.0000 0.0000
# 2 26.0621 60.5669 42.2534 0.0000 0.0000 0.0000
# 3 54.7776 42.2534 134.0090 0.0000 0.0000 0.0000
# 4 0.0000 0.0000 0.0000 16.4155 0.0000 0.0000
# 5 0.0000 0.0000 0.0000 0.0000 -35.2528 0.0000
# 6 0.0000 0.0000 0.0000 0.0000 0.0000 12.0747
#
#
#
# Elastic Compliance Matrix: (Units=1/GPa)
#
#
# Indices 1 2 3 4 5 6 
#
# 1 0.015739 -0.002929 -0.005510 0.000000 0.000000 0.000000
# 2 -0.002929 0.021711 -0.005649 0.000000 0.000000 0.000000
# 3 -0.005510 -0.005649 0.011496 0.000000 0.000000 0.000000
# 4 0.000000 0.000000 0.000000 0.060918 0.000000 0.000000
# 5 0.000000 0.000000 0.000000 0.000000 -0.028367 0.000000
# 6 0.000000 0.000000 0.000000 0.000000 0.000000 0.082817
#
#
# Mechanical properties :
#
#
# Convention : Reuss Voigt Hill
#
# Bulk Modulus (GPa) = 48.14275 58.70267 53.42271
# Shear Modulus (GPa) = 25.07347 9.25047 17.16197
#
# Velocity S-wave (km/s) = 4.02737 2.44623 3.33195
# Velocity P-wave (km/s) = 7.26425 6.77885 7.02574
#
# Compressibility (1/GPa) = 0.02077156
#
# Stress axis : x y z
#
# Youngs Moduli (GPa) = 63.53542 46.05861 86.99012
#
# Poissons Ratio (x) = 0.13488 0.47933
# Poissons Ratio (y) = 0.18607 0.49137
# Poissons Ratio (z) = 0.35009 0.26017
#
# Static dielectric constant tensor:
#      x y z
#    x 3.032360 0.000000 0.000000 
#    y 0.000000 2.729930 0.000000 
#    z 0.000000 0.000000 3.011810 
# 
# 
# High freq. dielectric constant tensor:
#      x y z
#    x 1.587110 0.000000 0.000000 
#    y 0.000000 1.554390 0.000000 
#    z 0.000000 0.000000 1.597400 
# 
# From -- ./inp_files/38045.got.cif
#   From: 2010.06.25/outbox.cif.g09.slc.cpg/sg71_20_cif.got.tgz:38045.got - 2010.06.28 04:59:45.
