data_PCOD8287247
_publ_section_title
;
Structure prediction by ZEFSAII (Michael W. Deem and Ramdas Pophale) SiO2 
 PCOD8287247
Probable space group: I M M M
;
_chemical_formula_sum "Si O2"
_cell_formula_units_Z 120
_cell_length_a 14.337170
_cell_length_b 23.556582
_cell_length_c 20.561733
_cell_angle_alpha 90.000000
_cell_angle_beta 90.000000
_cell_angle_gamma 90.000000
_cell_volume 6944.411153
_symmetry_space_group_name_H-M "I M M M"
_symmetry_group_IT_number 71
_symmetry_cell_setting 'orthorhombic'
loop_
_space_group_symop_operation_xyz
x,y,z
-x,-y,z
x,-y,-z
-x,y,-z
-x,-y,-z
x,y,-z
-x,y,z
x,-y,z
1/2+x,1/2+y,1/2+z
1/2-x,1/2-y,1/2+z
1/2+x,1/2-y,1/2-z
1/2-x,1/2+y,1/2-z
1/2-x,1/2-y,1/2-z
1/2+x,1/2+y,1/2-z
1/2-x,1/2+y,1/2+z
1/2+x,1/2-y,1/2+z
loop_
_atom_site_type_symbol
_atom_site_label
_atom_site_fract_x
_atom_site_fract_y
_atom_site_fract_z
Si Si1 0.393433 0.659233 0.245123
Si Si2 0.000000 0.935291 0.428271
Si Si3 0.605749 0.219466 0.072248
Si Si4 0.773099 0.818460 0.383119
Si Si5 0.266025 0.437084 0.266100
Si Si6 0.299011 0.437832 0.116490
Si Si7 0.891761 0.357440 0.309174
Si Si8 0.604394 0.223511 0.689508
O O1 0.500000 0.649524 0.223742
O O2 0.330186 0.672380 0.183110
O O3 0.353345 0.603818 0.282637
O O4 0.385023 0.710334 0.295727
O O5 0.090499 0.922491 0.384145
O O6 0.000000 0.903577 0.500000
O O7 0.000000 0.000000 0.446954
O O8 0.500000 0.237993 0.090207
O O9 0.669549 0.275615 0.072038
O O10 0.638889 0.171519 0.122834
O O11 0.610809 0.193072 0.000000
O O12 0.755450 0.880981 0.416960
O O13 0.672210 0.792113 0.369309
O O14 0.282833 0.500000 0.295487
O O15 0.257586 0.441898 0.188389
O O16 0.170167 0.412989 0.296414
O O17 0.280164 0.500000 0.082091
O O18 0.869817 0.311313 0.254097
O O19 0.000000 0.375927 0.310104
O O20 0.500000 0.208756 0.666627
#
# Coordination Sequence:
#
# PCOD8287247 Si02
#       8
#    16   8  16  16  16  16  16  16
#     4  10  18  27  44  69  97 131 160 191 243 305
#     4   9  18  32  46  60  90 142 185 201 226 284
#     4  10  21  33  49  77 105 130 165 208 257 313
#     4  11  18  29  48  66  99 132 163 207 253 294
#     4  10  20  31  46  72 101 132 169 210 253 301
#     4   9  19  30  42  64  97 136 173 209 239 281
#     4  10  18  33  53  71  99 134 166 209 259 307
#     4  10  18  30  50  74  94 124 171 207 246 304
#
# _framework density 17.280082
#
# number of rings (size 3 to 8) (size 9 to 14) (size 15 to 20)
#    0.000    2.067    4.000    1.600    4.667    1.067 
#    0.000    0.000    0.000    1.200    0.000    1.867 
#    0.000    0.533    0.000   15.067    0.000    0.000 
#
# Total GULP energy -743400.965238 kJ/mol
# GULP energy per Si atom -12390.016087 kJ/mol
# Density = 1.724075 g / cm^3
# Si number density = 17.280082 Si / 1000 Ang^3
#
#
#
# Elastic Constant Matrix: (Units=GPa)
#
#
# Indices 1 2 3 4 5 6 
#
# 1 76.8095 37.9254 23.4581 0.0000 0.0000 0.0000
# 2 37.9254 101.4840 17.5543 0.0000 0.0000 0.0000
# 3 23.4581 17.5543 44.6546 0.0000 0.0000 0.0000
# 4 0.0000 0.0000 0.0000 7.5421 0.0000 0.0000
# 5 0.0000 0.0000 0.0000 0.0000 4.2343 0.0000
# 6 0.0000 0.0000 0.0000 0.0000 0.0000 26.0668
#
#
#
# Elastic Compliance Matrix: (Units=1/GPa)
#
#
# Indices 1 2 3 4 5 6 
#
# 1 0.017929 -0.005441 -0.007280 0.000000 0.000000 0.000000
# 2 -0.005441 0.012224 -0.001947 0.000000 0.000000 0.000000
# 3 -0.007280 -0.001947 0.026984 0.000000 0.000000 0.000000
# 4 0.000000 0.000000 0.000000 0.132589 0.000000 0.000000
# 5 0.000000 0.000000 0.000000 0.000000 0.236165 0.000000
# 6 0.000000 0.000000 0.000000 0.000000 0.000000 0.038363
#
#
# Mechanical properties :
#
#
# Convention : Reuss Voigt Hill
#
# Bulk Modulus (GPa) = 35.96967 42.31374 39.14171
# Shear Modulus (GPa) = 9.94320 17.16934 13.55627
#
# Velocity S-wave (km/s) = 2.40138 3.15555 2.80394
# Velocity P-wave (km/s) = 5.34319 6.14954 5.76049
#
# Compressibility (1/GPa) = 0.02780120
#
# Stress axis : x y z
#
# Youngs Moduli (GPa) = 55.77557 81.80677 37.05949
#
# Poissons Ratio (x) = 0.44511 0.26978
# Poissons Ratio (y) = 0.30348 0.07216
# Poissons Ratio (z) = 0.40602 0.15929
#
# Static dielectric constant tensor:
#      x y z
#    x 3.324830 0.000000 0.000000 
#    y 0.000000 3.662490 0.000000 
#    z 0.000000 0.000000 2.838900 
# 
# 
# High freq. dielectric constant tensor:
#      x y z
#    x 1.660290 0.000000 0.000000 
#    y 0.000000 1.672630 0.000000 
#    z 0.000000 0.000000 1.618310 
# 
# From -- ./inp_files/53518.got.cif
#   From: 2010.06.25/outbox.cif.g09.slc.cpg/sg71_27_cif.got.tgz:53518.got - 2010.06.28 04:59:45.
