data_PCOD8287690
_publ_section_title
;
Structure prediction by ZEFSAII (Michael W. Deem and Ramdas Pophale) SiO2 
 PCOD8287690
Probable space group: I M M M
;
_chemical_formula_sum "Si O2"
_cell_formula_units_Z 56
_cell_length_a 8.624267
_cell_length_b 23.077651
_cell_length_c 14.188340
_cell_angle_alpha 90.000000
_cell_angle_beta 90.000000
_cell_angle_gamma 90.000000
_cell_volume 2823.874436
_symmetry_space_group_name_H-M "I M M M"
_symmetry_group_IT_number 71
_symmetry_cell_setting 'orthorhombic'
loop_
_space_group_symop_operation_xyz
x,y,z
-x,-y,z
x,-y,-z
-x,y,-z
-x,-y,-z
x,y,-z
-x,y,z
x,-y,z
1/2+x,1/2+y,1/2+z
1/2-x,1/2-y,1/2+z
1/2+x,1/2-y,1/2-z
1/2-x,1/2+y,1/2-z
1/2-x,1/2-y,1/2-z
1/2+x,1/2+y,1/2-z
1/2-x,1/2+y,1/2+z
1/2+x,1/2-y,1/2+z
loop_
_atom_site_type_symbol
_atom_site_label
_atom_site_fract_x
_atom_site_fract_y
_atom_site_fract_z
Si Si1 0.184136 0.000000 0.893331
Si Si2 0.183408 0.116620 0.205116
Si Si3 0.316240 0.769100 0.150992
Si Si4 0.178381 0.343528 0.897654
O O1 0.243905 0.944132 0.836034
O O2 0.000000 0.000000 0.897446
O O3 0.251085 0.000000 0.000000
O O4 0.256028 0.165453 0.135749
O O5 0.233601 0.122166 0.314774
O O6 0.000000 0.122094 0.200690
O O7 0.500000 0.768037 0.145092
O O8 0.250000 0.750000 0.250000
O O9 0.246711 0.720895 0.081719
O O10 0.000000 0.338525 0.866368
O O11 0.194410 0.375553 0.000000
#
# Coordination Sequence:
#
# PCOD8287690 Si02
#       4
#     8  16  16  16
#     4   9  20  38  58  79 102 134 177 219 262 315
#     4  10  19  34  56  79 106 140 178 221 264 309
#     4  10  18  30  50  76 107 139 172 212 258 308
#     4  10  20  34  53  78 109 144 178 214 262 318
#
# _framework density 19.830908999999998
#
# number of rings (size 3 to 8) (size 9 to 14) (size 15 to 20)
#    0.000    2.143    0.000    7.714    0.000    3.429 
#    0.000    6.429    0.000   10.286    0.000    0.000 
#    0.000    0.000    0.000    0.000    0.000    0.000 
#
# Total GULP energy -346895.067683 kJ/mol
# GULP energy per Si atom -12389.109560 kJ/mol
# Density = 1.978577 g / cm^3
# Si number density = 19.830909 Si / 1000 Ang^3
#
#
#
# Elastic Constant Matrix: (Units=GPa)
#
#
# Indices 1 2 3 4 5 6 
#
# 1 105.7385 28.9797 17.1860 0.0000 0.0000 0.0000
# 2 28.9797 143.8364 50.8632 0.0000 0.0000 0.0000
# 3 17.1860 50.8632 109.6984 -0.0001 0.0000 0.0000
# 4 0.0000 0.0000 -0.0001 21.4948 0.0000 0.0000
# 5 0.0000 0.0000 0.0000 0.0000 20.7247 0.0000
# 6 0.0000 0.0000 0.0000 0.0000 0.0000 25.4720
#
#
#
# Elastic Compliance Matrix: (Units=1/GPa)
#
#
# Indices 1 2 3 4 5 6 
#
# 1 0.010063 -0.001758 -0.000761 0.000000 0.000000 0.000000
# 2 -0.001758 0.008623 -0.003723 0.000000 0.000000 0.000000
# 3 -0.000761 -0.003723 0.010961 0.000000 0.000000 0.000000
# 4 0.000000 0.000000 0.000000 0.046523 0.000000 0.000000
# 5 0.000000 0.000000 0.000000 0.000000 0.048252 0.000000
# 6 0.000000 0.000000 0.000000 0.000000 0.000000 0.039259
#
#
# Mechanical properties :
#
#
# Convention : Reuss Voigt Hill
#
# Bulk Modulus (GPa) = 58.26594 61.48125 59.87359
# Shear Modulus (GPa) = 27.48976 31.02125 29.25551
#
# Velocity S-wave (km/s) = 3.72722 3.95940 3.84506
# Velocity P-wave (km/s) = 6.92590 7.20920 7.06897
#
# Compressibility (1/GPa) = 0.01716269
#
# Stress axis : x y z
#
# Youngs Moduli (GPa) = 99.37490 115.96873 91.23036
#
# Poissons Ratio (x) = 0.20390 0.06945
# Poissons Ratio (y) = 0.17473 0.33963
# Poissons Ratio (z) = 0.07565 0.43172
#
# Static dielectric constant tensor:
#      x y z
#    x 3.553450 0.000000 0.000000 
#    y 0.000000 4.251420 0.000000 
#    z 0.000000 0.000000 4.216410 
# 
# 
# High freq. dielectric constant tensor:
#      x y z
#    x 1.773920 0.000000 0.000000 
#    y 0.000000 1.755490 0.000000 
#    z 0.000000 0.000000 1.776640 
# 
# From -- ./inp_files/5317.got.cif
#   From: 2010.06.25/outbox.cif.g09.slc.cpg/sg71_3_cif.got.tgz:5317.got - 2010.06.28 04:59:45.
