data_PCOD8287551
_publ_section_title
;
Structure prediction by ZEFSAII (Michael W. Deem and Ramdas Pophale) SiO2 
 PCOD8287551
Probable space group: I M M M
;
_chemical_formula_sum "Si O2"
_cell_formula_units_Z 72
_cell_length_a 9.074143
_cell_length_b 22.611587
_cell_length_c 23.056710
_cell_angle_alpha 90.000000
_cell_angle_beta 90.000000
_cell_angle_gamma 90.000000
_cell_volume 4730.793601
_symmetry_space_group_name_H-M "I M M M"
_symmetry_group_IT_number 71
_symmetry_cell_setting 'orthorhombic'
loop_
_space_group_symop_operation_xyz
x,y,z
-x,-y,z
x,-y,-z
-x,y,-z
-x,-y,-z
x,y,-z
-x,y,z
x,-y,z
1/2+x,1/2+y,1/2+z
1/2-x,1/2-y,1/2+z
1/2+x,1/2-y,1/2-z
1/2-x,1/2+y,1/2-z
1/2-x,1/2-y,1/2-z
1/2+x,1/2+y,1/2-z
1/2-x,1/2+y,1/2+z
1/2+x,1/2-y,1/2+z
loop_
_atom_site_type_symbol
_atom_site_label
_atom_site_fract_x
_atom_site_fract_y
_atom_site_fract_z
Si Si1 0.169699 0.566618 0.731522
Si Si2 0.665758 0.323422 0.301935
Si Si3 0.326866 0.900612 0.362202
Si Si4 0.331460 0.500000 0.068584
Si Si5 0.666729 0.712926 0.168421
O O1 0.205596 0.500000 0.711399
O O2 0.265352 0.611166 0.692546
O O3 0.207691 0.572246 0.799298
O O4 0.000000 0.582994 0.721387
O O5 0.500000 0.324977 0.326066
O O6 0.669367 0.303876 0.235551
O O7 0.758949 0.277105 0.340236
O O8 0.500000 0.897708 0.374778
O O9 0.259461 0.834984 0.367793
O O10 0.250048 0.941499 0.409485
O O11 0.500000 0.500000 0.090828
O O12 0.323833 0.500000 0.000000
O O13 0.500000 0.715161 0.144767
#
# Coordination Sequence:
#
# PCOD8287551 Si02
#       5
#    16  16  16   8  16
#     4   9  16  26  38  54  76 102 130 161 197 235
#     4   9  16  24  35  54  75  98 126 158 190 225
#     4  10  18  30  45  59  73  95 127 164 202 241
#     4  11  23  35  45  59  79 101 129 167 209 251
#     4   9  16  26  39  55  74  97 122 155 195 234
#
# _framework density 15.219433
#
# number of rings (size 3 to 8) (size 9 to 14) (size 15 to 20)
#    0.000    2.556    1.111    2.333    0.000    7.556 
#    0.000    0.000    0.000    0.000    0.000    0.000 
#    0.000    0.000    0.000    0.000    0.000    1.111 
#
# Total GULP energy -446385.090542 kJ/mol
# GULP energy per Si atom -12399.585848 kJ/mol
# Density = 1.518479 g / cm^3
# Si number density = 15.219433 Si / 1000 Ang^3
#
#
#
# Elastic Constant Matrix: (Units=GPa)
#
#
# Indices 1 2 3 4 5 6 
#
# 1 126.4267 70.5327 24.9901 0.0000 0.0000 0.0000
# 2 70.5327 128.0082 25.8312 0.0000 0.0000 0.0000
# 3 24.9901 25.8312 19.8221 0.0000 0.0000 0.0000
# 4 0.0000 0.0000 0.0000 11.6385 0.0000 0.0000
# 5 0.0000 0.0000 0.0000 0.0000 12.5848 0.0000
# 6 0.0000 0.0000 0.0000 0.0000 0.0000 34.6133
#
#
#
# Elastic Compliance Matrix: (Units=1/GPa)
#
#
# Indices 1 2 3 4 5 6 
#
# 1 0.012556 -0.005053 -0.009245 0.000000 0.000000 0.000000
# 2 -0.005053 0.012633 -0.010092 0.000000 0.000000 0.000000
# 3 -0.009245 -0.010092 0.075256 0.000000 0.000000 0.000000
# 4 0.000000 0.000000 0.000000 0.085922 0.000000 0.000000
# 5 0.000000 0.000000 0.000000 0.000000 0.079461 0.000000
# 6 0.000000 0.000000 0.000000 0.000000 0.000000 0.028891
#
#
# Mechanical properties :
#
#
# Convention : Reuss Voigt Hill
#
# Bulk Modulus (GPa) = 19.35567 57.44057 38.39812
# Shear Modulus (GPa) = 13.86120 21.96085 17.91102
#
# Velocity S-wave (km/s) = 3.02115 3.80274 3.43425
# Velocity P-wave (km/s) = 4.99151 7.55676 6.40389
#
# Compressibility (1/GPa) = 0.05166444
#
# Stress axis : x y z
#
# Youngs Moduli (GPa) = 79.64255 79.16013 13.28804
#
# Poissons Ratio (x) = 0.39998 0.12285
# Poissons Ratio (y) = 0.40242 0.13410
# Poissons Ratio (z) = 0.73630 0.79889
#
# Static dielectric constant tensor:
#      x y z
#    x 3.131070 0.000000 0.000000 
#    y 0.000000 3.114700 0.000000 
#    z 0.000000 0.000000 2.259770 
# 
# 
# High freq. dielectric constant tensor:
#      x y z
#    x 1.603120 0.000000 0.000000 
#    y 0.000000 1.596790 0.000000 
#    z 0.000000 0.000000 1.492670 
# 
# From -- ./inp_files/7890.got.cif
#   From: 2010.06.25/outbox.cif.g09.slc.cpg/sg71_4_cif.got.tgz:7890.got - 2010.06.28 04:59:45.
