data_PCOD8287938
_publ_section_title
;
Structure prediction by ZEFSAII (Michael W. Deem and Ramdas Pophale) SiO2 
 PCOD8287938
Probable space group: I M M M
;
_chemical_formula_sum "Si O2"
_cell_formula_units_Z 128
_cell_length_a 18.410384
_cell_length_b 20.485535
_cell_length_c 19.756549
_cell_angle_alpha 90.000000
_cell_angle_beta 90.000000
_cell_angle_gamma 90.000000
_cell_volume 7451.114607
_symmetry_space_group_name_H-M "I M M M"
_symmetry_group_IT_number 71
_symmetry_cell_setting 'orthorhombic'
loop_
_space_group_symop_operation_xyz
x,y,z
-x,-y,z
x,-y,-z
-x,y,-z
-x,-y,-z
x,y,-z
-x,y,z
x,-y,z
1/2+x,1/2+y,1/2+z
1/2-x,1/2-y,1/2+z
1/2+x,1/2-y,1/2-z
1/2-x,1/2+y,1/2-z
1/2-x,1/2-y,1/2-z
1/2+x,1/2+y,1/2-z
1/2-x,1/2+y,1/2+z
1/2+x,1/2-y,1/2+z
loop_
_atom_site_type_symbol
_atom_site_label
_atom_site_fract_x
_atom_site_fract_y
_atom_site_fract_z
Si Si1 0.210166 0.205369 0.074565
Si Si2 0.222140 0.646048 0.923867
Si Si3 0.688062 0.815368 0.809223
Si Si4 0.582295 0.613462 0.425957
Si Si5 0.916224 0.072449 0.220376
Si Si6 0.080144 0.424706 0.880755
Si Si7 0.808172 0.166613 0.299473
Si Si8 0.916932 0.426873 0.277622
O O1 0.201920 0.280208 0.094024
O O2 0.262469 0.168626 0.126204
O O3 0.129281 0.178383 0.079722
O O4 0.243654 0.195609 0.000000
O O5 0.146930 0.607351 0.919760
O O6 0.285926 0.628858 0.869526
O O7 0.253388 0.637100 0.000000
O O8 0.733425 0.828003 0.741530
O O9 0.659687 0.739947 0.811216
O O10 0.624099 0.868232 0.815469
O O11 0.596812 0.578529 0.500000
O O12 0.500000 0.637607 0.422570
O O13 0.599867 0.568976 0.360673
O O14 0.867569 0.124608 0.259736
O O15 0.000000 0.091292 0.233567
O O16 0.899247 0.000000 0.248383
O O17 0.081984 0.500000 0.900095
O O18 0.091198 0.414204 0.801548
O O19 0.000000 0.396639 0.901917
O O20 0.886481 0.500000 0.295221
O O21 0.000000 0.423183 0.300876
#
# Coordination Sequence:
#
# PCOD8287938 Si02
#       8
#    16  16  16  16  16  16  16  16
#     4   9  18  32  48  71 101 130 162 201 246 295
#     4  10  20  33  49  68  96 132 164 202 250 297
#     4  10  18  32  53  75 100 130 164 207 248 288
#     4   9  17  30  48  71 102 137 167 195 232 286
#     4  10  21  35  51  73 101 133 168 208 251 290
#     4   9  18  31  45  66  99 133 165 202 241 289
#     4  10  20  33  50  76 101 125 168 211 249 292
#     4   9  18  32  51  76 103 131 163 199 244 295
#
# _framework density 17.178637999999999
#
# number of rings (size 3 to 8) (size 9 to 14) (size 15 to 20)
#    0.000    2.500    2.500    0.750    0.000    2.750 
#    0.000    5.625    0.000    1.125    0.000    5.250 
#    0.000    0.000    0.000    0.000    0.000    0.000 
#
# Total GULP energy -792984.761044 kJ/mol
# GULP energy per Si atom -12390.386891 kJ/mol
# Density = 1.713954 g / cm^3
# Si number density = 17.178638 Si / 1000 Ang^3
#
#
#
# Elastic Constant Matrix: (Units=GPa)
#
#
# Indices 1 2 3 4 5 6 
#
# 1 75.0317 49.1822 46.6112 0.0000 0.0000 0.0000
# 2 49.1822 74.8156 35.8156 0.0000 0.0000 0.0000
# 3 46.6112 35.8156 98.5602 0.0000 0.0000 0.0000
# 4 0.0000 0.0000 0.0000 15.6013 0.0000 0.0000
# 5 0.0000 0.0000 0.0000 0.0000 26.4084 0.0000
# 6 0.0000 0.0000 0.0000 0.0000 0.0000 30.9456
#
#
#
# Elastic Compliance Matrix: (Units=1/GPa)
#
#
# Indices 1 2 3 4 5 6 
#
# 1 0.027651 -0.014427 -0.007834 0.000000 0.000000 0.000000
# 2 -0.014427 0.023708 -0.001793 0.000000 0.000000 0.000000
# 3 -0.007834 -0.001793 0.014502 0.000000 0.000000 0.000000
# 4 0.000000 0.000000 0.000000 0.064097 0.000000 0.000000
# 5 0.000000 0.000000 0.000000 0.000000 0.037867 0.000000
# 6 0.000000 0.000000 0.000000 0.000000 0.000000 0.032315
#
#
# Mechanical properties :
#
#
# Convention : Reuss Voigt Hill
#
# Bulk Modulus (GPa) = 56.32366 56.84727 56.58547
# Shear Modulus (GPa) = 19.67219 22.37762 21.02491
#
# Velocity S-wave (km/s) = 3.38768 3.61313 3.50222
# Velocity P-wave (km/s) = 6.93975 7.11126 7.02602
#
# Compressibility (1/GPa) = 0.01775453
#
# Stress axis : x y z
#
# Youngs Moduli (GPa) = 36.16499 42.17957 68.95386
#
# Poissons Ratio (x) = 0.60852 0.54020
# Poissons Ratio (y) = 0.52175 0.12360
# Poissons Ratio (z) = 0.28333 0.07561
#
# Static dielectric constant tensor:
#      x y z
#    x 3.085770 0.000000 0.000000 
#    y 0.000000 3.152300 0.000000 
#    z 0.000000 0.000000 3.334310 
# 
# 
# High freq. dielectric constant tensor:
#      x y z
#    x 1.644080 0.000000 0.000000 
#    y 0.000000 1.655640 0.000000 
#    z 0.000000 0.000000 1.659280 
# 
# From -- ./inp_files/54469.got.cif
#   From: 2010.06.25/outbox.cif.g09.slc.cpg/sg71_28_cif.got.tgz:54469.got - 2010.06.28 04:59:45.
