data_PCOD8287125
_publ_section_title
;
Structure prediction by ZEFSAII (Michael W. Deem and Ramdas Pophale) SiO2 
 PCOD8287125
Probable space group: I M M M
;
_chemical_formula_sum "Si O2"
_cell_formula_units_Z 104
_cell_length_a 16.576655
_cell_length_b 19.058890
_cell_length_c 18.490859
_cell_angle_alpha 90.000000
_cell_angle_beta 90.000000
_cell_angle_gamma 90.000000
_cell_volume 5841.865978
_symmetry_space_group_name_H-M "I M M M"
_symmetry_group_IT_number 71
_symmetry_cell_setting 'orthorhombic'
loop_
_space_group_symop_operation_xyz
x,y,z
-x,-y,z
x,-y,-z
-x,y,-z
-x,-y,-z
x,y,-z
-x,y,z
x,-y,z
1/2+x,1/2+y,1/2+z
1/2-x,1/2-y,1/2+z
1/2+x,1/2-y,1/2-z
1/2-x,1/2+y,1/2-z
1/2-x,1/2-y,1/2-z
1/2+x,1/2+y,1/2-z
1/2-x,1/2+y,1/2+z
1/2+x,1/2-y,1/2+z
loop_
_atom_site_type_symbol
_atom_site_label
_atom_site_fract_x
_atom_site_fract_y
_atom_site_fract_z
Si Si1 0.092485 0.303355 0.915692
Si Si2 0.407407 0.078454 0.309355
Si Si3 0.595799 0.421659 0.079954
Si Si4 0.408859 0.680663 0.200352
Si Si5 0.295842 0.290014 0.315547
Si Si6 0.632414 0.160779 0.171444
Si Si7 0.500000 0.080912 0.085169
O O1 0.101489 0.382755 0.886360
O O2 0.157122 0.256098 0.873974
O O3 0.000000 0.277153 0.902120
O O4 0.113713 0.302829 0.000000
O O5 0.500000 0.075521 0.284110
O O6 0.361084 0.122114 0.248427
O O7 0.371792 0.000000 0.317077
O O8 0.500000 0.415717 0.077110
O O9 0.621686 0.500000 0.104189
O O10 0.631411 0.364453 0.135512
O O11 0.630651 0.405236 0.000000
O O12 0.500000 0.656154 0.212663
O O13 0.361835 0.662275 0.274498
O O14 0.407383 0.762973 0.181409
O O15 0.250000 0.250000 0.250000
O O16 0.225341 0.333191 0.356848
O O17 0.580916 0.116800 0.114585
O O18 0.500000 0.000000 0.109311
O O19 0.500000 0.089731 0.000000
#
# Coordination Sequence:
#
# PCOD8287125 Si02
#       7
#    16  16  16  16  16  16   8
#     4  10  20  35  56  82 116 153 192 237 288 343
#     4  10  18  31  55  81 110 150 194 233 281 339
#     4   8  15  28  46  71 105 141 173 211 264 321
#     4  10  17  30  54  78 104 141 190 233 264 325
#     4  10  20  33  54  77 108 140 182 237 279 325
#     4  11  20  35  55  80 108 146 188 236 285 335
#     4  11  24  40  58  84 114 144 186 240 293 344
#
# _framework density 17.802530000000001
#
# number of rings (size 3 to 8) (size 9 to 14) (size 15 to 20)
#    0.000    2.077    4.615    1.385    0.000    1.538 
#    0.000    5.385    0.000    0.000    0.000    0.000 
#    0.000    0.000    0.000   15.692    0.000    0.000 
#
# Total GULP energy -644409.639196 kJ/mol
# GULP energy per Si atom -12392.493061 kJ/mol
# Density = 1.776201 g / cm^3
# Si number density = 17.802530 Si / 1000 Ang^3
#
#
#
# Elastic Constant Matrix: (Units=GPa)
#
#
# Indices 1 2 3 4 5 6 
#
# 1 92.3364 49.0468 47.4121 0.0000 0.0000 0.0000
# 2 49.0468 109.0078 65.9467 0.0000 0.0000 0.0000
# 3 47.4121 65.9467 108.0379 0.0000 0.0000 0.0000
# 4 0.0000 0.0000 0.0000 31.2943 0.0000 0.0000
# 5 0.0000 0.0000 0.0000 0.0000 19.4682 0.0000
# 6 0.0000 0.0000 0.0000 0.0000 0.0000 8.2374
#
#
#
# Elastic Compliance Matrix: (Units=1/GPa)
#
#
# Indices 1 2 3 4 5 6 
#
# 1 0.015232 -0.004455 -0.003966 0.000000 0.000000 0.000000
# 2 -0.004455 0.015847 -0.007718 0.000000 0.000000 0.000000
# 3 -0.003966 -0.007718 0.015708 0.000000 0.000000 0.000000
# 4 0.000000 0.000000 0.000000 0.031955 0.000000 0.000000
# 5 0.000000 0.000000 0.000000 0.000000 0.051366 0.000000
# 6 0.000000 0.000000 0.000000 0.000000 0.000000 0.121397
#
#
# Mechanical properties :
#
#
# Convention : Reuss Voigt Hill
#
# Bulk Modulus (GPa) = 68.91690 70.46593 69.69141
# Shear Modulus (GPa) = 17.32388 21.59842 19.46115
#
# Velocity S-wave (km/s) = 3.12286 3.48691 3.30990
# Velocity P-wave (km/s) = 7.19715 7.47525 7.33751
#
# Compressibility (1/GPa) = 0.01451023
#
# Stress axis : x y z
#
# Youngs Moduli (GPa) = 65.64986 63.10211 63.66328
#
# Poissons Ratio (x) = 0.28109 0.25246
# Poissons Ratio (y) = 0.29244 0.49138
# Poissons Ratio (z) = 0.26034 0.48705
#
# Static dielectric constant tensor:
#      x y z
#    x 3.573940 0.000000 0.000000 
#    y 0.000000 3.302460 0.000000 
#    z 0.000000 0.000000 3.343680 
# 
# 
# High freq. dielectric constant tensor:
#      x y z
#    x 1.683660 0.000000 0.000000 
#    y 0.000000 1.671510 0.000000 
#    z 0.000000 0.000000 1.679740 
# 
# From -- ./inp_files/46143.got.cif
#   From: 2010.06.25/outbox.cif.g09.slc.cpg/sg71_24_cif.got.tgz:46143.got - 2010.06.28 04:59:45.
