data_PCOD8287091
_publ_section_title
;
Structure prediction by ZEFSAII (Michael W. Deem and Ramdas Pophale) SiO2 
 PCOD8287091
Probable space group: I M M M
;
_chemical_formula_sum "Si O2"
_cell_formula_units_Z 128
_cell_length_a 19.827405
_cell_length_b 16.862704
_cell_length_c 22.984031
_cell_angle_alpha 90.000000
_cell_angle_beta 90.000000
_cell_angle_gamma 90.000000
_cell_volume 7684.565083
_symmetry_space_group_name_H-M "I M M M"
_symmetry_group_IT_number 71
_symmetry_cell_setting 'orthorhombic'
loop_
_space_group_symop_operation_xyz
x,y,z
-x,-y,z
x,-y,-z
-x,y,-z
-x,-y,-z
x,y,-z
-x,y,z
x,-y,z
1/2+x,1/2+y,1/2+z
1/2-x,1/2-y,1/2+z
1/2+x,1/2-y,1/2-z
1/2-x,1/2+y,1/2-z
1/2-x,1/2-y,1/2-z
1/2+x,1/2+y,1/2-z
1/2-x,1/2+y,1/2+z
1/2+x,1/2-y,1/2+z
loop_
_atom_site_type_symbol
_atom_site_label
_atom_site_fract_x
_atom_site_fract_y
_atom_site_fract_z
Si Si1 0.337356 0.197787 0.146121
Si Si2 0.079648 0.588830 0.434900
Si Si3 0.171526 0.231033 0.761762
Si Si4 0.254996 0.704898 0.063212
Si Si5 0.924779 0.281598 0.861557
Si Si6 0.857010 0.161145 0.935221
Si Si7 0.708844 0.590418 0.669179
Si Si8 0.858851 0.409850 0.068176
O O1 0.395184 0.152460 0.111435
O O2 0.367639 0.240811 0.203673
O O3 0.311689 0.272976 0.109321
O O4 0.280431 0.133273 0.161040
O O5 0.106358 0.609768 0.500000
O O6 0.104659 0.500000 0.418424
O O7 0.000000 0.591467 0.434311
O O8 0.250000 0.250000 0.750000
O O9 0.135692 0.278575 0.814232
O O10 0.167641 0.137870 0.780013
O O11 0.202894 0.776554 0.059449
O O12 0.215115 0.625867 0.082449
O O13 0.288859 0.691946 0.000000
O O14 0.919869 0.207337 0.906231
O O15 0.916429 0.363598 0.896501
O O16 0.000000 0.279891 0.833764
O O17 0.832398 0.091239 0.891945
O O18 0.875318 0.128132 0.000000
O O19 0.719046 0.500000 0.689131
O O20 0.859422 0.500000 0.089108
O O21 0.874862 0.400918 0.000000
#
# Coordination Sequence:
#
# PCOD8287091 Si02
#       8
#    16  16  16  16  16  16  16  16
#     4  10  17  29  48  68  89 123 163 194 224 277
#     4   9  18  31  46  69 102 130 149 181 235 292
#     4   9  19  34  48  64  90 122 159 200 239 276
#     4   8  14  26  44  66  90 115 149 193 232 269
#     4  10  19  31  47  66  90 123 162 200 234 274
#     4   8  15  27  43  65  91 117 146 184 233 283
#     4   9  17  29  46  68  92 118 152 196 239 276
#     4   9  17  29  45  66  95 128 156 187 231 276
#
# _framework density 16.656766000000001
#
# number of rings (size 3 to 8) (size 9 to 14) (size 15 to 20)
#    0.000    3.000    0.000    4.500    0.000    2.500 
#    0.000    6.875    0.000    6.000    0.000    3.500 
#    0.000    1.500    0.000    8.875    0.000    0.000 
#
# Total GULP energy -792836.439825 kJ/mol
# GULP energy per Si atom -12388.069372 kJ/mol
# Density = 1.661885 g / cm^3
# Si number density = 16.656766 Si / 1000 Ang^3
#
#
#
# Elastic Constant Matrix: (Units=GPa)
#
#
# Indices 1 2 3 4 5 6 
#
# 1 49.9635 24.1934 33.3249 0.0000 0.0000 0.0000
# 2 24.1934 81.5865 40.9451 0.0000 0.0000 0.0000
# 3 33.3249 40.9451 107.1346 0.0000 0.0000 0.0000
# 4 0.0000 0.0000 0.0000 22.6969 0.0000 0.0000
# 5 0.0000 0.0000 0.0000 0.0000 20.5261 0.0000
# 6 0.0000 0.0000 0.0000 0.0000 0.0000 15.5818
#
#
#
# Elastic Compliance Matrix: (Units=1/GPa)
#
#
# Indices 1 2 3 4 5 6 
#
# 1 0.026591 -0.004620 -0.006505 0.000000 0.000000 0.000000
# 2 -0.004620 0.015969 -0.004666 0.000000 0.000000 0.000000
# 3 -0.006505 -0.004666 0.013141 0.000000 0.000000 0.000000
# 4 0.000000 0.000000 0.000000 0.044059 0.000000 0.000000
# 5 0.000000 0.000000 0.000000 0.000000 0.048719 0.000000
# 6 0.000000 0.000000 0.000000 0.000000 0.000000 0.064178
#
#
# Mechanical properties :
#
#
# Convention : Reuss Voigt Hill
#
# Bulk Modulus (GPa) = 41.46416 48.40126 44.93271
# Shear Modulus (GPa) = 19.81945 21.10903 20.46424
#
# Velocity S-wave (km/s) = 3.45320 3.56377 3.50892
# Velocity P-wave (km/s) = 6.39115 6.78639 6.59173
#
# Compressibility (1/GPa) = 0.02411721
#
# Stress axis : x y z
#
# Youngs Moduli (GPa) = 37.60682 62.62290 76.09895
#
# Poissons Ratio (x) = 0.28934 0.49506
# Poissons Ratio (y) = 0.17376 0.35506
# Poissons Ratio (z) = 0.24465 0.29218
#
# Static dielectric constant tensor:
#      x y z
#    x 2.816810 0.000000 0.000000 
#    y 0.000000 3.121470 0.000000 
#    z 0.000000 0.000000 3.631290 
# 
# 
# High freq. dielectric constant tensor:
#      x y z
#    x 1.604830 0.000000 0.000000 
#    y 0.000000 1.622100 0.000000 
#    z 0.000000 0.000000 1.646970 
# 
# From -- ./inp_files/55246.got.cif
#   From: 2010.06.25/outbox.cif.g09.slc.cpg/sg71_28_cif.got.tgz:55246.got - 2010.06.28 04:59:45.
