data_PCOD8287278
_publ_section_title
;
Structure prediction by ZEFSAII (Michael W. Deem and Ramdas Pophale) SiO2 
 PCOD8287278
Probable space group: I M M M
;
_chemical_formula_sum "Si O2"
_cell_formula_units_Z 72
_cell_length_a 13.898244
_cell_length_b 14.856857
_cell_length_c 22.395072
_cell_angle_alpha 90.000000
_cell_angle_beta 90.000000
_cell_angle_gamma 90.000000
_cell_volume 4624.229056
_symmetry_space_group_name_H-M "I M M M"
_symmetry_group_IT_number 71
_symmetry_cell_setting 'orthorhombic'
loop_
_space_group_symop_operation_xyz
x,y,z
-x,-y,z
x,-y,-z
-x,y,-z
-x,-y,-z
x,y,-z
-x,y,z
x,-y,z
1/2+x,1/2+y,1/2+z
1/2-x,1/2-y,1/2+z
1/2+x,1/2-y,1/2-z
1/2-x,1/2+y,1/2-z
1/2-x,1/2-y,1/2-z
1/2+x,1/2+y,1/2-z
1/2-x,1/2+y,1/2+z
1/2+x,1/2-y,1/2+z
loop_
_atom_site_type_symbol
_atom_site_label
_atom_site_fract_x
_atom_site_fract_y
_atom_site_fract_z
Si Si1 0.393106 0.606591 0.000000
Si Si2 0.385820 0.599322 0.645397
Si Si3 0.230765 0.106684 0.612179
Si Si4 0.112649 0.733815 0.930352
Si Si5 0.106968 0.106397 0.277650
O O1 0.337937 0.639423 0.058756
O O2 0.400168 0.500000 0.000000
O O3 0.500000 0.648814 0.000000
O O4 0.500000 0.592358 0.645651
O O5 0.343189 0.500000 0.629941
O O6 0.350592 0.671016 0.596422
O O7 0.353190 0.630930 0.711721
O O8 0.334116 0.152955 0.603681
O O9 0.182164 0.142252 0.673231
O O10 0.247540 0.000000 0.611851
O O11 0.000000 0.719736 0.918624
O O12 0.137548 0.733082 0.000000
O O13 0.000000 0.147961 0.288425
O O14 0.098188 0.000000 0.284258
#
# Coordination Sequence:
#
# PCOD8287278 Si02
#       5
#     8  16  16  16  16
#     4   9  16  26  41  61  84 109 137 171 209 246
#     4   8  15  29  47  65  84 106 136 180 229 262
#     4  10  18  28  42  62  88 118 145 169 204 250
#     4  10  20  31  42  59  86 119 152 179 202 240
#     4   8  14  26  45  67  88 108 133 172 223 268
#
# _framework density 15.570164
#
# number of rings (size 3 to 8) (size 9 to 14) (size 15 to 20)
#    0.000    3.000    1.111    2.000    0.000    4.444 
#    0.000    3.333    0.000    0.000    0.000    0.000 
#    0.000    4.444    0.000    0.000    0.000    0.000 
#
# Total GULP energy -446200.651941 kJ/mol
# GULP energy per Si atom -12394.462554 kJ/mol
# Density = 1.553473 g / cm^3
# Si number density = 15.570164 Si / 1000 Ang^3
#
#
#
# Elastic Constant Matrix: (Units=GPa)
#
#
# Indices 1 2 3 4 5 6 
#
# 1 60.7208 33.7132 35.8738 0.0000 0.0000 0.0000
# 2 33.7132 56.7078 33.2065 0.0000 0.0000 0.0000
# 3 35.8738 33.2065 72.9828 0.0000 0.0000 0.0000
# 4 0.0000 0.0000 0.0000 21.5678 0.0000 0.0000
# 5 0.0000 0.0000 0.0000 0.0000 15.6182 0.0000
# 6 0.0000 0.0000 0.0000 0.0000 0.0000 13.9263
#
#
#
# Elastic Compliance Matrix: (Units=1/GPa)
#
#
# Indices 1 2 3 4 5 6 
#
# 1 0.027920 -0.011672 -0.008413 0.000000 0.000000 0.000000
# 2 -0.011672 0.028919 -0.007420 0.000000 0.000000 0.000000
# 3 -0.008413 -0.007420 0.021213 0.000000 0.000000 0.000000
# 4 0.000000 0.000000 0.000000 0.046365 0.000000 0.000000
# 5 0.000000 0.000000 0.000000 0.000000 0.064028 0.000000
# 6 0.000000 0.000000 0.000000 0.000000 0.000000 0.071806
#
#
# Mechanical properties :
#
#
# Convention : Reuss Voigt Hill
#
# Bulk Modulus (GPa) = 43.40128 43.99985 43.70056
# Shear Modulus (GPa) = 15.48263 16.06365 15.77314
#
# Velocity S-wave (km/s) = 3.15680 3.21548 3.18628
# Velocity P-wave (km/s) = 6.42046 6.48893 6.45479
#
# Compressibility (1/GPa) = 0.02304079
#
# Stress axis : x y z
#
# Youngs Moduli (GPa) = 35.81700 34.57980 47.14014
#
# Poissons Ratio (x) = 0.40362 0.39658
# Poissons Ratio (y) = 0.41806 0.34980
# Poissons Ratio (z) = 0.30132 0.25660
#
# Static dielectric constant tensor:
#      x y z
#    x 2.853190 0.000000 0.000000 
#    y 0.000000 2.818160 0.000000 
#    z 0.000000 0.000000 3.274040 
# 
# 
# High freq. dielectric constant tensor:
#      x y z
#    x 1.571340 0.000000 0.000000 
#    y 0.000000 1.561910 0.000000 
#    z 0.000000 0.000000 1.610950 
# 
# From -- ./inp_files/21760.got.cif
#   From: 2010.06.25/outbox.cif.g09.slc.cpg/sg71_11_cif.got.tgz:21760.got - 2010.06.28 04:59:45.
