data_PCOD8287703
_publ_section_title
;
Structure prediction by ZEFSAII (Michael W. Deem and Ramdas Pophale) SiO2 
 PCOD8287703
Probable space group: I M M M
;
_chemical_formula_sum "Si O2"
_cell_formula_units_Z 104
_cell_length_a 30.295821
_cell_length_b 9.053905
_cell_length_c 20.829256
_cell_angle_alpha 90.000000
_cell_angle_beta 90.000000
_cell_angle_gamma 90.000000
_cell_volume 5713.370882
_symmetry_space_group_name_H-M "I M M M"
_symmetry_group_IT_number 71
_symmetry_cell_setting 'orthorhombic'
loop_
_space_group_symop_operation_xyz
x,y,z
-x,-y,z
x,-y,-z
-x,y,-z
-x,-y,-z
x,y,-z
-x,y,z
x,-y,z
1/2+x,1/2+y,1/2+z
1/2-x,1/2-y,1/2+z
1/2+x,1/2-y,1/2-z
1/2-x,1/2+y,1/2-z
1/2-x,1/2-y,1/2-z
1/2+x,1/2+y,1/2-z
1/2-x,1/2+y,1/2+z
1/2+x,1/2-y,1/2+z
loop_
_atom_site_type_symbol
_atom_site_label
_atom_site_fract_x
_atom_site_fract_y
_atom_site_fract_z
Si Si1 0.369689 0.174049 0.283419
Si Si2 0.712196 0.327449 0.926921
Si Si3 0.867259 0.324289 0.640216
Si Si4 0.050739 0.674996 0.870784
Si Si5 0.452231 0.175326 0.071273
Si Si6 0.447967 0.664624 0.500000
Si Si7 0.226999 0.326778 0.810674
O O1 0.363357 0.239069 0.212026
O O2 0.414240 0.234798 0.317674
O O3 0.324440 0.218441 0.319619
O O4 0.375449 0.000000 0.278857
O O5 0.702177 0.500000 0.920912
O O6 0.668649 0.240219 0.907723
O O7 0.750771 0.279697 0.877822
O O8 0.725872 0.285960 0.000000
O O9 0.862963 0.500000 0.638025
O O10 0.914567 0.263989 0.617411
O O11 0.053921 0.500000 0.879299
O O12 0.067056 0.747249 0.937000
O O13 0.000000 0.719995 0.852609
O O14 0.500000 0.225847 0.098237
O O15 0.449945 0.000000 0.068326
O O16 0.445164 0.239749 0.000000
O O17 0.427112 0.500000 0.500000
O O18 0.500000 0.652919 0.500000
O O19 0.231238 0.500000 0.797291
O O20 0.250000 0.250000 0.750000
#
# Coordination Sequence:
#
# PCOD8287703 Si02
#       7
#    16  16  16  16  16   8  16
#     4   9  18  31  49  76 102 126 161 204 247 296
#     4  10  21  35  51  73 100 131 168 208 250 299
#     4  10  18  30  51  75  98 128 167 206 247 293
#     4   9  17  31  51  75 103 134 168 206 252 307
#     4   8  14  24  39  64  97 127 156 194 240 285
#     4   9  17  31  51  73  99 133 171 211 253 297
#     4  10  19  35  55  74 100 132 167 204 249 302
#
# _framework density 18.202915000000001
#
# number of rings (size 3 to 8) (size 9 to 14) (size 15 to 20)
#    0.000    2.692    1.538    1.154    0.000    2.462 
#    1.385    4.615    0.000    0.462    0.000    2.154 
#    0.000    0.000    0.000    0.000    0.000    0.000 
#
# Total GULP energy -644425.757929 kJ/mol
# GULP energy per Si atom -12392.803037 kJ/mol
# Density = 1.816148 g / cm^3
# Si number density = 18.202915 Si / 1000 Ang^3
#
#
#
# Elastic Constant Matrix: (Units=GPa)
#
#
# Indices 1 2 3 4 5 6 
#
# 1 147.0388 24.3633 79.5178 0.0000 0.0000 0.0000
# 2 24.3633 24.7499 26.4785 0.0000 0.0000 0.0000
# 3 79.5178 26.4785 141.7512 0.0000 0.0000 0.0000
# 4 0.0000 0.0000 0.0000 19.9193 0.0000 0.0000
# 5 0.0000 0.0000 0.0000 0.0000 38.5278 0.0000
# 6 0.0000 0.0000 0.0000 0.0000 0.0000 17.8817
#
#
#
# Elastic Compliance Matrix: (Units=1/GPa)
#
#
# Indices 1 2 3 4 5 6 
#
# 1 0.010218 -0.004907 -0.004815 0.000000 0.000000 0.000000
# 2 -0.004907 0.052851 -0.007120 0.000000 0.000000 0.000000
# 3 -0.004815 -0.007120 0.011086 0.000000 0.000000 0.000000
# 4 0.000000 0.000000 0.000000 0.050202 0.000000 0.000000
# 5 0.000000 0.000000 0.000000 0.000000 0.025955 0.000000
# 6 0.000000 0.000000 0.000000 0.000000 0.000000 0.055923
#
#
# Mechanical properties :
#
#
# Convention : Reuss Voigt Hill
#
# Bulk Modulus (GPa) = 24.70892 63.80655 44.25774
# Shear Modulus (GPa) = 19.73081 27.47778 23.60429
#
# Velocity S-wave (km/s) = 3.29589 3.88948 3.60492
# Velocity P-wave (km/s) = 5.29976 7.43638 6.45706
#
# Compressibility (1/GPa) = 0.04047121
#
# Stress axis : x y z
#
# Youngs Moduli (GPa) = 97.86543 18.92101 90.20465
#
# Poissons Ratio (x) = 0.09284 0.43438
# Poissons Ratio (y) = 0.48019 0.64225
# Poissons Ratio (z) = 0.47127 0.13472
#
# Static dielectric constant tensor:
#      x y z
#    x 3.644710 0.000000 0.000000 
#    y 0.000000 3.045450 0.000000 
#    z 0.000000 0.000000 3.596490 
# 
# 
# High freq. dielectric constant tensor:
#      x y z
#    x 1.710430 0.000000 0.000000 
#    y 0.000000 1.663760 0.000000 
#    z 0.000000 0.000000 1.708410 
# 
# From -- ./inp_files/56731.got.cif
#   From: 2010.06.25/outbox.cif.g09.slc.cpg/sg71_29_cif.got.tgz:56731.got - 2010.06.28 04:59:45.
