data_PCOD8287279
_publ_section_title
;
Structure prediction by ZEFSAII (Michael W. Deem and Ramdas Pophale) SiO2 
 PCOD8287279
Probable space group: I M M M
;
_chemical_formula_sum "Si O2"
_cell_formula_units_Z 104
_cell_length_a 20.237817
_cell_length_b 23.594837
_cell_length_c 13.330970
_cell_angle_alpha 90.000000
_cell_angle_beta 90.000000
_cell_angle_gamma 90.000000
_cell_volume 6365.644734
_symmetry_space_group_name_H-M "I M M M"
_symmetry_group_IT_number 71
_symmetry_cell_setting 'orthorhombic'
loop_
_space_group_symop_operation_xyz
x,y,z
-x,-y,z
x,-y,-z
-x,y,-z
-x,-y,-z
x,y,-z
-x,y,z
x,-y,z
1/2+x,1/2+y,1/2+z
1/2-x,1/2-y,1/2+z
1/2+x,1/2-y,1/2-z
1/2-x,1/2+y,1/2-z
1/2-x,1/2-y,1/2-z
1/2+x,1/2+y,1/2-z
1/2-x,1/2+y,1/2+z
1/2+x,1/2-y,1/2+z
loop_
_atom_site_type_symbol
_atom_site_label
_atom_site_fract_x
_atom_site_fract_y
_atom_site_fract_z
Si Si1 0.175576 0.437208 0.881581
Si Si2 0.424958 0.648309 0.113854
Si Si3 0.000000 0.937099 0.880850
Si Si4 0.316859 0.566923 0.200343
Si Si5 0.634105 0.380588 0.385727
Si Si6 0.575885 0.157721 0.616782
Si Si7 0.075843 0.222661 0.800447
O O1 0.161051 0.500000 0.837020
O O2 0.247933 0.416378 0.850151
O O3 0.120499 0.393648 0.841862
O O4 0.172350 0.439712 0.000000
O O5 0.500000 0.625707 0.126566
O O6 0.375689 0.597338 0.140520
O O7 0.413349 0.703094 0.185282
O O8 0.411918 0.668455 0.000000
O O9 0.935073 0.905319 0.843018
O O10 0.000000 0.000000 0.835567
O O11 0.000000 0.938336 0.000000
O O12 0.329791 0.500000 0.198474
O O13 0.311341 0.590523 0.314758
O O14 0.650544 0.396594 0.500000
O O15 0.625731 0.313171 0.371686
O O16 0.590047 0.171652 0.500000
O O17 0.500000 0.139850 0.632130
O O18 0.594692 0.211853 0.684825
O O19 0.000000 0.213526 0.835919
#
# Coordination Sequence:
#
# PCOD8287279 Si02
#       7
#    16  16   8  16  16  16  16
#     4   9  18  33  50  68  93 122 149 181 226 277
#     4   9  18  31  45  63  89 123 162 199 228 254
#     4   9  16  24  36  56  83 117 154 190 225 256
#     4  10  20  31  45  63  87 123 162 195 231 273
#     4  10  18  28  42  63  92 124 157 193 230 269
#     4   9  17  29  50  77  97 114 141 178 224 283
#     4   9  16  28  46  68  93 120 149 186 233 276
#
# _framework density 16.337700000000002
#
# number of rings (size 3 to 8) (size 9 to 14) (size 15 to 20)
#    0.000    2.692    0.769    1.385    1.077    3.077 
#    0.000    5.385    0.000    2.769    0.000    0.000 
#    0.000    0.000    0.000    9.385    0.000    0.308 
#
# Total GULP energy -644625.826072 kJ/mol
# GULP energy per Si atom -12396.650501 kJ/mol
# Density = 1.630052 g / cm^3
# Si number density = 16.337700 Si / 1000 Ang^3
#
#
#
# Elastic Constant Matrix: (Units=GPa)
#
#
# Indices 1 2 3 4 5 6 
#
# 1 70.8052 62.6463 21.7372 0.0000 0.0000 0.0000
# 2 62.6463 113.2841 33.5149 0.0000 0.0000 0.0000
# 3 21.7372 33.5149 57.6326 0.0000 0.0000 0.0000
# 4 0.0000 0.0000 0.0000 17.6937 0.0000 0.0000
# 5 0.0000 0.0000 0.0000 0.0000 18.7393 0.0000
# 6 0.0000 0.0000 0.0000 0.0000 0.0000 19.0410
#
#
#
# Elastic Compliance Matrix: (Units=1/GPa)
#
#
# Indices 1 2 3 4 5 6 
#
# 1 0.027819 -0.014831 -0.001868 0.000000 0.000000 0.000000
# 2 -0.014831 0.018569 -0.005204 0.000000 0.000000 0.000000
# 3 -0.001868 -0.005204 0.021082 0.000000 0.000000 0.000000
# 4 0.000000 0.000000 0.000000 0.056517 0.000000 0.000000
# 5 0.000000 0.000000 0.000000 0.000000 0.053364 0.000000
# 6 0.000000 0.000000 0.000000 0.000000 0.000000 0.052518
#
#
# Mechanical properties :
#
#
# Convention : Reuss Voigt Hill
#
# Bulk Modulus (GPa) = 42.25952 53.05765 47.65859
# Shear Modulus (GPa) = 17.75795 19.34969 18.55382
#
# Velocity S-wave (km/s) = 3.30044 3.44518 3.37359
# Velocity P-wave (km/s) = 6.35974 6.95499 6.66401
#
# Compressibility (1/GPa) = 0.02366331
#
# Stress axis : x y z
#
# Youngs Moduli (GPa) = 35.94663 53.85347 47.43351
#
# Poissons Ratio (x) = 0.79873 0.08858
# Poissons Ratio (y) = 0.53314 0.24686
# Poissons Ratio (z) = 0.06713 0.28027
#
# Static dielectric constant tensor:
#      x y z
#    x 2.949680 0.000000 0.000000 
#    y 0.000000 3.170640 0.000000 
#    z 0.000000 0.000000 3.042930 
# 
# 
# High freq. dielectric constant tensor:
#      x y z
#    x 1.603980 0.000000 0.000000 
#    y 0.000000 1.624050 0.000000 
#    z 0.000000 0.000000 1.617470 
# 
# From -- ./inp_files/36919.got.cif
#   From: 2010.06.25/outbox.cif.g09.slc.cpg/sg71_19_cif.got.tgz:36919.got - 2010.06.28 04:59:45.
