data_PCOD8287776
_publ_section_title
;
Structure prediction by ZEFSAII (Michael W. Deem and Ramdas Pophale) SiO2 
 PCOD8287776
Probable space group: I M M M
;
_chemical_formula_sum "Si O2"
_cell_formula_units_Z 120
_cell_length_a 9.236235
_cell_length_b 28.058053
_cell_length_c 26.913561
_cell_angle_alpha 90.000000
_cell_angle_beta 90.000000
_cell_angle_gamma 90.000000
_cell_volume 6974.670088
_symmetry_space_group_name_H-M "I M M M"
_symmetry_group_IT_number 71
_symmetry_cell_setting 'orthorhombic'
loop_
_space_group_symop_operation_xyz
x,y,z
-x,-y,z
x,-y,-z
-x,y,-z
-x,-y,-z
x,y,-z
-x,y,z
x,-y,z
1/2+x,1/2+y,1/2+z
1/2-x,1/2-y,1/2+z
1/2+x,1/2-y,1/2-z
1/2-x,1/2+y,1/2-z
1/2-x,1/2-y,1/2-z
1/2+x,1/2+y,1/2-z
1/2-x,1/2+y,1/2+z
1/2+x,1/2-y,1/2+z
loop_
_atom_site_type_symbol
_atom_site_label
_atom_site_fract_x
_atom_site_fract_y
_atom_site_fract_z
Si Si1 0.666560 0.363138 0.734307
Si Si2 0.333105 0.287970 0.555920
Si Si3 0.664802 0.817164 0.151750
Si Si4 0.345278 0.052503 0.500000
Si Si5 0.666004 0.815742 0.590775
Si Si6 0.671276 0.408154 0.086263
Si Si7 0.838042 0.788440 0.317762
Si Si8 0.171758 0.054021 0.306711
O O1 0.500000 0.370918 0.719931
O O2 0.756356 0.358199 0.683471
O O3 0.684861 0.313898 0.765046
O O4 0.726012 0.409634 0.763900
O O5 0.290764 0.304775 0.500000
O O6 0.500000 0.300157 0.567511
O O7 0.235822 0.313777 0.597156
O O8 0.308779 0.231249 0.558135
O O9 0.500000 0.832505 0.143290
O O10 0.675342 0.768648 0.184044
O O11 0.500000 0.082570 0.500000
O O12 0.245817 0.057046 0.451881
O O13 0.402240 0.000000 0.500000
O O14 0.500000 0.832457 0.589467
O O15 0.770635 0.856328 0.570011
O O16 0.711118 0.807185 0.647477
O O17 0.500000 0.409953 0.080668
O O18 0.723341 0.423840 0.141062
O O19 0.000000 0.802370 0.337882
O O20 0.000000 0.052257 0.306439
O O21 0.233190 0.000000 0.298944
#
# Coordination Sequence:
#
# PCOD8287776 Si02
#       8
#    16  16  16   8  16  16  16  16
#     4  10  18  31  50  71 100 132 166 206 250 302
#     4   9  19  35  52  70  97 135 173 207 247 297
#     4  10  20  31  47  73 103 131 165 206 250 300
#     4  11  25  41  53  69  93 119 157 215 275 321
#     4  10  19  30  48  73  99 128 163 205 251 297
#     4  11  21  36  55  73  95 126 168 214 260 313
#     4   9  17  31  47  67  96 129 166 204 241 290
#     4   9  18  33  54  76  97 126 167 213 256 301
#
# _framework density 17.205113999999998
#
# number of rings (size 3 to 8) (size 9 to 14) (size 15 to 20)
#    0.000    2.200    1.333    2.200    0.933    2.933 
#    0.000    0.000    0.000    2.000    0.000    0.000 
#    0.000    0.533    0.000    6.133    0.000    1.733 
#
# Total GULP energy -743607.122268 kJ/mol
# GULP energy per Si atom -12393.452038 kJ/mol
# Density = 1.716595 g / cm^3
# Si number density = 17.205114 Si / 1000 Ang^3
#
#
#
# Elastic Constant Matrix: (Units=GPa)
#
#
# Indices 1 2 3 4 5 6 
#
# 1 91.7133 34.0748 60.1369 0.0000 0.0000 0.0000
# 2 34.0748 55.9048 49.0311 0.0000 0.0000 0.0000
# 3 60.1369 49.0311 115.6934 0.0000 0.0000 0.0000
# 4 0.0000 0.0000 0.0000 20.0578 0.0000 0.0000
# 5 0.0000 0.0000 0.0000 0.0000 27.9731 0.0000
# 6 0.0000 0.0000 0.0000 0.0000 0.0000 14.9017
#
#
#
# Elastic Compliance Matrix: (Units=1/GPa)
#
#
# Indices 1 2 3 4 5 6 
#
# 1 0.017137 -0.004190 -0.007132 0.000000 0.000000 0.000000
# 2 -0.004190 0.029494 -0.010322 0.000000 0.000000 0.000000
# 3 -0.007132 -0.010322 0.016725 0.000000 0.000000 0.000000
# 4 0.000000 0.000000 0.000000 0.049856 0.000000 0.000000
# 5 0.000000 0.000000 0.000000 0.000000 0.035749 0.000000
# 6 0.000000 0.000000 0.000000 0.000000 0.000000 0.067107
#
#
# Mechanical properties :
#
#
# Convention : Reuss Voigt Hill
#
# Bulk Modulus (GPa) = 49.82920 61.08858 55.45889
# Shear Modulus (GPa) = 18.79392 20.59108 19.69250
#
# Velocity S-wave (km/s) = 3.30865 3.46323 3.38682
# Velocity P-wave (km/s) = 6.60462 7.18158 6.89913
#
# Compressibility (1/GPa) = 0.02006855
#
# Stress axis : x y z
#
# Youngs Moduli (GPa) = 58.35437 33.90518 59.79107
#
# Poissons Ratio (x) = 0.14207 0.42642
# Poissons Ratio (y) = 0.24451 0.61714
# Poissons Ratio (z) = 0.41617 0.34996
#
# Static dielectric constant tensor:
#      x y z
#    x 3.191900 0.000000 0.000000 
#    y 0.000000 3.116170 0.000000 
#    z 0.000000 0.000000 3.071140 
# 
# 
# High freq. dielectric constant tensor:
#      x y z
#    x 1.664010 0.000000 0.000000 
#    y 0.000000 1.630070 0.000000 
#    z 0.000000 0.000000 1.650840 
# 
# From -- ./inp_files/63795.got.cif
#   From: 2010.06.25/outbox.cif.g09.slc.cpg/sg71_32_cif.got.tgz:63795.got - 2010.06.28 04:59:45.
