data_PCOD8287497
_publ_section_title
;
Structure prediction by ZEFSAII (Michael W. Deem and Ramdas Pophale) SiO2 
 PCOD8287497
Probable space group: I M M M
;
_chemical_formula_sum "Si O2"
_cell_formula_units_Z 96
_cell_length_a 23.458855
_cell_length_b 25.797374
_cell_length_c 9.115940
_cell_angle_alpha 90.000000
_cell_angle_beta 90.000000
_cell_angle_gamma 90.000000
_cell_volume 5516.755909
_symmetry_space_group_name_H-M "I M M M"
_symmetry_group_IT_number 71
_symmetry_cell_setting 'orthorhombic'
loop_
_space_group_symop_operation_xyz
x,y,z
-x,-y,z
x,-y,-z
-x,y,-z
-x,-y,-z
x,y,-z
-x,y,z
x,-y,z
1/2+x,1/2+y,1/2+z
1/2-x,1/2-y,1/2+z
1/2+x,1/2-y,1/2-z
1/2-x,1/2+y,1/2-z
1/2-x,1/2-y,1/2-z
1/2+x,1/2+y,1/2-z
1/2-x,1/2+y,1/2+z
1/2+x,1/2-y,1/2+z
loop_
_atom_site_type_symbol
_atom_site_label
_atom_site_fract_x
_atom_site_fract_y
_atom_site_fract_z
Si Si1 0.754674 0.940254 0.828141
Si Si2 0.436183 0.500000 0.825803
Si Si3 0.063968 0.806608 0.325643
Si Si4 0.067222 0.500000 0.168185
Si Si5 0.136192 0.097616 0.325529
Si Si6 0.063644 0.307969 0.326025
Si Si7 0.628777 0.092231 0.827164
O O1 0.801457 0.907250 0.742540
O O2 0.694544 0.914873 0.785382
O O3 0.755249 0.000000 0.776302
O O4 0.766655 0.936240 0.000000
O O5 0.500000 0.500000 0.759913
O O6 0.403060 0.449475 0.768986
O O7 0.439248 0.500000 0.000000
O O8 0.063888 0.808962 0.500000
O O9 0.108047 0.849317 0.265350
O O10 0.082704 0.749247 0.270368
O O11 0.000000 0.819114 0.269089
O O12 0.090675 0.550717 0.245657
O O13 0.000000 0.500000 0.184222
O O14 0.086983 0.500000 0.000000
O O15 0.141811 0.097072 0.500000
O O16 0.061794 0.307294 0.500000
O O17 0.108531 0.351043 0.271800
O O18 0.000000 0.320862 0.266669
O O19 0.619261 0.084526 0.000000
#
# Coordination Sequence:
#
# PCOD8287497 Si02
#       7
#    16   8  16   8  16  16  16
#     4  10  20  34  48  65  94 130 164 201 244 282
#     4   9  16  25  41  68  94 115 148 195 238 279
#     4   8  14  26  46  74 103 125 151 198 253 291
#     4  11  23  34  47  74 108 131 150 193 256 303
#     4  10  18  29  48  72  96 125 161 196 237 293
#     4   8  14  26  48  76  99 120 154 203 249 283
#     4  10  19  34  54  73  93 127 174 207 233 281
#
# _framework density 17.401532
#
# number of rings (size 3 to 8) (size 9 to 14) (size 15 to 20)
#    0.000    2.667    1.667    2.250    0.000    4.000 
#    0.000    0.833    0.000    3.500    0.000    2.333 
#    0.000    0.000    0.000    0.000    0.000    0.000 
#
# Total GULP energy -595055.687049 kJ/mol
# GULP energy per Si atom -12396.993480 kJ/mol
# Density = 1.736193 g / cm^3
# Si number density = 17.401532 Si / 1000 Ang^3
#
#
#
# Elastic Constant Matrix: (Units=GPa)
#
#
# Indices 1 2 3 4 5 6 
#
# 1 130.2847 91.2662 29.5503 0.0000 0.0000 0.0000
# 2 91.2662 167.8052 26.5867 0.0000 0.0000 0.0000
# 3 29.5503 26.5867 22.4371 0.0000 0.0000 0.0000
# 4 0.0000 0.0000 0.0000 5.4167 0.0000 0.0000
# 5 0.0000 0.0000 0.0000 0.0000 21.8769 0.0000
# 6 0.0000 0.0000 0.0000 0.0000 0.0000 25.6653
#
#
#
# Elastic Compliance Matrix: (Units=1/GPa)
#
#
# Indices 1 2 3 4 5 6 
#
# 1 0.014673 -0.006056 -0.012149 0.000000 0.000000 0.000000
# 2 -0.006056 0.009836 -0.003680 0.000000 0.000000 0.000000
# 3 -0.012149 -0.003680 0.064930 0.000000 0.000000 0.000000
# 4 0.000000 0.000000 0.000000 0.184615 0.000000 0.000000
# 5 0.000000 0.000000 0.000000 0.000000 0.045710 0.000000
# 6 0.000000 0.000000 0.000000 0.000000 0.000000 0.038963
#
#
# Mechanical properties :
#
#
# Convention : Reuss Voigt Hill
#
# Bulk Modulus (GPa) = 21.89621 68.37038 45.13329
# Shear Modulus (GPa) = 11.96975 22.13337 17.05156
#
# Velocity S-wave (km/s) = 2.62555 3.57027 3.13371
# Velocity P-wave (km/s) = 4.66921 7.50806 6.25190
#
# Compressibility (1/GPa) = 0.04567001
#
# Stress axis : x y z
#
# Youngs Moduli (GPa) = 68.15186 101.66994 15.40117
#
# Poissons Ratio (x) = 0.61566 0.18712
# Poissons Ratio (y) = 0.41269 0.05667
# Poissons Ratio (z) = 0.82801 0.37410
#
# Static dielectric constant tensor:
#      x y z
#    x 3.315330 0.000000 0.000000 
#    y 0.000000 3.605130 0.000000 
#    z 0.000000 0.000000 2.798950 
# 
# 
# High freq. dielectric constant tensor:
#      x y z
#    x 1.674560 0.000000 0.000000 
#    y 0.000000 1.681450 0.000000 
#    z 0.000000 0.000000 1.623470 
# 
# From -- ./inp_files/12911.got.cif
#   From: 2010.06.25/outbox.cif.g09.slc.cpg/sg71_7_cif.got.tgz:12911.got - 2010.06.28 04:59:45.
