data_PCOD8287869
_publ_section_title
;
Structure prediction by ZEFSAII (Michael W. Deem and Ramdas Pophale) SiO2 
 PCOD8287869
Probable space group: I M M M
;
_chemical_formula_sum "Si O2"
_cell_formula_units_Z 96
_cell_length_a 8.776399
_cell_length_b 20.465750
_cell_length_c 28.656449
_cell_angle_alpha 90.000000
_cell_angle_beta 90.000000
_cell_angle_gamma 90.000000
_cell_volume 5147.144932
_symmetry_space_group_name_H-M "I M M M"
_symmetry_group_IT_number 71
_symmetry_cell_setting 'orthorhombic'
loop_
_space_group_symop_operation_xyz
x,y,z
-x,-y,z
x,-y,-z
-x,y,-z
-x,-y,-z
x,y,-z
-x,y,z
x,-y,z
1/2+x,1/2+y,1/2+z
1/2-x,1/2-y,1/2+z
1/2+x,1/2-y,1/2-z
1/2-x,1/2+y,1/2-z
1/2-x,1/2-y,1/2-z
1/2+x,1/2+y,1/2-z
1/2-x,1/2+y,1/2+z
1/2+x,1/2-y,1/2+z
loop_
_atom_site_type_symbol
_atom_site_label
_atom_site_fract_x
_atom_site_fract_y
_atom_site_fract_z
Si Si1 0.674375 0.156363 0.709481
Si Si2 0.328730 0.790159 0.803528
Si Si3 0.819747 0.331026 0.946280
Si Si4 0.672314 0.068868 0.054668
Si Si5 0.321036 0.575572 0.129228
Si Si6 0.825478 0.300064 0.591139
O O1 0.500000 0.140394 0.697168
O O2 0.708185 0.152338 0.765489
O O3 0.708666 0.231533 0.697759
O O4 0.775253 0.107369 0.678797
O O5 0.500000 0.763320 0.793343
O O6 0.318399 0.818817 0.854785
O O7 0.755724 0.390205 0.915315
O O8 0.767957 0.263303 0.923417
O O9 0.000000 0.334272 0.944402
O O10 0.762249 0.337076 0.000000
O O11 0.500000 0.073516 0.074116
O O12 0.755759 0.136005 0.068807
O O13 0.745597 0.000000 0.073662
O O14 0.671607 0.064907 0.000000
O O15 0.500000 0.584137 0.123386
O O16 0.271417 0.500000 0.129569
O O17 0.000000 0.288758 0.574443
#
# Coordination Sequence:
#
# PCOD8287869 Si02
#       6
#    16  16  16  16  16  16
#     4  10  19  33  54  80 109 142 178 219 271 325
#     4   9  18  31  51  81 112 140 175 220 267 319
#     4  11  24  39  56  82 113 143 182 233 287 343
#     4   8  14  25  43  70 103 138 176 216 259 307
#     4  11  24  41  60  81 108 145 190 238 286 339
#     4  10  18  31  54  82 110 143 183 227 272 319
#
# _framework density 18.651115999999998
#
# number of rings (size 3 to 8) (size 9 to 14) (size 15 to 20)
#    0.000    2.167    1.667    2.500    0.000    4.333 
#    0.000    2.500    0.000    3.500    0.000    2.333 
#    0.000    0.000    0.000    0.000    0.000    0.000 
#
# Total GULP energy -594677.279942 kJ/mol
# GULP energy per Si atom -12389.109999 kJ/mol
# Density = 1.860867 g / cm^3
# Si number density = 18.651116 Si / 1000 Ang^3
#
#
#
# Elastic Constant Matrix: (Units=GPa)
#
#
# Indices 1 2 3 4 5 6 
#
# 1 50.4876 30.8920 34.1495 0.0000 0.0000 0.0000
# 2 30.8920 128.7207 67.0271 0.0000 0.0000 0.0000
# 3 34.1495 67.0271 122.2859 0.0000 0.0000 0.0000
# 4 0.0000 0.0000 0.0000 29.3039 0.0000 0.0000
# 5 0.0000 0.0000 0.0000 0.0000 22.5086 0.0000
# 6 0.0000 0.0000 0.0000 0.0000 0.0000 10.5035
#
#
#
# Elastic Compliance Matrix: (Units=1/GPa)
#
#
# Indices 1 2 3 4 5 6 
#
# 1 0.025420 -0.003364 -0.005255 0.000000 0.000000 0.000000
# 2 -0.003364 0.011317 -0.005264 0.000000 0.000000 0.000000
# 3 -0.005255 -0.005264 0.012530 0.000000 0.000000 0.000000
# 4 0.000000 0.000000 0.000000 0.034125 0.000000 0.000000
# 5 0.000000 0.000000 0.000000 0.000000 0.044427 0.000000
# 6 0.000000 0.000000 0.000000 0.000000 0.000000 0.095207
#
#
# Mechanical properties :
#
#
# Convention : Reuss Voigt Hill
#
# Bulk Modulus (GPa) = 46.50814 62.84795 54.67805
# Shear Modulus (GPa) = 19.38300 23.75825 21.57063
#
# Velocity S-wave (km/s) = 3.22722 3.57294 3.40447
# Velocity P-wave (km/s) = 6.23511 7.12678 6.69580
#
# Compressibility (1/GPa) = 0.02150161
#
# Stress axis : x y z
#
# Youngs Moduli (GPa) = 39.33980 88.36281 79.80856
#
# Poissons Ratio (x) = 0.29728 0.41936
# Poissons Ratio (y) = 0.13235 0.42007
# Poissons Ratio (z) = 0.20672 0.46510
#
# Static dielectric constant tensor:
#      x y z
#    x 3.357340 0.000000 0.000000 
#    y 0.000000 3.502210 0.000000 
#    z 0.000000 0.000000 3.727540 
# 
# 
# High freq. dielectric constant tensor:
#      x y z
#    x 1.705400 0.000000 0.000000 
#    y 0.000000 1.714640 0.000000 
#    z 0.000000 0.000000 1.733720 
# 
# From -- ./inp_files/63212.got.cif
#   From: 2010.06.25/outbox.cif.g09.slc.cpg/sg71_32_cif.got.tgz:63212.got - 2010.06.28 04:59:45.
