data_PCOD8287099
_publ_section_title
;
Structure prediction by ZEFSAII (Michael W. Deem and Ramdas Pophale) SiO2 
 PCOD8287099
Probable space group: I M M M
;
_chemical_formula_sum "Si O2"
_cell_formula_units_Z 128
_cell_length_a 18.790749
_cell_length_b 19.585248
_cell_length_c 20.832147
_cell_angle_alpha 90.000000
_cell_angle_beta 90.000000
_cell_angle_gamma 90.000000
_cell_volume 7666.677555
_symmetry_space_group_name_H-M "I M M M"
_symmetry_group_IT_number 71
_symmetry_cell_setting 'orthorhombic'
loop_
_space_group_symop_operation_xyz
x,y,z
-x,-y,z
x,-y,-z
-x,y,-z
-x,-y,-z
x,y,-z
-x,y,z
x,-y,z
1/2+x,1/2+y,1/2+z
1/2-x,1/2-y,1/2+z
1/2+x,1/2-y,1/2-z
1/2-x,1/2+y,1/2-z
1/2-x,1/2-y,1/2-z
1/2+x,1/2+y,1/2-z
1/2-x,1/2+y,1/2+z
1/2+x,1/2-y,1/2+z
loop_
_atom_site_type_symbol
_atom_site_label
_atom_site_fract_x
_atom_site_fract_y
_atom_site_fract_z
Si Si1 0.419148 0.282488 0.425566
Si Si2 0.418888 0.579943 0.816859
Si Si3 0.854145 0.925194 0.926926
Si Si4 0.215543 0.148691 0.740052
Si Si5 0.710847 0.924272 0.152885
Si Si6 0.581518 0.319838 0.928881
Si Si7 0.294554 0.242695 0.652529
Si Si8 0.826450 0.694266 0.424350
O O1 0.402919 0.267431 0.500000
O O2 0.500000 0.265191 0.408431
O O3 0.406562 0.362954 0.409247
O O4 0.371418 0.232231 0.380850
O O5 0.500000 0.595852 0.792448
O O6 0.407641 0.500000 0.825687
O O7 0.358782 0.608563 0.769332
O O8 0.405536 0.614054 0.885834
O O9 0.785825 0.922011 0.882644
O O10 0.891796 0.000000 0.917154
O O11 0.827631 0.917804 0.000000
O O12 0.274201 0.101199 0.774737
O O13 0.253210 0.173234 0.673259
O O14 0.195438 0.213613 0.783049
O O15 0.655400 0.875293 0.114762
O O16 0.677831 0.000000 0.154748
O O17 0.500000 0.298951 0.931612
O O18 0.620292 0.253161 0.900773
O O19 0.610934 0.337168 0.000000
O O20 0.252243 0.283375 0.597196
O O21 0.830428 0.680766 0.500000
#
# Coordination Sequence:
#
# PCOD8287099 Si02
#       8
#    16  16  16  16  16  16  16  16
#     4  10  19  31  47  68  96 126 157 203 254 289
#     4  10  20  33  49  71 101 133 162 194 234 283
#     4   9  16  27  42  62  92 129 165 196 229 278
#     4  10  19  32  47  65  94 133 169 200 236 278
#     4  10  19  30  47  70  96 125 163 206 245 284
#     4   9  18  32  50  72  96 124 157 193 238 291
#     4  10  19  31  48  67  93 125 169 209 238 278
#     4  10  17  29  51  72  93 123 161 204 245 288
#
# _framework density 16.695627999999999
#
# number of rings (size 3 to 8) (size 9 to 14) (size 15 to 20)
#    0.000    2.250    3.750    1.125    0.000    1.750 
#    0.000    2.500    0.000    0.375    0.000    1.750 
#    0.000    1.500    0.000    5.500    0.000    0.000 
#
# Total GULP energy -793169.446808 kJ/mol
# GULP energy per Si atom -12393.272606 kJ/mol
# Density = 1.665763 g / cm^3
# Si number density = 16.695628 Si / 1000 Ang^3
#
#
#
# Elastic Constant Matrix: (Units=GPa)
#
#
# Indices 1 2 3 4 5 6 
#
# 1 60.2938 37.1829 26.6183 0.0000 0.0000 0.0000
# 2 37.1829 93.4226 36.0369 0.0000 0.0000 0.0000
# 3 26.6183 36.0369 56.0606 0.0000 0.0000 0.0000
# 4 0.0000 0.0000 0.0000 20.2845 0.0000 0.0000
# 5 0.0000 0.0000 0.0000 0.0000 22.9016 0.0000
# 6 0.0000 0.0000 0.0000 0.0000 0.0000 25.6252
#
#
#
# Elastic Compliance Matrix: (Units=1/GPa)
#
#
# Indices 1 2 3 4 5 6 
#
# 1 0.023855 -0.006815 -0.006946 0.000000 0.000000 0.000000
# 2 -0.006815 0.016180 -0.007165 0.000000 0.000000 0.000000
# 3 -0.006946 -0.007165 0.025742 0.000000 0.000000 0.000000
# 4 0.000000 0.000000 0.000000 0.049299 0.000000 0.000000
# 5 0.000000 0.000000 0.000000 0.000000 0.043665 0.000000
# 6 0.000000 0.000000 0.000000 0.000000 0.000000 0.039024
#
#
# Mechanical properties :
#
#
# Convention : Reuss Voigt Hill
#
# Bulk Modulus (GPa) = 41.79751 45.49480 43.64615
# Shear Modulus (GPa) = 20.19458 21.09153 20.64306
#
# Velocity S-wave (km/s) = 3.48166 3.55814 3.52011
# Velocity P-wave (km/s) = 6.42277 6.64750 6.53610
#
# Compressibility (1/GPa) = 0.02392487
#
# Stress axis : x y z
#
# Youngs Moduli (GPa) = 41.92056 61.80307 38.84757
#
# Poissons Ratio (x) = 0.42120 0.26982
# Poissons Ratio (y) = 0.28569 0.27835
# Poissons Ratio (z) = 0.29116 0.44283
#
# Static dielectric constant tensor:
#      x y z
#    x 3.019730 0.000000 0.000000 
#    y 0.000000 3.302540 0.000000 
#    z 0.000000 0.000000 3.217660 
# 
# 
# High freq. dielectric constant tensor:
#      x y z
#    x 1.615530 0.000000 0.000000 
#    y 0.000000 1.628920 0.000000 
#    z 0.000000 0.000000 1.645350 
# 
# From -- ./inp_files/60918.got.cif
#   From: 2010.06.25/outbox.cif.g09.slc.cpg/sg71_31_cif.got.tgz:60918.got - 2010.06.28 04:59:45.
