data_PCOD8287183
_publ_section_title
;
Structure prediction by ZEFSAII (Michael W. Deem and Ramdas Pophale) SiO2 
 PCOD8287183
Probable space group: I M M M
;
_chemical_formula_sum "Si O2"
_cell_formula_units_Z 120
_cell_length_a 20.791803
_cell_length_b 25.513661
_cell_length_c 15.712580
_cell_angle_alpha 90.000000
_cell_angle_beta 90.000000
_cell_angle_gamma 90.000000
_cell_volume 8335.131085
_symmetry_space_group_name_H-M "I M M M"
_symmetry_group_IT_number 71
_symmetry_cell_setting 'orthorhombic'
loop_
_space_group_symop_operation_xyz
x,y,z
-x,-y,z
x,-y,-z
-x,y,-z
-x,-y,-z
x,y,-z
-x,y,z
x,-y,z
1/2+x,1/2+y,1/2+z
1/2-x,1/2-y,1/2+z
1/2+x,1/2-y,1/2-z
1/2-x,1/2+y,1/2-z
1/2-x,1/2-y,1/2-z
1/2+x,1/2+y,1/2-z
1/2-x,1/2+y,1/2+z
1/2+x,1/2-y,1/2+z
loop_
_atom_site_type_symbol
_atom_site_label
_atom_site_fract_x
_atom_site_fract_y
_atom_site_fract_z
Si Si1 0.074913 0.733805 0.904256
Si Si2 0.118227 0.623962 0.653594
Si Si3 0.157310 0.630583 0.094622
Si Si4 0.727605 0.167376 0.252703
Si Si5 0.426358 0.061756 0.000000
Si Si6 0.927003 0.559148 0.810455
Si Si7 0.574471 0.763205 0.902683
Si Si8 0.850249 0.773891 0.753393
O O1 0.106867 0.677450 0.891717
O O2 0.101838 0.774757 0.834322
O O3 0.000000 0.726389 0.887212
O O4 0.088280 0.755318 0.000000
O O5 0.193446 0.635042 0.676048
O O6 0.113757 0.581131 0.580460
O O7 0.081827 0.600562 0.734627
O O8 0.082777 0.676683 0.624803
O O9 0.217428 0.636893 0.158316
O O10 0.119335 0.576534 0.112522
O O11 0.185834 0.629353 0.000000
O O12 0.803953 0.175055 0.238695
O O13 0.693451 0.223030 0.259279
O O14 0.500000 0.083356 0.000000
O O15 0.427451 0.000000 0.000000
O O16 0.909172 0.500000 0.781457
O O17 0.000000 0.561401 0.842564
O O18 0.500000 0.748114 0.897399
O O19 0.612616 0.725404 0.837265
O O20 0.599799 0.755445 0.000000
#
# Coordination Sequence:
#
# PCOD8287183 Si02
#       8
#    16  16  16  16   8  16  16  16
#     4   9  16  26  41  60  78 100 131 162 200 244
#     4  10  18  30  41  54  78 107 136 172 208 248
#     4   9  17  28  41  54  72 101 132 167 201 235
#     4   8  17  29  40  54  74  98 137 166 203 243
#     4  11  20  28  42  62  82 106 141 181 217 251
#     4  10  19  28  39  55  75 100 130 168 212 247
#     4  10  18  26  40  61  82 106 137 171 211 254
#     4   9  16  28  40  56  77 102 130 173 206 238
#
# _framework density 14.396895000000001
#
# number of rings (size 3 to 8) (size 9 to 14) (size 15 to 20)
#    0.000    2.600    0.667    3.200    0.000    2.667 
#    1.200    3.333    0.000    0.000    0.000    0.000 
#    0.000    0.000    0.000    0.000    0.000   69.333 
#
# Total GULP energy -743673.721486 kJ/mol
# GULP energy per Si atom -12394.562025 kJ/mol
# Density = 1.436413 g / cm^3
# Si number density = 14.396895 Si / 1000 Ang^3
#
#
#
# Elastic Constant Matrix: (Units=GPa)
#
#
# Indices 1 2 3 4 5 6 
#
# 1 54.1663 29.7415 32.5832 0.0000 0.0000 0.0000
# 2 29.7415 37.8260 25.2067 0.0000 0.0000 0.0000
# 3 32.5832 25.2067 96.1617 0.0000 0.0000 0.0000
# 4 0.0000 0.0000 0.0000 8.1501 0.0000 0.0000
# 5 0.0000 0.0000 0.0000 0.0000 16.4129 0.0000
# 6 0.0000 0.0000 0.0000 0.0000 0.0000 20.4833
#
#
#
# Elastic Compliance Matrix: (Units=1/GPa)
#
#
# Indices 1 2 3 4 5 6 
#
# 1 0.034809 -0.023639 -0.005598 0.000000 0.000000 0.000000
# 2 -0.023639 0.048085 -0.004595 0.000000 0.000000 0.000000
# 3 -0.005598 -0.004595 0.013500 0.000000 0.000000 0.000000
# 4 0.000000 0.000000 0.000000 0.122698 0.000000 0.000000
# 5 0.000000 0.000000 0.000000 0.000000 0.060928 0.000000
# 6 0.000000 0.000000 0.000000 0.000000 0.000000 0.048820
#
#
# Mechanical properties :
#
#
# Convention : Reuss Voigt Hill
#
# Bulk Modulus (GPa) = 34.80543 40.35741 37.58142
# Shear Modulus (GPa) = 12.31284 15.71743 14.01514
#
# Velocity S-wave (km/s) = 2.92763 3.30771 3.12345
# Velocity P-wave (km/s) = 5.97127 6.53305 6.25847
#
# Compressibility (1/GPa) = 0.02873115
#
# Stress axis : x y z
#
# Youngs Moduli (GPa) = 28.72853 20.79644 74.07167
#
# Poissons Ratio (x) = 0.49160 0.41466
# Poissons Ratio (y) = 0.67910 0.34035
# Poissons Ratio (z) = 0.16083 0.09556
#
# Static dielectric constant tensor:
#      x y z
#    x 2.829880 0.000000 0.000000 
#    y 0.000000 2.621450 0.000000 
#    z 0.000000 0.000000 3.087450 
# 
# 
# High freq. dielectric constant tensor:
#      x y z
#    x 1.526730 0.000000 0.000000 
#    y 0.000000 1.504000 0.000000 
#    z 0.000000 0.000000 1.566200 
# 
# From -- ./inp_files/38572.got.cif
#   From: 2010.06.25/outbox.cif.g09.slc.cpg/sg71_20_cif.got.tgz:38572.got - 2010.06.28 04:59:45.
