data_PCOD8287204
_publ_section_title
;
Structure prediction by ZEFSAII (Michael W. Deem and Ramdas Pophale) SiO2 
 PCOD8287204
Probable space group: I M M M
;
_chemical_formula_sum "Si O2"
_cell_formula_units_Z 112
_cell_length_a 37.655896
_cell_length_b 9.110563
_cell_length_c 28.212714
_cell_angle_alpha 90.000000
_cell_angle_beta 90.000000
_cell_angle_gamma 90.000000
_cell_volume 9678.834588
_symmetry_space_group_name_H-M "I M M M"
_symmetry_group_IT_number 71
_symmetry_cell_setting 'orthorhombic'
loop_
_space_group_symop_operation_xyz
x,y,z
-x,-y,z
x,-y,-z
-x,y,-z
-x,-y,-z
x,y,-z
-x,y,z
x,-y,z
1/2+x,1/2+y,1/2+z
1/2-x,1/2-y,1/2+z
1/2+x,1/2-y,1/2-z
1/2-x,1/2+y,1/2-z
1/2-x,1/2-y,1/2-z
1/2+x,1/2+y,1/2-z
1/2-x,1/2+y,1/2+z
1/2+x,1/2-y,1/2+z
loop_
_atom_site_type_symbol
_atom_site_label
_atom_site_fract_x
_atom_site_fract_y
_atom_site_fract_z
Si Si1 0.734275 0.670657 0.896860
Si Si2 0.838435 0.827037 0.345450
Si Si3 0.540682 0.669838 0.945689
Si Si4 0.770369 0.164999 0.182905
Si Si5 0.604033 0.172212 0.905178
Si Si6 0.144920 0.668448 0.500000
Si Si7 0.718187 0.670655 0.000000
Si Si8 0.196372 0.334151 0.737312
O O1 0.741523 0.500000 0.887067
O O2 0.694195 0.710956 0.880738
O O3 0.763538 0.762125 0.868183
O O4 0.739409 0.713705 0.952198
O O5 0.874480 0.753593 0.363892
O O6 0.831117 0.759542 0.293739
O O7 0.843948 0.000000 0.340402
O O8 0.500000 0.694288 0.930708
O O9 0.551377 0.500000 0.940806
O O10 0.564154 0.765591 0.909360
O O11 0.546294 0.721820 0.000000
O O12 0.799933 0.257708 0.211320
O O13 0.734212 0.164432 0.212110
O O14 0.784500 0.000000 0.175415
O O15 0.603069 0.000000 0.894106
O O16 0.622375 0.211361 0.954528
O O17 0.155846 0.500000 0.500000
O O18 0.180362 0.757902 0.500000
O O19 0.710172 0.500000 0.000000
O O20 0.182206 0.500000 0.743880
#
# Coordination Sequence:
#
# PCOD8287204 Si02
#       8
#    16  16  16  16  16   8   8  16
#     4   9  17  26  36  49  65  85 109 134 161 192
#     4  10  18  27  39  53  68  86 107 130 159 196
#     4   9  18  31  44  55  66  83 108 135 162 195
#     4   9  16  25  37  50  64  83 106 129 156 190
#     4  11  20  29  39  54  71  87 106 131 164 200
#     4  10  20  28  35  49  68  87 106 130 162 198
#     4  10  18  28  38  49  65  88 114 137 162 196
#     4   9  16  26  38  51  67  83 102 129 158 189
#
# _framework density 11.571641
#
# number of rings (size 3 to 8) (size 9 to 14) (size 15 to 20)
#    0.000    2.429    2.143    2.143    0.000    5.429 
#    0.000    0.714    0.000    0.000    0.000    0.000 
#    0.000    0.000    0.000    0.000    0.000    0.000 
#
# Total GULP energy -694329.739447 kJ/mol
# GULP energy per Si atom -12398.745347 kJ/mol
# Density = 1.154530 g / cm^3
# Si number density = 11.571641 Si / 1000 Ang^3
#
#
#
# Elastic Constant Matrix: (Units=GPa)
#
#
# Indices 1 2 3 4 5 6 
#
# 1 42.0755 32.6969 34.7617 0.0000 0.0000 0.0000
# 2 32.6969 75.3841 42.3828 0.0000 0.0000 0.0000
# 3 34.7617 42.3828 72.2966 0.0000 0.0000 0.0000
# 4 0.0000 0.0000 0.0000 15.2735 0.0000 0.0000
# 5 0.0000 0.0000 0.0000 0.0000 16.9027 0.0000
# 6 0.0000 0.0000 0.0000 0.0000 0.0000 15.6107
#
#
#
# Elastic Compliance Matrix: (Units=1/GPa)
#
#
# Indices 1 2 3 4 5 6 
#
# 1 0.044725 -0.010902 -0.015114 0.000000 0.000000 0.000000
# 2 -0.010902 0.022444 -0.007916 0.000000 0.000000 0.000000
# 3 -0.015114 -0.007916 0.025740 0.000000 0.000000 0.000000
# 4 0.000000 0.000000 0.000000 0.065473 0.000000 0.000000
# 5 0.000000 0.000000 0.000000 0.000000 0.059162 0.000000
# 6 0.000000 0.000000 0.000000 0.000000 0.000000 0.064059
#
#
# Mechanical properties :
#
#
# Convention : Reuss Voigt Hill
#
# Bulk Modulus (GPa) = 39.92616 45.49321 42.70968
# Shear Modulus (GPa) = 13.97373 14.88503 14.42938
#
# Velocity S-wave (km/s) = 3.47880 3.59044 3.53506
# Velocity P-wave (km/s) = 7.12141 7.52251 7.32470
#
# Compressibility (1/GPa) = 0.02504624
#
# Stress axis : x y z
#
# Youngs Moduli (GPa) = 22.35884 44.55464 38.85066
#
# Poissons Ratio (x) = 0.48571 0.58718
# Poissons Ratio (y) = 0.24375 0.30754
# Poissons Ratio (z) = 0.33793 0.35269
#
# Static dielectric constant tensor:
#      x y z
#    x 2.126640 0.000000 0.000000 
#    y 0.000000 2.559070 0.000000 
#    z 0.000000 0.000000 2.408530 
# 
# 
# High freq. dielectric constant tensor:
#      x y z
#    x 1.390010 0.000000 0.000000 
#    y 0.000000 1.454140 0.000000 
#    z 0.000000 0.000000 1.417720 
# 
# From -- ./inp_files/71256.got.cif
#   From: 2010.06.25/outbox.cif.g09.slc.cpg/sg71_36_cif.got.tgz:71256.got - 2010.06.28 04:59:45.
