data_PCOD8287689
_publ_section_title
;
Structure prediction by ZEFSAII (Michael W. Deem and Ramdas Pophale) SiO2 
 PCOD8287689
Probable space group: I M M M
;
_chemical_formula_sum "Si O2"
_cell_formula_units_Z 120
_cell_length_a 30.107815
_cell_length_b 13.415385
_cell_length_c 17.065647
_cell_angle_alpha 90.000000
_cell_angle_beta 90.000000
_cell_angle_gamma 90.000000
_cell_volume 6892.950149
_symmetry_space_group_name_H-M "I M M M"
_symmetry_group_IT_number 71
_symmetry_cell_setting 'orthorhombic'
loop_
_space_group_symop_operation_xyz
x,y,z
-x,-y,z
x,-y,-z
-x,y,-z
-x,-y,-z
x,y,-z
-x,y,z
x,-y,z
1/2+x,1/2+y,1/2+z
1/2-x,1/2-y,1/2+z
1/2+x,1/2-y,1/2-z
1/2-x,1/2+y,1/2-z
1/2-x,1/2-y,1/2-z
1/2+x,1/2+y,1/2-z
1/2-x,1/2+y,1/2+z
1/2+x,1/2-y,1/2+z
loop_
_atom_site_type_symbol
_atom_site_label
_atom_site_fract_x
_atom_site_fract_y
_atom_site_fract_z
Si Si1 0.719553 0.385261 0.415269
Si Si2 0.050091 0.388691 0.796510
Si Si3 0.129617 0.112613 0.162810
Si Si4 0.390981 0.884594 0.855291
Si Si5 0.550518 0.287252 0.590452
Si Si6 0.325312 0.749790 0.779344
Si Si7 0.450152 0.117926 0.000000
Si Si8 0.752146 0.382593 0.245556
O O1 0.732607 0.334255 0.500000
O O2 0.731075 0.500000 0.423503
O O3 0.667011 0.368763 0.402779
O O4 0.745241 0.348959 0.337328
O O5 0.054956 0.500000 0.830123
O O6 0.083212 0.372241 0.725356
O O7 0.062223 0.316190 0.867363
O O8 0.000000 0.369954 0.765532
O O9 0.081487 0.125709 0.124205
O O10 0.136155 0.192104 0.232522
O O11 0.133523 0.000000 0.196272
O O12 0.348182 0.810748 0.851200
O O13 0.375971 0.000000 0.868887
O O14 0.422979 0.846370 0.924169
O O15 0.560243 0.269498 0.500000
O O16 0.500000 0.320959 0.605562
O O17 0.288176 0.666782 0.804666
O O18 0.299719 0.833068 0.724862
O O19 0.500000 0.164571 0.000000
O O20 0.454689 0.000000 0.000000
O O21 0.752419 0.500000 0.230495
#
# Coordination Sequence:
#
# PCOD8287689 Si02
#       8
#    16  16  16  16  16  16   8  16
#     4   8  14  26  44  66  92 125 159 190 236 295
#     4   9  17  30  48  69  97 133 169 205 244 290
#     4  10  19  32  49  70  98 131 170 211 252 295
#     4  10  18  30  50  76 104 132 167 207 251 303
#     4  10  20  32  47  71 103 136 170 206 245 290
#     4  10  18  31  49  71 100 128 168 207 251 305
#     4   9  18  32  50  76 111 143 165 199 260 320
#     4   9  18  31  48  71 100 130 163 206 255 305
#
# _framework density 17.409092000000001
#
# number of rings (size 3 to 8) (size 9 to 14) (size 15 to 20)
#    0.000    2.600    1.333    2.400    0.000    2.933 
#    1.200    2.000    0.000    0.000    0.000    1.867 
#    0.000    2.133    0.000    0.000    0.000    0.000 
#
# Total GULP energy -743294.764974 kJ/mol
# GULP energy per Si atom -12388.246083 kJ/mol
# Density = 1.736947 g / cm^3
# Si number density = 17.409092 Si / 1000 Ang^3
#
#
#
# Elastic Constant Matrix: (Units=GPa)
#
#
# Indices 1 2 3 4 5 6 
#
# 1 82.5026 40.8315 30.4965 0.0000 0.0000 0.0000
# 2 40.8315 95.3857 27.6560 0.0000 0.0000 0.0000
# 3 30.4965 27.6560 55.7565 0.0000 0.0000 0.0000
# 4 0.0000 0.0000 0.0000 16.9550 0.0000 0.0000
# 5 0.0000 0.0000 0.0000 0.0000 10.7001 0.0000
# 6 0.0000 0.0000 0.0000 0.0000 0.0000 30.7068
#
#
#
# Elastic Compliance Matrix: (Units=1/GPa)
#
#
# Indices 1 2 3 4 5 6 
#
# 1 0.017321 -0.005452 -0.006770 0.000000 0.000000 0.000000
# 2 -0.005452 0.013961 -0.003943 0.000000 0.000000 0.000000
# 3 -0.006770 -0.003943 0.023594 0.000000 0.000000 0.000000
# 4 0.000000 0.000000 0.000000 0.058980 0.000000 0.000000
# 5 0.000000 0.000000 0.000000 0.000000 0.093457 0.000000
# 6 0.000000 0.000000 0.000000 0.000000 0.000000 0.032566
#
#
# Mechanical properties :
#
#
# Convention : Reuss Voigt Hill
#
# Bulk Modulus (GPa) = 44.35236 47.95697 46.15467
# Shear Modulus (GPa) = 17.87482 20.64978 19.26230
#
# Velocity S-wave (km/s) = 3.20777 3.44779 3.32994
# Velocity P-wave (km/s) = 6.26511 6.59216 6.43071
#
# Compressibility (1/GPa) = 0.02254672
#
# Stress axis : x y z
#
# Youngs Moduli (GPa) = 57.73173 71.62976 42.38436
#
# Poissons Ratio (x) = 0.39052 0.28694
# Poissons Ratio (y) = 0.31475 0.16711
# Poissons Ratio (z) = 0.39084 0.28242
#
# Static dielectric constant tensor:
#      x y z
#    x 3.390530 0.000000 0.000000 
#    y 0.000000 3.187200 0.000000 
#    z 0.000000 0.000000 3.330740 
# 
# 
# High freq. dielectric constant tensor:
#      x y z
#    x 1.682350 0.000000 0.000000 
#    y 0.000000 1.658850 0.000000 
#    z 0.000000 0.000000 1.638330 
# 
# From -- ./inp_files/41145.got.cif
#   From: 2010.06.25/outbox.cif.g09.slc.cpg/sg71_21_cif.got.tgz:41145.got - 2010.06.28 04:59:45.
