data_PCOD8287969
_publ_section_title
;
Structure prediction by ZEFSAII (Michael W. Deem and Ramdas Pophale) SiO2 
 PCOD8287969
Probable space group: I M M M
;
_chemical_formula_sum "Si O2"
_cell_formula_units_Z 88
_cell_length_a 9.344649
_cell_length_b 27.392661
_cell_length_c 19.467571
_cell_angle_alpha 90.000000
_cell_angle_beta 90.000000
_cell_angle_gamma 90.000000
_cell_volume 4983.207636
_symmetry_space_group_name_H-M "I M M M"
_symmetry_group_IT_number 71
_symmetry_cell_setting 'orthorhombic'
loop_
_space_group_symop_operation_xyz
x,y,z
-x,-y,z
x,-y,-z
-x,y,-z
-x,-y,-z
x,y,-z
-x,y,z
x,-y,z
1/2+x,1/2+y,1/2+z
1/2-x,1/2-y,1/2+z
1/2+x,1/2-y,1/2-z
1/2-x,1/2+y,1/2-z
1/2-x,1/2-y,1/2-z
1/2+x,1/2+y,1/2-z
1/2-x,1/2+y,1/2+z
1/2+x,1/2-y,1/2+z
loop_
_atom_site_type_symbol
_atom_site_label
_atom_site_fract_x
_atom_site_fract_y
_atom_site_fract_z
Si Si1 0.834695 0.863103 0.421273
Si Si2 0.664452 0.191648 0.190461
Si Si3 0.666606 0.783038 0.345744
Si Si4 0.335579 0.555157 0.815550
Si Si5 0.830434 0.500000 0.576421
Si Si6 0.332636 0.918462 0.819838
O O1 0.807829 0.877104 0.500000
O O2 0.740290 0.816218 0.402946
O O3 0.784819 0.909406 0.376550
O O4 0.000000 0.850024 0.407391
O O5 0.500000 0.205765 0.176116
O O6 0.696315 0.192925 0.271709
O O7 0.765349 0.229178 0.150356
O O8 0.701722 0.137807 0.162787
O O9 0.500000 0.778561 0.362427
O O10 0.500000 0.564968 0.796360
O O11 0.312107 0.500000 0.841594
O O12 0.244452 0.564450 0.748337
O O13 0.762306 0.500000 0.500000
O O14 0.778876 0.548486 0.616663
O O15 0.000000 0.500000 0.570623
O O16 0.500000 0.925875 0.806263
#
# Coordination Sequence:
#
# PCOD8287969 Si02
#       6
#    16  16  16  16   8  16
#     4  10  21  36  53  74 106 146 181 219 268 320
#     4   9  18  31  50  78 106 134 172 217 263 311
#     4  10  19  32  52  77 105 136 172 220 268 313
#     4  10  20  33  52  79 107 136 177 223 265 315
#     4   9  18  32  53  81 108 135 168 208 257 311
#     4  10  18  32  55  79 106 139 175 217 260 310
#
# _framework density 17.659309
#
# number of rings (size 3 to 8) (size 9 to 14) (size 15 to 20)
#    0.000    2.273    2.727    0.545    0.000    2.182 
#    0.000    2.727    0.000    4.364    0.000    2.545 
#    0.000    0.000    0.000    0.000    0.000    0.000 
#
# Total GULP energy -545684.048232 kJ/mol
# GULP energy per Si atom -12401.910187 kJ/mol
# Density = 1.761912 g / cm^3
# Si number density = 17.659309 Si / 1000 Ang^3
#
#
#
# Elastic Constant Matrix: (Units=GPa)
#
#
# Indices 1 2 3 4 5 6 
#
# 1 58.8057 51.4006 43.3673 0.0000 0.0000 0.0000
# 2 51.4006 144.9425 72.2194 0.0000 0.0000 0.0000
# 3 43.3673 72.2194 116.9670 0.0002 0.0000 0.0000
# 4 0.0000 0.0000 0.0002 28.1446 0.0000 0.0000
# 5 0.0000 0.0000 0.0000 0.0000 22.8938 0.0000
# 6 0.0000 0.0000 0.0000 0.0000 0.0000 24.1209
#
#
#
# Elastic Compliance Matrix: (Units=1/GPa)
#
#
# Indices 1 2 3 4 5 6 
#
# 1 0.027260 -0.006689 -0.005977 0.000000 0.000000 0.000000
# 2 -0.006689 0.011606 -0.004686 0.000000 0.000000 0.000000
# 3 -0.005977 -0.004686 0.013659 0.000000 0.000000 0.000000
# 4 0.000000 0.000000 0.000000 0.035531 0.000000 0.000000
# 5 0.000000 0.000000 0.000000 0.000000 0.043680 0.000000
# 6 0.000000 0.000000 0.000000 0.000000 0.000000 0.041458
#
#
# Mechanical properties :
#
#
# Convention : Reuss Voigt Hill
#
# Bulk Modulus (GPa) = 56.11430 72.74331 64.42881
# Shear Modulus (GPa) = 23.38226 25.28039 24.33133
#
# Velocity S-wave (km/s) = 3.64273 3.78770 3.71592
# Velocity P-wave (km/s) = 7.03830 7.77245 7.41447
#
# Compressibility (1/GPa) = 0.01782077
#
# Stress axis : x y z
#
# Youngs Moduli (GPa) = 36.68438 86.16045 73.21282
#
# Poissons Ratio (x) = 0.57632 0.43759
# Poissons Ratio (y) = 0.24538 0.34308
# Poissons Ratio (z) = 0.21926 0.40376
#
# Static dielectric constant tensor:
#      x y z
#    x 3.200030 0.000000 0.000000 
#    y 0.000000 3.516270 0.000000 
#    z 0.000000 0.000000 3.175090 
# 
# 
# High freq. dielectric constant tensor:
#      x y z
#    x 1.672840 0.000000 0.000000 
#    y 0.000000 1.696320 0.000000 
#    z 0.000000 0.000000 1.660560 
# 
# From -- ./inp_files/42432.got.cif
#   From: 2010.06.25/outbox.cif.g09.slc.cpg/sg71_22_cif.got.tgz:42432.got - 2010.06.28 04:59:45.
