data_PCOD8287302
_publ_section_title
;
Structure prediction by ZEFSAII (Michael W. Deem and Ramdas Pophale) SiO2 
 PCOD8287302
Probable space group: I M M M
;
_chemical_formula_sum "Si O2"
_cell_formula_units_Z 104
_cell_length_a 9.005865
_cell_length_b 33.428405
_cell_length_c 20.071968
_cell_angle_alpha 90.000000
_cell_angle_beta 90.000000
_cell_angle_gamma 90.000000
_cell_volume 6042.700141
_symmetry_space_group_name_H-M "I M M M"
_symmetry_group_IT_number 71
_symmetry_cell_setting 'orthorhombic'
loop_
_space_group_symop_operation_xyz
x,y,z
-x,-y,z
x,-y,-z
-x,y,-z
-x,-y,-z
x,y,-z
-x,y,z
x,-y,z
1/2+x,1/2+y,1/2+z
1/2-x,1/2-y,1/2+z
1/2+x,1/2-y,1/2-z
1/2-x,1/2+y,1/2-z
1/2-x,1/2-y,1/2-z
1/2+x,1/2+y,1/2-z
1/2-x,1/2+y,1/2+z
1/2+x,1/2-y,1/2+z
loop_
_atom_site_type_symbol
_atom_site_label
_atom_site_fract_x
_atom_site_fract_y
_atom_site_fract_z
Si Si1 0.674624 0.904345 0.000000
Si Si2 0.176403 0.544642 0.000000
Si Si3 0.824060 0.312713 0.500000
Si Si4 0.328821 0.545958 0.764472
Si Si5 0.171729 0.826448 0.579012
Si Si6 0.675745 0.904820 0.374770
Si Si7 0.338091 0.749920 0.574133
Si Si8 0.828498 0.954528 0.889336
O O1 0.726695 0.858428 0.000000
O O2 0.732852 0.924836 0.933419
O O3 0.500000 0.907487 0.000000
O O4 0.234676 0.567415 0.065201
O O5 0.243852 0.500000 0.000000
O O6 0.000000 0.542902 0.000000
O O7 0.756153 0.291534 0.566930
O O8 0.000000 0.306857 0.500000
O O9 0.500000 0.553800 0.783080
O O10 0.286782 0.500000 0.779544
O O11 0.223099 0.574958 0.805861
O O12 0.299961 0.555889 0.687430
O O13 0.193205 0.832125 0.500000
O O14 0.251108 0.861650 0.618984
O O15 0.242228 0.785168 0.608073
O O16 0.000000 0.825929 0.598282
O O17 0.500000 0.899669 0.376748
O O18 0.369400 0.766068 0.500000
O O19 0.500000 0.743060 0.609478
O O20 0.000000 0.948889 0.907922
O O21 0.779786 0.000000 0.904497
#
# Coordination Sequence:
#
# PCOD8287302 Si02
#       8
#     8   8   8  16  16  16  16  16
#     4  11  22  32  50  83 114 133 158 202 246 291
#     4   9  18  29  39  56  85 119 155 198 249 295
#     4   9  17  29  43  67 104 137 159 187 239 295
#     4   9  19  36  53  69  93 128 171 213 253 303
#     4  10  18  28  44  65  94 127 161 203 251 295
#     4  11  20  30  46  67  95 127 165 212 255 297
#     4   8  15  26  43  65  92 123 159 198 237 282
#     4   9  19  36  56  75 100 136 171 204 247 300
#
# _framework density 17.210849
#
# number of rings (size 3 to 8) (size 9 to 14) (size 15 to 20)
#    0.462    2.077    0.769    3.231    0.000    4.615 
#    0.000    1.538    0.000    1.846    0.000    1.077 
#    0.000    0.000    0.000    0.000    0.000    0.000 
#
# Total GULP energy -644503.738479 kJ/mol
# GULP energy per Si atom -12394.302663 kJ/mol
# Density = 1.717168 g / cm^3
# Si number density = 17.210849 Si / 1000 Ang^3
#
#
#
# Elastic Constant Matrix: (Units=GPa)
#
#
# Indices 1 2 3 4 5 6 
#
# 1 96.9117 63.9209 32.9892 0.0000 0.0000 0.0000
# 2 63.9209 144.6768 48.0245 0.0000 0.0000 0.0000
# 3 32.9892 48.0245 59.3342 0.0002 0.0000 0.0000
# 4 0.0000 0.0000 0.0002 12.4457 0.0000 0.0000
# 5 0.0000 0.0000 0.0000 0.0000 23.0489 0.0000
# 6 0.0000 0.0000 0.0000 0.0000 0.0000 31.0055
#
#
#
# Elastic Compliance Matrix: (Units=1/GPa)
#
#
# Indices 1 2 3 4 5 6 
#
# 1 0.015272 -0.005372 -0.004143 0.000000 0.000000 0.000000
# 2 -0.005372 0.011341 -0.006192 0.000000 0.000000 0.000000
# 3 -0.004143 -0.006192 0.024169 0.000000 0.000000 0.000000
# 4 0.000000 0.000000 0.000000 0.080349 0.000000 0.000000
# 5 0.000000 0.000000 0.000000 0.000000 0.043386 0.000000
# 6 0.000000 0.000000 0.000000 0.000000 0.000000 0.032252
#
#
# Mechanical properties :
#
#
# Convention : Reuss Voigt Hill
#
# Bulk Modulus (GPa) = 51.63354 65.64356 58.63855
# Shear Modulus (GPa) = 20.43805 23.69922 22.06864
#
# Velocity S-wave (km/s) = 3.44976 3.71481 3.58474
# Velocity P-wave (km/s) = 6.77743 7.52485 7.16090
#
# Compressibility (1/GPa) = 0.01936725
#
# Stress axis : x y z
#
# Youngs Moduli (GPa) = 65.47719 88.17479 41.37507
#
# Poissons Ratio (x) = 0.47371 0.17141
# Poissons Ratio (y) = 0.35177 0.25621
# Poissons Ratio (z) = 0.27127 0.54601
#
# Static dielectric constant tensor:
#      x y z
#    x 3.216610 0.000000 0.000000 
#    y 0.000000 3.210790 0.000000 
#    z 0.000000 0.000000 2.849970 
# 
# 
# High freq. dielectric constant tensor:
#      x y z
#    x 1.670210 0.000000 0.000000 
#    y 0.000000 1.666230 0.000000 
#    z 0.000000 0.000000 1.620220 
# 
# From -- ./inp_files/51220.got.cif
#   From: 2010.06.25/outbox.cif.g09.slc.cpg/sg71_26_cif.got.tgz:51220.got - 2010.06.28 04:59:45.
