data_PCOD8287581
_publ_section_title
;
Structure prediction by ZEFSAII (Michael W. Deem and Ramdas Pophale) SiO2 
 PCOD8287581
Probable space group: I M M M
;
_chemical_formula_sum "Si O2"
_cell_formula_units_Z 96
_cell_length_a 27.284140
_cell_length_b 22.297615
_cell_length_c 8.609505
_cell_angle_alpha 90.000000
_cell_angle_beta 90.000000
_cell_angle_gamma 90.000000
_cell_volume 5237.775313
_symmetry_space_group_name_H-M "I M M M"
_symmetry_group_IT_number 71
_symmetry_cell_setting 'orthorhombic'
loop_
_space_group_symop_operation_xyz
x,y,z
-x,-y,z
x,-y,-z
-x,y,-z
-x,-y,-z
x,y,-z
-x,y,z
x,-y,z
1/2+x,1/2+y,1/2+z
1/2-x,1/2-y,1/2+z
1/2+x,1/2-y,1/2-z
1/2-x,1/2+y,1/2-z
1/2-x,1/2-y,1/2-z
1/2+x,1/2+y,1/2-z
1/2-x,1/2+y,1/2+z
1/2+x,1/2-y,1/2+z
loop_
_atom_site_type_symbol
_atom_site_label
_atom_site_fract_x
_atom_site_fract_y
_atom_site_fract_z
Si Si1 0.591935 0.643080 0.684734
Si Si2 0.945030 0.500000 0.314852
Si Si3 0.182755 0.067551 0.815318
Si Si4 0.390312 0.882659 0.184977
Si Si5 0.555886 0.235320 0.184466
Si Si6 0.709287 0.067343 0.815473
Si Si7 0.500000 0.567006 0.684571
O O1 0.591441 0.648167 0.500000
O O2 0.642187 0.613645 0.748821
O O3 0.586752 0.708523 0.756289
O O4 0.547711 0.601651 0.745468
O O5 0.943887 0.500000 0.500000
O O6 0.918641 0.559314 0.250343
O O7 0.000000 0.500000 0.250736
O O8 0.236847 0.088748 0.757774
O O9 0.171975 0.000000 0.754755
O O10 0.180327 0.066947 0.000000
O O11 0.416286 0.823213 0.251479
O O12 0.333562 0.887667 0.242850
O O13 0.392696 0.881457 0.000000
O O14 0.500000 0.236743 0.248332
O O15 0.555359 0.234849 0.000000
O O16 0.698684 0.000000 0.753872
O O17 0.709006 0.065439 0.000000
O O18 0.500000 0.500000 0.754380
O O19 0.500000 0.564047 0.500000
#
# Coordination Sequence:
#
# PCOD8287581 Si02
#       7
#    16   8  16  16  16  16   8
#     4  10  18  30  47  67  89 116 150 184 221 267
#     4   9  14  20  34  58  85 111 147 192 226 257
#     4   8  14  24  42  67  90 109 138 185 234 269
#     4   9  15  24  39  60  87 119 150 181 223 267
#     4  10  20  32  44  61  91 127 154 179 218 267
#     4   8  12  21  38  62  90 115 139 178 232 275
#     4   9  16  26  45  69  87 104 139 190 230 257
#
# _framework density 18.328391
#
# number of rings (size 3 to 8) (size 9 to 14) (size 15 to 20)
#    0.000    3.000    1.667    2.000    0.000    4.000 
#    0.000    0.833    0.000    2.500    0.000    0.583 
#    0.000    3.333    0.000    0.000    0.000    0.000 
#
# Total GULP energy -594868.071497 kJ/mol
# GULP energy per Si atom -12393.084823 kJ/mol
# Density = 1.828667 g / cm^3
# Si number density = 18.328391 Si / 1000 Ang^3
#
#
#
# Elastic Constant Matrix: (Units=GPa)
#
#
# Indices 1 2 3 4 5 6 
#
# 1 188.6745 99.5235 8.1169 0.0000 0.0000 0.0000
# 2 99.5235 162.1288 7.4682 0.0000 0.0000 0.0000
# 3 8.1169 7.4682 3.9523 0.0000 0.0000 0.0000
# 4 0.0000 0.0000 0.0000 18.7823 0.0000 0.0000
# 5 0.0000 0.0000 0.0000 0.0000 7.2234 0.0000
# 6 0.0000 0.0000 0.0000 0.0000 0.0000 34.7026
#
#
#
# Elastic Compliance Matrix: (Units=1/GPa)
#
#
# Indices 1 2 3 4 5 6 
#
# 1 0.008057 -0.004582 -0.007887 0.000000 0.000000 0.000000
# 2 -0.004582 0.009362 -0.008280 0.000000 0.000000 0.000000
# 3 -0.007887 -0.008280 0.284861 0.000000 0.000000 0.000000
# 4 0.000000 0.000000 0.000000 0.053242 0.000000 0.000000
# 5 0.000000 0.000000 0.000000 0.000000 0.138439 0.000000
# 6 0.000000 0.000000 0.000000 0.000000 0.000000 0.028816
#
#
# Mechanical properties :
#
#
# Convention : Reuss Voigt Hill
#
# Bulk Modulus (GPa) = 3.83464 64.99696 34.41580
# Shear Modulus (GPa) = 7.67810 28.11813 17.89811
#
# Velocity S-wave (km/s) = 2.04897 3.92105 3.12833
# Velocity P-wave (km/s) = 2.77388 7.48591 5.64506
#
# Compressibility (1/GPa) = 0.26078080
#
# Stress axis : x y z
#
# Youngs Moduli (GPa) = 124.12325 106.81322 3.51048
#
# Poissons Ratio (x) = 0.48944 0.02769
# Poissons Ratio (y) = 0.56876 0.02907
# Poissons Ratio (z) = 0.97901 0.88440
#
# Static dielectric constant tensor:
#      x y z
#    x 3.883870 0.000000 0.000000 
#    y 0.000000 3.459780 0.000000 
#    z 0.000000 0.000000 2.633300 
# 
# 
# High freq. dielectric constant tensor:
#      x y z
#    x 1.728520 0.000000 0.000000 
#    y 0.000000 1.704590 0.000000 
#    z 0.000000 0.000000 1.634510 
# 
# From -- ./inp_files/27600.got.cif
#   From: 2010.06.25/outbox.cif.g09.slc.cpg/sg71_14_cif.got.tgz:27600.got - 2010.06.28 04:59:45.
