data_PCOD8287460
_publ_section_title
;
Structure prediction by ZEFSAII (Michael W. Deem and Ramdas Pophale) SiO2 
 PCOD8287460
Probable space group: I M M M
;
_chemical_formula_sum "Si O2"
_cell_formula_units_Z 112
_cell_length_a 18.344370
_cell_length_b 19.125815
_cell_length_c 18.588772
_cell_angle_alpha 90.000000
_cell_angle_beta 90.000000
_cell_angle_gamma 90.000000
_cell_volume 6521.889745
_symmetry_space_group_name_H-M "I M M M"
_symmetry_group_IT_number 71
_symmetry_cell_setting 'orthorhombic'
loop_
_space_group_symop_operation_xyz
x,y,z
-x,-y,z
x,-y,-z
-x,y,-z
-x,-y,-z
x,y,-z
-x,y,z
x,-y,z
1/2+x,1/2+y,1/2+z
1/2-x,1/2-y,1/2+z
1/2+x,1/2-y,1/2-z
1/2-x,1/2+y,1/2-z
1/2-x,1/2-y,1/2-z
1/2+x,1/2+y,1/2-z
1/2-x,1/2+y,1/2+z
1/2+x,1/2-y,1/2+z
loop_
_atom_site_type_symbol
_atom_site_label
_atom_site_fract_x
_atom_site_fract_y
_atom_site_fract_z
Si Si1 0.794846 0.712218 0.420110
Si Si2 0.855628 0.078745 0.721625
Si Si3 0.917641 0.198411 0.643709
Si Si4 0.222334 0.670865 0.732991
Si Si5 0.420705 0.791087 0.283782
Si Si6 0.416224 0.422346 0.624272
Si Si7 0.132287 0.778832 0.921738
O O1 0.803354 0.676963 0.500000
O O2 0.860928 0.767276 0.411926
O O3 0.795219 0.659184 0.352251
O O4 0.715403 0.749333 0.415822
O O5 0.895207 0.117758 0.655307
O O6 0.778843 0.114299 0.740411
O O7 0.908475 0.081398 0.789916
O O8 0.839894 0.000000 0.696509
O O9 0.910450 0.233049 0.722270
O O10 0.000000 0.204829 0.613151
O O11 0.250000 0.750000 0.750000
O O12 0.146314 0.655226 0.775109
O O13 0.500000 0.828035 0.276412
O O14 0.418570 0.754117 0.361176
O O15 0.500000 0.408008 0.604219
O O16 0.392428 0.500000 0.597303
O O17 0.366713 0.363496 0.586427
O O18 0.100375 0.758918 0.000000
#
# Coordination Sequence:
#
# PCOD8287460 Si02
#       7
#    16  16  16  16  16  16  16
#     4  10  19  31  49  72  96 127 169 213 253 295
#     4  11  19  29  50  77 100 130 170 208 245 298
#     4  10  18  31  50  70  96 129 164 209 256 299
#     4  11  16  33  53  69  95 130 166 207 248 296
#     4  10  18  29  47  69  91 121 162 203 248 295
#     4  10  19  29  40  59  92 133 171 199 231 288
#     4  11  19  28  43  64  96 131 160 200 248 288
#
# _framework density 17.172937000000001
#
# number of rings (size 3 to 8) (size 9 to 14) (size 15 to 20)
#    0.000    1.571    7.143    0.857    0.000    2.571 
#    0.000    0.714    0.000    1.286    0.000    1.000 
#    0.000    0.571    0.000   15.714    0.000    0.000 
#
# Total GULP energy -693857.549632 kJ/mol
# GULP energy per Si atom -12390.313386 kJ/mol
# Density = 1.713385 g / cm^3
# Si number density = 17.172937 Si / 1000 Ang^3
#
#
#
# Elastic Constant Matrix: (Units=GPa)
#
#
# Indices 1 2 3 4 5 6 
#
# 1 121.2707 28.0689 20.8635 0.0000 0.0000 0.0000
# 2 28.0689 39.8536 1.3161 0.0000 0.0000 0.0000
# 3 20.8635 1.3161 66.9628 0.0000 0.0000 0.0000
# 4 0.0000 0.0000 0.0000 13.8941 0.0000 0.0000
# 5 0.0000 0.0000 0.0000 0.0000 14.6133 0.0000
# 6 0.0000 0.0000 0.0000 0.0000 0.0000 18.1670
#
#
#
# Elastic Compliance Matrix: (Units=1/GPa)
#
#
# Indices 1 2 3 4 5 6 
#
# 1 0.010464 -0.007267 -0.003118 0.000000 0.000000 0.000000
# 2 -0.007267 0.030155 0.001672 0.000000 0.000000 0.000000
# 3 -0.003118 0.001672 0.015872 0.000000 0.000000 0.000000
# 4 0.000000 0.000000 0.000000 0.071973 0.000000 0.000000
# 5 0.000000 0.000000 0.000000 0.000000 0.068431 0.000000
# 6 0.000000 0.000000 0.000000 0.000000 0.000000 0.055045
#
#
# Mechanical properties :
#
#
# Convention : Reuss Voigt Hill
#
# Bulk Modulus (GPa) = 25.59826 36.50934 31.05380
# Shear Modulus (GPa) = 17.70615 21.19081 19.44848
#
# Velocity S-wave (km/s) = 3.21448 3.51659 3.36893
# Velocity P-wave (km/s) = 5.35870 6.14773 5.76673
#
# Compressibility (1/GPa) = 0.03906515
#
# Stress axis : x y z
#
# Youngs Moduli (GPa) = 95.56230 33.16216 63.00349
#
# Poissons Ratio (x) = 0.24099 0.19642
# Poissons Ratio (y) = 0.69446 -0.10531
# Poissons Ratio (z) = 0.29792 -0.05543
#
# Static dielectric constant tensor:
#      x y z
#    x 3.505480 0.000000 0.000000 
#    y 0.000000 2.901830 0.000000 
#    z 0.000000 0.000000 3.225130 
# 
# 
# High freq. dielectric constant tensor:
#      x y z
#    x 1.679180 0.000000 0.000000 
#    y 0.000000 1.599510 0.000000 
#    z 0.000000 0.000000 1.654980 
# 
# From -- ./inp_files/47542.got.cif
#   From: 2010.06.25/outbox.cif.g09.slc.cpg/sg71_24_cif.got.tgz:47542.got - 2010.06.28 04:59:45.
