data_PCOD8287404
_publ_section_title
;
Structure prediction by ZEFSAII (Michael W. Deem and Ramdas Pophale) SiO2 
 PCOD8287404
Probable space group: I M M M
;
_chemical_formula_sum "Si O2"
_cell_formula_units_Z 96
_cell_length_a 8.642877
_cell_length_b 26.310335
_cell_length_c 28.770982
_cell_angle_alpha 90.000000
_cell_angle_beta 90.000000
_cell_angle_gamma 90.000000
_cell_volume 6542.434684
_symmetry_space_group_name_H-M "I M M M"
_symmetry_group_IT_number 71
_symmetry_cell_setting 'orthorhombic'
loop_
_space_group_symop_operation_xyz
x,y,z
-x,-y,z
x,-y,-z
-x,y,-z
-x,-y,-z
x,y,-z
-x,y,z
x,-y,z
1/2+x,1/2+y,1/2+z
1/2-x,1/2-y,1/2+z
1/2+x,1/2-y,1/2-z
1/2-x,1/2+y,1/2-z
1/2-x,1/2-y,1/2-z
1/2+x,1/2+y,1/2-z
1/2-x,1/2+y,1/2+z
1/2+x,1/2-y,1/2+z
loop_
_atom_site_type_symbol
_atom_site_label
_atom_site_fract_x
_atom_site_fract_y
_atom_site_fract_z
Si Si1 0.181498 0.649575 0.805015
Si Si2 0.823825 0.112057 0.551529
Si Si3 0.320370 0.781150 0.552145
Si Si4 0.681248 0.253921 0.856348
Si Si5 0.820144 0.057653 0.643734
Si Si6 0.316741 0.298816 0.275805
O O1 0.260898 0.691422 0.838018
O O2 0.219012 0.593550 0.823362
O O3 0.246145 0.653094 0.751954
O O4 0.000000 0.659756 0.805345
O O5 0.798395 0.088582 0.500000
O O6 0.711034 0.159314 0.559600
O O7 0.786226 0.069186 0.589486
O O8 0.000000 0.131927 0.557158
O O9 0.270654 0.764622 0.500000
O O10 0.500000 0.771088 0.560746
O O11 0.224226 0.748233 0.589372
O O12 0.500000 0.250519 0.848847
O O13 0.760148 0.206435 0.829092
O O14 0.000000 0.066244 0.655239
O O15 0.769400 0.000000 0.653568
O O16 0.500000 0.300823 0.273579
O O17 0.250000 0.250000 0.250000
#
# Coordination Sequence:
#
# PCOD8287404 Si02
#       6
#    16  16  16  16  16  16
#     4  11  20  31  45  61  82 106 134 170 212 253
#     4   9  17  29  44  59  76 102 136 175 218 261
#     4  10  19  29  42  61  84 110 139 172 210 250
#     4  11  19  29  45  64  85 107 135 167 205 250
#     4  10  20  32  45  61  81 107 139 176 219 263
#     4  10  18  29  45  64  84 104 129 162 205 249
#
# _framework density 14.673437
#
# number of rings (size 3 to 8) (size 9 to 14) (size 15 to 20)
#    0.000    1.833    1.667    7.000    0.000    1.667 
#    0.000    1.667    0.000    0.000    0.000    3.500 
#    0.000    0.000    0.000    0.000    0.000    0.833 
#
# Total GULP energy -595083.091257 kJ/mol
# GULP energy per Si atom -12397.564401 kJ/mol
# Density = 1.464004 g / cm^3
# Si number density = 14.673437 Si / 1000 Ang^3
#
#
#
# Elastic Constant Matrix: (Units=GPa)
#
#
# Indices 1 2 3 4 5 6 
#
# 1 91.2337 21.3649 38.8548 0.0000 0.0000 0.0000
# 2 21.3649 44.4309 45.0152 0.0000 0.0000 0.0000
# 3 38.8548 45.0152 99.5043 0.0000 0.0000 0.0000
# 4 0.0000 0.0000 0.0000 21.1130 0.0000 0.0000
# 5 0.0000 0.0000 0.0000 0.0000 23.8912 0.0000
# 6 0.0000 0.0000 0.0000 0.0000 0.0000 16.3220
#
#
#
# Elastic Compliance Matrix: (Units=1/GPa)
#
#
# Indices 1 2 3 4 5 6 
#
# 1 0.013251 -0.002085 -0.004231 0.000000 0.000000 0.000000
# 2 -0.002085 0.041880 -0.018132 0.000000 0.000000 0.000000
# 3 -0.004231 -0.018132 0.019905 0.000000 0.000000 0.000000
# 4 0.000000 0.000000 0.000000 0.047364 0.000000 0.000000
# 5 0.000000 0.000000 0.000000 0.000000 0.041856 0.000000
# 6 0.000000 0.000000 0.000000 0.000000 0.000000 0.061267
#
#
# Mechanical properties :
#
#
# Convention : Reuss Voigt Hill
#
# Bulk Modulus (GPa) = 38.25650 49.51540 43.88595
# Shear Modulus (GPa) = 17.65955 20.92751 19.29353
#
# Velocity S-wave (km/s) = 3.47292 3.78063 3.63004
# Velocity P-wave (km/s) = 6.49693 7.27157 6.89514
#
# Compressibility (1/GPa) = 0.02613935
#
# Stress axis : x y z
#
# Youngs Moduli (GPa) = 75.46554 23.87775 50.23932
#
# Poissons Ratio (x) = 0.04979 0.21256
# Poissons Ratio (y) = 0.15737 0.91094
# Poissons Ratio (z) = 0.31929 0.43295
#
# Static dielectric constant tensor:
#      x y z
#    x 2.917980 0.000000 0.000000 
#    y 0.000000 2.568270 0.000000 
#    z 0.000000 0.000000 3.365750 
# 
# 
# High freq. dielectric constant tensor:
#      x y z
#    x 1.576670 0.000000 0.000000 
#    y 0.000000 1.497720 0.000000 
#    z 0.000000 0.000000 1.564610 
# 
# From -- ./inp_files/15435.got.cif
#   From: 2010.06.25/outbox.cif.g09.slc.cpg/sg71_8_cif.got.tgz:15435.got - 2010.06.28 04:59:45.
