data_PCOD8287685
_publ_section_title
;
Structure prediction by ZEFSAII (Michael W. Deem and Ramdas Pophale) SiO2 
 PCOD8287685
Probable space group: I M M M
;
_chemical_formula_sum "Si O2"
_cell_formula_units_Z 104
_cell_length_a 22.234961
_cell_length_b 9.105292
_cell_length_c 28.068756
_cell_angle_alpha 90.000000
_cell_angle_beta 90.000000
_cell_angle_gamma 90.000000
_cell_volume 5682.682802
_symmetry_space_group_name_H-M "I M M M"
_symmetry_group_IT_number 71
_symmetry_cell_setting 'orthorhombic'
loop_
_space_group_symop_operation_xyz
x,y,z
-x,-y,z
x,-y,-z
-x,y,-z
-x,-y,-z
x,y,-z
-x,y,z
x,-y,z
1/2+x,1/2+y,1/2+z
1/2-x,1/2-y,1/2+z
1/2+x,1/2-y,1/2-z
1/2-x,1/2+y,1/2-z
1/2-x,1/2-y,1/2-z
1/2+x,1/2+y,1/2-z
1/2-x,1/2+y,1/2+z
1/2+x,1/2-y,1/2+z
loop_
_atom_site_type_symbol
_atom_site_label
_atom_site_fract_x
_atom_site_fract_y
_atom_site_fract_z
Si Si1 0.840227 0.665761 0.500000
Si Si2 0.851548 0.333978 0.604035
Si Si3 0.500000 0.174066 0.445062
Si Si4 0.069051 0.160618 0.781569
Si Si5 0.397278 0.826928 0.628127
Si Si6 0.212278 0.172433 0.093513
Si Si7 0.279568 0.827640 0.500000
Si Si8 0.432870 0.672901 0.178173
O O1 0.810179 0.500000 0.500000
O O2 0.876944 0.682562 0.450617
O O3 0.790913 0.792739 0.500000
O O4 0.859436 0.500000 0.621841
O O5 0.781106 0.288964 0.606226
O O6 0.888901 0.230643 0.637700
O O7 0.500000 0.235966 0.500000
O O8 0.440844 0.225857 0.415364
O O9 0.500000 0.000000 0.447012
O O10 0.073962 0.285588 0.821307
O O11 0.095492 0.213520 0.730233
O O12 0.000000 0.134490 0.769643
O O13 0.096236 0.000000 0.797124
O O14 0.334030 0.740073 0.631223
O O15 0.386270 0.000000 0.625620
O O16 0.203189 0.000000 0.088035
O O17 0.190388 0.254312 0.045761
O O18 0.292420 0.000000 0.500000
O O19 0.500000 0.739781 0.170794
O O20 0.435352 0.500000 0.172316
#
# Coordination Sequence:
#
# PCOD8287685 Si02
#       8
#     8  16   8  16  16  16   8  16
#     4   8  16  32  51  73 107 144 174 207 256 311
#     4   9  18  34  55  78 106 141 178 219 262 310
#     4   9  20  36  51  75 115 147 168 217 278 311
#     4   9  18  35  56  75 101 139 176 216 270 325
#     4  11  21  34  55  81 106 139 182 224 269 316
#     4  10  21  36  52  74 108 145 179 218 266 319
#     4  10  18  30  50  76 100 134 182 222 257 302
#     4   9  19  35  56  81 107 136 173 219 271 322
#
# _framework density 18.301214999999999
#
# number of rings (size 3 to 8) (size 9 to 14) (size 15 to 20)
#    0.000    2.538    0.769    3.462    1.077    4.000 
#    0.000    2.692    0.000    4.154    0.000    0.000 
#    0.000    0.000    0.000    0.000    0.000    0.000 
#
# Total GULP energy -644252.130664 kJ/mol
# GULP energy per Si atom -12389.464051 kJ/mol
# Density = 1.825956 g / cm^3
# Si number density = 18.301215 Si / 1000 Ang^3
#
#
#
# Elastic Constant Matrix: (Units=GPa)
#
#
# Indices 1 2 3 4 5 6 
#
# 1 72.6004 37.7880 50.2418 0.0000 0.0000 0.0000
# 2 37.7880 75.3623 44.6322 0.0000 0.0000 0.0000
# 3 50.2418 44.6322 130.2577 0.0000 0.0000 0.0000
# 4 0.0000 0.0000 0.0000 33.9177 0.0000 0.0000
# 5 0.0000 0.0000 0.0000 0.0000 18.7478 0.0000
# 6 0.0000 0.0000 0.0000 0.0000 0.0000 26.7004
#
#
#
# Elastic Compliance Matrix: (Units=1/GPa)
#
#
# Indices 1 2 3 4 5 6 
#
# 1 0.021656 -0.007417 -0.005812 0.000000 0.000000 0.000000
# 2 -0.007417 0.019188 -0.003714 0.000000 0.000000 0.000000
# 3 -0.005812 -0.003714 0.011191 0.000000 0.000000 0.000000
# 4 0.000000 0.000000 0.000000 0.029483 0.000000 0.000000
# 5 0.000000 0.000000 0.000000 0.000000 0.053340 0.000000
# 6 0.000000 0.000000 0.000000 0.000000 0.000000 0.037453
#
#
# Mechanical properties :
#
#
# Convention : Reuss Voigt Hill
#
# Bulk Modulus (GPa) = 55.09529 60.39384 57.74457
# Shear Modulus (GPa) = 23.55759 25.57707 24.56733
#
# Velocity S-wave (km/s) = 3.59167 3.74245 3.66784
# Velocity P-wave (km/s) = 6.88260 7.19348 7.03976
#
# Compressibility (1/GPa) = 0.01815037
#
# Stress axis : x y z
#
# Youngs Moduli (GPa) = 46.17561 52.11680 89.35570
#
# Poissons Ratio (x) = 0.38655 0.51931
# Poissons Ratio (y) = 0.34249 0.33184
# Poissons Ratio (z) = 0.26836 0.19355
#
# Static dielectric constant tensor:
#      x y z
#    x 3.163340 0.000000 0.000000 
#    y 0.000000 3.191610 0.000000 
#    z 0.000000 0.000000 3.549580 
# 
# 
# High freq. dielectric constant tensor:
#      x y z
#    x 1.681730 0.000000 0.000000 
#    y 0.000000 1.702340 0.000000 
#    z 0.000000 0.000000 1.715990 
# 
# From -- ./inp_files/63613.got.cif
#   From: 2010.06.25/outbox.cif.g09.slc.cpg/sg71_32_cif.got.tgz:63613.got - 2010.06.28 04:59:45.
