data_PCOD8287586
_publ_section_title
;
Structure prediction by ZEFSAII (Michael W. Deem and Ramdas Pophale) SiO2 
 PCOD8287586
Probable space group: I M M M
;
_chemical_formula_sum "Si O2"
_cell_formula_units_Z 88
_cell_length_a 10.344438
_cell_length_b 18.079937
_cell_length_c 25.596985
_cell_angle_alpha 90.000000
_cell_angle_beta 90.000000
_cell_angle_gamma 90.000000
_cell_volume 4787.321870
_symmetry_space_group_name_H-M "I M M M"
_symmetry_group_IT_number 71
_symmetry_cell_setting 'orthorhombic'
loop_
_space_group_symop_operation_xyz
x,y,z
-x,-y,z
x,-y,-z
-x,y,-z
-x,-y,-z
x,y,-z
-x,y,z
x,-y,z
1/2+x,1/2+y,1/2+z
1/2-x,1/2-y,1/2+z
1/2+x,1/2-y,1/2-z
1/2-x,1/2+y,1/2-z
1/2-x,1/2-y,1/2-z
1/2+x,1/2+y,1/2-z
1/2-x,1/2+y,1/2+z
1/2+x,1/2-y,1/2+z
loop_
_atom_site_type_symbol
_atom_site_label
_atom_site_fract_x
_atom_site_fract_y
_atom_site_fract_z
Si Si1 0.348018 0.081669 0.153124
Si Si2 0.000000 0.917935 0.437974
Si Si3 0.655279 0.180200 0.252074
Si Si4 0.254682 0.838615 0.440118
Si Si5 0.149632 0.320146 0.441344
Si Si6 0.645148 0.081776 0.346921
O O1 0.500000 0.072493 0.150585
O O2 0.309142 0.132426 0.201406
O O3 0.299860 0.118716 0.099112
O O4 0.284481 0.000000 0.158368
O O5 0.124357 0.875088 0.417834
O O6 0.000000 0.918179 0.500000
O O7 0.000000 0.000000 0.414576
O O8 0.500000 0.200320 0.254241
O O9 0.750000 0.250000 0.250000
O O10 0.705463 0.132973 0.301731
O O11 0.285985 0.860853 0.500000
O O12 0.241643 0.750814 0.434568
O O13 0.360655 0.873642 0.401923
O O14 0.163991 0.351934 0.500000
O O15 0.000000 0.297285 0.430991
O O16 0.500000 0.067573 0.329159
O O17 0.712327 0.000000 0.351467
#
# Coordination Sequence:
#
# PCOD8287586 Si02
#       6
#    16   8  16  16  16  16
#     4   9  17  29  48  72  97 130 168 203 248 305
#     4   9  16  26  42  64  91 127 165 201 247 297
#     4  10  20  36  57  77 100 131 169 211 254 303
#     4  10  18  30  47  68  98 133 169 207 249 299
#     4   9  16  27  44  69 100 129 159 202 253 300
#     4  10  21  35  50  70  98 132 168 208 253 298
#
# _framework density 18.381883999999999
#
# number of rings (size 3 to 8) (size 9 to 14) (size 15 to 20)
#    0.000    2.455    0.909    2.182    0.000    4.000 
#    1.636    2.727    0.000    1.636    0.000    0.000 
#    0.000    0.000    0.000   15.636    0.000    3.091 
#
# Total GULP energy -545249.312401 kJ/mol
# GULP energy per Si atom -12392.029827 kJ/mol
# Density = 1.834005 g / cm^3
# Si number density = 18.381884 Si / 1000 Ang^3
#
#
#
# Elastic Constant Matrix: (Units=GPa)
#
#
# Indices 1 2 3 4 5 6 
#
# 1 31.4973 28.6671 18.0286 0.0000 0.0000 0.0000
# 2 28.6671 147.6887 82.7549 0.0000 0.0000 0.0000
# 3 18.0286 82.7549 144.7053 0.0000 0.0000 0.0000
# 4 0.0000 0.0000 0.0000 29.3635 0.0000 0.0000
# 5 0.0000 0.0000 0.0000 0.0000 20.1032 0.0000
# 6 0.0000 0.0000 0.0000 0.0000 0.0000 21.7774
#
#
#
# Elastic Compliance Matrix: (Units=1/GPa)
#
#
# Indices 1 2 3 4 5 6 
#
# 1 0.038620 -0.007064 -0.000772 0.000000 0.000000 0.000000
# 2 -0.007064 0.011256 -0.005557 0.000000 0.000000 0.000000
# 3 -0.000772 -0.005557 0.010185 0.000000 0.000000 0.000000
# 4 0.000000 0.000000 0.000000 0.034056 0.000000 0.000000
# 5 0.000000 0.000000 0.000000 0.000000 0.049743 0.000000
# 6 0.000000 0.000000 0.000000 0.000000 0.000000 0.045919
#
#
# Mechanical properties :
#
#
# Convention : Reuss Voigt Hill
#
# Bulk Modulus (GPa) = 30.05265 64.75471 47.40368
# Shear Modulus (GPa) = 21.96298 27.21152 24.58725
#
# Velocity S-wave (km/s) = 3.46036 3.85170 3.66126
# Velocity P-wave (km/s) = 5.68771 7.42191 6.61191
#
# Compressibility (1/GPa) = 0.03327494
#
# Stress axis : x y z
#
# Youngs Moduli (GPa) = 25.89356 88.84238 98.18602
#
# Poissons Ratio (x) = 0.62756 0.07579
# Poissons Ratio (y) = 0.18291 0.54562
# Poissons Ratio (z) = 0.01999 0.49370
#
# Static dielectric constant tensor:
#      x y z
#    x 3.040060 0.000000 0.000000 
#    y 0.000000 3.634860 0.000000 
#    z 0.000000 0.000000 3.456470 
# 
# 
# High freq. dielectric constant tensor:
#      x y z
#    x 1.659370 0.000000 0.000000 
#    y 0.000000 1.720480 0.000000 
#    z 0.000000 0.000000 1.720690 
# 
# From -- ./inp_files/28597.got.cif
#   From: 2010.06.25/outbox.cif.g09.slc.cpg/sg71_15_cif.got.tgz:28597.got - 2010.06.28 04:59:45.
