data_PCOD8287508
_publ_section_title
;
Structure prediction by ZEFSAII (Michael W. Deem and Ramdas Pophale) SiO2 
 PCOD8287508
Probable space group: I M M M
;
_chemical_formula_sum "Si O2"
_cell_formula_units_Z 112
_cell_length_a 14.214783
_cell_length_b 17.048093
_cell_length_c 27.194240
_cell_angle_alpha 90.000000
_cell_angle_beta 90.000000
_cell_angle_gamma 90.000000
_cell_volume 6590.114588
_symmetry_space_group_name_H-M "I M M M"
_symmetry_group_IT_number 71
_symmetry_cell_setting 'orthorhombic'
loop_
_space_group_symop_operation_xyz
x,y,z
-x,-y,z
x,-y,-z
-x,y,-z
-x,-y,-z
x,y,-z
-x,y,z
x,-y,z
1/2+x,1/2+y,1/2+z
1/2-x,1/2-y,1/2+z
1/2+x,1/2-y,1/2-z
1/2-x,1/2+y,1/2-z
1/2-x,1/2-y,1/2-z
1/2+x,1/2+y,1/2-z
1/2-x,1/2+y,1/2+z
1/2+x,1/2-y,1/2+z
loop_
_atom_site_type_symbol
_atom_site_label
_atom_site_fract_x
_atom_site_fract_y
_atom_site_fract_z
Si Si1 0.109388 0.908572 0.444419
Si Si2 0.726894 0.678170 0.138929
Si Si3 0.107096 0.224853 0.879612
Si Si4 0.105700 0.284734 0.701339
Si Si5 0.899171 0.853270 0.776908
Si Si6 0.611802 0.585364 0.445272
Si Si7 0.279911 0.911315 0.262632
O O1 0.137737 0.881785 0.500000
O O2 0.165795 0.863659 0.402458
O O3 0.000000 0.891138 0.435580
O O4 0.130938 0.000000 0.438378
O O5 0.825061 0.701227 0.112428
O O6 0.673703 0.758771 0.156305
O O7 0.754335 0.619957 0.183277
O O8 0.114669 0.201827 0.823273
O O9 0.150244 0.152876 0.910440
O O10 0.000000 0.246565 0.894995
O O11 0.100620 0.205283 0.731598
O O12 0.146423 0.355741 0.734201
O O13 0.000000 0.308294 0.683632
O O14 0.815649 0.915146 0.769857
O O15 0.000000 0.898044 0.780205
O O16 0.649665 0.601072 0.500000
O O17 0.500000 0.585953 0.444564
O O18 0.647581 0.500000 0.426705
O O19 0.320130 0.000000 0.266300
#
# Coordination Sequence:
#
# PCOD8287508 Si02
#       7
#    16  16  16  16  16  16  16
#     4   9  19  36  57  81 106 130 162 211 268 313
#     4  11  19  34  52  77  99 133 171 213 250 302
#     4  10  18  29  49  71  98 132 166 201 244 298
#     4  10  19  34  51  68  95 133 171 209 250 294
#     4   9  17  32  49  67  94 125 157 198 245 291
#     4   8  15  28  44  64  91 121 154 194 240 287
#     4  11  21  32  47  71  99 130 167 206 250 301
#
# _framework density 16.995152000000001
#
# number of rings (size 3 to 8) (size 9 to 14) (size 15 to 20)
#    0.000    2.286    2.857    2.571    0.000    2.286 
#    0.000    1.429    0.000    1.286    0.000    1.000 
#    0.000    0.000    0.000    7.571    0.000    0.286 
#
# Total GULP energy -693863.608134 kJ/mol
# GULP energy per Si atom -12390.421574 kJ/mol
# Density = 1.695647 g / cm^3
# Si number density = 16.995152 Si / 1000 Ang^3
#
#
#
# Elastic Constant Matrix: (Units=GPa)
#
#
# Indices 1 2 3 4 5 6 
#
# 1 89.3664 44.0005 37.8865 0.0000 0.0000 0.0000
# 2 44.0005 78.6531 33.4444 0.0000 0.0000 0.0000
# 3 37.8865 33.4444 63.1171 0.0000 0.0000 0.0000
# 4 0.0000 0.0000 0.0000 34.1779 0.0000 0.0000
# 5 0.0000 0.0000 0.0000 0.0000 15.4606 0.0000
# 6 0.0000 0.0000 0.0000 0.0000 0.0000 21.1677
#
#
#
# Elastic Compliance Matrix: (Units=1/GPa)
#
#
# Indices 1 2 3 4 5 6 
#
# 1 0.017473 -0.006861 -0.006853 0.000000 0.000000 0.000000
# 2 -0.006861 0.019106 -0.006005 0.000000 0.000000 0.000000
# 3 -0.006853 -0.006005 0.023139 0.000000 0.000000 0.000000
# 4 0.000000 0.000000 0.000000 0.029259 0.000000 0.000000
# 5 0.000000 0.000000 0.000000 0.000000 0.064680 0.000000
# 6 0.000000 0.000000 0.000000 0.000000 0.000000 0.047242
#
#
# Mechanical properties :
#
#
# Convention : Reuss Voigt Hill
#
# Bulk Modulus (GPa) = 49.31064 51.31107 50.31085
# Shear Modulus (GPa) = 20.23489 21.88159 21.05824
#
# Velocity S-wave (km/s) = 3.45429 3.59209 3.52387
# Velocity P-wave (km/s) = 6.70724 6.88922 6.79884
#
# Compressibility (1/GPa) = 0.02027960
#
# Stress axis : x y z
#
# Youngs Moduli (GPa) = 57.23034 52.33995 43.21664
#
# Poissons Ratio (x) = 0.35910 0.29616
# Poissons Ratio (y) = 0.39266 0.25953
# Poissons Ratio (z) = 0.39220 0.31432
#
# Static dielectric constant tensor:
#      x y z
#    x 3.372520 0.000000 0.000000 
#    y 0.000000 3.065370 0.000000 
#    z 0.000000 0.000000 3.223470 
# 
# 
# High freq. dielectric constant tensor:
#      x y z
#    x 1.646380 0.000000 0.000000 
#    y 0.000000 1.636510 0.000000 
#    z 0.000000 0.000000 1.648420 
# 
# From -- ./inp_files/41102.got.cif
#   From: 2010.06.25/outbox.cif.g09.slc.cpg/sg71_21_cif.got.tgz:41102.got - 2010.06.28 04:59:45.
