data_PCOD8287184
_publ_section_title
;
Structure prediction by ZEFSAII (Michael W. Deem and Ramdas Pophale) SiO2 
 PCOD8287184
Probable space group: I M M M
;
_chemical_formula_sum "Si O2"
_cell_formula_units_Z 80
_cell_length_a 18.483745
_cell_length_b 25.336990
_cell_length_c 9.471321
_cell_angle_alpha 90.000000
_cell_angle_beta 90.000000
_cell_angle_gamma 90.000000
_cell_volume 4435.632371
_symmetry_space_group_name_H-M "I M M M"
_symmetry_group_IT_number 71
_symmetry_cell_setting 'orthorhombic'
loop_
_space_group_symop_operation_xyz
x,y,z
-x,-y,z
x,-y,-z
-x,y,-z
-x,-y,-z
x,y,-z
-x,y,z
x,-y,z
1/2+x,1/2+y,1/2+z
1/2-x,1/2-y,1/2+z
1/2+x,1/2-y,1/2-z
1/2-x,1/2+y,1/2-z
1/2-x,1/2-y,1/2-z
1/2+x,1/2+y,1/2-z
1/2-x,1/2+y,1/2+z
1/2+x,1/2-y,1/2+z
loop_
_atom_site_type_symbol
_atom_site_label
_atom_site_fract_x
_atom_site_fract_y
_atom_site_fract_z
Si Si1 0.500000 0.759134 0.168292
Si Si2 0.000000 0.846443 0.837971
Si Si3 0.919930 0.559737 0.167593
Si Si4 0.866587 0.732940 0.160319
Si Si5 0.842841 0.145493 0.159644
Si Si6 0.788217 0.629267 0.838388
O O1 0.500000 0.699441 0.223560
O O2 0.428693 0.786698 0.231849
O O3 0.500000 0.761655 0.000000
O O4 0.924520 0.878244 0.815722
O O5 0.000000 0.823855 0.000000
O O6 0.902999 0.500000 0.215665
O O7 0.856576 0.597518 0.227274
O O8 0.000000 0.576620 0.224563
O O9 0.921077 0.563918 0.000000
O O10 0.841611 0.792147 0.195793
O O11 0.800857 0.692040 0.178528
O O12 0.896585 0.730080 0.000000
O O13 0.785798 0.114874 0.257409
O O14 0.817867 0.135990 0.000000
O O15 0.776374 0.612752 0.000000
#
# Coordination Sequence:
#
# PCOD8287184 Si02
#       6
#     8   8  16  16  16  16
#     4  10  18  26  40  62  85 116 157 197 226 255
#     4   8  16  32  48  60  83 124 159 179 218 271
#     4   8  15  29  48  70  94 119 152 195 237 274
#     4   9  18  30  42  59  90 128 157 185 225 276
#     4   9  17  30  45  63  92 125 152 184 225 274
#     4  10  19  28  46  71  90 116 155 194 231 275
#
# _framework density 18.035758999999999
#
# number of rings (size 3 to 8) (size 9 to 14) (size 15 to 20)
#    0.000    3.000    0.000    3.300    1.400    4.000 
#    0.000    0.000    0.000    0.600    0.000    2.100 
#    0.000    5.600    0.000    0.000    0.000    0.000 
#
# Total GULP energy -495553.765771 kJ/mol
# GULP energy per Si atom -12388.844144 kJ/mol
# Density = 1.799471 g / cm^3
# Si number density = 18.035759 Si / 1000 Ang^3
#
#
#
# Elastic Constant Matrix: (Units=GPa)
#
#
# Indices 1 2 3 4 5 6 
#
# 1 167.1557 37.4145 58.3288 0.0000 0.0000 0.0000
# 2 37.4145 35.0107 10.6075 0.0000 0.0000 0.0000
# 3 58.3288 10.6075 72.2134 0.0000 0.0000 0.0000
# 4 0.0000 0.0000 0.0000 7.5304 0.0000 0.0000
# 5 0.0000 0.0000 0.0000 0.0000 33.9874 0.0000
# 6 0.0000 0.0000 0.0000 0.0000 0.0000 21.2570
#
#
#
# Elastic Compliance Matrix: (Units=1/GPa)
#
#
# Indices 1 2 3 4 5 6 
#
# 1 0.010508 -0.009061 -0.007157 0.000000 0.000000 0.000000
# 2 -0.009061 0.037706 0.001780 0.000000 0.000000 0.000000
# 3 -0.007157 0.001780 0.019367 0.000000 0.000000 0.000000
# 4 0.000000 0.000000 0.000000 0.132795 0.000000 0.000000
# 5 0.000000 0.000000 0.000000 0.000000 0.029423 0.000000
# 6 0.000000 0.000000 0.000000 0.000000 0.000000 0.047043
#
#
# Mechanical properties :
#
#
# Convention : Reuss Voigt Hill
#
# Bulk Modulus (GPa) = 25.83554 54.12017 39.97785
# Shear Modulus (GPa) = 15.69274 23.75690 19.72482
#
# Velocity S-wave (km/s) = 2.95293 3.63328 3.31063
# Velocity P-wave (km/s) = 5.09726 6.90458 6.06858
#
# Compressibility (1/GPa) = 0.03870638
#
# Stress axis : x y z
#
# Youngs Moduli (GPa) = 95.16708 26.52065 51.63452
#
# Poissons Ratio (x) = 0.24030 0.36952
# Poissons Ratio (y) = 0.86231 -0.09192
# Poissons Ratio (z) = 0.68106 -0.04721
#
# Static dielectric constant tensor:
#      x y z
#    x 3.662810 0.000000 0.000000 
#    y 0.000000 2.913870 0.000000 
#    z 0.000000 0.000000 3.028740 
# 
# 
# High freq. dielectric constant tensor:
#      x y z
#    x 1.713170 0.000000 0.000000 
#    y 0.000000 1.639530 0.000000 
#    z 0.000000 0.000000 1.667960 
# 
# From -- ./inp_files/8665.got.cif
#   From: 2010.06.25/outbox.cif.g09.slc.cpg/sg71_5_cif.got.tgz:8665.got - 2010.06.28 04:59:45.
