data_PCOD8287264
_publ_section_title
;
Structure prediction by ZEFSAII (Michael W. Deem and Ramdas Pophale) SiO2 
 PCOD8287264
Probable space group: I M M M
;
_chemical_formula_sum "Si O2"
_cell_formula_units_Z 96
_cell_length_a 9.042794
_cell_length_b 27.510911
_cell_length_c 29.113392
_cell_angle_alpha 90.000000
_cell_angle_beta 90.000000
_cell_angle_gamma 90.000000
_cell_volume 7242.698678
_symmetry_space_group_name_H-M "I M M M"
_symmetry_group_IT_number 71
_symmetry_cell_setting 'orthorhombic'
loop_
_space_group_symop_operation_xyz
x,y,z
-x,-y,z
x,-y,-z
-x,y,-z
-x,-y,-z
x,y,-z
-x,y,z
x,-y,z
1/2+x,1/2+y,1/2+z
1/2-x,1/2-y,1/2+z
1/2+x,1/2-y,1/2-z
1/2-x,1/2+y,1/2-z
1/2-x,1/2-y,1/2-z
1/2+x,1/2+y,1/2-z
1/2-x,1/2+y,1/2+z
1/2+x,1/2-y,1/2+z
loop_
_atom_site_type_symbol
_atom_site_label
_atom_site_fract_x
_atom_site_fract_y
_atom_site_fract_z
Si Si1 0.829431 0.162152 0.132548
Si Si2 0.174527 0.500000 0.590779
Si Si3 0.670092 0.407045 0.447613
Si Si4 0.166206 0.743149 0.320090
Si Si5 0.826469 0.097377 0.780100
Si Si6 0.167194 0.321639 0.229417
Si Si7 0.323951 0.000000 0.803993
O O1 0.786313 0.139053 0.083622
O O2 0.735494 0.211178 0.138943
O O3 0.791550 0.122406 0.171225
O O4 0.000000 0.177256 0.135590
O O5 0.231122 0.452946 0.564416
O O6 0.230484 0.500000 0.643216
O O7 0.000000 0.500000 0.588782
O O8 0.697861 0.391510 0.500000
O O9 0.500000 0.421635 0.438626
O O10 0.168815 0.711955 0.273993
O O11 0.260072 0.792320 0.312899
O O12 0.000000 0.757631 0.333721
O O13 0.763307 0.130269 0.738803
O O14 0.000000 0.089227 0.772579
O O15 0.741593 0.046578 0.778342
O O16 0.000000 0.336182 0.216243
O O17 0.500000 0.000000 0.800076
#
# Coordination Sequence:
#
# PCOD8287264 Si02
#       7
#    16   8  16  16  16  16   8
#     4   9  17  28  41  56  72  92 118 151 191 231
#     4  11  22  32  43  56  72  92 122 162 204 243
#     4  10  20  33  46  57  71  94 125 160 199 243
#     4   9  16  25  39  57  75  94 116 141 175 221
#     4  10  18  28  42  56  72  95 123 154 187 225
#     4   9  16  26  39  56  77  96 114 142 178 218
#     4  11  21  30  40  55  74  98 126 158 195 235
#
# _framework density 13.254728
#
# number of rings (size 3 to 8) (size 9 to 14) (size 15 to 20)
#    0.000    2.333    1.667    2.250    0.000    7.333 
#    0.000    0.000    0.000    0.000    0.000    0.000 
#    0.000    0.000    0.000    0.000    0.000    0.000 
#
# Total GULP energy -595252.990346 kJ/mol
# GULP energy per Si atom -12401.103966 kJ/mol
# Density = 1.322456 g / cm^3
# Si number density = 13.254728 Si / 1000 Ang^3
#
#
#
# Elastic Constant Matrix: (Units=GPa)
#
#
# Indices 1 2 3 4 5 6 
#
# 1 79.5997 45.2858 29.0109 0.0000 0.0000 0.0000
# 2 45.2858 81.7169 46.1247 0.0000 0.0000 0.0000
# 3 29.0109 46.1247 45.4047 0.0000 0.0000 0.0000
# 4 0.0000 0.0000 0.0000 1.8278 0.0000 0.0000
# 5 0.0000 0.0000 0.0000 0.0000 14.0475 0.0000
# 6 0.0000 0.0000 0.0000 0.0000 0.0000 23.8867
#
#
#
# Elastic Compliance Matrix: (Units=1/GPa)
#
#
# Indices 1 2 3 4 5 6 
#
# 1 0.018557 -0.008418 -0.003305 0.000000 0.000000 0.000000
# 2 -0.008418 0.032505 -0.027641 0.000000 0.000000 0.000000
# 3 -0.003305 -0.027641 0.052215 0.000000 0.000000 0.000000
# 4 0.000000 0.000000 0.000000 0.547119 0.000000 0.000000
# 5 0.000000 0.000000 0.000000 0.000000 0.071187 0.000000
# 6 0.000000 0.000000 0.000000 0.000000 0.000000 0.041864
#
#
# Mechanical properties :
#
#
# Convention : Reuss Voigt Hill
#
# Bulk Modulus (GPa) = 40.73680 49.72935 45.23307
# Shear Modulus (GPa) = 5.87988 13.70572 9.79280
#
# Velocity S-wave (km/s) = 2.10848 3.21911 2.72106
# Velocity P-wave (km/s) = 6.06037 7.17054 6.63870
#
# Compressibility (1/GPa) = 0.02454783
#
# Stress axis : x y z
#
# Youngs Moduli (GPa) = 53.88890 30.76493 19.15158
#
# Poissons Ratio (x) = 0.25899 0.06329
# Poissons Ratio (y) = 0.45366 0.52937
# Poissons Ratio (z) = 0.17809 0.85038
#
# Static dielectric constant tensor:
#      x y z
#    x 2.785500 0.000000 0.000000 
#    y 0.000000 2.608980 0.000000 
#    z 0.000000 0.000000 2.412330 
# 
# 
# High freq. dielectric constant tensor:
#      x y z
#    x 1.521090 0.000000 0.000000 
#    y 0.000000 1.489490 0.000000 
#    z 0.000000 0.000000 1.454390 
# 
# From -- ./inp_files/63485.got.cif
#   From: 2010.06.25/outbox.cif.g09.slc.cpg/sg71_32_cif.got.tgz:63485.got - 2010.06.28 04:59:45.
