data_PCOD8287328
_publ_section_title
;
Structure prediction by ZEFSAII (Michael W. Deem and Ramdas Pophale) SiO2 
 PCOD8287328
Probable space group: I M M M
;
_chemical_formula_sum "Si O2"
_cell_formula_units_Z 80
_cell_length_a 20.657551
_cell_length_b 25.597394
_cell_length_c 8.588078
_cell_angle_alpha 90.000000
_cell_angle_beta 90.000000
_cell_angle_gamma 90.000000
_cell_volume 4541.199351
_symmetry_space_group_name_H-M "I M M M"
_symmetry_group_IT_number 71
_symmetry_cell_setting 'orthorhombic'
loop_
_space_group_symop_operation_xyz
x,y,z
-x,-y,z
x,-y,-z
-x,y,-z
-x,-y,-z
x,y,-z
-x,y,z
x,-y,z
1/2+x,1/2+y,1/2+z
1/2-x,1/2-y,1/2+z
1/2+x,1/2-y,1/2-z
1/2-x,1/2+y,1/2-z
1/2-x,1/2-y,1/2-z
1/2+x,1/2+y,1/2-z
1/2-x,1/2+y,1/2+z
1/2+x,1/2-y,1/2+z
loop_
_atom_site_type_symbol
_atom_site_label
_atom_site_fract_x
_atom_site_fract_y
_atom_site_fract_z
Si Si1 0.723808 0.000000 0.318467
Si Si2 0.687683 0.778609 0.315333
Si Si3 0.572676 0.293498 0.680282
Si Si4 0.124962 0.104408 0.682184
Si Si5 0.636789 0.500000 0.681450
Si Si6 0.727286 0.111194 0.314973
O O1 0.800404 0.000000 0.291546
O O2 0.697456 0.055647 0.248797
O O3 0.709183 0.000000 0.500000
O O4 0.692660 0.778199 0.500000
O O5 0.750000 0.750000 0.250000
O O6 0.622311 0.750556 0.256602
O O7 0.687150 0.838778 0.253150
O O8 0.586705 0.305317 0.500000
O O9 0.500000 0.272140 0.705839
O O10 0.580283 0.346806 0.774942
O O11 0.120474 0.093685 0.500000
O O12 0.098278 0.052958 0.773117
O O13 0.198159 0.117282 0.738151
O O14 0.654556 0.500000 0.500000
O O15 0.724944 0.109154 0.500000
#
# Coordination Sequence:
#
# PCOD8287328 Si02
#       6
#     8  16  16  16   8  16
#     4   8  14  26  42  65  96 122 152 195 239 281
#     4  10  18  30  48  70  94 122 160 198 239 287
#     4  10  21  34  47  67  97 129 159 197 246 294
#     4  10  18  31  49  68  92 123 163 203 237 280
#     4  10  18  28  45  69  96 125 157 195 241 286
#     4   8  14  25  44  68  91 117 151 192 235 276
#
# _framework density 17.616492000000001
#
# number of rings (size 3 to 8) (size 9 to 14) (size 15 to 20)
#    0.000    2.600    2.000    2.700    0.000    0.400 
#    0.000    0.500    0.000    3.000    0.000    0.700 
#    0.000    5.600    0.000    0.000    0.000   16.300 
#
# Total GULP energy -495558.627844 kJ/mol
# GULP energy per Si atom -12388.965696 kJ/mol
# Density = 1.757640 g / cm^3
# Si number density = 17.616492 Si / 1000 Ang^3
#
#
#
# Elastic Constant Matrix: (Units=GPa)
#
#
# Indices 1 2 3 4 5 6 
#
# 1 76.1958 60.4209 16.5346 0.0000 0.0000 0.0000
# 2 60.4209 183.7383 18.2684 0.0000 0.0000 0.0000
# 3 16.5346 18.2684 29.1782 0.0000 0.0000 0.0000
# 4 0.0000 0.0000 0.0000 20.3407 0.0000 0.0000
# 5 0.0000 0.0000 0.0000 0.0000 12.9614 0.0000
# 6 0.0000 0.0000 0.0000 0.0000 0.0000 17.3807
#
#
#
# Elastic Compliance Matrix: (Units=1/GPa)
#
#
# Indices 1 2 3 4 5 6 
#
# 1 0.019129 -0.005559 -0.007360 0.000000 0.000000 0.000000
# 2 -0.005559 0.007419 -0.001495 0.000000 0.000000 0.000000
# 3 -0.007360 -0.001495 0.039379 0.000000 0.000000 0.000000
# 4 0.000000 0.000000 0.000000 0.049163 0.000000 0.000000
# 5 0.000000 0.000000 0.000000 0.000000 0.077152 0.000000
# 6 0.000000 0.000000 0.000000 0.000000 0.000000 0.057535
#
#
# Mechanical properties :
#
#
# Convention : Reuss Voigt Hill
#
# Bulk Modulus (GPa) = 26.95419 53.28446 40.11932
# Shear Modulus (GPa) = 17.18388 23.06245 20.12317
#
# Velocity S-wave (km/s) = 3.12660 3.62213 3.38345
# Velocity P-wave (km/s) = 5.32615 6.91416 6.17145
#
# Compressibility (1/GPa) = 0.03709998
#
# Stress axis : x y z
#
# Youngs Moduli (GPa) = 52.27669 134.78708 25.39439
#
# Poissons Ratio (x) = 0.74924 0.18689
# Poissons Ratio (y) = 0.29059 0.03797
# Poissons Ratio (z) = 0.38474 0.20152
#
# Static dielectric constant tensor:
#      x y z
#    x 2.980590 0.000000 0.000000 
#    y 0.000000 4.289940 0.000000 
#    z 0.000000 0.000000 3.011690 
# 
# 
# High freq. dielectric constant tensor:
#      x y z
#    x 1.621150 0.000000 0.000000 
#    y 0.000000 1.706430 0.000000 
#    z 0.000000 0.000000 1.659830 
# 
# From -- ./inp_files/8453.got.cif
#   From: 2010.06.25/outbox.cif.g09.slc.cpg/sg71_5_cif.got.tgz:8453.got - 2010.06.28 04:59:45.
