data_PCOD8287018
_publ_section_title
;
Structure prediction by ZEFSAII (Michael W. Deem and Ramdas Pophale) SiO2 
 PCOD8287018
Probable space group: I M M M
;
_chemical_formula_sum "Si O2"
_cell_formula_units_Z 80
_cell_length_a 25.315946
_cell_length_b 8.966121
_cell_length_c 21.005636
_cell_angle_alpha 90.000000
_cell_angle_beta 90.000000
_cell_angle_gamma 90.000000
_cell_volume 4767.981829
_symmetry_space_group_name_H-M "I M M M"
_symmetry_group_IT_number 71
_symmetry_cell_setting 'orthorhombic'
loop_
_space_group_symop_operation_xyz
x,y,z
-x,-y,z
x,-y,-z
-x,y,-z
-x,-y,-z
x,y,-z
-x,y,z
x,-y,z
1/2+x,1/2+y,1/2+z
1/2-x,1/2-y,1/2+z
1/2+x,1/2-y,1/2-z
1/2-x,1/2+y,1/2-z
1/2-x,1/2-y,1/2-z
1/2+x,1/2+y,1/2-z
1/2-x,1/2+y,1/2+z
1/2+x,1/2-y,1/2+z
loop_
_atom_site_type_symbol
_atom_site_label
_atom_site_fract_x
_atom_site_fract_y
_atom_site_fract_z
Si Si1 0.388320 0.323818 0.734198
Si Si2 0.105031 0.325496 0.367461
Si Si3 0.286690 0.175187 0.930358
Si Si4 0.000000 0.833952 0.626963
Si Si5 0.500000 0.663467 0.278807
Si Si6 0.276076 0.325309 0.689361
O O1 0.395474 0.500000 0.748672
O O2 0.377221 0.241417 0.800051
O O3 0.443540 0.260806 0.702095
O O4 0.339074 0.294064 0.687587
O O5 0.094958 0.500000 0.358501
O O6 0.152215 0.290487 0.416005
O O7 0.052289 0.251960 0.396418
O O8 0.248589 0.242947 0.875547
O O9 0.276881 0.000000 0.932299
O O10 0.273012 0.244099 0.000000
O O11 0.000000 0.840743 0.702699
O O12 0.000000 0.000000 0.597705
O O13 0.500000 0.500000 0.309708
O O14 0.263692 0.500000 0.694840
O O15 0.250000 0.250000 0.750000
#
# Coordination Sequence:
#
# PCOD8287018 Si02
#       6
#    16  16  16   8   8  16
#     4   9  16  26  43  65  91 119 147 183 233 281
#     4  10  17  27  45  66  87 116 155 194 230 270
#     4   9  18  31  45  64  92 123 156 195 237 281
#     4   9  17  29  44  62  89 121 151 189 231 271
#     4   7  12  23  37  58  85 111 136 168 213 266
#     4  10  18  29  47  69  90 118 155 194 236 278
#
# _framework density 16.778587999999999
#
# number of rings (size 3 to 8) (size 9 to 14) (size 15 to 20)
#    0.000    2.800    2.000    2.100    0.000    0.000 
#    0.000    0.500    0.000    8.400    0.000    0.700 
#    0.000    5.600    0.000    0.000    0.000   16.200 
#
# Total GULP energy -495555.146045 kJ/mol
# GULP energy per Si atom -12388.878651 kJ/mol
# Density = 1.674040 g / cm^3
# Si number density = 16.778588 Si / 1000 Ang^3
#
#
#
# Elastic Constant Matrix: (Units=GPa)
#
#
# Indices 1 2 3 4 5 6 
#
# 1 146.9128 32.6592 69.8087 0.0000 0.0000 0.0000
# 2 32.6592 47.4709 21.5910 0.0000 0.0000 0.0000
# 3 69.8087 21.5910 99.5453 0.0000 0.0000 0.0000
# 4 0.0000 0.0000 0.0000 11.7445 0.0000 0.0000
# 5 0.0000 0.0000 0.0000 0.0000 14.0990 0.0000
# 6 0.0000 0.0000 0.0000 0.0000 0.0000 20.4602
#
#
#
# Elastic Compliance Matrix: (Units=1/GPa)
#
#
# Indices 1 2 3 4 5 6 
#
# 1 0.011015 -0.004510 -0.006746 0.000000 0.000000 0.000000
# 2 -0.004510 0.025217 -0.002307 0.000000 0.000000 0.000000
# 3 -0.006746 -0.002307 0.015277 0.000000 0.000000 0.000000
# 4 0.000000 0.000000 0.000000 0.085147 0.000000 0.000000
# 5 0.000000 0.000000 0.000000 0.000000 0.070927 0.000000
# 6 0.000000 0.000000 0.000000 0.000000 0.000000 0.048875
#
#
# Mechanical properties :
#
#
# Convention : Reuss Voigt Hill
#
# Bulk Modulus (GPa) = 41.01163 60.22741 50.61952
# Shear Modulus (GPa) = 17.14017 20.58540 18.86278
#
# Velocity S-wave (km/s) = 3.19964 3.50649 3.35657
# Velocity P-wave (km/s) = 6.17626 7.23653 6.72731
#
# Compressibility (1/GPa) = 0.02438333
#
# Stress axis : x y z
#
# Youngs Moduli (GPa) = 90.78550 39.65509 65.45721
#
# Poissons Ratio (x) = 0.17883 0.44160
# Poissons Ratio (y) = 0.40941 0.15101
# Poissons Ratio (z) = 0.61248 0.09149
#
# Static dielectric constant tensor:
#      x y z
#    x 3.740010 0.000000 0.000000 
#    y 0.000000 2.991150 0.000000 
#    z 0.000000 0.000000 2.974840 
# 
# 
# High freq. dielectric constant tensor:
#      x y z
#    x 1.669180 0.000000 0.000000 
#    y 0.000000 1.621990 0.000000 
#    z 0.000000 0.000000 1.595860 
# 
# From -- ./inp_files/10713.got.cif
#   From: 2010.06.25/outbox.cif.g09.slc.cpg/sg71_6_cif.got.tgz:10713.got - 2010.06.28 04:59:45.
