data_PCOD8287243
_publ_section_title
;
Structure prediction by ZEFSAII (Michael W. Deem and Ramdas Pophale) SiO2 
 PCOD8287243
Probable space group: I M M M
;
_chemical_formula_sum "Si O2"
_cell_formula_units_Z 80
_cell_length_a 25.018885
_cell_length_b 21.150070
_cell_length_c 8.943500
_cell_angle_alpha 90.000000
_cell_angle_beta 90.000000
_cell_angle_gamma 90.000000
_cell_volume 4732.463481
_symmetry_space_group_name_H-M "I M M M"
_symmetry_group_IT_number 71
_symmetry_cell_setting 'orthorhombic'
loop_
_space_group_symop_operation_xyz
x,y,z
-x,-y,z
x,-y,-z
-x,y,-z
-x,-y,-z
x,y,-z
-x,y,z
x,-y,z
1/2+x,1/2+y,1/2+z
1/2-x,1/2-y,1/2+z
1/2+x,1/2-y,1/2-z
1/2-x,1/2+y,1/2-z
1/2-x,1/2-y,1/2-z
1/2+x,1/2+y,1/2-z
1/2-x,1/2+y,1/2+z
1/2+x,1/2-y,1/2+z
loop_
_atom_site_type_symbol
_atom_site_label
_atom_site_fract_x
_atom_site_fract_y
_atom_site_fract_z
Si Si1 0.886880 0.373843 0.321829
Si Si2 0.780257 0.192407 0.826432
Si Si3 0.893907 0.241153 0.826507
Si Si4 0.723151 0.931044 0.176962
Si Si5 0.500000 0.883781 0.835600
Si Si6 0.000000 0.232930 0.333262
O O1 0.891690 0.363106 0.500000
O O2 0.876083 0.306534 0.247891
O O3 0.838764 0.419950 0.278603
O O4 0.943478 0.403587 0.259090
O O5 0.750000 0.250000 0.750000
O O6 0.843991 0.194086 0.802308
O O7 0.759861 0.125381 0.757958
O O8 0.764943 0.196607 0.000000
O O9 0.946458 0.210027 0.751937
O O10 0.906114 0.252890 0.000000
O O11 0.740012 0.000000 0.242317
O O12 0.729000 0.932225 0.000000
O O13 0.500000 0.808104 0.839770
O O14 0.500000 0.913837 0.000000
O O15 0.000000 0.203935 0.500000
#
# Coordination Sequence:
#
# PCOD8287243 Si02
#       6
#    16  16  16  16   8   8
#     4   9  15  26  43  61  87 123 161 194 227 274
#     4  10  19  30  47  70  95 124 160 200 238 279
#     4  10  18  27  43  69  96 120 150 193 240 280
#     4   9  17  29  45  65  91 126 165 202 237 275
#     4   7  12  21  36  59  81 107 145 185 219 252
#     4   9  17  29  45  66  93 122 150 185 233 286
#
# _framework density 16.904515
#
# number of rings (size 3 to 8) (size 9 to 14) (size 15 to 20)
#    0.000    2.800    2.000    2.100    0.000    0.800 
#    0.000    0.500    0.000    5.400    0.000    0.700 
#    0.000   10.400    0.000    0.000    0.000    0.000 
#
# Total GULP energy -495549.635599 kJ/mol
# GULP energy per Si atom -12388.740890 kJ/mol
# Density = 1.686604 g / cm^3
# Si number density = 16.904515 Si / 1000 Ang^3
#
#
#
# Elastic Constant Matrix: (Units=GPa)
#
#
# Indices 1 2 3 4 5 6 
#
# 1 119.2531 61.3903 34.9450 0.0000 0.0000 0.0000
# 2 61.3903 104.2393 20.5398 0.0000 0.0000 0.0000
# 3 34.9450 20.5398 50.4251 0.0000 0.0000 0.0000
# 4 0.0000 0.0000 0.0000 11.6498 0.0000 0.0000
# 5 0.0000 0.0000 0.0000 0.0000 21.3366 0.0000
# 6 0.0000 0.0000 0.0000 0.0000 0.0000 15.7728
#
#
#
# Elastic Compliance Matrix: (Units=1/GPa)
#
#
# Indices 1 2 3 4 5 6 
#
# 1 0.013919 -0.006846 -0.006858 0.000000 0.000000 0.000000
# 2 -0.006846 0.013798 -0.000876 0.000000 0.000000 0.000000
# 3 -0.006858 -0.000876 0.024940 0.000000 0.000000 0.000000
# 4 0.000000 0.000000 0.000000 0.085838 0.000000 0.000000
# 5 0.000000 0.000000 0.000000 0.000000 0.046868 0.000000
# 6 0.000000 0.000000 0.000000 0.000000 0.000000 0.063400
#
#
# Mechanical properties :
#
#
# Convention : Reuss Voigt Hill
#
# Bulk Modulus (GPa) = 42.55593 56.40752 49.48173
# Shear Modulus (GPa) = 17.49742 20.22135 18.85938
#
# Velocity S-wave (km/s) = 3.22075 3.46238 3.34375
# Velocity P-wave (km/s) = 6.24979 7.03028 6.65149
#
# Compressibility (1/GPa) = 0.02349849
#
# Stress axis : x y z
#
# Youngs Moduli (GPa) = 71.84167 72.47430 40.09553
#
# Poissons Ratio (x) = 0.49619 0.27496
# Poissons Ratio (y) = 0.49186 0.03511
# Poissons Ratio (z) = 0.49266 0.06347
#
# Static dielectric constant tensor:
#      x y z
#    x 3.620050 0.000000 0.000000 
#    y 0.000000 3.034420 0.000000 
#    z 0.000000 0.000000 2.985460 
# 
# 
# High freq. dielectric constant tensor:
#      x y z
#    x 1.669820 0.000000 0.000000 
#    y 0.000000 1.605080 0.000000 
#    z 0.000000 0.000000 1.623510 
# 
# From -- ./inp_files/14592.got.cif
#   From: 2010.06.25/outbox.cif.g09.slc.cpg/sg71_8_cif.got.tgz:14592.got - 2010.06.28 04:59:45.
