data_PCOD8287218
_publ_section_title
;
Structure prediction by ZEFSAII (Michael W. Deem and Ramdas Pophale) SiO2 
 PCOD8287218
Probable space group: I M M M
;
_chemical_formula_sum "Si O2"
_cell_formula_units_Z 104
_cell_length_a 15.442331
_cell_length_b 21.889698
_cell_length_c 23.348955
_cell_angle_alpha 90.000000
_cell_angle_beta 90.000000
_cell_angle_gamma 90.000000
_cell_volume 7892.599674
_symmetry_space_group_name_H-M "I M M M"
_symmetry_group_IT_number 71
_symmetry_cell_setting 'orthorhombic'
loop_
_space_group_symop_operation_xyz
x,y,z
-x,-y,z
x,-y,-z
-x,y,-z
-x,-y,-z
x,y,-z
-x,y,z
x,-y,z
1/2+x,1/2+y,1/2+z
1/2-x,1/2-y,1/2+z
1/2+x,1/2-y,1/2-z
1/2-x,1/2+y,1/2-z
1/2-x,1/2-y,1/2-z
1/2+x,1/2+y,1/2-z
1/2-x,1/2+y,1/2+z
1/2+x,1/2-y,1/2+z
loop_
_atom_site_type_symbol
_atom_site_label
_atom_site_fract_x
_atom_site_fract_y
_atom_site_fract_z
Si Si1 0.901230 0.570253 0.247908
Si Si2 0.000000 0.427487 0.064249
Si Si3 0.900190 0.266040 0.434536
Si Si4 0.602680 0.883430 0.867953
Si Si5 0.671796 0.071466 0.626817
Si Si6 0.000000 0.068557 0.431971
Si Si7 0.603421 0.000000 0.064793
Si Si8 0.328952 0.635254 0.933325
O O1 0.896134 0.500000 0.267702
O O2 0.869890 0.611485 0.301319
O O3 0.838285 0.582707 0.194592
O O4 0.000000 0.585627 0.229904
O O5 0.085619 0.403885 0.095907
O O6 0.000000 0.500000 0.065430
O O7 0.000000 0.401515 0.000000
O O8 0.893173 0.288546 0.500000
O O9 0.863592 0.319577 0.393820
O O10 0.840104 0.207428 0.424159
O O11 0.000000 0.249186 0.420601
O O12 0.500000 0.885816 0.873474
O O13 0.641404 0.939956 0.903920
O O14 0.750067 0.111931 0.604443
O O15 0.688288 0.000000 0.613242
O O16 0.914524 0.102127 0.409417
O O17 0.000000 0.070639 0.500000
O O18 0.000000 0.000000 0.407980
O O19 0.500000 0.000000 0.066821
O O20 0.637682 0.000000 0.000000
O O21 0.312502 0.619370 0.000000
#
# Coordination Sequence:
#
# PCOD8287218 Si02
#       8
#    16   8  16  16  16   8   8  16
#     4   9  15  26  40  55  79 104 133 161 196 233
#     4   9  16  26  38  55  76  96 122 164 211 243
#     4   9  16  27  40  55  78 107 133 160 198 239
#     4   9  15  23  38  57  76 105 132 159 193 236
#     4  10  18  27  40  58  77 103 132 170 204 242
#     4   9  16  26  40  55  72  95 127 170 207 234
#     4   9  14  20  32  58  84  98 124 165 194 229
#     4  10  18  28  40  56  78 103 134 168 205 241
#
# _framework density 13.176901000000001
#
# number of rings (size 3 to 8) (size 9 to 14) (size 15 to 20)
#    0.000    2.692    2.308    1.385    0.000    3.385 
#    0.000    0.769    0.000    0.000    0.000    0.000 
#    0.000    0.000    0.000    0.000    0.000    0.385 
#
# Total GULP energy -644665.532117 kJ/mol
# GULP energy per Si atom -12397.414079 kJ/mol
# Density = 1.314691 g / cm^3
# Si number density = 13.176901 Si / 1000 Ang^3
#
#
#
# Elastic Constant Matrix: (Units=GPa)
#
#
# Indices 1 2 3 4 5 6 
#
# 1 64.9310 35.5303 37.3313 0.0000 0.0000 0.0000
# 2 35.5303 76.1327 46.9149 0.0000 0.0000 0.0000
# 3 37.3313 46.9149 81.5811 0.0000 0.0000 0.0000
# 4 0.0000 0.0000 0.0000 19.4120 0.0000 0.0000
# 5 0.0000 0.0000 0.0000 0.0000 11.8017 0.0000
# 6 0.0000 0.0000 0.0000 0.0000 0.0000 11.3827
#
#
#
# Elastic Compliance Matrix: (Units=1/GPa)
#
#
# Indices 1 2 3 4 5 6 
#
# 1 0.022818 -0.006528 -0.006687 0.000000 0.000000 0.000000
# 2 -0.006528 0.022212 -0.009786 0.000000 0.000000 0.000000
# 3 -0.006687 -0.009786 0.020946 0.000000 0.000000 0.000000
# 4 0.000000 0.000000 0.000000 0.051515 0.000000 0.000000
# 5 0.000000 0.000000 0.000000 0.000000 0.084733 0.000000
# 6 0.000000 0.000000 0.000000 0.000000 0.000000 0.087852
#
#
# Mechanical properties :
#
#
# Convention : Reuss Voigt Hill
#
# Bulk Modulus (GPa) = 50.06922 51.35532 50.71227
# Shear Modulus (GPa) = 14.58846 15.37718 14.98282
#
# Velocity S-wave (km/s) = 3.33096 3.41982 3.37568
# Velocity P-wave (km/s) = 7.27144 7.39269 7.33232
#
# Compressibility (1/GPa) = 0.01997235
#
# Stress axis : x y z
#
# Youngs Moduli (GPa) = 43.82532 45.02059 47.74248
#
# Poissons Ratio (x) = 0.29389 0.31927
# Poissons Ratio (y) = 0.28609 0.46722
# Poissons Ratio (z) = 0.29308 0.44059
#
# Static dielectric constant tensor:
#      x y z
#    x 2.350000 0.000000 0.000000 
#    y 0.000000 2.600190 0.000000 
#    z 0.000000 0.000000 2.640240 
# 
# 
# High freq. dielectric constant tensor:
#      x y z
#    x 1.460480 0.000000 0.000000 
#    y 0.000000 1.490050 0.000000 
#    z 0.000000 0.000000 1.497620 
# 
# From -- ./inp_files/60182.got.cif
#   From: 2010.06.25/outbox.cif.g09.slc.cpg/sg71_31_cif.got.tgz:60182.got - 2010.06.28 04:59:45.
