data_PCOD8287746
_publ_section_title
;
Structure prediction by ZEFSAII (Michael W. Deem and Ramdas Pophale) SiO2 
 PCOD8287746
Probable space group: I M M M
;
_chemical_formula_sum "Si O2"
_cell_formula_units_Z 88
_cell_length_a 30.348153
_cell_length_b 23.333329
_cell_length_c 9.184257
_cell_angle_alpha 90.000000
_cell_angle_beta 90.000000
_cell_angle_gamma 90.000000
_cell_volume 6503.587647
_symmetry_space_group_name_H-M "I M M M"
_symmetry_group_IT_number 71
_symmetry_cell_setting 'orthorhombic'
loop_
_space_group_symop_operation_xyz
x,y,z
-x,-y,z
x,-y,-z
-x,y,-z
-x,-y,-z
x,y,-z
-x,y,z
x,-y,z
1/2+x,1/2+y,1/2+z
1/2-x,1/2-y,1/2+z
1/2+x,1/2-y,1/2-z
1/2-x,1/2+y,1/2-z
1/2-x,1/2-y,1/2-z
1/2+x,1/2+y,1/2-z
1/2-x,1/2+y,1/2+z
1/2+x,1/2-y,1/2+z
loop_
_atom_site_type_symbol
_atom_site_label
_atom_site_fract_x
_atom_site_fract_y
_atom_site_fract_z
Si Si1 0.754730 0.387662 0.833139
Si Si2 0.291166 0.724230 0.167886
Si Si3 0.838959 0.687591 0.169553
Si Si4 0.916799 0.607610 0.165964
Si Si5 0.000000 0.433884 0.672332
Si Si6 0.232934 0.500000 0.327991
Si Si7 0.855878 0.500000 0.836109
O O1 0.712888 0.344630 0.815478
O O2 0.800745 0.357600 0.783785
O O3 0.744178 0.442828 0.734911
O O4 0.759694 0.407530 0.000000
O O5 0.250000 0.750000 0.250000
O O6 0.334409 0.752487 0.241681
O O7 0.289694 0.742353 0.000000
O O8 0.887697 0.663544 0.204193
O O9 0.833177 0.701327 0.000000
O O10 0.885315 0.554555 0.191133
O O11 0.957995 0.601476 0.272262
O O12 0.933995 0.609958 0.000000
O O13 0.000000 0.500000 0.730277
O O14 0.000000 0.433473 0.500000
O O15 0.237681 0.500000 0.500000
O O16 0.182196 0.500000 0.282006
O O17 0.836066 0.500000 0.000000
#
# Coordination Sequence:
#
# PCOD8287746 Si02
#       7
#    16  16  16  16   8   8   8
#     4   9  17  30  42  54  77 106 132 156 192 242
#     4   9  17  28  42  58  76 100 127 158 197 236
#     4   9  17  29  45  61  75  96 129 166 200 237
#     4  10  19  32  48  59  71 102 138 163 199 252
#     4  11  23  33  41  59  83 101 125 170 217 244
#     4  12  22  26  37  61  82 102 131 169 207 234
#     4  10  18  31  45  54  73 102 134 166 199 249
#
# _framework density 13.530993
#
# number of rings (size 3 to 8) (size 9 to 14) (size 15 to 20)
#    0.000    2.273    2.727    2.727    0.000    5.455 
#    0.000    0.000    0.000    0.000    0.000    0.000 
#    0.000    0.000    0.000    0.000    0.000    0.909 
#
# Total GULP energy -545355.015713 kJ/mol
# GULP energy per Si atom -12394.432175 kJ/mol
# Density = 1.350020 g / cm^3
# Si number density = 13.530993 Si / 1000 Ang^3
#
#
#
# Elastic Constant Matrix: (Units=GPa)
#
#
# Indices 1 2 3 4 5 6 
#
# 1 55.3997 40.2036 33.1356 0.0000 0.0000 0.0000
# 2 40.2036 78.8356 50.2409 0.0000 0.0000 0.0000
# 3 33.1356 50.2409 79.5677 0.0000 0.0000 0.0000
# 4 0.0000 0.0000 0.0000 24.1742 0.0000 0.0000
# 5 0.0000 0.0000 0.0000 0.0000 20.8525 0.0000
# 6 0.0000 0.0000 0.0000 0.0000 0.0000 24.2399
#
#
#
# Elastic Compliance Matrix: (Units=1/GPa)
#
#
# Indices 1 2 3 4 5 6 
#
# 1 0.029665 -0.012141 -0.004688 0.000000 0.000000 0.000000
# 2 -0.012141 0.026195 -0.011484 0.000000 0.000000 0.000000
# 3 -0.004688 -0.011484 0.021771 0.000000 0.000000 0.000000
# 4 0.000000 0.000000 0.000000 0.041366 0.000000 0.000000
# 5 0.000000 0.000000 0.000000 0.000000 0.047956 0.000000
# 6 0.000000 0.000000 0.000000 0.000000 0.000000 0.041254
#
#
# Mechanical properties :
#
#
# Convention : Reuss Voigt Hill
#
# Bulk Modulus (GPa) = 47.60564 51.21814 49.41189
# Shear Modulus (GPa) = 18.39353 19.86818 19.13085
#
# Velocity S-wave (km/s) = 3.69095 3.83606 3.76420
# Velocity P-wave (km/s) = 7.30912 7.58651 7.44910
#
# Compressibility (1/GPa) = 0.02100591
#
# Stress axis : x y z
#
# Youngs Moduli (GPa) = 33.70959 38.17594 45.93174
#
# Poissons Ratio (x) = 0.46348 0.21533
# Poissons Ratio (y) = 0.40926 0.52748
# Poissons Ratio (z) = 0.15803 0.43841
#
# Static dielectric constant tensor:
#      x y z
#    x 2.652480 0.000000 0.000000 
#    y 0.000000 2.917850 0.000000 
#    z 0.000000 0.000000 2.784460 
# 
# 
# High freq. dielectric constant tensor:
#      x y z
#    x 1.472270 0.000000 0.000000 
#    y 0.000000 1.503220 0.000000 
#    z 0.000000 0.000000 1.521850 
# 
# From -- ./inp_files/17191.got.cif
#   From: 2010.06.25/outbox.cif.g09.slc.cpg/sg71_9_cif.got.tgz:17191.got - 2010.06.28 04:59:45.
