data_PCOD8287372
_publ_section_title
;
Structure prediction by ZEFSAII (Michael W. Deem and Ramdas Pophale) SiO2 
 PCOD8287372
Probable space group: I M M M
;
_chemical_formula_sum "Si O2"
_cell_formula_units_Z 120
_cell_length_a 30.488771
_cell_length_b 20.937764
_cell_length_c 12.740690
_cell_angle_alpha 90.000000
_cell_angle_beta 90.000000
_cell_angle_gamma 90.000000
_cell_volume 8133.232127
_symmetry_space_group_name_H-M "I M M M"
_symmetry_group_IT_number 71
_symmetry_cell_setting 'orthorhombic'
loop_
_space_group_symop_operation_xyz
x,y,z
-x,-y,z
x,-y,-z
-x,y,-z
-x,-y,-z
x,y,-z
-x,y,z
x,-y,z
1/2+x,1/2+y,1/2+z
1/2-x,1/2-y,1/2+z
1/2+x,1/2-y,1/2-z
1/2-x,1/2+y,1/2-z
1/2-x,1/2-y,1/2-z
1/2+x,1/2+y,1/2-z
1/2-x,1/2+y,1/2+z
1/2+x,1/2-y,1/2+z
loop_
_atom_site_type_symbol
_atom_site_label
_atom_site_fract_x
_atom_site_fract_y
_atom_site_fract_z
Si Si1 0.425167 0.426277 0.724395
Si Si2 0.255429 0.073661 0.879255
Si Si3 0.000000 0.074894 0.615705
Si Si4 0.952915 0.195294 0.878919
Si Si5 0.801424 0.679326 0.257073
Si Si6 0.281708 0.298044 0.121910
Si Si7 0.669152 0.627267 0.284207
Si Si8 0.865852 0.744588 0.876300
O O1 0.433648 0.500000 0.693089
O O2 0.455000 0.405765 0.824366
O O3 0.440229 0.379460 0.631483
O O4 0.373475 0.415123 0.742275
O O5 0.290667 0.110280 0.805453
O O6 0.205178 0.086170 0.846382
O O7 0.266346 0.000000 0.863332
O O8 0.261521 0.094423 0.000000
O O9 0.000000 0.107492 0.500000
O O10 0.000000 0.000000 0.601740
O O11 0.915384 0.242244 0.834317
O O12 0.000000 0.209591 0.823864
O O13 0.957054 0.209697 0.000000
O O14 0.766587 0.699859 0.169603
O O15 0.801764 0.728440 0.354380
O O16 0.847434 0.685197 0.193091
O O17 0.312069 0.352869 0.171284
O O18 0.278934 0.311110 0.000000
O O19 0.661203 0.690448 0.354305
O O20 0.863893 0.728625 0.000000
#
# Coordination Sequence:
#
# PCOD8287372 Si02
#       8
#    16  16   8  16  16  16  16  16
#     4  10  18  29  42  56  78 110 146 183 215 248
#     4  10  19  30  44  62  87 115 138 167 209 252
#     4   9  18  30  41  51  65  97 146 190 222 249
#     4   9  17  28  42  63  88 109 133 170 214 258
#     4   9  17  27  42  62  82 106 138 171 200 249
#     4   9  16  26  41  59  79 104 134 174 217 244
#     4   9  18  28  41  61  83 108 144 182 212 248
#     4   9  16  27  44  63  84 112 142 173 211 246
#
# _framework density 14.754282
#
# number of rings (size 3 to 8) (size 9 to 14) (size 15 to 20)
#    0.000    2.733    0.667    2.400    0.000    1.333 
#    0.000    0.667    0.000   13.200    0.000    0.000 
#    0.000    0.533    0.000    4.800    0.000    0.000 
#
# Total GULP energy -743452.100493 kJ/mol
# GULP energy per Si atom -12390.868342 kJ/mol
# Density = 1.472070 g / cm^3
# Si number density = 14.754282 Si / 1000 Ang^3
#
#
#
# Elastic Constant Matrix: (Units=GPa)
#
#
# Indices 1 2 3 4 5 6 
#
# 1 106.6477 42.1440 34.7764 0.0000 0.0000 0.0000
# 2 42.1440 51.7819 30.8085 0.0000 0.0000 0.0000
# 3 34.7764 30.8085 75.0960 0.0000 0.0000 0.0000
# 4 0.0000 0.0000 0.0000 18.0074 0.0000 0.0000
# 5 0.0000 0.0000 0.0000 0.0000 18.4597 0.0000
# 6 0.0000 0.0000 0.0000 0.0000 0.0000 20.6038
#
#
#
# Elastic Compliance Matrix: (Units=1/GPa)
#
#
# Indices 1 2 3 4 5 6 
#
# 1 0.014146 -0.010075 -0.002418 0.000000 0.000000 0.000000
# 2 -0.010075 0.032723 -0.008759 0.000000 0.000000 0.000000
# 3 -0.002418 -0.008759 0.018029 0.000000 0.000000 0.000000
# 4 0.000000 0.000000 0.000000 0.055533 0.000000 0.000000
# 5 0.000000 0.000000 0.000000 0.000000 0.054172 0.000000
# 6 0.000000 0.000000 0.000000 0.000000 0.000000 0.048535
#
#
# Mechanical properties :
#
#
# Convention : Reuss Voigt Hill
#
# Bulk Modulus (GPa) = 44.65269 49.88704 47.26986
# Shear Modulus (GPa) = 18.30787 19.80063 19.05425
#
# Velocity S-wave (km/s) = 3.52639 3.66734 3.59756
# Velocity P-wave (km/s) = 6.84913 7.19846 7.02596
#
# Compressibility (1/GPa) = 0.02239507
#
# Stress axis : x y z
#
# Youngs Moduli (GPa) = 70.68950 30.55971 55.46488
#
# Poissons Ratio (x) = 0.30788 0.13410
# Poissons Ratio (y) = 0.71219 0.48582
# Poissons Ratio (z) = 0.17092 0.26767
#
# Static dielectric constant tensor:
#      x y z
#    x 3.224510 0.000000 0.000000 
#    y 0.000000 2.635200 0.000000 
#    z 0.000000 0.000000 2.832290 
# 
# 
# High freq. dielectric constant tensor:
#      x y z
#    x 1.561600 0.000000 0.000000 
#    y 0.000000 1.528890 0.000000 
#    z 0.000000 0.000000 1.558330 
# 
# From -- ./inp_files/30319.got.cif
#   From: 2010.06.25/outbox.cif.g09.slc.cpg/sg71_16_cif.got.tgz:30319.got - 2010.06.28 04:59:45.
