data_PCOD8287086
_publ_section_title
;
Structure prediction by ZEFSAII (Michael W. Deem and Ramdas Pophale) SiO2 
 PCOD8287086
Probable space group: I M M M
;
_chemical_formula_sum "Si O2"
_cell_formula_units_Z 104
_cell_length_a 12.100221
_cell_length_b 30.557157
_cell_length_c 20.034004
_cell_angle_alpha 90.000000
_cell_angle_beta 90.000000
_cell_angle_gamma 90.000000
_cell_volume 7407.539980
_symmetry_space_group_name_H-M "I M M M"
_symmetry_group_IT_number 71
_symmetry_cell_setting 'orthorhombic'
loop_
_space_group_symop_operation_xyz
x,y,z
-x,-y,z
x,-y,-z
-x,y,-z
-x,-y,-z
x,y,-z
-x,y,z
x,-y,z
1/2+x,1/2+y,1/2+z
1/2-x,1/2-y,1/2+z
1/2+x,1/2-y,1/2-z
1/2-x,1/2+y,1/2-z
1/2-x,1/2-y,1/2-z
1/2+x,1/2+y,1/2-z
1/2-x,1/2+y,1/2+z
1/2+x,1/2-y,1/2+z
loop_
_atom_site_type_symbol
_atom_site_label
_atom_site_fract_x
_atom_site_fract_y
_atom_site_fract_z
Si Si1 0.000000 0.080090 0.424721
Si Si2 0.368226 0.875587 0.348498
Si Si3 0.118841 0.290763 0.076602
Si Si4 0.276880 0.764360 0.854084
Si Si5 0.775716 0.821041 0.262979
Si Si6 0.500000 0.744962 0.081303
Si Si7 0.500000 0.339651 0.172122
Si Si8 0.742424 0.549527 0.076104
O O1 0.889710 0.051725 0.413467
O O2 0.000000 0.099805 0.500000
O O3 0.000000 0.116640 0.369211
O O4 0.500000 0.882564 0.342577
O O5 0.330653 0.836691 0.398290
O O6 0.315368 0.858824 0.278647
O O7 0.310573 0.919807 0.373551
O O8 0.190906 0.247212 0.087538
O O9 0.000000 0.283739 0.112386
O O10 0.101750 0.297632 0.000000
O O11 0.243291 0.808395 0.814722
O O12 0.262925 0.722887 0.805691
O O13 0.394794 0.770899 0.889673
O O14 0.897247 0.839148 0.277472
O O15 0.500000 0.697345 0.114914
O O16 0.500000 0.742053 0.000000
O O17 0.779458 0.500000 0.091372
O O18 0.773049 0.562395 0.000000
#
# Coordination Sequence:
#
# PCOD8287086 Si02
#       8
#     8  16  16  16  16   8   8  16
#     4  10  18  30  46  63  82 105 137 183 227 256
#     4  10  19  30  44  59  79 107 139 175 212 256
#     4   9  17  28  41  57  78 105 137 172 210 246
#     4   9  18  28  40  58  81 107 134 173 212 248
#     4   9  18  29  42  60  79 104 137 176 215 251
#     4  10  19  28  41  62  86 112 142 177 215 251
#     4  10  17  29  46  64  80 104 146 188 217 248
#     4  10  20  32  45  61  81 106 138 178 222 261
#
# _framework density 14.039747999999999
#
# number of rings (size 3 to 8) (size 9 to 14) (size 15 to 20)
#    0.000    2.462    1.538    1.385    2.154    2.154 
#    0.000    0.769    0.000    0.000    0.000    0.000 
#    0.000    0.000    0.000    0.000    0.000    3.846 
#
# Total GULP energy -644239.360859 kJ/mol
# GULP energy per Si atom -12389.218478 kJ/mol
# Density = 1.400779 g / cm^3
# Si number density = 14.039748 Si / 1000 Ang^3
#
#
#
# Elastic Constant Matrix: (Units=GPa)
#
#
# Indices 1 2 3 4 5 6 
#
# 1 88.7593 37.0743 23.5681 0.0000 0.0000 0.0000
# 2 37.0743 67.0898 33.9812 0.0000 0.0000 0.0000
# 3 23.5681 33.9812 42.6830 -0.0003 0.0002 0.0000
# 4 0.0000 0.0000 -0.0003 21.5862 0.0001 0.0000
# 5 0.0000 0.0000 0.0002 0.0001 37.6172 0.0000
# 6 0.0000 0.0000 0.0000 0.0000 0.0000 16.0620
#
#
#
# Elastic Compliance Matrix: (Units=1/GPa)
#
#
# Indices 1 2 3 4 5 6 
#
# 1 0.014843 -0.006789 -0.002791 0.000000 0.000000 0.000000
# 2 -0.006789 0.028082 -0.018608 0.000000 0.000000 0.000000
# 3 -0.002791 -0.018608 0.039784 0.000001 0.000000 0.000000
# 4 0.000000 0.000000 0.000001 0.046326 0.000000 0.000000
# 5 0.000000 0.000000 0.000000 0.000000 0.026584 0.000000
# 6 0.000000 0.000000 0.000000 0.000000 0.000000 0.062259
#
#
# Mechanical properties :
#
#
# Convention : Reuss Voigt Hill
#
# Bulk Modulus (GPa) = 37.97519 43.08657 40.53088
# Shear Modulus (GPa) = 17.66582 21.98032 19.82307
#
# Velocity S-wave (km/s) = 3.55106 3.96103 3.76164
# Velocity P-wave (km/s) = 6.62725 7.18855 6.91360
#
# Compressibility (1/GPa) = 0.02633298
#
# Stress axis : x y z
#
# Youngs Moduli (GPa) = 67.37103 35.60988 25.13542
#
# Poissons Ratio (x) = 0.24174 0.07016
# Poissons Ratio (y) = 0.45736 0.46773
# Poissons Ratio (z) = 0.18805 0.66265
#
# Static dielectric constant tensor:
#      x y z
#    x 3.126460 0.000000 0.000000 
#    y 0.000000 2.538120 0.000000 
#    z 0.000000 0.000000 2.671470 
# 
# 
# High freq. dielectric constant tensor:
#      x y z
#    x 1.555270 0.000000 0.000000 
#    y 0.000000 1.498130 0.000000 
#    z 0.000000 0.000000 1.506180 
# 
# From -- ./inp_files/52446.got.cif
#   From: 2010.06.25/outbox.cif.g09.slc.cpg/sg71_27_cif.got.tgz:52446.got - 2010.06.28 04:59:45.
