data_PCOD8287111
_publ_section_title
;
Structure prediction by ZEFSAII (Michael W. Deem and Ramdas Pophale) SiO2 
 PCOD8287111
Probable space group: I M M M
;
_chemical_formula_sum "Si O2"
_cell_formula_units_Z 96
_cell_length_a 27.489946
_cell_length_b 29.639914
_cell_length_c 8.955261
_cell_angle_alpha 90.000000
_cell_angle_beta 90.000000
_cell_angle_gamma 90.000000
_cell_volume 7296.743397
_symmetry_space_group_name_H-M "I M M M"
_symmetry_group_IT_number 71
_symmetry_cell_setting 'orthorhombic'
loop_
_space_group_symop_operation_xyz
x,y,z
-x,-y,z
x,-y,-z
-x,y,-z
-x,-y,-z
x,y,-z
-x,y,z
x,-y,z
1/2+x,1/2+y,1/2+z
1/2-x,1/2-y,1/2+z
1/2+x,1/2-y,1/2-z
1/2-x,1/2+y,1/2-z
1/2-x,1/2-y,1/2-z
1/2+x,1/2+y,1/2-z
1/2-x,1/2+y,1/2+z
1/2+x,1/2-y,1/2+z
loop_
_atom_site_type_symbol
_atom_site_label
_atom_site_fract_x
_atom_site_fract_y
_atom_site_fract_z
Si Si1 0.322322 0.768753 0.831633
Si Si2 0.836882 0.131608 0.826065
Si Si3 0.599391 0.550060 0.322640
Si Si4 0.255759 0.319148 0.832402
Si Si5 0.000000 0.094743 0.822552
Si Si6 0.597032 0.717390 0.674502
Si Si7 0.000000 0.807794 0.322490
O O1 0.287649 0.725693 0.830541
O O2 0.293658 0.811072 0.760452
O O3 0.369866 0.758499 0.733265
O O4 0.337761 0.781178 0.000000
O O5 0.858784 0.084275 0.767031
O O6 0.786719 0.140331 0.739538
O O7 0.876915 0.169797 0.793340
O O8 0.824177 0.130318 0.000000
O O9 0.599255 0.549238 0.500000
O O10 0.609615 0.500000 0.257964
O O11 0.546712 0.566718 0.268358
O O12 0.241430 0.332815 0.000000
O O13 0.000000 0.142355 0.742740
O O14 0.000000 0.103480 0.000000
O O15 0.586907 0.724136 0.500000
O O16 0.546974 0.719051 0.764725
O O17 0.000000 0.809401 0.500000
#
# Coordination Sequence:
#
# PCOD8287111 Si02
#       7
#    16  16  16  16   8  16   8
#     4   9  16  26  39  57  76  93 113 142 178 217
#     4   9  16  26  40  56  72  91 117 152 191 229
#     4   9  16  26  42  60  73  89 121 163 202 239
#     4   9  16  25  38  55  74  95 116 139 174 221
#     4  10  17  30  44  56  68  90 124 162 202 241
#     4  10  18  29  42  55  72  95 122 152 186 225
#     4  12  22  29  39  55  74  98 126 158 193 231
#
# _framework density 13.156554
#
# number of rings (size 3 to 8) (size 9 to 14) (size 15 to 20)
#    0.000    2.500    1.667    2.500    0.000    5.667 
#    0.000    0.000    0.000    2.500    0.000    0.000 
#    0.000    0.000    0.000    0.000    0.000    0.000 
#
# Total GULP energy -595128.230629 kJ/mol
# GULP energy per Si atom -12398.504805 kJ/mol
# Density = 1.312661 g / cm^3
# Si number density = 13.156554 Si / 1000 Ang^3
#
#
#
# Elastic Constant Matrix: (Units=GPa)
#
#
# Indices 1 2 3 4 5 6 
#
# 1 77.5898 51.8862 36.3842 0.0000 0.0000 0.0000
# 2 51.8862 56.2282 24.5577 0.0000 0.0000 0.0000
# 3 36.3842 24.5577 68.6265 0.0000 0.0000 0.0000
# 4 0.0000 0.0000 0.0000 11.0365 0.0000 0.0000
# 5 0.0000 0.0000 0.0000 0.0000 21.3078 0.0000
# 6 0.0000 0.0000 0.0000 0.0000 0.0000 14.9709
#
#
#
# Elastic Compliance Matrix: (Units=1/GPa)
#
#
# Indices 1 2 3 4 5 6 
#
# 1 0.037796 -0.030965 -0.008958 0.000000 0.000000 0.000000
# 2 -0.030965 0.046448 -0.000204 0.000000 0.000000 0.000000
# 3 -0.008958 -0.000204 0.019394 0.000000 0.000000 0.000000
# 4 0.000000 0.000000 0.000000 0.090609 0.000000 0.000000
# 5 0.000000 0.000000 0.000000 0.000000 0.046931 0.000000
# 6 0.000000 0.000000 0.000000 0.000000 0.000000 0.066796
#
#
# Mechanical properties :
#
#
# Convention : Reuss Voigt Hill
#
# Bulk Modulus (GPa) = 42.76515 47.56676 45.16595
# Shear Modulus (GPa) = 12.62556 15.43746 14.03151
#
# Velocity S-wave (km/s) = 3.10117 3.42916 3.26928
# Velocity P-wave (km/s) = 6.73783 7.20498 6.97532
#
# Compressibility (1/GPa) = 0.02338353
#
# Stress axis : x y z
#
# Youngs Moduli (GPa) = 26.45793 21.52963 51.56248
#
# Poissons Ratio (x) = 0.66666 0.46189
# Poissons Ratio (y) = 0.81927 0.01053
# Poissons Ratio (z) = 0.23701 0.00440
#
# Static dielectric constant tensor:
#      x y z
#    x 2.677330 0.000000 0.000000 
#    y 0.000000 2.485830 0.000000 
#    z 0.000000 0.000000 2.653570 
# 
# 
# High freq. dielectric constant tensor:
#      x y z
#    x 1.487210 0.000000 0.000000 
#    y 0.000000 1.453640 0.000000 
#    z 0.000000 0.000000 1.502220 
# 
# From -- ./inp_files/17584.got.cif
#   From: 2010.06.25/outbox.cif.g09.slc.cpg/sg71_9_cif.got.tgz:17584.got - 2010.06.28 04:59:45.
