data_PCOD8287963
_publ_section_title
;
Structure prediction by ZEFSAII (Michael W. Deem and Ramdas Pophale) SiO2 
 PCOD8287963
Probable space group: I M M M
;
_chemical_formula_sum "Si O2"
_cell_formula_units_Z 72
_cell_length_a 30.514761
_cell_length_b 7.812484
_cell_length_c 15.132810
_cell_angle_alpha 90.000000
_cell_angle_beta 90.000000
_cell_angle_gamma 90.000000
_cell_volume 3607.602615
_symmetry_space_group_name_H-M "I M M M"
_symmetry_group_IT_number 71
_symmetry_cell_setting 'orthorhombic'
loop_
_space_group_symop_operation_xyz
x,y,z
-x,-y,z
x,-y,-z
-x,y,-z
-x,-y,-z
x,y,-z
-x,y,z
x,-y,z
1/2+x,1/2+y,1/2+z
1/2-x,1/2-y,1/2+z
1/2+x,1/2-y,1/2-z
1/2-x,1/2+y,1/2-z
1/2-x,1/2-y,1/2-z
1/2+x,1/2+y,1/2-z
1/2-x,1/2+y,1/2+z
1/2+x,1/2-y,1/2+z
loop_
_atom_site_type_symbol
_atom_site_label
_atom_site_fract_x
_atom_site_fract_y
_atom_site_fract_z
Si Si1 0.950123 0.305059 0.719483
Si Si2 0.448461 0.500000 0.095795
Si Si3 0.634507 0.800969 0.318016
Si Si4 0.234681 0.703892 0.500000
Si Si5 0.291644 0.798653 0.191211
Si Si6 0.166251 0.302981 0.000000
O O1 0.945592 0.500000 0.683552
O O2 0.917191 0.272903 0.800771
O O3 0.000000 0.268679 0.751189
O O4 0.934584 0.174604 0.644131
O O5 0.500000 0.500000 0.084991
O O6 0.425560 0.500000 0.000000
O O7 0.664830 0.722609 0.239346
O O8 0.646210 0.713616 0.411976
O O9 0.646550 0.000000 0.323444
O O10 0.239089 0.500000 0.500000
O O11 0.210934 0.771327 0.589911
O O12 0.282093 0.787106 0.500000
O O13 0.250000 0.750000 0.250000
O O14 0.294682 0.000000 0.184251
O O15 0.151941 0.500000 0.000000
#
# Coordination Sequence:
#
# PCOD8287963 Si02
#       6
#    16   8  16   8  16   8
#     4   9  18  35  57  79 109 148 184 221 272 327
#     4   9  18  34  56  81 109 139 181 232 274 319
#     4   9  18  33  53  78 104 138 180 221 268 320
#     4  10  20  32  48  75 104 135 172 214 268 321
#     4  10  19  33  51  72 103 136 172 217 265 314
#     4  10  18  32  55  76 103 138 177 220 264 316
#
# _framework density 19.957851000000002
#
# number of rings (size 3 to 8) (size 9 to 14) (size 15 to 20)
#    0.000    2.556    2.222    0.000    0.000    0.444 
#    6.000    2.778    0.000    3.333    0.000    2.333 
#    0.000    0.000    0.000    0.000    0.000    0.000 
#
# Total GULP energy -446066.838110 kJ/mol
# GULP energy per Si atom -12390.745503 kJ/mol
# Density = 1.991243 g / cm^3
# Si number density = 19.957851 Si / 1000 Ang^3
#
#
#
# Elastic Constant Matrix: (Units=GPa)
#
#
# Indices 1 2 3 4 5 6 
#
# 1 120.0834 17.2718 81.8614 0.0000 0.0000 0.0000
# 2 17.2718 47.5727 29.1154 0.0000 0.0000 0.0000
# 3 81.8614 29.1154 208.3466 0.0000 0.0000 0.0000
# 4 0.0000 0.0000 0.0000 6.5972 0.0000 0.0000
# 5 0.0000 0.0000 0.0000 0.0000 22.6169 0.0000
# 6 0.0000 0.0000 0.0000 0.0000 0.0000 18.7261
#
#
#
# Elastic Compliance Matrix: (Units=1/GPa)
#
#
# Indices 1 2 3 4 5 6 
#
# 1 0.011476 -0.001538 -0.004294 0.000000 0.000000 0.000000
# 2 -0.001538 0.023193 -0.002637 0.000000 0.000000 0.000000
# 3 -0.004294 -0.002637 0.006855 0.000000 0.000000 0.000000
# 4 0.000000 0.000000 0.000000 0.151580 0.000000 0.000000
# 5 0.000000 0.000000 0.000000 0.000000 0.044215 0.000000
# 6 0.000000 0.000000 0.000000 0.000000 0.000000 0.053401
#
#
# Mechanical properties :
#
#
# Convention : Reuss Voigt Hill
#
# Bulk Modulus (GPa) = 40.67383 70.27778 55.47581
# Shear Modulus (GPa) = 15.83012 26.10497 20.96755
#
# Velocity S-wave (km/s) = 2.81940 3.62056 3.24480
# Velocity P-wave (km/s) = 5.56981 7.26412 6.47264
#
# Compressibility (1/GPa) = 0.02458583
#
# Stress axis : x y z
#
# Youngs Moduli (GPa) = 87.13746 43.11710 145.87195
#
# Poissons Ratio (x) = 0.06633 0.62639
# Poissons Ratio (y) = 0.13406 0.38460
# Poissons Ratio (z) = 0.37418 0.11368
#
# Static dielectric constant tensor:
#      x y z
#    x 3.511420 0.000000 0.000000 
#    y 0.000000 3.555890 0.000000 
#    z 0.000000 0.000000 4.175150 
# 
# 
# High freq. dielectric constant tensor:
#      x y z
#    x 1.765920 0.000000 0.000000 
#    y 0.000000 1.759410 0.000000 
#    z 0.000000 0.000000 1.778850 
# 
# From -- ./inp_files/16435.got.cif
#   From: 2010.06.25/outbox.cif.g09.slc.cpg/sg71_9_cif.got.tgz:16435.got - 2010.06.28 04:59:45.
