data_PCOD8287928
_publ_section_title
;
Structure prediction by ZEFSAII (Michael W. Deem and Ramdas Pophale) SiO2 
 PCOD8287928
Probable space group: I M M M
;
_chemical_formula_sum "Si O2"
_cell_formula_units_Z 128
_cell_length_a 17.803661
_cell_length_b 21.851137
_cell_length_c 18.462882
_cell_angle_alpha 90.000000
_cell_angle_beta 90.000000
_cell_angle_gamma 90.000000
_cell_volume 7182.619335
_symmetry_space_group_name_H-M "I M M M"
_symmetry_group_IT_number 71
_symmetry_cell_setting 'orthorhombic'
loop_
_space_group_symop_operation_xyz
x,y,z
-x,-y,z
x,-y,-z
-x,y,-z
-x,-y,-z
x,y,-z
-x,y,z
x,-y,z
1/2+x,1/2+y,1/2+z
1/2-x,1/2-y,1/2+z
1/2+x,1/2-y,1/2-z
1/2-x,1/2+y,1/2-z
1/2-x,1/2-y,1/2-z
1/2+x,1/2+y,1/2-z
1/2-x,1/2+y,1/2+z
1/2+x,1/2-y,1/2+z
loop_
_atom_site_type_symbol
_atom_site_label
_atom_site_fract_x
_atom_site_fract_y
_atom_site_fract_z
Si Si1 0.917347 0.722090 0.225119
Si Si2 0.364382 0.191988 0.420738
Si Si3 0.586912 0.331238 0.173208
Si Si4 0.584161 0.072147 0.918824
Si Si5 0.800051 0.070548 0.713359
Si Si6 0.702068 0.743087 0.917720
Si Si7 0.308302 0.856052 0.184620
Si Si8 0.811137 0.433234 0.081117
O O1 0.911936 0.728618 0.138265
O O2 0.903289 0.789232 0.256073
O O3 0.856341 0.673093 0.250587
O O4 0.000000 0.698838 0.247779
O O5 0.392470 0.213461 0.500000
O O6 0.275232 0.201370 0.412245
O O7 0.375124 0.118710 0.409769
O O8 0.500000 0.339611 0.150273
O O9 0.620940 0.396949 0.194762
O O10 0.630848 0.296559 0.108716
O O11 0.500000 0.097108 0.903732
O O12 0.640645 0.098030 0.860304
O O13 0.584955 0.000000 0.911393
O O14 0.608820 0.091676 0.000000
O O15 0.759956 0.106485 0.779667
O O16 0.753306 0.074350 0.640072
O O17 0.814295 0.000000 0.736564
O O18 0.719222 0.802463 0.868613
O O19 0.685854 0.764133 0.000000
O O20 0.849605 0.500000 0.090741
O O21 0.775508 0.427302 0.000000
#
# Coordination Sequence:
#
# PCOD8287928 Si02
#       8
#    16  16  16  16  16  16  16  16
#     4  10  20  33  49  72 101 134 166 201 252 306
#     4  10  18  32  52  72  97 128 164 207 251 299
#     4  10  21  36  52  72 105 141 171 214 264 311
#     4   9  18  32  48  67  96 133 166 199 247 305
#     4  11  21  33  54  78 101 136 180 221 262 307
#     4  10  20  33  52  77 101 131 167 207 262 319
#     4  11  19  32  50  74 103 131 168 213 253 305
#     4   9  17  30  49  71  96 129 166 203 247 296
#
# _framework density 17.820796000000001
#
# number of rings (size 3 to 8) (size 9 to 14) (size 15 to 20)
#    0.000    2.000    2.500    2.250    0.000    3.250 
#    0.000    0.000    0.000    1.125    0.000    4.375 
#    0.000    0.000    0.000   15.875    0.000    0.000 
#
# Total GULP energy -793292.466215 kJ/mol
# GULP energy per Si atom -12395.194785 kJ/mol
# Density = 1.778024 g / cm^3
# Si number density = 17.820796 Si / 1000 Ang^3
#
#
#
# Elastic Constant Matrix: (Units=GPa)
#
#
# Indices 1 2 3 4 5 6 
#
# 1 42.0615 24.5229 18.7573 0.0000 0.0000 0.0000
# 2 24.5229 84.8778 37.0602 0.0000 0.0000 0.0000
# 3 18.7573 37.0602 103.9513 -0.0001 -0.0001 0.0000
# 4 0.0000 0.0000 -0.0001 22.0037 -0.0001 0.0000
# 5 0.0000 0.0000 -0.0001 -0.0001 15.9906 0.0000
# 6 0.0000 0.0000 0.0000 0.0000 0.0000 24.5025
#
#
#
# Elastic Compliance Matrix: (Units=1/GPa)
#
#
# Indices 1 2 3 4 5 6 
#
# 1 0.029207 -0.007269 -0.002679 0.000000 0.000000 0.000000
# 2 -0.007269 0.015763 -0.004308 0.000000 0.000000 0.000000
# 3 -0.002679 -0.004308 0.011639 0.000000 0.000000 0.000000
# 4 0.000000 0.000000 0.000000 0.045447 0.000000 0.000000
# 5 0.000000 0.000000 0.000000 0.000000 0.062537 0.000000
# 6 0.000000 0.000000 0.000000 0.000000 0.000000 0.040812
#
#
# Mechanical properties :
#
#
# Convention : Reuss Voigt Hill
#
# Bulk Modulus (GPa) = 35.59010 43.50793 39.54901
# Shear Modulus (GPa) = 20.55224 22.53604 21.54414
#
# Velocity S-wave (km/s) = 3.39967 3.55997 3.48074
# Velocity P-wave (km/s) = 5.95187 6.43156 6.19636
#
# Compressibility (1/GPa) = 0.02809770
#
# Stress axis : x y z
#
# Youngs Moduli (GPa) = 34.23809 63.44049 85.91702
#
# Poissons Ratio (x) = 0.46114 0.23015
# Poissons Ratio (y) = 0.24887 0.37013
# Poissons Ratio (z) = 0.09172 0.27330
#
# Static dielectric constant tensor:
#      x y z
#    x 3.108630 0.000000 0.000000 
#    y 0.000000 3.417080 0.000000 
#    z 0.000000 0.000000 3.462560 
# 
# 
# High freq. dielectric constant tensor:
#      x y z
#    x 1.660600 0.000000 0.000000 
#    y 0.000000 1.690690 0.000000 
#    z 0.000000 0.000000 1.700430 
# 
# From -- ./inp_files/46657.got.cif
#   From: 2010.06.25/outbox.cif.g09.slc.cpg/sg71_24_cif.got.tgz:46657.got - 2010.06.28 04:59:45.
