data_PCOD8287538
_publ_section_title
;
Structure prediction by ZEFSAII (Michael W. Deem and Ramdas Pophale) SiO2 
 PCOD8287538
Probable space group: I M M M
;
_chemical_formula_sum "Si O2"
_cell_formula_units_Z 72
_cell_length_a 13.774378
_cell_length_b 25.896774
_cell_length_c 10.254435
_cell_angle_alpha 90.000000
_cell_angle_beta 90.000000
_cell_angle_gamma 90.000000
_cell_volume 3657.879547
_symmetry_space_group_name_H-M "I M M M"
_symmetry_group_IT_number 71
_symmetry_cell_setting 'orthorhombic'
loop_
_space_group_symop_operation_xyz
x,y,z
-x,-y,z
x,-y,-z
-x,y,-z
-x,-y,-z
x,y,-z
-x,y,z
x,-y,z
1/2+x,1/2+y,1/2+z
1/2-x,1/2-y,1/2+z
1/2+x,1/2-y,1/2-z
1/2-x,1/2+y,1/2-z
1/2-x,1/2-y,1/2-z
1/2+x,1/2+y,1/2-z
1/2-x,1/2+y,1/2+z
1/2+x,1/2-y,1/2+z
loop_
_atom_site_type_symbol
_atom_site_label
_atom_site_fract_x
_atom_site_fract_y
_atom_site_fract_z
Si Si1 0.388320 0.219525 0.500000
Si Si2 0.756671 0.314824 0.500000
Si Si3 0.889560 0.657606 0.737545
Si Si4 0.392873 0.593818 0.500000
Si Si5 0.603776 0.558213 0.218501
Si Si6 0.309543 0.940228 0.646836
O O1 0.500000 0.240001 0.500000
O O2 0.310645 0.264919 0.500000
O O3 0.367725 0.184968 0.374038
O O4 0.822803 0.316295 0.371515
O O5 0.687642 0.363199 0.500000
O O6 0.871164 0.596104 0.756791
O O7 0.000000 0.665113 0.692357
O O8 0.500000 0.619716 0.500000
O O9 0.379364 0.558445 0.626429
O O10 0.500000 0.586284 0.182587
O O11 0.594811 0.500000 0.170432
O O12 0.698170 0.581728 0.147799
O O13 0.350344 0.936401 0.500000
O O14 0.314791 0.000000 0.695998
#
# Coordination Sequence:
#
# PCOD8287538 Si02
#       6
#     8   8  16   8  16  16
#     4  10  23  43  67  88 113 150 199 248 297 357
#     4  12  22  39  62  89 117 153 188 242 303 352
#     4  11  23  41  62  88 120 156 197 244 296 347
#     4  10  18  29  51  80 109 141 185 231 281 347
#     4   9  17  30  49  76 112 151 188 232 288 345
#     4  10  20  35  58  86 116 158 205 241 285 350
#
# _framework density 19.683534000000002
#
# number of rings (size 3 to 8) (size 9 to 14) (size 15 to 20)
#    0.000    1.778    3.333    1.667    0.000    2.222 
#    0.000    3.889    0.000    2.667    0.000    0.000 
#    0.000    0.000    0.000    0.000    0.000    0.000 
#
# Total GULP energy -446127.956129 kJ/mol
# GULP energy per Si atom -12392.443226 kJ/mol
# Density = 1.963873 g / cm^3
# Si number density = 19.683534 Si / 1000 Ang^3
#
#
#
# Elastic Constant Matrix: (Units=GPa)
#
#
# Indices 1 2 3 4 5 6 
#
# 1 115.4382 48.8528 44.4914 0.0014 0.0004 0.0254
# 2 48.8528 82.1874 29.9590 -0.0022 0.0010 -0.0026
# 3 44.4914 29.9590 97.4908 -0.0106 0.0063 -0.0159
# 4 0.0014 -0.0022 -0.0106 16.7993 0.0020 -0.0202
# 5 0.0004 0.0010 0.0063 0.0020 35.8939 0.0201
# 6 0.0254 -0.0026 -0.0159 -0.0202 0.0201 198.5387
#
#
#
# Elastic Compliance Matrix: (Units=1/GPa)
#
#
# Indices 1 2 3 4 5 6 
#
# 1 0.012792 -0.006166 -0.003943 -0.000004 0.000001 -0.000002
# 2 -0.006166 0.016675 -0.002310 0.000001 0.000000 0.000001
# 3 -0.003943 -0.002310 0.012767 0.000008 -0.000002 0.000001
# 4 -0.000004 0.000001 0.000008 0.059526 -0.000003 0.000006
# 5 0.000001 0.000000 -0.000002 -0.000003 0.027860 -0.000003
# 6 -0.000002 0.000001 0.000001 0.000006 -0.000003 0.005037
#
#
# Mechanical properties :
#
#
# Convention : Reuss Voigt Hill
#
# Bulk Modulus (GPa) = 57.48865 60.19142 58.84004
# Shear Modulus (GPa) = 30.24935 61.70060 45.97497
#
# Velocity S-wave (km/s) = 3.92444 5.60485 4.83816
# Velocity P-wave (km/s) = 7.05725 8.51656 7.82102
#
# Compressibility (1/GPa) = 0.01739474
#
# Stress axis : x y z
#
# Youngs Moduli (GPa) = 78.17505 59.97115 78.32923
#
# Poissons Ratio (x) = 0.36980 0.30884
# Poissons Ratio (y) = 0.48205 0.18095
# Poissons Ratio (z) = 0.30823 0.13854
#
# Static dielectric constant tensor:
#      x y z
#    x 4.045280 0.000000 -0.000010 
#    y 0.000000 3.356540 0.000000 
#    z -0.000010 0.000000 3.610000 
# 
# 
# High freq. dielectric constant tensor:
#      x y z
#    x 1.781780 0.000000 0.000000 
#    y 0.000000 1.736380 0.000000 
#    z 0.000000 0.000000 1.764340 
# 
# From -- ./inp_files/19904.got.cif
#   From: 2010.06.25/outbox.cif.g09.slc.cpg/sg71_10_cif.got.tgz:19904.got - 2010.06.28 04:59:45.
