data_PCOD8287307
_publ_section_title
;
Structure prediction by ZEFSAII (Michael W. Deem and Ramdas Pophale) SiO2 
 PCOD8287307
Probable space group: I M M M
;
_chemical_formula_sum "Si O2"
_cell_formula_units_Z 96
_cell_length_a 22.068612
_cell_length_b 27.695131
_cell_length_c 8.989832
_cell_angle_alpha 90.000000
_cell_angle_beta 90.000000
_cell_angle_gamma 90.000000
_cell_volume 5494.523292
_symmetry_space_group_name_H-M "I M M M"
_symmetry_group_IT_number 71
_symmetry_cell_setting 'orthorhombic'
loop_
_space_group_symop_operation_xyz
x,y,z
-x,-y,z
x,-y,-z
-x,y,-z
-x,-y,-z
x,y,-z
-x,y,z
x,-y,z
1/2+x,1/2+y,1/2+z
1/2-x,1/2-y,1/2+z
1/2+x,1/2-y,1/2-z
1/2-x,1/2+y,1/2-z
1/2-x,1/2-y,1/2-z
1/2+x,1/2+y,1/2-z
1/2-x,1/2+y,1/2+z
1/2+x,1/2-y,1/2+z
loop_
_atom_site_type_symbol
_atom_site_label
_atom_site_fract_x
_atom_site_fract_y
_atom_site_fract_z
Si Si1 0.197791 0.863721 0.167408
Si Si2 0.500000 0.772110 0.327057
Si Si3 0.000000 0.376221 0.676604
Si Si4 0.760350 0.446077 0.824417
Si Si5 0.119440 0.392725 0.824504
Si Si6 0.320044 0.808183 0.829709
Si Si7 0.874355 0.224066 0.827097
O O1 0.206888 0.910862 0.268878
O O2 0.251632 0.825369 0.189452
O O3 0.137085 0.833175 0.207379
O O4 0.195663 0.883460 0.000000
O O5 0.500000 0.787222 0.500000
O O6 0.500000 0.820886 0.232027
O O7 0.442741 0.738573 0.286534
O O8 0.942281 0.405921 0.739048
O O9 0.000000 0.377068 0.500000
O O10 0.749639 0.500000 0.761994
O O11 0.826495 0.428005 0.770152
O O12 0.758322 0.445534 0.000000
O O13 0.135808 0.338317 0.778340
O O14 0.108707 0.395763 0.000000
O O15 0.326981 0.753442 0.774867
O O16 0.341892 0.813737 0.000000
O O17 0.859314 0.233898 0.000000
#
# Coordination Sequence:
#
# PCOD8287307 Si02
#       7
#    16   8   8  16  16  16  16
#     4   9  19  32  47  71  99 127 158 197 247 297
#     4  10  20  32  48  67  96 139 174 200 234 275
#     4  12  22  32  47  69  98 130 171 210 236 278
#     4   9  19  36  56  76  95 119 157 205 254 302
#     4  10  19  32  50  69  94 129 165 200 244 293
#     4  10  18  28  44  68  98 128 161 200 240 282
#     4  10  19  31  46  67  98 133 168 198 233 288
#
# _framework density 17.471943
#
# number of rings (size 3 to 8) (size 9 to 14) (size 15 to 20)
#    0.000    2.167    1.667    2.250    0.000    2.333 
#    0.000    0.417    0.000    2.500    0.000    0.583 
#    0.000    4.667    0.000    0.000    0.000    0.000 
#
# Total GULP energy -595069.695747 kJ/mol
# GULP energy per Si atom -12397.285328 kJ/mol
# Density = 1.743218 g / cm^3
# Si number density = 17.471943 Si / 1000 Ang^3
#
#
#
# Elastic Constant Matrix: (Units=GPa)
#
#
# Indices 1 2 3 4 5 6 
#
# 1 40.9161 32.3788 18.3229 0.0000 0.0000 0.0000
# 2 32.3788 107.4998 30.7906 0.0000 0.0000 0.0000
# 3 18.3229 30.7906 60.0900 0.0000 0.0000 0.0000
# 4 0.0000 0.0000 0.0000 22.9250 0.0000 0.0000
# 5 0.0000 0.0000 0.0000 0.0000 20.2688 0.0000
# 6 0.0000 0.0000 0.0000 0.0000 0.0000 18.0327
#
#
#
# Elastic Compliance Matrix: (Units=1/GPa)
#
#
# Indices 1 2 3 4 5 6 
#
# 1 0.033822 -0.008477 -0.005969 0.000000 0.000000 0.000000
# 2 -0.008477 0.013027 -0.004090 0.000000 0.000000 0.000000
# 3 -0.005969 -0.004090 0.020558 0.000000 0.000000 0.000000
# 4 0.000000 0.000000 0.000000 0.043621 0.000000 0.000000
# 5 0.000000 0.000000 0.000000 0.000000 0.049337 0.000000
# 6 0.000000 0.000000 0.000000 0.000000 0.000000 0.055455
#
#
# Mechanical properties :
#
#
# Convention : Reuss Voigt Hill
#
# Bulk Modulus (GPa) = 32.96729 41.27673 37.12201
# Shear Modulus (GPa) = 19.01108 20.71286 19.86197
#
# Velocity S-wave (km/s) = 3.30220 3.44683 3.37529
# Velocity P-wave (km/s) = 5.78352 6.28623 6.04011
#
# Compressibility (1/GPa) = 0.03033309
#
# Stress axis : x y z
#
# Youngs Moduli (GPa) = 29.56657 76.76182 48.64334
#
# Poissons Ratio (x) = 0.65074 0.29036
# Poissons Ratio (y) = 0.25065 0.19897
# Poissons Ratio (z) = 0.17649 0.31398
#
# Static dielectric constant tensor:
#      x y z
#    x 3.330370 0.000000 0.000000 
#    y 0.000000 3.186110 0.000000 
#    z 0.000000 0.000000 3.208720 
# 
# 
# High freq. dielectric constant tensor:
#      x y z
#    x 1.658300 0.000000 0.000000 
#    y 0.000000 1.650300 0.000000 
#    z 0.000000 0.000000 1.675460 
# 
# From -- ./inp_files/12936.got.cif
#   From: 2010.06.25/outbox.cif.g09.slc.cpg/sg71_7_cif.got.tgz:12936.got - 2010.06.28 04:59:45.
