data_PCOD8287168
_publ_section_title
;
Structure prediction by ZEFSAII (Michael W. Deem and Ramdas Pophale) SiO2 
 PCOD8287168
Probable space group: I M M M
;
_chemical_formula_sum "Si O2"
_cell_formula_units_Z 96
_cell_length_a 31.271799
_cell_length_b 27.256116
_cell_length_c 9.238718
_cell_angle_alpha 90.000000
_cell_angle_beta 90.000000
_cell_angle_gamma 90.000000
_cell_volume 7874.600787
_symmetry_space_group_name_H-M "I M M M"
_symmetry_group_IT_number 71
_symmetry_cell_setting 'orthorhombic'
loop_
_space_group_symop_operation_xyz
x,y,z
-x,-y,z
x,-y,-z
-x,y,-z
-x,-y,-z
x,y,-z
-x,y,z
x,-y,z
1/2+x,1/2+y,1/2+z
1/2-x,1/2-y,1/2+z
1/2+x,1/2-y,1/2-z
1/2-x,1/2+y,1/2-z
1/2-x,1/2-y,1/2-z
1/2+x,1/2+y,1/2-z
1/2-x,1/2+y,1/2+z
1/2+x,1/2-y,1/2+z
loop_
_atom_site_type_symbol
_atom_site_label
_atom_site_fract_x
_atom_site_fract_y
_atom_site_fract_z
Si Si1 0.838349 0.692554 0.160204
Si Si2 0.450681 0.055784 0.333161
Si Si3 0.249152 0.135999 0.664189
Si Si4 0.714057 0.719246 0.329872
Si Si5 0.380262 0.113066 0.831284
Si Si6 0.205507 0.443326 0.331441
O O1 0.792507 0.666720 0.169500
O O2 0.830648 0.750756 0.191202
O O3 0.870840 0.668041 0.273309
O O4 0.857749 0.685375 0.000000
O O5 0.437676 0.061647 0.500000
O O6 0.500000 0.069621 0.309819
O O7 0.423192 0.092775 0.238593
O O8 0.442274 0.000000 0.282291
O O9 0.233334 0.127701 0.500000
O O10 0.212566 0.165613 0.754211
O O11 0.257584 0.083683 0.740070
O O12 0.725189 0.713955 0.500000
O O13 0.750000 0.750000 0.250000
O O14 0.341262 0.077122 0.790683
O O15 0.387965 0.116974 0.000000
O O16 0.214908 0.434631 0.500000
O O17 0.206602 0.500000 0.288373
#
# Coordination Sequence:
#
# PCOD8287168 Si02
#       6
#    16  16  16  16  16  16
#     4   8  15  25  35  48  65  84 103 122 150 191
#     4   9  18  31  43  52  63  82 106 130 160 200
#     4   9  16  24  34  48  64  83 106 130 157 189
#     4   9  15  23  35  49  64  82 103 126 153 186
#     4  10  18  26  38  54  68  81 100 130 166 199
#     4   9  17  27  36  47  65  87 109 134 165 198
#
# _framework density 12.191094
#
# number of rings (size 3 to 8) (size 9 to 14) (size 15 to 20)
#    0.000    3.000    0.000    3.500    0.000    7.000 
#    0.000    0.833    0.000    0.000    0.000    0.000 
#    0.000    0.000    0.000    0.000    0.000    0.000 
#
# Total GULP energy -594899.007769 kJ/mol
# GULP energy per Si atom -12393.729329 kJ/mol
# Density = 1.216335 g / cm^3
# Si number density = 12.191094 Si / 1000 Ang^3
#
#
#
# Elastic Constant Matrix: (Units=GPa)
#
#
# Indices 1 2 3 4 5 6 
#
# 1 34.8277 34.8254 33.4749 0.0000 0.0000 0.0000
# 2 34.8254 65.7590 45.0217 0.0000 0.0000 0.0000
# 3 33.4749 45.0217 81.4058 0.0000 0.0000 0.0000
# 4 0.0000 0.0000 0.0000 20.3997 0.0000 0.0000
# 5 0.0000 0.0000 0.0000 0.0000 15.8742 0.0000
# 6 0.0000 0.0000 0.0000 0.0000 0.0000 19.6623
#
#
#
# Elastic Compliance Matrix: (Units=1/GPa)
#
#
# Indices 1 2 3 4 5 6 
#
# 1 0.068727 -0.027437 -0.013087 0.000000 0.000000 0.000000
# 2 -0.027437 0.035427 -0.008311 0.000000 0.000000 0.000000
# 3 -0.013087 -0.008311 0.022262 0.000000 0.000000 0.000000
# 4 0.000000 0.000000 0.000000 0.049020 0.000000 0.000000
# 5 0.000000 0.000000 0.000000 0.000000 0.062995 0.000000
# 6 0.000000 0.000000 0.000000 0.000000 0.000000 0.050859
#
#
# Mechanical properties :
#
#
# Convention : Reuss Voigt Hill
#
# Bulk Modulus (GPa) = 34.78703 45.40405 40.09554
# Shear Modulus (GPa) = 12.60898 15.76527 14.18713
#
# Velocity S-wave (km/s) = 3.21951 3.59998 3.41505
# Velocity P-wave (km/s) = 6.51284 7.38947 6.96496
#
# Compressibility (1/GPa) = 0.02874634
#
# Stress axis : x y z
#
# Youngs Moduli (GPa) = 14.55036 28.22671 44.91972
#
# Poissons Ratio (x) = 0.77446 0.58786
# Poissons Ratio (y) = 0.39922 0.37332
# Poissons Ratio (z) = 0.19042 0.23459
#
# Static dielectric constant tensor:
#      x y z
#    x 2.208960 0.000000 0.000000 
#    y 0.000000 2.715040 0.000000 
#    z 0.000000 0.000000 2.638370 
# 
# 
# High freq. dielectric constant tensor:
#      x y z
#    x 1.404940 0.000000 0.000000 
#    y 0.000000 1.451190 0.000000 
#    z 0.000000 0.000000 1.478000 
# 
# From -- ./inp_files/13140.got.cif
#   From: 2010.06.25/outbox.cif.g09.slc.cpg/sg71_7_cif.got.tgz:13140.got - 2010.06.28 04:59:45.
