data_PCOD8287229
_publ_section_title
;
Structure prediction by ZEFSAII (Michael W. Deem and Ramdas Pophale) SiO2 
 PCOD8287229
Probable space group: I M M M
;
_chemical_formula_sum "Si O2"
_cell_formula_units_Z 104
_cell_length_a 32.362729
_cell_length_b 28.447494
_cell_length_c 8.878660
_cell_angle_alpha 90.000000
_cell_angle_beta 90.000000
_cell_angle_gamma 90.000000
_cell_volume 8174.036571
_symmetry_space_group_name_H-M "I M M M"
_symmetry_group_IT_number 71
_symmetry_cell_setting 'orthorhombic'
loop_
_space_group_symop_operation_xyz
x,y,z
-x,-y,z
x,-y,-z
-x,y,-z
-x,-y,-z
x,y,-z
-x,y,z
x,-y,z
1/2+x,1/2+y,1/2+z
1/2-x,1/2-y,1/2+z
1/2+x,1/2-y,1/2-z
1/2-x,1/2+y,1/2-z
1/2-x,1/2-y,1/2-z
1/2+x,1/2+y,1/2-z
1/2-x,1/2+y,1/2+z
1/2+x,1/2-y,1/2+z
loop_
_atom_site_type_symbol
_atom_site_label
_atom_site_fract_x
_atom_site_fract_y
_atom_site_fract_z
Si Si1 0.811617 0.266696 0.333214
Si Si2 0.138855 0.500000 0.331724
Si Si3 0.154219 0.646748 0.822789
Si Si4 0.913916 0.592388 0.673001
Si Si5 0.231182 0.596105 0.679492
Si Si6 0.722963 0.314442 0.666549
Si Si7 0.723439 0.000000 0.323221
Si Si8 0.000000 0.553197 0.320718
O O1 0.831243 0.265648 0.500000
O O2 0.839445 0.299116 0.225533
O O3 0.765824 0.286862 0.340302
O O4 0.809576 0.213149 0.271363
O O5 0.158673 0.500000 0.500000
O O6 0.110447 0.544397 0.307567
O O7 0.174683 0.500000 0.208445
O O8 0.107954 0.632091 0.774603
O O9 0.186623 0.612299 0.740755
O O10 0.160502 0.641992 0.000000
O O11 0.914257 0.609406 0.500000
O O12 0.960120 0.582674 0.733671
O O13 0.227232 0.593188 0.500000
O O14 0.266954 0.633143 0.727803
O O15 0.244005 0.546148 0.749188
O O16 0.703530 0.317237 0.500000
O O17 0.731866 0.000000 0.500000
O O18 0.000000 0.500000 0.253567
O O19 0.000000 0.548810 0.500000
#
# Coordination Sequence:
#
# PCOD8287229 Si02
#       8
#    16   8  16  16  16  16   8   8
#     4   9  16  26  40  55  71  90 110 134 169 210
#     4  10  18  27  42  54  68  91 113 142 178 220
#     4  11  20  28  39  55  73  90 113 143 176 213
#     4  10  18  29  44  58  71  88 114 145 181 223
#     4  10  19  30  41  52  70  95 119 141 173 212
#     4   8  15  26  39  54  70  89 112 138 167 204
#     4  12  22  28  37  55  75  93 119 150 180 211
#     4   9  16  28  45  61  69  85 117 147 177 222
#
# _framework density 12.723210999999999
#
# number of rings (size 3 to 8) (size 9 to 14) (size 15 to 20)
#    0.000    2.231    2.308    3.923    0.000    4.308 
#    0.000    0.385    0.000    0.462    0.000    0.000 
#    0.000    0.000    0.000    0.000    0.000    0.000 
#
# Total GULP energy -644605.387184 kJ/mol
# GULP energy per Si atom -12396.257446 kJ/mol
# Density = 1.269425 g / cm^3
# Si number density = 12.723211 Si / 1000 Ang^3
#
#
#
# Elastic Constant Matrix: (Units=GPa)
#
#
# Indices 1 2 3 4 5 6 
#
# 1 33.9938 35.6306 20.2676 0.0000 0.0000 0.0000
# 2 35.6306 95.2816 40.3803 0.0000 0.0000 0.0000
# 3 20.2676 40.3803 76.0789 0.0000 0.0000 0.0000
# 4 0.0000 0.0000 0.0000 19.5296 0.0000 0.0000
# 5 0.0000 0.0000 0.0000 0.0000 10.4740 0.0000
# 6 0.0000 0.0000 0.0000 0.0000 0.0000 -266.4538
#
#
#
# Elastic Compliance Matrix: (Units=1/GPa)
#
#
# Indices 1 2 3 4 5 6 
#
# 1 0.049464 -0.016660 -0.004335 0.000000 0.000000 0.000000
# 2 -0.016660 0.019152 -0.005727 0.000000 0.000000 0.000000
# 3 -0.004335 -0.005727 0.017339 0.000000 0.000000 0.000000
# 4 0.000000 0.000000 0.000000 0.051204 0.000000 0.000000
# 5 0.000000 0.000000 0.000000 0.000000 0.095475 0.000000
# 6 0.000000 0.000000 0.000000 0.000000 0.000000 -0.003753
#
#
# Mechanical properties :
#
#
# Convention : Reuss Voigt Hill
#
# Bulk Modulus (GPa) = 30.75860 44.21234 37.48547
# Shear Modulus (GPa) = 17.05543 -40.01832 -11.48145
#
# Velocity S-wave (km/s) = 3.66525 -5.61438 -3.00726
# Velocity P-wave (km/s) = 6.49151 2.68395 4.17948
#
# Compressibility (1/GPa) = 0.03251124
#
# Stress axis : x y z
#
# Youngs Moduli (GPa) = 20.21687 52.21283 57.67388
#
# Poissons Ratio (x) = 0.86986 0.25000
# Poissons Ratio (y) = 0.33681 0.33031
# Poissons Ratio (z) = 0.08763 0.29904
#
# Static dielectric constant tensor:
#      x y z
#    x 2.323510 0.000000 0.000000 
#    y 0.000000 2.703750 0.000000 
#    z 0.000000 0.000000 2.642270 
# 
# 
# High freq. dielectric constant tensor:
#      x y z
#    x 1.424300 0.000000 0.000000 
#    y 0.000000 1.476350 0.000000 
#    z 0.000000 0.000000 1.488730 
# 
# From -- ./inp_files/15812.got.cif
#   From: 2010.06.25/outbox.cif.g09.slc.cpg/sg71_8_cif.got.tgz:15812.got - 2010.06.28 04:59:45.
