data_PCOD8287286
_publ_section_title
;
Structure prediction by ZEFSAII (Michael W. Deem and Ramdas Pophale) SiO2 
 PCOD8287286
Probable space group: I M M M
;
_chemical_formula_sum "Si O2"
_cell_formula_units_Z 120
_cell_length_a 27.912064
_cell_length_b 9.123110
_cell_length_c 29.369351
_cell_angle_alpha 90.000000
_cell_angle_beta 90.000000
_cell_angle_gamma 90.000000
_cell_volume 7478.753398
_symmetry_space_group_name_H-M "I M M M"
_symmetry_group_IT_number 71
_symmetry_cell_setting 'orthorhombic'
loop_
_space_group_symop_operation_xyz
x,y,z
-x,-y,z
x,-y,-z
-x,y,-z
-x,-y,-z
x,y,-z
-x,y,z
x,-y,z
1/2+x,1/2+y,1/2+z
1/2-x,1/2-y,1/2+z
1/2+x,1/2-y,1/2-z
1/2-x,1/2+y,1/2-z
1/2-x,1/2-y,1/2-z
1/2+x,1/2+y,1/2-z
1/2-x,1/2+y,1/2+z
1/2+x,1/2-y,1/2+z
loop_
_atom_site_type_symbol
_atom_site_label
_atom_site_fract_x
_atom_site_fract_y
_atom_site_fract_z
Si Si1 0.943111 0.834532 0.786119
Si Si2 0.000000 0.173786 0.550670
Si Si3 0.380611 0.328370 0.552884
Si Si4 0.409487 0.674020 0.891770
Si Si5 0.725619 0.337844 0.554087
Si Si6 0.056241 0.330050 0.875526
Si Si7 0.055830 0.327489 0.304400
Si Si8 0.317787 0.327394 0.051574
O O1 0.923727 0.755317 0.831383
O O2 0.925523 0.743693 0.742406
O O3 0.000000 0.835727 0.787118
O O4 0.922757 0.000000 0.783970
O O5 0.046942 0.228790 0.576819
O O6 0.000000 0.241776 0.500000
O O7 0.000000 0.000000 0.547443
O O8 0.387553 0.290865 0.500000
O O9 0.389654 0.500000 0.561809
O O10 0.327019 0.284086 0.569787
O O11 0.418530 0.231896 0.579833
O O12 0.411509 0.500000 0.883634
O O13 0.412430 0.756306 0.843931
O O14 0.360960 0.725027 0.916447
O O15 0.725177 0.341722 0.500000
O O16 0.735709 0.500000 0.573424
O O17 0.767906 0.233204 0.572010
O O18 0.068519 0.500000 0.869249
O O19 0.000000 0.304224 0.881803
O O20 0.064825 0.500000 0.302171
O O21 0.000000 0.290663 0.312907
O O22 0.314155 0.500000 0.051450
O O23 0.326859 0.270012 0.000000
#
# Coordination Sequence:
#
# PCOD8287286 Si02
#       8
#    16   8  16  16  16  16  16  16
#     4   9  17  30  49  68  87 116 154 191 227 267
#     4   9  16  26  41  59  83 119 159 193 224 267
#     4   9  18  32  49  69  94 126 163 195 221 258
#     4  10  18  28  43  63  87 118 156 192 230 279
#     4   8  15  29  47  65  86 115 152 193 234 271
#     4  10  20  32  46  69 101 130 155 184 222 267
#     4  10  19  30  44  63  89 117 149 192 238 278
#     4   9  17  28  43  65  90 115 150 196 238 275
#
# _framework density 16.045456000000001
#
# number of rings (size 3 to 8) (size 9 to 14) (size 15 to 20)
#    0.000    2.733    0.667    2.400    0.000    6.133 
#    0.000    2.667    0.000    1.600    0.000    0.933 
#    0.000    0.000    0.000    0.000    0.000    0.000 
#
# Total GULP energy -743894.618541 kJ/mol
# GULP energy per Si atom -12398.243642 kJ/mol
# Density = 1.600894 g / cm^3
# Si number density = 16.045456 Si / 1000 Ang^3
#
#
#
# Elastic Constant Matrix: (Units=GPa)
#
#
# Indices 1 2 3 4 5 6 
#
# 1 70.6521 41.5749 48.5877 0.0000 0.0000 0.0000
# 2 41.5749 72.9217 50.2393 0.0000 0.0000 0.0000
# 3 48.5877 50.2393 100.1804 0.0000 0.0000 0.0000
# 4 0.0000 0.0000 0.0000 23.5614 0.0000 0.0000
# 5 0.0000 0.0000 0.0000 0.0000 7.8542 0.0000
# 6 0.0000 0.0000 0.0000 0.0000 0.0000 24.9759
#
#
#
# Elastic Compliance Matrix: (Units=1/GPa)
#
#
# Indices 1 2 3 4 5 6 
#
# 1 0.024461 -0.008820 -0.007441 0.000000 0.000000 0.000000
# 2 -0.008820 0.024132 -0.007825 0.000000 0.000000 0.000000
# 3 -0.007441 -0.007825 0.017515 0.000000 0.000000 0.000000
# 4 0.000000 0.000000 0.000000 0.042442 0.000000 0.000000
# 5 0.000000 0.000000 0.000000 0.000000 0.127321 0.000000
# 6 0.000000 0.000000 0.000000 0.000000 0.000000 0.040039
#
#
# Mechanical properties :
#
#
# Convention : Reuss Voigt Hill
#
# Bulk Modulus (GPa) = 55.74703 58.28423 57.01563
# Shear Modulus (GPa) = 15.14884 18.16844 16.65864
#
# Velocity S-wave (km/s) = 3.07599 3.36863 3.22563
# Velocity P-wave (km/s) = 6.88725 7.17869 7.03448
#
# Compressibility (1/GPa) = 0.01793818
#
# Stress axis : x y z
#
# Youngs Moduli (GPa) = 40.88209 41.43804 57.09519
#
# Poissons Ratio (x) = 0.36547 0.42482
# Poissons Ratio (y) = 0.36056 0.44675
# Poissons Ratio (z) = 0.30418 0.32424
#
# Static dielectric constant tensor:
#      x y z
#    x 2.978690 0.000000 0.000000 
#    y 0.000000 3.034610 0.000000 
#    z 0.000000 0.000000 2.990790 
# 
# 
# High freq. dielectric constant tensor:
#      x y z
#    x 1.592920 0.000000 0.000000 
#    y 0.000000 1.615350 0.000000 
#    z 0.000000 0.000000 1.603800 
# 
# From -- ./inp_files/67159.got.cif
#   From: 2010.06.25/outbox.cif.g09.slc.cpg/sg71_34_cif.got.tgz:67159.got - 2010.06.28 04:59:45.
