data_PCOD8287484
_publ_section_title
;
Structure prediction by ZEFSAII (Michael W. Deem and Ramdas Pophale) SiO2 
 PCOD8287484
Probable space group: I M M M
;
_chemical_formula_sum "Si O2"
_cell_formula_units_Z 72
_cell_length_a 24.419483
_cell_length_b 9.974321
_cell_length_c 15.259524
_cell_angle_alpha 90.000000
_cell_angle_beta 90.000000
_cell_angle_gamma 90.000000
_cell_volume 3716.728111
_symmetry_space_group_name_H-M "I M M M"
_symmetry_group_IT_number 71
_symmetry_cell_setting 'orthorhombic'
loop_
_space_group_symop_operation_xyz
x,y,z
-x,-y,z
x,-y,-z
-x,y,-z
-x,-y,-z
x,y,-z
-x,y,z
x,-y,z
1/2+x,1/2+y,1/2+z
1/2-x,1/2-y,1/2+z
1/2+x,1/2-y,1/2-z
1/2-x,1/2+y,1/2-z
1/2-x,1/2-y,1/2-z
1/2+x,1/2+y,1/2-z
1/2-x,1/2+y,1/2+z
1/2+x,1/2-y,1/2+z
loop_
_atom_site_type_symbol
_atom_site_label
_atom_site_fract_x
_atom_site_fract_y
_atom_site_fract_z
Si Si1 0.869294 0.847877 0.500000
Si Si2 0.751895 0.261590 0.000000
Si Si3 0.561375 0.658215 0.840702
Si Si4 0.375273 0.156298 0.500000
Si Si5 0.395922 0.651514 0.657858
Si Si6 0.769744 0.143370 0.817715
O O1 0.803316 0.849511 0.500000
O O2 0.895725 0.780658 0.412192
O O3 0.889859 0.000000 0.500000
O O4 0.749235 0.168670 0.084510
O O5 0.808611 0.345793 0.000000
O O6 0.500000 0.698318 0.869738
O O7 0.569338 0.500000 0.835229
O O8 0.571739 0.710726 0.741782
O O9 0.400710 0.237057 0.418032
O O10 0.394308 0.000000 0.500000
O O11 0.416033 0.500000 0.628770
O O12 0.334167 0.638175 0.687696
O O13 0.750000 0.250000 0.750000
O O14 0.745418 0.000000 0.788485
#
# Coordination Sequence:
#
# PCOD8287484 Si02
#       6
#     8   8  16   8  16  16
#     4  10  18  29  47  75 109 138 166 209 257 295
#     4  10  20  33  49  72 106 142 171 199 248 309
#     4   9  17  30  50  75 101 132 172 214 255 300
#     4  10  20  33  52  78 103 132 172 212 249 301
#     4   9  18  33  51  72 102 137 167 204 257 307
#     4  10  20  33  50  73 103 137 172 208 250 301
#
# _framework density 19.371874999999999
#
# number of rings (size 3 to 8) (size 9 to 14) (size 15 to 20)
#    0.000    2.444    0.000    2.667    0.000   10.222 
#    0.000    0.556    0.000    4.000    0.000    0.000 
#    0.000    7.111    0.000    0.000    0.000    0.000 
#
# Total GULP energy -446038.196456 kJ/mol
# GULP energy per Si atom -12389.949902 kJ/mol
# Density = 1.932778 g / cm^3
# Si number density = 19.371875 Si / 1000 Ang^3
#
#
#
# Elastic Constant Matrix: (Units=GPa)
#
#
# Indices 1 2 3 4 5 6 
#
# 1 54.1877 -1.9848 34.5125 0.0000 0.0000 0.0000
# 2 -1.9848 106.0232 52.3679 0.0000 0.0000 0.0000
# 3 34.5125 52.3679 134.0182 0.0000 0.0000 0.0000
# 4 0.0000 0.0000 0.0000 7.8868 0.0000 0.0000
# 5 0.0000 0.0000 0.0000 0.0000 36.1730 0.0000
# 6 0.0000 0.0000 0.0000 0.0000 0.0000 3.1213
#
#
#
# Elastic Compliance Matrix: (Units=1/GPa)
#
#
# Indices 1 2 3 4 5 6 
#
# 1 0.023528 0.004254 -0.007721 0.000000 0.000000 0.000000
# 2 0.004254 0.012457 -0.005963 0.000000 0.000000 0.000000
# 3 -0.007721 -0.005963 0.011780 0.000000 0.000000 0.000000
# 4 0.000000 0.000000 0.000000 0.126793 0.000000 0.000000
# 5 0.000000 0.000000 0.000000 0.000000 0.027645 0.000000
# 6 0.000000 0.000000 0.000000 0.000000 0.000000 0.320375
#
#
# Mechanical properties :
#
#
# Convention : Reuss Voigt Hill
#
# Bulk Modulus (GPa) = 34.59653 51.55782 43.07717
# Shear Modulus (GPa) = 9.07320 23.39180 16.23250
#
# Velocity S-wave (km/s) = 2.16653 3.47870 2.89786
# Velocity P-wave (km/s) = 4.91492 6.54276 5.78637
#
# Compressibility (1/GPa) = 0.02890463
#
# Stress axis : x y z
#
# Youngs Moduli (GPa) = 42.50268 80.27679 84.88839
#
# Poissons Ratio (x) = -0.34152 0.65545
# Poissons Ratio (y) = -0.18082 0.50620
# Poissons Ratio (z) = 0.32818 0.47870
#
# Static dielectric constant tensor:
#      x y z
#    x 3.436820 0.000000 0.000000 
#    y 0.000000 3.316280 0.000000 
#    z 0.000000 0.000000 3.868710 
# 
# 
# High freq. dielectric constant tensor:
#      x y z
#    x 1.739320 0.000000 0.000000 
#    y 0.000000 1.711070 0.000000 
#    z 0.000000 0.000000 1.771590 
# 
# From -- ./inp_files/39977.got.cif
#   From: 2010.06.25/outbox.cif.g09.slc.cpg/sg71_20_cif.got.tgz:39977.got - 2010.06.28 04:59:45.
