data_PCOD8287459
_publ_section_title
;
Structure prediction by ZEFSAII (Michael W. Deem and Ramdas Pophale) SiO2 
 PCOD8287459
Probable space group: I M M M
;
_chemical_formula_sum "Si O2"
_cell_formula_units_Z 64
_cell_length_a 7.909888
_cell_length_b 23.286811
_cell_length_c 22.014707
_cell_angle_alpha 90.000000
_cell_angle_beta 90.000000
_cell_angle_gamma 90.000000
_cell_volume 4055.022443
_symmetry_space_group_name_H-M "I M M M"
_symmetry_group_IT_number 71
_symmetry_cell_setting 'orthorhombic'
loop_
_space_group_symop_operation_xyz
x,y,z
-x,-y,z
x,-y,-z
-x,y,-z
-x,-y,-z
x,y,-z
-x,y,z
x,-y,z
1/2+x,1/2+y,1/2+z
1/2-x,1/2-y,1/2+z
1/2+x,1/2-y,1/2-z
1/2-x,1/2+y,1/2-z
1/2-x,1/2-y,1/2-z
1/2+x,1/2+y,1/2-z
1/2-x,1/2+y,1/2+z
1/2+x,1/2-y,1/2+z
loop_
_atom_site_type_symbol
_atom_site_label
_atom_site_fract_x
_atom_site_fract_y
_atom_site_fract_z
Si Si1 0.807956 0.730630 0.848192
Si Si2 0.812653 0.563613 0.670537
Si Si3 0.500000 0.746525 0.930873
Si Si4 0.690539 0.667824 0.739120
Si Si5 0.000000 0.617071 0.430834
O O1 0.671423 0.720937 0.901253
O O2 0.801975 0.678490 0.799333
O O3 0.752077 0.789283 0.814408
O O4 0.000000 0.734227 0.874344
O O5 0.730407 0.500000 0.665877
O O6 0.702141 0.602834 0.715083
O O7 0.832142 0.591690 0.602944
O O8 0.000000 0.559627 0.699612
O O9 0.500000 0.814861 0.926727
O O10 0.500000 0.725370 0.000000
O O11 0.500000 0.681937 0.757955
O O12 0.000000 0.595410 0.500000
#
# Coordination Sequence:
#
# PCOD8287459 Si02
#       5
#    16  16   8  16   8
#     4  10  19  31  50  71  94 127 160 200 250 301
#     4   9  17  28  44  66  92 122 165 206 241 283
#     4  11  20  33  50  73 101 130 173 205 237 292
#     4  10  18  29  47  68  95 123 162 201 252 304
#     4   9  17  30  47  64  94 135 174 210 242 283
#
# _framework density 15.782897
#
# number of rings (size 3 to 8) (size 9 to 14) (size 15 to 20)
#    0.750    1.500    3.750    0.750    1.750    2.000 
#    0.000    0.000    0.000    0.750    0.000    1.750 
#    0.000    2.000    0.000    5.250    0.000    0.000 
#
# Total GULP energy -396527.612724 kJ/mol
# GULP energy per Si atom -12391.487898 kJ/mol
# Density = 1.574697 g / cm^3
# Si number density = 15.782897 Si / 1000 Ang^3
#
#
#
# Elastic Constant Matrix: (Units=GPa)
#
#
# Indices 1 2 3 4 5 6 
#
# 1 79.2836 8.2080 46.0560 0.0000 0.0000 0.0000
# 2 8.2080 69.7795 41.3612 0.0000 0.0000 0.0000
# 3 46.0560 41.3612 96.1167 0.0000 0.0000 0.0000
# 4 0.0000 0.0000 0.0000 19.4350 0.0000 0.0000
# 5 0.0000 0.0000 0.0000 0.0000 21.7811 0.0000
# 6 0.0000 0.0000 0.0000 0.0000 0.0000 18.4647
#
#
#
# Elastic Compliance Matrix: (Units=1/GPa)
#
#
# Indices 1 2 3 4 5 6 
#
# 1 0.018308 0.004089 -0.010532 0.000000 0.000000 0.000000
# 2 0.004089 0.020151 -0.010631 0.000000 0.000000 0.000000
# 3 -0.010532 -0.010631 0.020026 0.000000 0.000000 0.000000
# 4 0.000000 0.000000 0.000000 0.051454 0.000000 0.000000
# 5 0.000000 0.000000 0.000000 0.000000 0.045911 0.000000
# 6 0.000000 0.000000 0.000000 0.000000 0.000000 0.054157
#
#
# Mechanical properties :
#
#
# Convention : Reuss Voigt Hill
#
# Bulk Modulus (GPa) = 41.09011 48.49226 44.79119
# Shear Modulus (GPa) = 19.82027 21.90647 20.86337
#
# Velocity S-wave (km/s) = 3.54758 3.72961 3.63973
# Velocity P-wave (km/s) = 6.54764 7.02410 6.79005
#
# Compressibility (1/GPa) = 0.02433676
#
# Stress axis : x y z
#
# Youngs Moduli (GPa) = 54.62154 49.62460 49.93628
#
# Poissons Ratio (x) = -0.20293 0.52594
# Poissons Ratio (y) = -0.22337 0.53088
# Poissons Ratio (z) = 0.57529 0.52756
#
# Static dielectric constant tensor:
#      x y z
#    x 2.836210 0.000000 0.000000 
#    y 0.000000 2.807670 0.000000 
#    z 0.000000 0.000000 2.827960 
# 
# 
# High freq. dielectric constant tensor:
#      x y z
#    x 1.600010 0.000000 0.000000 
#    y 0.000000 1.581520 0.000000 
#    z 0.000000 0.000000 1.578950 
# 
# From -- ./inp_files/50281.got.cif
#   From: 2010.06.25/outbox.cif.g09.slc.cpg/sg71_26_cif.got.tgz:50281.got - 2010.06.28 04:59:45.
