data_PCOD8287311
_publ_section_title
;
Structure prediction by ZEFSAII (Michael W. Deem and Ramdas Pophale) SiO2 
 PCOD8287311
Probable space group: I M M M
;
_chemical_formula_sum "Si O2"
_cell_formula_units_Z 80
_cell_length_a 20.947533
_cell_length_b 25.358715
_cell_length_c 8.606906
_cell_angle_alpha 90.000000
_cell_angle_beta 90.000000
_cell_angle_gamma 90.000000
_cell_volume 4572.010151
_symmetry_space_group_name_H-M "I M M M"
_symmetry_group_IT_number 71
_symmetry_cell_setting 'orthorhombic'
loop_
_space_group_symop_operation_xyz
x,y,z
-x,-y,z
x,-y,-z
-x,y,-z
-x,-y,-z
x,y,-z
-x,y,z
x,-y,z
1/2+x,1/2+y,1/2+z
1/2-x,1/2-y,1/2+z
1/2+x,1/2-y,1/2-z
1/2-x,1/2+y,1/2-z
1/2-x,1/2-y,1/2-z
1/2+x,1/2+y,1/2-z
1/2-x,1/2+y,1/2+z
1/2+x,1/2-y,1/2+z
loop_
_atom_site_type_symbol
_atom_site_label
_atom_site_fract_x
_atom_site_fract_y
_atom_site_fract_z
Si Si1 0.727174 0.000000 0.180809
Si Si2 0.691097 0.783155 0.183945
Si Si3 0.570119 0.281836 0.814927
Si Si4 0.127559 0.112716 0.681140
Si Si5 0.636231 0.500000 0.180887
Si Si6 0.727210 0.108652 0.683927
O O1 0.802534 0.000000 0.210130
O O2 0.697543 0.946820 0.256661
O O3 0.711409 0.000000 0.000000
O O4 0.750000 0.750000 0.250000
O O5 0.624568 0.757942 0.243657
O O6 0.688697 0.842940 0.242863
O O7 0.696137 0.781205 0.000000
O O8 0.500000 0.265079 0.751877
O O9 0.585650 0.340437 0.745399
O O10 0.568876 0.283210 0.000000
O O11 0.130799 0.123898 0.500000
O O12 0.199913 0.113938 0.744231
O O13 0.097041 0.054202 0.714501
O O14 0.659670 0.500000 0.000000
O O15 0.721889 0.111045 0.500000
#
# Coordination Sequence:
#
# PCOD8287311 Si02
#       6
#     8  16  16  16   8  16
#     4  10  18  28  44  73 104 128 157 198 246 300
#     4  11  20  31  49  74  99 129 170 213 253 298
#     4   9  17  29  45  67  97 131 167 208 252 295
#     4   8  13  24  41  63  90 124 162 200 241 282
#     4   8  14  24  41  62  92 129 164 204 244 283
#     4  10  18  31  49  71  99 131 163 204 250 295
#
# _framework density 17.497772999999999
#
# number of rings (size 3 to 8) (size 9 to 14) (size 15 to 20)
#    0.000    2.600    2.000    3.300    0.000    0.000 
#    0.000    0.500    0.000    5.400    0.000    0.700 
#    0.000    9.600    0.000    0.000    0.000    0.000 
#
# Total GULP energy -495560.331290 kJ/mol
# GULP energy per Si atom -12389.008282 kJ/mol
# Density = 1.745795 g / cm^3
# Si number density = 17.497773 Si / 1000 Ang^3
#
#
#
# Elastic Constant Matrix: (Units=GPa)
#
#
# Indices 1 2 3 4 5 6 
#
# 1 98.3189 70.9608 20.2846 0.0000 0.0000 0.0000
# 2 70.9608 173.8244 30.2215 0.0000 0.0000 0.0000
# 3 20.2846 30.2215 50.6345 0.0000 0.0000 0.0000
# 4 0.0000 0.0000 0.0000 26.6894 0.0000 0.0000
# 5 0.0000 0.0000 0.0000 0.0000 11.5212 0.0000
# 6 0.0000 0.0000 0.0000 0.0000 0.0000 18.9299
#
#
#
# Elastic Compliance Matrix: (Units=1/GPa)
#
#
# Indices 1 2 3 4 5 6 
#
# 1 0.014715 -0.005559 -0.002577 0.000000 0.000000 0.000000
# 2 -0.005559 0.008519 -0.002858 0.000000 0.000000 0.000000
# 3 -0.002577 -0.002858 0.022487 0.000000 0.000000 0.000000
# 4 0.000000 0.000000 0.000000 0.037468 0.000000 0.000000
# 5 0.000000 0.000000 0.000000 0.000000 0.086796 0.000000
# 6 0.000000 0.000000 0.000000 0.000000 0.000000 0.052826
#
#
# Mechanical properties :
#
#
# Convention : Reuss Voigt Hill
#
# Bulk Modulus (GPa) = 42.13370 62.85683 52.49527
# Shear Modulus (GPa) = 19.78546 24.84883 22.31715
#
# Velocity S-wave (km/s) = 3.36630 3.77253 3.57519
# Velocity P-wave (km/s) = 6.26427 7.41463 6.86359
#
# Compressibility (1/GPa) = 0.02373397
#
# Stress axis : x y z
#
# Youngs Moduli (GPa) = 67.95856 117.38233 44.46947
#
# Poissons Ratio (x) = 0.65253 0.11459
# Poissons Ratio (y) = 0.37779 0.12708
# Poissons Ratio (z) = 0.17512 0.33544
#
# Static dielectric constant tensor:
#      x y z
#    x 3.082730 0.000000 0.000000 
#    y 0.000000 3.884660 0.000000 
#    z 0.000000 0.000000 2.937070 
# 
# 
# High freq. dielectric constant tensor:
#      x y z
#    x 1.620330 0.000000 0.000000 
#    y 0.000000 1.699710 0.000000 
#    z 0.000000 0.000000 1.647030 
# 
# From -- ./inp_files/10734.got.cif
#   From: 2010.06.25/outbox.cif.g09.slc.cpg/sg71_6_cif.got.tgz:10734.got - 2010.06.28 04:59:45.
