data_PCOD8287781
_publ_section_title
;
Structure prediction by ZEFSAII (Michael W. Deem and Ramdas Pophale) SiO2 
 PCOD8287781
Probable space group: I M M M
;
_chemical_formula_sum "Si O2"
_cell_formula_units_Z 88
_cell_length_a 19.223386
_cell_length_b 8.987356
_cell_length_c 27.776937
_cell_angle_alpha 90.000000
_cell_angle_beta 90.000000
_cell_angle_gamma 90.000000
_cell_volume 4798.949561
_symmetry_space_group_name_H-M "I M M M"
_symmetry_group_IT_number 71
_symmetry_cell_setting 'orthorhombic'
loop_
_space_group_symop_operation_xyz
x,y,z
-x,-y,z
x,-y,-z
-x,y,-z
-x,-y,-z
x,y,-z
-x,y,z
x,-y,z
1/2+x,1/2+y,1/2+z
1/2-x,1/2-y,1/2+z
1/2+x,1/2-y,1/2-z
1/2-x,1/2+y,1/2-z
1/2-x,1/2-y,1/2-z
1/2+x,1/2+y,1/2-z
1/2-x,1/2+y,1/2+z
1/2+x,1/2-y,1/2+z
loop_
_atom_site_type_symbol
_atom_site_label
_atom_site_fract_x
_atom_site_fract_y
_atom_site_fract_z
Si Si1 0.079671 0.674912 0.372174
Si Si2 0.582506 0.332970 0.776286
Si Si3 0.659367 0.676291 0.406943
Si Si4 0.080150 0.324255 0.820450
Si Si5 0.077290 0.176681 0.000000
Si Si6 0.693724 0.823930 0.053816
O O1 0.087105 0.500000 0.363238
O O2 0.109833 0.755129 0.324799
O O3 0.125029 0.728588 0.417726
O O4 0.000000 0.719495 0.382979
O O5 0.500000 0.333976 0.777794
O O6 0.612570 0.500000 0.773285
O O7 0.607589 0.240675 0.730069
O O8 0.651976 0.500000 0.399352
O O9 0.630238 0.758835 0.360679
O O10 0.616043 0.733899 0.452682
O O11 0.738709 0.726299 0.416057
O O12 0.087556 0.500000 0.818616
O O13 0.000000 0.276812 0.830404
O O14 0.000000 0.243874 0.000000
O O15 0.076375 0.000000 0.000000
O O16 0.695365 0.000000 0.048536
O O17 0.693171 0.753609 0.000000
#
# Coordination Sequence:
#
# PCOD8287781 Si02
#       6
#    16  16  16  16   8  16
#     4   9  17  30  51  78 105 132 164 205 253 304
#     4   9  17  31  52  76 101 130 166 208 252 299
#     4  10  18  31  50  72  99 133 173 212 248 291
#     4  10  20  33  50  74 104 134 165 206 255 303
#     4   9  16  26  45  71  94 122 166 213 247 281
#     4   9  17  31  51  75 103 135 170 209 253 296
#
# _framework density 18.337346
#
# number of rings (size 3 to 8) (size 9 to 14) (size 15 to 20)
#    0.000    2.636    0.909    1.636    0.000    4.364 
#    0.000    4.091    0.000    3.273    0.000    2.545 
#    0.000    0.000    0.000    0.000    0.000    0.000 
#
# Total GULP energy -545545.015370 kJ/mol
# GULP energy per Si atom -12398.750349 kJ/mol
# Density = 1.829561 g / cm^3
# Si number density = 18.337346 Si / 1000 Ang^3
#
#
#
# Elastic Constant Matrix: (Units=GPa)
#
#
# Indices 1 2 3 4 5 6 
#
# 1 105.3952 31.1573 76.5317 0.0000 0.0000 0.0000
# 2 31.1573 56.4257 49.4182 0.0000 0.0000 0.0000
# 3 76.5317 49.4182 166.6497 0.0000 0.0000 0.0000
# 4 0.0000 0.0000 0.0000 25.5839 0.0000 0.0000
# 5 0.0000 0.0000 0.0000 0.0000 2.7483 0.0000
# 6 0.0000 0.0000 0.0000 0.0000 0.0000 14.3528
#
#
#
# Elastic Compliance Matrix: (Units=1/GPa)
#
#
# Indices 1 2 3 4 5 6 
#
# 1 0.014591 -0.002956 -0.005824 0.000000 0.000000 0.000000
# 2 -0.002956 0.024539 -0.005919 0.000000 0.000000 0.000000
# 3 -0.005824 -0.005919 0.010431 0.000000 0.000000 0.000000
# 4 0.000000 0.000000 0.000000 0.039087 0.000000 0.000000
# 5 0.000000 0.000000 0.000000 0.000000 0.363863 0.000000
# 6 0.000000 0.000000 0.000000 0.000000 0.000000 0.069673
#
#
# Mechanical properties :
#
#
# Convention : Reuss Voigt Hill
#
# Bulk Modulus (GPa) = 49.59925 71.40945 60.50435
# Shear Modulus (GPa) = 8.95572 19.96123 14.45847
#
# Velocity S-wave (km/s) = 2.21235 3.30291 2.81102
# Velocity P-wave (km/s) = 5.79939 7.31930 6.60322
#
# Compressibility (1/GPa) = 0.02016159
#
# Stress axis : x y z
#
# Youngs Moduli (GPa) = 68.53450 40.75174 95.87201
#
# Poissons Ratio (x) = 0.12047 0.55838
# Poissons Ratio (y) = 0.20260 0.56748
# Poissons Ratio (z) = 0.39916 0.24122
#
# Static dielectric constant tensor:
#      x y z
#    x 3.339750 0.000000 0.000000 
#    y 0.000000 3.134210 0.000000 
#    z 0.000000 0.000000 3.596220 
# 
# 
# High freq. dielectric constant tensor:
#      x y z
#    x 1.693800 0.000000 0.000000 
#    y 0.000000 1.680630 0.000000 
#    z 0.000000 0.000000 1.723600 
# 
# From -- ./inp_files/10492.got.cif
#   From: 2010.06.25/outbox.cif.g09.slc.cpg/sg71_6_cif.got.tgz:10492.got - 2010.06.28 04:59:45.
