data_PCOD8287679
_publ_section_title
;
Structure prediction by ZEFSAII (Michael W. Deem and Ramdas Pophale) SiO2 
 PCOD8287679
Probable space group: I M M M
;
_chemical_formula_sum "Si O2"
_cell_formula_units_Z 80
_cell_length_a 20.424188
_cell_length_b 25.070701
_cell_length_c 8.758367
_cell_angle_alpha 90.000000
_cell_angle_beta 90.000000
_cell_angle_gamma 90.000000
_cell_volume 4484.710529
_symmetry_space_group_name_H-M "I M M M"
_symmetry_group_IT_number 71
_symmetry_cell_setting 'orthorhombic'
loop_
_space_group_symop_operation_xyz
x,y,z
-x,-y,z
x,-y,-z
-x,y,-z
-x,-y,-z
x,y,-z
-x,y,z
x,-y,z
1/2+x,1/2+y,1/2+z
1/2-x,1/2-y,1/2+z
1/2+x,1/2-y,1/2-z
1/2-x,1/2+y,1/2-z
1/2-x,1/2-y,1/2-z
1/2+x,1/2+y,1/2-z
1/2-x,1/2+y,1/2+z
1/2+x,1/2-y,1/2+z
loop_
_atom_site_type_symbol
_atom_site_label
_atom_site_fract_x
_atom_site_fract_y
_atom_site_fract_z
Si Si1 0.925714 0.782527 0.174142
Si Si2 0.634064 0.606406 0.675514
Si Si3 0.726802 0.114425 0.317293
Si Si4 0.279154 0.000000 0.668345
Si Si5 0.376741 0.500000 0.169752
Si Si6 0.188362 0.720001 0.678932
O O1 0.917445 0.845912 0.194698
O O2 0.878680 0.750385 0.286645
O O3 0.000000 0.767618 0.216256
O O4 0.909086 0.766348 0.000000
O O5 0.653285 0.596452 0.500000
O O6 0.698718 0.623727 0.766790
O O7 0.600124 0.553118 0.741976
O O8 0.724371 0.115633 0.500000
O O9 0.700383 0.056420 0.253603
O O10 0.681809 0.160565 0.247595
O O11 0.309808 0.000000 0.500000
O O12 0.201090 0.000000 0.660490
O O13 0.407296 0.500000 0.000000
O O14 0.199990 0.716392 0.500000
O O15 0.250000 0.750000 0.750000
#
# Coordination Sequence:
#
# PCOD8287679 Si02
#       6
#    16  16  16   8   8  16
#     4  10  22  39  56  76 105 140 178 224 276 325
#     4  10  18  30  50  74 101 135 178 222 267 317
#     4  10  18  31  52  78 108 139 172 216 266 318
#     4   7  14  27  45  72 103 134 166 204 258 310
#     4   9  17  29  46  68  99 137 177 220 265 310
#     4  12  23  35  54  80 108 141 181 223 267 317
#
# _framework density 17.838384999999999
#
# number of rings (size 3 to 8) (size 9 to 14) (size 15 to 20)
#    0.000    2.000    2.000    4.500    0.000    1.200 
#    0.000    2.000    0.000    3.000    0.000    0.700 
#    0.000    5.600    0.000    0.000    0.000    0.000 
#
# Total GULP energy -495834.636960 kJ/mol
# GULP energy per Si atom -12395.865924 kJ/mol
# Density = 1.779778 g / cm^3
# Si number density = 17.838385 Si / 1000 Ang^3
#
#
#
# Elastic Constant Matrix: (Units=GPa)
#
#
# Indices 1 2 3 4 5 6 
#
# 1 58.2625 37.7524 27.4481 0.0000 0.0000 0.0000
# 2 37.7524 141.3441 53.4988 0.0000 0.0000 0.0000
# 3 27.4481 53.4988 110.6433 0.0000 0.0000 0.0000
# 4 0.0000 0.0000 0.0000 31.2771 0.0000 0.0000
# 5 0.0000 0.0000 0.0000 0.0000 19.0097 0.0000
# 6 0.0000 0.0000 0.0000 0.0000 0.0000 15.8669
#
#
#
# Elastic Compliance Matrix: (Units=1/GPa)
#
#
# Indices 1 2 3 4 5 6 
#
# 1 0.021615 -0.004582 -0.003147 0.000000 0.000000 0.000000
# 2 -0.004582 0.009631 -0.003520 0.000000 0.000000 0.000000
# 3 -0.003147 -0.003520 0.011521 0.000000 0.000000 0.000000
# 4 0.000000 0.000000 0.000000 0.031972 0.000000 0.000000
# 5 0.000000 0.000000 0.000000 0.000000 0.052605 0.000000
# 6 0.000000 0.000000 0.000000 0.000000 0.000000 0.063024
#
#
# Mechanical properties :
#
#
# Convention : Reuss Voigt Hill
#
# Bulk Modulus (GPa) = 49.33626 60.84982 55.09304
# Shear Modulus (GPa) = 22.76626 26.00079 24.38352
#
# Velocity S-wave (km/s) = 3.57634 3.82196 3.70119
# Velocity P-wave (km/s) = 6.69112 7.32546 7.01546
#
# Compressibility (1/GPa) = 0.02026907
#
# Stress axis : x y z
#
# Youngs Moduli (GPa) = 46.26350 103.82870 86.80002
#
# Poissons Ratio (x) = 0.47578 0.27312
# Poissons Ratio (y) = 0.21200 0.30555
# Poissons Ratio (z) = 0.14557 0.36549
#
# Static dielectric constant tensor:
#      x y z
#    x 2.808540 0.000000 0.000000 
#    y 0.000000 3.843160 0.000000 
#    z 0.000000 0.000000 3.358790 
# 
# 
# High freq. dielectric constant tensor:
#      x y z
#    x 1.631520 0.000000 0.000000 
#    y 0.000000 1.709790 0.000000 
#    z 0.000000 0.000000 1.693290 
# 
# From -- ./inp_files/10230.got.cif
#   From: 2010.06.25/outbox.cif.g09.slc.cpg/sg71_6_cif.got.tgz:10230.got - 2010.06.28 04:59:45.
