data_PCOD8287729
_publ_section_title
;
Structure prediction by ZEFSAII (Michael W. Deem and Ramdas Pophale) SiO2 
 PCOD8287729
Probable space group: I M M M
;
_chemical_formula_sum "Si O2"
_cell_formula_units_Z 120
_cell_length_a 17.813672
_cell_length_b 18.797855
_cell_length_c 20.254869
_cell_angle_alpha 90.000000
_cell_angle_beta 90.000000
_cell_angle_gamma 90.000000
_cell_volume 6782.521599
_symmetry_space_group_name_H-M "I M M M"
_symmetry_group_IT_number 71
_symmetry_cell_setting 'orthorhombic'
loop_
_space_group_symop_operation_xyz
x,y,z
-x,-y,z
x,-y,-z
-x,y,-z
-x,-y,-z
x,y,-z
-x,y,z
x,-y,z
1/2+x,1/2+y,1/2+z
1/2-x,1/2-y,1/2+z
1/2+x,1/2-y,1/2-z
1/2-x,1/2+y,1/2-z
1/2-x,1/2-y,1/2-z
1/2+x,1/2+y,1/2-z
1/2-x,1/2+y,1/2+z
1/2+x,1/2-y,1/2+z
loop_
_atom_site_type_symbol
_atom_site_label
_atom_site_fract_x
_atom_site_fract_y
_atom_site_fract_z
Si Si1 0.841622 0.420670 0.720564
Si Si2 0.086665 0.204752 0.180232
Si Si3 0.171614 0.081637 0.755703
Si Si4 0.164067 0.298005 0.075158
Si Si5 0.088618 0.917310 0.500000
Si Si6 0.328975 0.659171 0.881947
Si Si7 0.585338 0.920530 0.359643
Si Si8 0.086085 0.717293 0.316285
O O1 0.865507 0.500000 0.697569
O O2 0.753118 0.409294 0.711738
O O3 0.861409 0.409824 0.797064
O O4 0.884897 0.363472 0.675820
O O5 0.112667 0.126008 0.200785
O O6 0.137815 0.232338 0.120375
O O7 0.098652 0.258542 0.240941
O O8 0.000000 0.201568 0.158462
O O9 0.173930 0.108630 0.681142
O O10 0.145133 0.000000 0.756060
O O11 0.246990 0.323804 0.091795
O O12 0.108493 0.364983 0.084221
O O13 0.159633 0.271922 0.000000
O O14 0.122622 0.881595 0.435581
O O15 0.000000 0.905610 0.500000
O O16 0.110226 0.000000 0.500000
O O17 0.367850 0.733978 0.866086
O O18 0.500000 0.905580 0.336991
O O19 0.593886 0.000000 0.388799
O O20 0.000000 0.721681 0.337268
#
# Coordination Sequence:
#
# PCOD8287729 Si02
#       8
#    16  16  16  16   8  16  16  16
#     4  10  18  30  52  81 111 143 175 219 277 335
#     4  10  21  36  54  79 113 146 185 240 291 335
#     4  10  20  35  58  85 110 141 184 234 289 341
#     4  12  23  36  55  79 107 152 196 232 274 330
#     4  11  24  40  56  78 114 154 188 227 276 334
#     4  11  21  37  56  82 110 147 189 233 274 334
#     4  10  20  33  49  73 109 148 184 224 271 322
#     4  10  19  33  55  80 108 143 181 227 283 339
#
# _framework density 17.692534999999999
#
# number of rings (size 3 to 8) (size 9 to 14) (size 15 to 20)
#    0.000    1.533    3.333    2.400    0.000    5.600 
#    0.000    0.667    0.000    0.400    0.000    1.400 
#    0.000    1.600    0.000    0.000    0.000    0.000 
#
# Total GULP energy -744181.667527 kJ/mol
# GULP energy per Si atom -12403.027792 kJ/mol
# Density = 1.765227 g / cm^3
# Si number density = 17.692535 Si / 1000 Ang^3
#
#
#
# Elastic Constant Matrix: (Units=GPa)
#
#
# Indices 1 2 3 4 5 6 
#
# 1 78.6600 42.4542 25.2518 0.0000 0.0000 0.0000
# 2 42.4542 126.0591 35.3184 0.0000 0.0000 0.0000
# 3 25.2518 35.3184 63.6186 0.0000 0.0000 0.0000
# 4 0.0000 0.0000 0.0000 17.5980 0.0000 0.0000
# 5 0.0000 0.0000 0.0000 0.0000 54.6594 0.0000
# 6 0.0000 0.0000 0.0000 0.0000 0.0000 32.8227
#
#
#
# Elastic Compliance Matrix: (Units=1/GPa)
#
#
# Indices 1 2 3 4 5 6 
#
# 1 0.016382 -0.004376 -0.004073 0.000000 0.000000 0.000000
# 2 -0.004376 0.010563 -0.004127 0.000000 0.000000 0.000000
# 3 -0.004073 -0.004127 0.019627 0.000000 0.000000 0.000000
# 4 0.000000 0.000000 0.000000 0.056825 0.000000 0.000000
# 5 0.000000 0.000000 0.000000 0.000000 0.018295 0.000000
# 6 0.000000 0.000000 0.000000 0.000000 0.000000 0.030467
#
#
# Mechanical properties :
#
#
# Convention : Reuss Voigt Hill
#
# Bulk Modulus (GPa) = 46.68707 52.70960 49.69833
# Shear Modulus (GPa) = 27.10750 32.03689 29.57219
#
# Velocity S-wave (km/s) = 3.91851 4.25992 4.09277
# Velocity P-wave (km/s) = 6.84969 7.35204 7.10531
#
# Compressibility (1/GPa) = 0.02141921
#
# Stress axis : x y z
#
# Youngs Moduli (GPa) = 61.04120 94.67128 50.95124
#
# Poissons Ratio (x) = 0.41429 0.20753
# Poissons Ratio (y) = 0.26712 0.21028
# Poissons Ratio (z) = 0.24863 0.39072
#
# Static dielectric constant tensor:
#      x y z
#    x 3.397910 0.000000 0.000000 
#    y 0.000000 3.415730 0.000000 
#    z 0.000000 0.000000 3.013410 
# 
# 
# High freq. dielectric constant tensor:
#      x y z
#    x 1.701430 0.000000 0.000000 
#    y 0.000000 1.691810 0.000000 
#    z 0.000000 0.000000 1.644810 
# 
# From -- ./inp_files/54324.got.cif
#   From: 2010.06.25/outbox.cif.g09.slc.cpg/sg71_28_cif.got.tgz:54324.got - 2010.06.28 04:59:45.
