data_PCOD8287064
_publ_section_title
;
Structure prediction by ZEFSAII (Michael W. Deem and Ramdas Pophale) SiO2 
 PCOD8287064
Probable space group: I M M M
;
_chemical_formula_sum "Si O2"
_cell_formula_units_Z 120
_cell_length_a 12.831372
_cell_length_b 27.960923
_cell_length_c 19.969518
_cell_angle_alpha 90.000000
_cell_angle_beta 90.000000
_cell_angle_gamma 90.000000
_cell_volume 7164.603849
_symmetry_space_group_name_H-M "I M M M"
_symmetry_group_IT_number 71
_symmetry_cell_setting 'orthorhombic'
loop_
_space_group_symop_operation_xyz
x,y,z
-x,-y,z
x,-y,-z
-x,y,-z
-x,-y,-z
x,y,-z
-x,y,z
x,-y,z
1/2+x,1/2+y,1/2+z
1/2-x,1/2-y,1/2+z
1/2+x,1/2-y,1/2-z
1/2-x,1/2+y,1/2-z
1/2-x,1/2-y,1/2-z
1/2+x,1/2+y,1/2-z
1/2-x,1/2+y,1/2+z
1/2+x,1/2-y,1/2+z
loop_
_atom_site_type_symbol
_atom_site_label
_atom_site_fract_x
_atom_site_fract_y
_atom_site_fract_z
Si Si1 0.883332 0.687978 0.926259
Si Si2 0.117209 0.290038 0.732411
Si Si3 0.000000 0.943013 0.578573
Si Si4 0.306657 0.728248 0.349987
Si Si5 0.120269 0.947200 0.170685
Si Si6 0.616817 0.884094 0.316288
Si Si7 0.677955 0.443869 0.819188
Si Si8 0.378043 0.365335 0.575460
O O1 0.802296 0.727013 0.899855
O O2 0.880534 0.637497 0.890037
O O3 0.000000 0.710385 0.920472
O O4 0.849433 0.675054 0.000000
O O5 0.188406 0.285036 0.667355
O O6 0.132712 0.245297 0.783027
O O7 0.144279 0.340763 0.766198
O O8 0.000000 0.289204 0.706303
O O9 0.103082 0.924619 0.620050
O O10 0.000000 0.924967 0.500000
O O11 0.000000 0.000000 0.579044
O O12 0.360884 0.683919 0.385650
O O13 0.129310 0.929792 0.247500
O O14 0.171961 0.908862 0.119358
O O15 0.000000 0.951290 0.152824
O O16 0.172452 0.000000 0.161101
O O17 0.500000 0.904787 0.300694
O O18 0.704292 0.924429 0.317330
O O19 0.687218 0.500000 0.827743
O O20 0.329297 0.364419 0.500000
O O21 0.500000 0.373508 0.569216
#
# Coordination Sequence:
#
# PCOD8287064 Si02
#       8
#    16  16   8  16  16  16  16  16
#     4   9  17  30  48  66  88 121 155 188 233 291
#     4   9  18  31  47  68  94 124 157 193 240 293
#     4   9  18  32  50  72  95 125 163 199 240 290
#     4  10  17  28  48  69  90 118 153 196 240 278
#     4   9  17  30  46  65  93 128 161 192 237 296
#     4   9  18  31  47  69  95 123 157 195 239 289
#     4  10  18  31  51  72  96 127 163 204 245 286
#     4  10  19  28  43  70  98 123 157 202 246 288
#
# _framework density 16.749006999999999
#
# number of rings (size 3 to 8) (size 9 to 14) (size 15 to 20)
#    0.000    2.600    0.667    3.200    0.000    2.133 
#    0.000    1.333    5.867    1.600    0.000    3.733 
#    0.000    0.000    0.000   11.467    0.000    0.267 
#
# Total GULP energy -743398.915113 kJ/mol
# GULP energy per Si atom -12389.981919 kJ/mol
# Density = 1.671089 g / cm^3
# Si number density = 16.749007 Si / 1000 Ang^3
#
#
#
# Elastic Constant Matrix: (Units=GPa)
#
#
# Indices 1 2 3 4 5 6 
#
# 1 79.8333 21.9590 26.7194 0.0000 0.0000 0.0000
# 2 21.9590 48.8646 34.3868 0.0000 0.0000 0.0000
# 3 26.7194 34.3868 91.0567 -0.0001 0.0000 0.0000
# 4 0.0000 0.0000 -0.0001 13.4589 0.0000 0.0000
# 5 0.0000 0.0000 0.0000 0.0000 18.6005 0.0000
# 6 0.0000 0.0000 0.0000 0.0000 0.0000 23.6379
#
#
#
# Elastic Compliance Matrix: (Units=1/GPa)
#
#
# Indices 1 2 3 4 5 6 
#
# 1 0.014691 -0.004860 -0.002476 0.000000 0.000000 0.000000
# 2 -0.004860 0.029479 -0.009707 0.000000 0.000000 0.000000
# 3 -0.002476 -0.009707 0.015374 0.000000 0.000000 0.000000
# 4 0.000000 0.000000 0.000000 0.074300 0.000000 0.000000
# 5 0.000000 0.000000 0.000000 0.000000 0.053762 0.000000
# 6 0.000000 0.000000 0.000000 0.000000 0.000000 0.042305
#
#
# Mechanical properties :
#
#
# Convention : Reuss Voigt Hill
#
# Bulk Modulus (GPa) = 39.27626 42.87612 41.07619
# Shear Modulus (GPa) = 18.34974 20.25209 19.30091
#
# Velocity S-wave (km/s) = 3.31353 3.48106 3.39833
# Velocity P-wave (km/s) = 6.17577 6.46620 6.32266
#
# Compressibility (1/GPa) = 0.02546067
#
# Stress axis : x y z
#
# Youngs Moduli (GPa) = 68.06663 33.92208 65.04398
#
# Poissons Ratio (x) = 0.16486 0.16103
# Poissons Ratio (y) = 0.33080 0.63135
# Poissons Ratio (z) = 0.16851 0.32927
#
# Static dielectric constant tensor:
#      x y z
#    x 3.030720 0.000000 0.000000 
#    y 0.000000 3.077720 0.000000 
#    z 0.000000 0.000000 3.338000 
# 
# 
# High freq. dielectric constant tensor:
#      x y z
#    x 1.619090 0.000000 0.000000 
#    y 0.000000 1.633950 0.000000 
#    z 0.000000 0.000000 1.644440 
# 
# From -- ./inp_files/52402.got.cif
#   From: 2010.06.25/outbox.cif.g09.slc.cpg/sg71_27_cif.got.tgz:52402.got - 2010.06.28 04:59:45.
