data_PCOD8287702
_publ_section_title
;
Structure prediction by ZEFSAII (Michael W. Deem and Ramdas Pophale) SiO2 
 PCOD8287702
Probable space group: I M M M
;
_chemical_formula_sum "Si O2"
_cell_formula_units_Z 96
_cell_length_a 30.199643
_cell_length_b 19.243175
_cell_length_c 8.762047
_cell_angle_alpha 90.000000
_cell_angle_beta 90.000000
_cell_angle_gamma 90.000000
_cell_volume 5091.949841
_symmetry_space_group_name_H-M "I M M M"
_symmetry_group_IT_number 71
_symmetry_cell_setting 'orthorhombic'
loop_
_space_group_symop_operation_xyz
x,y,z
-x,-y,z
x,-y,-z
-x,y,-z
-x,-y,-z
x,y,-z
-x,y,z
x,-y,z
1/2+x,1/2+y,1/2+z
1/2-x,1/2-y,1/2+z
1/2+x,1/2-y,1/2-z
1/2-x,1/2+y,1/2-z
1/2-x,1/2-y,1/2-z
1/2+x,1/2+y,1/2-z
1/2-x,1/2+y,1/2+z
1/2+x,1/2-y,1/2+z
loop_
_atom_site_type_symbol
_atom_site_label
_atom_site_fract_x
_atom_site_fract_y
_atom_site_fract_z
Si Si1 0.550096 0.919986 0.820107
Si Si2 0.048412 0.924392 0.681196
Si Si3 0.125907 0.676945 0.179750
Si Si4 0.122602 0.175812 0.318399
Si Si5 0.725993 0.817327 0.320853
Si Si6 0.700917 0.422193 0.820639
O O1 0.500000 0.897224 0.767330
O O2 0.589580 0.875345 0.747438
O O3 0.557763 0.000000 0.773067
O O4 0.553423 0.910623 0.000000
O O5 0.047243 0.923637 0.500000
O O6 0.080854 0.866569 0.741224
O O7 0.000000 0.908539 0.748181
O O8 0.064972 0.000000 0.736848
O O9 0.114552 0.754050 0.229007
O O10 0.176443 0.666718 0.240645
O O11 0.124035 0.667605 0.000000
O O12 0.124776 0.188946 0.500000
O O13 0.164652 0.132155 0.258137
O O14 0.725411 0.802622 0.500000
O O15 0.750000 0.750000 0.250000
O O16 0.751950 0.888165 0.280546
O O17 0.697606 0.500000 0.747769
O O18 0.693572 0.429648 0.000000
#
# Coordination Sequence:
#
# PCOD8287702 Si02
#       6
#    16  16  16  16  16  16
#     4   9  20  41  66  88 111 143 186 235 284 338
#     4   8  14  25  43  70 100 126 162 218 272 311
#     4  11  23  35  53  83 116 150 183 221 276 341
#     4  10  18  30  51  75 101 140 183 224 268 321
#     4  10  20  35  54  76 107 148 188 231 280 333
#     4   9  17  30  51  77 100 131 182 236 279 321
#
# _framework density 18.853289
#
# number of rings (size 3 to 8) (size 9 to 14) (size 15 to 20)
#    0.000    2.500    1.667    2.000    0.000    4.667 
#    0.000    4.167    0.000    3.500    0.000    1.167 
#    0.000    0.000    0.000    0.000    0.000    0.000 
#
# Total GULP energy -594694.115913 kJ/mol
# GULP energy per Si atom -12389.460748 kJ/mol
# Density = 1.881038 g / cm^3
# Si number density = 18.853289 Si / 1000 Ang^3
#
#
#
# Elastic Constant Matrix: (Units=GPa)
#
#
# Indices 1 2 3 4 5 6 
#
# 1 154.9113 93.2392 31.2063 0.0000 0.0000 0.0000
# 2 93.2392 138.2002 25.5006 0.0000 0.0000 0.0000
# 3 31.2063 25.5006 23.0140 0.0000 0.0000 0.0000
# 4 0.0000 0.0000 0.0000 13.6271 0.0000 0.0000
# 5 0.0000 0.0000 0.0000 0.0000 23.2351 0.0000
# 6 0.0000 0.0000 0.0000 0.0000 0.0000 39.0041
#
#
#
# Elastic Compliance Matrix: (Units=1/GPa)
#
#
# Indices 1 2 3 4 5 6 
#
# 1 0.012300 -0.006563 -0.009407 0.000000 0.000000 0.000000
# 2 -0.006563 0.012597 -0.005059 0.000000 0.000000 0.000000
# 3 -0.009407 -0.005059 0.061813 0.000000 0.000000 0.000000
# 4 0.000000 0.000000 0.000000 0.073383 0.000000 0.000000
# 5 0.000000 0.000000 0.000000 0.000000 0.043038 0.000000
# 6 0.000000 0.000000 0.000000 0.000000 0.000000 0.025638
#
#
# Mechanical properties :
#
#
# Convention : Reuss Voigt Hill
#
# Bulk Modulus (GPa) = 22.39503 68.44642 45.42073
# Shear Modulus (GPa) = 17.50007 26.25189 21.87598
#
# Velocity S-wave (km/s) = 3.04998 3.73558 3.41005
# Velocity P-wave (km/s) = 4.93027 7.41550 6.29671
#
# Compressibility (1/GPa) = 0.04465276
#
# Stress axis : x y z
#
# Youngs Moduli (GPa) = 81.29755 79.38274 16.17774
#
# Poissons Ratio (x) = 0.52099 0.15219
# Poissons Ratio (y) = 0.53355 0.08184
# Poissons Ratio (z) = 0.76477 0.40160
#
# Static dielectric constant tensor:
#      x y z
#    x 4.080700 0.000000 0.000000 
#    y 0.000000 3.594120 0.000000 
#    z 0.000000 0.000000 3.040740 
# 
# 
# High freq. dielectric constant tensor:
#      x y z
#    x 1.750860 0.000000 0.000000 
#    y 0.000000 1.738370 0.000000 
#    z 0.000000 0.000000 1.686710 
# 
# From -- ./inp_files/14877.got.cif
#   From: 2010.06.25/outbox.cif.g09.slc.cpg/sg71_8_cif.got.tgz:14877.got - 2010.06.28 04:59:45.
