data_PCOD8287923
_publ_section_title
;
Structure prediction by ZEFSAII (Michael W. Deem and Ramdas Pophale) SiO2 
 PCOD8287923
Probable space group: I M M M
;
_chemical_formula_sum "Si O2"
_cell_formula_units_Z 120
_cell_length_a 13.398076
_cell_length_b 25.244946
_cell_length_c 21.411220
_cell_angle_alpha 90.000000
_cell_angle_beta 90.000000
_cell_angle_gamma 90.000000
_cell_volume 7241.996272
_symmetry_space_group_name_H-M "I M M M"
_symmetry_group_IT_number 71
_symmetry_cell_setting 'orthorhombic'
loop_
_space_group_symop_operation_xyz
x,y,z
-x,-y,z
x,-y,-z
-x,y,-z
-x,-y,-z
x,y,-z
-x,y,z
x,-y,z
1/2+x,1/2+y,1/2+z
1/2-x,1/2-y,1/2+z
1/2+x,1/2-y,1/2-z
1/2-x,1/2+y,1/2-z
1/2-x,1/2-y,1/2-z
1/2+x,1/2+y,1/2-z
1/2-x,1/2+y,1/2+z
1/2+x,1/2-y,1/2+z
loop_
_atom_site_type_symbol
_atom_site_label
_atom_site_fract_x
_atom_site_fract_y
_atom_site_fract_z
Si Si1 0.259391 0.061844 0.615211
Si Si2 0.800708 0.245452 0.649602
Si Si3 0.116082 0.661618 0.571948
Si Si4 0.384823 0.099467 0.269571
Si Si5 0.617866 0.942284 0.864114
Si Si6 0.387143 0.776267 0.722973
Si Si7 0.383119 0.647571 0.926438
Si Si8 0.389996 0.062754 0.500000
O O1 0.312451 0.073570 0.680131
O O2 0.157031 0.094229 0.606559
O O3 0.333580 0.082428 0.561441
O O4 0.233439 0.000000 0.609040
O O5 0.817418 0.299672 0.612939
O O6 0.683592 0.242284 0.666472
O O7 0.863967 0.244018 0.713670
O O8 0.830579 0.197528 0.605054
O O9 0.133057 0.674836 0.500000
O O10 0.152479 0.601653 0.585772
O O11 0.000000 0.669195 0.590907
O O12 0.500000 0.085166 0.285075
O O13 0.348581 0.074511 0.204826
O O14 0.369466 0.161957 0.264316
O O15 0.500000 0.946415 0.866100
O O16 0.664424 0.000000 0.880850
O O17 0.500000 0.764292 0.702268
O O18 0.500000 0.650755 0.913682
O O19 0.359312 0.647527 0.000000
O O20 0.500000 0.088434 0.500000
O O21 0.397671 0.000000 0.500000
#
# Coordination Sequence:
#
# PCOD8287923 Si02
#       8
#    16  16  16  16  16  16  16   8
#     4  11  21  34  50  72  99 130 174 215 258 309
#     4  11  20  35  55  75 103 131 169 211 252 300
#     4  10  19  31  50  74 101 136 172 206 248 299
#     4  10  18  32  51  74 104 133 166 206 252 310
#     4   9  17  29  46  72 105 135 163 196 239 296
#     4  10  20  33  54  79 103 133 166 204 254 304
#     4  11  23  37  53  72  96 132 177 219 258 300
#     4   9  18  32  49  69  95 127 164 208 254 305
#
# _framework density 16.570017
#
# number of rings (size 3 to 8) (size 9 to 14) (size 15 to 20)
#    0.000    1.800    3.333    2.400    0.000    2.933 
#    0.000    2.000    0.000    1.200    0.000    0.000 
#    0.000    0.533    0.000    1.200    0.000    0.133 
#
# Total GULP energy -744023.860647 kJ/mol
# GULP energy per Si atom -12400.397677 kJ/mol
# Density = 1.653230 g / cm^3
# Si number density = 16.570017 Si / 1000 Ang^3
#
#
#
# Elastic Constant Matrix: (Units=GPa)
#
#
# Indices 1 2 3 4 5 6 
#
# 1 80.1358 40.8005 36.1797 0.0000 0.0000 0.0000
# 2 40.8005 92.9177 30.2286 0.0000 0.0000 0.0000
# 3 36.1797 30.2286 61.4485 0.0000 0.0000 0.0000
# 4 0.0000 0.0000 0.0000 23.2277 0.0000 0.0000
# 5 0.0000 0.0000 0.0000 0.0000 21.6421 0.0000
# 6 0.0000 0.0000 0.0000 0.0000 0.0000 20.8510
#
#
#
# Elastic Compliance Matrix: (Units=1/GPa)
#
#
# Indices 1 2 3 4 5 6 
#
# 1 0.019211 -0.005662 -0.008526 0.000000 0.000000 0.000000
# 2 -0.005662 0.014481 -0.003790 0.000000 0.000000 0.000000
# 3 -0.008526 -0.003790 0.023158 0.000000 0.000000 0.000000
# 4 0.000000 0.000000 0.000000 0.043052 0.000000 0.000000
# 5 0.000000 0.000000 0.000000 0.000000 0.046206 0.000000
# 6 0.000000 0.000000 0.000000 0.000000 0.000000 0.047959
#
#
# Mechanical properties :
#
#
# Convention : Reuss Voigt Hill
#
# Bulk Modulus (GPa) = 47.85921 49.87996 48.86958
# Shear Modulus (GPa) = 21.09809 21.63037 21.36423
#
# Velocity S-wave (km/s) = 3.57216 3.61694 3.59462
# Velocity P-wave (km/s) = 6.77934 6.90007 6.83997
#
# Compressibility (1/GPa) = 0.02089462
#
# Stress axis : x y z
#
# Youngs Moduli (GPa) = 52.05441 69.05382 43.18138
#
# Poissons Ratio (x) = 0.39097 0.36815
# Poissons Ratio (y) = 0.29472 0.16367
# Poissons Ratio (z) = 0.44380 0.26174
#
# Static dielectric constant tensor:
#      x y z
#    x 2.986620 0.000000 0.000000 
#    y 0.000000 3.301710 0.000000 
#    z 0.000000 0.000000 3.172430 
# 
# 
# High freq. dielectric constant tensor:
#      x y z
#    x 1.606290 0.000000 0.000000 
#    y 0.000000 1.643900 0.000000 
#    z 0.000000 0.000000 1.643720 
# 
# From -- ./inp_files/53526.got.cif
#   From: 2010.06.25/outbox.cif.g09.slc.cpg/sg71_27_cif.got.tgz:53526.got - 2010.06.28 04:59:45.
