data_PCOD8287457
_publ_section_title
;
Structure prediction by ZEFSAII (Michael W. Deem and Ramdas Pophale) SiO2 
 PCOD8287457
Probable space group: I M M M
;
_chemical_formula_sum "Si O2"
_cell_formula_units_Z 128
_cell_length_a 22.678212
_cell_length_b 13.059663
_cell_length_c 24.834221
_cell_angle_alpha 90.000000
_cell_angle_beta 90.000000
_cell_angle_gamma 90.000000
_cell_volume 7355.146420
_symmetry_space_group_name_H-M "I M M M"
_symmetry_group_IT_number 71
_symmetry_cell_setting 'orthorhombic'
loop_
_space_group_symop_operation_xyz
x,y,z
-x,-y,z
x,-y,-z
-x,y,-z
-x,-y,-z
x,y,-z
-x,y,z
x,-y,z
1/2+x,1/2+y,1/2+z
1/2-x,1/2-y,1/2+z
1/2+x,1/2-y,1/2-z
1/2-x,1/2+y,1/2-z
1/2-x,1/2-y,1/2-z
1/2+x,1/2+y,1/2-z
1/2-x,1/2+y,1/2+z
1/2+x,1/2-y,1/2+z
loop_
_atom_site_type_symbol
_atom_site_label
_atom_site_fract_x
_atom_site_fract_y
_atom_site_fract_z
Si Si1 0.347723 0.708296 0.874295
Si Si2 0.723459 0.116537 0.167402
Si Si3 0.431184 0.294325 0.776607
Si Si4 0.357998 0.115760 0.735233
Si Si5 0.742790 0.117521 0.562362
Si Si6 0.432935 0.383057 0.661762
Si Si7 0.436581 0.611639 0.062289
Si Si8 0.830891 0.747116 0.135567
O O1 0.324869 0.823894 0.868699
O O2 0.384385 0.667137 0.822005
O O3 0.294693 0.634268 0.893660
O O4 0.395144 0.705790 0.921905
O O5 0.701428 0.122730 0.228838
O O6 0.785960 0.171473 0.161918
O O7 0.727909 0.000000 0.146712
O O8 0.500000 0.294851 0.795500
O O9 0.412483 0.179343 0.759975
O O10 0.422012 0.368045 0.725506
O O11 0.339983 0.154386 0.676657
O O12 0.380724 0.000000 0.731134
O O13 0.761162 0.141625 0.500000
O O14 0.690559 0.196147 0.579522
O O15 0.721751 0.000000 0.566717
O O16 0.500000 0.354665 0.647006
O O17 0.418654 0.500000 0.647160
O O18 0.391536 0.308998 0.626071
O O19 0.500000 0.623916 0.091001
O O20 0.409287 0.500000 0.078437
O O21 0.446510 0.616429 0.000000
#
# Coordination Sequence:
#
# PCOD8287457 Si02
#       8
#    16  16  16  16  16  16  16  16
#     4  10  18  29  47  67  94 132 168 201 239 281
#     4   9  18  30  44  66  95 125 160 199 236 278
#     4   9  18  30  44  69 102 135 170 200 230 275
#     4   9  17  29  45  68  97 126 160 202 242 283
#     4  10  21  35  51  73  99 125 157 201 251 297
#     4   9  18  32  50  74 104 132 156 188 231 280
#     4   9  17  28  43  64  88 117 158 207 255 297
#     4  10  18  31  52  72  93 125 160 193 236 293
#
# _framework density 17.40278
#
# number of rings (size 3 to 8) (size 9 to 14) (size 15 to 20)
#    0.000    2.625    0.000    2.625    0.000    3.250 
#    0.000    1.250    0.000   15.375    0.000    2.625 
#    0.000    0.000    0.000    0.000    0.000    0.000 
#
# Total GULP energy -792942.734059 kJ/mol
# GULP energy per Si atom -12389.730220 kJ/mol
# Density = 1.736317 g / cm^3
# Si number density = 17.402780 Si / 1000 Ang^3
#
#
#
# Elastic Constant Matrix: (Units=GPa)
#
#
# Indices 1 2 3 4 5 6 
#
# 1 92.1332 38.1510 33.7640 0.0000 0.0000 0.0000
# 2 38.1510 80.3872 30.2208 0.0000 0.0000 0.0000
# 3 33.7640 30.2208 54.6957 0.0000 0.0000 0.0000
# 4 0.0000 0.0000 0.0000 24.4233 0.0000 0.0000
# 5 0.0000 0.0000 0.0000 0.0000 26.2809 0.0000
# 6 0.0000 0.0000 0.0000 0.0000 0.0000 17.4833
#
#
#
# Elastic Compliance Matrix: (Units=1/GPa)
#
#
# Indices 1 2 3 4 5 6 
#
# 1 0.015309 -0.004686 -0.006861 0.000000 0.000000 0.000000
# 2 -0.004686 0.017136 -0.006575 0.000000 0.000000 0.000000
# 3 -0.006861 -0.006575 0.026151 0.000000 0.000000 0.000000
# 4 0.000000 0.000000 0.000000 0.040945 0.000000 0.000000
# 5 0.000000 0.000000 0.000000 0.000000 0.038050 0.000000
# 6 0.000000 0.000000 0.000000 0.000000 0.000000 0.057197
#
#
# Mechanical properties :
#
#
# Convention : Reuss Voigt Hill
#
# Bulk Modulus (GPa) = 44.74037 47.94309 46.34173
# Shear Modulus (GPa) = 20.96589 21.97617 21.47103
#
# Velocity S-wave (km/s) = 3.47471 3.55744 3.51632
# Velocity P-wave (km/s) = 6.47014 6.66954 6.57059
#
# Compressibility (1/GPa) = 0.02235118
#
# Stress axis : x y z
#
# Youngs Moduli (GPa) = 65.32281 58.35797 38.23908
#
# Poissons Ratio (x) = 0.27347 0.26236
# Poissons Ratio (y) = 0.30610 0.25143
# Poissons Ratio (z) = 0.44818 0.38371
#
# Static dielectric constant tensor:
#      x y z
#    x 3.397220 0.000000 0.000000 
#    y 0.000000 3.259380 0.000000 
#    z 0.000000 0.000000 3.066460 
# 
# 
# High freq. dielectric constant tensor:
#      x y z
#    x 1.675130 0.000000 0.000000 
#    y 0.000000 1.666180 0.000000 
#    z 0.000000 0.000000 1.644510 
# 
# From -- ./inp_files/61730.got.cif
#   From: 2010.06.25/outbox.cif.g09.slc.cpg/sg71_31_cif.got.tgz:61730.got - 2010.06.28 04:59:45.
