data_PCOD8287176
_publ_section_title
;
Structure prediction by ZEFSAII (Michael W. Deem and Ramdas Pophale) SiO2 
 PCOD8287176
Probable space group: I M M M
;
_chemical_formula_sum "Si O2"
_cell_formula_units_Z 112
_cell_length_a 28.801941
_cell_length_b 14.168775
_cell_length_c 18.350535
_cell_angle_alpha 90.000000
_cell_angle_beta 90.000000
_cell_angle_gamma 90.000000
_cell_volume 7488.637193
_symmetry_space_group_name_H-M "I M M M"
_symmetry_group_IT_number 71
_symmetry_cell_setting 'orthorhombic'
loop_
_space_group_symop_operation_xyz
x,y,z
-x,-y,z
x,-y,-z
-x,y,-z
-x,-y,-z
x,y,-z
-x,y,z
x,-y,z
1/2+x,1/2+y,1/2+z
1/2-x,1/2-y,1/2+z
1/2+x,1/2-y,1/2-z
1/2-x,1/2+y,1/2-z
1/2-x,1/2-y,1/2-z
1/2+x,1/2+y,1/2-z
1/2-x,1/2+y,1/2+z
1/2+x,1/2-y,1/2+z
loop_
_atom_site_type_symbol
_atom_site_label
_atom_site_fract_x
_atom_site_fract_y
_atom_site_fract_z
Si Si1 0.721054 0.394793 0.413330
Si Si2 0.136291 0.231066 0.086723
Si Si3 0.823125 0.612308 0.581221
Si Si4 0.500000 0.112601 0.082966
Si Si5 0.000000 0.611399 0.918975
Si Si6 0.910466 0.611986 0.331342
Si Si7 0.051366 0.894470 0.913835
Si Si8 0.092061 0.611170 0.164535
O O1 0.719953 0.400588 0.500000
O O2 0.710817 0.500000 0.382110
O O3 0.682377 0.322010 0.385154
O O4 0.772143 0.358417 0.388608
O O5 0.091788 0.172738 0.116071
O O6 0.134368 0.333318 0.125723
O O7 0.136412 0.244563 0.000000
O O8 0.831362 0.653124 0.500000
O O9 0.825461 0.500000 0.578048
O O10 0.863126 0.653273 0.633698
O O11 0.545365 0.152237 0.124547
O O12 0.500000 0.000000 0.083982
O O13 0.500000 0.150032 0.000000
O O14 0.045447 0.643970 0.876293
O O15 0.000000 0.500000 0.925964
O O16 0.000000 0.657643 0.000000
O O17 0.910774 0.500000 0.336872
O O18 0.913101 0.643632 0.247800
O O19 0.000000 0.855428 0.892022
O O20 0.058089 0.000000 0.881785
O O21 0.055936 0.900222 0.000000
O O22 0.101960 0.500000 0.157348
#
# Coordination Sequence:
#
# PCOD8287176 Si02
#       8
#    16  16  16   8   8  16  16  16
#     4   8  14  25  41  61  80  96 121 162 205 242
#     4  10  18  26  39  55  73 100 138 174 200 226
#     4   8  13  23  41  61  78  97 122 153 194 244
#     4   9  15  23  39  61  79  96 124 157 190 235
#     4   9  17  29  41  49  62  93 138 178 199 209
#     4   9  16  26  38  54  79 106 128 156 194 234
#     4   8  14  24  37  54  74  92 115 155 205 249
#     4  10  20  30  38  51  75 107 141 172 197 222
#
# _framework density 14.955992
#
# number of rings (size 3 to 8) (size 9 to 14) (size 15 to 20)
#    0.000    3.143    0.000    3.000    1.000    6.000 
#    0.000    0.714    0.000    0.000    0.000    0.000 
#    0.000    0.000    0.000    0.000    0.000   12.000 
#
# Total GULP energy -694041.371870 kJ/mol
# GULP energy per Si atom -12393.595926 kJ/mol
# Density = 1.492195 g / cm^3
# Si number density = 14.955992 Si / 1000 Ang^3
#
#
#
# Elastic Constant Matrix: (Units=GPa)
#
#
# Indices 1 2 3 4 5 6 
#
# 1 134.4018 38.3375 54.9657 0.0000 0.0000 0.0000
# 2 38.3375 37.1813 25.0946 0.0000 0.0000 0.0000
# 3 54.9657 25.0946 81.6390 0.0000 0.0000 0.0000
# 4 0.0000 0.0000 0.0000 7.9709 0.0000 0.0000
# 5 0.0000 0.0000 0.0000 0.0000 13.6704 0.0000
# 6 0.0000 0.0000 0.0000 0.0000 0.0000 6.9956
#
#
#
# Elastic Compliance Matrix: (Units=1/GPa)
#
#
# Indices 1 2 3 4 5 6 
#
# 1 0.012226 -0.008896 -0.005497 0.000000 0.000000 0.000000
# 2 -0.008896 0.040409 -0.006431 0.000000 0.000000 0.000000
# 3 -0.005497 -0.006431 0.017927 0.000000 0.000000 0.000000
# 4 0.000000 0.000000 0.000000 0.125456 0.000000 0.000000
# 5 0.000000 0.000000 0.000000 0.000000 0.073151 0.000000
# 6 0.000000 0.000000 0.000000 0.000000 0.000000 0.142946
#
#
# Mechanical properties :
#
#
# Convention : Reuss Voigt Hill
#
# Bulk Modulus (GPa) = 34.58695 54.44641 44.51668
# Shear Modulus (GPa) = 10.78978 14.71568 12.75273
#
# Velocity S-wave (km/s) = 2.68887 3.14017 2.92324
# Velocity P-wave (km/s) = 5.72853 7.04493 6.42055
#
# Compressibility (1/GPa) = 0.02891264
#
# Stress axis : x y z
#
# Youngs Moduli (GPa) = 81.79252 24.74704 55.78184
#
# Poissons Ratio (x) = 0.22015 0.30663
# Poissons Ratio (y) = 0.72764 0.35876
# Poissons Ratio (z) = 0.44961 0.15916
#
# Static dielectric constant tensor:
#      x y z
#    x 3.224590 0.000000 0.000000 
#    y 0.000000 2.615670 0.000000 
#    z 0.000000 0.000000 2.717850 
# 
# 
# High freq. dielectric constant tensor:
#      x y z
#    x 1.581490 0.000000 0.000000 
#    y 0.000000 1.527200 0.000000 
#    z 0.000000 0.000000 1.539900 
# 
# From -- ./inp_files/49502.got.cif
#   From: 2010.06.25/outbox.cif.g09.slc.cpg/sg71_25_cif.got.tgz:49502.got - 2010.06.28 04:59:45.
