data_PCOD8287594
_publ_section_title
;
Structure prediction by ZEFSAII (Michael W. Deem and Ramdas Pophale) SiO2 
 PCOD8287594
Probable space group: I M M M
;
_chemical_formula_sum "Si O2"
_cell_formula_units_Z 96
_cell_length_a 8.857725
_cell_length_b 22.208084
_cell_length_c 27.581398
_cell_angle_alpha 90.000000
_cell_angle_beta 90.000000
_cell_angle_gamma 90.000000
_cell_volume 5425.622326
_symmetry_space_group_name_H-M "I M M M"
_symmetry_group_IT_number 71
_symmetry_cell_setting 'orthorhombic'
loop_
_space_group_symop_operation_xyz
x,y,z
-x,-y,z
x,-y,-z
-x,y,-z
-x,-y,-z
x,y,-z
-x,y,z
x,-y,z
1/2+x,1/2+y,1/2+z
1/2-x,1/2-y,1/2+z
1/2+x,1/2-y,1/2-z
1/2-x,1/2+y,1/2-z
1/2-x,1/2-y,1/2-z
1/2+x,1/2+y,1/2-z
1/2-x,1/2+y,1/2+z
1/2+x,1/2-y,1/2+z
loop_
_atom_site_type_symbol
_atom_site_label
_atom_site_fract_x
_atom_site_fract_y
_atom_site_fract_z
Si Si1 0.822306 0.738401 0.445989
Si Si2 0.673754 0.199862 0.638106
Si Si3 0.178230 0.000000 0.235563
Si Si4 0.320417 0.500000 0.623128
Si Si5 0.177924 0.815417 0.197602
Si Si6 0.820515 0.379300 0.611862
Si Si7 0.824075 0.382503 0.778507
O O1 0.754564 0.745918 0.500000
O O2 0.764263 0.792990 0.412047
O O3 0.772867 0.673015 0.425806
O O4 0.000000 0.743194 0.447425
O O5 0.500000 0.208689 0.624723
O O6 0.725260 0.251624 0.675513
O O7 0.702522 0.135769 0.664744
O O8 0.232175 0.000000 0.179713
O O9 0.235966 0.942462 0.265116
O O10 0.000000 0.000000 0.237626
O O11 0.500000 0.500000 0.617490
O O12 0.247559 0.556918 0.594933
O O13 0.238817 0.868078 0.162921
O O14 0.263324 0.825182 0.248254
O O15 0.000000 0.823002 0.205088
O O16 0.000000 0.382569 0.618408
O O17 0.000000 0.391928 0.767949
#
# Coordination Sequence:
#
# PCOD8287594 Si02
#       7
#    16  16   8   8  16  16  16
#     4   9  19  36  56  78 101 126 162 209 258 305
#     4   9  20  34  50  75 103 131 164 203 250 300
#     4  11  23  35  49  70 100 141 177 210 245 287
#     4  11  21  33  48  68  98 134 176 216 248 293
#     4  10  18  30  47  70 102 134 165 203 245 292
#     4  10  19  31  50  72  96 131 172 210 251 296
#     4  11  21  33  49  72 102 135 171 206 241 292
#
# _framework density 17.693822999999998
#
# number of rings (size 3 to 8) (size 9 to 14) (size 15 to 20)
#    0.000    2.000    1.667    2.500    0.000    3.667 
#    0.000    0.417    0.000    2.500    0.000    0.583 
#    0.000    4.667    0.000    0.000    0.000    0.000 
#
# Total GULP energy -595073.191855 kJ/mol
# GULP energy per Si atom -12397.358164 kJ/mol
# Density = 1.765355 g / cm^3
# Si number density = 17.693823 Si / 1000 Ang^3
#
#
#
# Elastic Constant Matrix: (Units=GPa)
#
#
# Indices 1 2 3 4 5 6 
#
# 1 43.0361 19.2412 27.5991 0.0000 0.0000 0.0000
# 2 19.2412 48.6974 32.3779 0.0000 0.0000 0.0000
# 3 27.5991 32.3779 102.2578 0.0000 0.0000 0.0000
# 4 0.0000 0.0000 0.0000 15.6410 0.0000 0.0000
# 5 0.0000 0.0000 0.0000 0.0000 23.3307 0.0000
# 6 0.0000 0.0000 0.0000 0.0000 0.0000 27.7618
#
#
#
# Elastic Compliance Matrix: (Units=1/GPa)
#
#
# Indices 1 2 3 4 5 6 
#
# 1 0.030564 -0.008349 -0.005605 0.000000 0.000000 0.000000
# 2 -0.008349 0.028292 -0.006704 0.000000 0.000000 0.000000
# 3 -0.005605 -0.006704 0.013415 0.000000 0.000000 0.000000
# 4 0.000000 0.000000 0.000000 0.063935 0.000000 0.000000
# 5 0.000000 0.000000 0.000000 0.000000 0.042862 0.000000
# 6 0.000000 0.000000 0.000000 0.000000 0.000000 0.036021
#
#
# Mechanical properties :
#
#
# Convention : Reuss Voigt Hill
#
# Bulk Modulus (GPa) = 32.30821 39.15862 35.73341
# Shear Modulus (GPa) = 18.74595 20.99823 19.87209
#
# Velocity S-wave (km/s) = 3.25847 3.44867 3.35492
# Velocity P-wave (km/s) = 5.69702 6.16742 5.93688
#
# Compressibility (1/GPa) = 0.03095189
#
# Stress axis : x y z
#
# Youngs Moduli (GPa) = 32.71808 35.34611 74.54370
#
# Poissons Ratio (x) = 0.29512 0.41785
# Poissons Ratio (y) = 0.27318 0.49978
# Poissons Ratio (z) = 0.18340 0.23698
#
# Static dielectric constant tensor:
#      x y z
#    x 3.250020 0.000000 0.000000 
#    y 0.000000 3.237790 0.000000 
#    z 0.000000 0.000000 3.312690 
# 
# 
# High freq. dielectric constant tensor:
#      x y z
#    x 1.691570 0.000000 0.000000 
#    y 0.000000 1.670110 0.000000 
#    z 0.000000 0.000000 1.658490 
# 
# From -- ./inp_files/12935.got.cif
#   From: 2010.06.25/outbox.cif.g09.slc.cpg/sg71_7_cif.got.tgz:12935.got - 2010.06.28 04:59:45.
