data_PCOD8287924
_publ_section_title
;
Structure prediction by ZEFSAII (Michael W. Deem and Ramdas Pophale) SiO2 
 PCOD8287924
Probable space group: I M M M
;
_chemical_formula_sum "Si O2"
_cell_formula_units_Z 120
_cell_length_a 27.375361
_cell_length_b 29.282297
_cell_length_c 9.556269
_cell_angle_alpha 90.000000
_cell_angle_beta 90.000000
_cell_angle_gamma 90.000000
_cell_volume 7660.433774
_symmetry_space_group_name_H-M "I M M M"
_symmetry_group_IT_number 71
_symmetry_cell_setting 'orthorhombic'
loop_
_space_group_symop_operation_xyz
x,y,z
-x,-y,z
x,-y,-z
-x,y,-z
-x,-y,-z
x,y,-z
-x,y,z
x,-y,z
1/2+x,1/2+y,1/2+z
1/2-x,1/2-y,1/2+z
1/2+x,1/2-y,1/2-z
1/2-x,1/2+y,1/2-z
1/2-x,1/2-y,1/2-z
1/2+x,1/2+y,1/2-z
1/2-x,1/2+y,1/2+z
1/2+x,1/2-y,1/2+z
loop_
_atom_site_type_symbol
_atom_site_label
_atom_site_fract_x
_atom_site_fract_y
_atom_site_fract_z
Si Si1 0.942737 0.500000 0.156172
Si Si2 0.155372 0.205651 0.836742
Si Si3 0.946414 0.242396 0.837151
Si Si4 0.694114 0.215158 0.842856
Si Si5 0.215098 0.449128 0.665149
Si Si6 0.233326 0.138638 0.163821
Si Si7 0.586516 0.821992 0.845407
Si Si8 0.394762 0.924170 0.163552
O O1 0.926976 0.544025 0.241026
O O2 0.000000 0.500000 0.143612
O O3 0.919554 0.500000 0.000000
O O4 0.098340 0.209207 0.787756
O O5 0.190787 0.240877 0.757027
O O6 0.177009 0.154575 0.806896
O O7 0.159648 0.217366 0.000000
O O8 0.943937 0.291045 0.761012
O O9 0.000000 0.220167 0.804964
O O10 0.941016 0.252701 0.000000
O O11 0.731580 0.178484 0.776477
O O12 0.642483 0.191183 0.847995
O O13 0.709844 0.230388 0.000000
O O14 0.220785 0.453202 0.500000
O O15 0.224067 0.500000 0.730295
O O16 0.254246 0.411749 0.726523
O O17 0.161753 0.430627 0.705243
O O18 0.244668 0.135569 0.000000
O O19 0.584866 0.874363 0.799187
O O20 0.563652 0.815547 0.000000
O O21 0.401852 0.935908 0.000000
#
# Coordination Sequence:
#
# PCOD8287924 Si02
#       8
#     8  16  16  16  16  16  16  16
#     4  11  25  39  47  59  81 107 137 181 230 259
#     4   9  17  27  40  60  85 110 140 172 201 240
#     4   9  18  31  43  56  81 117 149 174 203 240
#     4   9  15  25  41  61  87 111 131 160 202 249
#     4   9  15  25  45  69  87 105 132 169 216 261
#     4   9  15  24  40  63  88 109 130 165 210 251
#     4   9  17  28  45  67  85 103 134 174 212 249
#     4  10  18  32  52  67  80 103 138 176 214 262
#
# _framework density 15.664909
#
# number of rings (size 3 to 8) (size 9 to 14) (size 15 to 20)
#    0.000    2.733    2.000    0.600    0.000    1.867 
#    0.000    2.667    0.000    0.800    0.000    0.000 
#    0.000    0.533    0.000    7.467    0.000    0.000 
#
# Total GULP energy -743354.373504 kJ/mol
# GULP energy per Si atom -12389.239558 kJ/mol
# Density = 1.562925 g / cm^3
# Si number density = 15.664909 Si / 1000 Ang^3
#
#
#
# Elastic Constant Matrix: (Units=GPa)
#
#
# Indices 1 2 3 4 5 6 
#
# 1 82.4334 57.6859 17.3555 0.0000 0.0000 0.0000
# 2 57.6859 72.2520 27.6247 0.0000 0.0000 0.0000
# 3 17.3555 27.6247 28.9486 0.0000 0.0000 0.0000
# 4 0.0000 0.0000 0.0000 5.7272 0.0000 0.0000
# 5 0.0000 0.0000 0.0000 0.0000 12.4397 0.0000
# 6 0.0000 0.0000 0.0000 0.0000 0.0000 9.2512
#
#
#
# Elastic Compliance Matrix: (Units=1/GPa)
#
#
# Indices 1 2 3 4 5 6 
#
# 1 0.028429 -0.025476 0.007267 0.000000 0.000000 0.000000
# 2 -0.025476 0.044621 -0.027307 0.000000 0.000000 0.000000
# 3 0.007267 -0.027307 0.056245 0.000000 0.000000 0.000000
# 4 0.000000 0.000000 0.000000 0.174607 0.000000 0.000000
# 5 0.000000 0.000000 0.000000 0.000000 0.080388 0.000000
# 6 0.000000 0.000000 0.000000 0.000000 0.000000 0.108094
#
#
# Mechanical properties :
#
#
# Convention : Reuss Voigt Hill
#
# Bulk Modulus (GPa) = 26.13460 43.21847 34.67654
# Shear Modulus (GPa) = 8.38689 10.88147 9.63418
#
# Velocity S-wave (km/s) = 2.31637 2.63846 2.48264
# Velocity P-wave (km/s) = 4.88609 6.07711 5.51385
#
# Compressibility (1/GPa) = 0.03826345
#
# Stress axis : x y z
#
# Youngs Moduli (GPa) = 35.17571 22.41116 17.77937
#
# Poissons Ratio (x) = 0.57094 -0.12920
# Poissons Ratio (y) = 0.89613 0.48549
# Poissons Ratio (z) = -0.25562 0.61197
#
# Static dielectric constant tensor:
#      x y z
#    x 3.101370 0.000000 0.000000 
#    y 0.000000 3.087140 0.000000 
#    z 0.000000 0.000000 2.943450 
# 
# 
# High freq. dielectric constant tensor:
#      x y z
#    x 1.593050 0.000000 0.000000 
#    y 0.000000 1.582760 0.000000 
#    z 0.000000 0.000000 1.575700 
# 
# From -- ./inp_files/30369.got.cif
#   From: 2010.06.25/outbox.cif.g09.slc.cpg/sg71_16_cif.got.tgz:30369.got - 2010.06.28 04:59:45.
