data_PCOD8287405
_publ_section_title
;
Structure prediction by ZEFSAII (Michael W. Deem and Ramdas Pophale) SiO2 
 PCOD8287405
Probable space group: I M M M
;
_chemical_formula_sum "Si O2"
_cell_formula_units_Z 96
_cell_length_a 8.683849
_cell_length_b 28.698597
_cell_length_c 26.059643
_cell_angle_alpha 90.000000
_cell_angle_beta 90.000000
_cell_angle_gamma 90.000000
_cell_volume 6494.435242
_symmetry_space_group_name_H-M "I M M M"
_symmetry_group_IT_number 71
_symmetry_cell_setting 'orthorhombic'
loop_
_space_group_symop_operation_xyz
x,y,z
-x,-y,z
x,-y,-z
-x,y,-z
-x,-y,-z
x,y,-z
-x,y,z
x,-y,z
1/2+x,1/2+y,1/2+z
1/2-x,1/2-y,1/2+z
1/2+x,1/2-y,1/2-z
1/2-x,1/2+y,1/2-z
1/2-x,1/2-y,1/2-z
1/2+x,1/2+y,1/2-z
1/2-x,1/2+y,1/2+z
1/2+x,1/2-y,1/2+z
loop_
_atom_site_type_symbol
_atom_site_label
_atom_site_fract_x
_atom_site_fract_y
_atom_site_fract_z
Si Si1 0.319284 0.643585 0.254987
Si Si2 0.678289 0.052402 0.098616
Si Si3 0.317297 0.776630 0.701215
Si Si4 0.680990 0.196142 0.148557
Si Si5 0.679010 0.947862 0.782287
Si Si6 0.323392 0.358103 0.558728
O O1 0.500000 0.651715 0.254951
O O2 0.245816 0.670530 0.205817
O O3 0.250296 0.662223 0.308343
O O4 0.278645 0.588984 0.249716
O O5 0.500000 0.064934 0.090396
O O6 0.721953 0.056911 0.158146
O O7 0.780563 0.087765 0.065984
O O8 0.712605 0.000000 0.079299
O O9 0.500000 0.776542 0.700961
O O10 0.250000 0.750000 0.750000
O O11 0.253638 0.748344 0.651932
O O12 0.500000 0.199183 0.157097
O O13 0.717407 0.175321 0.092955
O O14 0.500000 0.937100 0.773812
O O15 0.719273 0.000000 0.763028
O O16 0.295357 0.343974 0.500000
O O17 0.500000 0.350962 0.574802
#
# Coordination Sequence:
#
# PCOD8287405 Si02
#       6
#    16  16  16  16  16  16
#     4  11  19  28  44  66  88 108 135 168 207 249
#     4   9  18  32  48  62  77 102 137 176 218 262
#     4  10  18  29  45  64  85 107 132 162 204 248
#     4  11  20  32  47  62  82 105 134 171 211 253
#     4   9  17  29  44  62  84 111 141 173 211 253
#     4  11  23  35  46  62  82 105 136 175 219 263
#
# _framework density 14.781886
#
# number of rings (size 3 to 8) (size 9 to 14) (size 15 to 20)
#    0.000    1.833    1.667    8.000    0.000    2.333 
#    0.000    3.333    0.000    0.000    0.000    0.000 
#    0.000    0.000    0.000    0.000    0.000    0.833 
#
# Total GULP energy -595125.941943 kJ/mol
# GULP energy per Si atom -12398.457124 kJ/mol
# Density = 1.474824 g / cm^3
# Si number density = 14.781886 Si / 1000 Ang^3
#
#
#
# Elastic Constant Matrix: (Units=GPa)
#
#
# Indices 1 2 3 4 5 6 
#
# 1 112.1571 46.2265 25.7874 0.0000 0.0000 0.0000
# 2 46.2265 90.7882 38.4589 0.0000 0.0000 0.0000
# 3 25.7874 38.4589 37.6816 0.0000 0.0000 0.0000
# 4 0.0000 0.0000 0.0000 19.3836 0.0000 0.0000
# 5 0.0000 0.0000 0.0000 0.0000 17.5143 0.0000
# 6 0.0000 0.0000 0.0000 0.0000 0.0000 27.8463
#
#
#
# Elastic Compliance Matrix: (Units=1/GPa)
#
#
# Indices 1 2 3 4 5 6 
#
# 1 0.011518 -0.004449 -0.003341 0.000000 0.000000 0.000000
# 2 -0.004449 0.021123 -0.018513 0.000000 0.000000 0.000000
# 3 -0.003341 -0.018513 0.047720 0.000000 0.000000 0.000000
# 4 0.000000 0.000000 0.000000 0.051590 0.000000 0.000000
# 5 0.000000 0.000000 0.000000 0.000000 0.057096 0.000000
# 6 0.000000 0.000000 0.000000 0.000000 0.000000 0.035911
#
#
# Mechanical properties :
#
#
# Convention : Reuss Voigt Hill
#
# Bulk Modulus (GPa) = 36.03258 51.28584 43.65921
# Shear Modulus (GPa) = 17.43269 21.62579 19.52924
#
# Velocity S-wave (km/s) = 3.43786 3.82906 3.63872
# Velocity P-wave (km/s) = 6.33937 7.37016 6.87411
#
# Compressibility (1/GPa) = 0.02775266
#
# Stress axis : x y z
#
# Youngs Moduli (GPa) = 86.81980 47.34276 20.95548
#
# Poissons Ratio (x) = 0.21064 0.07002
# Poissons Ratio (y) = 0.38628 0.38796
# Poissons Ratio (z) = 0.29010 0.87648
#
# Static dielectric constant tensor:
#      x y z
#    x 2.918160 0.000000 0.000000 
#    y 0.000000 3.280850 0.000000 
#    z 0.000000 0.000000 2.605330 
# 
# 
# High freq. dielectric constant tensor:
#      x y z
#    x 1.581420 0.000000 0.000000 
#    y 0.000000 1.566030 0.000000 
#    z 0.000000 0.000000 1.505590 
# 
# From -- ./inp_files/63658.got.cif
#   From: 2010.06.25/outbox.cif.g09.slc.cpg/sg71_32_cif.got.tgz:63658.got - 2010.06.28 04:59:45.
