data_PCOD8287639
_publ_section_title
;
Structure prediction by ZEFSAII (Michael W. Deem and Ramdas Pophale) SiO2 
 PCOD8287639
Probable space group: I M M M
;
_chemical_formula_sum "Si O2"
_cell_formula_units_Z 112
_cell_length_a 14.440815
_cell_length_b 30.007305
_cell_length_c 15.699206
_cell_angle_alpha 90.000000
_cell_angle_beta 90.000000
_cell_angle_gamma 90.000000
_cell_volume 6802.935996
_symmetry_space_group_name_H-M "I M M M"
_symmetry_group_IT_number 71
_symmetry_cell_setting 'orthorhombic'
loop_
_space_group_symop_operation_xyz
x,y,z
-x,-y,z
x,-y,-z
-x,y,-z
-x,-y,-z
x,y,-z
-x,y,z
x,-y,z
1/2+x,1/2+y,1/2+z
1/2-x,1/2-y,1/2+z
1/2+x,1/2-y,1/2-z
1/2-x,1/2+y,1/2-z
1/2-x,1/2-y,1/2-z
1/2+x,1/2+y,1/2-z
1/2-x,1/2+y,1/2+z
1/2+x,1/2-y,1/2+z
loop_
_atom_site_type_symbol
_atom_site_label
_atom_site_fract_x
_atom_site_fract_y
_atom_site_fract_z
Si Si1 0.717350 0.707544 0.405905
Si Si2 0.893491 0.208877 0.257275
Si Si3 0.201439 0.551571 0.898748
Si Si4 0.097477 0.948279 0.400080
Si Si5 0.397096 0.192225 0.816912
Si Si6 0.104404 0.633152 0.158066
Si Si7 0.263438 0.308809 0.092882
O O1 0.684796 0.691444 0.500000
O O2 0.647133 0.691160 0.332578
O O3 0.820784 0.688165 0.390589
O O4 0.718951 0.760429 0.401237
O O5 0.880048 0.262237 0.263748
O O6 0.840203 0.184002 0.334111
O O7 0.000000 0.194817 0.262497
O O8 0.188465 0.500000 0.873077
O O9 0.303374 0.570560 0.868138
O O10 0.125306 0.580292 0.847769
O O11 0.189103 0.557045 0.000000
O O12 0.095024 0.941061 0.500000
O O13 0.000000 0.927560 0.361812
O O14 0.098164 0.000000 0.377817
O O15 0.500000 0.192903 0.857982
O O16 0.385230 0.150375 0.754493
O O17 0.178314 0.657203 0.098063
O O18 0.000000 0.642430 0.125495
O O19 0.311007 0.315588 0.000000
#
# Coordination Sequence:
#
# PCOD8287639 Si02
#       7
#    16  16  16  16  16  16  16
#     4  10  18  30  49  70  92 118 151 194 242 287
#     4  10  18  32  48  65  95 125 154 195 238 280
#     4   9  18  30  42  61  90 120 153 196 240 278
#     4   7  10  20  39  57  72  96 132 173 216 261
#     4   9  17  31  49  66  89 122 157 195 236 277
#     4  11  20  31  47  63  86 123 164 202 236 273
#     4  10  19  31  47  67  91 122 162 196 228 273
#
# _framework density 16.463479
#
# number of rings (size 3 to 8) (size 9 to 14) (size 15 to 20)
#    0.000    2.571    2.857    2.571    0.000    2.286 
#    0.000    5.714    0.000    1.714    0.000    0.000 
#    0.000    0.571    0.000    3.143    0.000    1.857 
#
# Total GULP energy -693739.635678 kJ/mol
# GULP energy per Si atom -12388.207780 kJ/mol
# Density = 1.642601 g / cm^3
# Si number density = 16.463479 Si / 1000 Ang^3
#
#
#
# Elastic Constant Matrix: (Units=GPa)
#
#
# Indices 1 2 3 4 5 6 
#
# 1 116.7052 33.8195 55.5853 0.0000 -0.0001 0.0000
# 2 33.8195 52.2136 17.4187 0.0002 -0.0001 -0.0001
# 3 55.5853 17.4187 98.7667 -0.0009 -0.0002 -0.0001
# 4 0.0000 0.0002 -0.0009 12.0079 -0.0001 0.0000
# 5 -0.0001 -0.0001 -0.0002 -0.0001 14.7514 0.0001
# 6 0.0000 -0.0001 -0.0001 0.0000 0.0001 21.5644
#
#
#
# Elastic Compliance Matrix: (Units=1/GPa)
#
#
# Indices 1 2 3 4 5 6 
#
# 1 0.013571 -0.006633 -0.006468 0.000000 0.000000 0.000000
# 2 -0.006633 0.023591 -0.000428 0.000000 0.000000 0.000000
# 3 -0.006468 -0.000428 0.013841 0.000001 0.000000 0.000000
# 4 0.000000 0.000000 0.000001 0.083279 0.000000 0.000000
# 5 0.000000 0.000000 0.000000 0.000000 0.067790 0.000000
# 6 0.000000 0.000000 0.000000 0.000000 0.000000 0.046373
#
#
# Mechanical properties :
#
#
# Convention : Reuss Voigt Hill
#
# Bulk Modulus (GPa) = 41.76103 53.48140 47.62121
# Shear Modulus (GPa) = 17.63775 20.38887 19.01331
#
# Velocity S-wave (km/s) = 3.27666 3.52295 3.40204
# Velocity P-wave (km/s) = 6.30367 7.00740 6.66483
#
# Compressibility (1/GPa) = 0.02394577
#
# Stress axis : x y z
#
# Youngs Moduli (GPa) = 73.68491 42.38941 72.25160
#
# Poissons Ratio (x) = 0.28115 0.46733
# Poissons Ratio (y) = 0.48872 0.03091
# Poissons Ratio (z) = 0.47660 0.01813
#
# Static dielectric constant tensor:
#      x y z
#    x 3.444030 0.000000 0.000000 
#    y 0.000000 2.819540 0.000000 
#    z 0.000000 0.000000 2.897200 
# 
# 
# High freq. dielectric constant tensor:
#      x y z
#    x 1.651490 0.000000 0.000000 
#    y 0.000000 1.592630 0.000000 
#    z 0.000000 0.000000 1.593340 
# 
# From -- ./inp_files/35382.got.cif
#   From: 2010.06.25/outbox.cif.g09.slc.cpg/sg71_18_cif.got.tgz:35382.got - 2010.06.28 04:59:45.
