data_PCOD8287632
_publ_section_title
;
Structure prediction by ZEFSAII (Michael W. Deem and Ramdas Pophale) SiO2 
 PCOD8287632
Probable space group: I M M M
;
_chemical_formula_sum "Si O2"
_cell_formula_units_Z 120
_cell_length_a 12.028758
_cell_length_b 21.882662
_cell_length_c 25.837988
_cell_angle_alpha 90.000000
_cell_angle_beta 90.000000
_cell_angle_gamma 90.000000
_cell_volume 6801.107385
_symmetry_space_group_name_H-M "I M M M"
_symmetry_group_IT_number 71
_symmetry_cell_setting 'orthorhombic'
loop_
_space_group_symop_operation_xyz
x,y,z
-x,-y,z
x,-y,-z
-x,y,-z
-x,-y,-z
x,y,-z
-x,y,z
x,-y,z
1/2+x,1/2+y,1/2+z
1/2-x,1/2-y,1/2+z
1/2+x,1/2-y,1/2-z
1/2-x,1/2+y,1/2-z
1/2-x,1/2-y,1/2-z
1/2+x,1/2+y,1/2-z
1/2-x,1/2+y,1/2+z
1/2+x,1/2-y,1/2+z
loop_
_atom_site_type_symbol
_atom_site_label
_atom_site_fract_x
_atom_site_fract_y
_atom_site_fract_z
Si Si1 0.222657 0.327881 0.715343
Si Si2 0.131706 0.934144 0.942592
Si Si3 0.368307 0.322966 0.620749
Si Si4 0.368513 0.500000 0.940137
Si Si5 0.374275 0.706924 0.808413
Si Si6 0.872607 0.570191 0.219689
Si Si7 0.868433 0.704909 0.941109
Si Si8 0.265899 0.387017 0.878794
O O1 0.328314 0.334624 0.678502
O O2 0.274909 0.306915 0.769244
O O3 0.137099 0.280792 0.686977
O O4 0.159853 0.390829 0.729172
O O5 0.184800 0.879109 0.910827
O O6 0.000000 0.926142 0.944882
O O7 0.162290 0.000000 0.917519
O O8 0.181375 0.930828 0.000000
O O9 0.500000 0.323864 0.621227
O O10 0.325296 0.260277 0.595086
O O11 0.500000 0.500000 0.939663
O O12 0.329057 0.439869 0.909702
O O13 0.325302 0.500000 0.000000
O O14 0.500000 0.691960 0.789863
O O15 0.350782 0.666555 0.859838
O O16 0.855557 0.500000 0.235429
O O17 0.797805 0.584594 0.169947
O O18 0.000000 0.584551 0.204755
O O19 0.820434 0.642052 0.919139
O O20 0.000000 0.700333 0.939243
O O21 0.827806 0.715738 0.000000
#
# Coordination Sequence:
#
# PCOD8287632 Si02
#       8
#    16  16  16   8  16  16  16  16
#     4  10  20  33  51  77 104 132 171 217 259 312
#     4   8  14  25  42  65  95 134 173 202 239 297
#     4  10  18  30  48  74 109 142 171 211 263 312
#     4  11  24  40  59  83 111 145 182 218 262 317
#     4  10  20  34  53  76 100 133 173 213 260 310
#     4  10  21  37  57  78 105 139 175 218 269 319
#     4  10  20  33  52  80 111 142 177 219 268 317
#     4  11  20  38  58  79 105 140 176 223 260 315
#
# _framework density 17.644185
#
# number of rings (size 3 to 8) (size 9 to 14) (size 15 to 20)
#    0.000    2.067    2.000    2.800    0.000    2.133 
#    0.000    0.000    0.000    1.600    0.000    0.000 
#    0.000    0.000    0.000    6.400    0.000    0.533 
#
# Total GULP energy -743503.380782 kJ/mol
# GULP energy per Si atom -12391.723013 kJ/mol
# Density = 1.760403 g / cm^3
# Si number density = 17.644185 Si / 1000 Ang^3
#
#
#
# Elastic Constant Matrix: (Units=GPa)
#
#
# Indices 1 2 3 4 5 6 
#
# 1 48.7212 36.5391 19.5676 0.0000 0.0000 0.0000
# 2 36.5391 130.9035 55.1221 0.0000 0.0000 0.0000
# 3 19.5676 55.1221 90.4977 0.0000 0.0000 0.0000
# 4 0.0000 0.0000 0.0000 31.0584 0.0000 0.0000
# 5 0.0000 0.0000 0.0000 0.0000 19.5389 0.0000
# 6 0.0000 0.0000 0.0000 0.0000 0.0000 23.1158
#
#
#
# Elastic Compliance Matrix: (Units=1/GPa)
#
#
# Indices 1 2 3 4 5 6 
#
# 1 0.026135 -0.006611 -0.001624 0.000000 0.000000 0.000000
# 2 -0.006611 0.011947 -0.005847 0.000000 0.000000 0.000000
# 3 -0.001624 -0.005847 0.014963 0.000000 0.000000 0.000000
# 4 0.000000 0.000000 0.000000 0.032197 0.000000 0.000000
# 5 0.000000 0.000000 0.000000 0.000000 0.051180 0.000000
# 6 0.000000 0.000000 0.000000 0.000000 0.000000 0.043260
#
#
# Mechanical properties :
#
#
# Convention : Reuss Voigt Hill
#
# Bulk Modulus (GPa) = 40.19353 54.73111 47.46232
# Shear Modulus (GPa) = 23.13296 25.33551 24.23424
#
# Velocity S-wave (km/s) = 3.62481 3.79345 3.71009
# Velocity P-wave (km/s) = 6.35205 7.09040 6.73136
#
# Compressibility (1/GPa) = 0.02487963
#
# Stress axis : x y z
#
# Youngs Moduli (GPa) = 38.26214 83.70391 66.83253
#
# Poissons Ratio (x) = 0.55339 0.10855
# Poissons Ratio (y) = 0.25296 0.39079
# Poissons Ratio (z) = 0.06214 0.48944
#
# Static dielectric constant tensor:
#      x y z
#    x 2.967300 0.000000 0.000000 
#    y 0.000000 3.637060 0.000000 
#    z 0.000000 0.000000 3.309370 
# 
# 
# High freq. dielectric constant tensor:
#      x y z
#    x 1.654000 0.000000 0.000000 
#    y 0.000000 1.697540 0.000000 
#    z 0.000000 0.000000 1.675990 
# 
# From -- ./inp_files/52243.got.cif
#   From: 2010.06.25/outbox.cif.g09.slc.cpg/sg71_27_cif.got.tgz:52243.got - 2010.06.28 04:59:45.
