data_PCOD8287251
_publ_section_title
;
Structure prediction by ZEFSAII (Michael W. Deem and Ramdas Pophale) SiO2 
 PCOD8287251
Probable space group: I M M M
;
_chemical_formula_sum "Si O2"
_cell_formula_units_Z 44
_cell_length_a 35.917605
_cell_length_b 7.398671
_cell_length_c 9.432221
_cell_angle_alpha 90.000000
_cell_angle_beta 90.000000
_cell_angle_gamma 90.000000
_cell_volume 2506.542390
_symmetry_space_group_name_H-M "I M M M"
_symmetry_group_IT_number 71
_symmetry_cell_setting 'orthorhombic'
loop_
_space_group_symop_operation_xyz
x,y,z
-x,-y,z
x,-y,-z
-x,y,-z
-x,-y,-z
x,y,-z
-x,y,z
x,-y,z
1/2+x,1/2+y,1/2+z
1/2-x,1/2-y,1/2+z
1/2+x,1/2-y,1/2-z
1/2-x,1/2+y,1/2-z
1/2-x,1/2-y,1/2-z
1/2+x,1/2+y,1/2-z
1/2-x,1/2+y,1/2+z
1/2+x,1/2-y,1/2+z
loop_
_atom_site_type_symbol
_atom_site_label
_atom_site_fract_x
_atom_site_fract_y
_atom_site_fract_z
Si Si1 0.271882 0.500000 0.500000
Si Si2 0.200654 0.296180 0.500000
Si Si3 0.320542 0.500000 0.778903
Si Si4 0.402782 0.500000 0.668954
Si Si5 0.458955 0.799081 0.331566
O O1 0.245646 0.320866 0.500000
O O2 0.297753 0.500000 0.635596
O O3 0.182478 0.500000 0.500000
O O4 0.188945 0.183604 0.637936
O O5 0.364103 0.500000 0.749059
O O6 0.396706 0.500000 0.500000
O O7 0.426178 0.328278 0.724012
O O8 0.459178 0.794967 0.500000
O O9 0.500000 0.735631 0.278263
O O10 0.450553 0.000000 0.275140
#
# Coordination Sequence:
#
# PCOD8287251 Si02
#       5
#     4   8   8   8  16
#     4  10  20  40  62  80 105 136 181 230 268 320
#     4   9  23  38  59  75 106 144 182 212 271 332
#     4  11  20  38  56  84 110 137 178 230 266 316
#     4  10  18  27  46  75 110 135 170 219 266 305
#     4   8  14  25  41  64 101 143 174 203 253 317
#
# _framework density 17.554061999999998
#
# number of rings (size 3 to 8) (size 9 to 14) (size 15 to 20)
#    0.545    2.182    0.909    2.727    0.000    3.636 
#    0.000    0.000    0.000    0.000    0.000   10.182 
#    0.000   17.455    0.000    0.000    0.000    0.000 
#
# Total GULP energy -272602.772987 kJ/mol
# GULP energy per Si atom -12391.035136 kJ/mol
# Density = 1.751411 g / cm^3
# Si number density = 17.554062 Si / 1000 Ang^3
#
#
#
# Elastic Constant Matrix: (Units=GPa)
#
#
# Indices 1 2 3 4 5 6 
#
# 1 177.2856 85.8284 56.3354 0.0000 0.0000 0.0000
# 2 85.8284 143.3439 51.9200 0.0000 0.0000 0.0000
# 3 56.3354 51.9200 80.1176 0.0000 0.0000 0.0000
# 4 0.0000 0.0000 0.0000 18.6536 0.0000 0.0000
# 5 0.0000 0.0000 0.0000 0.0000 4.8760 0.0000
# 6 0.0000 0.0000 0.0000 0.0000 0.0000 56.0461
#
#
#
# Elastic Compliance Matrix: (Units=1/GPa)
#
#
# Indices 1 2 3 4 5 6 
#
# 1 0.008658 -0.003893 -0.003565 0.000000 0.000000 0.000000
# 2 -0.003893 0.010866 -0.004305 0.000000 0.000000 0.000000
# 3 -0.003565 -0.004305 0.017778 0.000000 0.000000 0.000000
# 4 0.000000 0.000000 0.000000 0.053609 0.000000 0.000000
# 5 0.000000 0.000000 0.000000 0.000000 0.205086 0.000000
# 6 0.000000 0.000000 0.000000 0.000000 0.000000 0.017842
#
#
# Mechanical properties :
#
#
# Convention : Reuss Voigt Hill
#
# Bulk Modulus (GPa) = 72.58380 87.65719 80.12049
# Shear Modulus (GPa) = 14.62168 29.69271 22.15720
#
# Velocity S-wave (km/s) = 2.88922 4.11725 3.55664
# Velocity P-wave (km/s) = 7.25042 8.52328 7.91249
#
# Compressibility (1/GPa) = 0.01377718
#
# Stress axis : x y z
#
# Youngs Moduli (GPa) = 115.49832 92.02861 56.24854
#
# Poissons Ratio (x) = 0.35824 0.20055
# Poissons Ratio (y) = 0.44960 0.24213
# Poissons Ratio (z) = 0.41179 0.39615
#
# Static dielectric constant tensor:
#      x y z
#    x 3.362610 0.000000 0.000000 
#    y 0.000000 3.551520 0.000000 
#    z 0.000000 0.000000 2.759660 
# 
# 
# High freq. dielectric constant tensor:
#      x y z
#    x 1.684850 0.000000 0.000000 
#    y 0.000000 1.686790 0.000000 
#    z 0.000000 0.000000 1.634160 
# 
# From -- ./inp_files/15967.got.cif
#   From: 2010.06.25/outbox.cif.g09.slc.cpg/sg71_8_cif.got.tgz:15967.got - 2010.06.28 04:59:45.
