data_PCOD8287547
_publ_section_title
;
Structure prediction by ZEFSAII (Michael W. Deem and Ramdas Pophale) SiO2 
 PCOD8287547
Probable space group: I M M M
;
_chemical_formula_sum "Si O2"
_cell_formula_units_Z 88
_cell_length_a 23.152382
_cell_length_b 9.369568
_cell_length_c 30.699591
_cell_angle_alpha 90.000000
_cell_angle_beta 90.000000
_cell_angle_gamma 90.000000
_cell_volume 6659.595274
_symmetry_space_group_name_H-M "I M M M"
_symmetry_group_IT_number 71
_symmetry_cell_setting 'orthorhombic'
loop_
_space_group_symop_operation_xyz
x,y,z
-x,-y,z
x,-y,-z
-x,y,-z
-x,-y,-z
x,y,-z
-x,y,z
x,-y,z
1/2+x,1/2+y,1/2+z
1/2-x,1/2-y,1/2+z
1/2+x,1/2-y,1/2-z
1/2-x,1/2+y,1/2-z
1/2-x,1/2-y,1/2-z
1/2+x,1/2+y,1/2-z
1/2-x,1/2+y,1/2+z
1/2+x,1/2-y,1/2+z
loop_
_atom_site_type_symbol
_atom_site_label
_atom_site_fract_x
_atom_site_fract_y
_atom_site_fract_z
Si Si1 0.775047 0.664100 0.290186
Si Si2 0.500000 0.661980 0.260989
Si Si3 0.810413 0.336168 0.836333
Si Si4 0.600467 0.834947 0.406712
Si Si5 0.000000 0.161933 0.136158
Si Si6 0.388621 0.162236 0.254421
Si Si7 0.934884 0.668021 0.000000
O O1 0.755001 0.500000 0.288356
O O2 0.750000 0.750000 0.250000
O O3 0.747345 0.738355 0.333096
O O4 0.844551 0.675074 0.286729
O O5 0.500000 0.500000 0.243893
O O6 0.500000 0.669777 0.312468
O O7 0.557344 0.738335 0.243158
O O8 0.792381 0.500000 0.828540
O O9 0.836921 0.313373 0.884575
O O10 0.857160 0.290920 0.799441
O O11 0.556254 0.739944 0.380543
O O12 0.600710 0.783632 0.457127
O O13 0.581086 0.000000 0.403066
O O14 0.000000 0.000000 0.119170
O O15 0.410613 0.000000 0.259546
O O16 0.941133 0.500000 0.000000
O O17 0.000000 0.734282 0.000000
#
# Coordination Sequence:
#
# PCOD8287547 Si02
#       7
#    16   8  16  16   8  16   8
#     4   9  17  28  41  56  73  94 121 152 188 225
#     4  11  21  27  36  56  77  98 124 157 191 224
#     4   9  17  27  41  57  72  94 123 157 195 229
#     4  10  18  30  44  56  71  97 131 162 198 239
#     4  11  21  28  36  55  76  96 126 162 201 233
#     4   9  17  28  40  54  72  96 123 151 186 226
#     4   9  16  26  44  60  70  94 132 167 194 229
#
# _framework density 13.214017
#
# number of rings (size 3 to 8) (size 9 to 14) (size 15 to 20)
#    0.000    2.455    2.727    2.182    0.000    5.091 
#    0.000    0.909    0.000    0.000    0.000    0.000 
#    0.000    0.000    0.000    0.000    0.000    0.909 
#
# Total GULP energy -545302.807711 kJ/mol
# GULP energy per Si atom -12393.245630 kJ/mol
# Density = 1.318394 g / cm^3
# Si number density = 13.214017 Si / 1000 Ang^3
#
#
#
# Elastic Constant Matrix: (Units=GPa)
#
#
# Indices 1 2 3 4 5 6 
#
# 1 72.7776 45.7302 37.1677 0.0000 0.0000 0.0000
# 2 45.7302 76.4558 24.5708 0.0000 0.0000 0.0000
# 3 37.1677 24.5708 55.8062 0.0000 0.0000 0.0000
# 4 0.0000 0.0000 0.0000 11.6182 0.0000 0.0000
# 5 0.0000 0.0000 0.0000 0.0000 29.9201 0.0000
# 6 0.0000 0.0000 0.0000 0.0000 0.0000 24.0946
#
#
#
# Elastic Compliance Matrix: (Units=1/GPa)
#
#
# Indices 1 2 3 4 5 6 
#
# 1 0.028665 -0.012825 -0.013445 0.000000 0.000000 0.000000
# 2 -0.012825 0.020973 -0.000693 0.000000 0.000000 0.000000
# 3 -0.013445 -0.000693 0.027179 0.000000 0.000000 0.000000
# 4 0.000000 0.000000 0.000000 0.086072 0.000000 0.000000
# 5 0.000000 0.000000 0.000000 0.000000 0.033422 0.000000
# 6 0.000000 0.000000 0.000000 0.000000 0.000000 0.041503
#
#
# Mechanical properties :
#
#
# Convention : Reuss Voigt Hill
#
# Bulk Modulus (GPa) = 43.68296 46.66412 45.17354
# Shear Modulus (GPa) = 16.70176 19.63129 18.16652
#
# Velocity S-wave (km/s) = 3.55905 3.85858 3.71184
# Velocity P-wave (km/s) = 7.07241 7.43252 7.25470
#
# Compressibility (1/GPa) = 0.02289222
#
# Stress axis : x y z
#
# Youngs Moduli (GPa) = 34.88535 47.68075 36.79351
#
# Poissons Ratio (x) = 0.61149 0.49469
# Poissons Ratio (y) = 0.44739 0.02549
# Poissons Ratio (z) = 0.46903 0.03303
#
# Static dielectric constant tensor:
#      x y z
#    x 2.745430 0.000000 0.000000 
#    y 0.000000 2.797100 0.000000 
#    z 0.000000 0.000000 2.708030 
# 
# 
# High freq. dielectric constant tensor:
#      x y z
#    x 1.484410 0.000000 0.000000 
#    y 0.000000 1.508390 0.000000 
#    z 0.000000 0.000000 1.461970 
# 
# From -- ./inp_files/68406.got.cif
#   From: 2010.06.25/outbox.cif.g09.slc.cpg/sg71_35_cif.got.tgz:68406.got - 2010.06.28 04:59:45.
