data_PCOD8287925
_publ_section_title
;
Structure prediction by ZEFSAII (Michael W. Deem and Ramdas Pophale) SiO2 
 PCOD8287925
Probable space group: I M M M
;
_chemical_formula_sum "Si O2"
_cell_formula_units_Z 56
_cell_length_a 9.721076
_cell_length_b 26.558188
_cell_length_c 13.304862
_cell_angle_alpha 90.000000
_cell_angle_beta 90.000000
_cell_angle_gamma 90.000000
_cell_volume 3434.971624
_symmetry_space_group_name_H-M "I M M M"
_symmetry_group_IT_number 71
_symmetry_cell_setting 'orthorhombic'
loop_
_space_group_symop_operation_xyz
x,y,z
-x,-y,z
x,-y,-z
-x,y,-z
-x,-y,-z
x,y,-z
-x,y,z
x,-y,z
1/2+x,1/2+y,1/2+z
1/2-x,1/2-y,1/2+z
1/2+x,1/2-y,1/2-z
1/2-x,1/2+y,1/2-z
1/2-x,1/2-y,1/2-z
1/2+x,1/2+y,1/2-z
1/2-x,1/2+y,1/2+z
1/2+x,1/2-y,1/2+z
loop_
_atom_site_type_symbol
_atom_site_label
_atom_site_fract_x
_atom_site_fract_y
_atom_site_fract_z
Si Si1 0.783377 0.152710 0.276057
Si Si2 0.000000 0.812704 0.118560
Si Si3 0.162884 0.943377 0.386538
Si Si4 0.500000 0.209477 0.722687
Si Si5 0.000000 0.212006 0.388090
O O1 0.772001 0.093617 0.303001
O O2 0.631738 0.174357 0.278987
O O3 0.863657 0.163109 0.170669
O O4 0.865665 0.179136 0.365977
O O5 0.000000 0.752141 0.135198
O O6 0.000000 0.824881 0.000000
O O7 0.212903 0.930268 0.500000
O O8 0.000000 0.938393 0.381521
O O9 0.209192 0.000000 0.358558
O O10 0.500000 0.236558 0.828558
O O11 0.000000 0.230425 0.500000
#
# Coordination Sequence:
#
# PCOD8287925 Si02
#       5
#    16   8  16   8   8
#     4  10  19  33  49  71 100 127 159 197 240 286
#     4  10  20  34  50  70  96 130 168 201 227 271
#     4   9  16  29  52  76  94 119 158 200 240 282
#     4  10  22  32  45  71 102 133 158 191 241 287
#     4  10  18  32  52  69  91 127 170 202 230 278
#
# _framework density 16.302900999999999
#
# number of rings (size 3 to 8) (size 9 to 14) (size 15 to 20)
#    0.000    2.571    2.857    5.143    0.000    5.714 
#    0.000    0.714    0.000    3.429    0.000    0.000 
#    0.000    3.429    0.000    0.000    0.000    0.000 
#
# Total GULP energy -347008.483338 kJ/mol
# GULP energy per Si atom -12393.160119 kJ/mol
# Density = 1.626580 g / cm^3
# Si number density = 16.302901 Si / 1000 Ang^3
#
#
#
# Elastic Constant Matrix: (Units=GPa)
#
#
# Indices 1 2 3 4 5 6 
#
# 1 105.9175 51.5853 31.6166 0.0001 0.0000 0.0005
# 2 51.5853 133.8353 56.1081 0.0003 -0.0001 -0.0002
# 3 31.6166 56.1081 108.4390 0.0019 -0.0004 -0.0004
# 4 0.0001 0.0003 0.0019 15.3471 -0.0002 -0.0003
# 5 0.0000 -0.0001 -0.0004 -0.0002 -2.0439 0.0007
# 6 0.0005 -0.0002 -0.0004 -0.0003 0.0007 307.5270
#
#
#
# Elastic Compliance Matrix: (Units=1/GPa)
#
#
# Indices 1 2 3 4 5 6 
#
# 1 0.011784 -0.003961 -0.001386 0.000000 0.000001 0.000000
# 2 -0.003961 0.010873 -0.004471 0.000000 0.000001 0.000000
# 3 -0.001386 -0.004471 0.011939 -0.000001 -0.000002 0.000000
# 4 0.000000 0.000000 -0.000001 0.065159 -0.000006 0.000000
# 5 0.000001 0.000001 -0.000002 -0.000006 -0.489269 0.000001
# 6 0.000000 0.000000 0.000000 0.000000 0.000001 0.003252
#
#
# Mechanical properties :
#
#
# Convention : Reuss Voigt Hill
#
# Bulk Modulus (GPa) = 66.84501 69.64575 68.24538
# Shear Modulus (GPa) = -13.82597 78.09150 32.13277
#
# Velocity S-wave (km/s) = -2.91532 6.92852 4.44439
# Velocity P-wave (km/s) = 5.45516 10.33530 8.26369
#
# Compressibility (1/GPa) = 0.01495998
#
# Stress axis : x y z
#
# Youngs Moduli (GPa) = 84.85924 91.97159 83.75662
#
# Poissons Ratio (x) = 0.36429 0.11612
# Poissons Ratio (y) = 0.33612 0.37447
# Poissons Ratio (z) = 0.11765 0.41120
#
# Static dielectric constant tensor:
#      x y z
#    x 2.905530 0.000000 0.000000 
#    y 0.000000 3.287890 0.000000 
#    z 0.000000 0.000000 2.972390 
# 
# 
# High freq. dielectric constant tensor:
#      x y z
#    x 1.610740 0.000000 0.000000 
#    y 0.000000 1.627050 0.000000 
#    z 0.000000 0.000000 1.607640 
# 
# From -- ./inp_files/14159.got.cif
#   From: 2010.06.25/outbox.cif.g09.slc.cpg/sg71_8_cif.got.tgz:14159.got - 2010.06.28 04:59:45.
