data_PCOD8287201
_publ_section_title
;
Structure prediction by ZEFSAII (Michael W. Deem and Ramdas Pophale) SiO2 
 PCOD8287201
Probable space group: I M M M
;
_chemical_formula_sum "Si O2"
_cell_formula_units_Z 104
_cell_length_a 24.412499
_cell_length_b 14.061007
_cell_length_c 20.584610
_cell_angle_alpha 90.000000
_cell_angle_beta 90.000000
_cell_angle_gamma 90.000000
_cell_volume 7065.962140
_symmetry_space_group_name_H-M "I M M M"
_symmetry_group_IT_number 71
_symmetry_cell_setting 'orthorhombic'
loop_
_space_group_symop_operation_xyz
x,y,z
-x,-y,z
x,-y,-z
-x,y,-z
-x,-y,-z
x,y,-z
-x,y,z
x,-y,z
1/2+x,1/2+y,1/2+z
1/2-x,1/2-y,1/2+z
1/2+x,1/2-y,1/2-z
1/2-x,1/2+y,1/2-z
1/2-x,1/2-y,1/2-z
1/2+x,1/2+y,1/2-z
1/2-x,1/2+y,1/2+z
1/2+x,1/2-y,1/2+z
loop_
_atom_site_type_symbol
_atom_site_label
_atom_site_fract_x
_atom_site_fract_y
_atom_site_fract_z
Si Si1 0.939161 0.387846 0.000000
Si Si2 0.734926 0.112599 0.572041
Si Si3 0.064689 0.106107 0.071580
Si Si4 0.563206 0.389387 0.817125
Si Si5 0.876230 0.611892 0.870188
Si Si6 0.143955 0.112849 0.427407
Si Si7 0.935463 0.229720 0.809462
O O1 0.907656 0.356046 0.935503
O O2 0.944329 0.500000 0.000000
O O3 0.000000 0.340967 0.000000
O O4 0.723332 0.154517 0.500000
O O5 0.687372 0.143679 0.622026
O O6 0.795244 0.145957 0.595753
O O7 0.733265 0.000000 0.566179
O O8 0.087993 0.171730 0.128697
O O9 0.000000 0.099226 0.079635
O O10 0.089434 0.000000 0.078760
O O11 0.079931 0.147829 0.000000
O O12 0.500000 0.374869 0.835819
O O13 0.575535 0.500000 0.802106
O O14 0.598918 0.348923 0.876957
O O15 0.579804 0.328654 0.754572
O O16 0.882382 0.500000 0.855783
O O17 0.903339 0.669477 0.810276
O O18 0.131602 0.152522 0.500000
O O19 0.141004 0.000000 0.429499
O O20 0.000000 0.249249 0.813614
#
# Coordination Sequence:
#
# PCOD8287201 Si02
#       7
#     8  16  16  16  16  16  16
#     4   9  16  24  34  50  73  99 128 166 205 231
#     4   8  13  24  40  57  78 104 132 163 200 238
#     4   8  14  24  36  49  66  93 133 173 199 224
#     4   9  17  29  43  60  84 109 130 156 195 244
#     4  10  18  27  38  54  77 106 139 172 202 234
#     4   8  14  25  44  66  83 101 125 154 195 248
#     4  10  19  27  37  53  77 109 139 166 201 241
#
# _framework density 14.718449
#
# number of rings (size 3 to 8) (size 9 to 14) (size 15 to 20)
#    0.000    3.154    0.769    2.308    1.077    3.077 
#    0.000    2.308    0.000    0.000    0.000    0.000 
#    0.000    0.615    0.000    6.769    0.000    2.923 
#
# Total GULP energy -644371.908606 kJ/mol
# GULP energy per Si atom -12391.767473 kJ/mol
# Density = 1.468495 g / cm^3
# Si number density = 14.718449 Si / 1000 Ang^3
#
#
#
# Elastic Constant Matrix: (Units=GPa)
#
#
# Indices 1 2 3 4 5 6 
#
# 1 85.9794 31.8486 58.2191 0.0000 0.0000 0.0000
# 2 31.8486 41.6955 37.0783 0.0000 0.0000 0.0000
# 3 58.2191 37.0783 90.8832 0.0000 0.0000 0.0000
# 4 0.0000 0.0000 0.0000 12.5398 0.0000 0.0000
# 5 0.0000 0.0000 0.0000 0.0000 20.1652 0.0000
# 6 0.0000 0.0000 0.0000 0.0000 0.0000 10.1955
#
#
#
# Elastic Compliance Matrix: (Units=1/GPa)
#
#
# Indices 1 2 3 4 5 6 
#
# 1 0.021637 -0.006594 -0.011170 0.000000 0.000000 0.000000
# 2 -0.006594 0.039648 -0.011952 0.000000 0.000000 0.000000
# 3 -0.011170 -0.011952 0.023035 0.000000 0.000000 0.000000
# 4 0.000000 0.000000 0.000000 0.079746 0.000000 0.000000
# 5 0.000000 0.000000 0.000000 0.000000 0.049590 0.000000
# 6 0.000000 0.000000 0.000000 0.000000 0.000000 0.098083
#
#
# Mechanical properties :
#
#
# Convention : Reuss Voigt Hill
#
# Bulk Modulus (GPa) = 40.17946 52.53893 46.35919
# Shear Modulus (GPa) = 13.17640 14.67423 13.92532
#
# Velocity S-wave (km/s) = 2.99529 3.16095 3.07923
# Velocity P-wave (km/s) = 6.27059 7.00683 6.64891
#
# Compressibility (1/GPa) = 0.02488834
#
# Stress axis : x y z
#
# Youngs Moduli (GPa) = 46.21731 25.22194 43.41262
#
# Poissons Ratio (x) = 0.16631 0.48494
# Poissons Ratio (y) = 0.30474 0.51885
# Poissons Ratio (z) = 0.51626 0.30144
#
# Static dielectric constant tensor:
#      x y z
#    x 2.956360 0.000000 0.000000 
#    y 0.000000 2.630590 0.000000 
#    z 0.000000 0.000000 2.837440 
# 
# 
# High freq. dielectric constant tensor:
#      x y z
#    x 1.549280 0.000000 0.000000 
#    y 0.000000 1.527800 0.000000 
#    z 0.000000 0.000000 1.542690 
# 
# From -- ./inp_files/48219.got.cif
#   From: 2010.06.25/outbox.cif.g09.slc.cpg/sg71_25_cif.got.tgz:48219.got - 2010.06.28 04:59:45.
