data_PCOD8287236
_publ_section_title
;
Structure prediction by ZEFSAII (Michael W. Deem and Ramdas Pophale) SiO2 
 PCOD8287236
Probable space group: I M M M
;
_chemical_formula_sum "Si O2"
_cell_formula_units_Z 96
_cell_length_a 26.293404
_cell_length_b 16.107498
_cell_length_c 13.495247
_cell_angle_alpha 90.000000
_cell_angle_beta 90.000000
_cell_angle_gamma 90.000000
_cell_volume 5715.519862
_symmetry_space_group_name_H-M "I M M M"
_symmetry_group_IT_number 71
_symmetry_cell_setting 'orthorhombic'
loop_
_space_group_symop_operation_xyz
x,y,z
-x,-y,z
x,-y,-z
-x,y,-z
-x,-y,-z
x,y,-z
-x,y,z
x,-y,z
1/2+x,1/2+y,1/2+z
1/2-x,1/2-y,1/2+z
1/2+x,1/2-y,1/2-z
1/2-x,1/2+y,1/2-z
1/2-x,1/2-y,1/2-z
1/2+x,1/2+y,1/2-z
1/2-x,1/2+y,1/2+z
1/2+x,1/2-y,1/2+z
loop_
_atom_site_type_symbol
_atom_site_label
_atom_site_fract_x
_atom_site_fract_y
_atom_site_fract_z
Si Si1 0.127762 0.259675 0.690648
Si Si2 0.224381 0.654048 0.389748
Si Si3 0.758867 0.589969 0.813989
Si Si4 0.059270 0.593690 0.384694
Si Si5 0.677626 0.235366 0.391260
Si Si6 0.148105 0.093332 0.616084
O O1 0.180207 0.279884 0.633747
O O2 0.087856 0.333833 0.674267
O O3 0.134622 0.250501 0.808859
O O4 0.109821 0.168511 0.649138
O O5 0.215613 0.615488 0.500000
O O6 0.225030 0.586549 0.302375
O O7 0.278899 0.696389 0.383603
O O8 0.767433 0.500000 0.860180
O O9 0.795581 0.647514 0.876415
O O10 0.699875 0.614015 0.825195
O O11 0.071168 0.605766 0.500000
O O12 0.076669 0.500000 0.352538
O O13 0.000000 0.604086 0.362536
O O14 0.651801 0.237877 0.500000
O O15 0.158518 0.097845 0.500000
O O16 0.127610 0.000000 0.643706
#
# Coordination Sequence:
#
# PCOD8287236 Si02
#       6
#    16  16  16  16  16  16
#     4  11  18  31  51  70  90 127 165 198 241 294
#     4  10  18  29  43  63  92 124 159 199 239 280
#     4  10  18  28  40  58  88 126 161 194 231 276
#     4   9  19  35  54  77 101 123 154 201 255 305
#     4  10  19  31  44  63  94 128 162 201 240 281
#     4  10  18  27  42  66  94 124 158 189 221 274
#
# _framework density 16.796372000000002
#
# number of rings (size 3 to 8) (size 9 to 14) (size 15 to 20)
#    0.000    2.000    3.333    3.500    0.000    4.000 
#    0.000    0.000    0.000    1.500    0.000    3.500 
#    0.000    0.000    0.000    1.500    0.000    0.167 
#
# Total GULP energy -594715.604018 kJ/mol
# GULP energy per Si atom -12389.908417 kJ/mol
# Density = 1.675814 g / cm^3
# Si number density = 16.796372 Si / 1000 Ang^3
#
#
#
# Elastic Constant Matrix: (Units=GPa)
#
#
# Indices 1 2 3 4 5 6 
#
# 1 33.5306 31.2721 28.2821 0.0000 0.0000 0.0000
# 2 31.2721 111.5286 26.5283 0.0000 0.0000 0.0000
# 3 28.2821 26.5283 97.6200 0.0000 0.0000 0.0000
# 4 0.0000 0.0000 0.0000 15.9242 0.0000 0.0000
# 5 0.0000 0.0000 0.0000 0.0000 11.7693 0.0000
# 6 0.0000 0.0000 0.0000 0.0000 0.0000 22.3033
#
#
#
# Elastic Compliance Matrix: (Units=1/GPa)
#
#
# Indices 1 2 3 4 5 6 
#
# 1 0.049990 -0.011303 -0.011411 0.000000 0.000000 0.000000
# 2 -0.011303 0.012141 -0.000025 0.000000 0.000000 0.000000
# 3 -0.011411 -0.000025 0.013557 0.000000 0.000000 0.000000
# 4 0.000000 0.000000 0.000000 0.062797 0.000000 0.000000
# 5 0.000000 0.000000 0.000000 0.000000 0.084967 0.000000
# 6 0.000000 0.000000 0.000000 0.000000 0.000000 0.044836
#
#
# Mechanical properties :
#
#
# Convention : Reuss Voigt Hill
#
# Bulk Modulus (GPa) = 33.10139 46.09381 39.59760
# Shear Modulus (GPa) = 15.43986 20.43913 17.93949
#
# Velocity S-wave (km/s) = 3.03518 3.49216 3.27166
# Velocity P-wave (km/s) = 5.65980 6.61533 6.15613
#
# Compressibility (1/GPa) = 0.03021021
#
# Stress axis : x y z
#
# Youngs Moduli (GPa) = 20.00399 82.36268 73.76452
#
# Poissons Ratio (x) = 0.93091 0.84176
# Poissons Ratio (y) = 0.22610 0.00184
# Poissons Ratio (z) = 0.22827 0.00205
#
# Static dielectric constant tensor:
#      x y z
#    x 2.671760 0.000000 0.000000 
#    y 0.000000 3.291250 0.000000 
#    z 0.000000 0.000000 3.319290 
# 
# 
# High freq. dielectric constant tensor:
#      x y z
#    x 1.582270 0.000000 0.000000 
#    y 0.000000 1.659160 0.000000 
#    z 0.000000 0.000000 1.648800 
# 
# From -- ./inp_files/41029.got.cif
#   From: 2010.06.25/outbox.cif.g09.slc.cpg/sg71_21_cif.got.tgz:41029.got - 2010.06.28 04:59:45.
