data_PCOD8287423
_publ_section_title
;
Structure prediction by ZEFSAII (Michael W. Deem and Ramdas Pophale) SiO2 
 PCOD8287423
Probable space group: I M M M
;
_chemical_formula_sum "Si O2"
_cell_formula_units_Z 88
_cell_length_a 12.453374
_cell_length_b 16.902826
_cell_length_c 29.188481
_cell_angle_alpha 90.000000
_cell_angle_beta 90.000000
_cell_angle_gamma 90.000000
_cell_volume 6144.093927
_symmetry_space_group_name_H-M "I M M M"
_symmetry_group_IT_number 71
_symmetry_cell_setting 'orthorhombic'
loop_
_space_group_symop_operation_xyz
x,y,z
-x,-y,z
x,-y,-z
-x,y,-z
-x,-y,-z
x,y,-z
-x,y,z
x,-y,z
1/2+x,1/2+y,1/2+z
1/2-x,1/2-y,1/2+z
1/2+x,1/2-y,1/2-z
1/2-x,1/2+y,1/2-z
1/2-x,1/2-y,1/2-z
1/2+x,1/2+y,1/2-z
1/2-x,1/2+y,1/2+z
1/2+x,1/2-y,1/2+z
loop_
_atom_site_type_symbol
_atom_site_label
_atom_site_fract_x
_atom_site_fract_y
_atom_site_fract_z
Si Si1 0.500000 0.910201 0.646477
Si Si2 0.378931 0.093440 0.500000
Si Si3 0.295731 0.189575 0.212841
Si Si4 0.291362 0.093956 0.403371
Si Si5 0.500000 0.907864 0.245740
Si Si6 0.119569 0.092844 0.245052
Si Si7 0.125938 0.172659 0.659002
O O1 0.391584 0.872248 0.626177
O O2 0.500000 0.902695 0.700162
O O3 0.500000 0.000000 0.628809
O O4 0.500000 0.129796 0.500000
O O5 0.311715 0.120599 0.455639
O O6 0.391407 0.000000 0.500000
O O7 0.250000 0.250000 0.250000
O O8 0.396124 0.137991 0.228810
O O9 0.197341 0.128471 0.205759
O O10 0.329909 0.238081 0.167625
O O11 0.183986 0.135833 0.385078
O O12 0.276456 0.000000 0.398442
O O13 0.500000 0.000000 0.229580
O O14 0.151690 0.119859 0.296252
O O15 0.000000 0.122780 0.233694
O O16 0.129440 0.000000 0.243327
O O17 0.000000 0.175071 0.648195
#
# Coordination Sequence:
#
# PCOD8287423 Si02
#       7
#     8   8  16  16   8  16  16
#     4   9  16  25  40  65  88 107 146 191 220 252
#     4   9  16  30  47  65  91 113 138 186 242 279
#     4  10  19  30  43  58  88 119 153 197 237 265
#     4  10  18  29  46  66  86 115 150 187 229 277
#     4  11  20  30  45  66  90 124 168 202 222 260
#     4   9  17  29  44  61  83 115 153 190 228 267
#     4  10  19  31  42  58  86 120 154 189 224 268
#
# _framework density 14.322698000000001
#
# number of rings (size 3 to 8) (size 9 to 14) (size 15 to 20)
#    0.000    2.273    1.818    3.273    1.273    2.545 
#    1.636    0.455    0.000    1.636    0.000    0.000 
#    0.000    0.000    0.000    4.091    0.000    7.455 
#
# Total GULP energy -545294.961615 kJ/mol
# GULP energy per Si atom -12393.067309 kJ/mol
# Density = 1.429010 g / cm^3
# Si number density = 14.322698 Si / 1000 Ang^3
#
#
#
# Elastic Constant Matrix: (Units=GPa)
#
#
# Indices 1 2 3 4 5 6 
#
# 1 117.8290 44.2498 49.3029 0.0000 0.0000 0.0000
# 2 44.2498 56.2553 31.6317 0.0000 0.0000 0.0000
# 3 49.3029 31.6317 63.2024 0.0000 0.0000 0.0000
# 4 0.0000 0.0000 0.0000 16.1658 0.0000 0.0000
# 5 0.0000 0.0000 0.0000 0.0000 18.6532 0.0000
# 6 0.0000 0.0000 0.0000 0.0000 0.0000 30.5446
#
#
#
# Elastic Compliance Matrix: (Units=1/GPa)
#
#
# Indices 1 2 3 4 5 6 
#
# 1 0.014308 -0.006928 -0.007694 0.000000 0.000000 0.000000
# 2 -0.006928 0.028093 -0.008655 0.000000 0.000000 0.000000
# 3 -0.007694 -0.008655 0.026156 0.000000 0.000000 0.000000
# 4 0.000000 0.000000 0.000000 0.061859 0.000000 0.000000
# 5 0.000000 0.000000 0.000000 0.000000 0.053610 0.000000
# 6 0.000000 0.000000 0.000000 0.000000 0.000000 0.032739
#
#
# Mechanical properties :
#
#
# Convention : Reuss Voigt Hill
#
# Bulk Modulus (GPa) = 45.45128 54.18393 49.81760
# Shear Modulus (GPa) = 18.47381 20.54621 19.51001
#
# Velocity S-wave (km/s) = 3.59531 3.79162 3.69477
# Velocity P-wave (km/s) = 7.00269 7.55522 7.28420
#
# Compressibility (1/GPa) = 0.02200158
#
# Stress axis : x y z
#
# Youngs Moduli (GPa) = 69.89021 35.59656 38.23244
#
# Poissons Ratio (x) = 0.24663 0.29416
# Poissons Ratio (y) = 0.48423 0.33091
# Poissons Ratio (z) = 0.53773 0.30809
#
# Static dielectric constant tensor:
#      x y z
#    x 3.119450 0.000000 0.000000 
#    y 0.000000 2.861860 0.000000 
#    z 0.000000 0.000000 2.594520 
# 
# 
# High freq. dielectric constant tensor:
#      x y z
#    x 1.568730 0.000000 0.000000 
#    y 0.000000 1.527970 0.000000 
#    z 0.000000 0.000000 1.500490 
# 
# From -- ./inp_files/24746.got.cif
#   From: 2010.06.25/outbox.cif.g09.slc.cpg/sg71_13_cif.got.tgz:24746.got - 2010.06.28 04:59:45.
