data_PCOD8287242
_publ_section_title
;
Structure prediction by ZEFSAII (Michael W. Deem and Ramdas Pophale) SiO2 
 PCOD8287242
Probable space group: I M M M
;
_chemical_formula_sum "Si O2"
_cell_formula_units_Z 112
_cell_length_a 12.579072
_cell_length_b 28.835678
_cell_length_c 19.385590
_cell_angle_alpha 90.000000
_cell_angle_beta 90.000000
_cell_angle_gamma 90.000000
_cell_volume 7031.658870
_symmetry_space_group_name_H-M "I M M M"
_symmetry_group_IT_number 71
_symmetry_cell_setting 'orthorhombic'
loop_
_space_group_symop_operation_xyz
x,y,z
-x,-y,z
x,-y,-z
-x,y,-z
-x,-y,-z
x,y,-z
-x,y,z
x,-y,z
1/2+x,1/2+y,1/2+z
1/2-x,1/2-y,1/2+z
1/2+x,1/2-y,1/2-z
1/2-x,1/2+y,1/2-z
1/2-x,1/2-y,1/2-z
1/2+x,1/2+y,1/2-z
1/2-x,1/2+y,1/2+z
1/2+x,1/2-y,1/2+z
loop_
_atom_site_type_symbol
_atom_site_label
_atom_site_fract_x
_atom_site_fract_y
_atom_site_fract_z
Si Si1 0.880016 0.214037 0.076385
Si Si2 0.799707 0.866144 0.172307
Si Si3 0.623890 0.369491 0.826823
Si Si4 0.373763 0.448858 0.076481
Si Si5 0.124595 0.697926 0.283194
Si Si6 0.239932 0.779473 0.348729
Si Si7 0.376153 0.553545 0.579920
O O1 0.862026 0.174078 0.132283
O O2 0.804491 0.258617 0.086932
O O3 0.000000 0.231689 0.083713
O O4 0.858354 0.193671 0.000000
O O5 0.855887 0.873314 0.245585
O O6 0.678982 0.848602 0.184821
O O7 0.803703 0.913735 0.128443
O O8 0.500000 0.363973 0.840506
O O9 0.670788 0.414807 0.864738
O O10 0.680747 0.326951 0.865456
O O11 0.500000 0.450536 0.079624
O O12 0.327582 0.500000 0.092032
O O13 0.337464 0.432563 0.000000
O O14 0.148461 0.742524 0.329858
O O15 0.173129 0.710662 0.209709
O O16 0.000000 0.688272 0.277842
O O17 0.348825 0.563302 0.500000
O O18 0.500000 0.564547 0.593904
O O19 0.351407 0.500000 0.598144
#
# Coordination Sequence:
#
# PCOD8287242 Si02
#       7
#    16  16  16  16  16  16  16
#     4  10  19  30  45  63  87 120 151 180 215 258
#     4  10  19  29  45  68  91 117 149 184 220 268
#     4  10  18  27  43  67  92 117 143 177 222 262
#     4   8  15  28  43  59  83 116 147 170 202 255
#     4   9  17  30  46  62  85 117 148 181 223 264
#     4   9  18  28  43  65  86 111 145 183 218 259
#     4   9  17  29  46  68  94 122 149 184 232 276
#
# _framework density 15.927963
#
# number of rings (size 3 to 8) (size 9 to 14) (size 15 to 20)
#    0.000    2.714    0.000    4.286    0.000    2.286 
#    0.000    1.429    0.000   14.571    0.000    1.000 
#    0.000    1.714    0.000   40.857    0.000    3.571 
#
# Total GULP energy -694061.596488 kJ/mol
# GULP energy per Si atom -12393.957080 kJ/mol
# Density = 1.589171 g / cm^3
# Si number density = 15.927963 Si / 1000 Ang^3
#
#
#
# Elastic Constant Matrix: (Units=GPa)
#
#
# Indices 1 2 3 4 5 6 
#
# 1 75.2002 35.4638 25.5756 0.0001 0.0000 0.0000
# 2 35.4638 111.8608 56.9979 0.0001 0.0000 0.0000
# 3 25.5756 56.9979 92.3914 0.0002 0.0000 0.0000
# 4 0.0001 0.0001 0.0002 34.3621 0.0000 0.0000
# 5 0.0000 0.0000 0.0000 0.0000 16.7961 0.0000
# 6 0.0000 0.0000 0.0000 0.0000 0.0000 21.1275
#
#
#
# Elastic Compliance Matrix: (Units=1/GPa)
#
#
# Indices 1 2 3 4 5 6 
#
# 1 0.015856 -0.004070 -0.001879 0.000000 0.000000 0.000000
# 2 -0.004070 0.014083 -0.007561 0.000000 0.000000 0.000000
# 3 -0.001879 -0.007561 0.016008 0.000000 0.000000 0.000000
# 4 0.000000 0.000000 0.000000 0.029102 0.000000 0.000000
# 5 0.000000 0.000000 0.000000 0.000000 0.059538 0.000000
# 6 0.000000 0.000000 0.000000 0.000000 0.000000 0.047332
#
#
# Mechanical properties :
#
#
# Convention : Reuss Voigt Hill
#
# Bulk Modulus (GPa) = 52.83231 57.28077 55.05654
# Shear Modulus (GPa) = 23.22919 25.21816 24.22367
#
# Velocity S-wave (km/s) = 3.82303 3.98334 3.90401
# Velocity P-wave (km/s) = 7.26147 7.56283 7.41368
#
# Compressibility (1/GPa) = 0.01892781
#
# Stress axis : x y z
#
# Youngs Moduli (GPa) = 63.06772 71.00892 62.46783
#
# Poissons Ratio (x) = 0.28898 0.11735
# Poissons Ratio (y) = 0.25667 0.47234
# Poissons Ratio (z) = 0.11848 0.53692
#
# Static dielectric constant tensor:
#      x y z
#    x 2.762060 0.000000 0.000000 
#    y 0.000000 3.220740 0.000000 
#    z 0.000000 0.000000 3.084450 
# 
# 
# High freq. dielectric constant tensor:
#      x y z
#    x 1.577010 0.000000 0.000000 
#    y 0.000000 1.612550 0.000000 
#    z 0.000000 0.000000 1.612310 
# 
# From -- ./inp_files/52351.got.cif
#   From: 2010.06.25/outbox.cif.g09.slc.cpg/sg71_27_cif.got.tgz:52351.got - 2010.06.28 04:59:45.
