data_PCOD8287615
_publ_section_title
;
Structure prediction by ZEFSAII (Michael W. Deem and Ramdas Pophale) SiO2 
 PCOD8287615
Probable space group: I M M M
;
_chemical_formula_sum "Si O2"
_cell_formula_units_Z 104
_cell_length_a 20.211526
_cell_length_b 8.922649
_cell_length_c 32.310099
_cell_angle_alpha 90.000000
_cell_angle_beta 90.000000
_cell_angle_gamma 90.000000
_cell_volume 5826.814635
_symmetry_space_group_name_H-M "I M M M"
_symmetry_group_IT_number 71
_symmetry_cell_setting 'orthorhombic'
loop_
_space_group_symop_operation_xyz
x,y,z
-x,-y,z
x,-y,-z
-x,y,-z
-x,-y,-z
x,y,-z
-x,y,z
x,-y,z
1/2+x,1/2+y,1/2+z
1/2-x,1/2-y,1/2+z
1/2+x,1/2-y,1/2-z
1/2-x,1/2+y,1/2-z
1/2-x,1/2-y,1/2-z
1/2+x,1/2+y,1/2-z
1/2-x,1/2+y,1/2+z
1/2+x,1/2-y,1/2+z
loop_
_atom_site_type_symbol
_atom_site_label
_atom_site_fract_x
_atom_site_fract_y
_atom_site_fract_z
Si Si1 0.824780 0.824659 0.344213
Si Si2 0.075352 0.171730 0.805220
Si Si3 0.839303 0.675435 0.427408
Si Si4 0.711639 0.829550 0.545978
Si Si5 0.428583 0.821883 0.000000
Si Si6 0.326043 0.171846 0.635981
Si Si7 0.424614 0.176987 0.219116
O O1 0.855899 0.768996 0.386783
O O2 0.746674 0.782721 0.346442
O O3 0.865905 0.746221 0.308007
O O4 0.834654 0.000000 0.338974
O O5 0.121006 0.220783 0.843117
O O6 0.090689 0.273651 0.765718
O O7 0.000000 0.192519 0.819850
O O8 0.090392 0.000000 0.793541
O O9 0.842463 0.500000 0.417139
O O10 0.770046 0.711388 0.449172
O O11 0.894115 0.733915 0.458697
O O12 0.678221 0.804823 0.500000
O O13 0.664929 0.804192 0.586126
O O14 0.739200 0.000000 0.548890
O O15 0.500000 0.748152 0.000000
O O16 0.429649 0.000000 0.000000
O O17 0.340801 0.000000 0.647543
O O18 0.500000 0.228363 0.206506
O O19 0.419062 0.000000 0.215895
#
# Coordination Sequence:
#
# PCOD8287615 Si02
#       7
#    16  16  16  16   8  16  16
#     4  10  21  36  53  77 108 139 174 220 268 312
#     4  10  21  37  57  80 106 137 172 213 262 317
#     4  10  18  30  48  70  96 131 174 217 262 309
#     4   9  17  31  52  75 103 135 168 212 261 308
#     4   9  18  30  43  63  93 129 170 215 258 301
#     4   9  19  34  53  80 108 138 176 216 262 313
#     4  10  21  37  57  79 103 138 181 219 261 316
#
# _framework density 17.848517000000001
#
# number of rings (size 3 to 8) (size 9 to 14) (size 15 to 20)
#    0.000    2.385    0.769    2.769    0.000    6.154 
#    0.000    1.538    0.000    3.692    0.000    3.231 
#    0.000    0.000    0.000    0.000    0.000    0.000 
#
# Total GULP energy -644422.774837 kJ/mol
# GULP energy per Si atom -12392.745670 kJ/mol
# Density = 1.780789 g / cm^3
# Si number density = 17.848517 Si / 1000 Ang^3
#
#
#
# Elastic Constant Matrix: (Units=GPa)
#
#
# Indices 1 2 3 4 5 6 
#
# 1 80.2016 39.0399 62.9765 0.0000 0.0000 0.0000
# 2 39.0399 61.6051 40.9208 0.0000 0.0000 0.0000
# 3 62.9765 40.9208 124.1660 0.0000 0.0000 0.0000
# 4 0.0000 0.0000 0.0000 30.4871 0.0000 0.0000
# 5 0.0000 0.0000 0.0000 0.0000 25.2912 0.0000
# 6 0.0000 0.0000 0.0000 0.0000 0.0000 23.0549
#
#
#
# Elastic Compliance Matrix: (Units=1/GPa)
#
#
# Indices 1 2 3 4 5 6 
#
# 1 0.024206 -0.009198 -0.009246 0.000000 0.000000 0.000000
# 2 -0.009198 0.024277 -0.003336 0.000000 0.000000 0.000000
# 3 -0.009246 -0.003336 0.013842 0.000000 0.000000 0.000000
# 4 0.000000 0.000000 0.000000 0.032801 0.000000 0.000000
# 5 0.000000 0.000000 0.000000 0.000000 0.039539 0.000000
# 6 0.000000 0.000000 0.000000 0.000000 0.000000 0.043375
#
#
# Mechanical properties :
#
#
# Convention : Reuss Voigt Hill
#
# Bulk Modulus (GPa) = 53.28671 61.31635 57.30153
# Shear Modulus (GPa) = 21.94374 23.96899 22.95637
#
# Velocity S-wave (km/s) = 3.51015 3.66855 3.59022
# Velocity P-wave (km/s) = 6.80793 7.23690 7.02569
#
# Compressibility (1/GPa) = 0.01876640
#
# Stress axis : x y z
#
# Youngs Moduli (GPa) = 41.31196 41.19108 72.24152
#
# Poissons Ratio (x) = 0.37888 0.66793
# Poissons Ratio (y) = 0.38000 0.24097
# Poissons Ratio (z) = 0.38196 0.13740
#
# Static dielectric constant tensor:
#      x y z
#    x 3.212030 0.000000 0.000000 
#    y 0.000000 3.293700 0.000000 
#    z 0.000000 0.000000 3.383110 
# 
# 
# High freq. dielectric constant tensor:
#      x y z
#    x 1.664570 0.000000 0.000000 
#    y 0.000000 1.694670 0.000000 
#    z 0.000000 0.000000 1.700070 
# 
# From -- ./inp_files/11547.got.cif
#   From: 2010.06.25/outbox.cif.g09.slc.cpg/sg71_6_cif.got.tgz:11547.got - 2010.06.28 04:59:45.
