data_PCOD8287935
_publ_section_title
;
Structure prediction by ZEFSAII (Michael W. Deem and Ramdas Pophale) SiO2 
 PCOD8287935
Probable space group: I M M M
;
_chemical_formula_sum "Si O2"
_cell_formula_units_Z 80
_cell_length_a 13.323541
_cell_length_b 27.163415
_cell_length_c 13.323538
_cell_angle_alpha 90.000000
_cell_angle_beta 90.000000
_cell_angle_gamma 90.000000
_cell_volume 4821.959922
_symmetry_space_group_name_H-M "I M M M"
_symmetry_group_IT_number 71
_symmetry_cell_setting 'orthorhombic'
loop_
_space_group_symop_operation_xyz
x,y,z
-x,-y,z
x,-y,-z
-x,y,-z
-x,-y,-z
x,y,-z
-x,y,z
x,-y,z
1/2+x,1/2+y,1/2+z
1/2-x,1/2-y,1/2+z
1/2+x,1/2-y,1/2-z
1/2-x,1/2+y,1/2-z
1/2-x,1/2-y,1/2-z
1/2+x,1/2+y,1/2-z
1/2-x,1/2+y,1/2+z
1/2+x,1/2-y,1/2+z
loop_
_atom_site_type_symbol
_atom_site_label
_atom_site_fract_x
_atom_site_fract_y
_atom_site_fract_z
Si Si1 0.724662 0.709324 0.382455
Si Si2 0.616606 0.444424 0.116607
Si Si3 0.387429 0.941993 0.887429
Si Si4 0.117545 0.709323 0.224666
Si Si5 0.747950 0.877420 0.752051
O O1 0.741192 0.702960 0.500000
O O2 0.830234 0.726343 0.330236
O O3 0.639234 0.750000 0.360763
O O4 0.692102 0.656993 0.332429
O O5 0.500000 0.436592 0.139707
O O6 0.648280 0.500000 0.148279
O O7 0.676272 0.402934 0.176271
O O8 0.639703 0.436591 0.000000
O O9 0.500000 0.924433 0.860677
O O10 0.310153 0.919703 0.810157
O O11 0.379479 0.000000 0.879493
O O12 0.360691 0.924427 0.000000
O O13 0.167570 0.656993 0.192105
O O14 0.000000 0.702959 0.241199
#
# Coordination Sequence:
#
# PCOD8287935 Si02
#       5
#    16  16  16  16  16
#     4   9  20  36  52  76 106 136 171 209 257 307
#     4   9  19  36  56  76 101 136 174 213 256 297
#     4   9  17  28  46  76 109 136 162 198 249 304
#     4   9  20  36  52  76 106 136 171 209 257 307
#     4  10  18  32  52  80 100 128 173 216 248 298
#
# _framework density 16.590764
#
# number of rings (size 3 to 8) (size 9 to 14) (size 15 to 20)
#    1.200    1.600    0.000    3.000    0.000    2.400 
#    0.000    0.000    0.000    3.600    0.000   14.000 
#    0.000    0.000    0.000    0.000    0.000    0.000 
#
# Total GULP energy -495610.213814 kJ/mol
# GULP energy per Si atom -12390.255345 kJ/mol
# Density = 1.655300 g / cm^3
# Si number density = 16.590764 Si / 1000 Ang^3
#
#
#
# Elastic Constant Matrix: (Units=GPa)
#
#
# Indices 1 2 3 4 5 6 
#
# 1 86.5943 50.8073 49.8147 0.0000 0.0000 0.0000
# 2 50.8073 81.8771 50.8061 -0.0001 0.0000 0.0000
# 3 49.8147 50.8061 86.5942 -0.0007 0.0002 0.0001
# 4 0.0000 -0.0001 -0.0007 26.0691 0.0000 0.0000
# 5 0.0000 0.0000 0.0002 0.0000 26.1415 0.0000
# 6 0.0000 0.0000 0.0001 0.0000 0.0000 26.0698
#
#
#
# Elastic Compliance Matrix: (Units=1/GPa)
#
#
# Indices 1 2 3 4 5 6 
#
# 1 0.020411 -0.008460 -0.006778 0.000000 0.000000 0.000000
# 2 -0.008460 0.022712 -0.008459 0.000000 0.000000 0.000000
# 3 -0.006778 -0.008459 0.020410 0.000000 0.000000 0.000000
# 4 0.000000 0.000000 0.000000 0.038360 0.000000 0.000000
# 5 0.000000 0.000000 0.000000 0.000000 0.038253 0.000000
# 6 0.000000 0.000000 0.000000 0.000000 0.000000 0.038359
#
#
# Mechanical properties :
#
#
# Convention : Reuss Voigt Hill
#
# Bulk Modulus (GPa) = 61.95949 61.99131 61.97540
# Shear Modulus (GPa) = 21.61903 22.56523 22.09213
#
# Velocity S-wave (km/s) = 3.61373 3.69197 3.65306
# Velocity P-wave (km/s) = 7.40533 7.45790 7.43166
#
# Compressibility (1/GPa) = 0.01613958
#
# Stress axis : x y z
#
# Youngs Moduli (GPa) = 48.99342 44.03027 48.99467
#
# Poissons Ratio (x) = 0.37248 0.33210
# Poissons Ratio (y) = 0.41446 0.41444
# Poissons Ratio (z) = 0.33210 0.37244
#
# Static dielectric constant tensor:
#      x y z
#    x 2.886300 0.000000 0.000000 
#    y 0.000000 3.167490 0.000000 
#    z 0.000000 0.000000 2.886320 
# 
# 
# High freq. dielectric constant tensor:
#      x y z
#    x 1.622140 0.000000 0.000000 
#    y 0.000000 1.648840 0.000000 
#    z 0.000000 0.000000 1.622140 
# 
# From -- ./inp_files/21884.got.cif
#   From: 2010.06.25/outbox.cif.g09.slc.cpg/sg71_11_cif.got.tgz:21884.got - 2010.06.28 04:59:45.
