data_PCOD8287552
_publ_section_title
;
Structure prediction by ZEFSAII (Michael W. Deem and Ramdas Pophale) SiO2 
 PCOD8287552
Probable space group: I M M M
;
_chemical_formula_sum "Si O2"
_cell_formula_units_Z 88
_cell_length_a 30.148582
_cell_length_b 8.661164
_cell_length_c 24.128884
_cell_angle_alpha 90.000000
_cell_angle_beta 90.000000
_cell_angle_gamma 90.000000
_cell_volume 6300.577937
_symmetry_space_group_name_H-M "I M M M"
_symmetry_group_IT_number 71
_symmetry_cell_setting 'orthorhombic'
loop_
_space_group_symop_operation_xyz
x,y,z
-x,-y,z
x,-y,-z
-x,y,-z
-x,-y,-z
x,y,-z
-x,y,z
x,-y,z
1/2+x,1/2+y,1/2+z
1/2-x,1/2-y,1/2+z
1/2+x,1/2-y,1/2-z
1/2-x,1/2+y,1/2-z
1/2-x,1/2-y,1/2-z
1/2+x,1/2+y,1/2-z
1/2-x,1/2+y,1/2+z
1/2+x,1/2-y,1/2+z
loop_
_atom_site_type_symbol
_atom_site_label
_atom_site_fract_x
_atom_site_fract_y
_atom_site_fract_z
Si Si1 0.409756 0.818021 0.896803
Si Si2 0.000000 0.182512 0.563821
Si Si3 0.158065 0.817475 0.681819
Si Si4 0.135969 0.827360 0.500000
Si Si5 0.706030 0.818737 0.724340
Si Si6 0.740454 0.670748 0.000000
Si Si7 0.746299 0.318041 0.119104
O O1 0.457837 0.743833 0.903031
O O2 0.386900 0.760503 0.840139
O O3 0.414891 0.000000 0.896137
O O4 0.378590 0.765641 0.946538
O O5 0.000000 0.243065 0.500000
O O6 0.000000 0.000000 0.564719
O O7 0.164397 0.765381 0.746297
O O8 0.200595 0.755634 0.646625
O O9 0.153097 0.000000 0.678398
O O10 0.187970 0.842006 0.500000
O O11 0.114461 0.000000 0.500000
O O12 0.750000 0.750000 0.750000
O O13 0.710744 0.784549 0.658139
O O14 0.703278 0.000000 0.735895
O O15 0.754762 0.756193 0.057647
O O16 0.761864 0.500000 0.000000
O O17 0.739081 0.500000 0.111403
#
# Coordination Sequence:
#
# PCOD8287552 Si02
#       7
#    16   8  16   8  16   8  16
#     4  12  23  33  46  64  83 101 131 176 219 252
#     4  11  23  37  51  61  78 110 140 165 204 257
#     4  10  18  30  45  59  76 104 138 170 207 252
#     4  11  19  30  46  59  79 109 140 168 203 255
#     4   9  16  26  39  58  80 103 132 169 208 245
#     4   9  14  23  40  60  79 105 137 169 201 244
#     4   8  14  23  38  58  79 103 134 167 201 242
#
# _framework density 13.966972999999999
#
# number of rings (size 3 to 8) (size 9 to 14) (size 15 to 20)
#    0.000    2.091    2.727    4.364    0.000    0.364 
#    0.000    0.000    0.000    0.000    0.000    0.000 
#    0.000    0.000    0.000    0.000    0.000    0.909 
#
# Total GULP energy -545187.078943 kJ/mol
# GULP energy per Si atom -12390.615431 kJ/mol
# Density = 1.393518 g / cm^3
# Si number density = 13.966973 Si / 1000 Ang^3
#
#
#
# Elastic Constant Matrix: (Units=GPa)
#
#
# Indices 1 2 3 4 5 6 
#
# 1 60.1890 22.6309 47.0327 0.0000 0.0000 0.0000
# 2 22.6309 58.0496 23.1180 0.0000 0.0000 0.0000
# 3 47.0327 23.1180 104.0360 0.0000 0.0000 0.0000
# 4 0.0000 0.0000 0.0000 17.4579 0.0000 0.0000
# 5 0.0000 0.0000 0.0000 0.0000 22.9845 0.0000
# 6 0.0000 0.0000 0.0000 0.0000 0.0000 17.9715
#
#
#
# Elastic Compliance Matrix: (Units=1/GPa)
#
#
# Indices 1 2 3 4 5 6 
#
# 1 0.027683 -0.006372 -0.011099 0.000000 0.000000 0.000000
# 2 -0.006372 0.020366 -0.001645 0.000000 0.000000 0.000000
# 3 -0.011099 -0.001645 0.014995 0.000000 0.000000 0.000000
# 4 0.000000 0.000000 0.000000 0.057281 0.000000 0.000000
# 5 0.000000 0.000000 0.000000 0.000000 0.043507 0.000000
# 6 0.000000 0.000000 0.000000 0.000000 0.000000 0.055644
#
#
# Mechanical properties :
#
#
# Convention : Reuss Voigt Hill
#
# Bulk Modulus (GPa) = 40.30279 45.31530 42.80904
# Shear Modulus (GPa) = 18.79845 20.31566 19.55705
#
# Velocity S-wave (km/s) = 3.67266 3.81799 3.74603
# Velocity P-wave (km/s) = 6.84858 7.20771 7.03044
#
# Compressibility (1/GPa) = 0.02481218
#
# Stress axis : x y z
#
# Youngs Moduli (GPa) = 36.12283 49.10164 66.68787
#
# Poissons Ratio (x) = 0.31289 0.74018
# Poissons Ratio (y) = 0.23019 0.10968
# Poissons Ratio (z) = 0.40093 0.08076
#
# Static dielectric constant tensor:
#      x y z
#    x 2.576100 0.000000 0.000000 
#    y 0.000000 2.762970 0.000000 
#    z 0.000000 0.000000 3.368740 
# 
# 
# High freq. dielectric constant tensor:
#      x y z
#    x 1.485770 0.000000 0.000000 
#    y 0.000000 1.531220 0.000000 
#    z 0.000000 0.000000 1.527780 
# 
# From -- ./inp_files/62250.got.cif
#   From: 2010.06.25/outbox.cif.g09.slc.cpg/sg71_32_cif.got.tgz:62250.got - 2010.06.28 04:59:45.
