data_PCOD8287768
_publ_section_title
;
Structure prediction by ZEFSAII (Michael W. Deem and Ramdas Pophale) SiO2 
 PCOD8287768
Probable space group: I M M M
;
_chemical_formula_sum "Si O2"
_cell_formula_units_Z 104
_cell_length_a 22.381575
_cell_length_b 22.568831
_cell_length_c 12.785583
_cell_angle_alpha 90.000000
_cell_angle_beta 90.000000
_cell_angle_gamma 90.000000
_cell_volume 6458.330190
_symmetry_space_group_name_H-M "I M M M"
_symmetry_group_IT_number 71
_symmetry_cell_setting 'orthorhombic'
loop_
_space_group_symop_operation_xyz
x,y,z
-x,-y,z
x,-y,-z
-x,y,-z
-x,-y,-z
x,y,-z
-x,y,z
x,-y,z
1/2+x,1/2+y,1/2+z
1/2-x,1/2-y,1/2+z
1/2+x,1/2-y,1/2-z
1/2-x,1/2+y,1/2-z
1/2-x,1/2-y,1/2-z
1/2+x,1/2+y,1/2-z
1/2-x,1/2+y,1/2+z
1/2+x,1/2-y,1/2+z
loop_
_atom_site_type_symbol
_atom_site_label
_atom_site_fract_x
_atom_site_fract_y
_atom_site_fract_z
Si Si1 0.223766 0.065299 0.619199
Si Si2 0.567577 0.738842 0.878384
Si Si3 0.117973 0.641215 0.685596
Si Si4 0.431879 0.930121 0.000000
Si Si5 0.178871 0.817379 0.293812
Si Si6 0.735567 0.794100 0.119484
Si Si7 0.864604 0.567632 0.882108
O O1 0.203367 0.072392 0.500000
O O2 0.189349 0.113686 0.686448
O O3 0.294063 0.073559 0.629378
O O4 0.205634 0.000000 0.660769
O O5 0.500000 0.716290 0.867758
O O6 0.572630 0.804710 0.831831
O O7 0.608634 0.694908 0.810037
O O8 0.588179 0.739886 0.000000
O O9 0.104106 0.591062 0.601203
O O10 0.185951 0.664256 0.674107
O O11 0.106044 0.613001 0.799832
O O12 0.500000 0.905571 0.000000
O O13 0.431843 0.000000 0.000000
O O14 0.200634 0.802838 0.176125
O O15 0.215991 0.774743 0.372533
O O16 0.743669 0.812430 0.000000
O O17 0.884565 0.500000 0.858454
O O18 0.884502 0.585154 0.000000
#
# Coordination Sequence:
#
# PCOD8287768 Si02
#       7
#    16  16  16   8  16  16  16
#     4   9  16  27  45  70 100 128 156 191 236 297
#     4  10  20  34  52  72  96 127 164 210 256 305
#     4  11  17  32  50  71 100 133 167 212 252 299
#     4  11  22  32  48  72  98 136 178 214 246 282
#     4  10  18  31  49  71  96 129 161 197 246 310
#     4  10  19  30  47  74 101 125 159 205 259 299
#     4   9  18  30  45  69 102 138 170 202 247 299
#
# _framework density 16.103232999999999
#
# number of rings (size 3 to 8) (size 9 to 14) (size 15 to 20)
#    0.000    2.077    3.077    4.154    0.000    0.000 
#    0.000    0.000    0.000    3.692    0.000    7.538 
#    0.000    0.000    0.000    1.385    0.000    0.154 
#
# Total GULP energy -644683.924955 kJ/mol
# GULP energy per Si atom -12397.767788 kJ/mol
# Density = 1.606658 g / cm^3
# Si number density = 16.103233 Si / 1000 Ang^3
#
#
#
# Elastic Constant Matrix: (Units=GPa)
#
#
# Indices 1 2 3 4 5 6 
#
# 1 66.4782 24.3640 30.0124 0.0000 0.0000 0.0000
# 2 24.3640 81.8803 31.6091 0.0000 0.0000 0.0000
# 3 30.0124 31.6091 95.0431 0.0000 0.0000 0.0000
# 4 0.0000 0.0000 0.0000 24.7896 0.0000 0.0000
# 5 0.0000 0.0000 0.0000 0.0000 20.7257 0.0000
# 6 0.0000 0.0000 0.0000 0.0000 0.0000 16.8100
#
#
#
# Elastic Compliance Matrix: (Units=1/GPa)
#
#
# Indices 1 2 3 4 5 6 
#
# 1 0.018483 -0.003725 -0.004598 0.000000 0.000000 0.000000
# 2 -0.003725 0.014763 -0.003733 0.000000 0.000000 0.000000
# 3 -0.004598 -0.003733 0.013215 0.000000 0.000000 0.000000
# 4 0.000000 0.000000 0.000000 0.040340 0.000000 0.000000
# 5 0.000000 0.000000 0.000000 0.000000 0.048249 0.000000
# 6 0.000000 0.000000 0.000000 0.000000 0.000000 0.059488
#
#
# Mechanical properties :
#
#
# Convention : Reuss Voigt Hill
#
# Bulk Modulus (GPa) = 44.74526 46.15251 45.44889
# Shear Modulus (GPa) = 22.11410 22.95947 22.53678
#
# Velocity S-wave (km/s) = 3.70979 3.78003 3.74507
# Velocity P-wave (km/s) = 6.79683 6.91188 6.85460
#
# Compressibility (1/GPa) = 0.02234873
#
# Stress axis : x y z
#
# Youngs Moduli (GPa) = 54.10246 67.73882 75.67118
#
# Poissons Ratio (x) = 0.25232 0.34792
# Poissons Ratio (y) = 0.20153 0.28251
# Poissons Ratio (z) = 0.24875 0.25290
#
# Static dielectric constant tensor:
#      x y z
#    x 2.850760 0.000000 0.000000 
#    y 0.000000 3.085110 0.000000 
#    z 0.000000 0.000000 3.030020 
# 
# 
# High freq. dielectric constant tensor:
#      x y z
#    x 1.588820 0.000000 0.000000 
#    y 0.000000 1.616400 0.000000 
#    z 0.000000 0.000000 1.611540 
# 
# From -- ./inp_files/27688.got.cif
#   From: 2010.06.25/outbox.cif.g09.slc.cpg/sg71_14_cif.got.tgz:27688.got - 2010.06.28 04:59:45.
