data_PCOD8287436
_publ_section_title
;
Structure prediction by ZEFSAII (Michael W. Deem and Ramdas Pophale) SiO2 
 PCOD8287436
Probable space group: I M M M
;
_chemical_formula_sum "Si O2"
_cell_formula_units_Z 104
_cell_length_a 29.758271
_cell_length_b 9.329078
_cell_length_c 22.515354
_cell_angle_alpha 90.000000
_cell_angle_beta 90.000000
_cell_angle_gamma 90.000000
_cell_volume 6250.650239
_symmetry_space_group_name_H-M "I M M M"
_symmetry_group_IT_number 71
_symmetry_cell_setting 'orthorhombic'
loop_
_space_group_symop_operation_xyz
x,y,z
-x,-y,z
x,-y,-z
-x,y,-z
-x,-y,-z
x,y,-z
-x,y,z
x,-y,z
1/2+x,1/2+y,1/2+z
1/2-x,1/2-y,1/2+z
1/2+x,1/2-y,1/2-z
1/2-x,1/2+y,1/2-z
1/2-x,1/2-y,1/2-z
1/2+x,1/2+y,1/2-z
1/2-x,1/2+y,1/2+z
1/2+x,1/2-y,1/2+z
loop_
_atom_site_type_symbol
_atom_site_label
_atom_site_fract_x
_atom_site_fract_y
_atom_site_fract_z
Si Si1 0.370658 0.832125 0.431039
Si Si2 0.801499 0.164781 0.431289
Si Si3 0.448449 0.832802 0.214913
Si Si4 0.783908 0.161818 0.070607
Si Si5 0.449191 0.329393 0.000000
Si Si6 0.549409 0.170013 0.650736
Si Si7 0.602019 0.667840 0.884641
O O1 0.379732 0.800068 0.500000
O O2 0.327258 0.748265 0.406604
O O3 0.413403 0.771457 0.394898
O O4 0.362520 0.000000 0.419789
O O5 0.812454 0.198647 0.500000
O O6 0.761231 0.262032 0.405914
O O7 0.845319 0.199781 0.392637
O O8 0.786841 0.000000 0.424409
O O9 0.500000 0.798020 0.197913
O O10 0.438663 0.783158 0.282293
O O11 0.414560 0.745663 0.174102
O O12 0.438534 0.000000 0.206819
O O13 0.785649 0.000000 0.095256
O O14 0.783382 0.164832 0.000000
O O15 0.424631 0.269824 0.941453
O O16 0.446579 0.500000 0.000000
O O17 0.500000 0.272445 0.000000
O O18 0.500000 0.230566 0.633006
O O19 0.547671 0.000000 0.647485
O O20 0.592621 0.500000 0.877728
#
# Coordination Sequence:
#
# PCOD8287436 Si02
#       7
#    16  16  16  16   8  16  16
#     4   9  16  27  47  74  97 118 148 185 225 266
#     4   9  16  28  45  65  90 117 150 190 232 274
#     4   9  18  32  47  63  88 124 159 187 221 268
#     4   9  17  28  43  65  94 125 151 178 221 275
#     4   9  16  26  41  63  91 119 145 181 234 281
#     4   8  15  29  48  69  94 123 153 185 222 266
#     4  10  18  29  46  68  90 116 152 195 235 271
#
# _framework density 16.638269000000001
#
# number of rings (size 3 to 8) (size 9 to 14) (size 15 to 20)
#    0.000    3.000    0.769    1.846    0.000    3.692 
#    0.000    2.692    0.000    3.692    0.000    2.154 
#    0.000    0.000    0.000    0.000    0.000    0.000 
#
# Total GULP energy -644692.935782 kJ/mol
# GULP energy per Si atom -12397.941073 kJ/mol
# Density = 1.660040 g / cm^3
# Si number density = 16.638269 Si / 1000 Ang^3
#
#
#
# Elastic Constant Matrix: (Units=GPa)
#
#
# Indices 1 2 3 4 5 6 
#
# 1 148.2956 60.7334 66.1182 0.0000 0.0000 0.0000
# 2 60.7334 59.8561 34.6283 0.0000 0.0000 0.0000
# 3 66.1182 34.6283 70.7779 0.0000 0.0000 0.0000
# 4 0.0000 0.0000 0.0000 17.0959 0.0000 0.0000
# 5 0.0000 0.0000 0.0000 0.0000 20.0109 0.0000
# 6 0.0000 0.0000 0.0000 0.0000 0.0000 20.5491
#
#
#
# Elastic Compliance Matrix: (Units=1/GPa)
#
#
# Indices 1 2 3 4 5 6 
#
# 1 0.014759 -0.009762 -0.009011 0.000000 0.000000 0.000000
# 2 -0.009762 0.029759 -0.005440 0.000000 0.000000 0.000000
# 3 -0.009011 -0.005440 0.025208 0.000000 0.000000 0.000000
# 4 0.000000 0.000000 0.000000 0.058493 0.000000 0.000000
# 5 0.000000 0.000000 0.000000 0.000000 0.049973 0.000000
# 6 0.000000 0.000000 0.000000 0.000000 0.000000 0.048664
#
#
# Mechanical properties :
#
#
# Convention : Reuss Voigt Hill
#
# Bulk Modulus (GPa) = 46.94998 66.87662 56.91330
# Shear Modulus (GPa) = 17.70639 19.36116 18.53378
#
# Velocity S-wave (km/s) = 3.26574 3.41494 3.34117
# Velocity P-wave (km/s) = 6.51916 7.47200 7.01178
#
# Compressibility (1/GPa) = 0.02129926
#
# Stress axis : x y z
#
# Youngs Moduli (GPa) = 67.75557 33.60291 39.66936
#
# Poissons Ratio (x) = 0.32803 0.35747
# Poissons Ratio (y) = 0.66143 0.21582
# Poissons Ratio (z) = 0.61056 0.18282
#
# Static dielectric constant tensor:
#      x y z
#    x 3.355720 0.000000 0.000000 
#    y 0.000000 2.916940 0.000000 
#    z 0.000000 0.000000 2.935270 
# 
# 
# High freq. dielectric constant tensor:
#      x y z
#    x 1.650980 0.000000 0.000000 
#    y 0.000000 1.616150 0.000000 
#    z 0.000000 0.000000 1.611630 
# 
# From -- ./inp_files/56685.got.cif
#   From: 2010.06.25/outbox.cif.g09.slc.cpg/sg71_29_cif.got.tgz:56685.got - 2010.06.28 04:59:45.
