data_PCOD8287624
_publ_section_title
;
Structure prediction by ZEFSAII (Michael W. Deem and Ramdas Pophale) SiO2 
 PCOD8287624
Probable space group: I M M M
;
_chemical_formula_sum "Si O2"
_cell_formula_units_Z 88
_cell_length_a 20.786033
_cell_length_b 28.413784
_cell_length_c 8.705508
_cell_angle_alpha 90.000000
_cell_angle_beta 90.000000
_cell_angle_gamma 90.000000
_cell_volume 5141.558790
_symmetry_space_group_name_H-M "I M M M"
_symmetry_group_IT_number 71
_symmetry_cell_setting 'orthorhombic'
loop_
_space_group_symop_operation_xyz
x,y,z
-x,-y,z
x,-y,-z
-x,y,-z
-x,-y,-z
x,y,-z
-x,y,z
x,-y,z
1/2+x,1/2+y,1/2+z
1/2-x,1/2-y,1/2+z
1/2+x,1/2-y,1/2-z
1/2-x,1/2+y,1/2-z
1/2-x,1/2-y,1/2-z
1/2+x,1/2+y,1/2-z
1/2-x,1/2+y,1/2+z
1/2+x,1/2-y,1/2+z
loop_
_atom_site_type_symbol
_atom_site_label
_atom_site_fract_x
_atom_site_fract_y
_atom_site_fract_z
Si Si1 0.639153 0.210637 0.822007
Si Si2 0.743914 0.139069 0.818102
Si Si3 0.573226 0.000000 0.182155
Si Si4 0.319888 0.947990 0.673872
Si Si5 0.867915 0.182712 0.317908
Si Si6 0.000000 0.718240 0.676852
Si Si7 0.500000 0.683233 0.678601
O O1 0.691386 0.175785 0.746780
O O2 0.643894 0.263795 0.755883
O O3 0.566461 0.189630 0.794845
O O4 0.655353 0.212716 0.000000
O O5 0.723724 0.086662 0.772931
O O6 0.812370 0.149263 0.743846
O O7 0.749100 0.142895 0.000000
O O8 0.608982 0.046678 0.249139
O O9 0.500000 0.000000 0.239525
O O10 0.577891 0.000000 0.000000
O O11 0.327002 0.929175 0.500000
O O12 0.286857 0.000000 0.675958
O O13 0.869684 0.181637 0.500000
O O14 0.935378 0.162107 0.254967
O O15 0.000000 0.761133 0.794053
O O16 0.000000 0.737733 0.500000
O O17 0.500000 0.671129 0.500000
#
# Coordination Sequence:
#
# PCOD8287624 Si02
#       7
#    16  16   8  16  16   8   8
#     4   8  16  29  46  69  98 133 170 208 247 294
#     4  11  20  31  49  76 103 129 169 213 254 295
#     4   9  17  33  57  79  97 124 165 212 259 299
#     4   9  20  36  52  70  99 132 165 203 250 303
#     4  10  19  33  51  70  99 136 169 201 249 303
#     4   8  14  30  48  62  91 134 171 203 249 297
#     4  10  18  30  48  72  97 124 165 210 248 289
#
# _framework density 17.115431999999998
#
# number of rings (size 3 to 8) (size 9 to 14) (size 15 to 20)
#    0.545    2.091    0.000    4.091    0.000    0.727 
#    1.636    8.182    0.000    0.000    0.000    0.636 
#    0.000    5.091    0.000    0.000    0.000    0.000 
#
# Total GULP energy -545188.164128 kJ/mol
# GULP energy per Si atom -12390.640094 kJ/mol
# Density = 1.707648 g / cm^3
# Si number density = 17.115432 Si / 1000 Ang^3
#
#
#
# Elastic Constant Matrix: (Units=GPa)
#
#
# Indices 1 2 3 4 5 6 
#
# 1 158.6057 52.3346 43.9630 0.0000 0.0000 0.0000
# 2 52.3346 57.6890 20.4666 0.0000 0.0000 0.0000
# 3 43.9630 20.4666 75.1287 0.0000 0.0000 0.0000
# 4 0.0000 0.0000 0.0000 17.8707 0.0000 0.0000
# 5 0.0000 0.0000 0.0000 0.0000 27.3973 0.0000
# 6 0.0000 0.0000 0.0000 0.0000 0.0000 17.0905
#
#
#
# Elastic Compliance Matrix: (Units=1/GPa)
#
#
# Indices 1 2 3 4 5 6 
#
# 1 0.009840 -0.007620 -0.003682 0.000000 0.000000 0.000000
# 2 -0.007620 0.025090 -0.002376 0.000000 0.000000 0.000000
# 3 -0.003682 -0.002376 0.016112 0.000000 0.000000 0.000000
# 4 0.000000 0.000000 0.000000 0.055958 0.000000 0.000000
# 5 0.000000 0.000000 0.000000 0.000000 0.036500 0.000000
# 6 0.000000 0.000000 0.000000 0.000000 0.000000 0.058512
#
#
# Mechanical properties :
#
#
# Convention : Reuss Voigt Hill
#
# Bulk Modulus (GPa) = 42.21913 58.32797 50.27355
# Shear Modulus (GPa) = 21.07352 24.11565 22.59458
#
# Velocity S-wave (km/s) = 3.51274 3.75774 3.63730
# Velocity P-wave (km/s) = 6.41664 7.27878 6.86126
#
# Compressibility (1/GPa) = 0.02368594
#
# Stress axis : x y z
#
# Youngs Moduli (GPa) = 101.62536 39.85591 62.06398
#
# Poissons Ratio (x) = 0.30372 0.22853
# Poissons Ratio (y) = 0.77443 0.14746
# Poissons Ratio (z) = 0.37420 0.09469
#
# Static dielectric constant tensor:
#      x y z
#    x 3.440860 0.000000 0.000000 
#    y 0.000000 2.871330 0.000000 
#    z 0.000000 0.000000 3.065620 
# 
# 
# High freq. dielectric constant tensor:
#      x y z
#    x 1.666580 0.000000 0.000000 
#    y 0.000000 1.613330 0.000000 
#    z 0.000000 0.000000 1.658460 
# 
# From -- ./inp_files/11429.got.cif
#   From: 2010.06.25/outbox.cif.g09.slc.cpg/sg71_6_cif.got.tgz:11429.got - 2010.06.28 04:59:45.
