data_PCOD8287209
_publ_section_title
;
Structure prediction by ZEFSAII (Michael W. Deem and Ramdas Pophale) SiO2 
 PCOD8287209
Probable space group: I M M M
;
_chemical_formula_sum "Si O2"
_cell_formula_units_Z 120
_cell_length_a 13.469124
_cell_length_b 19.928227
_cell_length_c 27.228113
_cell_angle_alpha 90.000000
_cell_angle_beta 90.000000
_cell_angle_gamma 90.000000
_cell_volume 7308.454660
_symmetry_space_group_name_H-M "I M M M"
_symmetry_group_IT_number 71
_symmetry_cell_setting 'orthorhombic'
loop_
_space_group_symop_operation_xyz
x,y,z
-x,-y,z
x,-y,-z
-x,y,-z
-x,-y,-z
x,y,-z
-x,y,z
x,-y,z
1/2+x,1/2+y,1/2+z
1/2-x,1/2-y,1/2+z
1/2+x,1/2-y,1/2-z
1/2-x,1/2+y,1/2-z
1/2-x,1/2-y,1/2-z
1/2+x,1/2+y,1/2-z
1/2-x,1/2+y,1/2+z
1/2+x,1/2-y,1/2+z
loop_
_atom_site_type_symbol
_atom_site_label
_atom_site_fract_x
_atom_site_fract_y
_atom_site_fract_z
Si Si1 0.111084 0.399082 0.265760
Si Si2 0.888397 0.254466 0.764164
Si Si3 0.383405 0.658649 0.405654
Si Si4 0.290644 0.924931 0.662799
Si Si5 0.385351 0.619075 0.776879
Si Si6 0.116318 0.701653 0.130894
Si Si7 0.302622 0.572225 0.679301
Si Si8 0.617948 0.576978 0.500000
O O1 0.114783 0.318770 0.270677
O O2 0.139504 0.421082 0.210713
O O3 0.186648 0.427681 0.305721
O O4 0.000000 0.425607 0.276956
O O5 0.835942 0.192370 0.736174
O O6 0.842461 0.269758 0.817380
O O7 0.000000 0.228795 0.773600
O O8 0.500000 0.645832 0.398346
O O9 0.362624 0.739482 0.409437
O O10 0.326777 0.631040 0.358270
O O11 0.343142 0.618932 0.453112
O O12 0.176419 0.911487 0.677992
O O13 0.326057 0.869236 0.622237
O O14 0.298609 0.000000 0.640061
O O15 0.500000 0.620984 0.793347
O O16 0.371226 0.575900 0.727680
O O17 0.000000 0.684429 0.133442
O O18 0.324746 0.500000 0.654399
O O19 0.658842 0.500000 0.500000
O O20 0.500000 0.575492 0.500000
#
# Coordination Sequence:
#
# PCOD8287209 Si02
#       8
#    16  16  16  16  16  16  16   8
#     4   9  18  29  41  57  83 116 154 192 221 246
#     4   8  14  25  39  56  75 109 151 183 214 241
#     4  10  19  32  48  67  89 112 138 170 213 264
#     4  10  20  28  40  61  84 118 155 185 219 249
#     4  10  18  27  39  57  86 120 154 184 214 252
#     4   9  17  29  45  62  80 109 147 185 217 249
#     4  11  21  27  40  63  84 114 148 180 218 254
#     4   9  18  32  50  70  94 118 134 161 210 264
#
# _framework density 16.419339999999998
#
# number of rings (size 3 to 8) (size 9 to 14) (size 15 to 20)
#    0.000    2.467    1.333    3.600    1.867    5.867 
#    0.000    0.000    0.000    0.000    0.000    0.933 
#    0.000    4.267    0.000    0.000    0.000    1.533 
#
# Total GULP energy -743489.862568 kJ/mol
# GULP energy per Si atom -12391.497709 kJ/mol
# Density = 1.638197 g / cm^3
# Si number density = 16.419340 Si / 1000 Ang^3
#
#
#
# Elastic Constant Matrix: (Units=GPa)
#
#
# Indices 1 2 3 4 5 6 
#
# 1 62.3648 24.1244 12.3709 0.0000 0.0000 0.0000
# 2 24.1244 141.5607 26.4285 0.0000 0.0000 0.0000
# 3 12.3709 26.4285 38.5802 0.0000 0.0000 0.0000
# 4 0.0000 0.0000 0.0000 19.4155 0.0000 0.0000
# 5 0.0000 0.0000 0.0000 0.0000 9.3783 0.0000
# 6 0.0000 0.0000 0.0000 0.0000 0.0000 17.2671
#
#
#
# Elastic Compliance Matrix: (Units=1/GPa)
#
#
# Indices 1 2 3 4 5 6 
#
# 1 0.017726 -0.002247 -0.004145 0.000000 0.000000 0.000000
# 2 -0.002247 0.008385 -0.005023 0.000000 0.000000 0.000000
# 3 -0.004145 -0.005023 0.030690 0.000000 0.000000 0.000000
# 4 0.000000 0.000000 0.000000 0.051505 0.000000 0.000000
# 5 0.000000 0.000000 0.000000 0.000000 0.106630 0.000000
# 6 0.000000 0.000000 0.000000 0.000000 0.000000 0.057914
#
#
# Mechanical properties :
#
#
# Convention : Reuss Voigt Hill
#
# Bulk Modulus (GPa) = 29.43688 40.92815 35.18252
# Shear Modulus (GPa) = 16.28647 21.18430 18.73538
#
# Velocity S-wave (km/s) = 3.15287 3.59584 3.38162
# Velocity P-wave (km/s) = 5.58760 6.49777 6.05979
#
# Compressibility (1/GPa) = 0.03397099
#
# Stress axis : x y z
#
# Youngs Moduli (GPa) = 56.41411 119.26245 32.58376
#
# Poissons Ratio (x) = 0.26799 0.13505
# Poissons Ratio (y) = 0.12676 0.16368
# Poissons Ratio (z) = 0.23382 0.59910
#
# Static dielectric constant tensor:
#      x y z
#    x 2.993460 0.000000 0.000000 
#    y 0.000000 3.501160 0.000000 
#    z 0.000000 0.000000 2.578020 
# 
# 
# High freq. dielectric constant tensor:
#      x y z
#    x 1.618060 0.000000 0.000000 
#    y 0.000000 1.658990 0.000000 
#    z 0.000000 0.000000 1.549040 
# 
# From -- ./inp_files/60198.got.cif
#   From: 2010.06.25/outbox.cif.g09.slc.cpg/sg71_31_cif.got.tgz:60198.got - 2010.06.28 04:59:45.
