data_PCOD8287944
_publ_section_title
;
Structure prediction by ZEFSAII (Michael W. Deem and Ramdas Pophale) SiO2 
 PCOD8287944
Probable space group: I M M M
;
_chemical_formula_sum "Si O2"
_cell_formula_units_Z 112
_cell_length_a 13.621415
_cell_length_b 13.480741
_cell_length_c 31.552496
_cell_angle_alpha 90.000000
_cell_angle_beta 90.000000
_cell_angle_gamma 90.000000
_cell_volume 5793.882852
_symmetry_space_group_name_H-M "I M M M"
_symmetry_group_IT_number 71
_symmetry_cell_setting 'orthorhombic'
loop_
_space_group_symop_operation_xyz
x,y,z
-x,-y,z
x,-y,-z
-x,y,-z
-x,-y,-z
x,y,-z
-x,y,z
x,-y,z
1/2+x,1/2+y,1/2+z
1/2-x,1/2-y,1/2+z
1/2+x,1/2-y,1/2-z
1/2-x,1/2+y,1/2-z
1/2-x,1/2-y,1/2-z
1/2+x,1/2+y,1/2-z
1/2-x,1/2+y,1/2+z
1/2+x,1/2-y,1/2+z
loop_
_atom_site_type_symbol
_atom_site_label
_atom_site_fract_x
_atom_site_fract_y
_atom_site_fract_z
Si Si1 0.217443 0.885555 0.047214
Si Si2 0.609837 0.382708 0.209895
Si Si3 0.607585 0.886945 0.164468
Si Si4 0.388566 0.232276 0.921288
Si Si5 0.886627 0.772001 0.121458
Si Si6 0.722315 0.617284 0.874437
Si Si7 0.808282 0.116438 0.201743
O O1 0.321628 0.827454 0.045730
O O2 0.144208 0.838041 0.081189
O O3 0.235620 0.000000 0.059339
O O4 0.171705 0.876719 0.000000
O O5 0.500000 0.339491 0.203723
O O6 0.605845 0.500000 0.211883
O O7 0.675487 0.349181 0.170372
O O8 0.656090 0.340526 0.253254
O O9 0.500000 0.866948 0.184801
O O10 0.624416 0.822640 0.123164
O O11 0.691432 0.860943 0.198624
O O12 0.617460 0.000000 0.149486
O O13 0.500000 0.235878 0.938032
O O14 0.348000 0.343667 0.912604
O O15 0.828384 0.668213 0.121900
O O16 0.868462 0.832309 0.164354
O O17 0.000000 0.744716 0.117323
O O18 0.734261 0.500000 0.878844
O O19 0.830166 0.000000 0.198460
#
# Coordination Sequence:
#
# PCOD8287944 Si02
#       7
#    16  16  16  16  16  16  16
#     4  10  21  37  58  88 123 152 177 210 260 327
#     4   9  18  32  52  79 109 142 182 229 280 332
#     4   9  16  28  48  74 106 143 179 214 261 325
#     4  10  19  33  55  83 112 146 185 222 266 322
#     4  11  23  38  56  80 107 142 189 234 279 332
#     4  10  21  38  57  77 105 143 190 241 285 326
#     4  10  18  32  53  79 111 145 182 226 275 332
#
# _framework density 19.330732999999999
#
# number of rings (size 3 to 8) (size 9 to 14) (size 15 to 20)
#    0.000    2.143    2.857    1.714    0.000    4.857 
#    0.000    2.143    0.000    9.429    0.000    8.000 
#    0.000    0.000    0.000    0.000    0.000    0.000 
#
# Total GULP energy -694252.782825 kJ/mol
# GULP energy per Si atom -12397.371122 kJ/mol
# Density = 1.928674 g / cm^3
# Si number density = 19.330733 Si / 1000 Ang^3
#
#
#
# Elastic Constant Matrix: (Units=GPa)
#
#
# Indices 1 2 3 4 5 6 
#
# 1 133.0706 30.1022 39.0524 0.0000 0.0000 0.0000
# 2 30.1022 86.9306 41.6027 0.0000 0.0000 0.0000
# 3 39.0524 41.6027 82.1646 0.0000 0.0000 0.0000
# 4 0.0000 0.0000 0.0000 21.3918 0.0000 0.0000
# 5 0.0000 0.0000 0.0000 0.0000 14.3399 0.0000
# 6 0.0000 0.0000 0.0000 0.0000 0.0000 16.6565
#
#
#
# Elastic Compliance Matrix: (Units=1/GPa)
#
#
# Indices 1 2 3 4 5 6 
#
# 1 0.008858 -0.001389 -0.003507 0.000000 0.000000 0.000000
# 2 -0.001389 0.015400 -0.007137 0.000000 0.000000 0.000000
# 3 -0.003507 -0.007137 0.017451 0.000000 0.000000 0.000000
# 4 0.000000 0.000000 0.000000 0.046747 0.000000 0.000000
# 5 0.000000 0.000000 0.000000 0.000000 0.069736 0.000000
# 6 0.000000 0.000000 0.000000 0.000000 0.000000 0.060037
#
#
# Mechanical properties :
#
#
# Convention : Reuss Voigt Hill
#
# Bulk Modulus (GPa) = 56.67967 58.18669 57.43318
# Shear Modulus (GPa) = 20.14691 23.23820 21.69256
#
# Velocity S-wave (km/s) = 3.23185 3.47095 3.35353
# Velocity P-wave (km/s) = 6.58112 6.79921 6.69105
#
# Compressibility (1/GPa) = 0.01764301
#
# Stress axis : x y z
#
# Youngs Moduli (GPa) = 112.88958 64.93416 57.30190
#
# Poissons Ratio (x) = 0.09020 0.20095
# Poissons Ratio (y) = 0.15681 0.40899
# Poissons Ratio (z) = 0.39589 0.46346
#
# Static dielectric constant tensor:
#      x y z
#    x 3.706660 0.000000 0.000000 
#    y 0.000000 3.509860 0.000000 
#    z 0.000000 0.000000 3.431710 
# 
# 
# High freq. dielectric constant tensor:
#      x y z
#    x 1.754000 0.000000 0.000000 
#    y 0.000000 1.753460 0.000000 
#    z 0.000000 0.000000 1.731960 
# 
# From -- ./inp_files/70086.got.cif
#   From: 2010.06.25/outbox.cif.g09.slc.cpg/sg71_36_cif.got.tgz:70086.got - 2010.06.28 04:59:45.
