data_PCOD8287320
_publ_section_title
;
Structure prediction by ZEFSAII (Michael W. Deem and Ramdas Pophale) SiO2 
 PCOD8287320
Probable space group: I M M M
;
_chemical_formula_sum "Si O2"
_cell_formula_units_Z 112
_cell_length_a 18.801231
_cell_length_b 19.026792
_cell_length_c 20.333181
_cell_angle_alpha 90.000000
_cell_angle_beta 90.000000
_cell_angle_gamma 90.000000
_cell_volume 7273.730108
_symmetry_space_group_name_H-M "I M M M"
_symmetry_group_IT_number 71
_symmetry_cell_setting 'orthorhombic'
loop_
_space_group_symop_operation_xyz
x,y,z
-x,-y,z
x,-y,-z
-x,y,-z
-x,-y,-z
x,y,-z
-x,y,z
x,-y,z
1/2+x,1/2+y,1/2+z
1/2-x,1/2-y,1/2+z
1/2+x,1/2-y,1/2-z
1/2-x,1/2+y,1/2-z
1/2-x,1/2-y,1/2-z
1/2+x,1/2+y,1/2-z
1/2-x,1/2+y,1/2+z
1/2+x,1/2-y,1/2+z
loop_
_atom_site_type_symbol
_atom_site_label
_atom_site_fract_x
_atom_site_fract_y
_atom_site_fract_z
Si Si1 0.422015 0.730176 0.575353
Si Si2 0.079088 0.697390 0.312816
Si Si3 0.275349 0.323228 0.423964
Si Si4 0.218546 0.577201 0.200815
Si Si5 0.577856 0.858641 0.332482
Si Si6 0.821546 0.420704 0.350436
Si Si7 0.284820 0.720884 0.817211
O O1 0.423294 0.753377 0.500000
O O2 0.500000 0.700469 0.596819
O O3 0.361015 0.671396 0.586899
O O4 0.402666 0.800640 0.613993
O O5 0.075435 0.680018 0.236741
O O6 0.110200 0.630756 0.353707
O O7 0.130536 0.764970 0.319212
O O8 0.000000 0.714828 0.340063
O O9 0.256855 0.308198 0.500000
O O10 0.238584 0.395917 0.402012
O O11 0.248178 0.258690 0.380289
O O12 0.248298 0.500000 0.181739
O O13 0.140052 0.583555 0.168167
O O14 0.213369 0.584550 0.278992
O O15 0.271634 0.637561 0.175350
O O16 0.500000 0.893192 0.346564
O O17 0.845544 0.500000 0.367507
O O18 0.250000 0.750000 0.750000
#
# Coordination Sequence:
#
# PCOD8287320 Si02
#       7
#    16  16  16  16  16  16  16
#     4   9  16  25  40  63  90 122 159 195 228 263
#     4   9  17  27  46  71  89 114 151 192 234 278
#     4  10  18  28  47  70  91 122 161 198 231 272
#     4  10  18  28  45  67  91 122 154 188 233 276
#     4   9  15  25  41  63  91 118 150 189 230 269
#     4   9  18  30  45  66  94 123 150 186 233 283
#     4  11  16  31  50  65  91 120 156 195 232 273
#
# _framework density 15.397876
#
# number of rings (size 3 to 8) (size 9 to 14) (size 15 to 20)
#    0.000    2.429    5.714    0.000    0.000    0.857 
#    0.000    2.857    0.000    9.429    0.000   10.000 
#    0.000    0.000    0.000    5.143    0.000    0.000 
#
# Total GULP energy -693875.045470 kJ/mol
# GULP energy per Si atom -12390.625812 kJ/mol
# Density = 1.536283 g / cm^3
# Si number density = 15.397876 Si / 1000 Ang^3
#
#
#
# Elastic Constant Matrix: (Units=GPa)
#
#
# Indices 1 2 3 4 5 6 
#
# 1 116.8269 60.6453 33.1729 0.0000 0.0000 0.0000
# 2 60.6453 102.1098 16.9717 0.0000 0.0000 0.0000
# 3 33.1729 16.9717 49.7988 0.0000 0.0000 0.0000
# 4 0.0000 0.0000 0.0000 12.2946 0.0000 0.0000
# 5 0.0000 0.0000 0.0000 0.0000 16.7723 0.0000
# 6 0.0000 0.0000 0.0000 0.0000 0.0000 19.4415
#
#
#
# Elastic Compliance Matrix: (Units=1/GPa)
#
#
# Indices 1 2 3 4 5 6 
#
# 1 0.014398 -0.007375 -0.007077 0.000000 0.000000 0.000000
# 2 -0.007375 0.014159 0.000087 0.000000 0.000000 0.000000
# 3 -0.007077 0.000087 0.024766 0.000000 0.000000 0.000000
# 4 0.000000 0.000000 0.000000 0.081337 0.000000 0.000000
# 5 0.000000 0.000000 0.000000 0.000000 0.059622 0.000000
# 6 0.000000 0.000000 0.000000 0.000000 0.000000 0.051436
#
#
# Mechanical properties :
#
#
# Convention : Reuss Voigt Hill
#
# Bulk Modulus (GPa) = 40.66339 54.47948 47.57144
# Shear Modulus (GPa) = 17.69008 20.23139 18.96074
#
# Velocity S-wave (km/s) = 3.39317 3.62872 3.51292
# Velocity P-wave (km/s) = 6.46662 7.28112 6.88593
#
# Compressibility (1/GPa) = 0.02459214
#
# Stress axis : x y z
#
# Youngs Moduli (GPa) = 69.45640 70.62705 40.37846
#
# Poissons Ratio (x) = 0.52085 0.28578
# Poissons Ratio (y) = 0.51222 -0.00352
# Poissons Ratio (z) = 0.49157 -0.00615
#
# Static dielectric constant tensor:
#      x y z
#    x 3.369000 0.000000 0.000000 
#    y 0.000000 2.890400 0.000000 
#    z 0.000000 0.000000 2.884500 
# 
# 
# High freq. dielectric constant tensor:
#      x y z
#    x 1.590660 0.000000 0.000000 
#    y 0.000000 1.561710 0.000000 
#    z 0.000000 0.000000 1.574980 
# 
# From -- ./inp_files/47670.got.cif
#   From: 2010.06.25/outbox.cif.g09.slc.cpg/sg71_24_cif.got.tgz:47670.got - 2010.06.28 04:59:45.
