data_PCOD8287378
_publ_section_title
;
Structure prediction by ZEFSAII (Michael W. Deem and Ramdas Pophale) SiO2 
 PCOD8287378
Probable space group: I M M M
;
_chemical_formula_sum "Si O2"
_cell_formula_units_Z 104
_cell_length_a 25.433298
_cell_length_b 18.713667
_cell_length_c 13.866264
_cell_angle_alpha 90.000000
_cell_angle_beta 90.000000
_cell_angle_gamma 90.000000
_cell_volume 6599.652088
_symmetry_space_group_name_H-M "I M M M"
_symmetry_group_IT_number 71
_symmetry_cell_setting 'orthorhombic'
loop_
_space_group_symop_operation_xyz
x,y,z
-x,-y,z
x,-y,-z
-x,y,-z
-x,-y,-z
x,y,-z
-x,y,z
x,-y,z
1/2+x,1/2+y,1/2+z
1/2-x,1/2-y,1/2+z
1/2+x,1/2-y,1/2-z
1/2-x,1/2+y,1/2-z
1/2-x,1/2-y,1/2-z
1/2+x,1/2+y,1/2-z
1/2-x,1/2+y,1/2+z
1/2+x,1/2-y,1/2+z
loop_
_atom_site_type_symbol
_atom_site_label
_atom_site_fract_x
_atom_site_fract_y
_atom_site_fract_z
Si Si1 0.396405 0.158226 0.387894
Si Si2 0.500000 0.080056 0.385412
Si Si3 0.760430 0.915481 0.893720
Si Si4 0.693159 0.584557 0.105819
Si Si5 0.634204 0.415524 0.709095
Si Si6 0.700737 0.915468 0.707629
Si Si7 0.060213 0.188090 0.110582
O O1 0.386241 0.139221 0.500000
O O2 0.448167 0.119262 0.347370
O O3 0.348640 0.131077 0.323477
O O4 0.403973 0.242395 0.372938
O O5 0.500000 0.082707 0.500000
O O6 0.500000 0.000000 0.344922
O O7 0.817886 0.889879 0.859195
O O8 0.715150 0.893590 0.817805
O O9 0.762317 0.000000 0.897969
O O10 0.748197 0.883110 0.000000
O O11 0.693226 0.500000 0.101344
O O12 0.648378 0.608305 0.181494
O O13 0.750842 0.608369 0.140349
O O14 0.681383 0.617592 0.000000
O O15 0.624379 0.500000 0.701638
O O16 0.581372 0.375598 0.677434
O O17 0.688686 0.000000 0.697896
O O18 0.000000 0.204926 0.138906
O O19 0.063443 0.163147 0.000000
#
# Coordination Sequence:
#
# PCOD8287378 Si02
#       7
#    16   8  16  16  16  16  16
#     4  10  18  29  42  61  91 121 145 175 221 268
#     4   9  16  26  42  62  84 114 150 181 208 250
#     4   8  14  26  43  65  94 120 143 179 223 259
#     4   8  14  26  44  68  97 120 138 171 220 264
#     4   9  17  29  48  70  87 112 151 184 213 259
#     4   9  16  25  43  70  92 116 150 180 210 255
#     4  10  20  33  46  61  87 120 147 179 230 273
#
# _framework density 15.758406000000001
#
# number of rings (size 3 to 8) (size 9 to 14) (size 15 to 20)
#    0.000    3.000    0.769    3.231    0.000    2.769 
#    0.000    3.846    0.000    3.231    0.000    2.692 
#    0.000    3.077    0.000    0.000    0.000    0.000 
#
# Total GULP energy -644524.398365 kJ/mol
# GULP energy per Si atom -12394.699969 kJ/mol
# Density = 1.572254 g / cm^3
# Si number density = 15.758406 Si / 1000 Ang^3
#
#
#
# Elastic Constant Matrix: (Units=GPa)
#
#
# Indices 1 2 3 4 5 6 
#
# 1 81.1064 32.7231 49.0596 0.0000 0.0000 0.0000
# 2 32.7231 48.1046 29.7973 0.0000 0.0000 0.0000
# 3 49.0596 29.7973 117.1757 0.0000 0.0000 0.0000
# 4 0.0000 0.0000 0.0000 15.0302 0.0000 0.0000
# 5 0.0000 0.0000 0.0000 0.0000 25.1689 0.0000
# 6 0.0000 0.0000 0.0000 0.0000 0.0000 15.9127
#
#
#
# Elastic Compliance Matrix: (Units=1/GPa)
#
#
# Indices 1 2 3 4 5 6 
#
# 1 0.019821 -0.009903 -0.005781 0.000000 0.000000 0.000000
# 2 -0.009903 0.029622 -0.003387 0.000000 0.000000 0.000000
# 3 -0.005781 -0.003387 0.011816 0.000000 0.000000 0.000000
# 4 0.000000 0.000000 0.000000 0.066533 0.000000 0.000000
# 5 0.000000 0.000000 0.000000 0.000000 0.039732 0.000000
# 6 0.000000 0.000000 0.000000 0.000000 0.000000 0.062843
#
#
# Mechanical properties :
#
#
# Convention : Reuss Voigt Hill
#
# Bulk Modulus (GPa) = 43.25437 52.17185 47.71311
# Shear Modulus (GPa) = 18.10197 20.20948 19.15573
#
# Velocity S-wave (km/s) = 3.39295 3.58503 3.49031
# Velocity P-wave (km/s) = 6.54657 7.09336 6.82544
#
# Compressibility (1/GPa) = 0.02311905
#
# Stress axis : x y z
#
# Youngs Moduli (GPa) = 50.45035 33.75843 84.63320
#
# Poissons Ratio (x) = 0.33430 0.48924
# Poissons Ratio (y) = 0.49960 0.28663
# Poissons Ratio (z) = 0.29164 0.11433
#
# Static dielectric constant tensor:
#      x y z
#    x 2.887750 0.000000 0.000000 
#    y 0.000000 2.714320 0.000000 
#    z 0.000000 0.000000 3.395090 
# 
# 
# High freq. dielectric constant tensor:
#      x y z
#    x 1.595360 0.000000 0.000000 
#    y 0.000000 1.580000 0.000000 
#    z 0.000000 0.000000 1.590760 
# 
# From -- ./inp_files/40473.got.cif
#   From: 2010.06.25/outbox.cif.g09.slc.cpg/sg71_21_cif.got.tgz:40473.got - 2010.06.28 04:59:45.
