data_PCOD8287785
_publ_section_title
;
Structure prediction by ZEFSAII (Michael W. Deem and Ramdas Pophale) SiO2 
 PCOD8287785
Probable space group: I M M M
;
_chemical_formula_sum "Si O2"
_cell_formula_units_Z 104
_cell_length_a 12.560523
_cell_length_b 23.461637
_cell_length_c 20.948003
_cell_angle_alpha 90.000000
_cell_angle_beta 90.000000
_cell_angle_gamma 90.000000
_cell_volume 6173.176036
_symmetry_space_group_name_H-M "I M M M"
_symmetry_group_IT_number 71
_symmetry_cell_setting 'orthorhombic'
loop_
_space_group_symop_operation_xyz
x,y,z
-x,-y,z
x,-y,-z
-x,y,-z
-x,-y,-z
x,y,-z
-x,y,z
x,-y,z
1/2+x,1/2+y,1/2+z
1/2-x,1/2-y,1/2+z
1/2+x,1/2-y,1/2-z
1/2-x,1/2+y,1/2-z
1/2-x,1/2-y,1/2-z
1/2+x,1/2+y,1/2-z
1/2-x,1/2+y,1/2+z
1/2+x,1/2-y,1/2+z
loop_
_atom_site_type_symbol
_atom_site_label
_atom_site_fract_x
_atom_site_fract_y
_atom_site_fract_z
Si Si1 0.880479 0.792694 0.730400
Si Si2 0.674600 0.649199 0.638145
Si Si3 0.303158 0.149793 0.337216
Si Si4 0.120854 0.434185 0.929175
Si Si5 0.500000 0.568434 0.423205
Si Si6 0.379748 0.162490 0.793325
Si Si7 0.621862 0.754398 0.569966
O O1 0.879293 0.819362 0.801216
O O2 0.815179 0.831986 0.681933
O O3 0.839354 0.726998 0.724700
O O4 0.000000 0.792957 0.704695
O O5 0.605159 0.595831 0.611209
O O6 0.796637 0.632402 0.657614
O O7 0.687189 0.696643 0.583343
O O8 0.295331 0.094483 0.381589
O O9 0.372501 0.131817 0.275220
O O10 0.362058 0.198506 0.376732
O O11 0.146683 0.500000 0.929207
O O12 0.000000 0.421740 0.906694
O O13 0.136387 0.409056 0.000000
O O14 0.500000 0.500000 0.410966
O O15 0.500000 0.580606 0.500000
O O16 0.500000 0.159071 0.820774
O O17 0.655455 0.777523 0.500000
O O18 0.500000 0.735189 0.570977
#
# Coordination Sequence:
#
# PCOD8287785 Si02
#       7
#    16  16  16  16   8  16  16
#     4  10  18  31  50  73 107 141 166 205 260 315
#     4  11  18  34  53  76 106 137 170 213 265 315
#     4  11  18  29  48  75 100 133 173 207 252 311
#     4   9  18  32  48  67  96 132 165 206 258 305
#     4  11  24  40  60  82 106 140 180 228 276 313
#     4  10  19  31  51  79 111 142 168 202 258 324
#     4  11  19  26  44  75 103 127 163 217 265 304
#
# _framework density 16.847083000000001
#
# number of rings (size 3 to 8) (size 9 to 14) (size 15 to 20)
#    0.000    1.615    4.615    3.692    0.000    1.231 
#    0.000    3.077    0.000    6.000    0.000    2.154 
#    0.000    0.000    0.000    0.000    0.000    0.000 
#
# Total GULP energy -644385.208450 kJ/mol
# GULP energy per Si atom -12392.023239 kJ/mol
# Density = 1.680874 g / cm^3
# Si number density = 16.847083 Si / 1000 Ang^3
#
#
#
# Elastic Constant Matrix: (Units=GPa)
#
#
# Indices 1 2 3 4 5 6 
#
# 1 74.4376 25.7928 42.0547 0.0000 0.0000 0.0000
# 2 25.7928 64.5979 37.5146 0.0000 0.0000 0.0000
# 3 42.0547 37.5146 91.6163 0.0000 0.0000 0.0000
# 4 0.0000 0.0000 0.0000 35.3827 0.0000 0.0000
# 5 0.0000 0.0000 0.0000 0.0000 24.3864 0.0000
# 6 0.0000 0.0000 0.0000 0.0000 0.0000 20.4202
#
#
#
# Elastic Compliance Matrix: (Units=1/GPa)
#
#
# Indices 1 2 3 4 5 6 
#
# 1 0.018643 -0.003246 -0.007228 0.000000 0.000000 0.000000
# 2 -0.003246 0.020875 -0.007058 0.000000 0.000000 0.000000
# 3 -0.007228 -0.007058 0.017123 0.000000 0.000000 0.000000
# 4 0.000000 0.000000 0.000000 0.028262 0.000000 0.000000
# 5 0.000000 0.000000 0.000000 0.000000 0.041006 0.000000
# 6 0.000000 0.000000 0.000000 0.000000 0.000000 0.048971
#
#
# Mechanical properties :
#
#
# Convention : Reuss Voigt Hill
#
# Bulk Modulus (GPa) = 46.34651 49.04180 47.69416
# Shear Modulus (GPa) = 23.02687 24.39050 23.70869
#
# Velocity S-wave (km/s) = 3.70106 3.80907 3.75545
# Velocity P-wave (km/s) = 6.77005 6.96552 6.86848
#
# Compressibility (1/GPa) = 0.02157660
#
# Stress axis : x y z
#
# Youngs Moduli (GPa) = 53.64064 47.90366 58.40021
#
# Poissons Ratio (x) = 0.15549 0.42214
# Poissons Ratio (y) = 0.17411 0.41219
# Poissons Ratio (z) = 0.38774 0.33810
#
# Static dielectric constant tensor:
#      x y z
#    x 3.111410 0.000000 0.000000 
#    y 0.000000 3.007030 0.000000 
#    z 0.000000 0.000000 3.344530 
# 
# 
# High freq. dielectric constant tensor:
#      x y z
#    x 1.634760 0.000000 0.000000 
#    y 0.000000 1.623540 0.000000 
#    z 0.000000 0.000000 1.649760 
# 
# From -- ./inp_files/53461.got.cif
#   From: 2010.06.25/outbox.cif.g09.slc.cpg/sg71_27_cif.got.tgz:53461.got - 2010.06.28 04:59:45.
