data_PCOD8287739
_publ_section_title
;
Structure prediction by ZEFSAII (Michael W. Deem and Ramdas Pophale) SiO2 
 PCOD8287739
Probable space group: I M M M
;
_chemical_formula_sum "Si O2"
_cell_formula_units_Z 96
_cell_length_a 31.155001
_cell_length_b 12.346849
_cell_length_c 13.880965
_cell_angle_alpha 90.000000
_cell_angle_beta 90.000000
_cell_angle_gamma 90.000000
_cell_volume 5339.536573
_symmetry_space_group_name_H-M "I M M M"
_symmetry_group_IT_number 71
_symmetry_cell_setting 'orthorhombic'
loop_
_space_group_symop_operation_xyz
x,y,z
-x,-y,z
x,-y,-z
-x,y,-z
-x,-y,-z
x,y,-z
-x,y,z
x,-y,z
1/2+x,1/2+y,1/2+z
1/2-x,1/2-y,1/2+z
1/2+x,1/2-y,1/2-z
1/2-x,1/2+y,1/2-z
1/2-x,1/2-y,1/2-z
1/2+x,1/2+y,1/2-z
1/2-x,1/2+y,1/2+z
1/2+x,1/2-y,1/2+z
loop_
_atom_site_type_symbol
_atom_site_label
_atom_site_fract_x
_atom_site_fract_y
_atom_site_fract_z
Si Si1 0.388264 0.126429 0.723939
Si Si2 0.290184 0.120283 0.304170
Si Si3 0.774357 0.281676 0.391633
Si Si4 0.549444 0.276866 0.386384
Si Si5 0.369563 0.722996 0.107142
Si Si6 0.414575 0.500000 0.891221
Si Si7 0.451888 0.500000 0.695598
O O1 0.340585 0.144007 0.682203
O O2 0.422946 0.175787 0.651089
O O3 0.391995 0.188165 0.825481
O O4 0.398339 0.000000 0.739993
O O5 0.265354 0.202259 0.373099
O O6 0.275520 0.127338 0.191602
O O7 0.279272 0.000000 0.339305
O O8 0.769877 0.331592 0.500000
O O9 0.818376 0.215180 0.381554
O O10 0.552999 0.279347 0.500000
O O11 0.500000 0.261801 0.352560
O O12 0.569511 0.389759 0.345397
O O13 0.385436 0.603273 0.130156
O O14 0.382709 0.759088 0.000000
O O15 0.452207 0.500000 0.812184
O O16 0.433614 0.500000 0.000000
O O17 0.500000 0.500000 0.655961
#
# Coordination Sequence:
#
# PCOD8287739 Si02
#       7
#    16  16  16  16  16   8   8
#     4  10  20  35  54  75 103 138 174 212 257 305
#     4   9  19  33  49  73 101 133 171 211 252 298
#     4   9  18  32  50  72 100 134 171 209 250 297
#     4  10  21  37  57  79 102 132 173 216 257 305
#     4   9  18  32  52  79 105 134 171 210 253 308
#     4  10  18  30  53  84 110 131 165 209 258 314
#     4  10  19  35  58  81 105 136 167 209 264 310
#
# _framework density 17.979087
#
# number of rings (size 3 to 8) (size 9 to 14) (size 15 to 20)
#    0.000    2.500    1.667    0.250    1.167    3.500 
#    0.000    5.833    0.000    0.500    0.000    1.167 
#    0.000    0.000    0.000    0.000    0.000    0.000 
#
# Total GULP energy -595006.691695 kJ/mol
# GULP energy per Si atom -12395.972744 kJ/mol
# Density = 1.793817 g / cm^3
# Si number density = 17.979087 Si / 1000 Ang^3
#
#
#
# Elastic Constant Matrix: (Units=GPa)
#
#
# Indices 1 2 3 4 5 6 
#
# 1 62.7086 40.6045 33.3529 0.0000 0.0000 0.0000
# 2 40.6045 114.8490 34.5659 0.0000 0.0000 0.0000
# 3 33.3529 34.5659 89.9028 0.0000 0.0000 0.0000
# 4 0.0000 0.0000 0.0000 22.3006 0.0000 0.0000
# 5 0.0000 0.0000 0.0000 0.0000 27.1614 0.0000
# 6 0.0000 0.0000 0.0000 0.0000 0.0000 20.5357
#
#
#
# Elastic Compliance Matrix: (Units=1/GPa)
#
#
# Indices 1 2 3 4 5 6 
#
# 1 0.023400 -0.006401 -0.006220 0.000000 0.000000 0.000000
# 2 -0.006401 0.011597 -0.002084 0.000000 0.000000 0.000000
# 3 -0.006220 -0.002084 0.014232 0.000000 0.000000 0.000000
# 4 0.000000 0.000000 0.000000 0.044842 0.000000 0.000000
# 5 0.000000 0.000000 0.000000 0.000000 0.036817 0.000000
# 6 0.000000 0.000000 0.000000 0.000000 0.000000 0.048696
#
#
# Mechanical properties :
#
#
# Convention : Reuss Voigt Hill
#
# Bulk Modulus (GPa) = 50.45731 53.83413 52.14572
# Shear Modulus (GPa) = 23.19107 24.59534 23.89320
#
# Velocity S-wave (km/s) = 3.59540 3.70266 3.64942
# Velocity P-wave (km/s) = 6.73508 6.94890 6.84282
#
# Compressibility (1/GPa) = 0.01981873
#
# Stress axis : x y z
#
# Youngs Moduli (GPa) = 42.73567 86.22618 70.26391
#
# Poissons Ratio (x) = 0.55192 0.43704
# Poissons Ratio (y) = 0.27354 0.14645
# Poissons Ratio (z) = 0.26582 0.17972
#
# Static dielectric constant tensor:
#      x y z
#    x 3.206810 0.000000 0.000000 
#    y 0.000000 3.312150 0.000000 
#    z 0.000000 0.000000 3.385450 
# 
# 
# High freq. dielectric constant tensor:
#      x y z
#    x 1.680500 0.000000 0.000000 
#    y 0.000000 1.692390 0.000000 
#    z 0.000000 0.000000 1.701200 
# 
# From -- ./inp_files/40894.got.cif
#   From: 2010.06.25/outbox.cif.g09.slc.cpg/sg71_21_cif.got.tgz:40894.got - 2010.06.28 04:59:45.
