data_PCOD8287227
_publ_section_title
;
Structure prediction by ZEFSAII (Michael W. Deem and Ramdas Pophale) SiO2 
 PCOD8287227
Probable space group: I M M M
;
_chemical_formula_sum "Si O2"
_cell_formula_units_Z 88
_cell_length_a 13.973350
_cell_length_b 26.605268
_cell_length_c 14.373820
_cell_angle_alpha 90.000000
_cell_angle_beta 90.000000
_cell_angle_gamma 90.000000
_cell_volume 5343.679191
_symmetry_space_group_name_H-M "I M M M"
_symmetry_group_IT_number 71
_symmetry_cell_setting 'orthorhombic'
loop_
_space_group_symop_operation_xyz
x,y,z
-x,-y,z
x,-y,-z
-x,y,-z
-x,-y,-z
x,y,-z
-x,y,z
x,-y,z
1/2+x,1/2+y,1/2+z
1/2-x,1/2-y,1/2+z
1/2+x,1/2-y,1/2-z
1/2-x,1/2+y,1/2-z
1/2-x,1/2-y,1/2-z
1/2+x,1/2+y,1/2-z
1/2-x,1/2+y,1/2+z
1/2+x,1/2-y,1/2+z
loop_
_atom_site_type_symbol
_atom_site_label
_atom_site_fract_x
_atom_site_fract_y
_atom_site_fract_z
Si Si1 0.769895 0.799802 0.109241
Si Si2 0.892059 0.000000 0.890060
Si Si3 0.609278 0.797391 0.604248
Si Si4 0.610326 0.152277 0.211082
Si Si5 0.886332 0.555418 0.395403
Si Si6 0.391880 0.607916 0.389520
O O1 0.821999 0.748031 0.133811
O O2 0.667181 0.802788 0.159635
O O3 0.831369 0.846073 0.151538
O O4 0.754102 0.805048 0.000000
O O5 0.844346 0.053499 0.858867
O O6 0.000000 0.000000 0.851245
O O7 0.896198 0.000000 0.000000
O O8 0.633242 0.816920 0.500000
O O9 0.500000 0.777543 0.608308
O O10 0.624392 0.842891 0.677264
O O11 0.500000 0.159070 0.182821
O O12 0.649443 0.097961 0.176549
O O13 0.851537 0.569804 0.500000
O O14 0.844514 0.500000 0.368824
O O15 0.000000 0.552268 0.393382
O O16 0.394076 0.612661 0.500000
O O17 0.500000 0.611599 0.350835
#
# Coordination Sequence:
#
# PCOD8287227 Si02
#       6
#    16   8  16  16  16  16
#     4  10  18  27  41  63  87 113 143 173 210 258
#     4   7  10  18  32  50  75 107 138 167 199 233
#     4   9  18  32  48  63  80 106 144 188 227 259
#     4  10  19  30  44  62  86 115 146 179 214 255
#     4   8  14  26  43  61  84 114 141 164 196 243
#     4   8  13  22  36  54  79 110 141 172 204 241
#
# _framework density 16.468055
#
# number of rings (size 3 to 8) (size 9 to 14) (size 15 to 20)
#    0.000    3.182    0.000    3.273    0.000    3.273 
#    1.636    0.000    0.000    0.545    0.000    3.818 
#    0.000    0.000    0.000    0.000    0.000    5.091 
#
# Total GULP energy -545100.322283 kJ/mol
# GULP energy per Si atom -12388.643688 kJ/mol
# Density = 1.643057 g / cm^3
# Si number density = 16.468055 Si / 1000 Ang^3
#
#
#
# Elastic Constant Matrix: (Units=GPa)
#
#
# Indices 1 2 3 4 5 6 
#
# 1 38.3096 29.3451 28.0481 0.0001 0.0000 0.0000
# 2 29.3451 102.3885 63.1862 -0.0001 0.0000 0.0000
# 3 28.0481 63.1862 73.3869 -0.0012 0.0000 0.0000
# 4 0.0001 -0.0001 -0.0012 23.4395 0.0000 0.0000
# 5 0.0000 0.0000 0.0000 0.0000 14.4135 0.0000
# 6 0.0000 0.0000 0.0000 0.0000 0.0000 20.3389
#
#
#
# Elastic Compliance Matrix: (Units=1/GPa)
#
#
# Indices 1 2 3 4 5 6 
#
# 1 0.037000 -0.004006 -0.010692 -0.000001 0.000000 0.000000
# 2 -0.004006 0.021274 -0.016785 -0.000001 0.000000 0.000000
# 3 -0.010692 -0.016785 0.032165 0.000002 0.000000 0.000000
# 4 -0.000001 -0.000001 0.000002 0.042663 0.000000 0.000000
# 5 0.000000 0.000000 0.000000 0.000000 0.069379 0.000000
# 6 0.000000 0.000000 0.000000 0.000000 0.000000 0.049167
#
#
# Mechanical properties :
#
#
# Convention : Reuss Voigt Hill
#
# Bulk Modulus (GPa) = 36.40132 50.58264 43.49198
# Shear Modulus (GPa) = 15.44298 17.87209 16.65754
#
# Velocity S-wave (km/s) = 3.06560 3.29790 3.18387
# Velocity P-wave (km/s) = 5.88920 6.72933 6.32323
#
# Compressibility (1/GPa) = 0.02747153
#
# Stress axis : x y z
#
# Youngs Moduli (GPa) = 27.02722 47.00670 31.08967
#
# Poissons Ratio (x) = 0.18832 0.33241
# Poissons Ratio (y) = 0.10827 0.52185
# Poissons Ratio (z) = 0.28897 0.78903
#
# Static dielectric constant tensor:
#      x y z
#    x 3.177120 0.000000 0.000000 
#    y 0.000000 3.367230 0.000000 
#    z 0.000000 0.000000 2.789570 
# 
# 
# High freq. dielectric constant tensor:
#      x y z
#    x 1.639220 0.000000 0.000000 
#    y 0.000000 1.631820 0.000000 
#    z 0.000000 0.000000 1.576080 
# 
# From -- ./inp_files/34663.got.cif
#   From: 2010.06.25/outbox.cif.g09.slc.cpg/sg71_18_cif.got.tgz:34663.got - 2010.06.28 04:59:45.
