data_PCOD8287161
_publ_section_title
;
Structure prediction by ZEFSAII (Michael W. Deem and Ramdas Pophale) SiO2 
 PCOD8287161
Probable space group: I M M M
;
_chemical_formula_sum "Si O2"
_cell_formula_units_Z 88
_cell_length_a 9.105778
_cell_length_b 34.423013
_cell_length_c 22.758746
_cell_angle_alpha 90.000000
_cell_angle_beta 90.000000
_cell_angle_gamma 90.000000
_cell_volume 7133.690573
_symmetry_space_group_name_H-M "I M M M"
_symmetry_group_IT_number 71
_symmetry_cell_setting 'orthorhombic'
loop_
_space_group_symop_operation_xyz
x,y,z
-x,-y,z
x,-y,-z
-x,y,-z
-x,-y,-z
x,y,-z
-x,y,z
x,-y,z
1/2+x,1/2+y,1/2+z
1/2-x,1/2-y,1/2+z
1/2+x,1/2-y,1/2-z
1/2-x,1/2+y,1/2-z
1/2-x,1/2-y,1/2-z
1/2+x,1/2+y,1/2-z
1/2-x,1/2+y,1/2+z
1/2+x,1/2-y,1/2+z
loop_
_atom_site_type_symbol
_atom_site_label
_atom_site_fract_x
_atom_site_fract_y
_atom_site_fract_z
Si Si1 0.828642 0.732140 0.567327
Si Si2 0.665923 0.308817 0.264951
Si Si3 0.172652 0.084107 0.930784
Si Si4 0.665515 0.771741 0.666248
Si Si5 0.827486 0.653702 0.632973
Si Si6 0.830165 0.000000 0.931596
O O1 0.779516 0.735227 0.500000
O O2 0.741555 0.764918 0.603371
O O3 0.788153 0.689200 0.589795
O O4 0.000000 0.740318 0.575924
O O5 0.500000 0.323239 0.254425
O O6 0.667529 0.267876 0.297585
O O7 0.746245 0.304624 0.202151
O O8 0.751648 0.340374 0.303881
O O9 0.267324 0.114835 0.895630
O O10 0.230469 0.041439 0.907800
O O11 0.000000 0.089800 0.917696
O O12 0.202409 0.088889 0.000000
O O13 0.500000 0.786421 0.656150
O O14 0.000000 0.650058 0.643188
O O15 0.000000 0.000000 0.917509
O O16 0.800954 0.000000 0.000000
#
# Coordination Sequence:
#
# PCOD8287161 Si02
#       6
#    16  16  16  16  16   8
#     4   9  17  27  36  47  66  91 114 136 167 206
#     4   9  16  26  38  50  64  84 109 134 164 203
#     4   9  16  26  39  52  66  86 112 140 171 208
#     4   9  16  25  37  51  65  82 106 137 169 199
#     4  10  18  26  36  51  70  88 108 139 176 207
#     4   7  12  24  39  51  63  83 111 139 166 201
#
# _framework density 12.33583
#
# number of rings (size 3 to 8) (size 9 to 14) (size 15 to 20)
#    0.000    3.000    0.000    3.273    0.000    6.545 
#    0.000    0.455    0.000    1.636    0.000    0.000 
#    0.000    0.000    0.000    0.000    0.000    0.000 
#
# Total GULP energy -545305.373892 kJ/mol
# GULP energy per Si atom -12393.303952 kJ/mol
# Density = 1.230775 g / cm^3
# Si number density = 12.335830 Si / 1000 Ang^3
#
#
#
# Elastic Constant Matrix: (Units=GPa)
#
#
# Indices 1 2 3 4 5 6 
#
# 1 76.8043 38.5603 45.4430 0.0000 0.0000 0.0000
# 2 38.5603 56.8095 43.9493 0.0000 0.0000 0.0000
# 3 45.4430 43.9493 77.4641 0.0003 0.0000 0.0000
# 4 0.0000 0.0000 0.0003 15.1863 0.0000 0.0000
# 5 0.0000 0.0000 0.0000 0.0000 20.5918 0.0000
# 6 0.0000 0.0000 0.0000 0.0000 0.0000 15.4683
#
#
#
# Elastic Compliance Matrix: (Units=1/GPa)
#
#
# Indices 1 2 3 4 5 6 
#
# 1 0.022211 -0.008904 -0.007978 0.000000 0.000000 0.000000
# 2 -0.008904 0.034942 -0.014601 0.000000 0.000000 0.000000
# 3 -0.007978 -0.014601 0.025873 0.000000 0.000000 0.000000
# 4 0.000000 0.000000 0.000000 0.065849 0.000000 0.000000
# 5 0.000000 0.000000 0.000000 0.000000 0.048563 0.000000
# 6 0.000000 0.000000 0.000000 0.000000 0.000000 0.064648
#
#
# Mechanical properties :
#
#
# Convention : Reuss Voigt Hill
#
# Bulk Modulus (GPa) = 49.84984 51.88700 50.86842
# Shear Modulus (GPa) = 15.07208 15.79095 15.43152
#
# Velocity S-wave (km/s) = 3.49924 3.58171 3.54072
# Velocity P-wave (km/s) = 7.53821 7.69794 7.61849
#
# Compressibility (1/GPa) = 0.02006024
#
# Stress axis : x y z
#
# Youngs Moduli (GPa) = 45.02328 28.61866 38.64999
#
# Poissons Ratio (x) = 0.25482 0.30834
# Poissons Ratio (y) = 0.40089 0.56433
# Poissons Ratio (z) = 0.35919 0.41786
#
# Static dielectric constant tensor:
#      x y z
#    x 2.586740 0.000000 0.000000 
#    y 0.000000 2.425980 0.000000 
#    z 0.000000 0.000000 2.443150 
# 
# 
# High freq. dielectric constant tensor:
#      x y z
#    x 1.476160 0.000000 0.000000 
#    y 0.000000 1.431270 0.000000 
#    z 0.000000 0.000000 1.444740 
# 
# From -- ./inp_files/13500.got.cif
#   From: 2010.06.25/outbox.cif.g09.slc.cpg/sg71_7_cif.got.tgz:13500.got - 2010.06.28 04:59:45.
