data_PCOD8287852
_publ_section_title
;
Structure prediction by ZEFSAII (Michael W. Deem and Ramdas Pophale) SiO2 
 PCOD8287852
Probable space group: I M M M
;
_chemical_formula_sum "Si O2"
_cell_formula_units_Z 96
_cell_length_a 9.486837
_cell_length_b 28.312319
_cell_length_c 20.244778
_cell_angle_alpha 90.000000
_cell_angle_beta 90.000000
_cell_angle_gamma 90.000000
_cell_volume 5437.633098
_symmetry_space_group_name_H-M "I M M M"
_symmetry_group_IT_number 71
_symmetry_cell_setting 'orthorhombic'
loop_
_space_group_symop_operation_xyz
x,y,z
-x,-y,z
x,-y,-z
-x,y,-z
-x,-y,-z
x,y,-z
-x,y,z
x,-y,z
1/2+x,1/2+y,1/2+z
1/2-x,1/2-y,1/2+z
1/2+x,1/2-y,1/2-z
1/2-x,1/2+y,1/2-z
1/2-x,1/2-y,1/2-z
1/2+x,1/2+y,1/2-z
1/2-x,1/2+y,1/2+z
1/2+x,1/2-y,1/2+z
loop_
_atom_site_type_symbol
_atom_site_label
_atom_site_fract_x
_atom_site_fract_y
_atom_site_fract_z
Si Si1 0.846401 0.444901 0.428420
Si Si2 0.341829 0.693803 0.711216
Si Si3 0.165186 0.863407 0.576948
Si Si4 0.663961 0.207449 0.661216
Si Si5 0.332640 0.446757 0.828241
Si Si6 0.159620 0.088738 0.812345
O O1 0.795630 0.424686 0.500000
O O2 0.863635 0.500000 0.435156
O O3 0.736552 0.435686 0.371748
O O4 0.000000 0.422876 0.410747
O O5 0.500000 0.699258 0.742026
O O6 0.315824 0.735584 0.657832
O O7 0.225983 0.692374 0.768338
O O8 0.328797 0.644414 0.674067
O O9 0.197180 0.870592 0.500000
O O10 0.251278 0.817868 0.602442
O O11 0.218220 0.910790 0.614498
O O12 0.000000 0.854312 0.590247
O O13 0.500000 0.192964 0.656888
O O14 0.500000 0.447634 0.827844
O O15 0.274259 0.500000 0.841231
O O16 0.274910 0.427015 0.758258
O O17 0.000000 0.070891 0.814121
#
# Coordination Sequence:
#
# PCOD8287852 Si02
#       6
#    16  16  16  16  16  16
#     4   9  19  35  51  69 100 139 172 205 250 305
#     4   9  18  33  53  77 105 132 162 206 258 308
#     4  10  20  35  54  74 104 145 181 218 264 312
#     4  10  19  32  53  78 102 132 169 211 256 304
#     4   9  17  30  50  77 105 132 170 221 267 304
#     4  10  18  31  53  78 104 132 166 213 259 303
#
# _framework density 17.654741000000001
#
# number of rings (size 3 to 8) (size 9 to 14) (size 15 to 20)
#    0.000    2.500    1.667    1.500    0.000    3.333 
#    0.000    3.333    0.000    5.500    0.000    1.167 
#    0.000    0.000    0.000    0.000    0.000    0.000 
#
# Total GULP energy -594877.362697 kJ/mol
# GULP energy per Si atom -12393.278390 kJ/mol
# Density = 1.761456 g / cm^3
# Si number density = 17.654741 Si / 1000 Ang^3
#
#
#
# Elastic Constant Matrix: (Units=GPa)
#
#
# Indices 1 2 3 4 5 6 
#
# 1 63.8105 34.3984 49.6123 0.0000 0.0000 0.0000
# 2 34.3984 96.8507 55.4299 0.0000 0.0000 0.0000
# 3 49.6123 55.4299 132.0674 0.0001 0.0000 0.0000
# 4 0.0000 0.0000 0.0001 27.2110 0.0000 0.0000
# 5 0.0000 0.0000 0.0000 0.0000 22.6468 0.0000
# 6 0.0000 0.0000 0.0000 0.0000 0.0000 23.7197
#
#
#
# Elastic Compliance Matrix: (Units=1/GPa)
#
#
# Indices 1 2 3 4 5 6 
#
# 1 0.023436 -0.004324 -0.006989 0.000000 0.000000 0.000000
# 2 -0.004324 0.014387 -0.004414 0.000000 0.000000 0.000000
# 3 -0.006989 -0.004414 0.012050 0.000000 0.000000 0.000000
# 4 0.000000 0.000000 0.000000 0.036750 0.000000 0.000000
# 5 0.000000 0.000000 0.000000 0.000000 0.044156 0.000000
# 6 0.000000 0.000000 0.000000 0.000000 0.000000 0.042159
#
#
# Mechanical properties :
#
#
# Convention : Reuss Voigt Hill
#
# Bulk Modulus (GPa) = 54.29123 63.51221 58.90172
# Shear Modulus (GPa) = 23.74921 24.93469 24.34195
#
# Velocity S-wave (km/s) = 3.67168 3.76220 3.71722
# Velocity P-wave (km/s) = 6.98523 7.41113 7.20133
#
# Compressibility (1/GPa) = 0.01841918
#
# Stress axis : x y z
#
# Youngs Moduli (GPa) = 42.66872 69.50636 82.98625
#
# Poissons Ratio (x) = 0.30053 0.58002
# Poissons Ratio (y) = 0.18449 0.36632
# Poissons Ratio (z) = 0.29823 0.30681
#
# Static dielectric constant tensor:
#      x y z
#    x 3.225520 0.000000 0.000000 
#    y 0.000000 3.501550 0.000000 
#    z 0.000000 0.000000 3.173080 
# 
# 
# High freq. dielectric constant tensor:
#      x y z
#    x 1.665460 0.000000 0.000000 
#    y 0.000000 1.686430 0.000000 
#    z 0.000000 0.000000 1.667180 
# 
# From -- ./inp_files/10907.got.cif
#   From: 2010.06.25/outbox.cif.g09.slc.cpg/sg71_6_cif.got.tgz:10907.got - 2010.06.28 04:59:45.
