data_PCOD8287548
_publ_section_title
;
Structure prediction by ZEFSAII (Michael W. Deem and Ramdas Pophale) SiO2 
 PCOD8287548
Probable space group: I M M M
;
_chemical_formula_sum "Si O2"
_cell_formula_units_Z 112
_cell_length_a 12.714328
_cell_length_b 18.622503
_cell_length_c 31.377440
_cell_angle_alpha 90.000000
_cell_angle_beta 90.000000
_cell_angle_gamma 90.000000
_cell_volume 7429.318405
_symmetry_space_group_name_H-M "I M M M"
_symmetry_group_IT_number 71
_symmetry_cell_setting 'orthorhombic'
loop_
_space_group_symop_operation_xyz
x,y,z
-x,-y,z
x,-y,-z
-x,y,-z
-x,-y,-z
x,y,-z
-x,y,z
x,-y,z
1/2+x,1/2+y,1/2+z
1/2-x,1/2-y,1/2+z
1/2+x,1/2-y,1/2-z
1/2-x,1/2+y,1/2-z
1/2-x,1/2-y,1/2-z
1/2+x,1/2+y,1/2-z
1/2-x,1/2+y,1/2+z
1/2+x,1/2-y,1/2+z
loop_
_atom_site_type_symbol
_atom_site_label
_atom_site_fract_x
_atom_site_fract_y
_atom_site_fract_z
Si Si1 0.117188 0.000000 0.666404
Si Si2 0.178018 0.916448 0.451989
Si Si3 0.612498 0.083567 0.410340
Si Si4 0.875652 0.418301 0.817159
Si Si5 0.122856 0.250107 0.299595
Si Si6 0.881210 0.143738 0.368022
Si Si7 0.618508 0.500000 0.266347
Si Si8 0.764212 0.858669 0.243154
O O1 0.178311 0.071920 0.650165
O O2 0.108009 0.000000 0.716176
O O3 0.000000 0.000000 0.645669
O O4 0.143096 0.897823 0.500000
O O5 0.302543 0.902518 0.447132
O O6 0.122487 0.860607 0.419584
O O7 0.149733 0.000000 0.441460
O O8 0.500000 0.114934 0.426132
O O9 0.644684 0.117231 0.364350
O O10 0.598797 0.000000 0.400781
O O11 0.832142 0.500000 0.814263
O O12 0.815720 0.373335 0.781666
O O13 0.000000 0.416447 0.807569
O O14 0.159883 0.216241 0.345575
O O15 0.143813 0.192578 0.261667
O O16 0.196106 0.319682 0.293510
O O17 0.000000 0.271982 0.299050
O O18 0.000000 0.138578 0.351422
O O19 0.500000 0.500000 0.286417
O O20 0.683421 0.428483 0.279139
#
# Coordination Sequence:
#
# PCOD8287548 Si02
#       8
#     8  16  16  16  16  16   8  16
#     4   9  16  26  43  61  76 105 147 181 211 249
#     4  10  19  27  39  60  81 104 140 187 230 261
#     4   8  15  25  36  51  73 102 133 166 207 254
#     4   9  16  26  41  62  83 106 142 182 221 261
#     4  10  21  32  42  60  85 116 151 180 216 265
#     4  10  18  30  44  58  81 112 144 182 220 259
#     4  11  20  30  47  70  87 109 150 188 222 264
#     4  11  19  29  45  63  86 113 142 187 227 251
#
# _framework density 15.075407
#
# number of rings (size 3 to 8) (size 9 to 14) (size 15 to 20)
#    0.000    2.286    2.857    2.571    0.000    0.571 
#    0.000    2.143    0.000    0.857    0.000    0.000 
#    0.000    0.000    0.000    0.643    0.000    5.857 
#
# Total GULP energy -693904.655333 kJ/mol
# GULP energy per Si atom -12391.154560 kJ/mol
# Density = 1.504109 g / cm^3
# Si number density = 15.075407 Si / 1000 Ang^3
#
#
#
# Elastic Constant Matrix: (Units=GPa)
#
#
# Indices 1 2 3 4 5 6 
#
# 1 53.3371 29.5583 17.5871 0.0000 0.0000 0.0000
# 2 29.5583 71.4292 31.8791 0.0000 0.0000 0.0000
# 3 17.5871 31.8791 69.5464 0.0000 0.0000 0.0000
# 4 0.0000 0.0000 0.0000 21.3358 0.0000 0.0000
# 5 0.0000 0.0000 0.0000 0.0000 15.0506 0.0000
# 6 0.0000 0.0000 0.0000 0.0000 0.0000 12.7168
#
#
#
# Elastic Compliance Matrix: (Units=1/GPa)
#
#
# Indices 1 2 3 4 5 6 
#
# 1 0.024536 -0.009283 -0.001949 0.000000 0.000000 0.000000
# 2 -0.009283 0.021113 -0.007330 0.000000 0.000000 0.000000
# 3 -0.001949 -0.007330 0.018232 0.000000 0.000000 0.000000
# 4 0.000000 0.000000 0.000000 0.046870 0.000000 0.000000
# 5 0.000000 0.000000 0.000000 0.000000 0.066443 0.000000
# 6 0.000000 0.000000 0.000000 0.000000 0.000000 0.078636
#
#
# Mechanical properties :
#
#
# Convention : Reuss Voigt Hill
#
# Bulk Modulus (GPa) = 37.37623 39.15129 38.26376
# Shear Modulus (GPa) = 16.56323 17.50653 17.03488
#
# Velocity S-wave (km/s) = 3.31825 3.41143 3.36516
# Velocity P-wave (km/s) = 6.28711 6.44545 6.36677
#
# Compressibility (1/GPa) = 0.02675497
#
# Stress axis : x y z
#
# Youngs Moduli (GPa) = 40.75626 47.36430 54.84875
#
# Poissons Ratio (x) = 0.43970 0.10692
# Poissons Ratio (y) = 0.37835 0.40206
# Poissons Ratio (z) = 0.07945 0.34719
#
# Static dielectric constant tensor:
#      x y z
#    x 3.260510 0.000000 0.000000 
#    y 0.000000 2.724130 0.000000 
#    z 0.000000 0.000000 2.643420 
# 
# 
# High freq. dielectric constant tensor:
#      x y z
#    x 1.608730 0.000000 0.000000 
#    y 0.000000 1.523630 0.000000 
#    z 0.000000 0.000000 1.538030 
# 
# From -- ./inp_files/70195.got.cif
#   From: 2010.06.25/outbox.cif.g09.slc.cpg/sg71_36_cif.got.tgz:70195.got - 2010.06.28 04:59:45.
