data_PCOD8287815
_publ_section_title
;
Structure prediction by ZEFSAII (Michael W. Deem and Ramdas Pophale) SiO2 
 PCOD8287815
Probable space group: I M M M
;
_chemical_formula_sum "Si O2"
_cell_formula_units_Z 104
_cell_length_a 24.131072
_cell_length_b 27.985929
_cell_length_c 9.131253
_cell_angle_alpha 90.000000
_cell_angle_beta 90.000000
_cell_angle_gamma 90.000000
_cell_volume 6166.613359
_symmetry_space_group_name_H-M "I M M M"
_symmetry_group_IT_number 71
_symmetry_cell_setting 'orthorhombic'
loop_
_space_group_symop_operation_xyz
x,y,z
-x,-y,z
x,-y,-z
-x,y,-z
-x,-y,-z
x,y,-z
-x,y,z
x,-y,z
1/2+x,1/2+y,1/2+z
1/2-x,1/2-y,1/2+z
1/2+x,1/2-y,1/2-z
1/2-x,1/2+y,1/2-z
1/2-x,1/2-y,1/2-z
1/2+x,1/2+y,1/2-z
1/2-x,1/2+y,1/2+z
1/2+x,1/2-y,1/2+z
loop_
_atom_site_type_symbol
_atom_site_label
_atom_site_fract_x
_atom_site_fract_y
_atom_site_fract_z
Si Si1 0.565303 0.500000 0.330416
Si Si2 0.935527 0.627689 0.670859
Si Si3 0.565905 0.221459 0.665298
Si Si4 0.435872 0.685168 0.170531
Si Si5 0.878369 0.088158 0.672833
Si Si6 0.737484 0.552652 0.827190
Si Si7 0.140828 0.556536 0.832037
O O1 0.500000 0.500000 0.308367
O O2 0.582217 0.500000 0.500000
O O3 0.588890 0.452873 0.255469
O O4 0.924663 0.633800 0.500000
O O5 0.911861 0.675014 0.749771
O O6 0.903963 0.581514 0.729803
O O7 0.000000 0.620135 0.706169
O O8 0.588433 0.219911 0.500000
O O9 0.500000 0.221838 0.671025
O O10 0.588155 0.269404 0.742489
O O11 0.500000 0.675615 0.207690
O O12 0.401618 0.639178 0.222809
O O13 0.427500 0.695723 0.000000
O O14 0.886731 0.079920 0.500000
O O15 0.813222 0.087152 0.717430
O O16 0.725712 0.500000 0.759844
O O17 0.797556 0.572018 0.775490
O O18 0.741233 0.547161 0.000000
O O19 0.133692 0.500000 0.815351
O O20 0.131034 0.572240 0.000000
#
# Coordination Sequence:
#
# PCOD8287815 Si02
#       7
#     8  16  16  16  16  16  16
#     4  11  23  33  41  63 101 135 162 203 256 297
#     4  10  20  33  50  73 101 129 156 192 237 282
#     4   9  17  30  49  70  93 125 161 194 234 288
#     4   9  17  28  44  70  99 124 156 199 244 288
#     4  10  18  31  52  71  91 126 169 207 242 291
#     4   8  14  28  50  72  92 120 163 207 240 276
#     4   9  18  32  51  74 100 129 160 195 235 283
#
# _framework density 16.865010000000002
#
# number of rings (size 3 to 8) (size 9 to 14) (size 15 to 20)
#    0.000    2.692    0.769    2.538    0.000    5.231 
#    0.000    3.846    0.000    0.923    0.000    0.000 
#    0.000    0.000    0.000    0.000    0.000    0.000 
#
# Total GULP energy -644673.726818 kJ/mol
# GULP energy per Si atom -12397.571670 kJ/mol
# Density = 1.682662 g / cm^3
# Si number density = 16.865010 Si / 1000 Ang^3
#
#
#
# Elastic Constant Matrix: (Units=GPa)
#
#
# Indices 1 2 3 4 5 6 
#
# 1 80.6629 58.4660 43.2453 0.0000 0.0000 0.0000
# 2 58.4660 108.4530 52.9558 0.0000 0.0000 0.0000
# 3 43.2453 52.9558 73.5496 0.0000 0.0000 0.0000
# 4 0.0000 0.0000 0.0000 28.3748 0.0000 0.0000
# 5 0.0000 0.0000 0.0000 0.0000 15.1770 0.0000
# 6 0.0000 0.0000 0.0000 0.0000 0.0000 5.6787
#
#
#
# Elastic Compliance Matrix: (Units=1/GPa)
#
#
# Indices 1 2 3 4 5 6 
#
# 1 0.022414 -0.008710 -0.006907 0.000000 0.000000 0.000000
# 2 -0.008710 0.017605 -0.007554 0.000000 0.000000 0.000000
# 3 -0.006907 -0.007554 0.023096 0.000000 0.000000 0.000000
# 4 0.000000 0.000000 0.000000 0.035243 0.000000 0.000000
# 5 0.000000 0.000000 0.000000 0.000000 0.065889 0.000000
# 6 0.000000 0.000000 0.000000 0.000000 0.000000 0.176096
#
#
# Mechanical properties :
#
#
# Convention : Reuss Voigt Hill
#
# Bulk Modulus (GPa) = 59.62396 63.55553 61.58975
# Shear Modulus (GPa) = 12.74610 17.04598 14.89604
#
# Velocity S-wave (km/s) = 2.75211 3.18265 2.97518
# Velocity P-wave (km/s) = 6.74754 7.16047 6.95707
#
# Compressibility (1/GPa) = 0.01677178
#
# Stress axis : x y z
#
# Youngs Moduli (GPa) = 44.61511 56.80283 43.29672
#
# Poissons Ratio (x) = 0.49478 0.29906
# Poissons Ratio (y) = 0.38862 0.32706
# Poissons Ratio (z) = 0.30817 0.42909
#
# Static dielectric constant tensor:
#      x y z
#    x 3.188940 0.000000 0.000000 
#    y 0.000000 3.228020 0.000000 
#    z 0.000000 0.000000 3.073120 
# 
# 
# High freq. dielectric constant tensor:
#      x y z
#    x 1.631840 0.000000 0.000000 
#    y 0.000000 1.647670 0.000000 
#    z 0.000000 0.000000 1.638970 
# 
# From -- ./inp_files/15529.got.cif
#   From: 2010.06.25/outbox.cif.g09.slc.cpg/sg71_8_cif.got.tgz:15529.got - 2010.06.28 04:59:45.
