data_PCOD8287588
_publ_section_title
;
Structure prediction by ZEFSAII (Michael W. Deem and Ramdas Pophale) SiO2 
 PCOD8287588
Probable space group: I M M M
;
_chemical_formula_sum "Si O2"
_cell_formula_units_Z 112
_cell_length_a 23.053248
_cell_length_b 26.503317
_cell_length_c 10.323471
_cell_angle_alpha 90.000000
_cell_angle_beta 90.000000
_cell_angle_gamma 90.000000
_cell_volume 6307.512147
_symmetry_space_group_name_H-M "I M M M"
_symmetry_group_IT_number 71
_symmetry_cell_setting 'orthorhombic'
loop_
_space_group_symop_operation_xyz
x,y,z
-x,-y,z
x,-y,-z
-x,y,-z
-x,-y,-z
x,y,-z
-x,y,z
x,-y,z
1/2+x,1/2+y,1/2+z
1/2-x,1/2-y,1/2+z
1/2+x,1/2-y,1/2-z
1/2-x,1/2+y,1/2-z
1/2-x,1/2-y,1/2-z
1/2+x,1/2+y,1/2-z
1/2-x,1/2+y,1/2+z
1/2+x,1/2-y,1/2+z
loop_
_atom_site_type_symbol
_atom_site_label
_atom_site_fract_x
_atom_site_fract_y
_atom_site_fract_z
Si Si1 0.753937 0.374042 0.766892
Si Si2 0.286800 0.278588 0.355358
Si Si3 0.932444 0.363470 0.349673
Si Si4 0.935260 0.059847 0.144900
Si Si5 0.843755 0.445168 0.649805
Si Si6 0.844244 0.942017 0.643815
Si Si7 0.637832 0.809934 0.357559
O O1 0.711972 0.337503 0.682531
O O2 0.785855 0.413465 0.673484
O O3 0.713034 0.407168 0.859211
O O4 0.802347 0.341875 0.843477
O O5 0.259683 0.273575 0.500000
O O6 0.250000 0.250000 0.250000
O O7 0.349075 0.250337 0.352760
O O8 0.918448 0.350005 0.500000
O O9 0.900879 0.414790 0.304319
O O10 0.908160 0.319572 0.256715
O O11 0.000000 0.370699 0.326515
O O12 0.890162 0.080090 0.252136
O O13 0.000000 0.080893 0.174623
O O14 0.937050 0.000000 0.152264
O O15 0.915811 0.076931 0.000000
O O16 0.849043 0.455136 0.500000
O O17 0.842069 0.500000 0.720738
O O18 0.871885 0.939308 0.500000
O O19 0.827353 0.000000 0.677534
O O20 0.612063 0.823445 0.500000
#
# Coordination Sequence:
#
# PCOD8287588 Si02
#       7
#    16  16  16  16  16  16  16
#     4  10  18  30  47  69 100 133 162 195 239 292
#     4   9  18  31  49  72  96 122 155 194 239 291
#     4   9  18  32  50  72  97 127 165 208 253 299
#     4   8  15  29  47  65  86 115 153 195 235 273
#     4   9  17  28  44  69 100 133 168 205 244 287
#     4  10  20  31  45  69  99 130 163 197 235 282
#     4   9  18  32  50  72  96 123 157 199 246 294
#
# _framework density 17.756603999999999
#
# number of rings (size 3 to 8) (size 9 to 14) (size 15 to 20)
#    0.000    2.857    0.000    1.714    0.000    6.000 
#    0.000    4.286    0.000    4.714    0.000    4.000 
#    0.000    0.000    0.000    0.000    0.000    0.000 
#
# Total GULP energy -693743.876357 kJ/mol
# GULP energy per Si atom -12388.283506 kJ/mol
# Density = 1.771619 g / cm^3
# Si number density = 17.756604 Si / 1000 Ang^3
#
#
#
# Elastic Constant Matrix: (Units=GPa)
#
#
# Indices 1 2 3 4 5 6 
#
# 1 85.0771 41.5449 41.3983 0.0000 0.0000 0.0000
# 2 41.5449 90.2977 40.3618 0.0000 0.0000 0.0000
# 3 41.3983 40.3618 99.3095 0.0000 0.0000 0.0000
# 4 0.0000 0.0000 0.0000 17.9264 0.0000 0.0000
# 5 0.0000 0.0000 0.0000 0.0000 25.6529 0.0000
# 6 0.0000 0.0000 0.0000 0.0000 0.0000 15.8801
#
#
#
# Elastic Compliance Matrix: (Units=1/GPa)
#
#
# Indices 1 2 3 4 5 6 
#
# 1 0.016793 -0.005618 -0.004717 0.000000 0.000000 0.000000
# 2 -0.005618 0.015412 -0.003922 0.000000 0.000000 0.000000
# 3 -0.004717 -0.003922 0.013630 0.000000 0.000000 0.000000
# 4 0.000000 0.000000 0.000000 0.055784 0.000000 0.000000
# 5 0.000000 0.000000 0.000000 0.000000 0.038982 0.000000
# 6 0.000000 0.000000 0.000000 0.000000 0.000000 0.062972
#
#
# Mechanical properties :
#
#
# Convention : Reuss Voigt Hill
#
# Bulk Modulus (GPa) = 57.73292 57.92159 57.82726
# Shear Modulus (GPa) = 21.02081 21.98382 21.50232
#
# Velocity S-wave (km/s) = 3.44442 3.52243 3.48364
# Velocity P-wave (km/s) = 6.95721 7.01669 6.98701
#
# Compressibility (1/GPa) = 0.01732114
#
# Stress axis : x y z
#
# Youngs Moduli (GPa) = 59.55032 64.88357 73.36794
#
# Poissons Ratio (x) = 0.36449 0.34608
# Poissons Ratio (y) = 0.33453 0.28776
# Poissons Ratio (z) = 0.28090 0.25448
#
# Static dielectric constant tensor:
#      x y z
#    x 3.155430 0.000000 0.000000 
#    y 0.000000 3.673270 0.000000 
#    z 0.000000 0.000000 3.365600 
# 
# 
# High freq. dielectric constant tensor:
#      x y z
#    x 1.660560 0.000000 0.000000 
#    y 0.000000 1.673310 0.000000 
#    z 0.000000 0.000000 1.689280 
# 
# From -- ./inp_files/26480.got.cif
#   From: 2010.06.25/outbox.cif.g09.slc.cpg/sg71_14_cif.got.tgz:26480.got - 2010.06.28 04:59:45.
