data_PCOD8287875
_publ_section_title
;
Structure prediction by ZEFSAII (Michael W. Deem and Ramdas Pophale) SiO2 
 PCOD8287875
Probable space group: I M M M
;
_chemical_formula_sum "Si O2"
_cell_formula_units_Z 120
_cell_length_a 13.971449
_cell_length_b 32.415483
_cell_length_c 13.601856
_cell_angle_alpha 90.000000
_cell_angle_beta 90.000000
_cell_angle_gamma 90.000000
_cell_volume 6160.161805
_symmetry_space_group_name_H-M "I M M M"
_symmetry_group_IT_number 71
_symmetry_cell_setting 'orthorhombic'
loop_
_space_group_symop_operation_xyz
x,y,z
-x,-y,z
x,-y,-z
-x,y,-z
-x,-y,-z
x,y,-z
-x,y,z
x,-y,z
1/2+x,1/2+y,1/2+z
1/2-x,1/2-y,1/2+z
1/2+x,1/2-y,1/2-z
1/2-x,1/2+y,1/2-z
1/2-x,1/2-y,1/2-z
1/2+x,1/2+y,1/2-z
1/2-x,1/2+y,1/2+z
1/2+x,1/2-y,1/2+z
loop_
_atom_site_type_symbol
_atom_site_label
_atom_site_fract_x
_atom_site_fract_y
_atom_site_fract_z
Si Si1 0.613818 0.000000 0.612206
Si Si2 0.706724 0.841821 0.385213
Si Si3 0.607885 0.670590 0.383126
Si Si4 0.892406 0.261792 0.116749
Si Si5 0.387482 0.916651 0.279440
Si Si6 0.390682 0.546244 0.271027
Si Si7 0.258045 0.597234 0.385763
Si Si8 0.892403 0.113451 0.387341
O O1 0.649608 0.040917 0.670025
O O2 0.500000 0.000000 0.608456
O O3 0.653786 0.000000 0.500000
O O4 0.687101 0.840093 0.500000
O O5 0.676620 0.797455 0.339274
O O6 0.639399 0.878331 0.347496
O O7 0.818995 0.849606 0.362103
O O8 0.607374 0.668752 0.500000
O O9 0.500000 0.659530 0.345453
O O10 0.638132 0.716220 0.345323
O O11 0.685726 0.637736 0.343904
O O12 0.000000 0.271605 0.152138
O O13 0.887891 0.260992 0.000000
O O14 0.500000 0.918137 0.261896
O O15 0.339608 0.909794 0.173119
O O16 0.500000 0.551478 0.302762
O O17 0.366555 0.500000 0.239072
O O18 0.328268 0.558734 0.365814
O O19 0.363847 0.574090 0.177388
O O20 0.232387 0.600611 0.500000
O O21 0.881618 0.099282 0.500000
O O22 0.000000 0.129235 0.365354
#
# Coordination Sequence:
#
# PCOD8287875 Si02
#       8
#     8  16  16  16  16  16  16  16
#     4   9  20  40  63  85 110 141 179 225 275 329
#     4  10  18  31  55  85 113 144 178 222 283 338
#     4   8  15  31  55  81 107 139 183 233 282 331
#     4   8  14  26  49  82 114 140 174 225 280 332
#     4  11  23  38  56  81 113 146 187 233 276 326
#     4  10  21  37  57  82 111 140 179 232 282 328
#     4  11  23  38  57  78 106 147 191 232 279 328
#     4   9  18  33  53  79 115 154 185 215 264 337
#
# _framework density 19.480008000000002
#
# number of rings (size 3 to 8) (size 9 to 14) (size 15 to 20)
#    0.000    2.467    1.333    2.000    0.933    2.933 
#    0.000    2.667    0.000    2.000    0.000    3.733 
#    0.000    0.000    0.000    0.000    0.000    0.000 
#
# Total GULP energy -743742.625176 kJ/mol
# GULP energy per Si atom -12395.710420 kJ/mol
# Density = 1.943567 g / cm^3
# Si number density = 19.480008 Si / 1000 Ang^3
#
#
#
# Elastic Constant Matrix: (Units=GPa)
#
#
# Indices 1 2 3 4 5 6 
#
# 1 104.7707 66.3916 38.5079 0.0002 0.0002 0.0001
# 2 66.3916 126.5657 43.4172 0.0000 0.0001 0.0001
# 3 38.5079 43.4172 66.2966 -0.0010 0.0000 -0.0008
# 4 0.0002 0.0000 -0.0010 21.3791 0.0001 -0.0001
# 5 0.0002 0.0001 0.0000 0.0001 24.9546 0.0002
# 6 0.0001 0.0001 -0.0008 -0.0001 0.0002 30.0404
#
#
#
# Elastic Compliance Matrix: (Units=1/GPa)
#
#
# Indices 1 2 3 4 5 6 
#
# 1 0.015354 -0.006442 -0.004699 0.000000 0.000000 0.000000
# 2 -0.006442 0.012893 -0.004702 0.000000 0.000000 0.000000
# 3 -0.004699 -0.004702 0.020893 0.000001 0.000000 0.000001
# 4 0.000000 0.000000 0.000001 0.046775 0.000000 0.000000
# 5 0.000000 0.000000 0.000000 0.000000 0.040073 0.000000
# 6 0.000000 0.000000 0.000001 0.000000 0.000000 0.033289
#
#
# Mechanical properties :
#
#
# Convention : Reuss Voigt Hill
#
# Bulk Modulus (GPa) = 57.29621 66.02959 61.66290
# Shear Modulus (GPa) = 24.18021 25.22923 24.70472
#
# Velocity S-wave (km/s) = 3.52701 3.60270 3.56506
# Velocity P-wave (km/s) = 6.78698 7.16070 6.97634
#
# Compressibility (1/GPa) = 0.01745316
#
# Stress axis : x y z
#
# Youngs Moduli (GPa) = 65.12877 77.55995 47.86385
#
# Poissons Ratio (x) = 0.49965 0.22494
# Poissons Ratio (y) = 0.41957 0.22505
# Poissons Ratio (z) = 0.30607 0.36467
#
# Static dielectric constant tensor:
#      x y z
#    x 3.584350 0.000000 0.000000 
#    y 0.000000 3.927920 0.000000 
#    z 0.000000 0.000000 3.287040 
# 
# 
# High freq. dielectric constant tensor:
#      x y z
#    x 1.755040 0.000000 0.000000 
#    y 0.000000 1.762420 0.000000 
#    z 0.000000 0.000000 1.736800 
# 
# From -- ./inp_files/35431.got.cif
#   From: 2010.06.25/outbox.cif.g09.slc.cpg/sg71_18_cif.got.tgz:35431.got - 2010.06.28 04:59:45.
