data_PCOD8287002
_publ_section_title
;
Structure prediction by ZEFSAII (Michael W. Deem and Ramdas Pophale) SiO2 
 PCOD8287002
Probable space group: I M M M
;
_chemical_formula_sum "Si O2"
_cell_formula_units_Z 96
_cell_length_a 8.927369
_cell_length_b 26.791199
_cell_length_c 28.876915
_cell_angle_alpha 90.000000
_cell_angle_beta 90.000000
_cell_angle_gamma 90.000000
_cell_volume 6906.633818
_symmetry_space_group_name_H-M "I M M M"
_symmetry_group_IT_number 71
_symmetry_cell_setting 'orthorhombic'
loop_
_space_group_symop_operation_xyz
x,y,z
-x,-y,z
x,-y,-z
-x,y,-z
-x,-y,-z
x,y,-z
-x,y,z
x,-y,z
1/2+x,1/2+y,1/2+z
1/2-x,1/2-y,1/2+z
1/2+x,1/2-y,1/2-z
1/2-x,1/2+y,1/2-z
1/2-x,1/2-y,1/2-z
1/2+x,1/2+y,1/2-z
1/2-x,1/2+y,1/2+z
1/2+x,1/2-y,1/2+z
loop_
_atom_site_type_symbol
_atom_site_label
_atom_site_fract_x
_atom_site_fract_y
_atom_site_fract_z
Si Si1 0.176667 0.554694 0.141313
Si Si2 0.828530 0.611638 0.948368
Si Si3 0.175722 0.706649 0.720712
Si Si4 0.824926 0.350879 0.193568
Si Si5 0.674875 0.284390 0.947688
Si Si6 0.177060 0.747775 0.859556
O O1 0.247720 0.500000 0.151614
O O2 0.214610 0.568999 0.088254
O O3 0.246223 0.596773 0.175878
O O4 0.000000 0.551417 0.148603
O O5 0.723267 0.658749 0.939936
O O6 0.000000 0.629509 0.940790
O O7 0.805922 0.589619 0.000000
O O8 0.250000 0.750000 0.750000
O O9 0.205856 0.656410 0.751251
O O10 0.253018 0.705994 0.670133
O O11 0.000000 0.716543 0.715319
O O12 0.764130 0.304130 0.163335
O O13 0.000000 0.352668 0.183262
O O14 0.500000 0.279921 0.937664
O O15 0.763098 0.248717 0.912030
O O16 0.714174 0.267204 0.000000
O O17 0.000000 0.753235 0.858753
#
# Coordination Sequence:
#
# PCOD8287002 Si02
#       6
#    16  16  16  16  16  16
#     4   9  15  23  37  56  75  95 123 160 199 233
#     4   9  16  26  39  53  70  94 125 163 202 232
#     4   9  16  25  38  56  77  97 121 152 190 230
#     4   8  14  24  36  53  75  95 117 153 192 226
#     4  10  19  28  39  56  76  99 126 154 189 233
#     4  10  17  27  42  57  75  95 122 156 191 230
#
# _framework density 13.89968
#
# number of rings (size 3 to 8) (size 9 to 14) (size 15 to 20)
#    0.000    2.833    1.667    2.500    0.000    1.333 
#    0.000    1.667    0.000    0.500    0.000    2.333 
#    0.000    0.000    0.000    0.000    0.000    0.833 
#
# Total GULP energy -594709.897828 kJ/mol
# GULP energy per Si atom -12389.789538 kJ/mol
# Density = 1.386804 g / cm^3
# Si number density = 13.899680 Si / 1000 Ang^3
#
#
#
# Elastic Constant Matrix: (Units=GPa)
#
#
# Indices 1 2 3 4 5 6 
#
# 1 50.7579 17.1566 38.3176 0.0000 0.0000 0.0000
# 2 17.1566 51.0184 53.2053 0.0000 0.0000 0.0000
# 3 38.3176 53.2053 108.0892 0.0000 0.0000 0.0000
# 4 0.0000 0.0000 0.0000 18.7377 0.0000 0.0000
# 5 0.0000 0.0000 0.0000 0.0000 20.7431 0.0000
# 6 0.0000 0.0000 0.0000 0.0000 0.0000 8.9409
#
#
#
# Elastic Compliance Matrix: (Units=1/GPa)
#
#
# Indices 1 2 3 4 5 6 
#
# 1 0.026985 0.001853 -0.010478 0.000000 0.000000 0.000000
# 2 0.001853 0.040403 -0.020545 0.000000 0.000000 0.000000
# 3 -0.010478 -0.020545 0.023079 0.000000 0.000000 0.000000
# 4 0.000000 0.000000 0.000000 0.053368 0.000000 0.000000
# 5 0.000000 0.000000 0.000000 0.000000 0.048209 0.000000
# 6 0.000000 0.000000 0.000000 0.000000 0.000000 0.111845
#
#
# Mechanical properties :
#
#
# Convention : Reuss Voigt Hill
#
# Bulk Modulus (GPa) = 31.12649 47.46940 39.29794
# Shear Modulus (GPa) = 13.40704 16.43008 14.91856
#
# Velocity S-wave (km/s) = 3.10910 3.44182 3.27968
# Velocity P-wave (km/s) = 5.94399 7.07251 6.53266
#
# Compressibility (1/GPa) = 0.03212698
#
# Stress axis : x y z
#
# Youngs Moduli (GPa) = 37.05730 24.75069 43.32963
#
# Poissons Ratio (x) = -0.04586 0.45402
# Poissons Ratio (y) = -0.06866 0.89019
# Poissons Ratio (z) = 0.38830 0.50849
#
# Static dielectric constant tensor:
#      x y z
#    x 2.646730 0.000000 0.000000 
#    y 0.000000 2.707160 0.000000 
#    z 0.000000 0.000000 3.108110 
# 
# 
# High freq. dielectric constant tensor:
#      x y z
#    x 1.517440 0.000000 0.000000 
#    y 0.000000 1.474800 0.000000 
#    z 0.000000 0.000000 1.533270 
# 
# From -- ./inp_files/63662.got.cif
#   From: 2010.06.25/outbox.cif.g09.slc.cpg/sg71_32_cif.got.tgz:63662.got - 2010.06.28 04:59:45.
