data_PCOD8287090
_publ_section_title
;
Structure prediction by ZEFSAII (Michael W. Deem and Ramdas Pophale) SiO2 
 PCOD8287090
Probable space group: I M M M
;
_chemical_formula_sum "Si O2"
_cell_formula_units_Z 72
_cell_length_a 18.872820
_cell_length_b 11.283529
_cell_length_c 22.532800
_cell_angle_alpha 90.000000
_cell_angle_beta 90.000000
_cell_angle_gamma 90.000000
_cell_volume 4798.405091
_symmetry_space_group_name_H-M "I M M M"
_symmetry_group_IT_number 71
_symmetry_cell_setting 'orthorhombic'
loop_
_space_group_symop_operation_xyz
x,y,z
-x,-y,z
x,-y,-z
-x,y,-z
-x,-y,-z
x,y,-z
-x,y,z
x,-y,z
1/2+x,1/2+y,1/2+z
1/2-x,1/2-y,1/2+z
1/2+x,1/2-y,1/2-z
1/2-x,1/2+y,1/2-z
1/2-x,1/2-y,1/2-z
1/2+x,1/2+y,1/2-z
1/2-x,1/2+y,1/2+z
1/2+x,1/2-y,1/2+z
loop_
_atom_site_type_symbol
_atom_site_label
_atom_site_fract_x
_atom_site_fract_y
_atom_site_fract_z
Si Si1 0.500000 0.859959 0.676774
Si Si2 0.917354 0.000000 0.223745
Si Si3 0.000000 0.797843 0.934435
Si Si4 0.765515 0.367690 0.677360
Si Si5 0.865150 0.756894 0.762780
Si Si6 0.237885 0.500000 0.434226
Si Si7 0.392873 0.500000 0.590671
O O1 0.500000 0.811075 0.610281
O O2 0.428535 0.817238 0.708620
O O3 0.500000 0.000000 0.674676
O O4 0.896438 0.117253 0.260093
O O5 0.875613 0.000000 0.160859
O O6 0.000000 0.000000 0.207126
O O7 0.067878 0.880002 0.925896
O O8 0.000000 0.742406 0.000000
O O9 0.752511 0.500000 0.705218
O O10 0.836200 0.312690 0.705891
O O11 0.698797 0.281089 0.690353
O O12 0.780120 0.382866 0.606094
O O13 0.200860 0.500000 0.500000
O O14 0.321274 0.500000 0.446044
#
# Coordination Sequence:
#
# PCOD8287090 Si02
#       7
#     8   8   8  16  16   8   8
#     4  12  23  32  46  64  95 140 164 210 244 277
#     4  12  16  29  52  72 102 123 158 200 237 284
#     4  11  20  29  45  67  97 132 167 201 231 277
#     4   9  19  31  48  73  99 128 154 197 251 296
#     4  11  18  32  48  70 104 123 161 200 246 294
#     4  10  17  29  47  71  97 124 163 198 238 291
#     4  11  15  29  46  76  93 120 163 203 244 267
#
# _framework density 15.004985
#
# number of rings (size 3 to 8) (size 9 to 14) (size 15 to 20)
#    0.667    0.667    7.778    2.000    0.000    0.222 
#    0.000    0.000    0.000    0.000    0.000    2.333 
#    0.000    0.889    0.000    0.000    0.000    0.000 
#
# Total GULP energy -446031.899086 kJ/mol
# GULP energy per Si atom -12389.774975 kJ/mol
# Density = 1.497083 g / cm^3
# Si number density = 15.004985 Si / 1000 Ang^3
#
#
#
# Elastic Constant Matrix: (Units=GPa)
#
#
# Indices 1 2 3 4 5 6 
#
# 1 70.9324 41.9917 47.1120 0.0000 0.0000 0.0000
# 2 41.9917 108.3085 48.7142 0.0000 0.0000 0.0000
# 3 47.1120 48.7142 110.6776 0.0000 0.0000 0.0000
# 4 0.0000 0.0000 0.0000 -5.5248 0.0000 0.0000
# 5 0.0000 0.0000 0.0000 0.0000 11.5222 0.0000
# 6 0.0000 0.0000 0.0000 0.0000 0.0000 27.2689
#
#
#
# Elastic Compliance Matrix: (Units=1/GPa)
#
#
# Indices 1 2 3 4 5 6 
#
# 1 0.021893 -0.005357 -0.006961 0.000000 0.000000 0.000000
# 2 -0.005357 0.012823 -0.003364 0.000000 0.000000 0.000000
# 3 -0.006961 -0.003364 0.013479 0.000000 0.000000 0.000000
# 4 0.000000 0.000000 0.000000 -0.181001 0.000000 0.000000
# 5 0.000000 0.000000 0.000000 0.000000 0.086789 0.000000
# 6 0.000000 0.000000 0.000000 0.000000 0.000000 0.036672
#
#
# Mechanical properties :
#
#
# Convention : Reuss Voigt Hill
#
# Bulk Modulus (GPa) = 59.41478 62.83937 61.12707
# Shear Modulus (GPa) = 180.97545 16.79329 98.88437
#
# Velocity S-wave (km/s) = 10.99418 3.34905 8.12675
# Velocity P-wave (km/s) = 14.17199 7.54485 11.35276
#
# Compressibility (1/GPa) = 0.01683083
#
# Stress axis : x y z
#
# Youngs Moduli (GPa) = 45.67723 77.98710 74.19018
#
# Poissons Ratio (x) = 0.41777 0.51645
# Poissons Ratio (y) = 0.24469 0.24954
# Poissons Ratio (z) = 0.31797 0.26231
#
# Static dielectric constant tensor:
#      x y z
#    x 2.901150 0.000000 0.000000 
#    y 0.000000 2.920140 0.000000 
#    z 0.000000 0.000000 2.759280 
# 
# 
# High freq. dielectric constant tensor:
#      x y z
#    x 1.572610 0.000000 0.000000 
#    y 0.000000 1.567510 0.000000 
#    z 0.000000 0.000000 1.543470 
# 
# From -- ./inp_files/60469.got.cif
#   From: 2010.06.25/outbox.cif.g09.slc.cpg/sg71_31_cif.got.tgz:60469.got - 2010.06.28 04:59:45.
