data_PCOD8287285
_publ_section_title
;
Structure prediction by ZEFSAII (Michael W. Deem and Ramdas Pophale) SiO2 
 PCOD8287285
Probable space group: I M M M
;
_chemical_formula_sum "Si O2"
_cell_formula_units_Z 120
_cell_length_a 20.277043
_cell_length_b 13.608478
_cell_length_c 27.038119
_cell_angle_alpha 90.000000
_cell_angle_beta 90.000000
_cell_angle_gamma 90.000000
_cell_volume 7460.890272
_symmetry_space_group_name_H-M "I M M M"
_symmetry_group_IT_number 71
_symmetry_cell_setting 'orthorhombic'
loop_
_space_group_symop_operation_xyz
x,y,z
-x,-y,z
x,-y,-z
-x,y,-z
-x,-y,-z
x,y,-z
-x,y,z
x,-y,z
1/2+x,1/2+y,1/2+z
1/2-x,1/2-y,1/2+z
1/2+x,1/2-y,1/2-z
1/2-x,1/2+y,1/2-z
1/2-x,1/2-y,1/2-z
1/2+x,1/2+y,1/2-z
1/2-x,1/2+y,1/2+z
1/2+x,1/2-y,1/2+z
loop_
_atom_site_type_symbol
_atom_site_label
_atom_site_fract_x
_atom_site_fract_y
_atom_site_fract_z
Si Si1 0.256948 0.109513 0.288279
Si Si2 0.926166 0.737412 0.908532
Si Si3 0.571795 0.202849 0.788866
Si Si4 0.421978 0.890845 0.500000
Si Si5 0.403987 0.890347 0.684919
Si Si6 0.574068 0.389349 0.728756
Si Si7 0.665348 0.385986 0.636195
Si Si8 0.290063 0.189759 0.182226
O O1 0.325434 0.113392 0.317032
O O2 0.265458 0.133889 0.230831
O O3 0.211924 0.192053 0.313456
O O4 0.225496 0.000000 0.292663
O O5 0.931918 0.680091 0.856961
O O6 0.874654 0.827778 0.905990
O O7 0.000000 0.776036 0.921653
O O8 0.898237 0.666183 0.951104
O O9 0.500000 0.189707 0.815058
O O10 0.569832 0.142397 0.738134
O O11 0.584236 0.317153 0.775018
O O12 0.631442 0.165921 0.824840
O O13 0.500000 0.900213 0.500000
O O14 0.390247 0.000000 0.500000
O O15 0.429971 0.000000 0.674755
O O16 0.500000 0.377689 0.706292
O O17 0.585237 0.500000 0.748007
O O18 0.628186 0.362508 0.687639
O O19 0.663583 0.500000 0.622357
O O20 0.741830 0.349273 0.638875
#
# Coordination Sequence:
#
# PCOD8287285 Si02
#       8
#    16  16  16   8  16  16  16  16
#     4   9  16  26  41  60  83 112 147 187 228 264
#     4  11  20  33  49  68  90 113 146 184 220 262
#     4  10  19  29  40  59  85 115 155 193 226 262
#     4   9  20  36  53  71  93 121 145 172 218 270
#     4  10  18  28  43  62  85 113 148 188 223 254
#     4   9  16  26  40  58  81 110 145 187 229 261
#     4  11  20  31  46  64  84 112 148 187 231 270
#     4  10  18  29  40  57  85 115 147 186 229 266
#
# _framework density 16.083870999999998
#
# number of rings (size 3 to 8) (size 9 to 14) (size 15 to 20)
#    0.000    2.067    2.667    3.200    0.000    4.533 
#    0.000    0.333    0.000    1.200    0.000    0.000 
#    0.000    0.000    0.000    0.600    0.000    2.200 
#
# Total GULP energy -743565.165554 kJ/mol
# GULP energy per Si atom -12392.752759 kJ/mol
# Density = 1.604726 g / cm^3
# Si number density = 16.083871 Si / 1000 Ang^3
#
#
#
# Elastic Constant Matrix: (Units=GPa)
#
#
# Indices 1 2 3 4 5 6 
#
# 1 107.4807 39.5368 27.6017 0.0000 0.0000 0.0000
# 2 39.5368 102.4101 23.3285 0.0000 0.0000 0.0000
# 3 27.6017 23.3285 27.9213 0.0000 0.0000 0.0000
# 4 0.0000 0.0000 0.0000 14.5542 0.0000 0.0000
# 5 0.0000 0.0000 0.0000 0.0000 9.1903 0.0000
# 6 0.0000 0.0000 0.0000 0.0000 0.0000 15.1502
#
#
#
# Elastic Compliance Matrix: (Units=1/GPa)
#
#
# Indices 1 2 3 4 5 6 
#
# 1 0.013000 -0.002583 -0.010693 0.000000 0.000000 0.000000
# 2 -0.002583 0.012573 -0.007952 0.000000 0.000000 0.000000
# 3 -0.010693 -0.007952 0.053029 0.000000 0.000000 0.000000
# 4 0.000000 0.000000 0.000000 0.068709 0.000000 0.000000
# 5 0.000000 0.000000 0.000000 0.000000 0.108811 0.000000
# 6 0.000000 0.000000 0.000000 0.000000 0.000000 0.066006
#
#
# Mechanical properties :
#
#
# Convention : Reuss Voigt Hill
#
# Bulk Modulus (GPa) = 27.66472 46.52735 37.09604
# Shear Modulus (GPa) = 13.27552 17.60192 15.43872
#
# Velocity S-wave (km/s) = 2.87608 3.31174 3.10157
# Velocity P-wave (km/s) = 5.31665 6.60411 5.99504
#
# Compressibility (1/GPa) = 0.03614712
#
# Stress axis : x y z
#
# Youngs Moduli (GPa) = 76.92136 79.53413 18.85743
#
# Poissons Ratio (x) = 0.20544 0.20165
# Poissons Ratio (y) = 0.19869 0.14995
# Poissons Ratio (z) = 0.82254 0.63242
#
# Static dielectric constant tensor:
#      x y z
#    x 3.371340 0.000000 0.000000 
#    y 0.000000 3.351900 0.000000 
#    z 0.000000 0.000000 2.474040 
# 
# 
# High freq. dielectric constant tensor:
#      x y z
#    x 1.621980 0.000000 0.000000 
#    y 0.000000 1.639260 0.000000 
#    z 0.000000 0.000000 1.525720 
# 
# From -- ./inp_files/66677.got.cif
#   From: 2010.06.25/outbox.cif.g09.slc.cpg/sg71_34_cif.got.tgz:66677.got - 2010.06.28 04:59:45.
