data_PCOD8287631
_publ_section_title
;
Structure prediction by ZEFSAII (Michael W. Deem and Ramdas Pophale) SiO2 
 PCOD8287631
Probable space group: I M M M
;
_chemical_formula_sum "Si O2"
_cell_formula_units_Z 104
_cell_length_a 12.666265
_cell_length_b 26.104741
_cell_length_c 18.782833
_cell_angle_alpha 90.000000
_cell_angle_beta 90.000000
_cell_angle_gamma 90.000000
_cell_volume 6210.535603
_symmetry_space_group_name_H-M "I M M M"
_symmetry_group_IT_number 71
_symmetry_cell_setting 'orthorhombic'
loop_
_space_group_symop_operation_xyz
x,y,z
-x,-y,z
x,-y,-z
-x,y,-z
-x,-y,-z
x,y,-z
-x,y,z
x,-y,z
1/2+x,1/2+y,1/2+z
1/2-x,1/2-y,1/2+z
1/2+x,1/2-y,1/2-z
1/2-x,1/2+y,1/2-z
1/2-x,1/2-y,1/2-z
1/2+x,1/2+y,1/2-z
1/2-x,1/2+y,1/2+z
1/2+x,1/2-y,1/2+z
loop_
_atom_site_type_symbol
_atom_site_label
_atom_site_fract_x
_atom_site_fract_y
_atom_site_fract_z
Si Si1 0.622807 0.941949 0.801395
Si Si2 0.879212 0.849100 0.582543
Si Si3 0.812310 0.607632 0.834326
Si Si4 0.876757 0.636536 0.420510
Si Si5 0.500000 0.941892 0.583987
Si Si6 0.684661 0.240920 0.139419
Si Si7 0.883365 0.718507 0.793693
O O1 0.500000 0.930903 0.782226
O O2 0.693465 0.932299 0.731074
O O3 0.663622 0.906320 0.865597
O O4 0.638625 0.000000 0.826810
O O5 0.856772 0.860536 0.500000
O O6 0.802143 0.884944 0.629513
O O7 0.859117 0.789188 0.596107
O O8 0.000000 0.862814 0.602403
O O9 0.851100 0.659646 0.798211
O O10 0.895158 0.587899 0.892424
O O11 0.850576 0.617145 0.500000
O O12 0.820417 0.690676 0.408640
O O13 0.000000 0.645918 0.409890
O O14 0.500000 0.943226 0.500000
O O15 0.500000 0.000000 0.615044
O O16 0.807725 0.247142 0.158041
O O17 0.618140 0.235264 0.211584
O O18 0.000000 0.726912 0.824238
#
# Coordination Sequence:
#
# PCOD8287631 Si02
#       7
#    16  16  16  16   8  16  16
#     4  10  19  32  52  76 102 132 167 210 261 307
#     4  10  21  35  51  74 105 139 173 210 252 302
#     4  11  19  33  54  75 101 136 171 209 257 307
#     4  10  19  31  49  73 103 136 170 208 249 302
#     4  11  22  34  52  78 103 131 171 217 259 307
#     4  10  19  29  49  74 102 138 174 206 246 302
#     4  10  18  30  48  74 103 134 169 210 252 300
#
# _framework density 16.745737999999999
#
# number of rings (size 3 to 8) (size 9 to 14) (size 15 to 20)
#    0.000    1.769    3.077    2.769    0.000    1.538 
#    0.000    1.538    0.000    1.846    0.000    5.385 
#    0.000    0.000    0.000    2.769    0.000    0.308 
#
# Total GULP energy -644865.595532 kJ/mol
# GULP energy per Si atom -12401.261453 kJ/mol
# Density = 1.670762 g / cm^3
# Si number density = 16.745738 Si / 1000 Ang^3
#
#
#
# Elastic Constant Matrix: (Units=GPa)
#
#
# Indices 1 2 3 4 5 6 
#
# 1 98.7140 26.8830 38.9779 0.0000 0.0000 0.0000
# 2 26.8830 72.5459 30.2991 0.0000 0.0000 0.0000
# 3 38.9779 30.2991 86.1476 -0.0003 0.0000 0.0000
# 4 0.0000 0.0000 -0.0003 21.9089 0.0000 0.0000
# 5 0.0000 0.0000 0.0000 0.0000 20.3064 0.0000
# 6 0.0000 0.0000 0.0000 0.0000 0.0000 21.3983
#
#
#
# Elastic Compliance Matrix: (Units=1/GPa)
#
#
# Indices 1 2 3 4 5 6 
#
# 1 0.012776 -0.002719 -0.004824 0.000000 0.000000 0.000000
# 2 -0.002719 0.016737 -0.004656 0.000000 0.000000 0.000000
# 3 -0.004824 -0.004656 0.015428 0.000000 0.000000 0.000000
# 4 0.000000 0.000000 0.000000 0.045644 0.000000 0.000000
# 5 0.000000 0.000000 0.000000 0.000000 0.049245 0.000000
# 6 0.000000 0.000000 0.000000 0.000000 0.000000 0.046733
#
#
# Mechanical properties :
#
#
# Convention : Reuss Voigt Hill
#
# Bulk Modulus (GPa) = 48.68162 49.96971 49.32566
# Shear Modulus (GPa) = 22.95594 23.47255 23.21425
#
# Velocity S-wave (km/s) = 3.70652 3.74799 3.72731
# Velocity P-wave (km/s) = 6.88853 6.97388 6.93134
#
# Compressibility (1/GPa) = 0.02054164
#
# Stress axis : x y z
#
# Youngs Moduli (GPa) = 78.27398 59.74878 64.81642
#
# Poissons Ratio (x) = 0.16249 0.31267
# Poissons Ratio (y) = 0.21286 0.30179
# Poissons Ratio (z) = 0.37759 0.27819
#
# Static dielectric constant tensor:
#      x y z
#    x 3.083160 0.000000 0.000000 
#    y 0.000000 3.171250 0.000000 
#    z 0.000000 0.000000 3.174180 
# 
# 
# High freq. dielectric constant tensor:
#      x y z
#    x 1.620900 0.000000 0.000000 
#    y 0.000000 1.641300 0.000000 
#    z 0.000000 0.000000 1.653150 
# 
# From -- ./inp_files/24568.got.cif
#   From: 2010.06.25/outbox.cif.g09.slc.cpg/sg71_13_cif.got.tgz:24568.got - 2010.06.28 04:59:45.
