data_PCOD8287580
_publ_section_title
;
Structure prediction by ZEFSAII (Michael W. Deem and Ramdas Pophale) SiO2 
 PCOD8287580
Probable space group: I M M M
;
_chemical_formula_sum "Si O2"
_cell_formula_units_Z 104
_cell_length_a 26.734814
_cell_length_b 7.929268
_cell_length_c 28.360140
_cell_angle_alpha 90.000000
_cell_angle_beta 90.000000
_cell_angle_gamma 90.000000
_cell_volume 6011.995324
_symmetry_space_group_name_H-M "I M M M"
_symmetry_group_IT_number 71
_symmetry_cell_setting 'orthorhombic'
loop_
_space_group_symop_operation_xyz
x,y,z
-x,-y,z
x,-y,-z
-x,y,-z
-x,-y,-z
x,y,-z
-x,y,z
x,-y,z
1/2+x,1/2+y,1/2+z
1/2-x,1/2-y,1/2+z
1/2+x,1/2-y,1/2-z
1/2-x,1/2+y,1/2-z
1/2-x,1/2-y,1/2-z
1/2+x,1/2+y,1/2-z
1/2-x,1/2+y,1/2+z
1/2+x,1/2-y,1/2+z
loop_
_atom_site_type_symbol
_atom_site_label
_atom_site_fract_x
_atom_site_fract_y
_atom_site_fract_z
Si Si1 0.317596 0.803497 0.946676
Si Si2 0.056226 0.692799 0.291800
Si Si3 0.500000 0.701084 0.052631
Si Si4 0.861131 0.500000 0.056019
Si Si5 0.205116 0.813300 0.944066
Si Si6 0.407941 0.307393 0.887137
Si Si7 0.559455 0.000000 0.631662
Si Si8 0.059243 0.813694 0.806768
O O1 0.261511 0.770006 0.927834
O O2 0.354334 0.706922 0.911643
O O3 0.330308 0.000000 0.945677
O O4 0.324221 0.733369 0.000000
O O5 0.054472 0.500000 0.276057
O O6 0.092040 0.714088 0.336864
O O7 0.078935 0.791918 0.246851
O O8 0.000000 0.756705 0.304595
O O9 0.500000 0.500000 0.050279
O O10 0.450738 0.770365 0.079092
O O11 0.500000 0.777002 0.000000
O O12 0.831740 0.666853 0.073727
O O13 0.915313 0.500000 0.080211
O O14 0.868906 0.500000 0.000000
O O15 0.189037 0.000000 0.924888
O O16 0.205049 0.819822 0.000000
O O17 0.420508 0.500000 0.876655
O O18 0.579169 0.166911 0.658882
O O19 0.500000 0.000000 0.624205
O O20 0.000000 0.795772 0.804791
O O21 0.075478 0.000000 0.825230
#
# Coordination Sequence:
#
# PCOD8287580 Si02
#       8
#    16  16   8   8  16  16   8  16
#     4   9  18  32  47  65  93 126 166 220 273 309
#     4  10  18  30  47  66  95 128 168 221 266 306
#     4   9  18  30  37  51  89 135 173 209 255 319
#     4  10  20  33  56  84 110 143 174 198 235 289
#     4   8  16  32  52  74 101 131 170 220 258 288
#     4  11  20  28  42  65  93 127 170 215 265 323
#     4  10  20  35  52  82 118 142 169 199 232 290
#     4   9  17  31  52  74 101 137 172 211 253 288
#
# _framework density 17.298749000000001
#
# number of rings (size 3 to 8) (size 9 to 14) (size 15 to 20)
#    0.000    2.538    1.538    2.308    1.077    2.308 
#    0.000    0.000    0.000    1.846    0.000    5.385 
#    0.000    0.000    0.000    0.000    0.000    0.000 
#
# Total GULP energy -644610.680177 kJ/mol
# GULP energy per Si atom -12396.359234 kJ/mol
# Density = 1.725938 g / cm^3
# Si number density = 17.298749 Si / 1000 Ang^3
#
#
#
# Elastic Constant Matrix: (Units=GPa)
#
#
# Indices 1 2 3 4 5 6 
#
# 1 64.8083 32.8936 38.2298 0.0000 0.0000 0.0000
# 2 32.8936 97.4096 35.1016 0.0000 0.0000 0.0000
# 3 38.2298 35.1016 74.1889 0.0000 0.0000 0.0000
# 4 0.0000 0.0000 0.0000 16.4711 0.0000 0.0000
# 5 0.0000 0.0000 0.0000 0.0000 13.8047 0.0000
# 6 0.0000 0.0000 0.0000 0.0000 0.0000 15.9864
#
#
#
# Elastic Compliance Matrix: (Units=1/GPa)
#
#
# Indices 1 2 3 4 5 6 
#
# 1 0.023587 -0.004322 -0.010110 0.000000 0.000000 0.000000
# 2 -0.004322 0.013168 -0.004003 0.000000 0.000000 0.000000
# 3 -0.010110 -0.004003 0.020583 0.000000 0.000000 0.000000
# 4 0.000000 0.000000 0.000000 0.060712 0.000000 0.000000
# 5 0.000000 0.000000 0.000000 0.000000 0.072439 0.000000
# 6 0.000000 0.000000 0.000000 0.000000 0.000000 0.062553
#
#
# Mechanical properties :
#
#
# Convention : Reuss Voigt Hill
#
# Bulk Modulus (GPa) = 48.85604 49.87299 49.36451
# Shear Modulus (GPa) = 16.85004 17.93123 17.39064
#
# Velocity S-wave (km/s) = 3.12438 3.22306 3.17410
# Velocity P-wave (km/s) = 6.42803 6.53788 6.48318
#
# Compressibility (1/GPa) = 0.02046830
#
# Stress axis : x y z
#
# Youngs Moduli (GPa) = 42.39547 75.94209 48.58443
#
# Poissons Ratio (x) = 0.32822 0.49118
# Poissons Ratio (y) = 0.18323 0.19449
# Poissons Ratio (z) = 0.42861 0.30400
#
# Static dielectric constant tensor:
#      x y z
#    x 2.914990 0.000000 0.000000 
#    y 0.000000 3.422370 0.000000 
#    z 0.000000 0.000000 2.979960 
# 
# 
# High freq. dielectric constant tensor:
#      x y z
#    x 1.627980 0.000000 0.000000 
#    y 0.000000 1.678980 0.000000 
#    z 0.000000 0.000000 1.644000 
# 
# From -- ./inp_files/62345.got.cif
#   From: 2010.06.25/outbox.cif.g09.slc.cpg/sg71_32_cif.got.tgz:62345.got - 2010.06.28 04:59:45.
