data_PCOD8287433
_publ_section_title
;
Structure prediction by ZEFSAII (Michael W. Deem and Ramdas Pophale) SiO2 
 PCOD8287433
Probable space group: I M M M
;
_chemical_formula_sum "Si O2"
_cell_formula_units_Z 72
_cell_length_a 12.256293
_cell_length_b 14.869620
_cell_length_c 23.841102
_cell_angle_alpha 90.000000
_cell_angle_beta 90.000000
_cell_angle_gamma 90.000000
_cell_volume 4344.955477
_symmetry_space_group_name_H-M "I M M M"
_symmetry_group_IT_number 71
_symmetry_cell_setting 'orthorhombic'
loop_
_space_group_symop_operation_xyz
x,y,z
-x,-y,z
x,-y,-z
-x,y,-z
-x,-y,-z
x,y,-z
-x,y,z
x,-y,z
1/2+x,1/2+y,1/2+z
1/2-x,1/2-y,1/2+z
1/2+x,1/2-y,1/2-z
1/2-x,1/2+y,1/2-z
1/2-x,1/2-y,1/2-z
1/2+x,1/2+y,1/2-z
1/2-x,1/2+y,1/2+z
1/2+x,1/2-y,1/2+z
loop_
_atom_site_type_symbol
_atom_site_label
_atom_site_fract_x
_atom_site_fract_y
_atom_site_fract_z
Si Si1 0.215392 0.106346 0.373826
Si Si2 0.129157 0.734632 0.064307
Si Si3 0.500000 0.393296 0.062637
Si Si4 0.120867 0.106253 0.259386
Si Si5 0.370134 0.599702 0.636286
O O1 0.320289 0.152928 0.400801
O O2 0.107599 0.140810 0.405808
O O3 0.202841 0.137060 0.308813
O O4 0.232284 0.000000 0.380109
O O5 0.170469 0.829577 0.089880
O O6 0.000000 0.725348 0.069605
O O7 0.167552 0.730356 0.000000
O O8 0.500000 0.500000 0.061711
O O9 0.500000 0.353290 0.000000
O O10 0.170158 0.131536 0.198265
O O11 0.000000 0.149230 0.268093
O O12 0.106892 0.000000 0.263221
O O13 0.500000 0.595257 0.638182
O O14 0.324254 0.500000 0.621309
#
# Coordination Sequence:
#
# PCOD8287433 Si02
#       5
#    16  16   8  16  16
#     4  10  18  29  46  67  92 122 150 181 221 263
#     4  10  21  33  43  62  93 126 158 184 212 262
#     4   9  16  26  42  64  87 113 148 186 219 250
#     4   8  13  25  46  71  93 110 138 184 235 275
#     4   8  15  29  49  69  88 112 145 190 237 270
#
# _framework density 16.570941000000001
#
# number of rings (size 3 to 8) (size 9 to 14) (size 15 to 20)
#    0.000    3.000    1.111    2.000    0.000    3.111 
#    0.000    3.333    0.000    0.000    0.000    0.778 
#    0.000    2.667    0.000    0.000    0.000    0.000 
#
# Total GULP energy -446156.872763 kJ/mol
# GULP energy per Si atom -12393.246466 kJ/mol
# Density = 1.653322 g / cm^3
# Si number density = 16.570941 Si / 1000 Ang^3
#
#
#
# Elastic Constant Matrix: (Units=GPa)
#
#
# Indices 1 2 3 4 5 6 
#
# 1 33.3493 24.1977 28.8728 0.0000 0.0000 0.0000
# 2 24.1977 62.1715 40.0606 0.0000 0.0000 0.0000
# 3 28.8728 40.0606 102.2733 0.0000 0.0000 0.0000
# 4 0.0000 0.0000 0.0000 26.2260 0.0000 0.0000
# 5 0.0000 0.0000 0.0000 0.0000 18.8906 0.0000
# 6 0.0000 0.0000 0.0000 0.0000 0.0000 14.6880
#
#
#
# Elastic Compliance Matrix: (Units=1/GPa)
#
#
# Indices 1 2 3 4 5 6 
#
# 1 0.046244 -0.012823 -0.008032 0.000000 0.000000 0.000000
# 2 -0.012823 0.025070 -0.006200 0.000000 0.000000 0.000000
# 3 -0.008032 -0.006200 0.014474 0.000000 0.000000 0.000000
# 4 0.000000 0.000000 0.000000 0.038130 0.000000 0.000000
# 5 0.000000 0.000000 0.000000 0.000000 0.052936 0.000000
# 6 0.000000 0.000000 0.000000 0.000000 0.000000 0.068083
#
#
# Mechanical properties :
#
#
# Convention : Reuss Voigt Hill
#
# Bulk Modulus (GPa) = 31.56806 42.67293 37.12049
# Shear Modulus (GPa) = 16.14950 18.93846 17.54398
#
# Velocity S-wave (km/s) = 3.12519 3.38431 3.25733
# Velocity P-wave (km/s) = 5.66693 6.40929 6.04950
#
# Compressibility (1/GPa) = 0.03167759
#
# Stress axis : x y z
#
# Youngs Moduli (GPa) = 21.62447 39.88782 69.08965
#
# Poissons Ratio (x) = 0.51147 0.55496
# Poissons Ratio (y) = 0.27729 0.42836
# Poissons Ratio (z) = 0.17370 0.24731
#
# Static dielectric constant tensor:
#      x y z
#    x 2.806400 0.000000 0.000000 
#    y 0.000000 2.909460 0.000000 
#    z 0.000000 0.000000 3.593990 
# 
# 
# High freq. dielectric constant tensor:
#      x y z
#    x 1.596950 0.000000 0.000000 
#    y 0.000000 1.605930 0.000000 
#    z 0.000000 0.000000 1.658640 
# 
# From -- ./inp_files/6015.got.cif
#   From: 2010.06.25/outbox.cif.g09.slc.cpg/sg71_4_cif.got.tgz:6015.got - 2010.06.28 04:59:45.
