data_PCOD8287384
_publ_section_title
;
Structure prediction by ZEFSAII (Michael W. Deem and Ramdas Pophale) SiO2 
 PCOD8287384
Probable space group: I M M M
;
_chemical_formula_sum "Si O2"
_cell_formula_units_Z 88
_cell_length_a 13.555744
_cell_length_b 14.305326
_cell_length_c 25.445479
_cell_angle_alpha 90.000000
_cell_angle_beta 90.000000
_cell_angle_gamma 90.000000
_cell_volume 4934.370420
_symmetry_space_group_name_H-M "I M M M"
_symmetry_group_IT_number 71
_symmetry_cell_setting 'orthorhombic'
loop_
_space_group_symop_operation_xyz
x,y,z
-x,-y,z
x,-y,-z
-x,y,-z
-x,-y,-z
x,y,-z
-x,y,z
x,-y,z
1/2+x,1/2+y,1/2+z
1/2-x,1/2-y,1/2+z
1/2+x,1/2-y,1/2-z
1/2-x,1/2+y,1/2-z
1/2-x,1/2-y,1/2-z
1/2+x,1/2+y,1/2-z
1/2-x,1/2+y,1/2+z
1/2+x,1/2-y,1/2+z
loop_
_atom_site_type_symbol
_atom_site_label
_atom_site_fract_x
_atom_site_fract_y
_atom_site_fract_z
Si Si1 0.384796 0.756126 0.788447
Si Si2 0.287906 0.388507 0.283707
Si Si3 0.389512 0.180921 0.000000
Si Si4 0.889957 0.889542 0.891272
Si Si5 0.886247 0.191110 0.399766
Si Si6 0.881526 0.000000 0.440866
Si Si7 0.688146 0.395307 0.500000
O O1 0.500000 0.783813 0.786407
O O2 0.366878 0.663621 0.753505
O O3 0.320390 0.846085 0.770410
O O4 0.343535 0.735304 0.846850
O O5 0.289148 0.500000 0.272929
O O6 0.317912 0.363502 0.343474
O O7 0.370512 0.242247 0.051086
O O8 0.500000 0.137700 0.000000
O O9 0.307616 0.100487 0.000000
O O10 0.850995 0.845231 0.946593
O O11 0.000000 0.850868 0.880061
O O12 0.892041 0.000000 0.897131
O O13 0.000000 0.172533 0.389072
O O14 0.837256 0.090653 0.411577
O O15 0.841262 0.000000 0.500000
O O16 0.000000 0.000000 0.442013
O O17 0.647642 0.500000 0.500000
#
# Coordination Sequence:
#
# PCOD8287384 Si02
#       7
#    16  16   8  16  16   8   8
#     4  10  21  35  52  76 104 135 172 214 257 306
#     4  10  21  36  53  75 103 135 172 212 259 313
#     4  10  18  29  43  62  97 135 162 198 246 297
#     4   9  17  31  50  70  93 122 159 206 256 300
#     4   9  17  28  44  67  94 126 163 200 244 297
#     4   9  14  24  42  66  94 124 158 195 241 297
#     4  10  19  29  45  68  91 123 167 207 247 300
#
# _framework density 17.834088999999999
#
# number of rings (size 3 to 8) (size 9 to 14) (size 15 to 20)
#    0.000    2.455    0.909    1.909    1.273    2.727 
#    0.000    0.000    0.000    6.545    0.000    0.000 
#    0.000    0.000    0.000    4.182    0.000    0.909 
#
# Total GULP energy -545240.344671 kJ/mol
# GULP energy per Si atom -12391.826015 kJ/mol
# Density = 1.779350 g / cm^3
# Si number density = 17.834089 Si / 1000 Ang^3
#
#
#
# Elastic Constant Matrix: (Units=GPa)
#
#
# Indices 1 2 3 4 5 6 
#
# 1 89.7320 26.7708 22.2700 0.0000 0.0000 0.0000
# 2 26.7708 55.4448 21.4440 0.0000 0.0000 0.0000
# 3 22.2700 21.4440 106.8608 0.0000 0.0000 0.0000
# 4 0.0000 0.0000 0.0000 15.9588 0.0000 0.0000
# 5 0.0000 0.0000 0.0000 0.0000 27.7072 0.0000
# 6 0.0000 0.0000 0.0000 0.0000 0.0000 16.7209
#
#
#
# Elastic Compliance Matrix: (Units=1/GPa)
#
#
# Indices 1 2 3 4 5 6 
#
# 1 0.013269 -0.005786 -0.001604 0.000000 0.000000 0.000000
# 2 -0.005786 0.022077 -0.003224 0.000000 0.000000 0.000000
# 3 -0.001604 -0.003224 0.010339 0.000000 0.000000 0.000000
# 4 0.000000 0.000000 0.000000 0.062661 0.000000 0.000000
# 5 0.000000 0.000000 0.000000 0.000000 0.036092 0.000000
# 6 0.000000 0.000000 0.000000 0.000000 0.000000 0.059806
#
#
# Mechanical properties :
#
#
# Convention : Reuss Voigt Hill
#
# Bulk Modulus (GPa) = 40.89061 43.66748 42.27905
# Shear Modulus (GPa) = 21.40187 24.18090 22.79138
#
# Velocity S-wave (km/s) = 3.46794 3.68622 3.57874
# Velocity P-wave (km/s) = 6.24608 6.53117 6.39022
#
# Compressibility (1/GPa) = 0.02445549
#
# Stress axis : x y z
#
# Youngs Moduli (GPa) = 75.36552 45.29641 96.71840
#
# Poissons Ratio (x) = 0.26209 0.15514
# Poissons Ratio (y) = 0.43608 0.31185
# Poissons Ratio (z) = 0.12089 0.14605
#
# Static dielectric constant tensor:
#      x y z
#    x 3.117230 0.000000 0.000000 
#    y 0.000000 3.071790 0.000000 
#    z 0.000000 0.000000 3.708560 
# 
# 
# High freq. dielectric constant tensor:
#      x y z
#    x 1.667260 0.000000 0.000000 
#    y 0.000000 1.660390 0.000000 
#    z 0.000000 0.000000 1.706850 
# 
# From -- ./inp_files/65433.got.cif
#   From: 2010.06.25/outbox.cif.g09.slc.cpg/sg71_33_cif.got.tgz:65433.got - 2010.06.28 04:59:45.
