data_PCOD8287428
_publ_section_title
;
Structure prediction by ZEFSAII (Michael W. Deem and Ramdas Pophale) SiO2 
 PCOD8287428
Probable space group: I M M M
;
_chemical_formula_sum "Si O2"
_cell_formula_units_Z 120
_cell_length_a 10.193132
_cell_length_b 22.475937
_cell_length_c 28.921217
_cell_angle_alpha 90.000000
_cell_angle_beta 90.000000
_cell_angle_gamma 90.000000
_cell_volume 6625.856387
_symmetry_space_group_name_H-M "I M M M"
_symmetry_group_IT_number 71
_symmetry_cell_setting 'orthorhombic'
loop_
_space_group_symop_operation_xyz
x,y,z
-x,-y,z
x,-y,-z
-x,y,-z
-x,-y,-z
x,y,-z
-x,y,z
x,-y,z
1/2+x,1/2+y,1/2+z
1/2-x,1/2-y,1/2+z
1/2+x,1/2-y,1/2-z
1/2-x,1/2+y,1/2-z
1/2-x,1/2-y,1/2-z
1/2+x,1/2+y,1/2-z
1/2-x,1/2+y,1/2+z
1/2+x,1/2-y,1/2+z
loop_
_atom_site_type_symbol
_atom_site_label
_atom_site_fract_x
_atom_site_fract_y
_atom_site_fract_z
Si Si1 0.844927 0.759950 0.139180
Si Si2 0.765856 0.068625 0.097802
Si Si3 0.653850 0.623618 0.311431
Si Si4 0.343749 0.873530 0.643753
Si Si5 0.849405 0.930658 0.714933
Si Si6 0.845069 0.433739 0.050584
Si Si7 0.000000 0.430015 0.448637
Si Si8 0.852993 0.821469 0.050252
O O1 0.804640 0.807684 0.178642
O O2 0.798253 0.694226 0.153282
O O3 0.783465 0.780306 0.089515
O O4 0.000000 0.759487 0.133128
O O5 0.774642 0.079517 0.152731
O O6 0.624084 0.090483 0.080773
O O7 0.863992 0.110703 0.069187
O O8 0.796063 0.000000 0.086282
O O9 0.500000 0.614056 0.318710
O O10 0.695134 0.606755 0.259747
O O11 0.500000 0.883804 0.652925
O O12 0.255702 0.915631 0.675596
O O13 0.303595 0.888590 0.590971
O O14 0.000000 0.914735 0.700442
O O15 0.839294 0.000000 0.726813
O O16 0.789290 0.500000 0.061076
O O17 0.000000 0.437491 0.048844
O O18 0.793133 0.411750 0.000000
O O19 0.000000 0.500000 0.454230
O O20 0.000000 0.400966 0.500000
O O21 0.000000 0.798659 0.043048
O O22 0.780615 0.817622 0.000000
#
# Coordination Sequence:
#
# PCOD8287428 Si02
#       8
#    16  16  16  16  16  16   8  16
#     4   8  16  30  48  70  97 128 162 202 246 292
#     4  10  18  29  46  66  91 128 171 212 252 298
#     4   9  18  34  53  71  96 130 168 208 252 305
#     4  10  19  32  53  79 104 132 166 207 253 298
#     4  10  21  36  54  76 102 134 167 203 255 312
#     4   8  14  25  43  70 102 130 158 195 239 290
#     4   9  18  30  42  60  90 128 166 204 252 306
#     4   9  17  28  44  69  98 126 160 207 256 297
#
# _framework density 18.110866000000001
#
# number of rings (size 3 to 8) (size 9 to 14) (size 15 to 20)
#    0.000    2.867    0.000    2.800    0.000    4.267 
#    1.200    3.333    5.867    0.400    0.000    1.867 
#    0.000    0.000    0.000    0.000    0.000    0.000 
#
# Total GULP energy -743415.647579 kJ/mol
# GULP energy per Si atom -12390.260793 kJ/mol
# Density = 1.806964 g / cm^3
# Si number density = 18.110866 Si / 1000 Ang^3
#
#
#
# Elastic Constant Matrix: (Units=GPa)
#
#
# Indices 1 2 3 4 5 6 
#
# 1 43.7016 16.0311 36.5506 0.0000 0.0000 0.0000
# 2 16.0311 86.6746 40.8980 0.0000 0.0000 0.0000
# 3 36.5506 40.8980 126.1985 0.0000 0.0000 0.0000
# 4 0.0000 0.0000 0.0000 23.2978 0.0000 0.0000
# 5 0.0000 0.0000 0.0000 0.0000 21.0643 0.0000
# 6 0.0000 0.0000 0.0000 0.0000 0.0000 13.9215
#
#
#
# Elastic Compliance Matrix: (Units=1/GPa)
#
#
# Indices 1 2 3 4 5 6 
#
# 1 0.030417 -0.001734 -0.008247 0.000000 0.000000 0.000000
# 2 -0.001734 0.013719 -0.003944 0.000000 0.000000 0.000000
# 3 -0.008247 -0.003944 0.011591 0.000000 0.000000 0.000000
# 4 0.000000 0.000000 0.000000 0.042923 0.000000 0.000000
# 5 0.000000 0.000000 0.000000 0.000000 0.047474 0.000000
# 6 0.000000 0.000000 0.000000 0.000000 0.000000 0.071831
#
#
# Mechanical properties :
#
#
# Convention : Reuss Voigt Hill
#
# Bulk Modulus (GPa) = 35.87366 49.28157 42.57762
# Shear Modulus (GPa) = 19.60041 22.52971 21.06506
#
# Velocity S-wave (km/s) = 3.29332 3.53085 3.41415
# Velocity P-wave (km/s) = 5.85765 6.62515 6.25319
#
# Compressibility (1/GPa) = 0.02787560
#
# Stress axis : x y z
#
# Youngs Moduli (GPa) = 32.87686 72.89141 86.27535
#
# Poissons Ratio (x) = 0.12640 0.71155
# Poissons Ratio (y) = 0.05701 0.34025
# Poissons Ratio (z) = 0.27115 0.28747
#
# Static dielectric constant tensor:
#      x y z
#    x 3.059070 0.000000 0.000000 
#    y 0.000000 3.449820 0.000000 
#    z 0.000000 0.000000 3.574420 
# 
# 
# High freq. dielectric constant tensor:
#      x y z
#    x 1.651050 0.000000 0.000000 
#    y 0.000000 1.696510 0.000000 
#    z 0.000000 0.000000 1.708310 
# 
# From -- ./inp_files/64864.got.cif
#   From: 2010.06.25/outbox.cif.g09.slc.cpg/sg71_33_cif.got.tgz:64864.got - 2010.06.28 04:59:45.
