data_PCOD8287686
_publ_section_title
;
Structure prediction by ZEFSAII (Michael W. Deem and Ramdas Pophale) SiO2 
 PCOD8287686
Probable space group: I M M M
;
_chemical_formula_sum "Si O2"
_cell_formula_units_Z 88
_cell_length_a 24.188321
_cell_length_b 9.410982
_cell_length_c 22.183863
_cell_angle_alpha 90.000000
_cell_angle_beta 90.000000
_cell_angle_gamma 90.000000
_cell_volume 5049.842589
_symmetry_space_group_name_H-M "I M M M"
_symmetry_group_IT_number 71
_symmetry_cell_setting 'orthorhombic'
loop_
_space_group_symop_operation_xyz
x,y,z
-x,-y,z
x,-y,-z
-x,y,-z
-x,-y,-z
x,y,-z
-x,y,z
x,-y,z
1/2+x,1/2+y,1/2+z
1/2-x,1/2-y,1/2+z
1/2+x,1/2-y,1/2-z
1/2-x,1/2+y,1/2-z
1/2-x,1/2-y,1/2-z
1/2+x,1/2+y,1/2-z
1/2-x,1/2+y,1/2+z
1/2+x,1/2-y,1/2+z
loop_
_atom_site_type_symbol
_atom_site_label
_atom_site_fract_x
_atom_site_fract_y
_atom_site_fract_z
Si Si1 0.564108 0.161738 0.854384
Si Si2 0.255848 0.337294 0.569633
Si Si3 0.625873 0.666634 0.617103
Si Si4 0.437467 0.669077 0.500000
Si Si5 0.649568 0.665126 0.070384
Si Si6 0.937105 0.335512 0.215181
O O1 0.500000 0.187895 0.868267
O O2 0.597988 0.269941 0.894902
O O3 0.576974 0.192488 0.784722
O O4 0.580355 0.000000 0.870600
O O5 0.270920 0.308714 0.500000
O O6 0.237654 0.500000 0.578946
O O7 0.309376 0.300442 0.609266
O O8 0.206168 0.238390 0.592292
O O9 0.614890 0.500000 0.624275
O O10 0.592802 0.727736 0.559485
O O11 0.605385 0.743484 0.676894
O O12 0.434493 0.500000 0.500000
O O13 0.500000 0.725762 0.500000
O O14 0.653846 0.500000 0.085740
O O15 0.640181 0.693640 0.000000
O O16 0.929232 0.500000 0.199029
O O17 0.000000 0.288376 0.201156
#
# Coordination Sequence:
#
# PCOD8287686 Si02
#       6
#    16  16  16   8  16  16
#     4   9  19  37  58  77 100 134 172 206 246 302
#     4   9  17  32  52  73 101 137 176 213 250 298
#     4  10  18  30  50  76 101 133 177 217 255 298
#     4   9  16  26  43  71 105 133 164 213 260 295
#     4  10  21  35  53  80 109 132 160 204 258 308
#     4   9  19  35  52  72 102 137 171 210 256 304
#
# _framework density 17.426286000000001
#
# number of rings (size 3 to 8) (size 9 to 14) (size 15 to 20)
#    0.000    2.636    0.909    2.182    0.000    4.364 
#    0.000    5.000    0.000    1.636    0.000    0.000 
#    0.000    0.000    0.000    0.000    0.000    0.000 
#
# Total GULP energy -545675.342966 kJ/mol
# GULP energy per Si atom -12401.712340 kJ/mol
# Density = 1.738662 g / cm^3
# Si number density = 17.426286 Si / 1000 Ang^3
#
#
#
# Elastic Constant Matrix: (Units=GPa)
#
#
# Indices 1 2 3 4 5 6 
#
# 1 117.7684 71.6156 63.8045 0.0000 0.0000 0.0000
# 2 71.6156 88.4427 54.7865 0.0000 0.0000 0.0000
# 3 63.8045 54.7865 71.7224 0.0000 0.0000 0.0000
# 4 0.0000 0.0000 0.0000 31.2504 0.0000 0.0000
# 5 0.0000 0.0000 0.0000 0.0000 28.8714 0.0000
# 6 0.0000 0.0000 0.0000 0.0000 0.0000 30.1802
#
#
#
# Elastic Compliance Matrix: (Units=1/GPa)
#
#
# Indices 1 2 3 4 5 6 
#
# 1 0.020090 -0.009864 -0.010337 0.000000 0.000000 0.000000
# 2 -0.009864 0.026306 -0.011319 0.000000 0.000000 0.000000
# 3 -0.010337 -0.011319 0.031785 0.000000 0.000000 0.000000
# 4 0.000000 0.000000 0.000000 0.032000 0.000000 0.000000
# 5 0.000000 0.000000 0.000000 0.000000 0.034636 0.000000
# 6 0.000000 0.000000 0.000000 0.000000 0.000000 0.033134
#
#
# Mechanical properties :
#
#
# Convention : Reuss Voigt Hill
#
# Bulk Modulus (GPa) = 66.05035 73.14966 69.60001
# Shear Modulus (GPa) = 20.32192 23.90884 22.11538
#
# Velocity S-wave (km/s) = 3.41862 3.70807 3.56628
# Velocity P-wave (km/s) = 7.31899 7.77179 7.54879
#
# Compressibility (1/GPa) = 0.01513996
#
# Stress axis : x y z
#
# Youngs Moduli (GPa) = 49.77479 38.01424 31.46148
#
# Poissons Ratio (x) = 0.37499 0.32523
# Poissons Ratio (y) = 0.49100 0.35611
# Poissons Ratio (z) = 0.51454 0.43027
#
# Static dielectric constant tensor:
#      x y z
#    x 3.234040 0.000000 0.000000 
#    y 0.000000 3.093480 0.000000 
#    z 0.000000 0.000000 3.093510 
# 
# 
# High freq. dielectric constant tensor:
#      x y z
#    x 1.678430 0.000000 0.000000 
#    y 0.000000 1.662010 0.000000 
#    z 0.000000 0.000000 1.662860 
# 
# From -- ./inp_files/10425.got.cif
#   From: 2010.06.25/outbox.cif.g09.slc.cpg/sg71_6_cif.got.tgz:10425.got - 2010.06.28 04:59:45.
