data_PCOD8287990
_publ_section_title
;
Structure prediction by ZEFSAII (Michael W. Deem and Ramdas Pophale) SiO2 
 PCOD8287990
Probable space group: I M M M
;
_chemical_formula_sum "Si O2"
_cell_formula_units_Z 52
_cell_length_a 7.980994
_cell_length_b 16.966051
_cell_length_c 19.647653
_cell_angle_alpha 90.000000
_cell_angle_beta 90.000000
_cell_angle_gamma 90.000000
_cell_volume 2660.409144
_symmetry_space_group_name_H-M "I M M M"
_symmetry_group_IT_number 71
_symmetry_cell_setting 'orthorhombic'
loop_
_space_group_symop_operation_xyz
x,y,z
-x,-y,z
x,-y,-z
-x,y,-z
-x,-y,-z
x,y,-z
-x,y,z
x,-y,z
1/2+x,1/2+y,1/2+z
1/2-x,1/2-y,1/2+z
1/2+x,1/2-y,1/2-z
1/2-x,1/2+y,1/2-z
1/2-x,1/2-y,1/2-z
1/2+x,1/2+y,1/2-z
1/2-x,1/2+y,1/2+z
1/2+x,1/2-y,1/2+z
loop_
_atom_site_type_symbol
_atom_site_label
_atom_site_fract_x
_atom_site_fract_y
_atom_site_fract_z
Si Si1 0.692342 0.411336 0.630666
Si Si2 0.184886 0.406366 0.773640
Si Si3 0.500000 0.593831 0.141751
Si Si4 0.500000 0.677500 0.000000
Si Si5 0.315367 0.171116 0.000000
O O1 0.500000 0.411934 0.652737
O O2 0.750633 0.500000 0.611215
O O3 0.793485 0.377886 0.695564
O O4 0.716290 0.354559 0.566810
O O5 0.198489 0.500000 0.774323
O O6 0.332544 0.372095 0.821412
O O7 0.000000 0.378681 0.799239
O O8 0.500000 0.500000 0.143059
O O9 0.500000 0.621609 0.064720
O O10 0.334795 0.733674 0.000000
O O11 0.500000 0.131028 0.000000
#
# Coordination Sequence:
#
# PCOD8287990 Si02
#       5
#    16  16   8   4   8
#     4  10  18  32  56  87 118 154 194 232 277 333
#     4   9  17  31  58  92 117 137 180 240 294 339
#     4  10  19  40  66  86 109 141 188 254 299 331
#     4  10  25  42  55  76 114 156 200 234 283 352
#     4  10  22  35  49  72 122 155 193 227 267 333
#
# _framework density 19.545866
#
# number of rings (size 3 to 8) (size 9 to 14) (size 15 to 20)
#    0.462    1.846    1.538    2.077    0.000    3.692 
#    0.000    5.385    0.000    3.692    0.000    0.000 
#    0.000    0.000    0.000    0.000    0.000    0.000 
#
# Total GULP energy -322277.535580 kJ/mol
# GULP energy per Si atom -12395.289830 kJ/mol
# Density = 1.950138 g / cm^3
# Si number density = 19.545866 Si / 1000 Ang^3
#
#
#
# Elastic Constant Matrix: (Units=GPa)
#
#
# Indices 1 2 3 4 5 6 
#
# 1 135.8983 20.1790 65.0002 0.0000 0.0000 0.0000
# 2 20.1790 25.7842 20.1211 0.0000 0.0000 0.0000
# 3 65.0002 20.1211 140.7920 0.0000 0.0000 0.0000
# 4 0.0000 0.0000 0.0000 -0.5842 0.0000 0.0000
# 5 0.0000 0.0000 0.0000 0.0000 25.0996 0.0000
# 6 0.0000 0.0000 0.0000 0.0000 0.0000 16.9413
#
#
#
# Elastic Compliance Matrix: (Units=1/GPa)
#
#
# Indices 1 2 3 4 5 6 
#
# 1 0.009929 -0.004720 -0.003910 0.000000 0.000000 0.000000
# 2 -0.004720 0.045895 -0.004380 -0.000001 0.000000 0.000000
# 3 -0.003910 -0.004380 0.009534 0.000000 0.000000 0.000000
# 4 0.000000 -0.000001 0.000000 -1.711776 0.000000 0.000000
# 5 0.000000 0.000000 0.000000 0.000000 0.039841 0.000000
# 6 0.000000 0.000000 0.000000 0.000000 0.000000 0.059027
#
#
# Mechanical properties :
#
#
# Convention : Reuss Voigt Hill
#
# Bulk Modulus (GPa) = 25.41991 57.00834 41.21412
# Shear Modulus (GPa) = -3.31473 21.43629 9.06078
#
# Velocity S-wave (km/s) = -1.30367 3.31526 2.15539
# Velocity P-wave (km/s) = 3.28137 6.62453 5.22742
#
# Compressibility (1/GPa) = 0.03933924
#
# Stress axis : x y z
#
# Youngs Moduli (GPa) = 100.71288 21.78875 104.89234
#
# Poissons Ratio (x) = 0.10284 0.41008
# Poissons Ratio (y) = 0.47535 0.45943
# Poissons Ratio (z) = 0.39374 0.09543
#
# Static dielectric constant tensor:
#      x y z
#    x 3.749080 0.000000 0.000000 
#    y 0.000000 3.056800 0.000000 
#    z 0.000000 0.000000 3.394530 
# 
# 
# High freq. dielectric constant tensor:
#      x y z
#    x 1.769600 0.000000 0.000000 
#    y 0.000000 1.712320 0.000000 
#    z 0.000000 0.000000 1.760820 
# 
# From -- ./inp_files/7135.got.cif
#   From: 2010.06.25/outbox.cif.g09.slc.cpg/sg71_4_cif.got.tgz:7135.got - 2010.06.28 04:59:45.
