data_PCOD8287922
_publ_section_title
;
Structure prediction by ZEFSAII (Michael W. Deem and Ramdas Pophale) SiO2 
 PCOD8287922
Probable space group: I M M M
;
_chemical_formula_sum "Si O2"
_cell_formula_units_Z 96
_cell_length_a 23.650561
_cell_length_b 8.756308
_cell_length_c 25.741089
_cell_angle_alpha 90.000000
_cell_angle_beta 90.000000
_cell_angle_gamma 90.000000
_cell_volume 5330.763216
_symmetry_space_group_name_H-M "I M M M"
_symmetry_group_IT_number 71
_symmetry_cell_setting 'orthorhombic'
loop_
_space_group_symop_operation_xyz
x,y,z
-x,-y,z
x,-y,-z
-x,y,-z
-x,-y,-z
x,y,-z
-x,y,z
x,-y,z
1/2+x,1/2+y,1/2+z
1/2-x,1/2-y,1/2+z
1/2+x,1/2-y,1/2-z
1/2-x,1/2+y,1/2-z
1/2-x,1/2-y,1/2-z
1/2+x,1/2+y,1/2-z
1/2-x,1/2+y,1/2+z
1/2+x,1/2-y,1/2+z
loop_
_atom_site_type_symbol
_atom_site_label
_atom_site_fract_x
_atom_site_fract_y
_atom_site_fract_z
Si Si1 0.183614 0.818676 0.557128
Si Si2 0.118857 0.818540 0.656636
Si Si3 0.000000 0.819372 0.697336
Si Si4 0.500000 0.681219 0.685008
Si Si5 0.810094 0.318689 0.942109
Si Si6 0.615546 0.818655 0.347271
Si Si7 0.188537 0.680163 0.748715
O O1 0.164990 0.758778 0.500000
O O2 0.138438 0.761942 0.599680
O O3 0.246739 0.757956 0.570410
O O4 0.185298 0.000000 0.556792
O O5 0.054834 0.761923 0.665964
O O6 0.158826 0.737945 0.697339
O O7 0.124596 0.000000 0.663179
O O8 0.000000 0.753302 0.755950
O O9 0.000000 0.000000 0.700807
O O10 0.500000 0.500000 0.684840
O O11 0.445443 0.741377 0.654801
O O12 0.809452 0.500000 0.939392
O O13 0.853823 0.256054 0.899338
O O14 0.828539 0.264581 0.000000
O O15 0.652815 0.764560 0.298414
O O16 0.607973 0.000000 0.348011
O O17 0.193886 0.500000 0.748133
O O18 0.250000 0.750000 0.750000
#
# Coordination Sequence:
#
# PCOD8287922 Si02
#       7
#    16  16   8   8  16  16  16
#     4   8  14  26  48  76 103 132 165 204 252 300
#     4  10  18  32  51  72 102 136 172 210 249 298
#     4   9  18  31  48  70  99 137 172 203 250 297
#     4  11  21  35  52  71  99 138 171 204 253 301
#     4   8  14  27  48  73  98 124 159 205 254 298
#     4  10  20  34  52  75  99 128 169 211 246 293
#     4  11  22  33  49  75 104 131 163 206 258 307
#
# _framework density 18.008678
#
# number of rings (size 3 to 8) (size 9 to 14) (size 15 to 20)
#    0.000    2.500    1.667    2.750    0.000    3.333 
#    0.000    1.250    0.000    6.000    0.000    2.333 
#    0.000    1.333    0.000    0.000    0.000    0.000 
#
# Total GULP energy -595054.914523 kJ/mol
# GULP energy per Si atom -12396.977386 kJ/mol
# Density = 1.796769 g / cm^3
# Si number density = 18.008678 Si / 1000 Ang^3
#
#
#
# Elastic Constant Matrix: (Units=GPa)
#
#
# Indices 1 2 3 4 5 6 
#
# 1 152.1982 17.4208 80.6383 0.0000 0.0000 0.0000
# 2 17.4208 20.0365 12.0511 0.0000 0.0000 0.0000
# 3 80.6383 12.0511 146.7783 0.0000 0.0000 0.0000
# 4 0.0000 0.0000 0.0000 18.0274 0.0000 0.0000
# 5 0.0000 0.0000 0.0000 0.0000 29.1115 0.0000
# 6 0.0000 0.0000 0.0000 0.0000 0.0000 22.2749
#
#
#
# Elastic Compliance Matrix: (Units=1/GPa)
#
#
# Indices 1 2 3 4 5 6 
#
# 1 0.009826 -0.005571 -0.004941 0.000000 0.000000 0.000000
# 2 -0.005571 0.055661 -0.001509 0.000000 0.000000 0.000000
# 3 -0.004941 -0.001509 0.009651 0.000000 0.000000 0.000000
# 4 0.000000 0.000000 0.000000 0.055471 0.000000 0.000000
# 5 0.000000 0.000000 0.000000 0.000000 0.034351 0.000000
# 6 0.000000 0.000000 0.000000 0.000000 0.000000 0.044894
#
#
# Mechanical properties :
#
#
# Convention : Reuss Voigt Hill
#
# Bulk Modulus (GPa) = 19.57126 59.91481 39.74304
# Shear Modulus (GPa) = 19.92605 27.80959 23.86782
#
# Velocity S-wave (km/s) = 3.32997 3.93394 3.64449
# Velocity P-wave (km/s) = 5.06717 7.34688 6.31082
#
# Compressibility (1/GPa) = 0.05109532
#
# Stress axis : x y z
#
# Youngs Moduli (GPa) = 101.77252 17.96596 103.61309
#
# Poissons Ratio (x) = 0.10010 0.51193
# Poissons Ratio (y) = 0.56702 0.15636
# Poissons Ratio (z) = 0.50283 0.02711
#
# Static dielectric constant tensor:
#      x y z
#    x 3.562020 0.000000 0.000000 
#    y 0.000000 2.929380 0.000000 
#    z 0.000000 0.000000 3.680360 
# 
# 
# High freq. dielectric constant tensor:
#      x y z
#    x 1.701610 0.000000 0.000000 
#    y 0.000000 1.654650 0.000000 
#    z 0.000000 0.000000 1.704620 
# 
# From -- ./inp_files/12899.got.cif
#   From: 2010.06.25/outbox.cif.g09.slc.cpg/sg71_7_cif.got.tgz:12899.got - 2010.06.28 04:59:45.
