data_PCOD8287182
_publ_section_title
;
Structure prediction by ZEFSAII (Michael W. Deem and Ramdas Pophale) SiO2 
 PCOD8287182
Probable space group: I M M M
;
_chemical_formula_sum "Si O2"
_cell_formula_units_Z 104
_cell_length_a 9.030052
_cell_length_b 24.240290
_cell_length_c 33.592370
_cell_angle_alpha 90.000000
_cell_angle_beta 90.000000
_cell_angle_gamma 90.000000
_cell_volume 7353.070122
_symmetry_space_group_name_H-M "I M M M"
_symmetry_group_IT_number 71
_symmetry_cell_setting 'orthorhombic'
loop_
_space_group_symop_operation_xyz
x,y,z
-x,-y,z
x,-y,-z
-x,y,-z
-x,-y,-z
x,y,-z
-x,y,z
x,-y,z
1/2+x,1/2+y,1/2+z
1/2-x,1/2-y,1/2+z
1/2+x,1/2-y,1/2-z
1/2-x,1/2+y,1/2-z
1/2-x,1/2-y,1/2-z
1/2+x,1/2+y,1/2-z
1/2-x,1/2+y,1/2+z
1/2+x,1/2-y,1/2+z
loop_
_atom_site_type_symbol
_atom_site_label
_atom_site_fract_x
_atom_site_fract_y
_atom_site_fract_z
Si Si1 0.323013 0.381421 0.044076
Si Si2 0.839843 0.000000 0.546754
Si Si3 0.173130 0.438539 0.254364
Si Si4 0.329007 0.332622 0.876515
Si Si5 0.833039 0.939237 0.327201
Si Si6 0.172736 0.167069 0.764762
Si Si7 0.673028 0.776922 0.308154
O O1 0.500000 0.387869 0.043960
O O2 0.255794 0.441970 0.056430
O O3 0.277938 0.335501 0.077080
O O4 0.267262 0.362794 0.000000
O O5 0.868015 0.000000 0.500000
O O6 0.000000 0.000000 0.568894
O O7 0.215710 0.500000 0.270052
O O8 0.218342 0.432137 0.208553
O O9 0.257737 0.391044 0.279538
O O10 0.000000 0.428150 0.258501
O O11 0.500000 0.315010 0.872369
O O12 0.299741 0.393982 0.860279
O O13 0.230683 0.288107 0.852806
O O14 0.000000 0.932506 0.310141
O O15 0.812936 0.000000 0.346787
O O16 0.242100 0.183244 0.722246
O O17 0.207950 0.213256 0.797800
O O18 0.000000 0.159812 0.757815
O O19 0.500000 0.789733 0.304828
#
# Coordination Sequence:
#
# PCOD8287182 Si02
#       7
#    16   8  16  16  16  16  16
#     4   8  14  23  35  53  76  99 125 161 201 240
#     4   7  10  18  32  50  73  97 121 155 199 239
#     4  10  19  29  42  60  81 104 128 156 194 236
#     4  10  18  26  40  59  77  99 131 165 203 245
#     4   9  17  26  35  51  76 102 130 165 200 235
#     4  10  19  31  45  59  76 101 132 162 196 234
#     4  10  20  31  43  58  77 101 129 165 203 237
#
# _framework density 14.143751999999999
#
# number of rings (size 3 to 8) (size 9 to 14) (size 15 to 20)
#    0.000    2.692    1.538    2.308    1.077    2.769 
#    0.000    0.000    0.000    0.462    0.000    0.000 
#    0.000    1.846    0.000    0.000    0.000    0.769 
#
# Total GULP energy -644306.465712 kJ/mol
# GULP energy per Si atom -12390.508956 kJ/mol
# Density = 1.411156 g / cm^3
# Si number density = 14.143752 Si / 1000 Ang^3
#
#
#
# Elastic Constant Matrix: (Units=GPa)
#
#
# Indices 1 2 3 4 5 6 
#
# 1 54.3683 42.1273 23.4580 0.0000 0.0000 0.0000
# 2 42.1273 90.9013 40.3687 0.0000 0.0000 0.0000
# 3 23.4580 40.3687 70.5528 0.0000 0.0000 0.0000
# 4 0.0000 0.0000 0.0000 20.6250 0.0000 0.0000
# 5 0.0000 0.0000 0.0000 0.0000 11.0570 0.0000
# 6 0.0000 0.0000 0.0000 0.0000 0.0000 19.5914
#
#
#
# Elastic Compliance Matrix: (Units=1/GPa)
#
#
# Indices 1 2 3 4 5 6 
#
# 1 0.029056 -0.012301 -0.002622 0.000000 0.000000 0.000000
# 2 -0.012301 0.019956 -0.007329 0.000000 0.000000 0.000000
# 3 -0.002622 -0.007329 0.019239 0.000000 0.000000 0.000000
# 4 0.000000 0.000000 0.000000 0.048485 0.000000 0.000000
# 5 0.000000 0.000000 0.000000 0.000000 0.090441 0.000000
# 6 0.000000 0.000000 0.000000 0.000000 0.000000 0.051043
#
#
# Mechanical properties :
#
#
# Convention : Reuss Voigt Hill
#
# Bulk Modulus (GPa) = 42.11032 47.52560 44.81796
# Shear Modulus (GPa) = 16.09583 17.57925 16.83754
#
# Velocity S-wave (km/s) = 3.37711 3.52930 3.45404
# Velocity P-wave (km/s) = 6.71150 7.09103 6.90387
#
# Compressibility (1/GPa) = 0.02374715
#
# Stress axis : x y z
#
# Youngs Moduli (GPa) = 34.41616 50.10928 51.97797
#
# Poissons Ratio (x) = 0.61640 0.13631
# Poissons Ratio (y) = 0.42336 0.38092
# Poissons Ratio (z) = 0.09025 0.36723
#
# Static dielectric constant tensor:
#      x y z
#    x 2.649230 0.000000 0.000000 
#    y 0.000000 2.927830 0.000000 
#    z 0.000000 0.000000 2.634620 
# 
# 
# High freq. dielectric constant tensor:
#      x y z
#    x 1.526560 0.000000 0.000000 
#    y 0.000000 1.526390 0.000000 
#    z 0.000000 0.000000 1.500330 
# 
# From -- ./inp_files/68558.got.cif
#   From: 2010.06.25/outbox.cif.g09.slc.cpg/sg71_35_cif.got.tgz:68558.got - 2010.06.28 04:59:45.
