data_PCOD8287930
_publ_section_title
;
Structure prediction by ZEFSAII (Michael W. Deem and Ramdas Pophale) SiO2 
 PCOD8287930
Probable space group: I M M M
;
_chemical_formula_sum "Si O2"
_cell_formula_units_Z 96
_cell_length_a 18.310306
_cell_length_b 11.570352
_cell_length_c 28.189930
_cell_angle_alpha 90.000000
_cell_angle_beta 90.000000
_cell_angle_gamma 90.000000
_cell_volume 5972.225138
_symmetry_space_group_name_H-M "I M M M"
_symmetry_group_IT_number 71
_symmetry_cell_setting 'orthorhombic'
loop_
_space_group_symop_operation_xyz
x,y,z
-x,-y,z
x,-y,-z
-x,y,-z
-x,-y,-z
x,y,-z
-x,y,z
x,-y,z
1/2+x,1/2+y,1/2+z
1/2-x,1/2-y,1/2+z
1/2+x,1/2-y,1/2-z
1/2-x,1/2+y,1/2-z
1/2-x,1/2-y,1/2-z
1/2+x,1/2+y,1/2-z
1/2-x,1/2+y,1/2+z
1/2+x,1/2-y,1/2+z
loop_
_atom_site_type_symbol
_atom_site_label
_atom_site_fract_x
_atom_site_fract_y
_atom_site_fract_z
Si Si1 0.918455 0.000000 0.799364
Si Si2 0.586782 0.124150 0.500000
Si Si3 0.915073 0.224137 0.084484
Si Si4 0.770009 0.000000 0.848839
Si Si5 0.357705 0.864770 0.670594
Si Si6 0.082891 0.235055 0.742746
Si Si7 0.672456 0.500000 0.443829
Si Si8 0.723262 0.761931 0.196351
O O1 0.858192 0.000000 0.840600
O O2 0.907479 0.888289 0.767237
O O3 0.000000 0.000000 0.822617
O O4 0.500000 0.117219 0.500000
O O5 0.615090 0.183929 0.547199
O O6 0.623980 0.000000 0.500000
O O7 0.900179 0.277569 0.135904
O O8 0.000000 0.197908 0.079116
O O9 0.873987 0.109564 0.070579
O O10 0.734189 0.888916 0.824874
O O11 0.758692 0.000000 0.906507
O O12 0.392260 0.838281 0.722064
O O13 0.271322 0.832282 0.667471
O O14 0.369057 0.000000 0.658175
O O15 0.136219 0.235787 0.696510
O O16 0.000000 0.255849 0.725764
O O17 0.694974 0.500000 0.500000
O O18 0.750000 0.750000 0.250000
#
# Coordination Sequence:
#
# PCOD8287930 Si02
#       8
#     8   8  16   8  16  16   8  16
#     4  10  18  32  52  74 103 136 173 212 252 294
#     4   9  18  31  47  65  91 126 164 209 260 296
#     4  11  21  34  49  69  95 130 174 220 257 289
#     4  12  20  38  53  75 100 140 178 211 255 300
#     4  11  22  33  49  69  98 135 170 206 253 306
#     4  10  21  33  49  73  99 130 166 209 253 301
#     4  12  23  37  53  73 101 132 178 227 261 296
#     4  10  21  33  53  71  98 131 169 210 251 307
#
# _framework density 16.074411000000001
#
# number of rings (size 3 to 8) (size 9 to 14) (size 15 to 20)
#    0.000    1.417    5.833    1.250    5.833    4.333 
#    0.000    0.000    0.000    0.000    0.000    0.000 
#    0.000    1.333    0.000    0.000    0.000   12.500 
#
# Total GULP energy -594789.458878 kJ/mol
# GULP energy per Si atom -12391.447060 kJ/mol
# Density = 1.603783 g / cm^3
# Si number density = 16.074411 Si / 1000 Ang^3
#
#
#
# Elastic Constant Matrix: (Units=GPa)
#
#
# Indices 1 2 3 4 5 6 
#
# 1 83.7338 18.1589 20.6151 0.0000 0.0000 0.0000
# 2 18.1589 106.5362 27.8020 0.0000 0.0000 0.0000
# 3 20.6151 27.8020 61.8127 0.0000 0.0000 0.0000
# 4 0.0000 0.0000 0.0000 18.9390 0.0000 0.0000
# 5 0.0000 0.0000 0.0000 0.0000 16.2143 0.0000
# 6 0.0000 0.0000 0.0000 0.0000 0.0000 20.8313
#
#
#
# Elastic Compliance Matrix: (Units=1/GPa)
#
#
# Indices 1 2 3 4 5 6 
#
# 1 0.013155 -0.001243 -0.003828 0.000000 0.000000 0.000000
# 2 -0.001243 0.010752 -0.004421 0.000000 0.000000 0.000000
# 3 -0.003828 -0.004421 0.019443 0.000000 0.000000 0.000000
# 4 0.000000 0.000000 0.000000 0.052801 0.000000 0.000000
# 5 0.000000 0.000000 0.000000 0.000000 0.061674 0.000000
# 6 0.000000 0.000000 0.000000 0.000000 0.000000 0.048005
#
#
# Mechanical properties :
#
#
# Convention : Reuss Voigt Hill
#
# Bulk Modulus (GPa) = 41.04298 42.80385 41.92342
# Shear Modulus (GPa) = 21.46502 23.56403 22.51452
#
# Velocity S-wave (km/s) = 3.65821 3.83291 3.74658
# Velocity P-wave (km/s) = 6.59029 6.80254 6.69726
#
# Compressibility (1/GPa) = 0.02436470
#
# Stress axis : x y z
#
# Youngs Moduli (GPa) = 76.01867 93.00400 51.43165
#
# Poissons Ratio (x) = 0.11562 0.19688
# Poissons Ratio (y) = 0.09451 0.22740
# Poissons Ratio (z) = 0.29100 0.41122
#
# Static dielectric constant tensor:
#      x y z
#    x 3.291530 0.000000 0.000000 
#    y 0.000000 3.352220 0.000000 
#    z 0.000000 0.000000 3.319070 
# 
# 
# High freq. dielectric constant tensor:
#      x y z
#    x 1.588870 0.000000 0.000000 
#    y 0.000000 1.639610 0.000000 
#    z 0.000000 0.000000 1.590790 
# 
# From -- ./inp_files/65995.got.cif
#   From: 2010.06.25/outbox.cif.g09.slc.cpg/sg71_33_cif.got.tgz:65995.got - 2010.06.28 04:59:45.
