data_PCOD8287678
_publ_section_title
;
Structure prediction by ZEFSAII (Michael W. Deem and Ramdas Pophale) SiO2 
 PCOD8287678
Probable space group: I M M M
;
_chemical_formula_sum "Si O2"
_cell_formula_units_Z 104
_cell_length_a 9.396374
_cell_length_b 19.075295
_cell_length_c 32.833040
_cell_angle_alpha 90.000000
_cell_angle_beta 90.000000
_cell_angle_gamma 90.000000
_cell_volume 5884.948320
_symmetry_space_group_name_H-M "I M M M"
_symmetry_group_IT_number 71
_symmetry_cell_setting 'orthorhombic'
loop_
_space_group_symop_operation_xyz
x,y,z
-x,-y,z
x,-y,-z
-x,y,-z
-x,-y,-z
x,y,-z
-x,y,z
x,-y,z
1/2+x,1/2+y,1/2+z
1/2-x,1/2-y,1/2+z
1/2+x,1/2-y,1/2-z
1/2-x,1/2+y,1/2-z
1/2-x,1/2-y,1/2-z
1/2+x,1/2+y,1/2-z
1/2-x,1/2+y,1/2+z
1/2+x,1/2-y,1/2+z
loop_
_atom_site_type_symbol
_atom_site_label
_atom_site_fract_x
_atom_site_fract_y
_atom_site_fract_z
Si Si1 0.330398 0.668173 0.121288
Si Si2 0.163682 0.805795 0.858371
Si Si3 0.163209 0.080063 0.923937
Si Si4 0.165860 0.816039 0.765596
Si Si5 0.168312 0.922052 0.697914
Si Si6 0.340009 0.083448 0.000000
Si Si7 0.331080 0.578655 0.954672
O O1 0.500000 0.676576 0.121665
O O2 0.261934 0.744294 0.124704
O O3 0.275745 0.621271 0.159026
O O4 0.274215 0.632146 0.079577
O O5 0.194116 0.875393 0.883910
O O6 0.203388 0.828022 0.812609
O O7 0.000000 0.781433 0.861629
O O8 0.259651 0.111267 0.960077
O O9 0.000000 0.085839 0.938108
O O10 0.203712 0.000000 0.913672
O O11 0.250000 0.750000 0.750000
O O12 0.214664 0.883774 0.739674
O O13 0.000000 0.801219 0.758533
O O14 0.000000 0.928042 0.695047
O O15 0.235882 0.000000 0.697601
O O16 0.500000 0.113269 0.000000
O O17 0.336979 0.000000 0.000000
O O18 0.500000 0.576975 0.952732
O O19 0.273721 0.500000 0.945691
O O20 0.281155 0.602856 0.000000
#
# Coordination Sequence:
#
# PCOD8287678 Si02
#       7
#    16  16  16  16  16   8  16
#     4  10  18  30  50  74 101 133 167 202 246 300
#     4  10  21  34  50  73 102 135 168 204 251 302
#     4   9  18  34  54  74  99 134 174 210 248 299
#     4  10  19  33  52  72  98 133 166 204 252 302
#     4   9  17  29  49  77 100 123 165 214 250 285
#     4   9  17  31  53  79 103 127 160 207 258 301
#     4   8  14  26  46  72 100 128 161 205 249 286
#
# _framework density 17.672203
#
# number of rings (size 3 to 8) (size 9 to 14) (size 15 to 20)
#    0.000    2.692    1.538    1.154    0.000    4.000 
#    1.385    3.077    0.000    3.231    0.000    3.231 
#    0.000    0.000    0.000    0.000    0.000    0.000 
#
# Total GULP energy -644693.236243 kJ/mol
# GULP energy per Si atom -12397.946851 kJ/mol
# Density = 1.763198 g / cm^3
# Si number density = 17.672203 Si / 1000 Ang^3
#
#
#
# Elastic Constant Matrix: (Units=GPa)
#
#
# Indices 1 2 3 4 5 6 
#
# 1 42.6967 34.0010 44.5421 0.0000 0.0000 0.0000
# 2 34.0010 110.1931 73.4489 0.0000 0.0000 0.0000
# 3 44.5421 73.4489 168.5216 0.0000 0.0000 0.0000
# 4 0.0000 0.0000 0.0000 34.8346 0.0000 0.0000
# 5 0.0000 0.0000 0.0000 0.0000 18.7110 0.0000
# 6 0.0000 0.0000 0.0000 0.0000 0.0000 23.2048
#
#
#
# Elastic Compliance Matrix: (Units=1/GPa)
#
#
# Indices 1 2 3 4 5 6 
#
# 1 0.035459 -0.006616 -0.006488 0.000000 0.000000 0.000000
# 2 -0.006616 0.014025 -0.004364 0.000000 0.000000 0.000000
# 3 -0.006488 -0.004364 0.009551 0.000000 0.000000 0.000000
# 4 0.000000 0.000000 0.000000 0.028707 0.000000 0.000000
# 5 0.000000 0.000000 0.000000 0.000000 0.053445 0.000000
# 6 0.000000 0.000000 0.000000 0.000000 0.000000 0.043094
#
#
# Mechanical properties :
#
#
# Convention : Reuss Voigt Hill
#
# Bulk Modulus (GPa) = 41.49822 69.48836 55.49329
# Shear Modulus (GPa) = 22.00209 26.64471 24.32340
#
# Velocity S-wave (km/s) = 3.53230 3.88715 3.71396
# Velocity P-wave (km/s) = 6.33793 7.71704 7.06123
#
# Compressibility (1/GPa) = 0.02409742
#
# Stress axis : x y z
#
# Youngs Moduli (GPa) = 28.20190 71.29950 104.70108
#
# Poissons Ratio (x) = 0.47173 0.67935
# Poissons Ratio (y) = 0.18659 0.45693
# Poissons Ratio (z) = 0.18299 0.31116
#
# Static dielectric constant tensor:
#      x y z
#    x 3.003870 0.000000 0.000000 
#    y 0.000000 3.195310 0.000000 
#    z 0.000000 0.000000 3.405610 
# 
# 
# High freq. dielectric constant tensor:
#      x y z
#    x 1.644880 0.000000 0.000000 
#    y 0.000000 1.676480 0.000000 
#    z 0.000000 0.000000 1.699120 
# 
# From -- ./inp_files/68256.got.cif
#   From: 2010.06.25/outbox.cif.g09.slc.cpg/sg71_35_cif.got.tgz:68256.got - 2010.06.28 04:59:45.
