data_PCOD8287414
_publ_section_title
;
Structure prediction by ZEFSAII (Michael W. Deem and Ramdas Pophale) SiO2 
 PCOD8287414
Probable space group: I M M M
;
_chemical_formula_sum "Si O2"
_cell_formula_units_Z 88
_cell_length_a 17.221574
_cell_length_b 10.406937
_cell_length_c 27.739146
_cell_angle_alpha 90.000000
_cell_angle_beta 90.000000
_cell_angle_gamma 90.000000
_cell_volume 4971.516144
_symmetry_space_group_name_H-M "I M M M"
_symmetry_group_IT_number 71
_symmetry_cell_setting 'orthorhombic'
loop_
_space_group_symop_operation_xyz
x,y,z
-x,-y,z
x,-y,-z
-x,y,-z
-x,-y,-z
x,y,-z
-x,y,z
x,-y,z
1/2+x,1/2+y,1/2+z
1/2-x,1/2-y,1/2+z
1/2+x,1/2-y,1/2-z
1/2-x,1/2+y,1/2-z
1/2-x,1/2-y,1/2-z
1/2+x,1/2+y,1/2-z
1/2-x,1/2+y,1/2+z
1/2+x,1/2-y,1/2+z
loop_
_atom_site_type_symbol
_atom_site_label
_atom_site_fract_x
_atom_site_fract_y
_atom_site_fract_z
Si Si1 0.766207 0.645003 0.552386
Si Si2 0.346410 0.146939 0.194153
Si Si3 0.089252 0.738732 0.599986
Si Si4 0.684036 0.650310 0.647244
Si Si5 0.091594 0.000000 0.553545
Si Si6 0.591259 0.147567 0.702894
O O1 0.757573 0.715971 0.500000
O O2 0.740743 0.500000 0.544852
O O3 0.855463 0.641802 0.570860
O O4 0.710231 0.700557 0.594142
O O5 0.398707 0.229481 0.157352
O O6 0.255389 0.166496 0.184228
O O7 0.365667 0.189900 0.248151
O O8 0.371154 0.000000 0.186051
O O9 0.119413 0.877951 0.583579
O O10 0.000000 0.712005 0.586042
O O11 0.656590 0.500000 0.646877
O O12 0.616385 0.748595 0.662677
O O13 0.128923 0.000000 0.500000
O O14 0.000000 0.000000 0.548776
O O15 0.500000 0.159122 0.710737
O O16 0.613470 0.000000 0.688478
#
# Coordination Sequence:
#
# PCOD8287414 Si02
#       6
#    16  16  16  16   8  16
#     4   9  18  32  50  72  97 125 161 208 256 296
#     4   9  18  33  51  73 102 134 165 201 248 295
#     4  10  18  29  45  67  98 135 172 205 239 286
#     4   9  18  34  53  74 102 134 167 204 246 297
#     4   9  18  30  40  54  88 136 173 205 244 278
#     4  10  20  34  53  77 104 133 165 205 254 304
#
# _framework density 17.700838000000001
#
# number of rings (size 3 to 8) (size 9 to 14) (size 15 to 20)
#    0.000    2.636    0.000    3.273    0.000    3.636 
#    8.182    0.909    0.000    0.545    0.000    3.818 
#    0.000    0.000    0.000    0.000    0.000    0.000 
#
# Total GULP energy -545275.239592 kJ/mol
# GULP energy per Si atom -12392.619082 kJ/mol
# Density = 1.766055 g / cm^3
# Si number density = 17.700838 Si / 1000 Ang^3
#
#
#
# Elastic Constant Matrix: (Units=GPa)
#
#
# Indices 1 2 3 4 5 6 
#
# 1 43.1117 24.3484 31.1953 0.0000 0.0000 0.0000
# 2 24.3484 66.8517 42.6497 0.0000 0.0000 0.0000
# 3 31.1953 42.6497 109.9188 0.0000 0.0000 0.0000
# 4 0.0000 0.0000 0.0000 24.4689 0.0000 0.0000
# 5 0.0000 0.0000 0.0000 0.0000 19.4647 0.0000
# 6 0.0000 0.0000 0.0000 0.0000 0.0000 25.0952
#
#
#
# Elastic Compliance Matrix: (Units=1/GPa)
#
#
# Indices 1 2 3 4 5 6 
#
# 1 0.031971 -0.007782 -0.006054 0.000000 0.000000 0.000000
# 2 -0.007782 0.021774 -0.006240 0.000000 0.000000 0.000000
# 3 -0.006054 -0.006240 0.013237 0.000000 0.000000 0.000000
# 4 0.000000 0.000000 0.000000 0.040868 0.000000 0.000000
# 5 0.000000 0.000000 0.000000 0.000000 0.051375 0.000000
# 6 0.000000 0.000000 0.000000 0.000000 0.000000 0.039848
#
#
# Mechanical properties :
#
#
# Convention : Reuss Voigt Hill
#
# Bulk Modulus (GPa) = 37.27174 46.25211 41.76192
# Shear Modulus (GPa) = 20.14755 21.91832 21.03293
#
# Velocity S-wave (km/s) = 3.37742 3.52272 3.45083
# Velocity P-wave (km/s) = 6.02590 6.53702 6.28666
#
# Compressibility (1/GPa) = 0.02682998
#
# Stress axis : x y z
#
# Youngs Moduli (GPa) = 31.27796 45.92682 75.54634
#
# Poissons Ratio (x) = 0.35741 0.45736
# Poissons Ratio (y) = 0.24341 0.47140
# Poissons Ratio (z) = 0.18936 0.28658
#
# Static dielectric constant tensor:
#      x y z
#    x 2.947830 0.000000 0.000000 
#    y 0.000000 3.318500 0.000000 
#    z 0.000000 0.000000 3.571450 
# 
# 
# High freq. dielectric constant tensor:
#      x y z
#    x 1.653170 0.000000 0.000000 
#    y 0.000000 1.671880 0.000000 
#    z 0.000000 0.000000 1.687350 
# 
# From -- ./inp_files/22266.got.cif
#   From: 2010.06.25/outbox.cif.g09.slc.cpg/sg71_12_cif.got.tgz:22266.got - 2010.06.28 04:59:45.
