data_PCOD8287133
_publ_section_title
;
Structure prediction by ZEFSAII (Michael W. Deem and Ramdas Pophale) SiO2 
 PCOD8287133
Probable space group: I M M M
;
_chemical_formula_sum "Si O2"
_cell_formula_units_Z 52
_cell_length_a 22.937191
_cell_length_b 9.752804
_cell_length_c 12.155655
_cell_angle_alpha 90.000000
_cell_angle_beta 90.000000
_cell_angle_gamma 90.000000
_cell_volume 2719.243461
_symmetry_space_group_name_H-M "I M M M"
_symmetry_group_IT_number 71
_symmetry_cell_setting 'orthorhombic'
loop_
_space_group_symop_operation_xyz
x,y,z
-x,-y,z
x,-y,-z
-x,y,-z
-x,-y,-z
x,y,-z
-x,y,z
x,-y,z
1/2+x,1/2+y,1/2+z
1/2-x,1/2-y,1/2+z
1/2+x,1/2-y,1/2-z
1/2-x,1/2+y,1/2-z
1/2-x,1/2-y,1/2-z
1/2+x,1/2+y,1/2-z
1/2-x,1/2+y,1/2+z
1/2+x,1/2-y,1/2+z
loop_
_atom_site_type_symbol
_atom_site_label
_atom_site_fract_x
_atom_site_fract_y
_atom_site_fract_z
Si Si1 0.713449 0.000000 0.868637
Si Si2 0.122316 0.293690 0.286378
Si Si3 0.340853 0.500000 0.000000
Si Si4 0.171453 0.000000 0.735398
Si Si5 0.568702 0.000000 0.374050
Si Si6 0.934119 0.237569 0.500000
O O1 0.683388 0.136870 0.821338
O O2 0.779788 0.000000 0.827993
O O3 0.712668 0.000000 0.000000
O O4 0.131022 0.134669 0.253990
O O5 0.095339 0.363992 0.179759
O O6 0.076900 0.321095 0.387250
O O7 0.301333 0.500000 0.110358
O O8 0.383715 0.373175 0.000000
O O9 0.500000 0.000000 0.360135
O O10 0.588080 0.000000 0.500000
O O11 0.000000 0.179554 0.500000
#
# Coordination Sequence:
#
# PCOD8287133 Si02
#       6
#     8  16   4   8   8   8
#     4  11  21  37  54  80 116 155 199 244 281 339
#     4  10  21  38  57  86 116 146 198 238 286 356
#     4   8  19  34  50  84 120 142 187 232 280 358
#     4  10  21  38  59  81 116 156 188 243 293 327
#     4  10  22  40  59  81 116 152 187 235 288 348
#     4  10  17  31  58  85 113 145 179 235 297 337
#
# _framework density 19.122966000000002
#
# number of rings (size 3 to 8) (size 9 to 14) (size 15 to 20)
#    0.000    2.000    1.538    2.077    0.000    1.231 
#    5.538    4.615    0.000    1.846    0.000    0.000 
#    0.000    0.000    0.000    0.000    0.000    0.000 
#
# Total GULP energy -322266.722205 kJ/mol
# GULP energy per Si atom -12394.873931 kJ/mol
# Density = 1.907944 g / cm^3
# Si number density = 19.122966 Si / 1000 Ang^3
#
#
#
# Elastic Constant Matrix: (Units=GPa)
#
#
# Indices 1 2 3 4 5 6 
#
# 1 78.8890 32.9308 57.7033 0.0000 0.0000 0.0000
# 2 32.9308 137.4518 59.1892 0.0000 0.0000 0.0000
# 3 57.7033 59.1892 160.8673 0.0000 0.0000 0.0000
# 4 0.0000 0.0000 0.0000 25.6837 0.0000 0.0000
# 5 0.0000 0.0000 0.0000 0.0000 32.7535 0.0000
# 6 0.0000 0.0000 0.0000 0.0000 0.0000 27.5756
#
#
#
# Elastic Compliance Matrix: (Units=1/GPa)
#
#
# Indices 1 2 3 4 5 6 
#
# 1 0.017542 -0.001774 -0.005639 0.000000 0.000000 0.000000
# 2 -0.001774 0.008824 -0.002610 0.000000 0.000000 0.000000
# 3 -0.005639 -0.002610 0.009200 0.000000 0.000000 0.000000
# 4 0.000000 0.000000 0.000000 0.038935 0.000000 0.000000
# 5 0.000000 0.000000 0.000000 0.000000 0.030531 0.000000
# 6 0.000000 0.000000 0.000000 0.000000 0.000000 0.036264
#
#
# Mechanical properties :
#
#
# Convention : Reuss Voigt Hill
#
# Bulk Modulus (GPa) = 64.44297 75.20607 69.82452
# Shear Modulus (GPa) = 30.02708 32.36157 31.19432
#
# Velocity S-wave (km/s) = 3.96689 4.11821 4.04325
# Velocity P-wave (km/s) = 7.39959 7.87565 7.64133
#
# Compressibility (1/GPa) = 0.01551760
#
# Stress axis : x y z
#
# Youngs Moduli (GPa) = 57.00745 113.32158 108.70001
#
# Poissons Ratio (x) = 0.20106 0.61300
# Poissons Ratio (y) = 0.10114 0.28375
# Poissons Ratio (z) = 0.32149 0.29582
#
# Static dielectric constant tensor:
#      x y z
#    x 3.206140 0.000000 0.000000 
#    y 0.000000 3.660510 0.000000 
#    z 0.000000 0.000000 3.860530 
# 
# 
# High freq. dielectric constant tensor:
#      x y z
#    x 1.723340 0.000000 0.000000 
#    y 0.000000 1.749130 0.000000 
#    z 0.000000 0.000000 1.752260 
# 
# From -- ./inp_files/25099.got.cif
#   From: 2010.06.25/outbox.cif.g09.slc.cpg/sg71_13_cif.got.tgz:25099.got - 2010.06.28 04:59:45.
