data_PCOD8287453
_publ_section_title
;
Structure prediction by ZEFSAII (Michael W. Deem and Ramdas Pophale) SiO2 
 PCOD8287453
Probable space group: I M M M
;
_chemical_formula_sum "Si O2"
_cell_formula_units_Z 120
_cell_length_a 21.699601
_cell_length_b 14.021638
_cell_length_c 22.062024
_cell_angle_alpha 90.000000
_cell_angle_beta 90.000000
_cell_angle_gamma 90.000000
_cell_volume 6712.678566
_symmetry_space_group_name_H-M "I M M M"
_symmetry_group_IT_number 71
_symmetry_cell_setting 'orthorhombic'
loop_
_space_group_symop_operation_xyz
x,y,z
-x,-y,z
x,-y,-z
-x,y,-z
-x,-y,-z
x,y,-z
-x,y,z
x,-y,z
1/2+x,1/2+y,1/2+z
1/2-x,1/2-y,1/2+z
1/2+x,1/2-y,1/2-z
1/2-x,1/2+y,1/2-z
1/2-x,1/2-y,1/2-z
1/2+x,1/2+y,1/2-z
1/2-x,1/2+y,1/2+z
1/2+x,1/2-y,1/2+z
loop_
_atom_site_type_symbol
_atom_site_label
_atom_site_fract_x
_atom_site_fract_y
_atom_site_fract_z
Si Si1 0.807715 0.602940 0.929053
Si Si2 0.741798 0.887838 0.127721
Si Si3 0.642049 0.298684 0.429377
Si Si4 0.431727 0.387512 0.330558
Si Si5 0.876047 0.287600 0.571970
Si Si6 0.824488 0.890757 0.377562
Si Si7 0.184224 0.887400 0.758506
Si Si8 0.500000 0.892155 0.071800
O O1 0.827513 0.500000 0.900044
O O2 0.847257 0.690892 0.903590
O O3 0.735926 0.621160 0.917745
O O4 0.817626 0.598547 0.000000
O O5 0.797388 0.862244 0.082442
O O6 0.679951 0.836264 0.107385
O O7 0.761175 0.853403 0.196013
O O8 0.729703 0.000000 0.124733
O O9 0.627150 0.298863 0.500000
O O10 0.582864 0.340662 0.395508
O O11 0.500000 0.356833 0.309376
O O12 0.426908 0.500000 0.339043
O O13 0.382246 0.349392 0.281722
O O14 0.867183 0.298152 0.500000
O O15 0.876823 0.176261 0.592211
O O16 0.939360 0.336113 0.594191
O O17 0.806560 0.853332 0.310228
O O18 0.848993 0.000000 0.376789
O O19 0.183411 0.000000 0.761027
O O20 0.500000 0.000000 0.098244
O O21 0.500000 0.896356 0.000000
#
# Coordination Sequence:
#
# PCOD8287453 Si02
#       8
#    16  16  16  16  16  16  16   8
#     4   9  17  30  48  71 102 135 162 197 250 301
#     4  10  19  31  49  74 103 131 163 207 252 294
#     4  10  18  29  46  74 104 128 163 204 244 298
#     4   9  18  33  50  69  99 135 165 200 247 299
#     4  11  21  34  52  76 102 133 172 207 248 305
#     4  10  19  33  53  76 103 131 165 210 255 301
#     4   8  17  33  50  72 101 130 164 208 251 295
#     4   9  20  38  55  71  99 137 170 202 244 301
#
# _framework density 17.876619999999999
#
# number of rings (size 3 to 8) (size 9 to 14) (size 15 to 20)
#    0.000    2.467    1.333    2.400    0.000    4.000 
#    1.200    1.000    0.000    1.600    0.000    1.867 
#    0.000    0.000    0.000    0.000    0.000    0.000 
#
# Total GULP energy -743627.806864 kJ/mol
# GULP energy per Si atom -12393.796781 kJ/mol
# Density = 1.783593 g / cm^3
# Si number density = 17.876620 Si / 1000 Ang^3
#
#
#
# Elastic Constant Matrix: (Units=GPa)
#
#
# Indices 1 2 3 4 5 6 
#
# 1 93.4624 36.8652 17.8265 0.0000 0.0000 0.0000
# 2 36.8652 82.0633 19.1622 0.0000 0.0000 0.0000
# 3 17.8265 19.1622 25.9914 0.0000 0.0000 0.0000
# 4 0.0000 0.0000 0.0000 18.1900 0.0000 0.0000
# 5 0.0000 0.0000 0.0000 0.0000 12.0664 0.0000
# 6 0.0000 0.0000 0.0000 0.0000 0.0000 26.2987
#
#
#
# Elastic Compliance Matrix: (Units=1/GPa)
#
#
# Indices 1 2 3 4 5 6 
#
# 1 0.013708 -0.004787 -0.005873 0.000000 0.000000 0.000000
# 2 -0.004787 0.016391 -0.008801 0.000000 0.000000 0.000000
# 3 -0.005873 -0.008801 0.048991 0.000000 0.000000 0.000000
# 4 0.000000 0.000000 0.000000 0.054975 0.000000 0.000000
# 5 0.000000 0.000000 0.000000 0.000000 0.082875 0.000000
# 6 0.000000 0.000000 0.000000 0.000000 0.000000 0.038025
#
#
# Mechanical properties :
#
#
# Convention : Reuss Voigt Hill
#
# Bulk Modulus (GPa) = 24.89522 38.80277 31.84899
# Shear Modulus (GPa) = 16.27206 19.82191 18.04698
#
# Velocity S-wave (km/s) = 3.02030 3.33350 3.18076
# Velocity P-wave (km/s) = 5.11070 6.04726 5.59860
#
# Compressibility (1/GPa) = 0.04016836
#
# Stress axis : x y z
#
# Youngs Moduli (GPa) = 72.95213 61.00851 20.41196
#
# Poissons Ratio (x) = 0.29202 0.11987
# Poissons Ratio (y) = 0.34919 0.17965
# Poissons Ratio (z) = 0.42842 0.53696
#
# Static dielectric constant tensor:
#      x y z
#    x 3.196380 0.000000 0.000000 
#    y 0.000000 3.689900 0.000000 
#    z 0.000000 0.000000 3.456320 
# 
# 
# High freq. dielectric constant tensor:
#      x y z
#    x 1.664820 0.000000 0.000000 
#    y 0.000000 1.697870 0.000000 
#    z 0.000000 0.000000 1.681340 
# 
# From -- ./inp_files/53454.got.cif
#   From: 2010.06.25/outbox.cif.g09.slc.cpg/sg71_27_cif.got.tgz:53454.got - 2010.06.28 04:59:45.
