data_PCOD8287943
_publ_section_title
;
Structure prediction by ZEFSAII (Michael W. Deem and Ramdas Pophale) SiO2 
 PCOD8287943
Probable space group: I M M M
;
_chemical_formula_sum "Si O2"
_cell_formula_units_Z 84
_cell_length_a 12.403099
_cell_length_b 11.537445
_cell_length_c 33.036700
_cell_angle_alpha 90.000000
_cell_angle_beta 90.000000
_cell_angle_gamma 90.000000
_cell_volume 4727.554167
_symmetry_space_group_name_H-M "I M M M"
_symmetry_group_IT_number 71
_symmetry_cell_setting 'orthorhombic'
loop_
_space_group_symop_operation_xyz
x,y,z
-x,-y,z
x,-y,-z
-x,y,-z
-x,-y,-z
x,y,-z
-x,y,z
x,-y,z
1/2+x,1/2+y,1/2+z
1/2-x,1/2-y,1/2+z
1/2+x,1/2-y,1/2-z
1/2-x,1/2+y,1/2-z
1/2-x,1/2-y,1/2-z
1/2+x,1/2+y,1/2-z
1/2-x,1/2+y,1/2+z
1/2+x,1/2-y,1/2+z
loop_
_atom_site_type_symbol
_atom_site_label
_atom_site_fract_x
_atom_site_fract_y
_atom_site_fract_z
Si Si1 0.500000 0.000000 0.423927
Si Si2 0.712862 0.634342 0.454055
Si Si3 0.500000 0.750690 0.545950
Si Si4 0.125756 0.633852 0.615963
Si Si5 0.880124 0.133781 0.240324
Si Si6 0.738248 0.711941 0.183257
Si Si7 0.379284 0.000000 0.346847
O O1 0.500000 0.888822 0.452371
O O2 0.606680 0.000000 0.395524
O O3 0.737767 0.676849 0.500000
O O4 0.683496 0.500000 0.453704
O O5 0.609388 0.699911 0.434289
O O6 0.817032 0.660674 0.426795
O O7 0.500000 0.707197 0.500000
O O8 0.144961 0.500000 0.629118
O O9 0.172538 0.720369 0.649212
O O10 0.000000 0.659703 0.610009
O O11 0.806420 0.196060 0.208014
O O12 0.844872 0.150911 0.286605
O O13 0.000000 0.184068 0.235950
O O14 0.875420 0.000000 0.229222
O O15 0.816195 0.615390 0.164894
O O16 0.500000 0.000000 0.326541
#
# Coordination Sequence:
#
# PCOD8287943 Si02
#       7
#     4  16   8  16  16  16   8
#     4  10  21  32  48  74 112 144 182 224 266 326
#     4   9  18  33  55  82 111 143 182 229 279 331
#     4  10  18  32  53  79 110 146 186 227 281 330
#     4  10  21  36  55  81 112 147 188 226 275 333
#     4  10  21  36  56  79 104 136 179 227 275 326
#     4  11  20  37  56  77 109 144 180 228 272 328
#     4  10  22  35  53  79 109 142 183 225 275 328
#
# _framework density 17.768172
#
# number of rings (size 3 to 8) (size 9 to 14) (size 15 to 20)
#    0.286    1.714    0.952    3.286    0.000    1.524 
#    1.714    1.905    0.000    0.000    0.000    0.000 
#    0.000    7.619    0.000    0.000    0.000    0.000 
#
# Total GULP energy -520719.570780 kJ/mol
# GULP energy per Si atom -12398.085019 kJ/mol
# Density = 1.772773 g / cm^3
# Si number density = 17.768172 Si / 1000 Ang^3
#
#
#
# Elastic Constant Matrix: (Units=GPa)
#
#
# Indices 1 2 3 4 5 6 
#
# 1 130.9718 53.5434 50.1982 0.0000 0.0000 0.0000
# 2 53.5434 75.5004 29.8023 0.0000 0.0000 0.0000
# 3 50.1982 29.8023 73.7570 0.0000 0.0000 0.0000
# 4 0.0000 0.0000 0.0000 22.1604 0.0000 0.0000
# 5 0.0000 0.0000 0.0000 0.0000 15.4630 0.0000
# 6 0.0000 0.0000 0.0000 0.0000 0.0000 43.7650
#
#
#
# Elastic Compliance Matrix: (Units=1/GPa)
#
#
# Indices 1 2 3 4 5 6 
#
# 1 0.012598 -0.006603 -0.005906 0.000000 0.000000 0.000000
# 2 -0.006603 0.019219 -0.003272 0.000000 0.000000 0.000000
# 3 -0.005906 -0.003272 0.018900 0.000000 0.000000 0.000000
# 4 0.000000 0.000000 0.000000 0.045126 0.000000 0.000000
# 5 0.000000 0.000000 0.000000 0.000000 0.064670 0.000000
# 6 0.000000 0.000000 0.000000 0.000000 0.000000 0.022849
#
#
# Mechanical properties :
#
#
# Convention : Reuss Voigt Hill
#
# Bulk Modulus (GPa) = 52.20532 60.81300 56.50916
# Shear Modulus (GPa) = 22.59273 26.05670 24.32471
#
# Velocity S-wave (km/s) = 3.56972 3.83362 3.70402
# Velocity P-wave (km/s) = 6.81437 7.34137 7.08277
#
# Compressibility (1/GPa) = 0.01915514
#
# Stress axis : x y z
#
# Youngs Moduli (GPa) = 79.37483 52.03121 52.91073
#
# Poissons Ratio (x) = 0.34357 0.31251
# Poissons Ratio (y) = 0.52413 0.17311
# Poissons Ratio (z) = 0.46881 0.17023
#
# Static dielectric constant tensor:
#      x y z
#    x 3.425220 0.000000 0.000000 
#    y 0.000000 3.238420 0.000000 
#    z 0.000000 0.000000 3.259180 
# 
# 
# High freq. dielectric constant tensor:
#      x y z
#    x 1.694350 0.000000 0.000000 
#    y 0.000000 1.689660 0.000000 
#    z 0.000000 0.000000 1.682470 
# 
# From -- ./inp_files/69106.got.cif
#   From: 2010.06.25/outbox.cif.g09.slc.cpg/sg71_35_cif.got.tgz:69106.got - 2010.06.28 04:59:45.
