data_PCOD8287452
_publ_section_title
;
Structure prediction by ZEFSAII (Michael W. Deem and Ramdas Pophale) SiO2 
 PCOD8287452
Probable space group: I M M M
;
_chemical_formula_sum "Si O2"
_cell_formula_units_Z 88
_cell_length_a 18.997170
_cell_length_b 13.752512
_cell_length_c 18.118100
_cell_angle_alpha 90.000000
_cell_angle_beta 90.000000
_cell_angle_gamma 90.000000
_cell_volume 4733.513216
_symmetry_space_group_name_H-M "I M M M"
_symmetry_group_IT_number 71
_symmetry_cell_setting 'orthorhombic'
loop_
_space_group_symop_operation_xyz
x,y,z
-x,-y,z
x,-y,-z
-x,y,-z
-x,-y,-z
x,y,-z
-x,y,z
x,-y,z
1/2+x,1/2+y,1/2+z
1/2-x,1/2-y,1/2+z
1/2+x,1/2-y,1/2-z
1/2-x,1/2+y,1/2-z
1/2-x,1/2-y,1/2-z
1/2+x,1/2+y,1/2-z
1/2-x,1/2+y,1/2+z
1/2+x,1/2-y,1/2+z
loop_
_atom_site_type_symbol
_atom_site_label
_atom_site_fract_x
_atom_site_fract_y
_atom_site_fract_z
Si Si1 0.226088 0.281208 0.581840
Si Si2 0.500000 0.103457 0.415341
Si Si3 0.919544 0.213521 0.763370
Si Si4 0.110003 0.237680 0.081955
Si Si5 0.815812 0.612753 0.725066
Si Si6 0.183917 0.109260 0.669343
O O1 0.204134 0.317697 0.500000
O O2 0.307224 0.250398 0.582197
O O3 0.207536 0.364800 0.640667
O O4 0.185090 0.181658 0.599983
O O5 0.500000 0.079138 0.500000
O O6 0.571587 0.161003 0.396798
O O7 0.500000 0.000000 0.371874
O O8 0.912852 0.172161 0.848066
O O9 0.877692 0.315082 0.750650
O O10 0.888342 0.127971 0.713229
O O11 0.000000 0.232589 0.741679
O O12 0.084583 0.200357 0.000000
O O13 0.840003 0.500000 0.729417
O O14 0.748920 0.633078 0.776739
O O15 0.185556 0.000000 0.639458
#
# Coordination Sequence:
#
# PCOD8287452 Si02
#       6
#    16   8  16  16  16  16
#     4  10  19  34  56  80 106 136 176 221 268 317
#     4   9  18  28  38  62 105 149 178 203 245 303
#     4  11  20  34  54  78 108 144 184 217 260 318
#     4  10  18  29  46  73 109 144 174 208 251 308
#     4  10  20  36  55  78 108 141 179 222 267 313
#     4  10  20  36  55  76 106 142 181 225 266 307
#
# _framework density 18.590843
#
# number of rings (size 3 to 8) (size 9 to 14) (size 15 to 20)
#    0.000    1.909    4.545    1.091    0.000    2.909 
#    0.000    1.818    0.000    9.273    0.000   11.455 
#    0.000    0.000    0.000    0.000    0.000    0.000 
#
# Total GULP energy -545102.837408 kJ/mol
# GULP energy per Si atom -12388.700850 kJ/mol
# Density = 1.854853 g / cm^3
# Si number density = 18.590843 Si / 1000 Ang^3
#
#
#
# Elastic Constant Matrix: (Units=GPa)
#
#
# Indices 1 2 3 4 5 6 
#
# 1 96.1769 6.7501 17.2596 0.0000 0.0000 0.0000
# 2 6.7501 46.5763 -4.7315 0.0000 0.0000 0.0000
# 3 17.2596 -4.7315 72.8063 0.0000 0.0000 0.0000
# 4 0.0000 0.0000 0.0000 16.6248 0.0000 0.0000
# 5 0.0000 0.0000 0.0000 0.0000 8.9061 0.0000
# 6 0.0000 0.0000 0.0000 0.0000 0.0000 20.5770
#
#
#
# Elastic Compliance Matrix: (Units=1/GPa)
#
#
# Indices 1 2 3 4 5 6 
#
# 1 0.011020 -0.001875 -0.002734 0.000000 0.000000 0.000000
# 2 -0.001875 0.021932 0.001870 0.000000 0.000000 0.000000
# 3 -0.002734 0.001870 0.014505 0.000000 0.000000 0.000000
# 4 0.000000 0.000000 0.000000 0.060151 0.000000 0.000000
# 5 0.000000 0.000000 0.000000 0.000000 0.112282 0.000000
# 6 0.000000 0.000000 0.000000 0.000000 0.000000 0.048598
#
#
# Mechanical properties :
#
#
# Convention : Reuss Voigt Hill
#
# Bulk Modulus (GPa) = 23.82215 28.23513 26.02864
# Shear Modulus (GPa) = 17.36360 22.30700 19.83530
#
# Velocity S-wave (km/s) = 3.05944 3.46770 3.26995
# Velocity P-wave (km/s) = 5.03209 5.59052 5.31864
#
# Compressibility (1/GPa) = 0.04197773
#
# Stress axis : x y z
#
# Youngs Moduli (GPa) = 90.74609 45.59590 68.94286
#
# Poissons Ratio (x) = 0.08548 0.18850
# Poissons Ratio (y) = 0.17013 -0.12890
# Poissons Ratio (z) = 0.24812 -0.08525
#
# Static dielectric constant tensor:
#      x y z
#    x 3.588630 0.000000 0.000000 
#    y 0.000000 3.289580 0.000000 
#    z 0.000000 0.000000 3.739390 
# 
# 
# High freq. dielectric constant tensor:
#      x y z
#    x 1.710990 0.000000 0.000000 
#    y 0.000000 1.695280 0.000000 
#    z 0.000000 0.000000 1.723950 
# 
# From -- ./inp_files/36360.got.cif
#   From: 2010.06.25/outbox.cif.g09.slc.cpg/sg71_19_cif.got.tgz:36360.got - 2010.06.28 04:59:45.
