data_PCOD8287009
_publ_section_title
;
Structure prediction by ZEFSAII (Michael W. Deem and Ramdas Pophale) SiO2 
 PCOD8287009
Probable space group: I M M M
;
_chemical_formula_sum "Si O2"
_cell_formula_units_Z 96
_cell_length_a 28.963512
_cell_length_b 9.082695
_cell_length_c 26.415133
_cell_angle_alpha 90.000000
_cell_angle_beta 90.000000
_cell_angle_gamma 90.000000
_cell_volume 6948.943074
_symmetry_space_group_name_H-M "I M M M"
_symmetry_group_IT_number 71
_symmetry_cell_setting 'orthorhombic'
loop_
_space_group_symop_operation_xyz
x,y,z
-x,-y,z
x,-y,-z
-x,y,-z
-x,-y,-z
x,y,-z
-x,y,z
x,-y,z
1/2+x,1/2+y,1/2+z
1/2-x,1/2-y,1/2+z
1/2+x,1/2-y,1/2-z
1/2-x,1/2+y,1/2-z
1/2-x,1/2-y,1/2-z
1/2+x,1/2+y,1/2-z
1/2-x,1/2+y,1/2+z
1/2+x,1/2-y,1/2+z
loop_
_atom_site_type_symbol
_atom_site_label
_atom_site_fract_x
_atom_site_fract_y
_atom_site_fract_z
Si Si1 0.811043 0.827094 0.852590
Si Si2 0.051954 0.827625 0.217037
Si Si3 0.138730 0.673084 0.241517
Si Si4 0.857536 0.670977 0.057444
Si Si5 0.448725 0.832412 0.613316
Si Si6 0.774072 0.331713 0.705386
O O1 0.840073 0.744220 0.809329
O O2 0.823769 0.765592 0.907435
O O3 0.755249 0.797804 0.845668
O O4 0.822584 0.000000 0.849537
O O5 0.088732 0.744345 0.252921
O O6 0.060185 0.776595 0.159674
O O7 0.000000 0.787764 0.234900
O O8 0.061086 0.000000 0.220145
O O9 0.133021 0.500000 0.231919
O O10 0.171067 0.706943 0.291317
O O11 0.845588 0.500000 0.064937
O O12 0.911219 0.701960 0.070303
O O13 0.849083 0.721418 0.000000
O O14 0.500000 0.806920 0.590389
O O15 0.443584 0.000000 0.633222
O O16 0.768339 0.500000 0.719602
O O17 0.750000 0.250000 0.750000
#
# Coordination Sequence:
#
# PCOD8287009 Si02
#       6
#    16  16  16  16  16  16
#     4  10  18  29  43  58  77  99 124 157 197 236
#     4  10  19  28  39  57  80 103 127 158 194 231
#     4  10  17  27  43  60  78  99 125 156 191 231
#     4  10  20  31  42  57  76  99 129 165 203 241
#     4   9  17  29  43  55  69  94 127 163 203 242
#     4   8  16  27  40  59  78  96 120 152 189 230
#
# _framework density 13.815049999999999
#
# number of rings (size 3 to 8) (size 9 to 14) (size 15 to 20)
#    0.000    2.500    1.667    1.500    0.000    3.000 
#    0.000    1.667    0.000    0.000    0.000    3.500 
#    0.000    0.000    0.000    0.000    0.000    0.833 
#
# Total GULP energy -594652.425304 kJ/mol
# GULP energy per Si atom -12388.592194 kJ/mol
# Density = 1.378361 g / cm^3
# Si number density = 13.815050 Si / 1000 Ang^3
#
#
#
# Elastic Constant Matrix: (Units=GPa)
#
#
# Indices 1 2 3 4 5 6 
#
# 1 118.9814 53.6698 54.8061 0.0000 0.0000 0.0000
# 2 53.6698 64.1822 26.5719 0.0000 0.0000 0.0000
# 3 54.8061 26.5719 46.5671 0.0000 0.0000 0.0000
# 4 0.0000 0.0000 0.0000 13.2508 0.0000 0.0000
# 5 0.0000 0.0000 0.0000 0.0000 19.9967 0.0000
# 6 0.0000 0.0000 0.0000 0.0000 0.0000 21.6679
#
#
#
# Elastic Compliance Matrix: (Units=1/GPa)
#
#
# Indices 1 2 3 4 5 6 
#
# 1 0.022601 -0.010326 -0.020708 0.000000 0.000000 0.000000
# 2 -0.010326 0.025118 -0.002179 0.000000 0.000000 0.000000
# 3 -0.020708 -0.002179 0.047089 0.000000 0.000000 0.000000
# 4 0.000000 0.000000 0.000000 0.075467 0.000000 0.000000
# 5 0.000000 0.000000 0.000000 0.000000 0.050008 0.000000
# 6 0.000000 0.000000 0.000000 0.000000 0.000000 0.046151
#
#
# Mechanical properties :
#
#
# Convention : Reuss Voigt Hill
#
# Bulk Modulus (GPa) = 35.23377 55.53624 45.38501
# Shear Modulus (GPa) = 14.60615 17.29527 15.95071
#
# Velocity S-wave (km/s) = 3.25509 3.54208 3.40161
# Velocity P-wave (km/s) = 6.29974 7.55086 6.95350
#
# Compressibility (1/GPa) = 0.02838186
#
# Stress axis : x y z
#
# Youngs Moduli (GPa) = 44.24580 39.81242 21.23627
#
# Poissons Ratio (x) = 0.41111 0.43975
# Poissons Ratio (y) = 0.45689 0.04628
# Poissons Ratio (z) = 0.91622 0.08677
#
# Static dielectric constant tensor:
#      x y z
#    x 3.309470 0.000000 0.000000 
#    y 0.000000 2.780670 0.000000 
#    z 0.000000 0.000000 2.481770 
# 
# 
# High freq. dielectric constant tensor:
#      x y z
#    x 1.533130 0.000000 0.000000 
#    y 0.000000 1.540860 0.000000 
#    z 0.000000 0.000000 1.465690 
# 
# From -- ./inp_files/15449.got.cif
#   From: 2010.06.25/outbox.cif.g09.slc.cpg/sg71_8_cif.got.tgz:15449.got - 2010.06.28 04:59:45.
