data_PCOD8287907
_publ_section_title
;
Structure prediction by ZEFSAII (Michael W. Deem and Ramdas Pophale) SiO2 
 PCOD8287907
Probable space group: I M M M
;
_chemical_formula_sum "Si O2"
_cell_formula_units_Z 96
_cell_length_a 13.488538
_cell_length_b 23.562218
_cell_length_c 16.427372
_cell_angle_alpha 90.000000
_cell_angle_beta 90.000000
_cell_angle_gamma 90.000000
_cell_volume 5220.945280
_symmetry_space_group_name_H-M "I M M M"
_symmetry_group_IT_number 71
_symmetry_cell_setting 'orthorhombic'
loop_
_space_group_symop_operation_xyz
x,y,z
-x,-y,z
x,-y,-z
-x,y,-z
-x,-y,-z
x,y,-z
-x,y,z
x,-y,z
1/2+x,1/2+y,1/2+z
1/2-x,1/2-y,1/2+z
1/2+x,1/2-y,1/2-z
1/2-x,1/2+y,1/2-z
1/2-x,1/2-y,1/2-z
1/2+x,1/2+y,1/2-z
1/2-x,1/2+y,1/2+z
1/2+x,1/2-y,1/2+z
loop_
_atom_site_type_symbol
_atom_site_label
_atom_site_fract_x
_atom_site_fract_y
_atom_site_fract_z
Si Si1 0.889373 0.369889 0.242404
Si Si2 0.304654 0.932969 0.592578
Si Si3 0.109314 0.065147 0.318099
Si Si4 0.392353 0.764798 0.500000
Si Si5 0.609758 0.369494 0.500000
Si Si6 0.884670 0.252682 0.829897
Si Si7 0.693163 0.369405 0.673211
O O1 0.876306 0.400448 0.155089
O O2 0.877277 0.301663 0.236684
O O3 0.806509 0.388844 0.307452
O O4 0.000000 0.384650 0.274266
O O5 0.325614 0.912250 0.500000
O O6 0.190680 0.917659 0.614542
O O7 0.324667 0.000000 0.600118
O O8 0.119966 0.099074 0.234379
O O9 0.000000 0.077448 0.354749
O O10 0.122483 0.000000 0.294249
O O11 0.500000 0.794391 0.500000
O O12 0.401995 0.697064 0.500000
O O13 0.339340 0.779985 0.414617
O O14 0.500000 0.397783 0.500000
O O15 0.669702 0.388048 0.580995
O O16 0.821313 0.197513 0.807287
O O17 0.000000 0.234638 0.844510
#
# Coordination Sequence:
#
# PCOD8287907 Si02
#       7
#    16  16  16   8   8  16  16
#     4  10  21  32  46  69  96 127 166 205 240 283
#     4   9  19  34  50  71  99 131 167 205 244 285
#     4   9  17  30  50  75 102 130 159 196 245 299
#     4   7  12  22  38  64  92 114 143 182 225 274
#     4   9  16  28  50  73  90 115 151 188 234 292
#     4   9  16  27  46  71  95 122 156 198 246 293
#     4  10  18  32  49  70  98 127 159 199 245 293
#
# _framework density 18.387474999999998
#
# number of rings (size 3 to 8) (size 9 to 14) (size 15 to 20)
#    0.000    2.833    0.000    3.000    1.167    1.000 
#    0.000    3.333    0.000    1.500    0.000    0.000 
#    0.000    5.333    0.000    0.000    0.000    0.000 
#
# Total GULP energy -594698.819908 kJ/mol
# GULP energy per Si atom -12389.558748 kJ/mol
# Density = 1.834562 g / cm^3
# Si number density = 18.387475 Si / 1000 Ang^3
#
#
#
# Elastic Constant Matrix: (Units=GPa)
#
#
# Indices 1 2 3 4 5 6 
#
# 1 107.7691 13.1663 38.4404 0.0000 0.0000 0.0000
# 2 13.1663 27.9934 14.8635 0.0000 0.0000 0.0000
# 3 38.4404 14.8635 92.2327 -0.0001 0.0001 0.0000
# 4 0.0000 0.0000 -0.0001 23.5709 0.0000 0.0000
# 5 0.0000 0.0000 0.0001 0.0000 18.0917 0.0000
# 6 0.0000 0.0000 0.0000 0.0000 0.0000 19.2921
#
#
#
# Elastic Compliance Matrix: (Units=1/GPa)
#
#
# Indices 1 2 3 4 5 6 
#
# 1 0.011130 -0.003031 -0.004150 0.000000 0.000000 0.000000
# 2 -0.003031 0.039891 -0.005165 0.000000 0.000000 0.000000
# 3 -0.004150 -0.005165 0.013404 0.000000 0.000000 0.000000
# 4 0.000000 0.000000 0.000000 0.042425 0.000000 0.000000
# 5 0.000000 0.000000 0.000000 0.000000 0.055274 0.000000
# 6 0.000000 0.000000 0.000000 0.000000 0.000000 0.051835
#
#
# Mechanical properties :
#
#
# Convention : Reuss Voigt Hill
#
# Bulk Modulus (GPa) = 25.16873 40.10397 32.63635
# Shear Modulus (GPa) = 19.84952 22.95929 21.40440
#
# Velocity S-wave (km/s) = 3.28916 3.53744 3.41556
# Velocity P-wave (km/s) = 5.30495 6.20826 5.77429
#
# Compressibility (1/GPa) = 0.03973184
#
# Stress axis : x y z
#
# Youngs Moduli (GPa) = 89.84940 25.06839 74.60346
#
# Poissons Ratio (x) = 0.07599 0.30961
# Poissons Ratio (y) = 0.27235 0.38534
# Poissons Ratio (z) = 0.37289 0.12948
#
# Static dielectric constant tensor:
#      x y z
#    x 3.342330 0.000000 0.000000 
#    y 0.000000 3.206250 0.000000 
#    z 0.000000 0.000000 3.493200 
# 
# 
# High freq. dielectric constant tensor:
#      x y z
#    x 1.702780 0.000000 0.000000 
#    y 0.000000 1.697970 0.000000 
#    z 0.000000 0.000000 1.697350 
# 
# From -- ./inp_files/34795.got.cif
#   From: 2010.06.25/outbox.cif.g09.slc.cpg/sg71_18_cif.got.tgz:34795.got - 2010.06.28 04:59:45.
