data_PCOD8287906
_publ_section_title
;
Structure prediction by ZEFSAII (Michael W. Deem and Ramdas Pophale) SiO2 
 PCOD8287906
Probable space group: I M M M
;
_chemical_formula_sum "Si O2"
_cell_formula_units_Z 104
_cell_length_a 17.929316
_cell_length_b 16.395600
_cell_length_c 20.760964
_cell_angle_alpha 90.000000
_cell_angle_beta 90.000000
_cell_angle_gamma 90.000000
_cell_volume 6102.932286
_symmetry_space_group_name_H-M "I M M M"
_symmetry_group_IT_number 71
_symmetry_cell_setting 'orthorhombic'
loop_
_space_group_symop_operation_xyz
x,y,z
-x,-y,z
x,-y,-z
-x,y,-z
-x,-y,-z
x,y,-z
-x,y,z
x,-y,z
1/2+x,1/2+y,1/2+z
1/2-x,1/2-y,1/2+z
1/2+x,1/2-y,1/2-z
1/2-x,1/2+y,1/2-z
1/2-x,1/2-y,1/2-z
1/2+x,1/2+y,1/2-z
1/2-x,1/2+y,1/2+z
1/2+x,1/2-y,1/2+z
loop_
_atom_site_type_symbol
_atom_site_label
_atom_site_fract_x
_atom_site_fract_y
_atom_site_fract_z
Si Si1 0.792387 0.757089 0.426756
Si Si2 0.661886 0.656018 0.371199
Si Si3 0.585415 0.191580 0.318553
Si Si4 0.784368 0.409149 0.870533
Si Si5 0.085590 0.237801 0.681441
Si Si6 0.918278 0.000000 0.074915
Si Si7 0.163355 0.909688 0.264182
O O1 0.820923 0.748366 0.500000
O O2 0.730791 0.688612 0.412819
O O3 0.755067 0.846518 0.419495
O O4 0.861716 0.741449 0.378989
O O5 0.600974 0.726428 0.359158
O O6 0.625354 0.581197 0.407432
O O7 0.692523 0.626771 0.302618
O O8 0.500000 0.166977 0.327870
O O9 0.633632 0.118984 0.349017
O O10 0.603906 0.204087 0.242550
O O11 0.788874 0.500000 0.901647
O O12 0.737006 0.411319 0.806053
O O13 0.098761 0.144554 0.703453
O O14 0.000000 0.247514 0.659500
O O15 0.000000 0.000000 0.108693
O O16 0.929641 0.000000 0.000000
O O17 0.129172 0.000000 0.254819
#
# Coordination Sequence:
#
# PCOD8287906 Si02
#       7
#    16  16  16  16  16   8  16
#     4  10  20  33  50  69  95 134 172 201 233 278
#     4  10  18  32  49  70  94 126 161 198 233 289
#     4   9  17  30  49  73  98 123 151 197 253 293
#     4   9  18  31  49  70  95 122 161 204 243 284
#     4   9  18  31  48  73 102 128 157 198 245 292
#     4  11  22  32  44  68 101 129 154 190 237 292
#     4   9  16  29  48  73  96 123 153 196 247 290
#
# _framework density 17.040987999999999
#
# number of rings (size 3 to 8) (size 9 to 14) (size 15 to 20)
#    0.000    2.538    0.769    1.846    0.000    5.538 
#    0.000    0.000    0.000    4.154    0.000    8.615 
#    0.000    1.846    0.000    0.000    0.000    0.000 
#
# Total GULP energy -644594.829181 kJ/mol
# GULP energy per Si atom -12396.054407 kJ/mol
# Density = 1.700220 g / cm^3
# Si number density = 17.040988 Si / 1000 Ang^3
#
#
#
# Elastic Constant Matrix: (Units=GPa)
#
#
# Indices 1 2 3 4 5 6 
#
# 1 96.6317 31.2237 30.1557 0.0000 0.0000 0.0000
# 2 31.2237 82.8223 17.8711 0.0000 0.0000 0.0000
# 3 30.1557 17.8711 73.9432 0.0000 0.0000 0.0000
# 4 0.0000 0.0000 0.0000 17.0437 0.0000 0.0000
# 5 0.0000 0.0000 0.0000 0.0000 18.9392 0.0000
# 6 0.0000 0.0000 0.0000 0.0000 0.0000 19.1096
#
#
#
# Elastic Compliance Matrix: (Units=1/GPa)
#
#
# Indices 1 2 3 4 5 6 
#
# 1 0.012981 -0.003958 -0.004337 0.000000 0.000000 0.000000
# 2 -0.003958 0.013945 -0.001756 0.000000 0.000000 0.000000
# 3 -0.004337 -0.001756 0.015717 0.000000 0.000000 0.000000
# 4 0.000000 0.000000 0.000000 0.058673 0.000000 0.000000
# 5 0.000000 0.000000 0.000000 0.000000 0.052800 0.000000
# 6 0.000000 0.000000 0.000000 0.000000 0.000000 0.052330
#
#
# Mechanical properties :
#
#
# Convention : Reuss Voigt Hill
#
# Bulk Modulus (GPa) = 44.36490 45.76648 45.06569
# Shear Modulus (GPa) = 21.36181 22.62829 21.99505
#
# Velocity S-wave (km/s) = 3.54440 3.64795 3.59655
# Velocity P-wave (km/s) = 6.54531 6.68270 6.61436
#
# Compressibility (1/GPa) = 0.02254034
#
# Stress axis : x y z
#
# Youngs Moduli (GPa) = 77.03563 71.70975 63.62442
#
# Poissons Ratio (x) = 0.28382 0.27596
# Poissons Ratio (y) = 0.30490 0.11174
# Poissons Ratio (z) = 0.33413 0.12594
#
# Static dielectric constant tensor:
#      x y z
#    x 3.088150 0.000000 0.000000 
#    y 0.000000 3.353640 0.000000 
#    z 0.000000 0.000000 3.060940 
# 
# 
# High freq. dielectric constant tensor:
#      x y z
#    x 1.650600 0.000000 0.000000 
#    y 0.000000 1.654320 0.000000 
#    z 0.000000 0.000000 1.647580 
# 
# From -- ./inp_files/54121.got.cif
#   From: 2010.06.25/outbox.cif.g09.slc.cpg/sg71_28_cif.got.tgz:54121.got - 2010.06.28 04:59:45.
