data_PCOD8287304
_publ_section_title
;
Structure prediction by ZEFSAII (Michael W. Deem and Ramdas Pophale) SiO2 
 PCOD8287304
Probable space group: I M M M
;
_chemical_formula_sum "Si O2"
_cell_formula_units_Z 112
_cell_length_a 9.430976
_cell_length_b 22.890554
_cell_length_c 29.968967
_cell_angle_alpha 90.000000
_cell_angle_beta 90.000000
_cell_angle_gamma 90.000000
_cell_volume 6469.708550
_symmetry_space_group_name_H-M "I M M M"
_symmetry_group_IT_number 71
_symmetry_cell_setting 'orthorhombic'
loop_
_space_group_symop_operation_xyz
x,y,z
-x,-y,z
x,-y,-z
-x,y,-z
-x,-y,-z
x,y,-z
-x,y,z
x,-y,z
1/2+x,1/2+y,1/2+z
1/2-x,1/2-y,1/2+z
1/2+x,1/2-y,1/2-z
1/2-x,1/2+y,1/2-z
1/2-x,1/2-y,1/2-z
1/2+x,1/2+y,1/2-z
1/2-x,1/2+y,1/2+z
1/2+x,1/2-y,1/2+z
loop_
_atom_site_type_symbol
_atom_site_label
_atom_site_fract_x
_atom_site_fract_y
_atom_site_fract_z
Si Si1 0.333893 0.931310 0.300916
Si Si2 0.330837 0.935812 0.115658
Si Si3 0.332455 0.345051 0.140024
Si Si4 0.661287 0.757114 0.793932
Si Si5 0.168453 0.208906 0.549394
Si Si6 0.332203 0.839172 0.049878
Si Si7 0.337157 0.110102 0.206339
O O1 0.500000 0.917026 0.306288
O O2 0.250580 0.901003 0.341478
O O3 0.268818 0.905198 0.254496
O O4 0.304125 0.000000 0.302783
O O5 0.500000 0.929233 0.116663
O O6 0.263900 0.886788 0.083253
O O7 0.270924 0.927699 0.166058
O O8 0.285911 0.000000 0.098526
O O9 0.500000 0.356938 0.142905
O O10 0.288676 0.286976 0.167498
O O11 0.282458 0.334949 0.088644
O O12 0.500000 0.743973 0.781031
O O13 0.750000 0.750000 0.750000
O O14 0.681332 0.823367 0.809962
O O15 0.220942 0.187760 0.500000
O O16 0.227543 0.274117 0.559568
O O17 0.000000 0.212624 0.549302
O O18 0.500000 0.838581 0.055971
O O19 0.290833 0.858435 0.000000
O O20 0.500000 0.092655 0.212514
#
# Coordination Sequence:
#
# PCOD8287304 Si02
#       7
#    16  16  16  16  16  16  16
#     4  10  20  33  48  65  89 124 159 185 219 273
#     4   9  15  21  31  49  75 111 153 189 217 249
#     4  10  19  30  48  73  95 117 150 191 231 269
#     4  10  18  28  44  67  93 119 149 186 227 269
#     4   8  14  26  44  65  88 113 143 181 228 278
#     4   8  13  21  33  51  78 111 144 180 223 266
#     4   9  16  27  41  57  82 115 151 186 216 257
#
# _framework density 17.311444000000002
#
# number of rings (size 3 to 8) (size 9 to 14) (size 15 to 20)
#    0.000    2.857    1.429    2.143    0.000    5.714 
#    0.000    1.429    0.000    0.857    0.000    3.000 
#    0.000    0.000    0.000    0.000    0.000    0.571 
#
# Total GULP energy -693946.458116 kJ/mol
# GULP energy per Si atom -12391.901038 kJ/mol
# Density = 1.727204 g / cm^3
# Si number density = 17.311444 Si / 1000 Ang^3
#
#
#
# Elastic Constant Matrix: (Units=GPa)
#
#
# Indices 1 2 3 4 5 6 
#
# 1 17.5856 21.5220 21.6189 0.0000 0.0000 0.0000
# 2 21.5220 87.5492 58.2561 0.0000 0.0000 0.0000
# 3 21.6189 58.2561 133.2761 0.0000 0.0000 0.0000
# 4 0.0000 0.0000 0.0000 28.5149 0.0000 0.0000
# 5 0.0000 0.0000 0.0000 0.0000 14.8800 0.0000
# 6 0.0000 0.0000 0.0000 0.0000 0.0000 16.4582
#
#
#
# Elastic Compliance Matrix: (Units=1/GPa)
#
#
# Indices 1 2 3 4 5 6 
#
# 1 0.085242 -0.016575 -0.006582 0.000000 0.000000 0.000000
# 2 -0.016575 0.019330 -0.005761 0.000000 0.000000 0.000000
# 3 -0.006582 -0.005761 0.011089 0.000000 0.000000 0.000000
# 4 0.000000 0.000000 0.000000 0.035069 0.000000 0.000000
# 5 0.000000 0.000000 0.000000 0.000000 0.067204 0.000000
# 6 0.000000 0.000000 0.000000 0.000000 0.000000 0.060760
#
#
# Mechanical properties :
#
#
# Convention : Reuss Voigt Hill
#
# Bulk Modulus (GPa) = 17.29350 49.02276 33.15813
# Shear Modulus (GPa) = 14.05264 21.10486 17.57875
#
# Velocity S-wave (km/s) = 2.85222 3.49539 3.19006
# Velocity P-wave (km/s) = 4.56708 6.68356 5.72399
#
# Compressibility (1/GPa) = 0.05782519
#
# Stress axis : x y z
#
# Youngs Moduli (GPa) = 11.73134 51.73336 90.17995
#
# Poissons Ratio (x) = 0.85747 0.59358
# Poissons Ratio (y) = 0.19445 0.51949
# Poissons Ratio (z) = 0.07722 0.29802
#
# Static dielectric constant tensor:
#      x y z
#    x 2.632910 0.000000 0.000000 
#    y 0.000000 3.653990 0.000000 
#    z 0.000000 0.000000 3.716250 
# 
# 
# High freq. dielectric constant tensor:
#      x y z
#    x 1.594240 0.000000 0.000000 
#    y 0.000000 1.665770 0.000000 
#    z 0.000000 0.000000 1.677620 
# 
# From -- ./inp_files/64809.got.cif
#   From: 2010.06.25/outbox.cif.g09.slc.cpg/sg71_33_cif.got.tgz:64809.got - 2010.06.28 04:59:45.
