data_PCOD8287241
_publ_section_title
;
Structure prediction by ZEFSAII (Michael W. Deem and Ramdas Pophale) SiO2 
 PCOD8287241
Probable space group: I M M M
;
_chemical_formula_sum "Si O2"
_cell_formula_units_Z 120
_cell_length_a 20.111603
_cell_length_b 13.013600
_cell_length_c 27.640436
_cell_angle_alpha 90.000000
_cell_angle_beta 90.000000
_cell_angle_gamma 90.000000
_cell_volume 7234.175334
_symmetry_space_group_name_H-M "I M M M"
_symmetry_group_IT_number 71
_symmetry_cell_setting 'orthorhombic'
loop_
_space_group_symop_operation_xyz
x,y,z
-x,-y,z
x,-y,-z
-x,y,-z
-x,-y,-z
x,y,-z
-x,y,z
x,-y,z
1/2+x,1/2+y,1/2+z
1/2-x,1/2-y,1/2+z
1/2+x,1/2-y,1/2-z
1/2-x,1/2+y,1/2-z
1/2-x,1/2-y,1/2-z
1/2+x,1/2+y,1/2-z
1/2-x,1/2+y,1/2+z
1/2+x,1/2-y,1/2+z
loop_
_atom_site_type_symbol
_atom_site_label
_atom_site_fract_x
_atom_site_fract_y
_atom_site_fract_z
Si Si1 0.574050 0.115797 0.850199
Si Si2 0.878262 0.800787 0.878927
Si Si3 0.337868 0.809593 0.227881
Si Si4 0.423340 0.882903 0.316657
Si Si5 0.691643 0.383545 0.284955
Si Si6 0.000000 0.120568 0.056334
Si Si7 0.773304 0.117350 0.944413
Si Si8 0.877350 0.378753 0.448693
O O1 0.500000 0.115127 0.830433
O O2 0.614907 0.193672 0.818052
O O3 0.575602 0.157751 0.905247
O O4 0.604050 0.000000 0.847170
O O5 0.899188 0.687466 0.861320
O O6 0.854794 0.865949 0.831986
O O7 0.814977 0.799444 0.914203
O O8 0.936790 0.848537 0.911263
O O9 0.373500 0.871489 0.271304
O O10 0.330371 0.690938 0.241787
O O11 0.270103 0.861565 0.208468
O O12 0.500000 0.854743 0.302477
O O13 0.419370 0.000000 0.334741
O O14 0.681215 0.500000 0.267923
O O15 0.000000 0.000000 0.050724
O O16 0.000000 0.165452 0.000000
O O17 0.697960 0.153218 0.937391
O O18 0.784457 0.000000 0.925288
O O19 0.795458 0.122509 0.000000
O O20 0.900786 0.329539 0.500000
O O21 0.880595 0.500000 0.454351
#
# Coordination Sequence:
#
# PCOD8287241 Si02
#       8
#    16  16  16  16  16   8  16  16
#     4  10  18  27  43  66  94 127 159 191 227 271
#     4  11  20  32  49  71  94 123 157 199 242 289
#     4  10  20  32  50  72  95 124 159 196 234 280
#     4  10  20  35  52  67  91 126 165 203 238 286
#     4  10  20  33  50  72  97 123 154 194 241 287
#     4  11  22  34  49  71  99 129 162 200 242 295
#     4   9  16  27  45  67  92 121 151 189 237 288
#     4   8  15  27  42  64  94 125 155 186 226 277
#
# _framework density 16.587931000000001
#
# number of rings (size 3 to 8) (size 9 to 14) (size 15 to 20)
#    0.000    2.200    0.667    4.800    0.000    3.467 
#    0.000    1.333    0.000    2.000    0.000    0.000 
#    0.000    1.600    0.000    1.200    0.000    0.133 
#
# Total GULP energy -743387.269384 kJ/mol
# GULP energy per Si atom -12389.787823 kJ/mol
# Density = 1.655018 g / cm^3
# Si number density = 16.587931 Si / 1000 Ang^3
#
#
#
# Elastic Constant Matrix: (Units=GPa)
#
#
# Indices 1 2 3 4 5 6 
#
# 1 73.9141 33.8891 49.4974 0.0000 0.0000 0.0000
# 2 33.8891 80.9425 35.3377 0.0000 0.0000 0.0000
# 3 49.4974 35.3377 91.8731 0.0000 0.0000 0.0000
# 4 0.0000 0.0000 0.0000 19.3670 0.0000 0.0000
# 5 0.0000 0.0000 0.0000 0.0000 7.0903 0.0000
# 6 0.0000 0.0000 0.0000 0.0000 0.0000 18.3760
#
#
#
# Elastic Compliance Matrix: (Units=1/GPa)
#
#
# Indices 1 2 3 4 5 6 
#
# 1 0.022742 -0.005014 -0.010323 0.000000 0.000000 0.000000
# 2 -0.005014 0.015953 -0.003435 0.000000 0.000000 0.000000
# 3 -0.010323 -0.003435 0.017768 0.000000 0.000000 0.000000
# 4 0.000000 0.000000 0.000000 0.051634 0.000000 0.000000
# 5 0.000000 0.000000 0.000000 0.000000 0.141037 0.000000
# 6 0.000000 0.000000 0.000000 0.000000 0.000000 0.054419
#
#
# Mechanical properties :
#
#
# Convention : Reuss Voigt Hill
#
# Bulk Modulus (GPa) = 52.86169 53.79759 53.32964
# Shear Modulus (GPa) = 14.39250 17.50037 15.94643
#
# Velocity S-wave (km/s) = 2.94878 3.25161 3.10389
# Velocity P-wave (km/s) = 6.59777 6.82638 6.71305
#
# Compressibility (1/GPa) = 0.01891729
#
# Stress axis : x y z
#
# Youngs Moduli (GPa) = 43.97245 62.68255 56.28248
#
# Poissons Ratio (x) = 0.31432 0.58103
# Poissons Ratio (y) = 0.22050 0.19331
# Poissons Ratio (z) = 0.45395 0.21529
#
# Static dielectric constant tensor:
#      x y z
#    x 3.350590 0.000000 0.000000 
#    y 0.000000 2.838720 0.000000 
#    z 0.000000 0.000000 2.723510 
# 
# 
# High freq. dielectric constant tensor:
#      x y z
#    x 1.653090 0.000000 0.000000 
#    y 0.000000 1.590060 0.000000 
#    z 0.000000 0.000000 1.647250 
# 
# From -- ./inp_files/66638.got.cif
#   From: 2010.06.25/outbox.cif.g09.slc.cpg/sg71_34_cif.got.tgz:66638.got - 2010.06.28 04:59:45.
