data_PCOD8287169
_publ_section_title
;
Structure prediction by ZEFSAII (Michael W. Deem and Ramdas Pophale) SiO2 
 PCOD8287169
Probable space group: I M M M
;
_chemical_formula_sum "Si O2"
_cell_formula_units_Z 72
_cell_length_a 22.998370
_cell_length_b 23.941635
_cell_length_c 8.597037
_cell_angle_alpha 90.000000
_cell_angle_beta 90.000000
_cell_angle_gamma 90.000000
_cell_volume 4733.688306
_symmetry_space_group_name_H-M "I M M M"
_symmetry_group_IT_number 71
_symmetry_cell_setting 'orthorhombic'
loop_
_space_group_symop_operation_xyz
x,y,z
-x,-y,z
x,-y,-z
-x,y,-z
-x,-y,-z
x,y,-z
-x,y,z
x,-y,z
1/2+x,1/2+y,1/2+z
1/2-x,1/2-y,1/2+z
1/2+x,1/2-y,1/2-z
1/2-x,1/2+y,1/2-z
1/2-x,1/2-y,1/2-z
1/2+x,1/2+y,1/2-z
1/2-x,1/2+y,1/2+z
1/2+x,1/2-y,1/2+z
loop_
_atom_site_type_symbol
_atom_site_label
_atom_site_fract_x
_atom_site_fract_y
_atom_site_fract_z
Si Si1 0.405953 0.142482 0.181357
Si Si2 0.794203 0.329601 0.177709
Si Si3 0.564895 0.737806 0.317723
Si Si4 0.176940 0.212948 0.318903
Si Si5 0.500000 0.065236 0.318762
O O1 0.336931 0.132326 0.217060
O O2 0.427624 0.198044 0.266762
O O3 0.442003 0.090018 0.242227
O O4 0.416239 0.149866 0.000000
O O5 0.808126 0.264843 0.208282
O O6 0.724541 0.336460 0.212879
O O7 0.807860 0.344588 0.000000
O O8 0.575764 0.733570 0.500000
O O9 0.500000 0.717752 0.273852
O O10 0.610814 0.696746 0.228801
O O11 0.179511 0.230719 0.500000
O O12 0.500000 0.079356 0.500000
O O13 0.500000 0.000000 0.284482
#
# Coordination Sequence:
#
# PCOD8287169 Si02
#       5
#    16  16  16  16   8
#     4  11  20  29  44  60  74  95 124 161 199 237
#     4   9  16  26  39  54  74  97 122 155 193 233
#     4  10  18  26  38  54  77 106 133 161 194 233
#     4   9  16  24  36  54  74  97 126 160 192 222
#     4  11  23  37  49  59  75  99 127 163 207 249
#
# _framework density 15.210127
#
# number of rings (size 3 to 8) (size 9 to 14) (size 15 to 20)
#    0.000    2.111    1.111    7.000    0.000    4.889 
#    0.000    0.000    0.000    0.000    0.000    0.000 
#    0.000    0.000    0.000    0.000    0.000    1.111 
#
# Total GULP energy -446011.987864 kJ/mol
# GULP energy per Si atom -12389.221885 kJ/mol
# Density = 1.517551 g / cm^3
# Si number density = 15.210127 Si / 1000 Ang^3
#
#
#
# Elastic Constant Matrix: (Units=GPa)
#
#
# Indices 1 2 3 4 5 6 
#
# 1 151.8467 33.4455 42.6242 0.0000 0.0000 0.0000
# 2 33.4455 24.5588 12.0682 0.0000 0.0000 0.0000
# 3 42.6242 12.0682 49.0279 0.0000 0.0000 0.0000
# 4 0.0000 0.0000 0.0000 11.0468 0.0000 0.0000
# 5 0.0000 0.0000 0.0000 0.0000 28.7244 0.0000
# 6 0.0000 0.0000 0.0000 0.0000 0.0000 17.8935
#
#
#
# Elastic Compliance Matrix: (Units=1/GPa)
#
#
# Indices 1 2 3 4 5 6 
#
# 1 0.011064 -0.011764 -0.006723 0.000000 0.000000 0.000000
# 2 -0.011764 0.058829 -0.004254 0.000000 0.000000 0.000000
# 3 -0.006723 -0.004254 0.027289 0.000000 0.000000 0.000000
# 4 0.000000 0.000000 0.000000 0.090524 0.000000 0.000000
# 5 0.000000 0.000000 0.000000 0.000000 0.034814 0.000000
# 6 0.000000 0.000000 0.000000 0.000000 0.000000 0.055886
#
#
# Mechanical properties :
#
#
# Convention : Reuss Voigt Hill
#
# Bulk Modulus (GPa) = 19.34206 44.63435 31.98821
# Shear Modulus (GPa) = 14.65761 20.68598 17.67180
#
# Velocity S-wave (km/s) = 3.10768 3.69184 3.41228
# Velocity P-wave (km/s) = 5.06173 6.89795 6.04991
#
# Compressibility (1/GPa) = 0.05170080
#
# Stress axis : x y z
#
# Youngs Moduli (GPa) = 90.38458 16.99839 36.64538
#
# Poissons Ratio (x) = 0.19996 0.24637
# Poissons Ratio (y) = 1.06325 0.15588
# Poissons Ratio (z) = 0.60767 0.07230
#
# Static dielectric constant tensor:
#      x y z
#    x 3.896160 0.000000 0.000000 
#    y 0.000000 2.291700 0.000000 
#    z 0.000000 0.000000 3.027710 
# 
# 
# High freq. dielectric constant tensor:
#      x y z
#    x 1.611160 0.000000 0.000000 
#    y 0.000000 1.480440 0.000000 
#    z 0.000000 0.000000 1.603800 
# 
# From -- ./inp_files/12693.got.cif
#   From: 2010.06.25/outbox.cif.g09.slc.cpg/sg71_7_cif.got.tgz:12693.got - 2010.06.28 04:59:45.
