data_PCOD8287362
_publ_section_title
;
Structure prediction by ZEFSAII (Michael W. Deem and Ramdas Pophale) SiO2 
 PCOD8287362
Probable space group: I M M M
;
_chemical_formula_sum "Si O2"
_cell_formula_units_Z 104
_cell_length_a 30.253853
_cell_length_b 10.137903
_cell_length_c 17.964854
_cell_angle_alpha 90.000000
_cell_angle_beta 90.000000
_cell_angle_gamma 90.000000
_cell_volume 5510.011636
_symmetry_space_group_name_H-M "I M M M"
_symmetry_group_IT_number 71
_symmetry_cell_setting 'orthorhombic'
loop_
_space_group_symop_operation_xyz
x,y,z
-x,-y,z
x,-y,-z
-x,y,-z
-x,-y,-z
x,y,-z
-x,y,z
x,-y,z
1/2+x,1/2+y,1/2+z
1/2-x,1/2-y,1/2+z
1/2+x,1/2-y,1/2-z
1/2-x,1/2+y,1/2-z
1/2-x,1/2-y,1/2-z
1/2+x,1/2+y,1/2-z
1/2-x,1/2+y,1/2+z
1/2+x,1/2-y,1/2+z
loop_
_atom_site_type_symbol
_atom_site_label
_atom_site_fract_x
_atom_site_fract_y
_atom_site_fract_z
Si Si1 0.095215 0.850731 0.843798
Si Si2 0.330983 0.149522 0.648708
Si Si3 0.949655 0.000000 0.412359
Si Si4 0.000000 0.148384 0.841143
Si Si5 0.500000 0.144032 0.787286
Si Si6 0.262700 0.349527 0.914605
Si Si7 0.085595 0.762622 0.674132
Si Si8 0.679038 0.848450 0.820280
O O1 0.130232 0.748171 0.877971
O O2 0.046851 0.831527 0.884726
O O3 0.089107 0.825180 0.756176
O O4 0.112505 0.000000 0.856426
O O5 0.289710 0.171076 0.594638
O O6 0.315613 0.179838 0.732694
O O7 0.349448 0.000000 0.643465
O O8 0.921722 0.875374 0.385979
O O9 0.951315 0.000000 0.500000
O O10 0.000000 0.000000 0.379899
O O11 0.000000 0.247631 0.774611
O O12 0.000000 0.000000 0.808009
O O13 0.455441 0.161936 0.834967
O O14 0.500000 0.000000 0.750606
O O15 0.275339 0.500000 0.892066
O O16 0.287801 0.247574 0.862546
O O17 0.275192 0.321897 0.000000
O O18 0.129389 0.681951 0.653533
O O19 0.690747 0.000000 0.839296
#
# Coordination Sequence:
#
# PCOD8287362 Si02
#       8
#    16  16   8   8   8  16  16  16
#     4   9  16  27  49  76 103 135 163 203 253 299
#     4   9  19  35  53  77 108 135 167 212 259 308
#     4  11  22  34  50  70  92 134 187 225 249 290
#     4   8  16  26  42  72 110 136 161 199 242 293
#     4  10  18  28  48  69  96 131 165 204 258 306
#     4  10  22  39  57  76 100 135 175 212 254 308
#     4  10  19  32  50  70 101 128 169 214 259 300
#     4  10  21  35  54  81 107 132 164 213 271 316
#
# _framework density 18.874732999999999
#
# number of rings (size 3 to 8) (size 9 to 14) (size 15 to 20)
#    0.000    2.385    1.538    0.923    2.154    5.846 
#    0.000    0.000    0.000    1.846    0.000    0.538 
#    0.000    4.308    0.000    0.000    0.000    0.000 
#
# Total GULP energy -644487.611241 kJ/mol
# GULP energy per Si atom -12393.992524 kJ/mol
# Density = 1.883177 g / cm^3
# Si number density = 18.874733 Si / 1000 Ang^3
#
#
#
# Elastic Constant Matrix: (Units=GPa)
#
#
# Indices 1 2 3 4 5 6 
#
# 1 97.3324 58.8714 6.1610 0.0000 0.0000 0.0000
# 2 58.8714 120.0628 11.7371 0.0000 0.0000 0.0000
# 3 6.1610 11.7371 17.4159 0.0000 0.0000 0.0000
# 4 0.0000 0.0000 0.0000 13.6589 0.0000 0.0000
# 5 0.0000 0.0000 0.0000 0.0000 10.0548 0.0000
# 6 0.0000 0.0000 0.0000 0.0000 0.0000 34.4321
#
#
#
# Elastic Compliance Matrix: (Units=1/GPa)
#
#
# Indices 1 2 3 4 5 6 
#
# 1 0.014608 -0.007127 -0.000364 0.000000 0.000000 0.000000
# 2 -0.007127 0.012394 -0.005831 0.000000 0.000000 0.000000
# 3 -0.000364 -0.005831 0.061477 0.000000 0.000000 0.000000
# 4 0.000000 0.000000 0.000000 0.073212 0.000000 0.000000
# 5 0.000000 0.000000 0.000000 0.000000 0.099455 0.000000
# 6 0.000000 0.000000 0.000000 0.000000 0.000000 0.029043
#
#
# Mechanical properties :
#
#
# Convention : Reuss Voigt Hill
#
# Bulk Modulus (GPa) = 16.17246 43.15000 29.66123
# Shear Modulus (GPa) = 14.81716 22.16526 18.49121
#
# Velocity S-wave (km/s) = 2.80487 3.43057 3.13338
# Velocity P-wave (km/s) = 4.36768 6.21310 5.37026
#
# Compressibility (1/GPa) = 0.06183350
#
# Stress axis : x y z
#
# Youngs Moduli (GPa) = 68.45535 80.68552 16.26612
#
# Poissons Ratio (x) = 0.57507 0.00593
# Poissons Ratio (y) = 0.48790 0.09485
# Poissons Ratio (z) = 0.02495 0.47050
#
# Static dielectric constant tensor:
#      x y z
#    x 3.897930 0.000000 0.000000 
#    y 0.000000 3.493180 0.000000 
#    z 0.000000 0.000000 2.981350 
# 
# 
# High freq. dielectric constant tensor:
#      x y z
#    x 1.747610 0.000000 0.000000 
#    y 0.000000 1.742080 0.000000 
#    z 0.000000 0.000000 1.680830 
# 
# From -- ./inp_files/56768.got.cif
#   From: 2010.06.25/outbox.cif.g09.slc.cpg/sg71_29_cif.got.tgz:56768.got - 2010.06.28 04:59:45.
