data_PCOD8287656
_publ_section_title
;
Structure prediction by ZEFSAII (Michael W. Deem and Ramdas Pophale) SiO2 
 PCOD8287656
Probable space group: I M M M
;
_chemical_formula_sum "Si O2"
_cell_formula_units_Z 72
_cell_length_a 19.179230
_cell_length_b 28.113365
_cell_length_c 7.584237
_cell_angle_alpha 90.000000
_cell_angle_beta 90.000000
_cell_angle_gamma 90.000000
_cell_volume 4089.365175
_symmetry_space_group_name_H-M "I M M M"
_symmetry_group_IT_number 71
_symmetry_cell_setting 'orthorhombic'
loop_
_space_group_symop_operation_xyz
x,y,z
-x,-y,z
x,-y,-z
-x,y,-z
-x,-y,-z
x,y,-z
-x,y,z
x,-y,z
1/2+x,1/2+y,1/2+z
1/2-x,1/2-y,1/2+z
1/2+x,1/2-y,1/2-z
1/2-x,1/2+y,1/2-z
1/2-x,1/2-y,1/2-z
1/2+x,1/2+y,1/2-z
1/2-x,1/2+y,1/2+z
1/2+x,1/2-y,1/2+z
loop_
_atom_site_type_symbol
_atom_site_label
_atom_site_fract_x
_atom_site_fract_y
_atom_site_fract_z
Si Si1 0.577447 0.889590 0.000000
Si Si2 0.922552 0.723104 0.500000
Si Si3 0.422550 0.443649 0.500000
Si Si4 0.819226 0.388557 0.798951
Si Si5 0.819199 0.055462 0.299134
Si Si6 0.680865 0.222297 0.700687
O O1 0.571253 0.833227 0.000000
O O2 0.618120 0.906640 0.174933
O O3 0.500000 0.912339 0.000000
O O4 0.881732 0.740340 0.674604
O O5 0.000000 0.745859 0.500000
O O6 0.428693 0.500000 0.500000
O O7 0.500000 0.420911 0.500000
O O8 0.381849 0.426597 0.325120
O O9 0.749998 0.416555 0.745134
O O10 0.803757 0.333144 0.768126
O O11 0.841133 0.399268 0.000000
O O12 0.841200 0.066354 0.500000
O O13 0.803613 0.000000 0.269759
O O14 0.658570 0.232610 0.500000
O O15 0.750000 0.250000 0.750000
#
# Coordination Sequence:
#
# PCOD8287656 Si02
#       6
#     8   8   8  16  16  16
#     4   9  17  29  46  69  96 122 150 187 230 271
#     4   9  18  31  47  70  98 122 151 196 237 272
#     4   9  17  28  44  68  94 119 151 191 230 268
#     4   9  18  30  47  71  92 118 153 190 227 267
#     4   9  17  30  48  69  91 119 153 189 229 270
#     4  10  18  30  49  73  92 120 157 192 231 275
#
# _framework density 17.606646000000001
#
# number of rings (size 3 to 8) (size 9 to 14) (size 15 to 20)
#    0.000    2.778    1.111    0.667    0.000    1.333 
#    0.000    6.667    0.000    2.667    0.000    3.111 
#    0.000    0.000    0.000    0.000    0.000    0.000 
#
# Total GULP energy -446354.639699 kJ/mol
# GULP energy per Si atom -12398.739992 kJ/mol
# Density = 1.756657 g / cm^3
# Si number density = 17.606646 Si / 1000 Ang^3
#
#
#
# Elastic Constant Matrix: (Units=GPa)
#
#
# Indices 1 2 3 4 5 6 
#
# 1 186.1153 35.0786 106.3033 0.0000 0.0000 0.0000
# 2 35.0786 25.4639 27.8013 0.0000 0.0000 0.0000
# 3 106.3033 27.8013 150.8481 0.0000 0.0000 0.0000
# 4 0.0000 0.0000 0.0000 16.4100 0.0000 0.0000
# 5 0.0000 0.0000 0.0000 0.0000 30.0649 0.0000
# 6 0.0000 0.0000 0.0000 0.0000 0.0000 21.7502
#
#
#
# Elastic Compliance Matrix: (Units=1/GPa)
#
#
# Indices 1 2 3 4 5 6 
#
# 1 0.010059 -0.007659 -0.005677 0.000000 0.000000 0.000000
# 2 -0.007659 0.054995 -0.004738 0.000000 0.000000 0.000000
# 3 -0.005677 -0.004738 0.011503 0.000000 0.000000 0.000000
# 4 0.000000 0.000000 0.000000 0.060938 0.000000 0.000000
# 5 0.000000 0.000000 0.000000 0.000000 0.033261 0.000000
# 6 0.000000 0.000000 0.000000 0.000000 0.000000 0.045977
#
#
# Mechanical properties :
#
#
# Convention : Reuss Voigt Hill
#
# Bulk Modulus (GPa) = 24.74712 77.86596 51.30654
# Shear Modulus (GPa) = 18.77211 26.52799 22.65005
#
# Velocity S-wave (km/s) = 3.26881 3.88584 3.59060
# Velocity P-wave (km/s) = 5.32286 8.02834 6.81128
#
# Compressibility (1/GPa) = 0.04040874
#
# Stress axis : x y z
#
# Youngs Moduli (GPa) = 99.41124 18.18334 86.93238
#
# Poissons Ratio (x) = 0.13927 0.49353
# Poissons Ratio (y) = 0.76140 0.41191
# Poissons Ratio (z) = 0.56438 0.08616
#
# Static dielectric constant tensor:
#      x y z
#    x 3.521410 0.000000 0.000000 
#    y 0.000000 2.944490 0.000000 
#    z 0.000000 0.000000 3.572880 
# 
# 
# High freq. dielectric constant tensor:
#      x y z
#    x 1.677160 0.000000 0.000000 
#    y 0.000000 1.638040 0.000000 
#    z 0.000000 0.000000 1.700220 
# 
# From -- ./inp_files/6138.got.cif
#   From: 2010.06.25/outbox.cif.g09.slc.cpg/sg71_4_cif.got.tgz:6138.got - 2010.06.28 04:59:45.
