data_PCOD8287036
_publ_section_title
;
Structure prediction by ZEFSAII (Michael W. Deem and Ramdas Pophale) SiO2 
 PCOD8287036
Probable space group: I M M M
;
_chemical_formula_sum "Si O2"
_cell_formula_units_Z 56
_cell_length_a 17.792550
_cell_length_b 8.643975
_cell_length_c 22.654396
_cell_angle_alpha 90.000000
_cell_angle_beta 90.000000
_cell_angle_gamma 90.000000
_cell_volume 3484.208892
_symmetry_space_group_name_H-M "I M M M"
_symmetry_group_IT_number 71
_symmetry_cell_setting 'orthorhombic'
loop_
_space_group_symop_operation_xyz
x,y,z
-x,-y,z
x,-y,-z
-x,y,-z
-x,-y,-z
x,y,-z
-x,y,z
x,-y,z
1/2+x,1/2+y,1/2+z
1/2-x,1/2-y,1/2+z
1/2+x,1/2-y,1/2-z
1/2-x,1/2+y,1/2-z
1/2-x,1/2-y,1/2-z
1/2+x,1/2+y,1/2-z
1/2-x,1/2+y,1/2+z
1/2+x,1/2-y,1/2+z
loop_
_atom_site_type_symbol
_atom_site_label
_atom_site_fract_x
_atom_site_fract_y
_atom_site_fract_z
Si Si1 0.000000 0.816030 0.566077
Si Si2 0.870515 0.182878 0.348418
Si Si3 0.274558 0.317077 0.312780
Si Si4 0.915524 0.678954 0.775024
O O1 0.925362 0.757693 0.599751
O O2 0.000000 0.747039 0.500000
O O3 0.000000 0.000000 0.564919
O O4 0.788230 0.259493 0.359406
O O5 0.906623 0.231459 0.286403
O O6 0.861138 0.000000 0.349209
O O7 0.278522 0.500000 0.312313
O O8 0.250000 0.250000 0.250000
O O9 0.358084 0.247940 0.324375
O O10 0.896780 0.500000 0.763535
O O11 0.000000 0.701799 0.799127
#
# Coordination Sequence:
#
# PCOD8287036 Si02
#       4
#     8  16  16  16
#     4   9  18  30  45  65  85 111 149 187 218 251
#     4  10  17  28  44  59  81 111 144 179 215 251
#     4  10  18  27  40  58  82 110 142 173 208 255
#     4  10  18  27  41  61  86 112 141 174 209 253
#
# _framework density 16.072514000000002
#
# number of rings (size 3 to 8) (size 9 to 14) (size 15 to 20)
#    0.000    2.143    1.429    7.714    0.000    1.714 
#    0.000    0.000    0.000    6.857    0.000    0.000 
#    0.000    1.143    0.000   13.143    0.000    3.714 
#
# Total GULP energy -347021.663496 kJ/mol
# GULP energy per Si atom -12393.630839 kJ/mol
# Density = 1.603593 g / cm^3
# Si number density = 16.072514 Si / 1000 Ang^3
#
#
#
# Elastic Constant Matrix: (Units=GPa)
#
#
# Indices 1 2 3 4 5 6 
#
# 1 166.6918 51.1241 50.1459 0.0000 0.0000 0.0000
# 2 51.1241 88.2811 12.5119 0.0000 0.0000 0.0000
# 3 50.1459 12.5119 51.5554 0.0000 0.0000 0.0000
# 4 0.0000 0.0000 0.0000 9.2054 0.0000 0.0000
# 5 0.0000 0.0000 0.0000 0.0000 16.9713 0.0000
# 6 0.0000 0.0000 0.0000 0.0000 0.0000 27.8024
#
#
#
# Elastic Compliance Matrix: (Units=1/GPa)
#
#
# Indices 1 2 3 4 5 6 
#
# 1 0.009988 -0.004564 -0.008608 0.000000 0.000000 0.000000
# 2 -0.004564 0.013817 0.001086 0.000000 0.000000 0.000000
# 3 -0.008608 0.001086 0.027505 0.000000 0.000000 0.000000
# 4 0.000000 0.000000 0.000000 0.108632 0.000000 0.000000
# 5 0.000000 0.000000 0.000000 0.000000 0.058923 0.000000
# 6 0.000000 0.000000 0.000000 0.000000 0.000000 0.035968
#
#
# Mechanical properties :
#
#
# Convention : Reuss Voigt Hill
#
# Bulk Modulus (GPa) = 36.84702 59.34360 48.09531
# Shear Modulus (GPa) = 17.35801 23.64557 20.50179
#
# Velocity S-wave (km/s) = 3.28987 3.83976 3.57540
# Velocity P-wave (km/s) = 6.11607 7.52734 6.85810
#
# Compressibility (1/GPa) = 0.02713924
#
# Stress axis : x y z
#
# Youngs Moduli (GPa) = 100.11593 72.37597 36.35673
#
# Poissons Ratio (x) = 0.33035 0.31294
# Poissons Ratio (y) = 0.45697 -0.03950
# Poissons Ratio (z) = 0.86176 -0.07863
#
# Static dielectric constant tensor:
#      x y z
#    x 4.007920 0.000000 0.000000 
#    y 0.000000 3.075860 0.000000 
#    z 0.000000 0.000000 2.636240 
# 
# 
# High freq. dielectric constant tensor:
#      x y z
#    x 1.643730 0.000000 0.000000 
#    y 0.000000 1.628750 0.000000 
#    z 0.000000 0.000000 1.534650 
# 
# From -- ./inp_files/7755.got.cif
#   From: 2010.06.25/outbox.cif.g09.slc.cpg/sg71_4_cif.got.tgz:7755.got - 2010.06.28 04:59:45.
