data_PCOD8287318
_publ_section_title
;
Structure prediction by ZEFSAII (Michael W. Deem and Ramdas Pophale) SiO2 
 PCOD8287318
Probable space group: I M M M
;
_chemical_formula_sum "Si O2"
_cell_formula_units_Z 104
_cell_length_a 9.285873
_cell_length_b 28.363343
_cell_length_c 24.007922
_cell_angle_alpha 90.000000
_cell_angle_beta 90.000000
_cell_angle_gamma 90.000000
_cell_volume 6323.168107
_symmetry_space_group_name_H-M "I M M M"
_symmetry_group_IT_number 71
_symmetry_cell_setting 'orthorhombic'
loop_
_space_group_symop_operation_xyz
x,y,z
-x,-y,z
x,-y,-z
-x,y,-z
-x,-y,-z
x,y,-z
-x,y,z
x,-y,z
1/2+x,1/2+y,1/2+z
1/2-x,1/2-y,1/2+z
1/2+x,1/2-y,1/2-z
1/2-x,1/2+y,1/2-z
1/2-x,1/2-y,1/2-z
1/2+x,1/2+y,1/2-z
1/2-x,1/2+y,1/2+z
1/2+x,1/2-y,1/2+z
loop_
_atom_site_type_symbol
_atom_site_label
_atom_site_fract_x
_atom_site_fract_y
_atom_site_fract_z
Si Si1 0.670919 0.447972 0.357221
Si Si2 0.668741 0.364990 0.564605
Si Si3 0.669898 0.089731 0.369328
Si Si4 0.667463 0.182570 0.435476
Si Si5 0.332671 0.445426 0.767993
Si Si6 0.337482 0.226470 0.933822
Si Si7 0.671339 0.000000 0.562296
O O1 0.500000 0.450397 0.359614
O O2 0.732639 0.500000 0.372433
O O3 0.728729 0.409845 0.401285
O O4 0.718229 0.433678 0.294820
O O5 0.701741 0.374678 0.500000
O O6 0.500000 0.356406 0.574779
O O7 0.752543 0.319413 0.587594
O O8 0.500000 0.086526 0.361153
O O9 0.715488 0.137565 0.399945
O O10 0.743034 0.088069 0.308930
O O11 0.728013 0.046366 0.406292
O O12 0.701694 0.171885 0.500000
O O13 0.500000 0.194406 0.427518
O O14 0.757651 0.226740 0.412183
O O15 0.500000 0.434037 0.775872
O O16 0.300307 0.500000 0.781453
O O17 0.500000 0.225573 0.910451
O O18 0.335700 0.226603 0.000000
O O19 0.500000 0.000000 0.559848
O O20 0.735444 0.000000 0.500000
#
# Coordination Sequence:
#
# PCOD8287318 Si02
#       7
#    16  16  16  16  16  16   8
#     4   8  15  28  46  69  95 122 151 182 218 263
#     4   9  16  27  47  73  96 118 146 182 222 263
#     4  10  18  28  45  67  89 115 150 192 228 265
#     4   9  17  29  45  66  90 116 149 188 229 270
#     4   9  17  30  46  62  86 122 158 186 217 262
#     4   9  17  29  45  65  91 122 151 180 219 270
#     4   9  16  26  41  63  91 119 144 177 228 278
#
# _framework density 16.447451000000001
#
# number of rings (size 3 to 8) (size 9 to 14) (size 15 to 20)
#    0.000    3.000    0.769    1.846    0.000    4.615 
#    0.000    2.308    0.000    4.154    0.000    2.154 
#    0.000    0.000    0.000    0.000    0.000    0.000 
#
# Total GULP energy -644703.509989 kJ/mol
# GULP energy per Si atom -12398.144423 kJ/mol
# Density = 1.641002 g / cm^3
# Si number density = 16.447451 Si / 1000 Ang^3
#
#
#
# Elastic Constant Matrix: (Units=GPa)
#
#
# Indices 1 2 3 4 5 6 
#
# 1 49.3522 53.8644 34.4564 0.0000 0.0000 0.0000
# 2 53.8644 156.4131 73.6397 0.0000 0.0000 0.0000
# 3 34.4564 73.6397 84.8763 -0.0001 0.0000 0.0000
# 4 0.0000 0.0000 -0.0001 14.7451 0.0000 0.0000
# 5 0.0000 0.0000 0.0000 0.0000 18.9213 0.0000
# 6 0.0000 0.0000 0.0000 0.0000 0.0000 16.6191
#
#
#
# Elastic Compliance Matrix: (Units=1/GPa)
#
#
# Indices 1 2 3 4 5 6 
#
# 1 0.034300 -0.008886 -0.006215 0.000000 0.000000 0.000000
# 2 -0.008886 0.013110 -0.007767 0.000000 0.000000 0.000000
# 3 -0.006215 -0.007767 0.021044 0.000000 0.000000 0.000000
# 4 0.000000 0.000000 0.000000 0.067819 0.000000 0.000000
# 5 0.000000 0.000000 0.000000 0.000000 0.052851 0.000000
# 6 0.000000 0.000000 0.000000 0.000000 0.000000 0.060172
#
#
# Mechanical properties :
#
#
# Convention : Reuss Voigt Hill
#
# Bulk Modulus (GPa) = 44.01822 68.28473 56.15147
# Shear Modulus (GPa) = 16.52322 18.63584 17.57953
#
# Velocity S-wave (km/s) = 3.17299 3.36974 3.27284
# Velocity P-wave (km/s) = 6.34389 7.53307 6.96391
#
# Compressibility (1/GPa) = 0.02271786
#
# Stress axis : x y z
#
# Youngs Moduli (GPa) = 29.15449 76.27613 47.52002
#
# Poissons Ratio (x) = 0.67779 0.29533
# Poissons Ratio (y) = 0.25907 0.36910
# Poissons Ratio (z) = 0.18119 0.59245
#
# Static dielectric constant tensor:
#      x y z
#    x 2.889160 0.000000 0.000000 
#    y 0.000000 3.279880 0.000000 
#    z 0.000000 0.000000 2.992120 
# 
# 
# High freq. dielectric constant tensor:
#      x y z
#    x 1.608920 0.000000 0.000000 
#    y 0.000000 1.634500 0.000000 
#    z 0.000000 0.000000 1.612200 
# 
# From -- ./inp_files/13598.got.cif
#   From: 2010.06.25/outbox.cif.g09.slc.cpg/sg71_7_cif.got.tgz:13598.got - 2010.06.28 04:59:45.
