data_PCOD8287299
_publ_section_title
;
Structure prediction by ZEFSAII (Michael W. Deem and Ramdas Pophale) SiO2 
 PCOD8287299
Probable space group: I M M M
;
_chemical_formula_sum "Si O2"
_cell_formula_units_Z 96
_cell_length_a 28.654396
_cell_length_b 8.994499
_cell_length_c 25.776542
_cell_angle_alpha 90.000000
_cell_angle_beta 90.000000
_cell_angle_gamma 90.000000
_cell_volume 6643.438077
_symmetry_space_group_name_H-M "I M M M"
_symmetry_group_IT_number 71
_symmetry_cell_setting 'orthorhombic'
loop_
_space_group_symop_operation_xyz
x,y,z
-x,-y,z
x,-y,-z
-x,y,-z
-x,-y,-z
x,y,-z
-x,y,z
x,-y,z
1/2+x,1/2+y,1/2+z
1/2-x,1/2-y,1/2+z
1/2+x,1/2-y,1/2-z
1/2-x,1/2+y,1/2-z
1/2-x,1/2-y,1/2-z
1/2+x,1/2+y,1/2-z
1/2-x,1/2+y,1/2+z
1/2+x,1/2-y,1/2+z
loop_
_atom_site_type_symbol
_atom_site_label
_atom_site_fract_x
_atom_site_fract_y
_atom_site_fract_z
Si Si1 0.052467 0.328094 0.893584
Si Si2 0.635752 0.671027 0.558547
Si Si3 0.221549 0.827513 0.705125
Si Si4 0.552786 0.326671 0.715849
Si Si5 0.860317 0.326473 0.251913
Si Si6 0.691355 0.830605 0.355868
O O1 0.063453 0.500000 0.882092
O O2 0.088215 0.264922 0.935666
O O3 0.060072 0.238966 0.840984
O O4 0.000000 0.307228 0.915089
O O5 0.654050 0.693004 0.500000
O O6 0.624472 0.500000 0.570416
O O7 0.675996 0.725255 0.597385
O O8 0.250000 0.750000 0.750000
O O9 0.171021 0.748221 0.702379
O O10 0.252884 0.808344 0.653152
O O11 0.214821 0.000000 0.718659
O O12 0.500000 0.297890 0.735412
O O13 0.564609 0.500000 0.713885
O O14 0.588193 0.244918 0.754924
O O15 0.863586 0.500000 0.263275
O O16 0.837554 0.290808 0.196011
O O17 0.680579 0.000000 0.371600
#
# Coordination Sequence:
#
# PCOD8287299 Si02
#       6
#    16  16  16  16  16  16
#     4  10  20  33  47  60  75  99 133 173 216 259
#     4  11  23  34  45  61  79 103 135 172 215 257
#     4   9  17  28  43  63  84 104 129 161 202 246
#     4  10  19  29  43  62  83 109 138 169 207 246
#     4  10  18  28  44  65  85 106 134 164 201 246
#     4   9  18  31  45  61  80 104 132 165 205 249
#
# _framework density 14.450348999999999
#
# number of rings (size 3 to 8) (size 9 to 14) (size 15 to 20)
#    0.000    2.167    1.667    3.500    0.000    7.000 
#    0.000    1.667    0.000    0.000    0.000    0.000 
#    0.000    0.000    0.000    0.000    0.000    0.833 
#
# Total GULP energy -595064.356325 kJ/mol
# GULP energy per Si atom -12397.174090 kJ/mol
# Density = 1.441746 g / cm^3
# Si number density = 14.450349 Si / 1000 Ang^3
#
#
#
# Elastic Constant Matrix: (Units=GPa)
#
#
# Indices 1 2 3 4 5 6 
#
# 1 96.8324 58.5726 39.0720 0.0000 0.0000 0.0000
# 2 58.5726 104.6754 30.1691 0.0000 0.0000 0.0000
# 3 39.0720 30.1691 34.9777 0.0000 0.0000 0.0000
# 4 0.0000 0.0000 0.0000 17.1661 0.0000 0.0000
# 5 0.0000 0.0000 0.0000 0.0000 17.5594 0.0000
# 6 0.0000 0.0000 0.0000 0.0000 0.0000 27.6835
#
#
#
# Elastic Compliance Matrix: (Units=1/GPa)
#
#
# Indices 1 2 3 4 5 6 
#
# 1 0.022064 -0.006977 -0.018629 0.000000 0.000000 0.000000
# 2 -0.006977 0.014920 -0.005075 0.000000 0.000000 0.000000
# 3 -0.018629 -0.005075 0.053777 0.000000 0.000000 0.000000
# 4 0.000000 0.000000 0.000000 0.058254 0.000000 0.000000
# 5 0.000000 0.000000 0.000000 0.000000 0.056950 0.000000
# 6 0.000000 0.000000 0.000000 0.000000 0.000000 0.036123
#
#
# Mechanical properties :
#
#
# Convention : Reuss Voigt Hill
#
# Bulk Modulus (GPa) = 34.01528 54.67921 44.34725
# Shear Modulus (GPa) = 15.96164 19.72658 17.84411
#
# Velocity S-wave (km/s) = 3.32714 3.69877 3.51786
# Velocity P-wave (km/s) = 6.19276 7.49418 6.87434
#
# Compressibility (1/GPa) = 0.02939855
#
# Stress axis : x y z
#
# Youngs Moduli (GPa) = 45.32169 67.02276 18.59532
#
# Poissons Ratio (x) = 0.46764 0.34642
# Poissons Ratio (y) = 0.31622 0.09437
# Poissons Ratio (z) = 0.84431 0.34015
#
# Static dielectric constant tensor:
#      x y z
#    x 3.137110 0.000000 0.000000 
#    y 0.000000 3.003390 0.000000 
#    z 0.000000 0.000000 2.445440 
# 
# 
# High freq. dielectric constant tensor:
#      x y z
#    x 1.553510 0.000000 0.000000 
#    y 0.000000 1.574470 0.000000 
#    z 0.000000 0.000000 1.488080 
# 
# From -- ./inp_files/13150.got.cif
#   From: 2010.06.25/outbox.cif.g09.slc.cpg/sg71_7_cif.got.tgz:13150.got - 2010.06.28 04:59:45.
