data_PCOD8287207
_publ_section_title
;
Structure prediction by ZEFSAII (Michael W. Deem and Ramdas Pophale) SiO2 
 PCOD8287207
Probable space group: I M M M
;
_chemical_formula_sum "Si O2"
_cell_formula_units_Z 112
_cell_length_a 23.106922
_cell_length_b 18.727736
_cell_length_c 18.422780
_cell_angle_alpha 90.000000
_cell_angle_beta 90.000000
_cell_angle_gamma 90.000000
_cell_volume 7972.279989
_symmetry_space_group_name_H-M "I M M M"
_symmetry_group_IT_number 71
_symmetry_cell_setting 'orthorhombic'
loop_
_space_group_symop_operation_xyz
x,y,z
-x,-y,z
x,-y,-z
-x,y,-z
-x,-y,-z
x,y,-z
-x,y,z
x,-y,z
1/2+x,1/2+y,1/2+z
1/2-x,1/2-y,1/2+z
1/2+x,1/2-y,1/2-z
1/2-x,1/2+y,1/2-z
1/2-x,1/2-y,1/2-z
1/2+x,1/2+y,1/2-z
1/2-x,1/2+y,1/2+z
1/2+x,1/2-y,1/2+z
loop_
_atom_site_type_symbol
_atom_site_label
_atom_site_fract_x
_atom_site_fract_y
_atom_site_fract_z
Si Si1 0.235702 0.080732 0.082932
Si Si2 0.772203 0.201895 0.329984
Si Si3 0.326895 0.279665 0.417343
Si Si4 0.366380 0.081334 0.328326
Si Si5 0.434867 0.190788 0.583663
Si Si6 0.751989 0.921207 0.583385
Si Si7 0.302755 0.153761 0.795629
O O1 0.182019 0.135224 0.094950
O O2 0.288032 0.102712 0.136517
O O3 0.215183 0.000000 0.100762
O O4 0.258606 0.085781 0.000000
O O5 0.713818 0.233798 0.365459
O O6 0.795325 0.137491 0.381322
O O7 0.755485 0.167517 0.252269
O O8 0.819733 0.265579 0.323263
O O9 0.310934 0.259472 0.500000
O O10 0.393183 0.258398 0.399918
O O11 0.418056 0.122722 0.367631
O O12 0.309542 0.085134 0.377549
O O13 0.353852 0.117502 0.250031
O O14 0.386053 0.000000 0.315693
O O15 0.430144 0.166998 0.500000
O O16 0.500000 0.214361 0.603372
O O17 0.741845 0.903708 0.500000
O O18 0.778777 0.000000 0.594591
#
# Coordination Sequence:
#
# PCOD8287207 Si02
#       7
#    16  16  16  16  16  16  16
#     4   9  17  27  40  58  78 100 128 163 199 235
#     4   9  15  23  37  54  74 100 132 161 187 226
#     4   9  15  26  41  55  76 104 134 161 190 228
#     4  10  18  27  39  54  76 104 132 164 196 228
#     4  10  19  29  41  57  78 105 137 169 197 225
#     4   9  15  22  34  52  76 105 132 155 181 219
#     4   9  16  25  38  55  74 100 128 161 194 232
#
# _framework density 14.048679
#
# number of rings (size 3 to 8) (size 9 to 14) (size 15 to 20)
#    0.000    2.714    2.857    1.286    0.000    2.286 
#    0.000    0.714    0.000    0.429    0.000    3.000 
#    0.000    0.571    0.000    3.000    0.000    0.000 
#
# Total GULP energy -693841.316072 kJ/mol
# GULP energy per Si atom -12390.023501 kJ/mol
# Density = 1.401670 g / cm^3
# Si number density = 14.048679 Si / 1000 Ang^3
#
#
#
# Elastic Constant Matrix: (Units=GPa)
#
#
# Indices 1 2 3 4 5 6 
#
# 1 33.5184 20.3282 24.2559 0.0000 0.0000 0.0000
# 2 20.3282 106.3410 45.1195 0.0000 0.0000 0.0000
# 3 24.2559 45.1195 70.6962 0.0000 0.0000 0.0000
# 4 0.0000 0.0000 0.0000 26.7567 0.0000 0.0000
# 5 0.0000 0.0000 0.0000 0.0000 13.9944 0.0000
# 6 0.0000 0.0000 0.0000 0.0000 0.0000 13.0202
#
#
#
# Elastic Compliance Matrix: (Units=1/GPa)
#
#
# Indices 1 2 3 4 5 6 
#
# 1 0.040172 -0.002511 -0.012180 0.000000 0.000000 0.000000
# 2 -0.002511 0.013053 -0.007469 0.000000 0.000000 0.000000
# 3 -0.012180 -0.007469 0.023091 0.000000 0.000000 0.000000
# 4 0.000000 0.000000 0.000000 0.037374 0.000000 0.000000
# 5 0.000000 0.000000 0.000000 0.000000 0.071457 0.000000
# 6 0.000000 0.000000 0.000000 0.000000 0.000000 0.076804
#
#
# Mechanical properties :
#
#
# Convention : Reuss Voigt Hill
#
# Bulk Modulus (GPa) = 31.25528 43.32921 37.29225
# Shear Modulus (GPa) = 15.77607 18.81105 17.29356
#
# Velocity S-wave (km/s) = 3.35469 3.66319 3.51233
# Velocity P-wave (km/s) = 6.10749 6.98578 6.56135
#
# Compressibility (1/GPa) = 0.03199459
#
# Stress axis : x y z
#
# Youngs Moduli (GPa) = 24.89308 76.61232 43.30723
#
# Poissons Ratio (x) = 0.19240 0.52749
# Poissons Ratio (y) = 0.06251 0.32345
# Poissons Ratio (z) = 0.30320 0.57221
#
# Static dielectric constant tensor:
#      x y z
#    x 2.259320 0.000000 0.000000 
#    y 0.000000 3.272420 0.000000 
#    z 0.000000 0.000000 2.955750 
# 
# 
# High freq. dielectric constant tensor:
#      x y z
#    x 1.454360 0.000000 0.000000 
#    y 0.000000 1.555880 0.000000 
#    z 0.000000 0.000000 1.546820 
# 
# From -- ./inp_files/47684.got.cif
#   From: 2010.06.25/outbox.cif.g09.slc.cpg/sg71_24_cif.got.tgz:47684.got - 2010.06.28 04:59:45.
