data_PCOD8287843
_publ_section_title
;
Structure prediction by ZEFSAII (Michael W. Deem and Ramdas Pophale) SiO2 
 PCOD8287843
Probable space group: I M M M
;
_chemical_formula_sum "Si O2"
_cell_formula_units_Z 96
_cell_length_a 11.926958
_cell_length_b 28.456481
_cell_length_c 14.915981
_cell_angle_alpha 90.000000
_cell_angle_beta 90.000000
_cell_angle_gamma 90.000000
_cell_volume 5062.472820
_symmetry_space_group_name_H-M "I M M M"
_symmetry_group_IT_number 71
_symmetry_cell_setting 'orthorhombic'
loop_
_space_group_symop_operation_xyz
x,y,z
-x,-y,z
x,-y,-z
-x,y,-z
-x,-y,-z
x,y,-z
-x,y,z
x,-y,z
1/2+x,1/2+y,1/2+z
1/2-x,1/2-y,1/2+z
1/2+x,1/2-y,1/2-z
1/2-x,1/2+y,1/2-z
1/2-x,1/2-y,1/2-z
1/2+x,1/2+y,1/2-z
1/2-x,1/2+y,1/2+z
1/2+x,1/2-y,1/2+z
loop_
_atom_site_type_symbol
_atom_site_label
_atom_site_fract_x
_atom_site_fract_y
_atom_site_fract_z
Si Si1 0.131335 0.131608 0.397269
Si Si2 0.221021 0.888874 0.106830
Si Si3 0.378228 0.807948 0.899959
Si Si4 0.369639 0.446600 0.245430
Si Si5 0.500000 0.335410 0.394961
Si Si6 0.500000 0.232192 0.605739
Si Si7 0.756173 0.276709 0.157185
O O1 0.175078 0.126230 0.500000
O O2 0.160888 0.084908 0.341183
O O3 0.187039 0.175576 0.347330
O O4 0.000000 0.141325 0.397560
O O5 0.319175 0.854161 0.142114
O O6 0.212487 0.935098 0.169210
O O7 0.108874 0.862345 0.136499
O O8 0.226354 0.900966 0.000000
O O9 0.500000 0.798191 0.852281
O O10 0.298581 0.762170 0.908051
O O11 0.402342 0.823589 0.000000
O O12 0.500000 0.440366 0.273105
O O13 0.344513 0.500000 0.217574
O O14 0.500000 0.328826 0.500000
O O15 0.500000 0.284103 0.350916
O O16 0.500000 0.232335 0.500000
O O17 0.615420 0.208047 0.637441
O O18 0.750000 0.250000 0.250000
#
# Coordination Sequence:
#
# PCOD8287843 Si02
#       7
#    16  16  16  16   8   8  16
#     4  10  22  39  58  79 110 151 191 235 284 333
#     4  10  18  31  52  81 116 150 179 218 275 342
#     4  10  20  34  53  76 110 153 189 217 256 326
#     4  10  21  36  56  82 108 137 182 239 293 344
#     4   9  16  28  49  74 107 147 180 207 257 330
#     4  11  22  36  54  79 115 158 192 222 270 336
#     4  12  24  34  54  83 118 149 186 233 278 332
#
# _framework density 18.963063999999999
#
# number of rings (size 3 to 8) (size 9 to 14) (size 15 to 20)
#    0.000    1.667    2.500    3.000    2.333    2.000 
#    0.000    2.500    0.000    0.500    0.000    2.333 
#    0.000    2.000    0.000    0.000    0.000    0.000 
#
# Total GULP energy -594705.121681 kJ/mol
# GULP energy per Si atom -12389.690035 kJ/mol
# Density = 1.891990 g / cm^3
# Si number density = 18.963064 Si / 1000 Ang^3
#
#
#
# Elastic Constant Matrix: (Units=GPa)
#
#
# Indices 1 2 3 4 5 6 
#
# 1 97.6226 36.1168 31.3309 0.0000 0.0000 0.0000
# 2 36.1168 132.7714 53.2142 -0.0001 0.0001 0.0000
# 3 31.3309 53.2142 81.2986 -0.0017 0.0012 0.0003
# 4 0.0000 -0.0001 -0.0017 26.9663 0.0003 0.0001
# 5 0.0000 0.0001 0.0012 0.0003 19.7043 -0.0001
# 6 0.0000 0.0000 0.0003 0.0001 -0.0001 23.7540
#
#
#
# Elastic Compliance Matrix: (Units=1/GPa)
#
#
# Indices 1 2 3 4 5 6 
#
# 1 0.012039 -0.001919 -0.003384 0.000000 0.000000 0.000000
# 2 -0.001919 0.010516 -0.006144 0.000000 0.000000 0.000000
# 3 -0.003384 -0.006144 0.017626 0.000001 -0.000001 0.000000
# 4 0.000000 0.000000 0.000001 0.037083 -0.000001 0.000000
# 5 0.000000 0.000000 -0.000001 -0.000001 0.050750 0.000000
# 6 0.000000 0.000000 0.000000 0.000000 0.000000 0.042098
#
#
# Mechanical properties :
#
#
# Convention : Reuss Voigt Hill
#
# Bulk Modulus (GPa) = 57.84206 61.44626 59.64416
# Shear Modulus (GPa) = 25.15484 26.82032 25.98758
#
# Velocity S-wave (km/s) = 3.64609 3.76486 3.70595
# Velocity P-wave (km/s) = 6.94939 7.16745 7.05926
#
# Compressibility (1/GPa) = 0.01728846
#
# Stress axis : x y z
#
# Youngs Moduli (GPa) = 83.06058 95.09195 56.73469
#
# Poissons Ratio (x) = 0.18246 0.19198
# Poissons Ratio (y) = 0.15937 0.34857
# Poissons Ratio (z) = 0.28106 0.58424
#
# Static dielectric constant tensor:
#      x y z
#    x 3.634950 0.000000 0.000000 
#    y 0.000000 3.480270 0.000000 
#    z 0.000000 0.000000 3.728380 
# 
# 
# High freq. dielectric constant tensor:
#      x y z
#    x 1.726450 0.000000 0.000000 
#    y 0.000000 1.711870 0.000000 
#    z 0.000000 0.000000 1.739300 
# 
# From -- ./inp_files/33249.got.cif
#   From: 2010.06.25/outbox.cif.g09.slc.cpg/sg71_17_cif.got.tgz:33249.got - 2010.06.28 04:59:45.
