data_PCOD8287149
_publ_section_title
;
Structure prediction by ZEFSAII (Michael W. Deem and Ramdas Pophale) SiO2 
 PCOD8287149
Probable space group: I M M M
;
_chemical_formula_sum "Si O2"
_cell_formula_units_Z 36
_cell_length_a 7.345743
_cell_length_b 18.798650
_cell_length_c 14.315244
_cell_angle_alpha 90.000000
_cell_angle_beta 90.000000
_cell_angle_gamma 90.000000
_cell_volume 1976.792783
_symmetry_space_group_name_H-M "I M M M"
_symmetry_group_IT_number 71
_symmetry_cell_setting 'orthorhombic'
loop_
_space_group_symop_operation_xyz
x,y,z
-x,-y,z
x,-y,-z
-x,y,-z
-x,-y,-z
x,y,-z
-x,y,z
x,-y,z
1/2+x,1/2+y,1/2+z
1/2-x,1/2-y,1/2+z
1/2+x,1/2-y,1/2-z
1/2-x,1/2+y,1/2-z
1/2-x,1/2-y,1/2-z
1/2+x,1/2+y,1/2-z
1/2-x,1/2+y,1/2+z
1/2+x,1/2-y,1/2+z
loop_
_atom_site_type_symbol
_atom_site_label
_atom_site_fract_x
_atom_site_fract_y
_atom_site_fract_z
Si Si1 0.286049 0.824171 0.799339
Si Si2 0.000000 0.083511 0.698301
Si Si3 0.700212 0.209409 0.000000
Si Si4 0.500000 0.347278 0.000000
O O1 0.500000 0.841385 0.798907
O O2 0.250000 0.750000 0.750000
O O3 0.204065 0.817221 0.904930
O O4 0.181140 0.886470 0.746710
O O5 0.000000 0.102552 0.589585
O O6 0.000000 0.000000 0.711288
O O7 0.500000 0.174770 0.000000
O O8 0.679292 0.296118 0.000000
#
# Coordination Sequence:
#
# PCOD8287149 Si02
#       4
#    16   8   8   4
#     4  11  19  37  62  87 117 154 203 246 286 351
#     4  12  25  39  58  91 127 158 190 242 310 359
#     4   8  16  32  61  90 109 143 206 248 284 330
#     4  10  17  38  62  86 117 154 190 256 293 350
#
# _framework density 18.211317000000001
#
# number of rings (size 3 to 8) (size 9 to 14) (size 15 to 20)
#    0.667    0.889    6.667    0.333    0.000    1.778 
#    0.000    5.556    0.000    6.667    0.000    0.000 
#    0.000    0.000    0.000    0.000    0.000    0.000 
#
# Total GULP energy -223035.003431 kJ/mol
# GULP energy per Si atom -12390.833524 kJ/mol
# Density = 1.816987 g / cm^3
# Si number density = 18.211317 Si / 1000 Ang^3
#
#
#
# Elastic Constant Matrix: (Units=GPa)
#
#
# Indices 1 2 3 4 5 6 
#
# 1 91.4450 44.8540 46.2200 0.0000 0.0000 0.0000
# 2 44.8540 144.1881 73.3508 0.0000 0.0000 0.0000
# 3 46.2200 73.3508 195.8257 0.0000 0.0000 0.0000
# 4 0.0000 0.0000 0.0000 23.2246 0.0000 0.0000
# 5 0.0000 0.0000 0.0000 0.0000 15.3290 0.0000
# 6 0.0000 0.0000 0.0000 0.0000 0.0000 25.4205
#
#
#
# Elastic Compliance Matrix: (Units=1/GPa)
#
#
# Indices 1 2 3 4 5 6 
#
# 1 0.013507 -0.003187 -0.001994 0.000000 0.000000 0.000000
# 2 -0.003187 0.009320 -0.002739 0.000000 0.000000 0.000000
# 3 -0.001994 -0.002739 0.006603 0.000000 0.000000 0.000000
# 4 0.000000 0.000000 0.000000 0.043058 0.000000 0.000000
# 5 0.000000 0.000000 0.000000 0.000000 0.065236 0.000000
# 6 0.000000 0.000000 0.000000 0.000000 0.000000 0.039338
#
#
# Mechanical properties :
#
#
# Convention : Reuss Voigt Hill
#
# Bulk Modulus (GPa) = 73.58484 84.47872 79.03178
# Shear Modulus (GPa) = 25.32517 30.59710 27.96113
#
# Velocity S-wave (km/s) = 3.73316 4.10337 3.92263
# Velocity P-wave (km/s) = 7.68608 8.30294 8.00046
#
# Compressibility (1/GPa) = 0.01358976
#
# Stress axis : x y z
#
# Youngs Moduli (GPa) = 74.03682 107.29448 151.44372
#
# Poissons Ratio (x) = 0.34198 0.30199
# Poissons Ratio (y) = 0.23597 0.41477
# Poissons Ratio (z) = 0.14764 0.29386
#
# Static dielectric constant tensor:
#      x y z
#    x 2.971910 0.000000 0.000000 
#    y 0.000000 3.029390 0.000000 
#    z 0.000000 0.000000 3.789520 
# 
# 
# High freq. dielectric constant tensor:
#      x y z
#    x 1.691650 0.000000 0.000000 
#    y 0.000000 1.669530 0.000000 
#    z 0.000000 0.000000 1.735780 
# 
# From -- ./inp_files/30749.got.cif
#   From: 2010.06.25/outbox.cif.g09.slc.cpg/sg71_16_cif.got.tgz:30749.got - 2010.06.28 04:59:45.
