data_PCOD8287810
_publ_section_title
;
Structure prediction by ZEFSAII (Michael W. Deem and Ramdas Pophale) SiO2 
 PCOD8287810
Probable space group: I M M M
;
_chemical_formula_sum "Si O2"
_cell_formula_units_Z 96
_cell_length_a 19.754278
_cell_length_b 18.578579
_cell_length_c 14.174091
_cell_angle_alpha 90.000000
_cell_angle_beta 90.000000
_cell_angle_gamma 90.000000
_cell_volume 5201.982315
_symmetry_space_group_name_H-M "I M M M"
_symmetry_group_IT_number 71
_symmetry_cell_setting 'orthorhombic'
loop_
_space_group_symop_operation_xyz
x,y,z
-x,-y,z
x,-y,-z
-x,y,-z
-x,-y,-z
x,y,-z
-x,y,z
x,-y,z
1/2+x,1/2+y,1/2+z
1/2-x,1/2-y,1/2+z
1/2+x,1/2-y,1/2-z
1/2-x,1/2+y,1/2-z
1/2-x,1/2-y,1/2-z
1/2+x,1/2+y,1/2-z
1/2-x,1/2+y,1/2+z
1/2+x,1/2-y,1/2+z
loop_
_atom_site_type_symbol
_atom_site_label
_atom_site_fract_x
_atom_site_fract_y
_atom_site_fract_z
Si Si1 0.077410 0.273594 0.894463
Si Si2 0.228877 0.416346 0.607090
Si Si3 0.071716 0.920705 0.300126
Si Si4 0.201481 0.681519 0.229847
Si Si5 0.205009 0.916087 0.389597
Si Si6 0.114521 0.890124 0.102443
O O1 0.128661 0.300151 0.814000
O O2 0.084189 0.188685 0.898090
O O3 0.000000 0.294198 0.866737
O O4 0.094097 0.304313 0.000000
O O5 0.203964 0.404901 0.500000
O O6 0.221378 0.500000 0.636530
O O7 0.186034 0.363659 0.674775
O O8 0.305476 0.390297 0.620339
O O9 0.135220 0.881243 0.348410
O O10 0.079809 0.931795 0.187727
O O11 0.000000 0.880445 0.321459
O O12 0.067799 0.000000 0.345181
O O13 0.250000 0.750000 0.250000
O O14 0.234571 0.628330 0.154373
O O15 0.206047 0.904614 0.500000
O O16 0.212185 0.000000 0.361024
O O17 0.099825 0.926720 0.000000
#
# Coordination Sequence:
#
# PCOD8287810 Si02
#       6
#    16  16  16  16  16  16
#     4  10  21  36  54  80 116 153 188 230 283 339
#     4  10  20  34  55  84 116 146 180 227 281 334
#     4  10  19  30  45  69 103 142 182 221 267 325
#     4  12  21  34  58  86 110 144 187 236 280 334
#     4  10  21  36  53  74 102 139 185 235 282 329
#     4  10  18  31  51  75 107 144 180 219 269 328
#
# _framework density 18.454504
#
# number of rings (size 3 to 8) (size 9 to 14) (size 15 to 20)
#    0.000    1.667    3.333    2.000    0.000    3.000 
#    0.000    2.500    0.000    2.500    0.000    7.000 
#    0.000    0.000    0.000    0.000    0.000    0.000 
#
# Total GULP energy -594720.012456 kJ/mol
# GULP energy per Si atom -12390.000260 kJ/mol
# Density = 1.841250 g / cm^3
# Si number density = 18.454504 Si / 1000 Ang^3
#
#
#
# Elastic Constant Matrix: (Units=GPa)
#
#
# Indices 1 2 3 4 5 6 
#
# 1 105.2798 33.2568 49.3662 0.0000 0.0000 0.0000
# 2 33.2568 60.2854 48.3641 0.0000 0.0000 0.0000
# 3 49.3662 48.3641 105.2969 0.0000 0.0000 0.0000
# 4 0.0000 0.0000 0.0000 28.0488 0.0000 0.0000
# 5 0.0000 0.0000 0.0000 0.0000 18.2471 0.0000
# 6 0.0000 0.0000 0.0000 0.0000 0.0000 18.2534
#
#
#
# Elastic Compliance Matrix: (Units=1/GPa)
#
#
# Indices 1 2 3 4 5 6 
#
# 1 0.012627 -0.003510 -0.004308 0.000000 0.000000 0.000000
# 2 -0.003510 0.027242 -0.010867 0.000000 0.000000 0.000000
# 3 -0.004308 -0.010867 0.016508 0.000000 0.000000 0.000000
# 4 0.000000 0.000000 0.000000 0.035652 0.000000 0.000000
# 5 0.000000 0.000000 0.000000 0.000000 0.054803 0.000000
# 6 0.000000 0.000000 0.000000 0.000000 0.000000 0.054784
#
#
# Mechanical properties :
#
#
# Convention : Reuss Voigt Hill
#
# Bulk Modulus (GPa) = 52.61034 59.20401 55.90718
# Shear Modulus (GPa) = 20.38132 22.23487 21.30809
#
# Velocity S-wave (km/s) = 3.32687 3.47486 3.40167
# Velocity P-wave (km/s) = 6.58236 6.94624 6.76674
#
# Compressibility (1/GPa) = 0.01900767
#
# Stress axis : x y z
#
# Youngs Moduli (GPa) = 79.19411 36.70775 60.57665
#
# Poissons Ratio (x) = 0.12884 0.26096
# Poissons Ratio (y) = 0.27796 0.65829
# Poissons Ratio (z) = 0.34116 0.39891
#
# Static dielectric constant tensor:
#      x y z
#    x 3.348460 0.000000 0.000000 
#    y 0.000000 3.244120 0.000000 
#    z 0.000000 0.000000 3.656140 
# 
# 
# High freq. dielectric constant tensor:
#      x y z
#    x 1.695280 0.000000 0.000000 
#    y 0.000000 1.690540 0.000000 
#    z 0.000000 0.000000 1.728110 
# 
# From -- ./inp_files/38234.got.cif
#   From: 2010.06.25/outbox.cif.g09.slc.cpg/sg71_20_cif.got.tgz:38234.got - 2010.06.28 04:59:45.
