data_PCOD8287857
_publ_section_title
;
Structure prediction by ZEFSAII (Michael W. Deem and Ramdas Pophale) SiO2 
 PCOD8287857
Probable space group: I M M M
;
_chemical_formula_sum "Si O2"
_cell_formula_units_Z 96
_cell_length_a 9.134712
_cell_length_b 26.316296
_cell_length_c 21.931183
_cell_angle_alpha 90.000000
_cell_angle_beta 90.000000
_cell_angle_gamma 90.000000
_cell_volume 5272.076226
_symmetry_space_group_name_H-M "I M M M"
_symmetry_group_IT_number 71
_symmetry_cell_setting 'orthorhombic'
loop_
_space_group_symop_operation_xyz
x,y,z
-x,-y,z
x,-y,-z
-x,y,-z
-x,-y,-z
x,y,-z
-x,y,z
x,-y,z
1/2+x,1/2+y,1/2+z
1/2-x,1/2-y,1/2+z
1/2+x,1/2-y,1/2-z
1/2-x,1/2+y,1/2-z
1/2-x,1/2-y,1/2-z
1/2+x,1/2+y,1/2-z
1/2-x,1/2+y,1/2+z
1/2+x,1/2-y,1/2+z
loop_
_atom_site_type_symbol
_atom_site_label
_atom_site_fract_x
_atom_site_fract_y
_atom_site_fract_z
Si Si1 0.832286 0.389772 0.888909
Si Si2 0.830350 0.910228 0.846532
Si Si3 0.674404 0.500000 0.431067
Si Si4 0.661706 0.557981 0.788314
Si Si5 0.667980 0.788967 0.675093
Si Si6 0.173532 0.058586 0.500000
Si Si7 0.828387 0.688699 0.311852
O O1 0.789195 0.414243 0.824739
O O2 0.811305 0.329286 0.879784
O O3 0.730014 0.411584 0.941297
O O4 0.000000 0.403044 0.904280
O O5 0.769029 0.948748 0.897939
O O6 0.804056 0.938346 0.782788
O O7 0.742108 0.857772 0.848618
O O8 0.000000 0.897390 0.857451
O O9 0.500000 0.500000 0.427824
O O10 0.733722 0.500000 0.500000
O O11 0.500000 0.581250 0.802734
O O12 0.662827 0.500000 0.809105
O O13 0.500000 0.771038 0.679908
O O14 0.767903 0.740875 0.659325
O O15 0.714986 0.813703 0.740153
O O16 0.000000 0.060363 0.500000
O O17 0.228519 0.000000 0.500000
O O18 0.000000 0.686622 0.322271
#
# Coordination Sequence:
#
# PCOD8287857 Si02
#       7
#    16  16   8  16  16   8  16
#     4  11  22  37  57  81 109 142 186 235 282 329
#     4  10  18  31  53  80 109 143 182 226 275 326
#     4   9  18  34  57  83 111 146 191 230 265 321
#     4  10  19  31  49  77 110 141 177 223 276 335
#     4   9  19  34  52  79 111 142 178 224 277 329
#     4  11  25  43  59  79 111 153 195 230 273 334
#     4  10  19  32  52  81 114 144 178 222 277 335
#
# _framework density 18.209143999999998
#
# number of rings (size 3 to 8) (size 9 to 14) (size 15 to 20)
#    0.000    2.000    2.500    1.750    0.000    5.000 
#    0.000    0.417    1.833    1.000    0.000    0.000 
#    0.000    0.000    0.000    0.000    0.000    0.000 
#
# Total GULP energy -595212.333126 kJ/mol
# GULP energy per Si atom -12400.256940 kJ/mol
# Density = 1.816770 g / cm^3
# Si number density = 18.209144 Si / 1000 Ang^3
#
#
#
# Elastic Constant Matrix: (Units=GPa)
#
#
# Indices 1 2 3 4 5 6 
#
# 1 75.2633 59.3654 37.9483 0.0000 0.0000 0.0000
# 2 59.3654 133.8210 56.0943 0.0000 0.0000 0.0000
# 3 37.9483 56.0943 86.2190 0.0000 0.0000 0.0000
# 4 0.0000 0.0000 0.0000 24.3922 0.0000 0.0000
# 5 0.0000 0.0000 0.0000 0.0000 15.6675 0.0000
# 6 0.0000 0.0000 0.0000 0.0000 0.0000 30.1732
#
#
#
# Elastic Compliance Matrix: (Units=1/GPa)
#
#
# Indices 1 2 3 4 5 6 
#
# 1 0.021642 -0.007711 -0.004509 0.000000 0.000000 0.000000
# 2 -0.007711 0.013022 -0.005078 0.000000 0.000000 0.000000
# 3 -0.004509 -0.005078 0.016887 0.000000 0.000000 0.000000
# 4 0.000000 0.000000 0.000000 0.040997 0.000000 0.000000
# 5 0.000000 0.000000 0.000000 0.000000 0.063826 0.000000
# 6 0.000000 0.000000 0.000000 0.000000 0.000000 0.033142
#
#
# Mechanical properties :
#
#
# Convention : Reuss Voigt Hill
#
# Bulk Modulus (GPa) = 58.97964 66.90213 62.94089
# Shear Modulus (GPa) = 21.76146 23.50625 22.63386
#
# Velocity S-wave (km/s) = 3.46075 3.59681 3.52944
# Velocity P-wave (km/s) = 6.95913 7.35324 7.15890
#
# Compressibility (1/GPa) = 0.01695500
#
# Stress axis : x y z
#
# Youngs Moduli (GPa) = 46.20611 76.79282 59.21768
#
# Poissons Ratio (x) = 0.59214 0.26700
# Poissons Ratio (y) = 0.35629 0.30073
# Poissons Ratio (z) = 0.20834 0.38998
#
# Static dielectric constant tensor:
#      x y z
#    x 3.283500 0.000000 0.000000 
#    y 0.000000 3.434320 0.000000 
#    z 0.000000 0.000000 3.221400 
# 
# 
# High freq. dielectric constant tensor:
#      x y z
#    x 1.699530 0.000000 0.000000 
#    y 0.000000 1.713190 0.000000 
#    z 0.000000 0.000000 1.677270 
# 
# From -- ./inp_files/57766.got.cif
#   From: 2010.06.25/outbox.cif.g09.slc.cpg/sg71_29_cif.got.tgz:57766.got - 2010.06.28 04:59:45.
