data_PCOD8287012
_publ_section_title
;
Structure prediction by ZEFSAII (Michael W. Deem and Ramdas Pophale) SiO2 
 PCOD8287012
Probable space group: I M M M
;
_chemical_formula_sum "Si O2"
_cell_formula_units_Z 80
_cell_length_a 20.573966
_cell_length_b 13.381116
_cell_length_c 18.808634
_cell_angle_alpha 90.000000
_cell_angle_beta 90.000000
_cell_angle_gamma 90.000000
_cell_volume 5178.066325
_symmetry_space_group_name_H-M "I M M M"
_symmetry_group_IT_number 71
_symmetry_cell_setting 'orthorhombic'
loop_
_space_group_symop_operation_xyz
x,y,z
-x,-y,z
x,-y,-z
-x,y,-z
-x,-y,-z
x,y,-z
-x,y,z
x,-y,z
1/2+x,1/2+y,1/2+z
1/2-x,1/2-y,1/2+z
1/2+x,1/2-y,1/2-z
1/2-x,1/2+y,1/2-z
1/2-x,1/2-y,1/2-z
1/2+x,1/2+y,1/2-z
1/2-x,1/2+y,1/2+z
1/2+x,1/2-y,1/2+z
loop_
_atom_site_type_symbol
_atom_site_label
_atom_site_fract_x
_atom_site_fract_y
_atom_site_fract_z
Si Si1 0.769961 0.384489 0.713105
Si Si2 0.308345 0.381994 0.422734
Si Si3 0.850542 0.800455 0.289625
Si Si4 0.072703 0.117152 0.834814
Si Si5 0.925310 0.116691 0.581933
O O1 0.790869 0.500000 0.715301
O O2 0.743646 0.349021 0.635927
O O3 0.833355 0.316193 0.724244
O O4 0.713944 0.365949 0.771995
O O5 0.292956 0.333635 0.500000
O O6 0.307148 0.500000 0.429144
O O7 0.380139 0.347327 0.398189
O O8 0.909790 0.827355 0.238000
O O9 0.875358 0.820366 0.369564
O O10 0.000000 0.144975 0.857789
O O11 0.081253 0.000000 0.819642
O O12 0.908226 0.140079 0.500000
O O13 0.000000 0.147361 0.597648
O O14 0.915812 0.000000 0.598525
#
# Coordination Sequence:
#
# PCOD8287012 Si02
#       5
#    16  16  16  16  16
#     4   9  18  29  41  60  82 108 140 167 197 237
#     4   8  14  25  39  56  81 107 128 154 189 232
#     4  10  17  27  44  60  80 110 136 167 203 242
#     4   9  16  25  40  62  83 104 131 161 198 242
#     4   9  17  28  43  64  86 106 132 170 213 249
#
# _framework density 15.449783
#
# number of rings (size 3 to 8) (size 9 to 14) (size 15 to 20)
#    0.000    3.000    0.000    4.200    0.000    2.800 
#    0.000    2.000    0.000    2.400    0.000    1.400 
#    0.000    0.000    0.000   16.200    0.000    1.800 
#
# Total GULP energy -495758.870144 kJ/mol
# GULP energy per Si atom -12393.971754 kJ/mol
# Density = 1.541462 g / cm^3
# Si number density = 15.449783 Si / 1000 Ang^3
#
#
#
# Elastic Constant Matrix: (Units=GPa)
#
#
# Indices 1 2 3 4 5 6 
#
# 1 41.8480 22.5127 20.9314 0.0000 0.0000 0.0000
# 2 22.5127 60.6938 17.3518 0.0000 0.0000 0.0000
# 3 20.9314 17.3518 83.8169 0.0000 0.0000 0.0000
# 4 0.0000 0.0000 0.0000 11.2080 0.0000 0.0000
# 5 0.0000 0.0000 0.0000 0.0000 -12.7628 0.0000
# 6 0.0000 0.0000 0.0000 0.0000 0.0000 22.1510
#
#
#
# Elastic Compliance Matrix: (Units=1/GPa)
#
#
# Indices 1 2 3 4 5 6 
#
# 1 0.032433 -0.010326 -0.005962 0.000000 0.000000 0.000000
# 2 -0.010326 0.020800 -0.001727 0.000000 0.000000 0.000000
# 3 -0.005962 -0.001727 0.013777 0.000000 0.000000 0.000000
# 4 0.000000 0.000000 0.000000 0.089222 0.000000 0.000000
# 5 0.000000 0.000000 0.000000 0.000000 -0.078352 0.000000
# 6 0.000000 0.000000 0.000000 0.000000 0.000000 0.045145
#
#
# Mechanical properties :
#
#
# Convention : Reuss Voigt Hill
#
# Bulk Modulus (GPa) = 32.27853 34.21673 33.24763
# Shear Modulus (GPa) = 29.51931 12.49007 21.00469
#
# Velocity S-wave (km/s) = 4.37585 2.84638 3.69120
# Velocity P-wave (km/s) = 6.81680 5.74435 6.30342
#
# Compressibility (1/GPa) = 0.03098034
#
# Stress axis : x y z
#
# Youngs Moduli (GPa) = 30.83306 48.07691 72.58365
#
# Poissons Ratio (x) = 0.49642 0.43273
# Poissons Ratio (y) = 0.31837 0.12538
# Poissons Ratio (z) = 0.18382 0.08305
#
# Static dielectric constant tensor:
#      x y z
#    x 2.852380 0.000000 0.000000 
#    y 0.000000 2.661360 0.000000 
#    z 0.000000 0.000000 -9.524710 
# 
# 
# High freq. dielectric constant tensor:
#      x y z
#    x 1.580870 0.000000 0.000000 
#    y 0.000000 1.552240 0.000000 
#    z 0.000000 0.000000 1.598410 
# 
# From -- ./inp_files/36463.got.cif
#   From: 2010.06.25/outbox.cif.g09.slc.cpg/sg71_19_cif.got.tgz:36463.got - 2010.06.28 04:59:45.
