data_PCOD8287365
_publ_section_title
;
Structure prediction by ZEFSAII (Michael W. Deem and Ramdas Pophale) SiO2 
 PCOD8287365
Probable space group: I M M M
;
_chemical_formula_sum "Si O2"
_cell_formula_units_Z 80
_cell_length_a 9.120712
_cell_length_b 15.113991
_cell_length_c 32.129473
_cell_angle_alpha 90.000000
_cell_angle_beta 90.000000
_cell_angle_gamma 90.000000
_cell_volume 4429.059390
_symmetry_space_group_name_H-M "I M M M"
_symmetry_group_IT_number 71
_symmetry_cell_setting 'orthorhombic'
loop_
_space_group_symop_operation_xyz
x,y,z
-x,-y,z
x,-y,-z
-x,y,-z
-x,-y,-z
x,y,-z
-x,y,z
x,-y,z
1/2+x,1/2+y,1/2+z
1/2-x,1/2-y,1/2+z
1/2+x,1/2-y,1/2-z
1/2-x,1/2+y,1/2-z
1/2-x,1/2-y,1/2-z
1/2+x,1/2+y,1/2-z
1/2-x,1/2+y,1/2+z
1/2+x,1/2-y,1/2+z
loop_
_atom_site_type_symbol
_atom_site_label
_atom_site_fract_x
_atom_site_fract_y
_atom_site_fract_z
Si Si1 0.338406 0.328932 0.699417
Si Si2 0.325993 0.098630 0.046337
Si Si3 0.674799 0.227704 0.881749
Si Si4 0.671644 0.097335 0.363812
Si Si5 0.160218 0.368671 0.772915
O O1 0.500000 0.365632 0.687380
O O2 0.237565 0.320912 0.658795
O O3 0.263048 0.393416 0.733583
O O4 0.355695 0.235767 0.721890
O O5 0.500000 0.098365 0.046854
O O6 0.268266 0.171295 0.078857
O O7 0.269496 0.000000 0.058432
O O8 0.269490 0.123636 0.000000
O O9 0.500000 0.231669 0.878387
O O10 0.736501 0.327406 0.887634
O O11 0.500000 0.124040 0.365185
O O12 0.724662 0.091647 0.315782
O O13 0.698070 0.000000 0.384128
O O14 0.000000 0.409784 0.763994
#
# Coordination Sequence:
#
# PCOD8287365 Si02
#       5
#    16  16  16  16  16
#     4   9  16  26  41  61  89 124 156 189 234 282
#     4   8  15  30  52  76  99 121 148 186 234 288
#     4  10  18  28  48  75  97 120 155 199 241 280
#     4   9  18  32  48  66  93 131 168 199 235 279
#     4   8  14  25  41  60  82 114 160 204 233 261
#
# _framework density 18.062525999999998
#
# number of rings (size 3 to 8) (size 9 to 14) (size 15 to 20)
#    0.000    3.200    0.000    3.000    0.000    5.200 
#    0.000    1.000    0.000   11.400    0.000    9.800 
#    0.000    0.000    0.000    0.000    0.000    0.000 
#
# Total GULP energy -495597.416384 kJ/mol
# GULP energy per Si atom -12389.935410 kJ/mol
# Density = 1.802142 g / cm^3
# Si number density = 18.062526 Si / 1000 Ang^3
#
#
#
# Elastic Constant Matrix: (Units=GPa)
#
#
# Indices 1 2 3 4 5 6 
#
# 1 78.2056 38.3938 44.4969 0.0000 0.0000 0.0000
# 2 38.3938 98.3048 64.0915 0.0000 0.0000 0.0000
# 3 44.4969 64.0915 103.3569 0.0000 0.0000 0.0000
# 4 0.0000 0.0000 0.0000 14.8547 0.0000 0.0000
# 5 0.0000 0.0000 0.0000 0.0000 14.6113 0.0000
# 6 0.0000 0.0000 0.0000 0.0000 0.0000 7.9147
#
#
#
# Elastic Compliance Matrix: (Units=1/GPa)
#
#
# Indices 1 2 3 4 5 6 
#
# 1 0.017526 -0.003233 -0.005541 0.000000 0.000000 0.000000
# 2 -0.003233 0.017672 -0.009567 0.000000 0.000000 0.000000
# 3 -0.005541 -0.009567 0.017993 0.000000 0.000000 0.000000
# 4 0.000000 0.000000 0.000000 0.067319 0.000000 0.000000
# 5 0.000000 0.000000 0.000000 0.000000 0.068440 0.000000
# 6 0.000000 0.000000 0.000000 0.000000 0.000000 0.126348
#
#
# Mechanical properties :
#
#
# Convention : Reuss Voigt Hill
#
# Bulk Modulus (GPa) = 60.56560 63.75908 62.16234
# Shear Modulus (GPa) = 13.98669 16.33514 15.16091
#
# Velocity S-wave (km/s) = 2.78573 3.01053 2.90031
# Velocity P-wave (km/s) = 6.62955 6.88913 6.76059
#
# Compressibility (1/GPa) = 0.01651102
#
# Stress axis : x y z
#
# Youngs Moduli (GPa) = 57.05674 56.58587 55.57709
#
# Poissons Ratio (x) = 0.18292 0.30794
# Poissons Ratio (y) = 0.18444 0.53170
# Poissons Ratio (z) = 0.31614 0.54135
#
# Static dielectric constant tensor:
#      x y z
#    x 3.389810 0.000000 0.000000 
#    y 0.000000 3.320860 0.000000 
#    z 0.000000 0.000000 3.310140 
# 
# 
# High freq. dielectric constant tensor:
#      x y z
#    x 1.684320 0.000000 0.000000 
#    y 0.000000 1.686490 0.000000 
#    z 0.000000 0.000000 1.672300 
# 
# From -- ./inp_files/16541.got.cif
#   From: 2010.06.25/outbox.cif.g09.slc.cpg/sg71_9_cif.got.tgz:16541.got - 2010.06.28 04:59:45.
