data_PCOD8287566
_publ_section_title
;
Structure prediction by ZEFSAII (Michael W. Deem and Ramdas Pophale) SiO2 
 PCOD8287566
Probable space group: I M M M
;
_chemical_formula_sum "Si O2"
_cell_formula_units_Z 96
_cell_length_a 15.324403
_cell_length_b 15.919795
_cell_length_c 22.681730
_cell_angle_alpha 90.000000
_cell_angle_beta 90.000000
_cell_angle_gamma 90.000000
_cell_volume 5533.465568
_symmetry_space_group_name_H-M "I M M M"
_symmetry_group_IT_number 71
_symmetry_cell_setting 'orthorhombic'
loop_
_space_group_symop_operation_xyz
x,y,z
-x,-y,z
x,-y,-z
-x,y,-z
-x,-y,-z
x,y,-z
-x,y,z
x,-y,z
1/2+x,1/2+y,1/2+z
1/2-x,1/2-y,1/2+z
1/2+x,1/2-y,1/2-z
1/2-x,1/2+y,1/2-z
1/2-x,1/2-y,1/2-z
1/2+x,1/2+y,1/2-z
1/2-x,1/2+y,1/2+z
1/2+x,1/2-y,1/2+z
loop_
_atom_site_type_symbol
_atom_site_label
_atom_site_fract_x
_atom_site_fract_y
_atom_site_fract_z
Si Si1 0.000000 0.097389 0.069799
Si Si2 0.665172 0.906391 0.121047
Si Si3 0.400341 0.599138 0.773169
Si Si4 0.738654 0.193111 0.693606
Si Si5 0.156084 0.153774 0.855633
Si Si6 0.903145 0.400807 0.742410
Si Si7 0.601594 0.902390 0.000000
O O1 0.916074 0.146502 0.093961
O O2 0.000000 0.000000 0.091096
O O3 0.000000 0.103359 0.000000
O O4 0.769005 0.913200 0.129612
O O5 0.623442 0.860802 0.178607
O O6 0.640720 0.859767 0.059561
O O7 0.625668 0.000000 0.117573
O O8 0.500000 0.618789 0.792948
O O9 0.382350 0.500000 0.773792
O O10 0.330878 0.644450 0.817619
O O11 0.386965 0.634637 0.707427
O O12 0.750000 0.250000 0.750000
O O13 0.704217 0.254157 0.641377
O O14 0.662416 0.126133 0.706253
O O15 0.898292 0.500000 0.737353
O O16 0.000000 0.369079 0.758751
O O17 0.500000 0.886923 0.000000
O O18 0.628422 0.000000 0.000000
#
# Coordination Sequence:
#
# PCOD8287566 Si02
#       7
#     8  16  16  16  16  16   8
#     4  11  24  38  56  78 101 139 191 224 244 291
#     4  10  18  30  46  63  91 126 166 209 246 292
#     4  10  18  31  51  72 101 138 174 211 254 313
#     4  10  20  31  45  70 100 133 167 208 255 314
#     4  11  21  33  47  72 100 135 170 213 264 299
#     4  10  19  30  47  68  95 130 167 204 244 299
#     4   9  18  30  44  63  85 119 166 208 249 291
#
# _framework density 17.348983
#
# number of rings (size 3 to 8) (size 9 to 14) (size 15 to 20)
#    0.000    1.833    4.167    2.500    2.333    2.667 
#    0.000    0.000    0.000    0.000    0.000    0.000 
#    0.000    5.333    0.000    1.833    0.000    0.000 
#
# Total GULP energy -594798.984659 kJ/mol
# GULP energy per Si atom -12391.645514 kJ/mol
# Density = 1.730950 g / cm^3
# Si number density = 17.348983 Si / 1000 Ang^3
#
#
#
# Elastic Constant Matrix: (Units=GPa)
#
#
# Indices 1 2 3 4 5 6 
#
# 1 138.4594 42.3702 29.1128 0.0000 0.0000 0.0000
# 2 42.3702 59.5416 23.8423 0.0000 0.0000 0.0000
# 3 29.1128 23.8423 50.2645 0.0000 0.0000 0.0000
# 4 0.0000 0.0000 0.0000 16.7662 0.0000 0.0000
# 5 0.0000 0.0000 0.0000 0.0000 22.5230 0.0000
# 6 0.0000 0.0000 0.0000 0.0000 0.0000 25.4293
#
#
#
# Elastic Compliance Matrix: (Units=1/GPa)
#
#
# Indices 1 2 3 4 5 6 
#
# 1 0.009552 -0.005657 -0.002850 0.000000 0.000000 0.000000
# 2 -0.005657 0.024083 -0.008147 0.000000 0.000000 0.000000
# 3 -0.002850 -0.008147 0.025410 0.000000 0.000000 0.000000
# 4 0.000000 0.000000 0.000000 0.059644 0.000000 0.000000
# 5 0.000000 0.000000 0.000000 0.000000 0.044399 0.000000
# 6 0.000000 0.000000 0.000000 0.000000 0.000000 0.039325
#
#
# Mechanical properties :
#
#
# Convention : Reuss Voigt Hill
#
# Bulk Modulus (GPa) = 38.85257 48.76847 43.81052
# Shear Modulus (GPa) = 20.46682 23.13973 21.80327
#
# Velocity S-wave (km/s) = 3.43842 3.65606 3.54891
# Velocity P-wave (km/s) = 6.18118 6.78186 6.48848
#
# Compressibility (1/GPa) = 0.02573832
#
# Stress axis : x y z
#
# Youngs Moduli (GPa) = 104.68509 41.52391 39.35509
#
# Poissons Ratio (x) = 0.23488 0.11215
# Poissons Ratio (y) = 0.59215 0.32063
# Poissons Ratio (z) = 0.29831 0.33830
#
# Static dielectric constant tensor:
#      x y z
#    x 3.625380 0.000000 0.000000 
#    y 0.000000 3.443730 0.000000 
#    z 0.000000 0.000000 3.134890 
# 
# 
# High freq. dielectric constant tensor:
#      x y z
#    x 1.694720 0.000000 0.000000 
#    y 0.000000 1.643540 0.000000 
#    z 0.000000 0.000000 1.617990 
# 
# From -- ./inp_files/65487.got.cif
#   From: 2010.06.25/outbox.cif.g09.slc.cpg/sg71_33_cif.got.tgz:65487.got - 2010.06.28 04:59:45.
