data_PCOD8287716
_publ_section_title
;
Structure prediction by ZEFSAII (Michael W. Deem and Ramdas Pophale) SiO2 
 PCOD8287716
Probable space group: I M M M
;
_chemical_formula_sum "Si O2"
_cell_formula_units_Z 104
_cell_length_a 19.039083
_cell_length_b 23.030493
_cell_length_c 13.781973
_cell_angle_alpha 90.000000
_cell_angle_beta 90.000000
_cell_angle_gamma 90.000000
_cell_volume 6043.112186
_symmetry_space_group_name_H-M "I M M M"
_symmetry_group_IT_number 71
_symmetry_cell_setting 'orthorhombic'
loop_
_space_group_symop_operation_xyz
x,y,z
-x,-y,z
x,-y,-z
-x,y,-z
-x,-y,-z
x,y,-z
-x,y,z
x,-y,z
1/2+x,1/2+y,1/2+z
1/2-x,1/2-y,1/2+z
1/2+x,1/2-y,1/2-z
1/2-x,1/2+y,1/2-z
1/2-x,1/2-y,1/2-z
1/2+x,1/2+y,1/2-z
1/2-x,1/2+y,1/2+z
1/2+x,1/2-y,1/2+z
loop_
_atom_site_type_symbol
_atom_site_label
_atom_site_fract_x
_atom_site_fract_y
_atom_site_fract_z
Si Si1 0.916968 0.000000 0.610423
Si Si2 0.918029 0.435873 0.392422
Si Si3 0.837887 0.339423 0.699326
Si Si4 0.699235 0.788971 0.607641
Si Si5 0.081855 0.885910 0.270735
Si Si6 0.864095 0.220581 0.611127
Si Si7 0.814981 0.843653 0.112304
O O1 0.892238 0.942141 0.667955
O O2 0.885697 0.000000 0.500000
O O3 0.000000 0.000000 0.602768
O O4 0.900453 0.411726 0.500000
O O5 0.885777 0.500000 0.380626
O O6 0.885357 0.395418 0.311454
O O7 0.000000 0.438541 0.375429
O O8 0.834184 0.331635 0.814744
O O9 0.878296 0.284756 0.652101
O O10 0.763354 0.353535 0.650671
O O11 0.680930 0.811392 0.500000
O O12 0.782046 0.790633 0.625985
O O13 0.668246 0.724599 0.623538
O O14 0.091140 0.827955 0.334043
O O15 0.128686 0.881083 0.173280
O O16 0.000000 0.892099 0.241523
O O17 0.887484 0.218596 0.500000
O O18 0.819594 0.863083 0.000000
#
# Coordination Sequence:
#
# PCOD8287716 Si02
#       7
#     8  16  16  16  16  16  16
#     4   9  20  38  55  69  95 139 179 214 268 326
#     4   9  19  35  53  76 108 140 164 197 258 322
#     4  11  17  33  56  80 106 133 172 213 256 305
#     4   9  17  31  53  76 107 141 165 205 266 315
#     4  11  21  35  52  73 104 141 177 218 264 310
#     4  10  18  30  51  79 104 130 168 218 264 303
#     4  10  19  34  53  77 107 140 175 211 256 311
#
# _framework density 17.209675000000001
#
# number of rings (size 3 to 8) (size 9 to 14) (size 15 to 20)
#    0.000    2.077    3.077    4.154    0.000    1.846 
#    1.385    0.385    0.000    2.308    0.000    1.077 
#    0.000    0.000    0.000    0.000    0.000    0.000 
#
# Total GULP energy -644694.330831 kJ/mol
# GULP energy per Si atom -12397.967901 kJ/mol
# Density = 1.717050 g / cm^3
# Si number density = 17.209675 Si / 1000 Ang^3
#
#
#
# Elastic Constant Matrix: (Units=GPa)
#
#
# Indices 1 2 3 4 5 6 
#
# 1 29.0323 43.0918 26.8425 0.0000 0.0000 0.0000
# 2 43.0918 94.6395 55.1389 0.0000 0.0000 0.0000
# 3 26.8425 55.1389 118.1197 0.0000 0.0000 0.0000
# 4 0.0000 0.0000 0.0000 32.1473 0.0000 0.0000
# 5 0.0000 0.0000 0.0000 0.0000 25.7592 0.0000
# 6 0.0000 0.0000 0.0000 0.0000 0.0000 24.9175
#
#
#
# Elastic Compliance Matrix: (Units=1/GPa)
#
#
# Indices 1 2 3 4 5 6 
#
# 1 0.106650 -0.047306 -0.002153 0.000000 0.000000 0.000000
# 2 -0.047306 0.035497 -0.005820 0.000000 0.000000 0.000000
# 3 -0.002153 -0.005820 0.011672 0.000000 0.000000 0.000000
# 4 0.000000 0.000000 0.000000 0.031107 0.000000 0.000000
# 5 0.000000 0.000000 0.000000 0.000000 0.038821 0.000000
# 6 0.000000 0.000000 0.000000 0.000000 0.000000 0.040132
#
#
# Mechanical properties :
#
#
# Convention : Reuss Voigt Hill
#
# Bulk Modulus (GPa) = 23.11575 54.65979 38.88777
# Shear Modulus (GPa) = 12.85816 24.34602 18.60209
#
# Velocity S-wave (km/s) = 2.73636 3.76529 3.29128
# Velocity P-wave (km/s) = 4.84196 7.12273 6.09007
#
# Compressibility (1/GPa) = 0.04326054
#
# Stress axis : x y z
#
# Youngs Moduli (GPa) = 9.37646 28.17153 85.67427
#
# Poissons Ratio (x) = 1.33268 0.18449
# Poissons Ratio (y) = 0.44356 0.49862
# Poissons Ratio (z) = 0.02019 0.16396
#
# Static dielectric constant tensor:
#      x y z
#    x 2.929380 0.000000 0.000000 
#    y 0.000000 3.219700 0.000000 
#    z 0.000000 0.000000 3.351930 
# 
# 
# High freq. dielectric constant tensor:
#      x y z
#    x 1.638030 0.000000 0.000000 
#    y 0.000000 1.653360 0.000000 
#    z 0.000000 0.000000 1.671300 
# 
# From -- ./inp_files/36892.got.cif
#   From: 2010.06.25/outbox.cif.g09.slc.cpg/sg71_19_cif.got.tgz:36892.got - 2010.06.28 04:59:45.
