data_PCOD8287175
_publ_section_title
;
Structure prediction by ZEFSAII (Michael W. Deem and Ramdas Pophale) SiO2 
 PCOD8287175
Probable space group: I M M M
;
_chemical_formula_sum "Si O2"
_cell_formula_units_Z 96
_cell_length_a 29.338103
_cell_length_b 11.214572
_cell_length_c 21.235061
_cell_angle_alpha 90.000000
_cell_angle_beta 90.000000
_cell_angle_gamma 90.000000
_cell_volume 6986.638060
_symmetry_space_group_name_H-M "I M M M"
_symmetry_group_IT_number 71
_symmetry_cell_setting 'orthorhombic'
loop_
_space_group_symop_operation_xyz
x,y,z
-x,-y,z
x,-y,-z
-x,y,-z
-x,-y,-z
x,y,-z
-x,y,z
x,-y,z
1/2+x,1/2+y,1/2+z
1/2-x,1/2-y,1/2+z
1/2+x,1/2-y,1/2-z
1/2-x,1/2+y,1/2-z
1/2-x,1/2-y,1/2-z
1/2+x,1/2+y,1/2-z
1/2-x,1/2+y,1/2+z
1/2+x,1/2-y,1/2+z
loop_
_atom_site_type_symbol
_atom_site_label
_atom_site_fract_x
_atom_site_fract_y
_atom_site_fract_z
Si Si1 0.552913 0.862182 0.427707
Si Si2 0.165552 0.000000 0.929741
Si Si3 0.813798 0.859023 0.759039
Si Si4 0.230582 0.715141 0.653610
Si Si5 0.869543 0.766034 0.864127
Si Si6 0.706213 0.862421 0.569685
Si Si7 0.774529 0.500000 0.427014
O O1 0.568390 0.837629 0.500000
O O2 0.500000 0.832325 0.419919
O O3 0.578797 0.774672 0.378464
O O4 0.562488 0.000000 0.410817
O O5 0.143925 0.885406 0.899113
O O6 0.219767 0.000000 0.922803
O O7 0.148714 0.000000 0.000000
O O8 0.806354 0.788121 0.694098
O O9 0.769319 0.844717 0.802846
O O10 0.857951 0.794278 0.790933
O O11 0.822596 0.000000 0.747604
O O12 0.251077 0.807160 0.604444
O O13 0.206186 0.614009 0.611175
O O14 0.839475 0.657346 0.890559
O O15 0.701381 0.804310 0.500000
O O16 0.715888 0.000000 0.563496
O O17 0.790878 0.500000 0.500000
#
# Coordination Sequence:
#
# PCOD8287175 Si02
#       7
#    16   8  16  16  16  16   8
#     4   9  18  32  47  62  81 104 134 176 223 261
#     4  11  18  26  41  58  81 106 138 177 217 256
#     4  10  18  30  40  54  80 106 139 171 210 249
#     4  10  18  28  40  56  77 107 137 172 212 247
#     4  11  18  29  42  60  77 107 138 172 216 255
#     4  10  18  26  38  58  78 101 139 179 210 242
#     4  11  18  30  44  59  82 111 143 175 218 252
#
# _framework density 13.740515
#
# number of rings (size 3 to 8) (size 9 to 14) (size 15 to 20)
#    0.000    1.833    5.000    3.500    0.000    1.333 
#    3.000    0.417    0.000    1.500    0.000    0.000 
#    0.000    0.000    0.000    0.000    0.000    4.167 
#
# Total GULP energy -594912.552265 kJ/mol
# GULP energy per Si atom -12394.011506 kJ/mol
# Density = 1.370924 g / cm^3
# Si number density = 13.740515 Si / 1000 Ang^3
#
#
#
# Elastic Constant Matrix: (Units=GPa)
#
#
# Indices 1 2 3 4 5 6 
#
# 1 41.7596 26.4648 25.7863 0.0000 0.0000 0.0000
# 2 26.4648 73.3013 43.7626 0.0000 0.0000 0.0000
# 3 25.7863 43.7626 78.4696 0.0000 0.0000 0.0000
# 4 0.0000 0.0000 0.0000 27.5142 0.0000 0.0000
# 5 0.0000 0.0000 0.0000 0.0000 20.1602 0.0000
# 6 0.0000 0.0000 0.0000 0.0000 0.0000 22.6492
#
#
#
# Elastic Compliance Matrix: (Units=1/GPa)
#
#
# Indices 1 2 3 4 5 6 
#
# 1 0.033004 -0.008156 -0.006297 0.000000 0.000000 0.000000
# 2 -0.008156 0.022468 -0.009850 0.000000 0.000000 0.000000
# 3 -0.006297 -0.009850 0.020306 0.000000 0.000000 0.000000
# 4 0.000000 0.000000 0.000000 0.036345 0.000000 0.000000
# 5 0.000000 0.000000 0.000000 0.000000 0.049603 0.000000
# 6 0.000000 0.000000 0.000000 0.000000 0.000000 0.044152
#
#
# Mechanical properties :
#
#
# Convention : Reuss Voigt Hill
#
# Bulk Modulus (GPa) = 36.80300 42.83977 39.82139
# Shear Modulus (GPa) = 18.97240 20.56584 19.76912
#
# Velocity S-wave (km/s) = 3.71989 3.87296 3.79720
# Velocity P-wave (km/s) = 6.72998 7.15857 6.94758
#
# Compressibility (1/GPa) = 0.02717170
#
# Stress axis : x y z
#
# Youngs Moduli (GPa) = 30.29949 44.50810 49.24573
#
# Poissons Ratio (x) = 0.36303 0.31008
# Poissons Ratio (y) = 0.24714 0.48507
# Poissons Ratio (z) = 0.19079 0.43840
#
# Static dielectric constant tensor:
#      x y z
#    x 2.385960 0.000000 0.000000 
#    y 0.000000 2.451230 0.000000 
#    z 0.000000 0.000000 2.938740 
# 
# 
# High freq. dielectric constant tensor:
#      x y z
#    x 1.462790 0.000000 0.000000 
#    y 0.000000 1.542570 0.000000 
#    z 0.000000 0.000000 1.516000 
# 
# From -- ./inp_files/26175.got.cif
#   From: 2010.06.25/outbox.cif.g09.slc.cpg/sg71_14_cif.got.tgz:26175.got - 2010.06.28 04:59:45.
