data_PCOD8287998
_publ_section_title
;
Structure prediction by ZEFSAII (Michael W. Deem and Ramdas Pophale) SiO2 
 PCOD8287998
Probable space group: I M M M
;
_chemical_formula_sum "Si O2"
_cell_formula_units_Z 112
_cell_length_a 15.076729
_cell_length_b 13.607125
_cell_length_c 25.783007
_cell_angle_alpha 90.000000
_cell_angle_beta 90.000000
_cell_angle_gamma 90.000000
_cell_volume 5289.408021
_symmetry_space_group_name_H-M "I M M M"
_symmetry_group_IT_number 71
_symmetry_cell_setting 'orthorhombic'
loop_
_space_group_symop_operation_xyz
x,y,z
-x,-y,z
x,-y,-z
-x,y,-z
-x,-y,-z
x,y,-z
-x,y,z
x,-y,z
1/2+x,1/2+y,1/2+z
1/2-x,1/2-y,1/2+z
1/2+x,1/2-y,1/2-z
1/2-x,1/2+y,1/2-z
1/2-x,1/2-y,1/2-z
1/2+x,1/2+y,1/2-z
1/2-x,1/2+y,1/2+z
1/2+x,1/2-y,1/2+z
loop_
_atom_site_type_symbol
_atom_site_label
_atom_site_fract_x
_atom_site_fract_y
_atom_site_fract_z
Si Si1 0.136825 0.888868 0.057609
Si Si2 0.153747 0.788377 0.257556
Si Si3 0.098781 0.751086 0.151041
Si Si4 0.338880 0.109480 0.078412
Si Si5 0.099026 0.813602 0.557845
Si Si6 0.772054 0.113970 0.352981
Si Si7 0.902545 0.394010 0.313266
O O1 0.096099 0.816578 0.099701
O O2 0.242076 0.879067 0.055437
O O3 0.108692 0.000000 0.071719
O O4 0.101303 0.861196 0.000000
O O5 0.250000 0.750000 0.250000
O O6 0.114115 0.822357 0.201935
O O7 0.161640 0.868854 0.303432
O O8 0.096061 0.693212 0.272423
O O9 0.177747 0.670633 0.149326
O O10 0.000000 0.702466 0.154877
O O11 0.399502 0.194720 0.054776
O O12 0.332328 0.125846 0.140819
O O13 0.377058 0.000000 0.066116
O O14 0.117192 0.855057 0.500000
O O15 0.173882 0.854879 0.595955
O O16 0.000000 0.845406 0.576128
O O17 0.748607 0.000000 0.355824
O O18 0.880677 0.500000 0.286411
O O19 0.000000 0.398601 0.339083
#
# Coordination Sequence:
#
# PCOD8287998 Si02
#       7
#    16  16  16  16  16  16  16
#     4  10  21  39  64  93 128 168 205 249 317 394
#     4  10  21  39  60  88 121 157 200 251 306 372
#     4  11  24  42  68  99 128 162 211 271 322 374
#     4  10  18  32  59  94 128 162 202 248 307 381
#     4  11  23  39  62  92 127 168 216 268 320 381
#     4  11  25  45  66  89 126 174 218 265 319 372
#     4  10  19  32  56  89 125 160 190 233 301 377
#
# _framework density 21.174392999999998
#
# number of rings (size 3 to 8) (size 9 to 14) (size 15 to 20)
#    0.000    1.571    2.857    2.143    0.000    6.571 
#    0.000    2.143    0.000    0.000    0.000    2.000 
#    0.000    0.000    0.000    0.000    0.000    0.000 
#
# Total GULP energy -693743.650057 kJ/mol
# GULP energy per Si atom -12388.279465 kJ/mol
# Density = 2.112620 g / cm^3
# Si number density = 21.174393 Si / 1000 Ang^3
#
#
#
# Elastic Constant Matrix: (Units=GPa)
#
#
# Indices 1 2 3 4 5 6 
#
# 1 114.1612 34.8014 50.5829 0.0000 0.0000 0.0000
# 2 34.8014 102.4576 51.4576 0.0000 0.0000 0.0000
# 3 50.5829 51.4576 139.6512 0.0000 0.0000 0.0000
# 4 0.0000 0.0000 0.0000 9.2215 0.0000 0.0000
# 5 0.0000 0.0000 0.0000 0.0000 20.9871 0.0000
# 6 0.0000 0.0000 0.0000 0.0000 0.0000 14.7678
#
#
#
# Elastic Compliance Matrix: (Units=1/GPa)
#
#
# Indices 1 2 3 4 5 6 
#
# 1 0.010786 -0.002088 -0.003138 0.000000 0.000000 0.000000
# 2 -0.002088 0.012381 -0.003806 0.000000 0.000000 0.000000
# 3 -0.003138 -0.003806 0.009699 0.000000 0.000000 0.000000
# 4 0.000000 0.000000 0.000000 0.108443 0.000000 0.000000
# 5 0.000000 0.000000 0.000000 0.000000 0.047648 0.000000
# 6 0.000000 0.000000 0.000000 0.000000 0.000000 0.067715
#
#
# Mechanical properties :
#
#
# Convention : Reuss Voigt Hill
#
# Bulk Modulus (GPa) = 67.54905 69.99486 68.77195
# Shear Modulus (GPa) = 17.87827 23.62380 20.75103
#
# Velocity S-wave (km/s) = 2.90890 3.34380 3.13390
# Velocity P-wave (km/s) = 6.57668 6.93081 6.75607
#
# Compressibility (1/GPa) = 0.01480406
#
# Stress axis : x y z
#
# Youngs Moduli (GPa) = 92.71081 80.77104 103.09906
#
# Poissons Ratio (x) = 0.16865 0.32347
# Poissons Ratio (y) = 0.19358 0.39236
# Poissons Ratio (z) = 0.29088 0.30739
#
# Static dielectric constant tensor:
#      x y z
#    x 3.826760 0.000000 0.000000 
#    y 0.000000 3.645240 0.000000 
#    z 0.000000 0.000000 4.294730 
# 
# 
# High freq. dielectric constant tensor:
#      x y z
#    x 1.829780 0.000000 0.000000 
#    y 0.000000 1.800990 0.000000 
#    z 0.000000 0.000000 1.840500 
# 
# From -- ./inp_files/59920.got.cif
#   From: 2010.06.25/outbox.cif.g09.slc.cpg/sg71_30_cif.got.tgz:59920.got - 2010.06.28 04:59:45.
