data_PCOD8287110
_publ_section_title
;
Structure prediction by ZEFSAII (Michael W. Deem and Ramdas Pophale) SiO2 
 PCOD8287110
Probable space group: I M M M
;
_chemical_formula_sum "Si O2"
_cell_formula_units_Z 80
_cell_length_a 26.903614
_cell_length_b 23.011591
_cell_length_c 9.120922
_cell_angle_alpha 90.000000
_cell_angle_beta 90.000000
_cell_angle_gamma 90.000000
_cell_volume 5646.716857
_symmetry_space_group_name_H-M "I M M M"
_symmetry_group_IT_number 71
_symmetry_cell_setting 'orthorhombic'
loop_
_space_group_symop_operation_xyz
x,y,z
-x,-y,z
x,-y,-z
-x,y,-z
-x,-y,-z
x,y,-z
-x,y,z
x,-y,z
1/2+x,1/2+y,1/2+z
1/2-x,1/2-y,1/2+z
1/2+x,1/2-y,1/2-z
1/2-x,1/2+y,1/2-z
1/2-x,1/2-y,1/2-z
1/2+x,1/2+y,1/2-z
1/2-x,1/2+y,1/2+z
1/2+x,1/2-y,1/2+z
loop_
_atom_site_type_symbol
_atom_site_label
_atom_site_fract_x
_atom_site_fract_y
_atom_site_fract_z
Si Si1 0.736573 0.111100 0.167029
Si Si2 0.555182 0.881394 0.825860
Si Si3 0.205069 0.780398 0.169289
Si Si4 0.644713 0.804643 0.829102
Si Si5 0.604426 0.000000 0.174340
Si Si6 0.789533 0.500000 0.826640
O O1 0.786546 0.150234 0.187288
O O2 0.687482 0.148373 0.205025
O O3 0.740864 0.056878 0.276154
O O4 0.732636 0.088601 0.000000
O O5 0.500000 0.869385 0.762424
O O6 0.592494 0.830872 0.772129
O O7 0.573965 0.944021 0.771192
O O8 0.554181 0.882227 0.000000
O O9 0.250000 0.750000 0.250000
O O10 0.154444 0.755915 0.242376
O O11 0.206040 0.762455 0.000000
O O12 0.643215 0.789566 0.000000
O O13 0.657385 0.000000 0.250287
O O14 0.612854 0.000000 0.000000
O O15 0.795315 0.500000 0.000000
#
# Coordination Sequence:
#
# PCOD8287110 Si02
#       6
#    16  16  16  16   8   8
#     4   9  17  30  43  56  76 105 136 165 200 243
#     4   9  16  26  43  63  78 102 144 183 209 237
#     4   9  17  28  43  60  77 100 130 164 202 246
#     4   9  16  27  43  61  80 102 131 171 210 242
#     4  10  17  30  44  54  76 108 144 181 211 241
#     4  12  22  27  39  61  82 106 135 171 210 245
#
# _framework density 14.167524999999999
#
# number of rings (size 3 to 8) (size 9 to 14) (size 15 to 20)
#    0.000    2.600    2.000    3.000    0.000    5.200 
#    0.000    0.000    0.000    3.000    0.000    0.000 
#    0.000    0.000    0.000    0.900    0.000   18.200 
#
# Total GULP energy -495753.507795 kJ/mol
# GULP energy per Si atom -12393.837695 kJ/mol
# Density = 1.413528 g / cm^3
# Si number density = 14.167525 Si / 1000 Ang^3
#
#
#
# Elastic Constant Matrix: (Units=GPa)
#
#
# Indices 1 2 3 4 5 6 
#
# 1 79.4449 58.8559 27.8700 0.0000 0.0000 0.0000
# 2 58.8559 81.0750 40.2394 0.0000 0.0000 0.0000
# 3 27.8700 40.2394 60.2654 0.0000 0.0000 0.0000
# 4 0.0000 0.0000 0.0000 22.0129 0.0000 0.0000
# 5 0.0000 0.0000 0.0000 0.0000 13.5719 0.0000
# 6 0.0000 0.0000 0.0000 0.0000 0.0000 19.1037
#
#
#
# Elastic Compliance Matrix: (Units=1/GPa)
#
#
# Indices 1 2 3 4 5 6 
#
# 1 0.027267 -0.020245 0.000908 0.000000 0.000000 0.000000
# 2 -0.020245 0.033479 -0.012992 0.000000 0.000000 0.000000
# 3 0.000908 -0.012992 0.024848 0.000000 0.000000 0.000000
# 4 0.000000 0.000000 0.000000 0.045428 0.000000 0.000000
# 5 0.000000 0.000000 0.000000 0.000000 0.073682 0.000000
# 6 0.000000 0.000000 0.000000 0.000000 0.000000 0.052346
#
#
# Mechanical properties :
#
#
# Convention : Reuss Voigt Hill
#
# Bulk Modulus (GPa) = 47.76339 52.74621 50.25480
# Shear Modulus (GPa) = 15.21208 17.19237 16.20223
#
# Velocity S-wave (km/s) = 3.28034 3.48732 3.38541
# Velocity P-wave (km/s) = 6.93786 7.31617 7.12953
#
# Compressibility (1/GPa) = 0.02093654
#
# Stress axis : x y z
#
# Youngs Moduli (GPa) = 36.67420 29.86945 40.24468
#
# Poissons Ratio (x) = 0.60471 -0.03654
# Poissons Ratio (y) = 0.74247 0.52285
# Poissons Ratio (z) = -0.03329 0.38805
#
# Static dielectric constant tensor:
#      x y z
#    x 2.972370 0.000000 0.000000 
#    y 0.000000 3.367010 0.000000 
#    z 0.000000 0.000000 2.735530 
# 
# 
# High freq. dielectric constant tensor:
#      x y z
#    x 1.506860 0.000000 0.000000 
#    y 0.000000 1.529300 0.000000 
#    z 0.000000 0.000000 1.529190 
# 
# From -- ./inp_files/11278.got.cif
#   From: 2010.06.25/outbox.cif.g09.slc.cpg/sg71_6_cif.got.tgz:11278.got - 2010.06.28 04:59:45.
