data_PCOD8287427
_publ_section_title
;
Structure prediction by ZEFSAII (Michael W. Deem and Ramdas Pophale) SiO2 
 PCOD8287427
Probable space group: I M M M
;
_chemical_formula_sum "Si O2"
_cell_formula_units_Z 112
_cell_length_a 31.950907
_cell_length_b 15.596690
_cell_length_c 13.704386
_cell_angle_alpha 90.000000
_cell_angle_beta 90.000000
_cell_angle_gamma 90.000000
_cell_volume 6829.284635
_symmetry_space_group_name_H-M "I M M M"
_symmetry_group_IT_number 71
_symmetry_cell_setting 'orthorhombic'
loop_
_space_group_symop_operation_xyz
x,y,z
-x,-y,z
x,-y,-z
-x,y,-z
-x,-y,-z
x,y,-z
-x,y,z
x,-y,z
1/2+x,1/2+y,1/2+z
1/2-x,1/2-y,1/2+z
1/2+x,1/2-y,1/2-z
1/2-x,1/2+y,1/2-z
1/2-x,1/2-y,1/2-z
1/2+x,1/2+y,1/2-z
1/2-x,1/2+y,1/2+z
1/2+x,1/2-y,1/2+z
loop_
_atom_site_type_symbol
_atom_site_label
_atom_site_fract_x
_atom_site_fract_y
_atom_site_fract_z
Si Si1 0.269418 0.098210 0.292443
Si Si2 0.810438 0.165139 0.389575
Si Si3 0.318176 0.136515 0.890479
Si Si4 0.397635 0.594382 0.115796
Si Si5 0.146975 0.601735 0.891929
Si Si6 0.402640 0.096612 0.791161
Si Si7 0.548607 0.752834 0.886058
O O1 0.228373 0.152362 0.317458
O O2 0.279781 0.106804 0.177697
O O3 0.308311 0.136911 0.354148
O O4 0.260557 0.000000 0.320141
O O5 0.797489 0.139105 0.500000
O O6 0.825464 0.262393 0.385229
O O7 0.849655 0.109421 0.352137
O O8 0.361205 0.092751 0.857467
O O9 0.307275 0.106716 0.000000
O O10 0.411610 0.500000 0.154354
O O11 0.427686 0.669168 0.157292
O O12 0.400700 0.597157 0.000000
O O13 0.150202 0.500000 0.892955
O O14 0.110081 0.628650 0.817834
O O15 0.137446 0.638521 0.000000
O O16 0.437268 0.161048 0.831542
O O17 0.421465 0.000000 0.788889
O O18 0.500000 0.738236 0.866368
O O19 0.558613 0.765317 0.000000
#
# Coordination Sequence:
#
# PCOD8287427 Si02
#       7
#    16  16  16  16  16  16  16
#     4  10  19  28  42  67  93 122 161 196 230 269
#     4  10  18  29  46  66  91 121 156 199 237 272
#     4  10  19  31  45  63  93 131 165 192 223 269
#     4   9  17  30  48  69  92 122 157 190 233 282
#     4   8  15  28  45  66  93 123 155 192 230 267
#     4  10  19  31  49  70  94 127 161 190 226 277
#     4  10  20  33  48  69  97 124 153 192 233 277
#
# _framework density 16.399961000000001
#
# number of rings (size 3 to 8) (size 9 to 14) (size 15 to 20)
#    0.000    2.429    1.429    3.000    0.000    4.000 
#    0.000    2.143    0.000    0.429    0.000    2.000 
#    0.000    0.571    0.000    1.286    0.000    0.143 
#
# Total GULP energy -694284.109224 kJ/mol
# GULP energy per Si atom -12397.930522 kJ/mol
# Density = 1.636263 g / cm^3
# Si number density = 16.399961 Si / 1000 Ang^3
#
#
#
# Elastic Constant Matrix: (Units=GPa)
#
#
# Indices 1 2 3 4 5 6 
#
# 1 71.2611 31.8253 30.9630 0.0000 0.0000 0.0000
# 2 31.8253 80.6852 17.6846 0.0000 0.0000 0.0000
# 3 30.9630 17.6846 87.2216 0.0000 0.0000 0.0000
# 4 0.0000 0.0000 0.0000 14.1139 0.0000 0.0000
# 5 0.0000 0.0000 0.0000 0.0000 20.7706 0.0000
# 6 0.0000 0.0000 0.0000 0.0000 0.0000 18.7846
#
#
#
# Elastic Compliance Matrix: (Units=1/GPa)
#
#
# Indices 1 2 3 4 5 6 
#
# 1 0.019303 -0.006396 -0.005556 0.000000 0.000000 0.000000
# 2 -0.006396 0.015090 -0.000789 0.000000 0.000000 0.000000
# 3 -0.005556 -0.000789 0.013597 0.000000 0.000000 0.000000
# 4 0.000000 0.000000 0.000000 0.070852 0.000000 0.000000
# 5 0.000000 0.000000 0.000000 0.000000 0.048145 0.000000
# 6 0.000000 0.000000 0.000000 0.000000 0.000000 0.053235
#
#
# Mechanical properties :
#
#
# Convention : Reuss Voigt Hill
#
# Bulk Modulus (GPa) = 44.42740 44.45707 44.44224
# Shear Modulus (GPa) = 19.74668 21.31350 20.53009
#
# Velocity S-wave (km/s) = 3.47373 3.60892 3.54197
# Velocity P-wave (km/s) = 6.57555 6.67327 6.62459
#
# Compressibility (1/GPa) = 0.02250863
#
# Stress axis : x y z
#
# Youngs Moduli (GPa) = 51.80420 66.27045 73.54436
#
# Poissons Ratio (x) = 0.42389 0.40859
# Poissons Ratio (y) = 0.33136 0.05802
# Poissons Ratio (z) = 0.28781 0.05228
#
# Static dielectric constant tensor:
#      x y z
#    x 2.887230 0.000000 0.000000 
#    y 0.000000 3.141310 0.000000 
#    z 0.000000 0.000000 3.148690 
# 
# 
# High freq. dielectric constant tensor:
#      x y z
#    x 1.612460 0.000000 0.000000 
#    y 0.000000 1.629850 0.000000 
#    z 0.000000 0.000000 1.604410 
# 
# From -- ./inp_files/35338.got.cif
#   From: 2010.06.25/outbox.cif.g09.slc.cpg/sg71_18_cif.got.tgz:35338.got - 2010.06.28 04:59:45.
