data_PCOD8287310
_publ_section_title
;
Structure prediction by ZEFSAII (Michael W. Deem and Ramdas Pophale) SiO2 
 PCOD8287310
Probable space group: I M M M
;
_chemical_formula_sum "Si O2"
_cell_formula_units_Z 120
_cell_length_a 23.169760
_cell_length_b 22.813052
_cell_length_c 13.927969
_cell_angle_alpha 90.000000
_cell_angle_beta 90.000000
_cell_angle_gamma 90.000000
_cell_volume 7361.947518
_symmetry_space_group_name_H-M "I M M M"
_symmetry_group_IT_number 71
_symmetry_cell_setting 'orthorhombic'
loop_
_space_group_symop_operation_xyz
x,y,z
-x,-y,z
x,-y,-z
-x,y,-z
-x,-y,-z
x,y,-z
-x,y,z
x,-y,z
1/2+x,1/2+y,1/2+z
1/2-x,1/2-y,1/2+z
1/2+x,1/2-y,1/2-z
1/2-x,1/2+y,1/2-z
1/2-x,1/2-y,1/2-z
1/2+x,1/2+y,1/2-z
1/2-x,1/2+y,1/2+z
1/2+x,1/2-y,1/2+z
loop_
_atom_site_type_symbol
_atom_site_label
_atom_site_fract_x
_atom_site_fract_y
_atom_site_fract_z
Si Si1 0.131025 0.566722 0.203600
Si Si2 0.689515 0.632134 0.611276
Si Si3 0.933209 0.000000 0.613519
Si Si4 0.842102 0.935031 0.282532
Si Si5 0.307533 0.933035 0.106729
Si Si6 0.761257 0.376177 0.886755
Si Si7 0.935120 0.333437 0.112244
Si Si8 0.673477 0.763009 0.386924
O O1 0.111965 0.500000 0.187414
O O2 0.142547 0.579793 0.316371
O O3 0.189010 0.578467 0.143145
O O4 0.078373 0.606978 0.169306
O O5 0.670320 0.626522 0.500000
O O6 0.646747 0.592839 0.676983
O O7 0.754201 0.609587 0.628106
O O8 0.687202 0.698415 0.651934
O O9 0.902698 0.058016 0.659489
O O10 0.923559 0.000000 0.500000
O O11 0.000000 0.000000 0.641646
O O12 0.799237 0.892341 0.339105
O O13 0.813957 0.000000 0.271554
O O14 0.285574 0.000000 0.115881
O O15 0.332366 0.920930 0.000000
O O16 0.779813 0.310952 0.851237
O O17 0.753155 0.379352 0.000000
O O18 0.890955 0.282575 0.145519
O O19 0.000000 0.312709 0.135883
O O20 0.926906 0.347156 0.000000
O O21 0.676775 0.760484 0.500000
#
# Coordination Sequence:
#
# PCOD8287310 Si02
#       8
#    16  16   8  16  16  16  16  16
#     4  10  18  28  44  70  99 125 158 197 240 291
#     4  10  18  31  49  73 103 130 161 198 243 295
#     4   9  20  38  55  71  97 131 165 201 243 294
#     4  10  20  30  49  76  95 126 166 197 244 295
#     4   9  17  29  45  67  99 133 158 188 238 298
#     4  10  18  29  44  69 103 128 156 199 244 290
#     4   9  18  33  49  66  93 129 165 198 239 291
#     4   8  17  31  47  69  97 131 162 199 246 288
#
# _framework density 16.300034
#
# number of rings (size 3 to 8) (size 9 to 14) (size 15 to 20)
#    0.400    2.200    1.333    2.400    0.000    3.200 
#    0.000    1.333    0.000    2.000    0.000    1.867 
#    0.000    0.000    0.000    0.000    0.000    0.000 
#
# Total GULP energy -743626.375280 kJ/mol
# GULP energy per Si atom -12393.772921 kJ/mol
# Density = 1.626293 g / cm^3
# Si number density = 16.300034 Si / 1000 Ang^3
#
#
#
# Elastic Constant Matrix: (Units=GPa)
#
#
# Indices 1 2 3 4 5 6 
#
# 1 88.2919 43.7719 34.4662 0.0000 0.0000 0.0000
# 2 43.7719 104.7771 41.7492 0.0000 0.0000 0.0000
# 3 34.4662 41.7492 79.1571 0.0000 0.0000 0.0000
# 4 0.0000 0.0000 0.0000 21.3570 0.0000 0.0000
# 5 0.0000 0.0000 0.0000 0.0000 18.9714 0.0000
# 6 0.0000 0.0000 0.0000 0.0000 0.0000 15.1272
#
#
#
# Elastic Compliance Matrix: (Units=1/GPa)
#
#
# Indices 1 2 3 4 5 6 
#
# 1 0.015298 -0.004731 -0.004166 0.000000 0.000000 0.000000
# 2 -0.004731 0.013547 -0.005085 0.000000 0.000000 0.000000
# 3 -0.004166 -0.005085 0.017129 0.000000 0.000000 0.000000
# 4 0.000000 0.000000 0.000000 0.046823 0.000000 0.000000
# 5 0.000000 0.000000 0.000000 0.000000 0.052711 0.000000
# 6 0.000000 0.000000 0.000000 0.000000 0.000000 0.066106
#
#
# Mechanical properties :
#
#
# Convention : Reuss Voigt Hill
#
# Bulk Modulus (GPa) = 55.52431 56.91120 56.21775
# Shear Modulus (GPa) = 20.36006 21.24039 20.80023
#
# Velocity S-wave (km/s) = 3.53807 3.61375 3.57611
# Velocity P-wave (km/s) = 7.12941 7.23898 7.18440
#
# Compressibility (1/GPa) = 0.01801013
#
# Stress axis : x y z
#
# Youngs Moduli (GPa) = 65.36969 73.81937 58.38150
#
# Poissons Ratio (x) = 0.34924 0.24319
# Poissons Ratio (y) = 0.30926 0.29686
# Poissons Ratio (z) = 0.27230 0.37536
#
# Static dielectric constant tensor:
#      x y z
#    x 2.801730 0.000000 0.000000 
#    y 0.000000 3.325130 0.000000 
#    z 0.000000 0.000000 3.223730 
# 
# 
# High freq. dielectric constant tensor:
#      x y z
#    x 1.590760 0.000000 0.000000 
#    y 0.000000 1.624670 0.000000 
#    z 0.000000 0.000000 1.629750 
# 
# From -- ./inp_files/39659.got.cif
#   From: 2010.06.25/outbox.cif.g09.slc.cpg/sg71_20_cif.got.tgz:39659.got - 2010.06.28 04:59:45.
