data_PCOD8287437
_publ_section_title
;
Structure prediction by ZEFSAII (Michael W. Deem and Ramdas Pophale) SiO2 
 PCOD8287437
Probable space group: I M M M
;
_chemical_formula_sum "Si O2"
_cell_formula_units_Z 96
_cell_length_a 30.093053
_cell_length_b 19.440795
_cell_length_c 9.700680
_cell_angle_alpha 90.000000
_cell_angle_beta 90.000000
_cell_angle_gamma 90.000000
_cell_volume 5675.216703
_symmetry_space_group_name_H-M "I M M M"
_symmetry_group_IT_number 71
_symmetry_cell_setting 'orthorhombic'
loop_
_space_group_symop_operation_xyz
x,y,z
-x,-y,z
x,-y,-z
-x,y,-z
-x,-y,-z
x,y,-z
-x,y,z
x,-y,z
1/2+x,1/2+y,1/2+z
1/2-x,1/2-y,1/2+z
1/2+x,1/2-y,1/2-z
1/2-x,1/2+y,1/2-z
1/2-x,1/2-y,1/2-z
1/2+x,1/2+y,1/2-z
1/2-x,1/2+y,1/2+z
1/2+x,1/2-y,1/2+z
loop_
_atom_site_type_symbol
_atom_site_label
_atom_site_fract_x
_atom_site_fract_y
_atom_site_fract_z
Si Si1 0.741263 0.074041 0.837821
Si Si2 0.211030 0.282048 0.661342
Si Si3 0.841285 0.078896 0.840851
Si Si4 0.374881 0.304441 0.159606
Si Si5 0.051018 0.698697 0.341039
Si Si6 0.552797 0.924154 0.654786
O O1 0.708428 0.136536 0.798727
O O2 0.791163 0.089509 0.783907
O O3 0.724332 0.000000 0.777224
O O4 0.745542 0.066091 0.000000
O O5 0.222463 0.272933 0.500000
O O6 0.250000 0.250000 0.750000
O O7 0.164527 0.247867 0.700394
O O8 0.873401 0.126920 0.750586
O O9 0.856293 0.000000 0.821416
O O10 0.845414 0.101170 0.000000
O O11 0.421204 0.266939 0.193264
O O12 0.371642 0.325546 0.000000
O O13 0.056230 0.678125 0.500000
O O14 0.071157 0.634359 0.256532
O O15 0.000000 0.714364 0.301749
O O16 0.568957 0.907390 0.500000
O O17 0.500000 0.924495 0.661276
O O18 0.570336 0.000000 0.699673
#
# Coordination Sequence:
#
# PCOD8287437 Si02
#       6
#    16  16  16  16  16  16
#     4   8  14  26  44  64  88 120 153 181 214 264
#     4  10  18  29  46  68  94 120 149 186 228 274
#     4   9  17  30  49  71  92 119 156 189 225 282
#     4  10  20  31  46  72  98 121 155 196 235 276
#     4   9  18  32  47  65  94 129 162 196 234 277
#     4   8  14  26  45  68  91 116 152 197 239 277
#
# _framework density 16.915652999999999
#
# number of rings (size 3 to 8) (size 9 to 14) (size 15 to 20)
#    0.000    3.000    1.667    1.500    0.000    1.333 
#    0.000    2.500    0.000    4.000    0.000    3.500 
#    0.000    0.000    0.000    0.000    0.000    0.000 
#
# Total GULP energy -594905.034204 kJ/mol
# GULP energy per Si atom -12393.854879 kJ/mol
# Density = 1.687715 g / cm^3
# Si number density = 16.915653 Si / 1000 Ang^3
#
#
#
# Elastic Constant Matrix: (Units=GPa)
#
#
# Indices 1 2 3 4 5 6 
#
# 1 54.9331 41.4889 29.9493 0.0000 0.0000 0.0000
# 2 41.4889 127.2034 55.2423 0.0000 0.0000 0.0000
# 3 29.9493 55.2423 57.6106 0.0000 0.0000 0.0000
# 4 0.0000 0.0000 0.0000 32.4433 0.0000 0.0000
# 5 0.0000 0.0000 0.0000 0.0000 16.3085 0.0000
# 6 0.0000 0.0000 0.0000 0.0000 0.0000 22.3498
#
#
#
# Elastic Compliance Matrix: (Units=1/GPa)
#
#
# Indices 1 2 3 4 5 6 
#
# 1 0.026906 -0.004629 -0.009549 0.000000 0.000000 0.000000
# 2 -0.004629 0.014268 -0.011275 0.000000 0.000000 0.000000
# 3 -0.009549 -0.011275 0.033133 0.000000 0.000000 0.000000
# 4 0.000000 0.000000 0.000000 0.030823 0.000000 0.000000
# 5 0.000000 0.000000 0.000000 0.000000 0.061318 0.000000
# 6 0.000000 0.000000 0.000000 0.000000 0.000000 0.044743
#
#
# Mechanical properties :
#
#
# Convention : Reuss Voigt Hill
#
# Bulk Modulus (GPa) = 42.73122 54.78978 48.76050
# Shear Modulus (GPa) = 18.52568 21.75809 20.14189
#
# Velocity S-wave (km/s) = 3.31294 3.59035 3.45443
# Velocity P-wave (km/s) = 6.32062 7.04612 6.69321
#
# Compressibility (1/GPa) = 0.02340209
#
# Stress axis : x y z
#
# Youngs Moduli (GPa) = 37.16665 70.08879 30.18127
#
# Poissons Ratio (x) = 0.32443 0.28819
# Poissons Ratio (y) = 0.17204 0.34029
# Poissons Ratio (z) = 0.35489 0.79023
#
# Static dielectric constant tensor:
#      x y z
#    x 2.916510 0.000000 0.000000 
#    y 0.000000 3.581470 0.000000 
#    z 0.000000 0.000000 3.052160 
# 
# 
# High freq. dielectric constant tensor:
#      x y z
#    x 1.614360 0.000000 0.000000 
#    y 0.000000 1.661180 0.000000 
#    z 0.000000 0.000000 1.635940 
# 
# From -- ./inp_files/10844.got.cif
#   From: 2010.06.25/outbox.cif.g09.slc.cpg/sg71_6_cif.got.tgz:10844.got - 2010.06.28 04:59:45.
