data_PCOD8287406
_publ_section_title
;
Structure prediction by ZEFSAII (Michael W. Deem and Ramdas Pophale) SiO2 
 PCOD8287406
Probable space group: I M M M
;
_chemical_formula_sum "Si O2"
_cell_formula_units_Z 80
_cell_length_a 25.914261
_cell_length_b 23.650329
_cell_length_c 8.604094
_cell_angle_alpha 90.000000
_cell_angle_beta 90.000000
_cell_angle_gamma 90.000000
_cell_volume 5273.284001
_symmetry_space_group_name_H-M "I M M M"
_symmetry_group_IT_number 71
_symmetry_cell_setting 'orthorhombic'
loop_
_space_group_symop_operation_xyz
x,y,z
-x,-y,z
x,-y,-z
-x,y,-z
-x,-y,-z
x,y,-z
-x,y,z
x,-y,z
1/2+x,1/2+y,1/2+z
1/2-x,1/2-y,1/2+z
1/2+x,1/2-y,1/2-z
1/2-x,1/2+y,1/2-z
1/2-x,1/2-y,1/2-z
1/2+x,1/2+y,1/2-z
1/2-x,1/2+y,1/2+z
1/2+x,1/2-y,1/2+z
loop_
_atom_site_type_symbol
_atom_site_label
_atom_site_fract_x
_atom_site_fract_y
_atom_site_fract_z
Si Si1 0.201255 0.283310 0.316024
Si Si2 0.849970 0.185036 0.819525
Si Si3 0.222018 0.000000 0.182559
Si Si4 0.058604 0.105497 0.821697
Si Si5 0.755029 0.882338 0.316357
Si Si6 0.610519 0.500000 0.821108
O O1 0.200576 0.283588 0.500000
O O2 0.250000 0.250000 0.250000
O O3 0.151702 0.248676 0.251851
O O4 0.206128 0.347193 0.252140
O O5 0.907146 0.161139 0.790776
O O6 0.809535 0.143433 0.736943
O O7 0.835124 0.187189 0.000000
O O8 0.249906 0.945840 0.255582
O O9 0.161155 0.000000 0.215586
O O10 0.230624 0.000000 0.000000
O O11 0.076170 0.054761 0.711912
O O12 0.000000 0.121961 0.781513
O O13 0.064345 0.085424 0.000000
O O14 0.752370 0.881100 0.500000
O O15 0.627995 0.500000 0.000000
#
# Coordination Sequence:
#
# PCOD8287406 Si02
#       6
#    16  16   8  16  16   8
#     4  10  18  29  45  64  86 111 141 177 219 265
#     4  10  18  30  47  64  85 113 146 184 225 266
#     4  12  22  33  47  64  88 119 149 183 224 267
#     4  10  21  35  49  63  84 117 154 191 232 273
#     4  11  20  31  46  66  88 111 144 181 220 265
#     4  12  23  33  46  63  84 114 152 195 235 267
#
# _framework density 15.170811
#
# number of rings (size 3 to 8) (size 9 to 14) (size 15 to 20)
#    0.000    1.400    2.000    8.700    0.000    2.400 
#    0.000    0.000    0.000    0.000    0.000    0.000 
#    0.000    0.000    0.000    0.900    0.000   18.600 
#
# Total GULP energy -495997.226743 kJ/mol
# GULP energy per Si atom -12399.930669 kJ/mol
# Density = 1.513628 g / cm^3
# Si number density = 15.170811 Si / 1000 Ang^3
#
#
#
# Elastic Constant Matrix: (Units=GPa)
#
#
# Indices 1 2 3 4 5 6 
#
# 1 52.9948 53.5291 30.0104 0.0000 0.0000 0.0000
# 2 53.5291 124.8919 52.1300 0.0000 0.0000 0.0000
# 3 30.0104 52.1300 129.0646 0.0000 0.0000 0.0000
# 4 0.0000 0.0000 0.0000 27.6380 0.0000 0.0000
# 5 0.0000 0.0000 0.0000 0.0000 14.4971 0.0000
# 6 0.0000 0.0000 0.0000 0.0000 0.0000 -78.7148
#
#
#
# Elastic Compliance Matrix: (Units=1/GPa)
#
#
# Indices 1 2 3 4 5 6 
#
# 1 0.033894 -0.013516 -0.002422 0.000000 0.000000 0.000000
# 2 -0.013516 0.015020 -0.002924 0.000000 0.000000 0.000000
# 3 -0.002422 -0.002924 0.009492 0.000000 0.000000 0.000000
# 4 0.000000 0.000000 0.000000 0.036182 0.000000 0.000000
# 5 0.000000 0.000000 0.000000 0.000000 0.068979 0.000000
# 6 0.000000 0.000000 0.000000 0.000000 0.000000 -0.012704
#
#
# Mechanical properties :
#
#
# Convention : Reuss Voigt Hill
#
# Bulk Modulus (GPa) = 48.35027 64.25449 56.30238
# Shear Modulus (GPa) = 25.57789 4.10284 14.84037
#
# Velocity S-wave (km/s) = 4.11054 1.64630 3.13104
# Velocity P-wave (km/s) = 7.38028 6.78673 7.08972
#
# Compressibility (1/GPa) = 0.02068241
#
# Stress axis : x y z
#
# Youngs Moduli (GPa) = 29.50417 66.57588 105.34928
#
# Poissons Ratio (x) = 0.89984 0.25513
# Poissons Ratio (y) = 0.39878 0.30805
# Poissons Ratio (z) = 0.07145 0.19467
#
# Static dielectric constant tensor:
#      x y z
#    x 2.830730 0.000000 0.000000 
#    y 0.000000 3.338590 0.000000 
#    z 0.000000 0.000000 3.061430 
# 
# 
# High freq. dielectric constant tensor:
#      x y z
#    x 1.532090 0.000000 0.000000 
#    y 0.000000 1.578570 0.000000 
#    z 0.000000 0.000000 1.602900 
# 
# From -- ./inp_files/17121.got.cif
#   From: 2010.06.25/outbox.cif.g09.slc.cpg/sg71_9_cif.got.tgz:17121.got - 2010.06.28 04:59:45.
