data_PCOD8287877
_publ_section_title
;
Structure prediction by ZEFSAII (Michael W. Deem and Ramdas Pophale) SiO2 
 PCOD8287877
Probable space group: I M M M
;
_chemical_formula_sum "Si O2"
_cell_formula_units_Z 80
_cell_length_a 10.441469
_cell_length_b 18.671009
_cell_length_c 22.559203
_cell_angle_alpha 90.000000
_cell_angle_beta 90.000000
_cell_angle_gamma 90.000000
_cell_volume 4397.978926
_symmetry_space_group_name_H-M "I M M M"
_symmetry_group_IT_number 71
_symmetry_cell_setting 'orthorhombic'
loop_
_space_group_symop_operation_xyz
x,y,z
-x,-y,z
x,-y,-z
-x,y,-z
-x,-y,-z
x,y,-z
-x,y,z
x,-y,z
1/2+x,1/2+y,1/2+z
1/2-x,1/2-y,1/2+z
1/2+x,1/2-y,1/2-z
1/2-x,1/2+y,1/2-z
1/2-x,1/2-y,1/2-z
1/2+x,1/2+y,1/2-z
1/2-x,1/2+y,1/2+z
1/2+x,1/2-y,1/2+z
loop_
_atom_site_type_symbol
_atom_site_label
_atom_site_fract_x
_atom_site_fract_y
_atom_site_fract_z
Si Si1 0.500000 0.084457 0.070190
Si Si2 0.748176 0.162905 0.896253
Si Si3 0.149146 0.185677 0.567619
Si Si4 0.150592 0.188205 0.768189
Si Si5 0.642247 0.423309 0.500000
Si Si6 0.149897 0.920987 0.333830
O O1 0.382105 0.118269 0.105150
O O2 0.500000 0.000000 0.078005
O O3 0.500000 0.106791 0.000000
O O4 0.727346 0.243652 0.917181
O O5 0.820209 0.161673 0.833932
O O6 0.837955 0.123714 0.942405
O O7 0.172058 0.162426 0.500000
O O8 0.202938 0.122383 0.609278
O O9 0.000000 0.201512 0.580429
O O10 0.250000 0.250000 0.750000
O O11 0.180902 0.121204 0.726139
O O12 0.000000 0.212269 0.762148
O O13 0.723013 0.500000 0.500000
O O14 0.500000 0.449459 0.500000
O O15 0.000000 0.930232 0.342125
O O16 0.214348 0.000000 0.331344
#
# Coordination Sequence:
#
# PCOD8287877 Si02
#       6
#     8  16  16  16   8  16
#     4  11  22  36  58  90 125 163 202 252 312 367
#     4  12  21  36  59  86 119 156 204 248 298 363
#     4  10  18  31  55  88 114 147 192 242 296 351
#     4  11  24  40  64  89 119 159 204 250 304 364
#     4  11  24  39  55  81 120 160 200 250 307 369
#     4   9  19  36  57  83 117 152 190 240 299 357
#
# _framework density 18.190173999999999
#
# number of rings (size 3 to 8) (size 9 to 14) (size 15 to 20)
#    0.000    1.400    5.000    1.200    1.400    2.000 
#    0.000    4.000    0.000    0.000    0.000    0.000 
#    0.000    2.400    0.000    0.000    0.000    0.000 
#
# Total GULP energy -495828.459309 kJ/mol
# GULP energy per Si atom -12395.711483 kJ/mol
# Density = 1.814877 g / cm^3
# Si number density = 18.190174 Si / 1000 Ang^3
#
#
#
# Elastic Constant Matrix: (Units=GPa)
#
#
# Indices 1 2 3 4 5 6 
#
# 1 73.1082 42.0686 35.9114 0.0000 0.0000 0.0000
# 2 42.0686 164.8963 79.0255 -0.0001 0.0000 0.0000
# 3 35.9114 79.0255 162.0843 -0.0001 0.0000 0.0000
# 4 0.0000 -0.0001 -0.0001 639.6971 0.0000 0.0000
# 5 0.0000 0.0000 0.0000 0.0000 31.3425 0.0000
# 6 0.0000 0.0000 0.0000 0.0000 0.0000 17.9369
#
#
#
# Elastic Compliance Matrix: (Units=1/GPa)
#
#
# Indices 1 2 3 4 5 6 
#
# 1 0.016562 -0.003219 -0.002100 0.000000 0.000000 0.000000
# 2 -0.003219 0.008539 -0.003450 0.000000 0.000000 0.000000
# 3 -0.002100 -0.003450 0.008317 0.000000 0.000000 0.000000
# 4 0.000000 0.000000 0.000000 0.001563 0.000000 0.000000
# 5 0.000000 0.000000 0.000000 0.000000 0.031906 0.000000
# 6 0.000000 0.000000 0.000000 0.000000 0.000000 0.055751
#
#
# Mechanical properties :
#
#
# Convention : Reuss Voigt Hill
#
# Bulk Modulus (GPa) = 62.97201 79.34440 71.15821
# Shear Modulus (GPa) = 34.37140 154.00085 94.18612
#
# Velocity S-wave (km/s) = 4.35162 9.21115 7.20354
# Velocity P-wave (km/s) = 7.74226 12.52363 10.41114
#
# Compressibility (1/GPa) = 0.01588007
#
# Stress axis : x y z
#
# Youngs Moduli (GPa) = 60.37837 117.10870 120.23473
#
# Poissons Ratio (x) = 0.37696 0.25251
# Poissons Ratio (y) = 0.19435 0.41482
# Poissons Ratio (z) = 0.12680 0.40404
#
# Static dielectric constant tensor:
#      x y z
#    x 3.165120 0.000000 0.000000 
#    y 0.000000 3.625290 0.000000 
#    z 0.000000 0.000000 3.574890 
# 
# 
# High freq. dielectric constant tensor:
#      x y z
#    x 1.677230 0.000000 0.000000 
#    y 0.000000 1.716060 0.000000 
#    z 0.000000 0.000000 1.714820 
# 
# From -- ./inp_files/51714.got.cif
#   From: 2010.06.25/outbox.cif.g09.slc.cpg/sg71_26_cif.got.tgz:51714.got - 2010.06.28 04:59:45.
