data_PCOD8287847
_publ_section_title
;
Structure prediction by ZEFSAII (Michael W. Deem and Ramdas Pophale) SiO2 
 PCOD8287847
Probable space group: I M M M
;
_chemical_formula_sum "Si O2"
_cell_formula_units_Z 104
_cell_length_a 32.774116
_cell_length_b 9.259388
_cell_length_c 18.647531
_cell_angle_alpha 90.000000
_cell_angle_beta 90.000000
_cell_angle_gamma 90.000000
_cell_volume 5658.933719
_symmetry_space_group_name_H-M "I M M M"
_symmetry_group_IT_number 71
_symmetry_cell_setting 'orthorhombic'
loop_
_space_group_symop_operation_xyz
x,y,z
-x,-y,z
x,-y,-z
-x,y,-z
-x,-y,-z
x,y,-z
-x,y,z
x,-y,z
1/2+x,1/2+y,1/2+z
1/2-x,1/2-y,1/2+z
1/2+x,1/2-y,1/2-z
1/2-x,1/2+y,1/2-z
1/2-x,1/2-y,1/2-z
1/2+x,1/2+y,1/2-z
1/2-x,1/2+y,1/2+z
1/2+x,1/2-y,1/2+z
loop_
_atom_site_type_symbol
_atom_site_label
_atom_site_fract_x
_atom_site_fract_y
_atom_site_fract_z
Si Si1 0.739983 0.330151 0.080003
Si Si2 0.833063 0.167757 0.322159
Si Si3 0.113138 0.330698 0.921357
Si Si4 0.954044 0.331638 0.814179
Si Si5 0.685789 0.172144 0.676896
Si Si6 0.500000 0.671600 0.919792
Si Si7 0.425645 0.668740 0.177387
O O1 0.746112 0.500000 0.073359
O O2 0.695249 0.291736 0.110244
O O3 0.773889 0.271530 0.135585
O O4 0.744743 0.261875 0.000000
O O5 0.817340 0.258874 0.254964
O O6 0.879381 0.203050 0.347108
O O7 0.828702 0.000000 0.301335
O O8 0.120451 0.500000 0.929051
O O9 0.068781 0.297612 0.888445
O O10 0.147930 0.268548 0.869621
O O11 0.115624 0.257914 0.000000
O O12 0.951998 0.500000 0.794939
O O13 0.931491 0.247029 0.752120
O O14 0.000000 0.276336 0.822920
O O15 0.685287 0.000000 0.686396
O O16 0.500000 0.500000 0.923376
O O17 0.541025 0.727110 0.879814
O O18 0.500000 0.736786 0.000000
O O19 0.432677 0.500000 0.189609
#
# Coordination Sequence:
#
# PCOD8287847 Si02
#       7
#    16  16  16  16  16   8  16
#     4   9  18  32  50  74 102 130 164 206 249 293
#     4  10  20  32  50  76 102 129 163 205 251 296
#     4   9  17  29  47  73 100 126 162 204 243 284
#     4  10  19  31  50  74  99 129 163 203 248 292
#     4  10  18  31  53  75  97 131 168 203 243 292
#     4   9  18  32  51  75  98 125 168 212 245 285
#     4  10  19  32  51  73  99 132 164 200 247 297
#
# _framework density 18.378021
#
# number of rings (size 3 to 8) (size 9 to 14) (size 15 to 20)
#    0.000    2.385    2.308    0.923    0.000    2.769 
#    0.000    4.615    0.000    5.538    0.000    3.231 
#    0.000    0.000    0.000    0.000    0.000    0.000 
#
# Total GULP energy -644646.931283 kJ/mol
# GULP energy per Si atom -12397.056371 kJ/mol
# Density = 1.833619 g / cm^3
# Si number density = 18.378021 Si / 1000 Ang^3
#
#
#
# Elastic Constant Matrix: (Units=GPa)
#
#
# Indices 1 2 3 4 5 6 
#
# 1 136.1984 19.6205 42.9774 0.0000 0.0000 0.0000
# 2 19.6205 19.7583 20.2723 0.0000 0.0000 0.0000
# 3 42.9774 20.2723 111.6289 0.0000 0.0000 0.0000
# 4 0.0000 0.0000 0.0000 21.1166 0.0000 0.0000
# 5 0.0000 0.0000 0.0000 0.0000 24.9524 0.0000
# 6 0.0000 0.0000 0.0000 0.0000 0.0000 17.9694
#
#
#
# Elastic Compliance Matrix: (Units=1/GPa)
#
#
# Indices 1 2 3 4 5 6 
#
# 1 0.009012 -0.006623 -0.002267 0.000000 0.000000 0.000000
# 2 -0.006623 0.067069 -0.009630 0.000000 0.000000 0.000000
# 3 -0.002267 -0.009630 0.011580 0.000000 0.000000 0.000000
# 4 0.000000 0.000000 0.000000 0.047356 0.000000 0.000000
# 5 0.000000 0.000000 0.000000 0.000000 0.040076 0.000000
# 6 0.000000 0.000000 0.000000 0.000000 0.000000 0.055650
#
#
# Mechanical properties :
#
#
# Convention : Reuss Voigt Hill
#
# Bulk Modulus (GPa) = 19.75475 48.14733 33.95104
# Shear Modulus (GPa) = 17.56502 25.12203 21.34353
#
# Velocity S-wave (km/s) = 3.09489 3.70125 3.41157
# Velocity P-wave (km/s) = 4.85218 6.67240 5.83372
#
# Compressibility (1/GPa) = 0.05062073
#
# Stress axis : x y z
#
# Youngs Moduli (GPa) = 110.96811 14.90998 86.35705
#
# Poissons Ratio (x) = 0.09875 0.19575
# Poissons Ratio (y) = 0.73495 0.83163
# Poissons Ratio (z) = 0.25153 0.14359
#
# Static dielectric constant tensor:
#      x y z
#    x 3.710860 0.000000 0.000000 
#    y 0.000000 2.956770 0.000000 
#    z 0.000000 0.000000 3.539350 
# 
# 
# High freq. dielectric constant tensor:
#      x y z
#    x 1.733630 0.000000 0.000000 
#    y 0.000000 1.660060 0.000000 
#    z 0.000000 0.000000 1.714250 
# 
# From -- ./inp_files/49409.got.cif
#   From: 2010.06.25/outbox.cif.g09.slc.cpg/sg71_25_cif.got.tgz:49409.got - 2010.06.28 04:59:45.
