data_PCOD8287053
_publ_section_title
;
Structure prediction by ZEFSAII (Michael W. Deem and Ramdas Pophale) SiO2 
 PCOD8287053
Probable space group: I M M M
;
_chemical_formula_sum "Si O2"
_cell_formula_units_Z 96
_cell_length_a 27.133631
_cell_length_b 8.931801
_cell_length_c 22.973742
_cell_angle_alpha 90.000000
_cell_angle_beta 90.000000
_cell_angle_gamma 90.000000
_cell_volume 5567.736744
_symmetry_space_group_name_H-M "I M M M"
_symmetry_group_IT_number 71
_symmetry_cell_setting 'orthorhombic'
loop_
_space_group_symop_operation_xyz
x,y,z
-x,-y,z
x,-y,-z
-x,y,-z
-x,-y,-z
x,y,-z
-x,y,z
x,-y,z
1/2+x,1/2+y,1/2+z
1/2-x,1/2-y,1/2+z
1/2+x,1/2-y,1/2-z
1/2-x,1/2+y,1/2-z
1/2-x,1/2-y,1/2-z
1/2+x,1/2+y,1/2-z
1/2-x,1/2+y,1/2+z
1/2+x,1/2-y,1/2+z
loop_
_atom_site_type_symbol
_atom_site_label
_atom_site_fract_x
_atom_site_fract_y
_atom_site_fract_z
Si Si1 0.101615 0.669470 0.122730
Si Si2 0.359890 0.178677 0.201889
Si Si3 0.255213 0.177810 0.500000
Si Si4 0.366716 0.178457 0.500000
Si Si5 0.709719 0.321258 0.879626
Si Si6 0.699444 0.831655 0.690400
Si Si7 0.442950 0.327234 0.269992
O O1 0.080995 0.500000 0.126620
O O2 0.158674 0.672701 0.140301
O O3 0.068616 0.771082 0.164698
O O4 0.101837 0.731154 0.056431
O O5 0.342069 0.246293 0.140083
O O6 0.321964 0.243517 0.251015
O O7 0.413805 0.236979 0.219929
O O8 0.361946 0.000000 0.199921
O O9 0.310842 0.244876 0.500000
O O10 0.224330 0.233525 0.555981
O O11 0.258989 0.000000 0.500000
O O12 0.362318 0.000000 0.500000
O O13 0.705452 0.500000 0.877482
O O14 0.751387 0.255952 0.835267
O O15 0.713211 0.000000 0.706695
O O16 0.500000 0.301679 0.256662
O O17 0.427932 0.500000 0.266322
#
# Coordination Sequence:
#
# PCOD8287053 Si02
#       7
#    16  16   8   8  16  16  16
#     4   9  16  28  49  74  98 128 167 207 243 282
#     4  10  20  32  48  72  98 125 158 200 248 294
#     4   9  16  26  47  72  99 138 176 202 226 266
#     4   9  14  26  48  72  99 133 173 208 236 271
#     4  10  17  28  46  70 100 134 168 197 230 276
#     4   8  14  25  43  67  95 127 161 196 233 275
#     4  10  21  37  54  71  92 120 157 205 259 307
#
# _framework density 17.242194000000001
#
# number of rings (size 3 to 8) (size 9 to 14) (size 15 to 20)
#    0.000    2.667    1.667    2.500    0.000    1.333 
#    0.000    4.583    0.000    3.500    0.000    0.583 
#    0.000    4.667    0.000    0.000    0.000    0.000 
#
# Total GULP energy -594846.091011 kJ/mol
# GULP energy per Si atom -12392.626896 kJ/mol
# Density = 1.720295 g / cm^3
# Si number density = 17.242194 Si / 1000 Ang^3
#
#
#
# Elastic Constant Matrix: (Units=GPa)
#
#
# Indices 1 2 3 4 5 6 
#
# 1 74.7115 35.7693 43.3116 0.0000 0.0000 0.0000
# 2 35.7693 55.6819 27.0070 0.0000 0.0000 0.0000
# 3 43.3116 27.0070 62.4389 0.0000 0.0000 0.0000
# 4 0.0000 0.0000 0.0000 20.9186 0.0000 0.0000
# 5 0.0000 0.0000 0.0000 0.0000 15.6285 0.0000
# 6 0.0000 0.0000 0.0000 0.0000 0.0000 20.6557
#
#
#
# Elastic Compliance Matrix: (Units=1/GPa)
#
#
# Indices 1 2 3 4 5 6 
#
# 1 0.026266 -0.010169 -0.013821 0.000000 0.000000 0.000000
# 2 -0.010169 0.026664 -0.004479 0.000000 0.000000 0.000000
# 3 -0.013821 -0.004479 0.027540 0.000000 0.000000 0.000000
# 4 0.000000 0.000000 0.000000 0.047804 0.000000 0.000000
# 5 0.000000 0.000000 0.000000 0.000000 0.063986 0.000000
# 6 0.000000 0.000000 0.000000 0.000000 0.000000 0.048413
#
#
# Mechanical properties :
#
#
# Convention : Reuss Voigt Hill
#
# Bulk Modulus (GPa) = 42.49665 45.00093 43.74879
# Shear Modulus (GPa) = 16.36896 17.22351 16.79624
#
# Velocity S-wave (km/s) = 3.08450 3.16399 3.12450
# Velocity P-wave (km/s) = 6.11440 6.28520 6.20039
#
# Compressibility (1/GPa) = 0.02353127
#
# Stress axis : x y z
#
# Youngs Moduli (GPa) = 38.07221 37.50335 36.31049
#
# Poissons Ratio (x) = 0.38138 0.50185
# Poissons Ratio (y) = 0.38717 0.16264
# Poissons Ratio (z) = 0.52620 0.16798
#
# Static dielectric constant tensor:
#      x y z
#    x 3.037260 0.000000 0.000000 
#    y 0.000000 2.896860 0.000000 
#    z 0.000000 0.000000 3.347750 
# 
# 
# High freq. dielectric constant tensor:
#      x y z
#    x 1.642820 0.000000 0.000000 
#    y 0.000000 1.635620 0.000000 
#    z 0.000000 0.000000 1.658820 
# 
# From -- ./inp_files/61894.got.cif
#   From: 2010.06.25/outbox.cif.g09.slc.cpg/sg71_31_cif.got.tgz:61894.got - 2010.06.28 04:59:45.
