data_PCOD8287224
_publ_section_title
;
Structure prediction by ZEFSAII (Michael W. Deem and Ramdas Pophale) SiO2 
 PCOD8287224
Probable space group: I M M M
;
_chemical_formula_sum "Si O2"
_cell_formula_units_Z 96
_cell_length_a 28.682899
_cell_length_b 9.140863
_cell_length_c 26.247069
_cell_angle_alpha 90.000000
_cell_angle_beta 90.000000
_cell_angle_gamma 90.000000
_cell_volume 6881.625849
_symmetry_space_group_name_H-M "I M M M"
_symmetry_group_IT_number 71
_symmetry_cell_setting 'orthorhombic'
loop_
_space_group_symop_operation_xyz
x,y,z
-x,-y,z
x,-y,-z
-x,y,-z
-x,-y,-z
x,y,-z
-x,y,z
x,-y,z
1/2+x,1/2+y,1/2+z
1/2-x,1/2-y,1/2+z
1/2+x,1/2-y,1/2-z
1/2-x,1/2+y,1/2-z
1/2-x,1/2-y,1/2-z
1/2+x,1/2+y,1/2-z
1/2-x,1/2+y,1/2+z
1/2+x,1/2-y,1/2+z
loop_
_atom_site_type_symbol
_atom_site_label
_atom_site_fract_x
_atom_site_fract_y
_atom_site_fract_z
Si Si1 0.947308 0.169870 0.280286
Si Si2 0.144867 0.173374 0.557090
Si Si3 0.806372 0.333502 0.354843
Si Si4 0.949597 0.826511 0.603419
Si Si5 0.359252 0.172189 0.248887
Si Si6 0.779464 0.830649 0.207679
O O1 0.942688 0.223034 0.338454
O O2 0.911812 0.267272 0.247325
O O3 0.000000 0.196736 0.260542
O O4 0.933752 0.000000 0.274984
O O5 0.157927 0.223441 0.500000
O O6 0.182395 0.235483 0.596381
O O7 0.093007 0.235129 0.569846
O O8 0.145413 0.000000 0.562196
O O9 0.818831 0.500000 0.368201
O O10 0.836691 0.284701 0.305694
O O11 0.750772 0.316483 0.344216
O O12 0.000000 0.767249 0.583325
O O13 0.950467 0.000000 0.600972
O O14 0.329648 0.250374 0.294252
O O15 0.358546 0.000000 0.258410
O O16 0.750000 0.750000 0.250000
O O17 0.786236 0.000000 0.222452
#
# Coordination Sequence:
#
# PCOD8287224 Si02
#       6
#    16  16  16  16  16  16
#     4   9  16  26  41  58  76 104 136 163 197 235
#     4  10  19  28  41  59  74  95 129 167 206 242
#     4   9  18  30  41  55  75  99 124 155 197 242
#     4   8  14  25  39  54  71  93 125 165 206 240
#     4  10  18  27  41  61  80 100 127 157 197 239
#     4   9  17  28  42  60  78  96 123 155 193 238
#
# _framework density 13.950191999999999
#
# number of rings (size 3 to 8) (size 9 to 14) (size 15 to 20)
#    0.000    2.833    1.667    3.000    0.000    4.333 
#    0.000    1.667    0.000    0.500    0.000    1.167 
#    0.000    0.000    0.000    0.000    0.000    0.833 
#
# Total GULP energy -594833.009672 kJ/mol
# GULP energy per Si atom -12392.354368 kJ/mol
# Density = 1.391844 g / cm^3
# Si number density = 13.950192 Si / 1000 Ang^3
#
#
#
# Elastic Constant Matrix: (Units=GPa)
#
#
# Indices 1 2 3 4 5 6 
#
# 1 94.9037 44.8603 42.3128 0.0000 0.0000 0.0000
# 2 44.8603 59.3563 24.9303 0.0000 0.0000 0.0000
# 3 42.3128 24.9303 41.9207 0.0000 0.0000 0.0000
# 4 0.0000 0.0000 0.0000 15.9788 0.0000 0.0000
# 5 0.0000 0.0000 0.0000 0.0000 18.2336 0.0000
# 6 0.0000 0.0000 0.0000 0.0000 0.0000 22.9957
#
#
#
# Elastic Compliance Matrix: (Units=1/GPa)
#
#
# Indices 1 2 3 4 5 6 
#
# 1 0.022998 -0.010172 -0.017163 0.000000 0.000000 0.000000
# 2 -0.010172 0.026956 -0.005763 0.000000 0.000000 0.000000
# 3 -0.017163 -0.005763 0.044606 0.000000 0.000000 0.000000
# 4 0.000000 0.000000 0.000000 0.062583 0.000000 0.000000
# 5 0.000000 0.000000 0.000000 0.000000 0.054844 0.000000
# 6 0.000000 0.000000 0.000000 0.000000 0.000000 0.043486
#
#
# Mechanical properties :
#
#
# Convention : Reuss Voigt Hill
#
# Bulk Modulus (GPa) = 35.25882 46.70971 40.98427
# Shear Modulus (GPa) = 15.10008 17.04678 16.07343
#
# Velocity S-wave (km/s) = 3.29360 3.49947 3.39809
# Velocity P-wave (km/s) = 6.30820 7.06288 6.69618
#
# Compressibility (1/GPa) = 0.02836170
#
# Stress axis : x y z
#
# Youngs Moduli (GPa) = 43.48282 37.09729 22.41870
#
# Poissons Ratio (x) = 0.37737 0.38478
# Poissons Ratio (y) = 0.44232 0.12921
# Poissons Ratio (z) = 0.74630 0.21380
#
# Static dielectric constant tensor:
#      x y z
#    x 3.489680 0.000000 0.000000 
#    y 0.000000 2.654270 0.000000 
#    z 0.000000 0.000000 2.570470 
# 
# 
# High freq. dielectric constant tensor:
#      x y z
#    x 1.532710 0.000000 0.000000 
#    y 0.000000 1.527740 0.000000 
#    z 0.000000 0.000000 1.474930 
# 
# From -- ./inp_files/15438.got.cif
#   From: 2010.06.25/outbox.cif.g09.slc.cpg/sg71_8_cif.got.tgz:15438.got - 2010.06.28 04:59:45.
