data_PCOD8287626
_publ_section_title
;
Structure prediction by ZEFSAII (Michael W. Deem and Ramdas Pophale) SiO2 
 PCOD8287626
Probable space group: I M M M
;
_chemical_formula_sum "Si O2"
_cell_formula_units_Z 120
_cell_length_a 16.511701
_cell_length_b 22.972591
_cell_length_c 17.203522
_cell_angle_alpha 90.000000
_cell_angle_beta 90.000000
_cell_angle_gamma 90.000000
_cell_volume 6525.580678
_symmetry_space_group_name_H-M "I M M M"
_symmetry_group_IT_number 71
_symmetry_cell_setting 'orthorhombic'
loop_
_space_group_symop_operation_xyz
x,y,z
-x,-y,z
x,-y,-z
-x,y,-z
-x,-y,-z
x,y,-z
-x,y,z
x,-y,z
1/2+x,1/2+y,1/2+z
1/2-x,1/2-y,1/2+z
1/2+x,1/2-y,1/2-z
1/2-x,1/2+y,1/2-z
1/2-x,1/2-y,1/2-z
1/2+x,1/2+y,1/2-z
1/2-x,1/2+y,1/2+z
1/2+x,1/2-y,1/2+z
loop_
_atom_site_type_symbol
_atom_site_label
_atom_site_fract_x
_atom_site_fract_y
_atom_site_fract_z
Si Si1 0.327187 0.786467 0.091802
Si Si2 0.596737 0.000000 0.914924
Si Si3 0.903574 0.821595 0.674370
Si Si4 0.404362 0.108502 0.177799
Si Si5 0.904567 0.435387 0.159362
Si Si6 0.596004 0.435578 0.087212
Si Si7 0.595215 0.179265 0.414629
Si Si8 0.183649 0.769452 0.188658
O O1 0.358798 0.722588 0.115469
O O2 0.379865 0.829994 0.143175
O O3 0.232793 0.797107 0.115813
O O4 0.338452 0.796761 0.000000
O O5 0.631547 0.057450 0.875170
O O6 0.500000 0.000000 0.913757
O O7 0.633321 0.000000 0.000000
O O8 0.874623 0.885967 0.647445
O O9 0.876791 0.812740 0.764843
O O10 0.000000 0.813416 0.667646
O O11 0.500000 0.107040 0.179929
O O12 0.369240 0.095303 0.263195
O O13 0.866498 0.500000 0.144473
O O14 0.883332 0.389755 0.091192
O O15 0.000000 0.443469 0.168372
O O16 0.500000 0.435630 0.085253
O O17 0.626893 0.500000 0.113809
O O18 0.628331 0.421928 0.000000
O O19 0.625034 0.200113 0.500000
O O20 0.500000 0.188545 0.405828
O O21 0.634679 0.214802 0.344648
O O22 0.250000 0.750000 0.250000
#
# Coordination Sequence:
#
# PCOD8287626 Si02
#       8
#    16   8  16  16  16  16  16  16
#     4  11  22  33  49  72 103 138 168 209 260 311
#     4   9  16  26  42  66  97 131 168 212 257 302
#     4  10  19  32  53  78 101 129 170 213 251 301
#     4  10  18  30  48  73 102 134 171 212 256 304
#     4   9  16  28  47  72 101 131 166 209 256 300
#     4   8  14  26  47  77 109 132 151 189 250 310
#     4  10  20  34  54  77 101 132 173 220 261 303
#     4  10  21  36  51  69 100 135 169 206 256 307
#
# _framework density 18.389168999999999
#
# number of rings (size 3 to 8) (size 9 to 14) (size 15 to 20)
#    0.000    2.333    0.667    4.000    0.000    3.467 
#    0.000    1.333    1.467    3.200    0.000    0.000 
#    0.000    0.000    0.000    8.800    0.000    0.000 
#
# Total GULP energy -743400.469956 kJ/mol
# GULP energy per Si atom -12390.007833 kJ/mol
# Density = 1.834731 g / cm^3
# Si number density = 18.389169 Si / 1000 Ang^3
#
#
#
# Elastic Constant Matrix: (Units=GPa)
#
#
# Indices 1 2 3 4 5 6 
#
# 1 35.1735 21.7318 31.8021 0.0000 0.0000 0.0000
# 2 21.7318 132.3801 55.1840 -0.0003 0.0000 0.0001
# 3 31.8021 55.1840 100.5195 -0.0006 0.0000 0.0001
# 4 0.0000 -0.0003 -0.0006 30.8356 0.0000 0.0001
# 5 0.0000 0.0000 0.0000 0.0000 24.4329 0.0000
# 6 0.0000 0.0001 0.0001 0.0001 0.0000 1.2851
#
#
#
# Elastic Compliance Matrix: (Units=1/GPa)
#
#
# Indices 1 2 3 4 5 6 
#
# 1 0.040107 -0.001679 -0.011767 0.000000 0.000000 0.000001
# 2 -0.001679 0.009866 -0.004885 0.000000 0.000000 0.000000
# 3 -0.011767 -0.004885 0.016353 0.000000 0.000000 -0.000001
# 4 0.000000 0.000000 0.000000 0.032430 0.000000 -0.000001
# 5 0.000000 0.000000 0.000000 0.000000 0.040928 0.000000
# 6 0.000001 0.000000 -0.000001 -0.000001 0.000000 0.778165
#
#
# Mechanical properties :
#
#
# Convention : Reuss Voigt Hill
#
# Bulk Modulus (GPa) = 33.71126 53.94542 43.82834
# Shear Modulus (GPa) = 5.18457 21.93441 13.55949
#
# Velocity S-wave (km/s) = 1.68092 3.45743 2.71839
# Velocity P-wave (km/s) = 4.70523 6.73331 5.80847
#
# Compressibility (1/GPa) = 0.02966367
#
# Stress axis : x y z
#
# Youngs Moduli (GPa) = 24.93325 101.35769 61.15017
#
# Poissons Ratio (x) = 0.17015 0.71958
# Poissons Ratio (y) = 0.04186 0.29873
# Poissons Ratio (z) = 0.29340 0.49516
#
# Static dielectric constant tensor:
#      x y z
#    x 3.216030 0.000000 0.000000 
#    y 0.000000 3.643840 0.000000 
#    z 0.000000 0.000000 3.661300 
# 
# 
# High freq. dielectric constant tensor:
#      x y z
#    x 1.674720 0.000000 0.000000 
#    y 0.000000 1.713620 0.000000 
#    z 0.000000 0.000000 1.716790 
# 
# From -- ./inp_files/46456.got.cif
#   From: 2010.06.25/outbox.cif.g09.slc.cpg/sg71_24_cif.got.tgz:46456.got - 2010.06.28 04:59:45.
