data_PCOD8287094
_publ_section_title
;
Structure prediction by ZEFSAII (Michael W. Deem and Ramdas Pophale) SiO2 
 PCOD8287094
Probable space group: I M M M
;
_chemical_formula_sum "Si O2"
_cell_formula_units_Z 80
_cell_length_a 14.059984
_cell_length_b 28.054927
_cell_length_c 12.009730
_cell_angle_alpha 90.000000
_cell_angle_beta 90.000000
_cell_angle_gamma 90.000000
_cell_volume 4737.259913
_symmetry_space_group_name_H-M "I M M M"
_symmetry_group_IT_number 71
_symmetry_cell_setting 'orthorhombic'
loop_
_space_group_symop_operation_xyz
x,y,z
-x,-y,z
x,-y,-z
-x,y,-z
-x,-y,-z
x,y,-z
-x,y,z
x,-y,z
1/2+x,1/2+y,1/2+z
1/2-x,1/2-y,1/2+z
1/2+x,1/2-y,1/2-z
1/2-x,1/2+y,1/2-z
1/2-x,1/2-y,1/2-z
1/2+x,1/2+y,1/2-z
1/2-x,1/2+y,1/2+z
1/2+x,1/2-y,1/2+z
loop_
_atom_site_type_symbol
_atom_site_label
_atom_site_fract_x
_atom_site_fract_y
_atom_site_fract_z
Si Si1 0.606554 0.313624 0.126834
Si Si2 0.704346 0.860706 0.372000
Si Si3 0.110796 0.284711 0.726075
Si Si4 0.104235 0.432531 0.500000
Si Si5 0.894628 0.321258 0.500000
Si Si6 0.388371 0.052835 0.241376
O O1 0.500000 0.334053 0.144434
O O2 0.681450 0.356516 0.143892
O O3 0.626655 0.272271 0.218817
O O4 0.616731 0.292928 0.000000
O O5 0.674975 0.866243 0.500000
O O6 0.660763 0.810466 0.329686
O O7 0.668360 0.907627 0.309783
O O8 0.158055 0.305663 0.612939
O O9 0.000000 0.297848 0.733694
O O10 0.096723 0.376830 0.500000
O O11 0.153984 0.448981 0.615060
O O12 0.000000 0.456152 0.500000
O O13 0.000000 0.297169 0.500000
O O14 0.500000 0.067274 0.240384
O O15 0.374215 0.000000 0.294416
#
# Coordination Sequence:
#
# PCOD8287094 Si02
#       6
#    16  16  16   8   8  16
#     4   9  18  33  52  70  90 121 163 208 242 266
#     4  11  22  32  45  70 100 130 161 189 228 288
#     4  10  17  29  49  72  98 126 156 190 231 278
#     4   9  15  28  49  74  96 118 154 195 229 263
#     4   9  14  23  46  73  94 121 154 188 227 270
#     4  10  20  33  50  72  98 126 155 192 237 282
#
# _framework density 16.887398999999998
#
# number of rings (size 3 to 8) (size 9 to 14) (size 15 to 20)
#    0.000    2.200    3.000    1.500    0.000    3.200 
#    0.000    1.000    0.000    0.600    0.000    2.800 
#    0.000    1.600    0.000    0.000    0.000    0.000 
#
# Total GULP energy -495574.543343 kJ/mol
# GULP energy per Si atom -12389.363584 kJ/mol
# Density = 1.684896 g / cm^3
# Si number density = 16.887399 Si / 1000 Ang^3
#
#
#
# Elastic Constant Matrix: (Units=GPa)
#
#
# Indices 1 2 3 4 5 6 
#
# 1 74.9324 51.7240 42.2640 -0.0001 0.0000 0.0000
# 2 51.7240 88.6857 48.4652 -0.0001 0.0000 0.0000
# 3 42.2640 48.4652 103.4428 -0.0010 0.0003 0.0001
# 4 -0.0001 -0.0001 -0.0010 67.9106 0.0003 0.0001
# 5 0.0000 0.0000 0.0003 0.0003 12.3697 0.0000
# 6 0.0000 0.0000 0.0001 0.0001 0.0000 19.8791
#
#
#
# Elastic Compliance Matrix: (Units=1/GPa)
#
#
# Indices 1 2 3 4 5 6 
#
# 1 0.023686 -0.011460 -0.004308 0.000000 0.000000 0.000000
# 2 -0.011460 0.020701 -0.005017 0.000000 0.000000 0.000000
# 3 -0.004308 -0.005017 0.013778 0.000000 0.000000 0.000000
# 4 0.000000 0.000000 0.000000 0.014725 0.000000 0.000000
# 5 0.000000 0.000000 0.000000 0.000000 0.080843 0.000000
# 6 0.000000 0.000000 0.000000 0.000000 0.000000 0.050304
#
#
# Mechanical properties :
#
#
# Convention : Reuss Voigt Hill
#
# Bulk Modulus (GPa) = 60.25862 61.32973 60.79418
# Shear Modulus (GPa) = 19.90939 28.33906 24.12422
#
# Velocity S-wave (km/s) = 3.43731 4.10093 3.78370
# Velocity P-wave (km/s) = 7.17729 7.66937 7.42741
#
# Compressibility (1/GPa) = 0.01659514
#
# Stress axis : x y z
#
# Youngs Moduli (GPa) = 42.21948 48.30680 72.58042
#
# Poissons Ratio (x) = 0.55359 0.31269
# Poissons Ratio (y) = 0.48383 0.36411
# Poissons Ratio (z) = 0.18189 0.24234
#
# Static dielectric constant tensor:
#      x y z
#    x 2.997330 0.000000 0.000000 
#    y 0.000000 3.019370 0.000000 
#    z 0.000000 0.000000 3.253120 
# 
# 
# High freq. dielectric constant tensor:
#      x y z
#    x 1.611650 0.000000 0.000000 
#    y 0.000000 1.642680 0.000000 
#    z 0.000000 0.000000 1.649410 
# 
# From -- ./inp_files/22205.got.cif
#   From: 2010.06.25/outbox.cif.g09.slc.cpg/sg71_12_cif.got.tgz:22205.got - 2010.06.28 04:59:45.
