data_PCOD8287116
_publ_section_title
;
Structure prediction by ZEFSAII (Michael W. Deem and Ramdas Pophale) SiO2 
 PCOD8287116
Probable space group: I M M M
;
_chemical_formula_sum "Si O2"
_cell_formula_units_Z 104
_cell_length_a 21.754644
_cell_length_b 13.676914
_cell_length_c 22.612768
_cell_angle_alpha 90.000000
_cell_angle_beta 90.000000
_cell_angle_gamma 90.000000
_cell_volume 6728.121474
_symmetry_space_group_name_H-M "I M M M"
_symmetry_group_IT_number 71
_symmetry_cell_setting 'orthorhombic'
loop_
_space_group_symop_operation_xyz
x,y,z
-x,-y,z
x,-y,-z
-x,y,-z
-x,-y,-z
x,y,-z
-x,y,z
x,-y,z
1/2+x,1/2+y,1/2+z
1/2-x,1/2-y,1/2+z
1/2+x,1/2-y,1/2-z
1/2-x,1/2+y,1/2-z
1/2-x,1/2-y,1/2-z
1/2+x,1/2+y,1/2-z
1/2-x,1/2+y,1/2+z
1/2+x,1/2-y,1/2+z
loop_
_atom_site_type_symbol
_atom_site_label
_atom_site_fract_x
_atom_site_fract_y
_atom_site_fract_z
Si Si1 0.000000 0.391579 0.929477
Si Si2 0.755907 0.609497 0.282219
Si Si3 0.747640 0.885419 0.568529
Si Si4 0.371053 0.608811 0.347503
Si Si5 0.930125 0.885289 0.727020
Si Si6 0.812773 0.201181 0.675536
Si Si7 0.879390 0.285264 0.069057
O O1 0.939383 0.338528 0.905333
O O2 0.000000 0.500000 0.903018
O O3 0.000000 0.394716 0.000000
O O4 0.784107 0.500000 0.279359
O O5 0.698340 0.612181 0.325417
O O6 0.806484 0.683836 0.308590
O O7 0.733972 0.639865 0.216730
O O8 0.762501 0.862978 0.500000
O O9 0.795391 0.823254 0.607891
O O10 0.678886 0.851962 0.584947
O O11 0.753967 0.000000 0.582254
O O12 0.388785 0.500000 0.368739
O O13 0.416452 0.642781 0.294970
O O14 0.376437 0.678783 0.402940
O O15 0.883970 0.827171 0.684240
O O16 0.000000 0.856502 0.711110
O O17 0.917842 0.000000 0.717783
O O18 0.884996 0.267730 0.000000
#
# Coordination Sequence:
#
# PCOD8287116 Si02
#       7
#     8  16  16  16  16  16  16
#     4   9  18  32  45  55  77 119 164 198 226 265
#     4   9  17  29  47  71  93 117 151 192 236 277
#     4  10  19  30  46  69  96 123 154 195 238 278
#     4   9  17  30  45  64  91 120 152 190 231 273
#     4   9  18  31  48  69  91 120 155 189 230 282
#     4  10  17  30  50  70  93 121 156 193 231 285
#     4  10  19  30  43  63  89 123 162 195 229 272
#
# _framework density 15.457509
#
# number of rings (size 3 to 8) (size 9 to 14) (size 15 to 20)
#    0.000    2.538    1.538    2.769    1.077    2.154 
#    0.000    0.000    0.000    2.769    0.000    2.154 
#    0.000    0.000    0.000    1.385    0.000    0.154 
#
# Total GULP energy -644757.286073 kJ/mol
# GULP energy per Si atom -12399.178578 kJ/mol
# Density = 1.542233 g / cm^3
# Si number density = 15.457509 Si / 1000 Ang^3
#
#
#
# Elastic Constant Matrix: (Units=GPa)
#
#
# Indices 1 2 3 4 5 6 
#
# 1 85.2333 35.9395 33.5012 0.0000 0.0000 0.0000
# 2 35.9395 99.8423 39.3998 0.0000 0.0000 0.0000
# 3 33.5012 39.3998 52.8673 0.0000 0.0000 0.0000
# 4 0.0000 0.0000 0.0000 22.2934 0.0000 0.0000
# 5 0.0000 0.0000 0.0000 0.0000 12.7887 0.0000
# 6 0.0000 0.0000 0.0000 0.0000 0.0000 22.9169
#
#
#
# Elastic Compliance Matrix: (Units=1/GPa)
#
#
# Indices 1 2 3 4 5 6 
#
# 1 0.016052 -0.002499 -0.008310 0.000000 0.000000 0.000000
# 2 -0.002499 0.014578 -0.009280 0.000000 0.000000 0.000000
# 3 -0.008310 -0.009280 0.031097 0.000000 0.000000 0.000000
# 4 0.000000 0.000000 0.000000 0.044856 0.000000 0.000000
# 5 0.000000 0.000000 0.000000 0.000000 0.078194 0.000000
# 6 0.000000 0.000000 0.000000 0.000000 0.000000 0.043636
#
#
# Mechanical properties :
#
#
# Convention : Reuss Voigt Hill
#
# Bulk Modulus (GPa) = 46.40609 50.62487 48.51548
# Shear Modulus (GPa) = 18.13071 20.20663 19.16867
#
# Velocity S-wave (km/s) = 3.42853 3.61950 3.52531
# Velocity P-wave (km/s) = 6.76462 7.09153 6.93000
#
# Compressibility (1/GPa) = 0.02154890
#
# Stress axis : x y z
#
# Youngs Moduli (GPa) = 62.29583 68.59827 32.15703
#
# Poissons Ratio (x) = 0.17143 0.26722
# Poissons Ratio (y) = 0.15568 0.29843
# Poissons Ratio (z) = 0.51766 0.63662
#
# Static dielectric constant tensor:
#      x y z
#    x 2.896420 0.000000 0.000000 
#    y 0.000000 3.075840 0.000000 
#    z 0.000000 0.000000 2.764910 
# 
# 
# High freq. dielectric constant tensor:
#      x y z
#    x 1.575620 0.000000 0.000000 
#    y 0.000000 1.595810 0.000000 
#    z 0.000000 0.000000 1.571470 
# 
# From -- ./inp_files/39567.got.cif
#   From: 2010.06.25/outbox.cif.g09.slc.cpg/sg71_20_cif.got.tgz:39567.got - 2010.06.28 04:59:45.
