data_PCOD8287424
_publ_section_title
;
Structure prediction by ZEFSAII (Michael W. Deem and Ramdas Pophale) SiO2 
 PCOD8287424
Probable space group: I M M M
;
_chemical_formula_sum "Si O2"
_cell_formula_units_Z 96
_cell_length_a 23.827033
_cell_length_b 9.162405
_cell_length_c 25.625335
_cell_angle_alpha 90.000000
_cell_angle_beta 90.000000
_cell_angle_gamma 90.000000
_cell_volume 5594.341871
_symmetry_space_group_name_H-M "I M M M"
_symmetry_group_IT_number 71
_symmetry_cell_setting 'orthorhombic'
loop_
_space_group_symop_operation_xyz
x,y,z
-x,-y,z
x,-y,-z
-x,y,-z
-x,-y,-z
x,y,-z
-x,y,z
x,-y,z
1/2+x,1/2+y,1/2+z
1/2-x,1/2-y,1/2+z
1/2+x,1/2-y,1/2-z
1/2-x,1/2+y,1/2-z
1/2-x,1/2-y,1/2-z
1/2+x,1/2+y,1/2-z
1/2-x,1/2+y,1/2+z
1/2+x,1/2-y,1/2+z
loop_
_atom_site_type_symbol
_atom_site_label
_atom_site_fract_x
_atom_site_fract_y
_atom_site_fract_z
Si Si1 0.062347 0.326606 0.193693
Si Si2 0.435499 0.171059 0.811111
Si Si3 0.437053 0.826101 0.500000
Si Si4 0.866924 0.326001 0.901901
Si Si5 0.369813 0.326911 0.900004
Si Si6 0.748762 0.326504 0.940954
Si Si7 0.937191 0.173631 0.500000
O O1 0.060817 0.500000 0.190910
O O2 0.078786 0.278496 0.252143
O O3 0.107719 0.264241 0.152428
O O4 0.000000 0.267595 0.179592
O O5 0.500000 0.210761 0.824606
O O6 0.392886 0.257340 0.847440
O O7 0.425336 0.000000 0.818351
O O8 0.500000 0.763420 0.500000
O O9 0.405258 0.767125 0.448983
O O10 0.437663 0.000000 0.500000
O O11 0.867213 0.500000 0.901584
O O12 0.803544 0.267924 0.910226
O O13 0.374188 0.500000 0.895071
O O14 0.305877 0.274956 0.909036
O O15 0.406023 0.268128 0.948672
O O16 0.749836 0.500000 0.944626
O O17 0.747651 0.263554 0.000000
O O18 0.000000 0.236777 0.500000
O O19 0.936805 0.000000 0.500000
#
# Coordination Sequence:
#
# PCOD8287424 Si02
#       7
#    16  16   8  16  16  16   8
#     4   8  14  25  40  57  81 117 153 179 212 263
#     4   9  18  32  47  63  87 118 149 182 221 263
#     4   9  14  17  27  53  86 114 142 181 222 258
#     4   9  14  21  35  56  83 114 148 181 216 260
#     4  10  18  29  46  66  88 114 148 184 218 263
#     4   9  15  25  39  58  85 116 145 177 220 264
#     4   9  16  25  40  62  83 103 132 174 220 261
#
# _framework density 17.160194000000001
#
# number of rings (size 3 to 8) (size 9 to 14) (size 15 to 20)
#    0.000    3.000    1.667    2.000    0.000    3.000 
#    0.000    1.250    0.000    1.500    0.000    0.000 
#    0.000    0.000    0.000    0.167    0.000    9.333 
#
# Total GULP energy -594956.489599 kJ/mol
# GULP energy per Si atom -12394.926867 kJ/mol
# Density = 1.712114 g / cm^3
# Si number density = 17.160194 Si / 1000 Ang^3
#
#
#
# Elastic Constant Matrix: (Units=GPa)
#
#
# Indices 1 2 3 4 5 6 
#
# 1 178.1580 19.1989 102.6409 0.0000 0.0000 0.0000
# 2 19.1989 10.1800 19.1185 0.0000 0.0000 0.0000
# 3 102.6409 19.1185 155.2574 0.0000 0.0000 0.0000
# 4 0.0000 0.0000 0.0000 13.8972 0.0000 0.0000
# 5 0.0000 0.0000 0.0000 0.0000 32.0904 0.0000
# 6 0.0000 0.0000 0.0000 0.0000 0.0000 10.6622
#
#
#
# Elastic Compliance Matrix: (Units=1/GPa)
#
#
# Indices 1 2 3 4 5 6 
#
# 1 0.009542 -0.007998 -0.005323 0.000000 0.000000 0.000000
# 2 -0.007998 0.134488 -0.011274 0.000000 0.000000 0.000000
# 3 -0.005323 -0.011274 0.011348 0.000000 0.000000 0.000000
# 4 0.000000 0.000000 0.000000 0.071957 0.000000 0.000000
# 5 0.000000 0.000000 0.000000 0.000000 0.031162 0.000000
# 6 0.000000 0.000000 0.000000 0.000000 0.000000 0.093790
#
#
# Mechanical properties :
#
#
# Convention : Reuss Voigt Hill
#
# Bulk Modulus (GPa) = 9.41720 69.50134 39.45927
# Shear Modulus (GPa) = 11.44500 24.83908 18.14204
#
# Velocity S-wave (km/s) = 2.58534 3.80871 3.25501
# Velocity P-wave (km/s) = 3.79628 7.74152 6.09683
#
# Compressibility (1/GPa) = 0.10618865
#
# Stress axis : x y z
#
# Youngs Moduli (GPa) = 104.80364 7.43562 88.11907
#
# Poissons Ratio (x) = 0.05947 0.46907
# Poissons Ratio (y) = 0.83821 0.99341
# Poissons Ratio (z) = 0.55788 0.08383
#
# Static dielectric constant tensor:
#      x y z
#    x 3.488450 0.000000 0.000000 
#    y 0.000000 2.478100 0.000000 
#    z 0.000000 0.000000 3.381860 
# 
# 
# High freq. dielectric constant tensor:
#      x y z
#    x 1.671280 0.000000 0.000000 
#    y 0.000000 1.583970 0.000000 
#    z 0.000000 0.000000 1.669160 
# 
# From -- ./inp_files/61642.got.cif
#   From: 2010.06.25/outbox.cif.g09.slc.cpg/sg71_31_cif.got.tgz:61642.got - 2010.06.28 04:59:45.
