data_PCOD8287017
_publ_section_title
;
Structure prediction by ZEFSAII (Michael W. Deem and Ramdas Pophale) SiO2 
 PCOD8287017
Probable space group: I M M M
;
_chemical_formula_sum "Si O2"
_cell_formula_units_Z 104
_cell_length_a 24.363334
_cell_length_b 28.403520
_cell_length_c 9.001736
_cell_angle_alpha 90.000000
_cell_angle_beta 90.000000
_cell_angle_gamma 90.000000
_cell_volume 6229.241321
_symmetry_space_group_name_H-M "I M M M"
_symmetry_group_IT_number 71
_symmetry_cell_setting 'orthorhombic'
loop_
_space_group_symop_operation_xyz
x,y,z
-x,-y,z
x,-y,-z
-x,y,-z
-x,-y,-z
x,y,-z
-x,y,z
x,-y,z
1/2+x,1/2+y,1/2+z
1/2-x,1/2-y,1/2+z
1/2+x,1/2-y,1/2-z
1/2-x,1/2+y,1/2-z
1/2-x,1/2-y,1/2-z
1/2+x,1/2+y,1/2-z
1/2-x,1/2+y,1/2+z
1/2+x,1/2-y,1/2+z
loop_
_atom_site_type_symbol
_atom_site_label
_atom_site_fract_x
_atom_site_fract_y
_atom_site_fract_z
Si Si1 0.563148 0.367048 0.175187
Si Si2 0.934825 0.773148 0.167237
Si Si3 0.436607 0.820964 0.825073
Si Si4 0.735449 0.947765 0.675954
Si Si5 0.143241 0.052738 0.676524
Si Si6 0.438587 0.000000 0.676128
Si Si7 0.623660 0.093260 0.323937
O O1 0.500000 0.376626 0.217775
O O2 0.586642 0.320073 0.251842
O O3 0.598226 0.410897 0.238529
O O4 0.570277 0.360557 0.000000
O O5 0.913864 0.727364 0.254888
O O6 0.000000 0.773742 0.168792
O O7 0.911646 0.771689 0.000000
O O8 0.500000 0.829644 0.780992
O O9 0.400373 0.862654 0.761331
O O10 0.429133 0.817624 0.000000
O O11 0.734422 0.951564 0.500000
O O12 0.795817 0.930754 0.729137
O O13 0.687490 0.911968 0.725352
O O14 0.723601 0.000000 0.740548
O O15 0.140397 0.052030 0.500000
O O16 0.130672 0.000000 0.736736
O O17 0.407776 0.953360 0.731690
O O18 0.500000 0.000000 0.742341
O O19 0.439729 0.000000 0.500000
O O20 0.616805 0.100795 0.500000
#
# Coordination Sequence:
#
# PCOD8287017 Si02
#       7
#    16  16  16  16  16   8  16
#     4   9  16  26  43  69  98 124 148 178 221 267
#     4   9  17  30  48  67  87 115 151 187 222 266
#     4  10  20  32  45  64  91 119 146 181 228 277
#     4   8  13  24  42  64  88 116 155 194 223 253
#     4   8  14  24  41  67  97 125 152 184 218 257
#     4   9  16  24  37  61  89 113 140 180 226 265
#     4  10  17  27  45  66  87 115 152 192 226 262
#
# _framework density 16.695452
#
# number of rings (size 3 to 8) (size 9 to 14) (size 15 to 20)
#    0.000    3.000    0.769    2.308    0.000    3.692 
#    0.000    1.923    0.000    3.692    0.000    4.308 
#    0.000    0.000    0.000    0.000    0.000    0.000 
#
# Total GULP energy -644518.097730 kJ/mol
# GULP energy per Si atom -12394.578802 kJ/mol
# Density = 1.665745 g / cm^3
# Si number density = 16.695452 Si / 1000 Ang^3
#
#
#
# Elastic Constant Matrix: (Units=GPa)
#
#
# Indices 1 2 3 4 5 6 
#
# 1 99.7359 79.1620 29.8476 0.0000 0.0000 0.0000
# 2 79.1620 155.9784 41.9610 0.0000 0.0000 0.0000
# 3 29.8476 41.9610 43.6255 0.0000 0.0000 0.0000
# 4 0.0000 0.0000 0.0000 22.7764 0.0000 0.0000
# 5 0.0000 0.0000 0.0000 0.0000 10.1085 0.0000
# 6 0.0000 0.0000 0.0000 0.0000 0.0000 10.0037
#
#
#
# Elastic Compliance Matrix: (Units=1/GPa)
#
#
# Indices 1 2 3 4 5 6 
#
# 1 0.017453 -0.007616 -0.004615 0.000000 0.000000 0.000000
# 2 -0.007616 0.011973 -0.006305 0.000000 0.000000 0.000000
# 3 -0.004615 -0.006305 0.032145 0.000000 0.000000 0.000000
# 4 0.000000 0.000000 0.000000 0.043905 0.000000 0.000000
# 5 0.000000 0.000000 0.000000 0.000000 0.098927 0.000000
# 6 0.000000 0.000000 0.000000 0.000000 0.000000 0.099963
#
#
# Mechanical properties :
#
#
# Convention : Reuss Voigt Hill
#
# Bulk Modulus (GPa) = 40.82126 66.80900 53.81513
# Shear Modulus (GPa) = 14.30193 18.46900 16.38547
#
# Velocity S-wave (km/s) = 2.93001 3.32961 3.13618
# Velocity P-wave (km/s) = 5.99585 7.40843 6.73926
#
# Compressibility (1/GPa) = 0.02449704
#
# Stress axis : x y z
#
# Youngs Moduli (GPa) = 57.29819 83.52445 31.10939
#
# Poissons Ratio (x) = 0.63611 0.14358
# Poissons Ratio (y) = 0.43638 0.19615
# Poissons Ratio (z) = 0.26445 0.52663
#
# Static dielectric constant tensor:
#      x y z
#    x 3.270990 0.000000 0.000000 
#    y 0.000000 3.285300 0.000000 
#    z 0.000000 0.000000 2.812890 
# 
# 
# High freq. dielectric constant tensor:
#      x y z
#    x 1.626130 0.000000 0.000000 
#    y 0.000000 1.644480 0.000000 
#    z 0.000000 0.000000 1.606840 
# 
# From -- ./inp_files/13597.got.cif
#   From: 2010.06.25/outbox.cif.g09.slc.cpg/sg71_7_cif.got.tgz:13597.got - 2010.06.28 04:59:45.
