data_PCOD8287472
_publ_section_title
;
Structure prediction by ZEFSAII (Michael W. Deem and Ramdas Pophale) SiO2 
 PCOD8287472
Probable space group: I M M M
;
_chemical_formula_sum "Si O2"
_cell_formula_units_Z 128
_cell_length_a 21.335936
_cell_length_b 20.314179
_cell_length_c 17.564345
_cell_angle_alpha 90.000000
_cell_angle_beta 90.000000
_cell_angle_gamma 90.000000
_cell_volume 7612.773943
_symmetry_space_group_name_H-M "I M M M"
_symmetry_group_IT_number 71
_symmetry_cell_setting 'orthorhombic'
loop_
_space_group_symop_operation_xyz
x,y,z
-x,-y,z
x,-y,-z
-x,y,-z
-x,-y,-z
x,y,-z
-x,y,z
x,-y,z
1/2+x,1/2+y,1/2+z
1/2-x,1/2-y,1/2+z
1/2+x,1/2-y,1/2-z
1/2-x,1/2+y,1/2-z
1/2-x,1/2-y,1/2-z
1/2+x,1/2+y,1/2-z
1/2-x,1/2+y,1/2+z
1/2+x,1/2-y,1/2+z
loop_
_atom_site_type_symbol
_atom_site_label
_atom_site_fract_x
_atom_site_fract_y
_atom_site_fract_z
Si Si1 0.652021 0.674659 0.089429
Si Si2 0.782932 0.428929 0.259778
Si Si3 0.353380 0.425848 0.312309
Si Si4 0.069269 0.292201 0.588049
Si Si5 0.190532 0.187280 0.085745
Si Si6 0.681560 0.116296 0.084715
Si Si7 0.226520 0.297970 0.183783
Si Si8 0.070006 0.923088 0.330663
O O1 0.606826 0.731259 0.124451
O O2 0.717905 0.675704 0.131500
O O3 0.616409 0.606982 0.106666
O O4 0.664807 0.683160 0.000000
O O5 0.801722 0.500000 0.221966
O O6 0.708186 0.421257 0.259705
O O7 0.805963 0.434656 0.347632
O O8 0.809157 0.363537 0.216902
O O9 0.361089 0.500000 0.345880
O O10 0.349233 0.373841 0.381030
O O11 0.410091 0.406829 0.256358
O O12 0.060150 0.276087 0.500000
O O13 0.111692 0.356696 0.598544
O O14 0.000000 0.301987 0.625584
O O15 0.265670 0.173818 0.089592
O O16 0.178347 0.254619 0.132927
O O17 0.167301 0.197817 0.000000
O O18 0.685967 0.083531 0.000000
O O19 0.250000 0.250000 0.250000
O O20 0.000000 0.895298 0.342413
O O21 0.072655 0.000000 0.345123
#
# Coordination Sequence:
#
# PCOD8287472 Si02
#       8
#    16  16  16  16  16  16  16  16
#     4  11  20  30  44  63  91 125 162 203 238 271
#     4  10  19  30  46  65  90 122 155 196 240 283
#     4   9  17  31  48  69  94 122 155 191 238 288
#     4   9  16  26  41  62  89 119 150 184 222 266
#     4  10  18  29  47  71  94 119 151 195 243 286
#     4   9  16  28  45  68  93 118 151 188 234 279
#     4  12  18  30  48  68  92 124 157 198 241 290
#     4  10  20  33  47  63  88 125 167 203 232 272
#
# _framework density 16.813845000000001
#
# number of rings (size 3 to 8) (size 9 to 14) (size 15 to 20)
#    0.000    2.000    5.000    0.750    0.000    1.500 
#    0.000    3.125    0.000    1.875    0.000    3.500 
#    0.000    0.000    0.000    0.000    0.000    0.125 
#
# Total GULP energy -793071.946362 kJ/mol
# GULP energy per Si atom -12391.749162 kJ/mol
# Density = 1.677558 g / cm^3
# Si number density = 16.813845 Si / 1000 Ang^3
#
#
#
# Elastic Constant Matrix: (Units=GPa)
#
#
# Indices 1 2 3 4 5 6 
#
# 1 39.4999 7.0611 12.3167 0.0000 0.0000 0.0000
# 2 7.0611 99.4407 44.1465 0.0000 0.0000 0.0000
# 3 12.3167 44.1465 76.1061 0.0000 0.0000 0.0000
# 4 0.0000 0.0000 0.0000 22.0325 0.0000 0.0000
# 5 0.0000 0.0000 0.0000 0.0000 12.8649 0.0000
# 6 0.0000 0.0000 0.0000 0.0000 0.0000 14.8657
#
#
#
# Elastic Compliance Matrix: (Units=1/GPa)
#
#
# Indices 1 2 3 4 5 6 
#
# 1 0.026662 0.000030 -0.004332 0.000000 0.000000 0.000000
# 2 0.000030 0.013544 -0.007861 0.000000 0.000000 0.000000
# 3 -0.004332 -0.007861 0.018401 0.000000 0.000000 0.000000
# 4 0.000000 0.000000 0.000000 0.045388 0.000000 0.000000
# 5 0.000000 0.000000 0.000000 0.000000 0.077731 0.000000
# 6 0.000000 0.000000 0.000000 0.000000 0.000000 0.067269
#
#
# Mechanical properties :
#
#
# Convention : Reuss Voigt Hill
#
# Bulk Modulus (GPa) = 29.17170 38.01058 33.59114
# Shear Modulus (GPa) = 17.55939 20.05411 18.80675
#
# Velocity S-wave (km/s) = 3.23513 3.45732 3.34807
# Velocity P-wave (km/s) = 5.59842 6.21234 5.91335
#
# Compressibility (1/GPa) = 0.03427980
#
# Stress axis : x y z
#
# Youngs Moduli (GPa) = 37.50648 73.83270 54.34558
#
# Poissons Ratio (x) = -0.00222 0.23544
# Poissons Ratio (y) = -0.00113 0.42723
# Poissons Ratio (z) = 0.16249 0.58042
#
# Static dielectric constant tensor:
#      x y z
#    x 3.033410 0.000000 0.000000 
#    y 0.000000 3.223410 0.000000 
#    z 0.000000 0.000000 3.121320 
# 
# 
# High freq. dielectric constant tensor:
#      x y z
#    x 1.605280 0.000000 0.000000 
#    y 0.000000 1.647680 0.000000 
#    z 0.000000 0.000000 1.632940 
# 
# From -- ./inp_files/47728.got.cif
#   From: 2010.06.25/outbox.cif.g09.slc.cpg/sg71_24_cif.got.tgz:47728.got - 2010.06.28 04:59:45.
