data_PCOD8287409
_publ_section_title
;
Structure prediction by ZEFSAII (Michael W. Deem and Ramdas Pophale) SiO2 
 PCOD8287409
Probable space group: I M M M
;
_chemical_formula_sum "Si O2"
_cell_formula_units_Z 56
_cell_length_a 18.344672
_cell_length_b 21.173486
_cell_length_c 8.605731
_cell_angle_alpha 90.000000
_cell_angle_beta 90.000000
_cell_angle_gamma 90.000000
_cell_volume 3342.643678
_symmetry_space_group_name_H-M "I M M M"
_symmetry_group_IT_number 71
_symmetry_cell_setting 'orthorhombic'
loop_
_space_group_symop_operation_xyz
x,y,z
-x,-y,z
x,-y,-z
-x,y,-z
-x,-y,-z
x,y,-z
-x,y,z
x,-y,z
1/2+x,1/2+y,1/2+z
1/2-x,1/2-y,1/2+z
1/2+x,1/2-y,1/2-z
1/2-x,1/2+y,1/2-z
1/2-x,1/2-y,1/2-z
1/2+x,1/2+y,1/2-z
1/2-x,1/2+y,1/2+z
1/2+x,1/2-y,1/2+z
loop_
_atom_site_type_symbol
_atom_site_label
_atom_site_fract_x
_atom_site_fract_y
_atom_site_fract_z
Si Si1 0.584017 0.247385 0.681223
Si Si2 0.660022 0.125989 0.183776
Si Si3 0.081933 0.500000 0.315169
Si Si4 0.710370 0.311245 0.183886
O O1 0.599792 0.238311 0.500000
O O2 0.500000 0.260798 0.716903
O O3 0.608517 0.183827 0.767567
O O4 0.628635 0.308472 0.745562
O O5 0.741344 0.129564 0.258268
O O6 0.623648 0.061843 0.246314
O O7 0.668250 0.126010 0.000000
O O8 0.079262 0.500000 0.500000
O O9 0.000000 0.500000 0.247298
O O10 0.750000 0.250000 0.250000
O O11 0.706242 0.310285 0.000000
#
# Coordination Sequence:
#
# PCOD8287409 Si02
#       4
#    16  16   8  16
#     4  10  19  30  45  67  93 118 147 185 228 270
#     4  10  18  30  47  65  90 122 155 187 219 260
#     4   9  18  30  45  67  92 121 156 187 215 254
#     4  10  18  29  45  64  88 117 150 185 224 269
#
# _framework density 16.753207
#
# number of rings (size 3 to 8) (size 9 to 14) (size 15 to 20)
#    0.000    2.143    0.000    8.571    0.000    3.429 
#    0.000    2.857    0.000    5.143    0.000    1.000 
#    0.000    8.000    0.000    0.000    0.000    0.000 
#
# Total GULP energy -347086.995317 kJ/mol
# GULP energy per Si atom -12395.964118 kJ/mol
# Density = 1.671508 g / cm^3
# Si number density = 16.753207 Si / 1000 Ang^3
#
#
#
# Elastic Constant Matrix: (Units=GPa)
#
#
# Indices 1 2 3 4 5 6 
#
# 1 144.1853 64.7649 42.8689 0.0000 0.0000 0.0000
# 2 64.7649 78.9116 18.4211 0.0000 0.0000 0.0000
# 3 42.8689 18.4211 83.2559 0.0000 0.0000 0.0000
# 4 0.0000 0.0000 0.0000 17.2399 0.0000 0.0000
# 5 0.0000 0.0000 0.0000 0.0000 27.6849 0.0000
# 6 0.0000 0.0000 0.0000 0.0000 0.0000 30.8499
#
#
#
# Elastic Compliance Matrix: (Units=1/GPa)
#
#
# Indices 1 2 3 4 5 6 
#
# 1 0.012303 -0.009088 -0.004324 0.000000 0.000000 0.000000
# 2 -0.009088 0.020076 0.000238 0.000000 0.000000 0.000000
# 3 -0.004324 0.000238 0.014185 0.000000 0.000000 0.000000
# 4 0.000000 0.000000 0.000000 0.058005 0.000000 0.000000
# 5 0.000000 0.000000 0.000000 0.000000 0.036121 0.000000
# 6 0.000000 0.000000 0.000000 0.000000 0.000000 0.032415
#
#
# Mechanical properties :
#
#
# Convention : Reuss Voigt Hill
#
# Bulk Modulus (GPa) = 49.46891 62.05138 55.76015
# Shear Modulus (GPa) = 24.24906 27.17479 25.71193
#
# Velocity S-wave (km/s) = 3.80864 4.03186 3.92183
# Velocity P-wave (km/s) = 6.99522 7.66769 7.33916
#
# Compressibility (1/GPa) = 0.02021472
#
# Stress axis : x y z
#
# Youngs Moduli (GPa) = 81.27782 49.81079 70.49619
#
# Poissons Ratio (x) = 0.45270 0.30484
# Poissons Ratio (y) = 0.73868 -0.01675
# Poissons Ratio (z) = 0.35146 -0.01184
#
# Static dielectric constant tensor:
#      x y z
#    x 3.827080 0.000000 0.000000 
#    y 0.000000 3.107680 0.000000 
#    z 0.000000 0.000000 3.154660 
# 
# 
# High freq. dielectric constant tensor:
#      x y z
#    x 1.655180 0.000000 0.000000 
#    y 0.000000 1.601420 0.000000 
#    z 0.000000 0.000000 1.654920 
# 
# From -- ./inp_files/7398.got.cif
#   From: 2010.06.25/outbox.cif.g09.slc.cpg/sg71_4_cif.got.tgz:7398.got - 2010.06.28 04:59:45.
