data_PCOD8287608
_publ_section_title
;
Structure prediction by ZEFSAII (Michael W. Deem and Ramdas Pophale) SiO2 
 PCOD8287608
Probable space group: I M M M
;
_chemical_formula_sum "Si O2"
_cell_formula_units_Z 104
_cell_length_a 23.368636
_cell_length_b 17.239215
_cell_length_c 14.720887
_cell_angle_alpha 90.000000
_cell_angle_beta 90.000000
_cell_angle_gamma 90.000000
_cell_volume 5930.411495
_symmetry_space_group_name_H-M "I M M M"
_symmetry_group_IT_number 71
_symmetry_cell_setting 'orthorhombic'
loop_
_space_group_symop_operation_xyz
x,y,z
-x,-y,z
x,-y,-z
-x,y,-z
-x,-y,-z
x,y,-z
-x,y,z
x,-y,z
1/2+x,1/2+y,1/2+z
1/2-x,1/2-y,1/2+z
1/2+x,1/2-y,1/2-z
1/2-x,1/2+y,1/2-z
1/2-x,1/2-y,1/2-z
1/2+x,1/2+y,1/2-z
1/2-x,1/2+y,1/2+z
1/2+x,1/2-y,1/2+z
loop_
_atom_site_type_symbol
_atom_site_label
_atom_site_fract_x
_atom_site_fract_y
_atom_site_fract_z
Si Si1 0.067967 0.085197 0.500000
Si Si2 0.821574 0.145343 0.100327
Si Si3 0.274511 0.089314 0.225133
Si Si4 0.340982 0.201055 0.105021
Si Si5 0.434888 0.309504 0.839009
Si Si6 0.436424 0.410748 0.661765
Si Si7 0.269919 0.803969 0.397596
O O1 0.090175 0.131017 0.412876
O O2 0.000000 0.077677 0.500000
O O3 0.096127 0.000000 0.500000
O O4 0.787621 0.098642 0.177848
O O5 0.886817 0.115044 0.092983
O O6 0.817943 0.237558 0.120739
O O7 0.793843 0.130989 0.000000
O O8 0.322284 0.123642 0.157637
O O9 0.276907 0.128850 0.323954
O O10 0.288294 0.000000 0.240988
O O11 0.397550 0.231804 0.155958
O O12 0.291758 0.265047 0.115116
O O13 0.353974 0.181484 0.000000
O O14 0.500000 0.285820 0.860464
O O15 0.429365 0.352910 0.744880
O O16 0.500000 0.400655 0.618053
O O17 0.428468 0.500000 0.692822
O O18 0.276380 0.838061 0.500000
#
# Coordination Sequence:
#
# PCOD8287608 Si02
#       7
#     8  16  16  16  16  16  16
#     4   9  16  26  42  66  95 127 165 201 231 274
#     4  10  20  35  54  72  95 133 172 202 240 295
#     4  11  21  33  53  76  98 126 162 209 254 295
#     4  10  19  32  50  72 100 131 168 205 242 288
#     4  10  18  30  48  69  97 135 172 203 239 289
#     4  10  20  31  45  69 103 137 166 202 244 285
#     4   9  19  35  54  73  97 128 160 202 251 298
#
# _framework density 17.536726000000002
#
# number of rings (size 3 to 8) (size 9 to 14) (size 15 to 20)
#    0.000    2.077    0.769    6.000    0.000    4.615 
#    0.000    1.538    0.000    0.462    0.000    1.077 
#    0.000    0.000    0.000   13.231    0.000    0.000 
#
# Total GULP energy -644632.831048 kJ/mol
# GULP energy per Si atom -12396.785212 kJ/mol
# Density = 1.749681 g / cm^3
# Si number density = 17.536726 Si / 1000 Ang^3
#
#
#
# Elastic Constant Matrix: (Units=GPa)
#
#
# Indices 1 2 3 4 5 6 
#
# 1 88.1987 47.5621 26.8478 0.0000 0.0000 0.0000
# 2 47.5621 113.1466 53.9024 0.0000 0.0000 0.0000
# 3 26.8478 53.9024 91.8163 0.0000 0.0000 0.0000
# 4 0.0000 0.0000 0.0000 27.3875 0.0000 0.0000
# 5 0.0000 0.0000 0.0000 0.0000 18.1293 0.0000
# 6 0.0000 0.0000 0.0000 0.0000 0.0000 20.9968
#
#
#
# Elastic Compliance Matrix: (Units=1/GPa)
#
#
# Indices 1 2 3 4 5 6 
#
# 1 0.014719 -0.005743 -0.000932 0.000000 0.000000 0.000000
# 2 -0.005743 0.014510 -0.006839 0.000000 0.000000 0.000000
# 3 -0.000932 -0.006839 0.015179 0.000000 0.000000 0.000000
# 4 0.000000 0.000000 0.000000 0.036513 0.000000 0.000000
# 5 0.000000 0.000000 0.000000 0.000000 0.055159 0.000000
# 6 0.000000 0.000000 0.000000 0.000000 0.000000 0.047626
#
#
# Mechanical properties :
#
#
# Convention : Reuss Voigt Hill
#
# Bulk Modulus (GPa) = 57.54078 61.08736 59.31407
# Shear Modulus (GPa) = 23.09155 24.29266 23.69211
#
# Velocity S-wave (km/s) = 3.63265 3.72593 3.67958
# Velocity P-wave (km/s) = 7.10476 7.30887 7.20754
#
# Compressibility (1/GPa) = 0.01737898
#
# Stress axis : x y z
#
# Youngs Moduli (GPa) = 67.94011 68.91593 65.88011
#
# Poissons Ratio (x) = 0.39579 0.06142
# Poissons Ratio (y) = 0.39018 0.45057
# Poissons Ratio (z) = 0.06334 0.47134
#
# Static dielectric constant tensor:
#      x y z
#    x 3.274260 0.000000 0.000000 
#    y 0.000000 3.105060 0.000000 
#    z 0.000000 0.000000 3.349290 
# 
# 
# High freq. dielectric constant tensor:
#      x y z
#    x 1.661240 0.000000 0.000000 
#    y 0.000000 1.652700 0.000000 
#    z 0.000000 0.000000 1.688950 
# 
# From -- ./inp_files/39479.got.cif
#   From: 2010.06.25/outbox.cif.g09.slc.cpg/sg71_20_cif.got.tgz:39479.got - 2010.06.28 04:59:45.
