data_PCOD8287011
_publ_section_title
;
Structure prediction by ZEFSAII (Michael W. Deem and Ramdas Pophale) SiO2 
 PCOD8287011
Probable space group: I M M M
;
_chemical_formula_sum "Si O2"
_cell_formula_units_Z 128
_cell_length_a 17.566887
_cell_length_b 22.850916
_cell_length_c 22.011507
_cell_angle_alpha 90.000000
_cell_angle_beta 90.000000
_cell_angle_gamma 90.000000
_cell_volume 8835.847237
_symmetry_space_group_name_H-M "I M M M"
_symmetry_group_IT_number 71
_symmetry_cell_setting 'orthorhombic'
loop_
_space_group_symop_operation_xyz
x,y,z
-x,-y,z
x,-y,-z
-x,y,-z
-x,-y,-z
x,y,-z
-x,y,z
x,-y,z
1/2+x,1/2+y,1/2+z
1/2-x,1/2-y,1/2+z
1/2+x,1/2-y,1/2-z
1/2-x,1/2+y,1/2-z
1/2-x,1/2-y,1/2-z
1/2+x,1/2+y,1/2-z
1/2-x,1/2+y,1/2+z
1/2+x,1/2-y,1/2+z
loop_
_atom_site_type_symbol
_atom_site_label
_atom_site_fract_x
_atom_site_fract_y
_atom_site_fract_z
Si Si1 0.587378 0.285604 0.241451
Si Si2 0.086728 0.325832 0.658916
Si Si3 0.698701 0.766882 0.928243
Si Si4 0.202904 0.834173 0.344572
Si Si5 0.164612 0.743960 0.143985
Si Si6 0.087138 0.433801 0.739311
Si Si7 0.586581 0.852314 0.569306
Si Si8 0.688571 0.932715 0.642680
O O1 0.500000 0.305430 0.242601
O O2 0.598525 0.221799 0.212017
O O3 0.634082 0.333792 0.203310
O O4 0.620038 0.285552 0.309691
O O5 0.139904 0.312646 0.601393
O O6 0.108914 0.389304 0.685470
O O7 0.000000 0.324983 0.635660
O O8 0.678019 0.699970 0.906904
O O9 0.784426 0.781723 0.904017
O O10 0.693556 0.772378 0.000000
O O11 0.277169 0.798845 0.319007
O O12 0.228945 0.900852 0.355586
O O13 0.102972 0.705273 0.108553
O O14 0.096548 0.500000 0.714625
O O15 0.142468 0.422687 0.795454
O O16 0.000000 0.422275 0.760672
O O17 0.604285 0.836361 0.500000
O O18 0.500000 0.871711 0.579236
O O19 0.639442 0.906583 0.587724
O O20 0.704880 0.000000 0.629182
#
# Coordination Sequence:
#
# PCOD8287011 Si02
#       8
#    16  16  16  16  16  16  16  16
#     4  10  17  27  43  67  88 108 139 180 224 270
#     4   9  17  27  44  66  88 113 143 178 218 260
#     4   9  18  29  43  61  85 117 148 180 214 254
#     4   8  18  28  44  60  88 109 143 179 225 260
#     4   9  17  26  43  60  85 114 142 172 216 258
#     4   9  17  28  42  63  90 116 142 173 211 255
#     4  10  19  29  40  57  87 124 156 182 207 242
#     4  10  19  29  44  60  82 115 151 186 217 251
#
# _framework density 14.486444000000001
#
# number of rings (size 3 to 8) (size 9 to 14) (size 15 to 20)
#    0.750    2.000    0.000    3.000    1.750    2.250 
#    0.000    0.625    0.000    0.750    0.000    1.750 
#    0.000    0.000    0.000    9.625    0.000    3.750 
#
# Total GULP energy -793163.756525 kJ/mol
# GULP energy per Si atom -12393.183696 kJ/mol
# Density = 1.445347 g / cm^3
# Si number density = 14.486444 Si / 1000 Ang^3
#
#
#
# Elastic Constant Matrix: (Units=GPa)
#
#
# Indices 1 2 3 4 5 6 
#
# 1 70.2391 32.5754 42.5663 0.0000 0.0000 0.0000
# 2 32.5754 45.3619 26.8213 0.0000 0.0000 0.0000
# 3 42.5663 26.8213 90.6762 0.0000 0.0000 0.0000
# 4 0.0000 0.0000 0.0000 11.3221 0.0000 0.0000
# 5 0.0000 0.0000 0.0000 0.0000 21.1439 0.0000
# 6 0.0000 0.0000 0.0000 0.0000 0.0000 19.7717
#
#
#
# Elastic Compliance Matrix: (Units=1/GPa)
#
#
# Indices 1 2 3 4 5 6 
#
# 1 0.025261 -0.013488 -0.007869 0.000000 0.000000 0.000000
# 2 -0.013488 0.033919 -0.003701 0.000000 0.000000 0.000000
# 3 -0.007869 -0.003701 0.015817 0.000000 0.000000 0.000000
# 4 0.000000 0.000000 0.000000 0.088323 0.000000 0.000000
# 5 0.000000 0.000000 0.000000 0.000000 0.047295 0.000000
# 6 0.000000 0.000000 0.000000 0.000000 0.000000 0.050577
#
#
# Mechanical properties :
#
#
# Convention : Reuss Voigt Hill
#
# Bulk Modulus (GPa) = 40.19088 45.57812 42.88450
# Shear Modulus (GPa) = 15.64442 17.40183 16.52313
#
# Velocity S-wave (km/s) = 3.28980 3.46966 3.38093
# Velocity P-wave (km/s) = 6.49880 6.89799 6.70137
#
# Compressibility (1/GPa) = 0.02488127
#
# Stress axis : x y z
#
# Youngs Moduli (GPa) = 39.58653 29.48157 63.22338
#
# Poissons Ratio (x) = 0.39765 0.49749
# Poissons Ratio (y) = 0.53394 0.23402
# Poissons Ratio (z) = 0.31150 0.10912
#
# Static dielectric constant tensor:
#      x y z
#    x 2.858020 0.000000 0.000000 
#    y 0.000000 2.644660 0.000000 
#    z 0.000000 0.000000 2.623260 
# 
# 
# High freq. dielectric constant tensor:
#      x y z
#    x 1.551860 0.000000 0.000000 
#    y 0.000000 1.518610 0.000000 
#    z 0.000000 0.000000 1.540110 
# 
# From -- ./inp_files/54510.got.cif
#   From: 2010.06.25/outbox.cif.g09.slc.cpg/sg71_28_cif.got.tgz:54510.got - 2010.06.28 04:59:45.
