data_PCOD8287429
_publ_section_title
;
Structure prediction by ZEFSAII (Michael W. Deem and Ramdas Pophale) SiO2 
 PCOD8287429
Probable space group: I M M M
;
_chemical_formula_sum "Si O2"
_cell_formula_units_Z 120
_cell_length_a 22.036075
_cell_length_b 18.091671
_cell_length_c 18.169351
_cell_angle_alpha 90.000000
_cell_angle_beta 90.000000
_cell_angle_gamma 90.000000
_cell_volume 7243.564607
_symmetry_space_group_name_H-M "I M M M"
_symmetry_group_IT_number 71
_symmetry_cell_setting 'orthorhombic'
loop_
_space_group_symop_operation_xyz
x,y,z
-x,-y,z
x,-y,-z
-x,y,-z
-x,-y,-z
x,y,-z
-x,y,z
x,-y,z
1/2+x,1/2+y,1/2+z
1/2-x,1/2-y,1/2+z
1/2+x,1/2-y,1/2-z
1/2-x,1/2+y,1/2-z
1/2-x,1/2-y,1/2-z
1/2+x,1/2+y,1/2-z
1/2-x,1/2+y,1/2+z
1/2+x,1/2-y,1/2+z
loop_
_atom_site_type_symbol
_atom_site_label
_atom_site_fract_x
_atom_site_fract_y
_atom_site_fract_z
Si Si1 0.693960 0.787088 0.918707
Si Si2 0.879873 0.832932 0.851591
Si Si3 0.757957 0.414316 0.817240
Si Si4 0.500000 0.412511 0.587566
Si Si5 0.744475 0.584051 0.647279
Si Si6 0.137700 0.176711 0.318059
Si Si7 0.570449 0.419799 0.079644
Si Si8 0.681796 0.198526 0.582868
O O1 0.707762 0.872835 0.903521
O O2 0.649966 0.756204 0.855253
O O3 0.756816 0.744226 0.913368
O O4 0.664894 0.778826 0.000000
O O5 0.823890 0.887752 0.865793
O O6 0.880833 0.812529 0.765726
O O7 0.872161 0.754455 0.893327
O O8 0.940833 0.873793 0.877561
O O9 0.758606 0.500000 0.841242
O O10 0.767933 0.405283 0.730378
O O11 0.693063 0.378751 0.834973
O O12 0.811243 0.371476 0.862001
O O13 0.500000 0.500000 0.607138
O O14 0.500000 0.400730 0.500000
O O15 0.745762 0.500000 0.621902
O O16 0.081067 0.141138 0.358889
O O17 0.500000 0.427034 0.069057
O O18 0.596758 0.500000 0.104040
O O19 0.599437 0.397556 0.000000
O O20 0.668689 0.169942 0.500000
#
# Coordination Sequence:
#
# PCOD8287429 Si02
#       8
#    16  16  16   8  16  16  16  16
#     4   9  17  28  44  67  92 121 156 190 227 277
#     4  10  20  33  49  67  89 124 164 198 236 275
#     4   9  17  28  44  69  96 121 151 188 231 279
#     4  11  24  38  50  68  94 122 160 207 240 266
#     4   9  17  30  46  66  95 126 155 190 234 280
#     4  10  18  29  46  66  92 124 157 192 229 271
#     4   9  18  30  42  59  87 123 157 189 227 268
#     4   9  17  30  46  64  90 122 154 190 236 286
#
# _framework density 16.56643
#
# number of rings (size 3 to 8) (size 9 to 14) (size 15 to 20)
#    0.000    2.600    0.000    2.800    0.933    6.400 
#    0.000    0.000    0.000    0.000    0.000    0.467 
#    0.000    2.133    0.000    2.800    0.000    0.000 
#
# Total GULP energy -743588.553474 kJ/mol
# GULP energy per Si atom -12393.142558 kJ/mol
# Density = 1.652872 g / cm^3
# Si number density = 16.566430 Si / 1000 Ang^3
#
#
#
# Elastic Constant Matrix: (Units=GPa)
#
#
# Indices 1 2 3 4 5 6 
#
# 1 50.3404 36.6915 37.8196 0.0000 0.0000 0.0000
# 2 36.6915 101.7312 45.7850 0.0000 0.0000 0.0000
# 3 37.8196 45.7850 90.9365 0.0000 0.0000 0.0000
# 4 0.0000 0.0000 0.0000 29.0940 0.0000 0.0000
# 5 0.0000 0.0000 0.0000 0.0000 23.3241 0.0000
# 6 0.0000 0.0000 0.0000 0.0000 0.0000 25.9104
#
#
#
# Elastic Compliance Matrix: (Units=1/GPa)
#
#
# Indices 1 2 3 4 5 6 
#
# 1 0.032624 -0.007318 -0.009883 0.000000 0.000000 0.000000
# 2 -0.007318 0.014352 -0.004182 0.000000 0.000000 0.000000
# 3 -0.009883 -0.004182 0.017213 0.000000 0.000000 0.000000
# 4 0.000000 0.000000 0.000000 0.034371 0.000000 0.000000
# 5 0.000000 0.000000 0.000000 0.000000 0.042874 0.000000
# 6 0.000000 0.000000 0.000000 0.000000 0.000000 0.038594
#
#
# Mechanical properties :
#
#
# Convention : Reuss Voigt Hill
#
# Bulk Modulus (GPa) = 46.68411 53.73337 50.20874
# Shear Modulus (GPa) = 21.74517 23.84652 22.79584
#
# Velocity S-wave (km/s) = 3.62692 3.79812 3.71351
# Velocity P-wave (km/s) = 6.76613 7.19304 6.98285
#
# Compressibility (1/GPa) = 0.02142057
#
# Stress axis : x y z
#
# Youngs Moduli (GPa) = 30.65220 69.67877 58.09679
#
# Poissons Ratio (x) = 0.50994 0.57419
# Poissons Ratio (y) = 0.22433 0.24297
# Poissons Ratio (z) = 0.30294 0.29140
#
# Static dielectric constant tensor:
#      x y z
#    x 2.755830 0.000000 0.000000 
#    y 0.000000 3.195350 0.000000 
#    z 0.000000 0.000000 3.270680 
# 
# 
# High freq. dielectric constant tensor:
#      x y z
#    x 1.589280 0.000000 0.000000 
#    y 0.000000 1.632610 0.000000 
#    z 0.000000 0.000000 1.653680 
# 
# From -- ./inp_files/47570.got.cif
#   From: 2010.06.25/outbox.cif.g09.slc.cpg/sg71_24_cif.got.tgz:47570.got - 2010.06.28 04:59:45.
