data_PCOD8287154
_publ_section_title
;
Structure prediction by ZEFSAII (Michael W. Deem and Ramdas Pophale) SiO2 
 PCOD8287154
Probable space group: I M M M
;
_chemical_formula_sum "Si O2"
_cell_formula_units_Z 120
_cell_length_a 19.167248
_cell_length_b 25.727161
_cell_length_c 15.206553
_cell_angle_alpha 90.000000
_cell_angle_beta 90.000000
_cell_angle_gamma 90.000000
_cell_volume 7498.638311
_symmetry_space_group_name_H-M "I M M M"
_symmetry_group_IT_number 71
_symmetry_cell_setting 'orthorhombic'
loop_
_space_group_symop_operation_xyz
x,y,z
-x,-y,z
x,-y,-z
-x,y,-z
-x,-y,-z
x,y,-z
-x,y,z
x,-y,z
1/2+x,1/2+y,1/2+z
1/2-x,1/2-y,1/2+z
1/2+x,1/2-y,1/2-z
1/2-x,1/2+y,1/2-z
1/2-x,1/2-y,1/2-z
1/2+x,1/2+y,1/2-z
1/2-x,1/2+y,1/2+z
1/2+x,1/2-y,1/2+z
loop_
_atom_site_type_symbol
_atom_site_label
_atom_site_fract_x
_atom_site_fract_y
_atom_site_fract_z
Si Si1 0.075106 0.725077 0.176288
Si Si2 0.715437 0.756760 0.600629
Si Si3 0.333862 0.094902 0.902022
Si Si4 0.078411 0.306444 0.632819
Si Si5 0.143822 0.197511 0.400147
Si Si6 0.577892 0.343666 0.735125
Si Si7 0.307965 0.360108 0.394518
Si Si8 0.920982 0.500000 0.394469
O O1 0.141138 0.714194 0.113739
O O2 0.083759 0.689658 0.261928
O O3 0.074133 0.784475 0.205267
O O4 0.000000 0.712510 0.129917
O O5 0.734828 0.753995 0.500000
O O6 0.779640 0.789153 0.642049
O O7 0.713034 0.698069 0.636371
O O8 0.372090 0.149984 0.906671
O O9 0.255547 0.102445 0.864049
O O10 0.380186 0.050444 0.854771
O O11 0.322912 0.074432 0.000000
O O12 0.099640 0.250381 0.596499
O O13 0.000000 0.317659 0.600931
O O14 0.146757 0.174558 0.500000
O O15 0.109723 0.155053 0.334303
O O16 0.500000 0.368056 0.736654
O O17 0.624179 0.375755 0.663545
O O18 0.323855 0.362716 0.500000
O O19 0.924610 0.500000 0.500000
O O20 0.000000 0.500000 0.357074
#
# Coordination Sequence:
#
# PCOD8287154 Si02
#       8
#    16  16  16  16  16  16  16   8
#     4   8  16  26  35  52  75 102 137 172 207 239
#     4   9  16  25  37  53  74 105 142 174 205 234
#     4  10  18  28  41  58  77 102 134 166 203 243
#     4  10  18  25  37  55  75 103 138 174 204 231
#     4  10  18  26  37  56  80 110 145 174 200 236
#     4   9  18  28  39  56  78 107 137 169 210 241
#     4   9  17  28  42  59  76 101 141 179 204 237
#     4   9  18  30  42  58  83 109 130 159 203 253
#
# _framework density 16.002904999999998
#
# number of rings (size 3 to 8) (size 9 to 14) (size 15 to 20)
#    0.000    2.733    1.333    2.000    1.867    4.533 
#    0.000    2.667    0.000    0.000    0.000    0.467 
#    0.000    2.667    0.000    2.400    0.000   12.267 
#
# Total GULP energy -743325.761792 kJ/mol
# GULP energy per Si atom -12388.762697 kJ/mol
# Density = 1.596648 g / cm^3
# Si number density = 16.002905 Si / 1000 Ang^3
#
#
#
# Elastic Constant Matrix: (Units=GPa)
#
#
# Indices 1 2 3 4 5 6 
#
# 1 152.1904 25.0667 39.3873 0.0000 0.0000 0.0000
# 2 25.0667 27.1324 14.4230 0.0000 0.0000 0.0000
# 3 39.3873 14.4230 43.3178 0.0000 0.0000 0.0000
# 4 0.0000 0.0000 0.0000 6.1031 0.0000 0.0000
# 5 0.0000 0.0000 0.0000 0.0000 22.6464 0.0000
# 6 0.0000 0.0000 0.0000 0.0000 0.0000 16.3881
#
#
#
# Elastic Compliance Matrix: (Units=1/GPa)
#
#
# Indices 1 2 3 4 5 6 
#
# 1 0.009093 -0.004867 -0.006647 0.000000 0.000000 0.000000
# 2 -0.004867 0.047387 -0.011353 0.000000 0.000000 0.000000
# 3 -0.006647 -0.011353 0.032909 0.000000 0.000000 0.000000
# 4 0.000000 0.000000 0.000000 0.163850 0.000000 0.000000
# 5 0.000000 0.000000 0.000000 0.000000 0.044157 0.000000
# 6 0.000000 0.000000 0.000000 0.000000 0.000000 0.061020
#
#
# Mechanical properties :
#
#
# Convention : Reuss Voigt Hill
#
# Bulk Modulus (GPa) = 22.90647 42.26608 32.58628
# Shear Modulus (GPa) = 11.94166 18.61176 15.27671
#
# Velocity S-wave (km/s) = 2.73466 3.41401 3.09305
# Velocity P-wave (km/s) = 4.93115 6.48147 5.75872
#
# Compressibility (1/GPa) = 0.04365579
#
# Stress axis : x y z
#
# Youngs Moduli (GPa) = 109.97928 21.10262 30.38671
#
# Poissons Ratio (x) = 0.10270 0.20198
# Poissons Ratio (y) = 0.53526 0.34497
# Poissons Ratio (z) = 0.73105 0.23957
#
# Static dielectric constant tensor:
#      x y z
#    x 3.586510 0.000000 0.000000 
#    y 0.000000 2.517560 0.000000 
#    z 0.000000 0.000000 2.962700 
# 
# 
# High freq. dielectric constant tensor:
#      x y z
#    x 1.642240 0.000000 0.000000 
#    y 0.000000 1.532520 0.000000 
#    z 0.000000 0.000000 1.592000 
# 
# From -- ./inp_files/38547.got.cif
#   From: 2010.06.25/outbox.cif.g09.slc.cpg/sg71_20_cif.got.tgz:38547.got - 2010.06.28 04:59:45.
