data_PCOD8287593
_publ_section_title
;
Structure prediction by ZEFSAII (Michael W. Deem and Ramdas Pophale) SiO2 
 PCOD8287593
Probable space group: I M M M
;
_chemical_formula_sum "Si O2"
_cell_formula_units_Z 96
_cell_length_a 9.015574
_cell_length_b 27.437610
_cell_length_c 22.705806
_cell_angle_alpha 90.000000
_cell_angle_beta 90.000000
_cell_angle_gamma 90.000000
_cell_volume 5616.639942
_symmetry_space_group_name_H-M "I M M M"
_symmetry_group_IT_number 71
_symmetry_cell_setting 'orthorhombic'
loop_
_space_group_symop_operation_xyz
x,y,z
-x,-y,z
x,-y,-z
-x,y,-z
-x,-y,-z
x,y,-z
-x,y,z
x,-y,z
1/2+x,1/2+y,1/2+z
1/2-x,1/2-y,1/2+z
1/2+x,1/2-y,1/2-z
1/2-x,1/2+y,1/2-z
1/2-x,1/2-y,1/2-z
1/2+x,1/2+y,1/2-z
1/2-x,1/2+y,1/2+z
1/2+x,1/2-y,1/2+z
loop_
_atom_site_type_symbol
_atom_site_label
_atom_site_fract_x
_atom_site_fract_y
_atom_site_fract_z
Si Si1 0.667278 0.858231 0.700277
Si Si2 0.332830 0.805991 0.181300
Si Si3 0.670599 0.291511 0.119414
Si Si4 0.823296 0.255272 0.500000
Si Si5 0.823138 0.367636 0.500000
Si Si6 0.324491 0.609762 0.381672
Si Si7 0.673501 0.055435 0.219815
O O1 0.500000 0.865341 0.679336
O O2 0.682166 0.816165 0.749556
O O3 0.755838 0.841486 0.642293
O O4 0.728093 0.909305 0.727056
O O5 0.500000 0.819497 0.159313
O O6 0.301616 0.749556 0.168905
O O7 0.215362 0.837756 0.145327
O O8 0.500000 0.303612 0.110248
O O9 0.738821 0.272888 0.057481
O O10 0.768912 0.311226 0.500000
O O11 0.000000 0.255798 0.500000
O O12 0.755666 0.395674 0.444190
O O13 0.000000 0.371982 0.500000
O O14 0.500000 0.604836 0.389000
O O15 0.264490 0.567041 0.339212
O O16 0.500000 0.065793 0.207202
O O17 0.702831 0.000000 0.238983
#
# Coordination Sequence:
#
# PCOD8287593 Si02
#       7
#    16  16  16   8   8  16  16
#     4   9  18  30  47  74 100 122 156 204 253 298
#     4   9  17  31  48  66  95 137 174 197 232 294
#     4  10  18  30  47  69  97 133 172 202 237 286
#     4   9  18  31  49  68  93 136 181 208 225 271
#     4  11  19  35  54  66  95 142 184 208 233 289
#     4  11  21  31  48  77 105 127 163 214 259 289
#     4   9  19  38  59  74  93 127 167 202 248 313
#
# _framework density 17.092068999999999
#
# number of rings (size 3 to 8) (size 9 to 14) (size 15 to 20)
#    0.000    2.333    1.667    3.250    0.000    3.667 
#    0.000    0.833    0.000    2.500    0.000    0.583 
#    0.000    4.667    0.000    0.000    0.000    0.000 
#
# Total GULP energy -595059.061021 kJ/mol
# GULP energy per Si atom -12397.063771 kJ/mol
# Density = 1.705317 g / cm^3
# Si number density = 17.092069 Si / 1000 Ang^3
#
#
#
# Elastic Constant Matrix: (Units=GPa)
#
#
# Indices 1 2 3 4 5 6 
#
# 1 64.2037 30.0865 24.5358 0.0000 0.0000 0.0000
# 2 30.0865 97.1117 48.7985 0.0000 0.0000 0.0000
# 3 24.5358 48.7985 65.8511 0.0002 0.0000 0.0000
# 4 0.0000 0.0000 0.0002 18.2246 0.0000 0.0000
# 5 0.0000 0.0000 0.0000 0.0000 26.9025 0.0000
# 6 0.0000 0.0000 0.0000 0.0000 0.0000 21.2811
#
#
#
# Elastic Compliance Matrix: (Units=1/GPa)
#
#
# Indices 1 2 3 4 5 6 
#
# 1 0.018962 -0.003704 -0.004321 0.000000 0.000000 0.000000
# 2 -0.003704 0.017130 -0.011314 0.000000 0.000000 0.000000
# 3 -0.004321 -0.011314 0.025180 0.000000 0.000000 0.000000
# 4 0.000000 0.000000 0.000000 0.054871 0.000000 0.000000
# 5 0.000000 0.000000 0.000000 0.000000 0.037171 0.000000
# 6 0.000000 0.000000 0.000000 0.000000 0.000000 0.046990
#
#
# Mechanical properties :
#
#
# Convention : Reuss Voigt Hill
#
# Bulk Modulus (GPa) = 44.25706 48.22312 46.24009
# Shear Modulus (GPa) = 20.28286 21.53136 20.90711
#
# Velocity S-wave (km/s) = 3.44856 3.55312 3.50123
# Velocity P-wave (km/s) = 6.46578 6.71624 6.59220
#
# Compressibility (1/GPa) = 0.02259526
#
# Stress axis : x y z
#
# Youngs Moduli (GPa) = 52.73665 58.37620 39.71396
#
# Poissons Ratio (x) = 0.21620 0.17159
# Poissons Ratio (y) = 0.19531 0.44934
# Poissons Ratio (z) = 0.22786 0.66049
#
# Static dielectric constant tensor:
#      x y z
#    x 3.043430 0.000000 0.000000 
#    y 0.000000 3.008410 0.000000 
#    z 0.000000 0.000000 3.173700 
# 
# 
# High freq. dielectric constant tensor:
#      x y z
#    x 1.647390 0.000000 0.000000 
#    y 0.000000 1.633890 0.000000 
#    z 0.000000 0.000000 1.646760 
# 
# From -- ./inp_files/57795.got.cif
#   From: 2010.06.25/outbox.cif.g09.slc.cpg/sg71_29_cif.got.tgz:57795.got - 2010.06.28 04:59:45.
