data_PCOD8287916
_publ_section_title
;
Structure prediction by ZEFSAII (Michael W. Deem and Ramdas Pophale) SiO2 
 PCOD8287916
Probable space group: I M M M
;
_chemical_formula_sum "Si O2"
_cell_formula_units_Z 104
_cell_length_a 21.577986
_cell_length_b 16.293977
_cell_length_c 15.172104
_cell_angle_alpha 90.000000
_cell_angle_beta 90.000000
_cell_angle_gamma 90.000000
_cell_volume 5334.378367
_symmetry_space_group_name_H-M "I M M M"
_symmetry_group_IT_number 71
_symmetry_cell_setting 'orthorhombic'
loop_
_space_group_symop_operation_xyz
x,y,z
-x,-y,z
x,-y,-z
-x,y,-z
-x,-y,-z
x,y,-z
-x,y,z
x,-y,z
1/2+x,1/2+y,1/2+z
1/2-x,1/2-y,1/2+z
1/2+x,1/2-y,1/2-z
1/2-x,1/2+y,1/2-z
1/2-x,1/2-y,1/2-z
1/2+x,1/2+y,1/2-z
1/2-x,1/2+y,1/2+z
1/2+x,1/2-y,1/2+z
loop_
_atom_site_type_symbol
_atom_site_label
_atom_site_fract_x
_atom_site_fract_y
_atom_site_fract_z
Si Si1 0.660880 0.407865 0.599532
Si Si2 0.067851 0.595068 0.000000
Si Si3 0.928143 0.408398 0.665126
Si Si4 0.627495 0.162213 0.329765
Si Si5 0.118509 0.243209 0.400816
Si Si6 0.260510 0.747133 0.398515
Si Si7 0.929349 0.826970 0.771998
O O1 0.633634 0.393943 0.500000
O O2 0.686675 0.500000 0.609175
O O3 0.717806 0.346448 0.615664
O O4 0.608980 0.395064 0.674503
O O5 0.108731 0.617962 0.082386
O O6 0.056110 0.500000 0.000000
O O7 0.000000 0.638578 0.000000
O O8 0.917459 0.500000 0.624203
O O9 0.883004 0.400184 0.749475
O O10 0.911065 0.334916 0.598296
O O11 0.000000 0.398833 0.693600
O O12 0.698975 0.191857 0.337249
O O13 0.582471 0.239518 0.316675
O O14 0.111850 0.208233 0.500000
O O15 0.189540 0.248227 0.369168
O O16 0.086593 0.180543 0.332495
O O17 0.268645 0.773614 0.500000
O O18 0.000000 0.853353 0.780939
#
# Coordination Sequence:
#
# PCOD8287916 Si02
#       7
#    16   8  16  16  16  16  16
#     4   9  19  35  55  82 115 143 168 210 269 331
#     4  11  20  28  46  76 107 145 182 205 243 309
#     4  10  21  35  50  76 113 142 173 222 273 324
#     4  10  18  32  50  72 106 145 175 216 260 312
#     4  10  21  37  57  77 101 141 188 231 274 314
#     4   9  18  34  54  78 105 140 183 230 266 311
#     4  10  21  34  53  81 107 138 180 225 268 320
#
# _framework density 19.496179999999999
#
# number of rings (size 3 to 8) (size 9 to 14) (size 15 to 20)
#    0.000    2.231    0.769    3.231    1.077    9.538 
#    0.000    3.077    0.000    1.385    0.000    1.077 
#    0.000    0.000    0.000    0.000    0.000    0.000 
#
# Total GULP energy -644546.038415 kJ/mol
# GULP energy per Si atom -12395.116123 kJ/mol
# Density = 1.945181 g / cm^3
# Si number density = 19.496180 Si / 1000 Ang^3
#
#
#
# Elastic Constant Matrix: (Units=GPa)
#
#
# Indices 1 2 3 4 5 6 
#
# 1 79.2411 14.0428 1.2822 0.0000 0.0000 0.0000
# 2 14.0428 48.5693 7.6337 0.0000 0.0000 0.0000
# 3 1.2822 7.6337 74.8140 0.0000 0.0000 0.0000
# 4 0.0000 0.0000 0.0000 14.5197 0.0000 0.0000
# 5 0.0000 0.0000 0.0000 0.0000 28.1802 0.0000
# 6 0.0000 0.0000 0.0000 0.0000 0.0000 20.0073
#
#
#
# Elastic Compliance Matrix: (Units=1/GPa)
#
#
# Indices 1 2 3 4 5 6 
#
# 1 0.013303 -0.003873 0.000167 0.000000 0.000000 0.000000
# 2 -0.003873 0.022052 -0.002184 0.000000 0.000000 0.000000
# 3 0.000167 -0.002184 0.013586 0.000000 0.000000 0.000000
# 4 0.000000 0.000000 0.000000 0.068872 0.000000 0.000000
# 5 0.000000 0.000000 0.000000 0.000000 0.035486 0.000000
# 6 0.000000 0.000000 0.000000 0.000000 0.000000 0.049982
#
#
# Mechanical properties :
#
#
# Convention : Reuss Voigt Hill
#
# Bulk Modulus (GPa) = 26.90825 27.61578 27.26202
# Shear Modulus (GPa) = 21.98309 24.51916 23.25113
#
# Velocity S-wave (km/s) = 3.36156 3.55017 3.45715
# Velocity P-wave (km/s) = 5.37573 5.56780 5.47261
#
# Compressibility (1/GPa) = 0.03716332
#
# Stress axis : x y z
#
# Youngs Moduli (GPa) = 75.16929 45.34722 73.60284
#
# Poissons Ratio (x) = 0.17561 -0.01230
# Poissons Ratio (y) = 0.29110 0.16073
# Poissons Ratio (z) = -0.01256 0.09903
#
# Static dielectric constant tensor:
#      x y z
#    x 3.544190 0.000000 0.000000 
#    y 0.000000 3.389370 0.000000 
#    z 0.000000 0.000000 3.600050 
# 
# 
# High freq. dielectric constant tensor:
#      x y z
#    x 1.754700 0.000000 0.000000 
#    y 0.000000 1.732320 0.000000 
#    z 0.000000 0.000000 1.763850 
# 
# From -- ./inp_files/38107.got.cif
#   From: 2010.06.25/outbox.cif.g09.slc.cpg/sg71_20_cif.got.tgz:38107.got - 2010.06.28 04:59:45.
