data_PCOD8287968
_publ_section_title
;
Structure prediction by ZEFSAII (Michael W. Deem and Ramdas Pophale) SiO2 
 PCOD8287968
Probable space group: I M M M
;
_chemical_formula_sum "Si O2"
_cell_formula_units_Z 88
_cell_length_a 17.933018
_cell_length_b 18.100973
_cell_length_c 15.032508
_cell_angle_alpha 90.000000
_cell_angle_beta 90.000000
_cell_angle_gamma 90.000000
_cell_volume 4879.628381
_symmetry_space_group_name_H-M "I M M M"
_symmetry_group_IT_number 71
_symmetry_cell_setting 'orthorhombic'
loop_
_space_group_symop_operation_xyz
x,y,z
-x,-y,z
x,-y,-z
-x,y,-z
-x,-y,-z
x,y,-z
-x,y,z
x,-y,z
1/2+x,1/2+y,1/2+z
1/2-x,1/2-y,1/2+z
1/2+x,1/2-y,1/2-z
1/2-x,1/2+y,1/2-z
1/2-x,1/2-y,1/2-z
1/2+x,1/2+y,1/2-z
1/2-x,1/2+y,1/2+z
1/2+x,1/2-y,1/2+z
loop_
_atom_site_type_symbol
_atom_site_label
_atom_site_fract_x
_atom_site_fract_y
_atom_site_fract_z
Si Si1 0.691575 0.770135 0.825772
Si Si2 0.588238 0.362202 0.828099
Si Si3 0.326049 0.415818 0.000000
Si Si4 0.874220 0.918423 0.138633
Si Si5 0.729064 0.219517 0.500000
Si Si6 0.919228 0.198102 0.000000
Si Si7 0.200602 0.581680 0.602492
O O1 0.750000 0.750000 0.750000
O O2 0.617408 0.721605 0.817347
O O3 0.735100 0.758622 0.916470
O O4 0.666269 0.856558 0.830179
O O5 0.500000 0.360509 0.839201
O O6 0.624073 0.399724 0.914097
O O7 0.613594 0.409202 0.743605
O O8 0.299484 0.500000 0.000000
O O9 0.249781 0.367476 0.000000
O O10 0.788905 0.913194 0.111544
O O11 0.904687 0.000000 0.112586
O O12 0.916351 0.853858 0.086776
O O13 0.640536 0.235204 0.500000
O O14 0.000000 0.237250 0.000000
O O15 0.177568 0.595965 0.500000
O O16 0.172754 0.500000 0.632177
#
# Coordination Sequence:
#
# PCOD8287968 Si02
#       7
#    16  16   8  16   8   8  16
#     4  11  18  34  55  73 102 140 179 217 256 310
#     4  11  23  35  52  77 106 138 172 216 265 310
#     4  10  23  40  57  70  94 137 181 221 261 303
#     4  11  20  32  50  77 110 140 171 204 251 316
#     4  10  20  36  50  75 101 131 181 220 248 307
#     4  12  21  32  51  78 113 144 163 200 264 317
#     4  10  18  32  55  79 105 137 176 220 261 307
#
# _framework density 18.03416
#
# number of rings (size 3 to 8) (size 9 to 14) (size 15 to 20)
#    0.000    1.273    5.455    1.636    0.000    3.273 
#    0.000    0.000    0.000    0.818    0.000    1.273 
#    0.000    6.182    0.000    0.000    0.000    0.727 
#
# Total GULP energy -545402.102419 kJ/mol
# GULP energy per Si atom -12395.502328 kJ/mol
# Density = 1.799311 g / cm^3
# Si number density = 18.034160 Si / 1000 Ang^3
#
#
#
# Elastic Constant Matrix: (Units=GPa)
#
#
# Indices 1 2 3 4 5 6 
#
# 1 54.4923 32.4420 10.3300 0.0000 0.0000 0.0000
# 2 32.4420 147.4260 29.7070 0.0000 0.0000 0.0000
# 3 10.3300 29.7070 105.1018 0.0000 0.0000 0.0000
# 4 0.0000 0.0000 0.0000 28.1503 0.0000 0.0000
# 5 0.0000 0.0000 0.0000 0.0000 2.9616 0.0000
# 6 0.0000 0.0000 0.0000 0.0000 0.0000 13.0815
#
#
#
# Elastic Compliance Matrix: (Units=1/GPa)
#
#
# Indices 1 2 3 4 5 6 
#
# 1 0.021183 -0.004498 -0.000811 0.000000 0.000000 0.000000
# 2 -0.004498 0.008148 -0.001861 0.000000 0.000000 0.000000
# 3 -0.000811 -0.001861 0.010120 0.000000 0.000000 0.000000
# 4 0.000000 0.000000 0.000000 0.035524 0.000000 0.000000
# 5 0.000000 0.000000 0.000000 0.000000 0.337651 0.000000
# 6 0.000000 0.000000 0.000000 0.000000 0.000000 0.076444
#
#
# Mechanical properties :
#
#
# Convention : Reuss Voigt Hill
#
# Bulk Modulus (GPa) = 39.82191 50.21978 45.02085
# Shear Modulus (GPa) = 9.76984 24.47477 17.12230
#
# Velocity S-wave (km/s) = 2.33006 3.68793 3.08464
# Velocity P-wave (km/s) = 5.41924 6.78542 6.14044
#
# Compressibility (1/GPa) = 0.02511180
#
# Stress axis : x y z
#
# Youngs Moduli (GPa) = 47.20811 122.73151 98.81192
#
# Poissons Ratio (x) = 0.55205 0.08010
# Poissons Ratio (y) = 0.21235 0.18388
# Poissons Ratio (z) = 0.03827 0.22839
#
# Static dielectric constant tensor:
#      x y z
#    x 3.057250 0.000000 0.000000 
#    y 0.000000 3.666620 0.000000 
#    z 0.000000 0.000000 3.526010 
# 
# 
# High freq. dielectric constant tensor:
#      x y z
#    x 1.659380 0.000000 0.000000 
#    y 0.000000 1.703620 0.000000 
#    z 0.000000 0.000000 1.710570 
# 
# From -- ./inp_files/36411.got.cif
#   From: 2010.06.25/outbox.cif.g09.slc.cpg/sg71_19_cif.got.tgz:36411.got - 2010.06.28 04:59:45.
