data_PCOD8287975
_publ_section_title
;
Structure prediction by ZEFSAII (Michael W. Deem and Ramdas Pophale) SiO2 
 PCOD8287975
Probable space group: I M M M
;
_chemical_formula_sum "Si O2"
_cell_formula_units_Z 104
_cell_length_a 23.991930
_cell_length_b 25.433569
_cell_length_c 9.247056
_cell_angle_alpha 90.000000
_cell_angle_beta 90.000000
_cell_angle_gamma 90.000000
_cell_volume 5642.557336
_symmetry_space_group_name_H-M "I M M M"
_symmetry_group_IT_number 71
_symmetry_cell_setting 'orthorhombic'
loop_
_space_group_symop_operation_xyz
x,y,z
-x,-y,z
x,-y,-z
-x,y,-z
-x,-y,-z
x,y,-z
-x,y,z
x,-y,z
1/2+x,1/2+y,1/2+z
1/2-x,1/2-y,1/2+z
1/2+x,1/2-y,1/2-z
1/2-x,1/2+y,1/2-z
1/2-x,1/2-y,1/2-z
1/2+x,1/2+y,1/2-z
1/2-x,1/2+y,1/2+z
1/2+x,1/2-y,1/2+z
loop_
_atom_site_type_symbol
_atom_site_label
_atom_site_fract_x
_atom_site_fract_y
_atom_site_fract_z
Si Si1 0.351120 0.352164 0.838943
Si Si2 0.892778 0.939981 0.831299
Si Si3 0.063007 0.236381 0.328897
Si Si4 0.500000 0.562170 0.839957
Si Si5 0.766882 0.300740 0.162396
Si Si6 0.372002 0.160088 0.172139
Si Si7 0.562478 0.941703 0.171473
O O1 0.345683 0.401809 0.730424
O O2 0.393558 0.308125 0.773846
O O3 0.288385 0.334247 0.848966
O O4 0.371368 0.368965 0.000000
O O5 0.947015 0.918595 0.748432
O O6 0.878032 0.000000 0.792646
O O7 0.902428 0.933019 0.000000
O O8 0.061076 0.234434 0.500000
O O9 0.085925 0.293367 0.280593
O O10 0.000000 0.227838 0.266708
O O11 0.500000 0.500000 0.850599
O O12 0.500000 0.587752 0.000000
O O13 0.750000 0.250000 0.250000
O O14 0.813629 0.333251 0.247067
O O15 0.787655 0.286405 0.000000
O O16 0.397231 0.104570 0.227618
O O17 0.361597 0.160920 0.000000
O O18 0.500000 0.932600 0.232384
O O19 0.583987 0.000000 0.219924
O O20 0.560256 0.938743 0.000000
#
# Coordination Sequence:
#
# PCOD8287975 Si02
#       7
#    16  16  16   8  16  16  16
#     4  10  21  36  54  77 103 136 182 224 264 323
#     4  10  21  36  53  76 106 136 170 217 271 320
#     4   9  17  30  50  78 108 137 174 221 266 314
#     4   9  17  31  53  77 101 137 179 211 248 305
#     4  11  22  38  57  78 105 141 184 226 269 324
#     4  10  18  32  55  82 111 145 183 224 271 320
#     4   8  14  26  49  84 120 150 184 227 272 321
#
# _framework density 18.431359
#
# number of rings (size 3 to 8) (size 9 to 14) (size 15 to 20)
#    0.000    2.385    1.538    2.077    1.077    4.923 
#    0.000    0.769    0.000    6.000    0.000    1.077 
#    0.000    0.000    0.000    0.000    0.000    0.000 
#
# Total GULP energy -644491.021480 kJ/mol
# GULP energy per Si atom -12394.058105 kJ/mol
# Density = 1.838941 g / cm^3
# Si number density = 18.431359 Si / 1000 Ang^3
#
#
#
# Elastic Constant Matrix: (Units=GPa)
#
#
# Indices 1 2 3 4 5 6 
#
# 1 106.4427 55.5203 31.9319 0.0000 0.0000 0.0000
# 2 55.5203 133.1416 49.5387 0.0000 0.0000 0.0000
# 3 31.9319 49.5387 73.5680 0.0000 0.0000 0.0000
# 4 0.0000 0.0000 0.0000 20.5745 0.0000 0.0000
# 5 0.0000 0.0000 0.0000 0.0000 26.1735 0.0000
# 6 0.0000 0.0000 0.0000 0.0000 0.0000 29.9438
#
#
#
# Elastic Compliance Matrix: (Units=1/GPa)
#
#
# Indices 1 2 3 4 5 6 
#
# 1 0.012348 -0.004210 -0.002525 0.000000 0.000000 0.000000
# 2 -0.004210 0.011457 -0.005888 0.000000 0.000000 0.000000
# 3 -0.002525 -0.005888 0.018653 0.000000 0.000000 0.000000
# 4 0.000000 0.000000 0.000000 0.048604 0.000000 0.000000
# 5 0.000000 0.000000 0.000000 0.000000 0.038207 0.000000
# 6 0.000000 0.000000 0.000000 0.000000 0.000000 0.033396
#
#
# Mechanical properties :
#
#
# Convention : Reuss Voigt Hill
#
# Bulk Modulus (GPa) = 58.09268 65.23712 61.66490
# Shear Modulus (GPa) = 25.82024 27.08246 26.45135
#
# Velocity S-wave (km/s) = 3.74690 3.83739 3.79242
# Velocity P-wave (km/s) = 7.09266 7.42331 7.25987
#
# Compressibility (1/GPa) = 0.01721387
#
# Stress axis : x y z
#
# Youngs Moduli (GPa) = 80.98531 87.28412 53.60976
#
# Poissons Ratio (x) = 0.36744 0.13536
# Poissons Ratio (y) = 0.34092 0.31563
# Poissons Ratio (z) = 0.20448 0.51389
#
# Static dielectric constant tensor:
#      x y z
#    x 3.408980 0.000000 0.000000 
#    y 0.000000 3.560200 0.000000 
#    z 0.000000 0.000000 2.793730 
# 
# 
# High freq. dielectric constant tensor:
#      x y z
#    x 1.709000 0.000000 0.000000 
#    y 0.000000 1.719680 0.000000 
#    z 0.000000 0.000000 1.684420 
# 
# From -- ./inp_files/15289.got.cif
#   From: 2010.06.25/outbox.cif.g09.slc.cpg/sg71_8_cif.got.tgz:15289.got - 2010.06.28 04:59:45.
