data_PCOD8287486
_publ_section_title
;
Structure prediction by ZEFSAII (Michael W. Deem and Ramdas Pophale) SiO2 
 PCOD8287486
Probable space group: I M M M
;
_chemical_formula_sum "Si O2"
_cell_formula_units_Z 104
_cell_length_a 30.164152
_cell_length_b 9.277337
_cell_length_c 20.905192
_cell_angle_alpha 90.000000
_cell_angle_beta 90.000000
_cell_angle_gamma 90.000000
_cell_volume 5850.171716
_symmetry_space_group_name_H-M "I M M M"
_symmetry_group_IT_number 71
_symmetry_cell_setting 'orthorhombic'
loop_
_space_group_symop_operation_xyz
x,y,z
-x,-y,z
x,-y,-z
-x,y,-z
-x,-y,-z
x,y,-z
-x,y,z
x,-y,z
1/2+x,1/2+y,1/2+z
1/2-x,1/2-y,1/2+z
1/2+x,1/2-y,1/2-z
1/2-x,1/2+y,1/2-z
1/2-x,1/2-y,1/2-z
1/2+x,1/2+y,1/2-z
1/2-x,1/2+y,1/2+z
1/2+x,1/2-y,1/2+z
loop_
_atom_site_type_symbol
_atom_site_label
_atom_site_fract_x
_atom_site_fract_y
_atom_site_fract_z
Si Si1 0.552027 0.156072 0.500000
Si Si2 0.282238 0.669975 0.929093
Si Si3 0.449915 0.172504 0.637982
Si Si4 0.631272 0.330173 0.854482
Si Si5 0.869518 0.666064 0.224957
Si Si6 0.548456 0.329062 0.928979
Si Si7 0.228234 0.332950 0.809363
O O1 0.500000 0.129841 0.500000
O O2 0.563517 0.236328 0.432726
O O3 0.576200 0.000000 0.500000
O O4 0.277277 0.500000 0.934633
O O5 0.331359 0.711610 0.905715
O O6 0.247536 0.728829 0.876343
O O7 0.274023 0.738048 0.000000
O O8 0.500000 0.223045 0.657981
O O9 0.412756 0.228320 0.687764
O O10 0.448876 0.000000 0.633601
O O11 0.629909 0.500000 0.842201
O O12 0.640163 0.254901 0.788027
O O13 0.585138 0.267004 0.881371
O O14 0.877766 0.500000 0.242719
O O15 0.824728 0.684994 0.183919
O O16 0.500000 0.284367 0.902740
O O17 0.553042 0.500000 0.932829
O O18 0.555451 0.265236 0.000000
O O19 0.241610 0.500000 0.800299
O O20 0.250000 0.250000 0.750000
#
# Coordination Sequence:
#
# PCOD8287486 Si02
#       7
#     8  16  16  16  16  16  16
#     4   7  10  20  40  62  85 117 153 185 221 269
#     4   9  17  30  49  71  91 115 154 198 234 271
#     4   8  14  26  43  64  92 123 153 187 229 274
#     4  10  18  29  48  69  89 121 158 188 225 275
#     4  10  20  31  45  69  97 123 151 185 227 277
#     4   8  14  25  42  66  93 117 148 195 239 267
#     4  10  19  33  51  70  95 126 156 190 234 282
#
# _framework density 17.777256000000001
#
# number of rings (size 3 to 8) (size 9 to 14) (size 15 to 20)
#    0.000    3.000    1.538    1.846    0.000    2.462 
#    1.385    0.000    0.000    3.231    0.000    1.615 
#    0.000    1.846    0.000    0.000    0.000    0.000 
#
# Total GULP energy -644225.974387 kJ/mol
# GULP energy per Si atom -12388.961046 kJ/mol
# Density = 1.773679 g / cm^3
# Si number density = 17.777256 Si / 1000 Ang^3
#
#
#
# Elastic Constant Matrix: (Units=GPa)
#
#
# Indices 1 2 3 4 5 6 
#
# 1 119.3857 20.4221 63.0350 0.0000 0.0000 0.0000
# 2 20.4221 18.7062 24.1285 0.0000 0.0000 0.0000
# 3 63.0350 24.1285 140.1721 0.0000 0.0000 0.0000
# 4 0.0000 0.0000 0.0000 14.3048 0.0000 0.0000
# 5 0.0000 0.0000 0.0000 0.0000 32.1727 0.0000
# 6 0.0000 0.0000 0.0000 0.0000 0.0000 12.6270
#
#
#
# Elastic Compliance Matrix: (Units=1/GPa)
#
#
# Indices 1 2 3 4 5 6 
#
# 1 0.011800 -0.007761 -0.003971 0.000000 0.000000 0.000000
# 2 -0.007761 0.073820 -0.009217 0.000000 0.000000 0.000000
# 3 -0.003971 -0.009217 0.010506 0.000000 0.000000 0.000000
# 4 0.000000 0.000000 0.000000 0.069906 0.000000 0.000000
# 5 0.000000 0.000000 0.000000 0.000000 0.031082 0.000000
# 6 0.000000 0.000000 0.000000 0.000000 0.000000 0.079195
#
#
# Mechanical properties :
#
#
# Convention : Reuss Voigt Hill
#
# Bulk Modulus (GPa) = 18.44029 54.82613 36.63321
# Shear Modulus (GPa) = 14.86840 23.19947 19.03393
#
# Velocity S-wave (km/s) = 2.89515 3.61641 3.27569
# Velocity P-wave (km/s) = 4.64449 6.95309 5.91256
#
# Compressibility (1/GPa) = 0.05422909
#
# Stress axis : x y z
#
# Youngs Moduli (GPa) = 84.74377 13.54652 95.18207
#
# Poissons Ratio (x) = 0.10514 0.37793
# Poissons Ratio (y) = 0.65771 0.87727
# Poissons Ratio (z) = 0.33648 0.12486
#
# Static dielectric constant tensor:
#      x y z
#    x 3.551720 0.000000 0.000000 
#    y 0.000000 2.711170 0.000000 
#    z 0.000000 0.000000 3.650350 
# 
# 
# High freq. dielectric constant tensor:
#      x y z
#    x 1.695770 0.000000 0.000000 
#    y 0.000000 1.618190 0.000000 
#    z 0.000000 0.000000 1.693820 
# 
# From -- ./inp_files/56736.got.cif
#   From: 2010.06.25/outbox.cif.g09.slc.cpg/sg71_29_cif.got.tgz:56736.got - 2010.06.28 04:59:45.
