data_PCOD8287085
_publ_section_title
;
Structure prediction by ZEFSAII (Michael W. Deem and Ramdas Pophale) SiO2 
 PCOD8287085
Probable space group: I M M M
;
_chemical_formula_sum "Si O2"
_cell_formula_units_Z 96
_cell_length_a 24.854427
_cell_length_b 21.819738
_cell_length_c 9.679831
_cell_angle_alpha 90.000000
_cell_angle_beta 90.000000
_cell_angle_gamma 90.000000
_cell_volume 5249.537734
_symmetry_space_group_name_H-M "I M M M"
_symmetry_group_IT_number 71
_symmetry_cell_setting 'orthorhombic'
loop_
_space_group_symop_operation_xyz
x,y,z
-x,-y,z
x,-y,-z
-x,y,-z
-x,-y,-z
x,y,-z
-x,y,z
x,-y,z
1/2+x,1/2+y,1/2+z
1/2-x,1/2-y,1/2+z
1/2+x,1/2-y,1/2-z
1/2-x,1/2+y,1/2-z
1/2-x,1/2-y,1/2-z
1/2+x,1/2+y,1/2-z
1/2-x,1/2+y,1/2+z
1/2+x,1/2-y,1/2+z
loop_
_atom_site_type_symbol
_atom_site_label
_atom_site_fract_x
_atom_site_fract_y
_atom_site_fract_z
Si Si1 0.341685 0.708408 0.334188
Si Si2 0.847391 0.653188 0.160313
Si Si3 0.727945 0.622860 0.162097
Si Si4 0.939860 0.000000 0.743478
Si Si5 0.440193 0.068567 0.664334
Si Si6 0.175639 0.000000 0.652484
Si Si7 0.557909 0.633005 0.342459
O O1 0.333697 0.702535 0.500000
O O2 0.346123 0.777955 0.280864
O O3 0.291132 0.679747 0.254672
O O4 0.394122 0.672133 0.275864
O O5 0.791758 0.617321 0.185557
O O6 0.895815 0.614361 0.229881
O O7 0.859919 0.659572 0.000000
O O8 0.699042 0.561606 0.222748
O O9 0.714311 0.634291 0.000000
O O10 0.889485 0.000000 0.638831
O O11 0.932312 0.060107 0.836615
O O12 0.000000 0.000000 0.672628
O O13 0.435287 0.067499 0.500000
O O14 0.500000 0.090755 0.708097
O O15 0.429638 0.000000 0.721105
O O16 0.200431 0.000000 0.500000
O O17 0.555046 0.653052 0.500000
O O18 0.500000 0.648890 0.271454
#
# Coordination Sequence:
#
# PCOD8287085 Si02
#       7
#    16  16  16   8  16   8  16
#     4  10  19  32  49  71  97 126 161 197 236 282
#     4   9  18  29  46  69  94 128 162 191 232 287
#     4  10  20  34  49  68  97 129 161 196 237 284
#     4  10  17  29  46  63  87 119 161 201 237 277
#     4   8  14  25  42  67  98 127 156 194 239 283
#     4  10  20  32  47  68  91 123 165 201 237 279
#     4   9  17  28  44  66  92 122 155 193 237 283
#
# _framework density 18.287326
#
# number of rings (size 3 to 8) (size 9 to 14) (size 15 to 20)
#    0.000    2.667    1.667    1.250    1.167    1.833 
#    0.000    3.750    0.000    0.500    0.000    0.000 
#    0.000    2.000    0.000    7.333    0.000    6.667 
#
# Total GULP energy -594734.768168 kJ/mol
# GULP energy per Si atom -12390.307670 kJ/mol
# Density = 1.824570 g / cm^3
# Si number density = 18.287326 Si / 1000 Ang^3
#
#
#
# Elastic Constant Matrix: (Units=GPa)
#
#
# Indices 1 2 3 4 5 6 
#
# 1 138.0517 75.1750 19.4005 0.0000 0.0000 0.0000
# 2 75.1750 125.4889 15.7354 0.0000 0.0000 0.0000
# 3 19.4005 15.7354 23.9499 0.0000 0.0000 0.0000
# 4 0.0000 0.0000 0.0000 14.4675 0.0000 0.0000
# 5 0.0000 0.0000 0.0000 0.0000 15.9269 0.0000
# 6 0.0000 0.0000 0.0000 0.0000 0.0000 33.0572
#
#
#
# Elastic Compliance Matrix: (Units=1/GPa)
#
#
# Indices 1 2 3 4 5 6 
#
# 1 0.011301 -0.006127 -0.005129 0.000000 0.000000 0.000000
# 2 -0.006127 0.012006 -0.002925 0.000000 0.000000 0.000000
# 3 -0.005129 -0.002925 0.047830 0.000000 0.000000 0.000000
# 4 0.000000 0.000000 0.000000 0.069121 0.000000 0.000000
# 5 0.000000 0.000000 0.000000 0.000000 0.062787 0.000000
# 6 0.000000 0.000000 0.000000 0.000000 0.000000 0.030251
#
#
# Mechanical properties :
#
#
# Convention : Reuss Voigt Hill
#
# Bulk Modulus (GPa) = 23.37783 56.45694 39.91738
# Shear Modulus (GPa) = 18.12157 24.50228 21.31193
#
# Velocity S-wave (km/s) = 3.15133 3.66437 3.41749
# Velocity P-wave (km/s) = 5.10417 6.98875 6.11944
#
# Compressibility (1/GPa) = 0.04277557
#
# Stress axis : x y z
#
# Youngs Moduli (GPa) = 88.49084 83.29303 20.90731
#
# Poissons Ratio (x) = 0.51030 0.10723
# Poissons Ratio (y) = 0.54215 0.06116
# Poissons Ratio (z) = 0.45385 0.24364
#
# Static dielectric constant tensor:
#      x y z
#    x 3.692390 0.000000 0.000000 
#    y 0.000000 3.599550 0.000000 
#    z 0.000000 0.000000 2.727450 
# 
# 
# High freq. dielectric constant tensor:
#      x y z
#    x 1.726280 0.000000 0.000000 
#    y 0.000000 1.715620 0.000000 
#    z 0.000000 0.000000 1.634240 
# 
# From -- ./inp_files/26021.got.cif
#   From: 2010.06.25/outbox.cif.g09.slc.cpg/sg71_14_cif.got.tgz:26021.got - 2010.06.28 04:59:45.
