data_PCOD8287059
_publ_section_title
;
Structure prediction by ZEFSAII (Michael W. Deem and Ramdas Pophale) SiO2 
 PCOD8287059
Probable space group: I M M M
;
_chemical_formula_sum "Si O2"
_cell_formula_units_Z 120
_cell_length_a 14.042415
_cell_length_b 21.844335
_cell_length_c 23.672261
_cell_angle_alpha 90.000000
_cell_angle_beta 90.000000
_cell_angle_gamma 90.000000
_cell_volume 7261.400193
_symmetry_space_group_name_H-M "I M M M"
_symmetry_group_IT_number 71
_symmetry_cell_setting 'orthorhombic'
loop_
_space_group_symop_operation_xyz
x,y,z
-x,-y,z
x,-y,-z
-x,y,-z
-x,-y,-z
x,y,-z
-x,y,z
x,-y,z
1/2+x,1/2+y,1/2+z
1/2-x,1/2-y,1/2+z
1/2+x,1/2-y,1/2-z
1/2-x,1/2+y,1/2-z
1/2-x,1/2-y,1/2-z
1/2+x,1/2+y,1/2-z
1/2-x,1/2+y,1/2+z
1/2+x,1/2-y,1/2+z
loop_
_atom_site_type_symbol
_atom_site_label
_atom_site_fract_x
_atom_site_fract_y
_atom_site_fract_z
Si Si1 0.887032 0.773752 0.561879
Si Si2 0.613104 0.930838 0.000000
Si Si3 0.886821 0.645746 0.608081
Si Si4 0.604435 0.627486 0.854790
Si Si5 0.606244 0.714180 0.750250
Si Si6 0.892063 0.572682 0.061903
Si Si7 0.787889 0.430075 0.827065
Si Si8 0.299869 0.841246 0.776511
O O1 0.840594 0.771507 0.500000
O O2 0.851583 0.714883 0.596566
O O3 0.857001 0.838389 0.589223
O O4 0.000000 0.769419 0.557906
O O5 0.649362 0.896920 0.056616
O O6 0.500000 0.929706 0.000000
O O7 0.652812 0.000000 0.000000
O O8 0.835015 0.626128 0.666086
O O9 0.000000 0.640240 0.615718
O O10 0.500000 0.598142 0.863506
O O11 0.600133 0.682416 0.810487
O O12 0.674139 0.573051 0.836742
O O13 0.500000 0.710416 0.721491
O O14 0.633536 0.784475 0.759976
O O15 0.689300 0.679611 0.714872
O O16 0.886100 0.500000 0.063606
O O17 0.835031 0.598278 0.116060
O O18 0.000000 0.595351 0.068435
O O19 0.852836 0.594987 0.000000
O O20 0.818345 0.500000 0.815949
O O21 0.815633 0.390270 0.773113
#
# Coordination Sequence:
#
# PCOD8287059 Si02
#       8
#    16   8  16  16  16  16  16  16
#     4   9  15  25  44  69  93 117 152 195 236 277
#     4   9  18  30  44  68 103 141 170 188 226 291
#     4  10  17  28  47  70  99 130 158 195 236 280
#     4   9  17  30  48  68  91 120 154 192 239 288
#     4   9  17  31  48  68  94 121 154 197 240 288
#     4   8  15  30  49  62  77 112 159 197 227 265
#     4  10  21  33  45  67  97 125 157 197 237 283
#     4  10  19  29  48  73  96 125 162 192 241 290
#
# _framework density 16.525738
#
# number of rings (size 3 to 8) (size 9 to 14) (size 15 to 20)
#    0.000    2.733    2.000    0.800    0.000    2.400 
#    0.000    0.000    0.000    0.000    0.000    4.200 
#    0.000    0.533    0.000    0.000    0.000    0.000 
#
# Total GULP energy -743432.738235 kJ/mol
# GULP energy per Si atom -12390.545637 kJ/mol
# Density = 1.648813 g / cm^3
# Si number density = 16.525738 Si / 1000 Ang^3
#
#
#
# Elastic Constant Matrix: (Units=GPa)
#
#
# Indices 1 2 3 4 5 6 
#
# 1 69.8672 17.8380 42.1825 0.0000 0.0000 0.0000
# 2 17.8380 45.0604 33.2460 0.0000 0.0000 0.0000
# 3 42.1825 33.2460 128.7118 0.0000 0.0000 0.0000
# 4 0.0000 0.0000 0.0000 19.6210 0.0000 0.0000
# 5 0.0000 0.0000 0.0000 0.0000 19.6498 0.0000
# 6 0.0000 0.0000 0.0000 0.0000 0.0000 11.6035
#
#
#
# Elastic Compliance Matrix: (Units=1/GPa)
#
#
# Indices 1 2 3 4 5 6 
#
# 1 0.018274 -0.003478 -0.005091 0.000000 0.000000 0.000000
# 2 -0.003478 0.028080 -0.006113 0.000000 0.000000 0.000000
# 3 -0.005091 -0.006113 0.011017 0.000000 0.000000 0.000000
# 4 0.000000 0.000000 0.000000 0.050966 0.000000 0.000000
# 5 0.000000 0.000000 0.000000 0.000000 0.050891 0.000000
# 6 0.000000 0.000000 0.000000 0.000000 0.000000 0.086181
#
#
# Mechanical properties :
#
#
# Convention : Reuss Voigt Hill
#
# Bulk Modulus (GPa) = 35.70560 47.79692 41.75126
# Shear Modulus (GPa) = 17.59898 20.19974 18.89936
#
# Velocity S-wave (km/s) = 3.26689 3.49996 3.38543
# Velocity P-wave (km/s) = 5.99024 6.73190 6.37187
#
# Compressibility (1/GPa) = 0.02800681
#
# Stress axis : x y z
#
# Youngs Moduli (GPa) = 54.72137 35.61299 90.77224
#
# Poissons Ratio (x) = 0.12388 0.46208
# Poissons Ratio (y) = 0.19034 0.55489
# Poissons Ratio (z) = 0.27856 0.21770
#
# Static dielectric constant tensor:
#      x y z
#    x 3.098140 0.000000 0.000000 
#    y 0.000000 2.892530 0.000000 
#    z 0.000000 0.000000 3.312910 
# 
# 
# High freq. dielectric constant tensor:
#      x y z
#    x 1.611070 0.000000 0.000000 
#    y 0.000000 1.614110 0.000000 
#    z 0.000000 0.000000 1.637910 
# 
# From -- ./inp_files/60209.got.cif
#   From: 2010.06.25/outbox.cif.g09.slc.cpg/sg71_31_cif.got.tgz:60209.got - 2010.06.28 04:59:45.
