data_PCOD8287611
_publ_section_title
;
Structure prediction by ZEFSAII (Michael W. Deem and Ramdas Pophale) SiO2 
 PCOD8287611
Probable space group: I M M M
;
_chemical_formula_sum "Si O2"
_cell_formula_units_Z 104
_cell_length_a 9.216932
_cell_length_b 26.643510
_cell_length_c 24.231797
_cell_angle_alpha 90.000000
_cell_angle_beta 90.000000
_cell_angle_gamma 90.000000
_cell_volume 5950.636796
_symmetry_space_group_name_H-M "I M M M"
_symmetry_group_IT_number 71
_symmetry_cell_setting 'orthorhombic'
loop_
_space_group_symop_operation_xyz
x,y,z
-x,-y,z
x,-y,-z
-x,y,-z
-x,-y,-z
x,y,-z
-x,y,z
x,-y,z
1/2+x,1/2+y,1/2+z
1/2-x,1/2-y,1/2+z
1/2+x,1/2-y,1/2-z
1/2-x,1/2+y,1/2-z
1/2-x,1/2-y,1/2-z
1/2+x,1/2+y,1/2-z
1/2-x,1/2+y,1/2+z
1/2+x,1/2-y,1/2+z
loop_
_atom_site_type_symbol
_atom_site_label
_atom_site_fract_x
_atom_site_fract_y
_atom_site_fract_z
Si Si1 0.831915 0.584797 0.854417
Si Si2 0.326292 0.000000 0.436212
Si Si3 0.662256 0.056106 0.234207
Si Si4 0.838909 0.441485 0.562004
Si Si5 0.667128 0.207886 0.183460
Si Si6 0.330123 0.617045 0.648524
Si Si7 0.331180 0.191570 0.688532
O O1 0.766902 0.550957 0.905069
O O2 0.802201 0.553709 0.798894
O O3 0.772056 0.641760 0.843978
O O4 0.000000 0.591188 0.866529
O O5 0.500000 0.000000 0.433128
O O6 0.272362 0.000000 0.500000
O O7 0.500000 0.079199 0.225320
O O8 0.781427 0.088947 0.203924
O O9 0.667509 0.000000 0.209994
O O10 0.832324 0.420884 0.500000
O O11 0.806614 0.500000 0.563040
O O12 0.712772 0.415062 0.595680
O O13 0.000000 0.430664 0.586992
O O14 0.500000 0.210697 0.167259
O O15 0.750177 0.170141 0.143113
O O16 0.689673 0.187023 0.245512
O O17 0.734479 0.261918 0.169948
O O18 0.500000 0.625879 0.650614
O O19 0.500000 0.201519 0.675042
#
# Coordination Sequence:
#
# PCOD8287611 Si02
#       7
#    16   8  16  16  16  16  16
#     4   9  15  27  46  69 101 137 168 203 254 311
#     4   9  16  26  46  78 109 137 174 215 252 299
#     4  10  18  30  48  69  98 138 176 206 249 310
#     4   9  19  37  58  76  97 133 178 213 245 297
#     4  10  19  32  50  71  98 133 174 213 256 315
#     4  12  23  32  47  74 108 137 167 212 262 305
#     4   9  17  30  48  70  99 135 171 212 260 311
#
# _framework density 17.477121
#
# number of rings (size 3 to 8) (size 9 to 14) (size 15 to 20)
#    0.000    2.231    2.308    2.769    0.000    3.385 
#    0.000    0.769    0.000    0.923    0.000    2.154 
#    0.000    4.308    0.000    0.000    0.000    0.000 
#
# Total GULP energy -644411.673944 kJ/mol
# GULP energy per Si atom -12392.532191 kJ/mol
# Density = 1.743734 g / cm^3
# Si number density = 17.477121 Si / 1000 Ang^3
#
#
#
# Elastic Constant Matrix: (Units=GPa)
#
#
# Indices 1 2 3 4 5 6 
#
# 1 82.0299 49.8915 23.6956 0.0000 0.0000 0.0000
# 2 49.8915 120.0199 46.2018 0.0000 0.0000 0.0000
# 3 23.6956 46.2018 75.7702 0.0001 0.0000 0.0000
# 4 0.0000 0.0000 0.0001 -69.4443 0.0000 0.0000
# 5 0.0000 0.0000 0.0000 0.0000 10.3319 0.0000
# 6 0.0000 0.0000 0.0000 0.0000 0.0000 26.9270
#
#
#
# Elastic Compliance Matrix: (Units=1/GPa)
#
#
# Indices 1 2 3 4 5 6 
#
# 1 0.016409 -0.006332 -0.001271 0.000000 0.000000 0.000000
# 2 -0.006332 0.013331 -0.006149 0.000000 0.000000 0.000000
# 3 -0.001271 -0.006149 0.017344 0.000000 0.000000 0.000000
# 4 0.000000 0.000000 0.000000 -0.014400 0.000000 0.000000
# 5 0.000000 0.000000 0.000000 0.000000 0.096787 0.000000
# 6 0.000000 0.000000 0.000000 0.000000 0.000000 0.037137
#
#
# Mechanical properties :
#
#
# Convention : Reuss Voigt Hill
#
# Bulk Modulus (GPa) = 51.06720 57.48864 54.27792
# Shear Modulus (GPa) = 24.92048 4.09833 14.50940
#
# Velocity S-wave (km/s) = 3.78019 1.53299 2.88443
# Velocity P-wave (km/s) = 6.95241 6.00820 6.49748
#
# Compressibility (1/GPa) = 0.01958204
#
# Stress axis : x y z
#
# Youngs Moduli (GPa) = 60.94268 75.01309 57.65581
#
# Poissons Ratio (x) = 0.47498 0.07325
# Poissons Ratio (y) = 0.38589 0.35450
# Poissons Ratio (z) = 0.07743 0.46122
#
# Static dielectric constant tensor:
#      x y z
#    x 2.963520 0.000000 0.000000 
#    y 0.000000 3.461270 0.000000 
#    z 0.000000 0.000000 3.128940 
# 
# 
# High freq. dielectric constant tensor:
#      x y z
#    x 1.645480 0.000000 0.000000 
#    y 0.000000 1.685790 0.000000 
#    z 0.000000 0.000000 1.644360 
# 
# From -- ./inp_files/58220.got.cif
#   From: 2010.06.25/outbox.cif.g09.slc.cpg/sg71_30_cif.got.tgz:58220.got - 2010.06.28 04:59:45.
