data_PCOD8287736
_publ_section_title
;
Structure prediction by ZEFSAII (Michael W. Deem and Ramdas Pophale) SiO2 
 PCOD8287736
Probable space group: I M M M
;
_chemical_formula_sum "Si O2"
_cell_formula_units_Z 96
_cell_length_a 23.481339
_cell_length_b 23.384155
_cell_length_c 9.072027
_cell_angle_alpha 90.000000
_cell_angle_beta 90.000000
_cell_angle_gamma 90.000000
_cell_volume 4981.370834
_symmetry_space_group_name_H-M "I M M M"
_symmetry_group_IT_number 71
_symmetry_cell_setting 'orthorhombic'
loop_
_space_group_symop_operation_xyz
x,y,z
-x,-y,z
x,-y,-z
-x,y,-z
-x,-y,-z
x,y,-z
-x,y,z
x,-y,z
1/2+x,1/2+y,1/2+z
1/2-x,1/2-y,1/2+z
1/2+x,1/2-y,1/2-z
1/2-x,1/2+y,1/2-z
1/2-x,1/2-y,1/2-z
1/2+x,1/2+y,1/2-z
1/2-x,1/2+y,1/2+z
1/2+x,1/2-y,1/2+z
loop_
_atom_site_type_symbol
_atom_site_label
_atom_site_fract_x
_atom_site_fract_y
_atom_site_fract_z
Si Si1 0.500000 0.252696 0.333117
Si Si2 0.667726 0.136898 0.825104
Si Si3 0.225809 0.064405 0.824672
Si Si4 0.437243 0.935779 0.824756
Si Si5 0.386449 0.371750 0.326131
Si Si6 0.623776 0.239859 0.332681
Si Si7 0.000000 0.131528 0.673530
O O1 0.500000 0.280007 0.500000
O O2 0.558252 0.216842 0.313103
O O3 0.500000 0.301576 0.210467
O O4 0.723157 0.104052 0.763944
O O5 0.612077 0.104666 0.761121
O O6 0.666065 0.201847 0.765923
O O7 0.668426 0.139151 0.000000
O O8 0.166066 0.090124 0.769972
O O9 0.232747 0.000000 0.763028
O O10 0.228024 0.063846 0.000000
O O11 0.500000 0.914248 0.773816
O O12 0.426771 0.000000 0.766012
O O13 0.433839 0.935914 0.000000
O O14 0.396311 0.377521 0.500000
O O15 0.373339 0.305931 0.283136
O O16 0.442750 0.395483 0.244123
O O17 0.644491 0.233615 0.500000
O O18 0.000000 0.120851 0.500000
#
# Coordination Sequence:
#
# PCOD8287736 Si02
#       7
#     8  16  16  16  16  16   8
#     4   8  16  32  50  69 102 145 180 206 243 298
#     4  10  19  29  47  76 104 130 169 220 260 293
#     4   9  18  34  56  78  98 128 176 227 263 297
#     4   8  14  25  41  63  94 130 165 206 258 301
#     4   9  18  35  56  75 102 139 173 204 250 313
#     4   9  18  31  47  70 101 139 172 202 249 312
#     4  10  18  30  53  83 108 128 157 204 257 305
#
# _framework density 19.271803999999999
#
# number of rings (size 3 to 8) (size 9 to 14) (size 15 to 20)
#    0.000    3.000    0.000    2.750    1.167    5.333 
#    0.000    1.250    0.000    6.000    0.000    1.167 
#    0.000    0.000    0.000    0.000    0.000    0.000 
#
# Total GULP energy -594882.855202 kJ/mol
# GULP energy per Si atom -12393.392817 kJ/mol
# Density = 1.922794 g / cm^3
# Si number density = 19.271804 Si / 1000 Ang^3
#
#
#
# Elastic Constant Matrix: (Units=GPa)
#
#
# Indices 1 2 3 4 5 6 
#
# 1 140.5732 52.4528 30.9244 0.0000 0.0000 0.0000
# 2 52.4528 71.6778 17.8401 0.0000 0.0000 0.0000
# 3 30.9244 17.8401 33.9895 0.0000 0.0000 0.0000
# 4 0.0000 0.0000 0.0000 17.4149 0.0000 0.0000
# 5 0.0000 0.0000 0.0000 0.0000 17.7518 0.0000
# 6 0.0000 0.0000 0.0000 0.0000 0.0000 35.6039
#
#
#
# Elastic Compliance Matrix: (Units=1/GPa)
#
#
# Indices 1 2 3 4 5 6 
#
# 1 0.010943 -0.006361 -0.006618 0.000000 0.000000 0.000000
# 2 -0.006361 0.019745 -0.004576 0.000000 0.000000 0.000000
# 3 -0.006618 -0.004576 0.037844 0.000000 0.000000 0.000000
# 4 0.000000 0.000000 0.000000 0.057422 0.000000 0.000000
# 5 0.000000 0.000000 0.000000 0.000000 0.056332 0.000000
# 6 0.000000 0.000000 0.000000 0.000000 0.000000 0.028087
#
#
# Mechanical properties :
#
#
# Convention : Reuss Voigt Hill
#
# Bulk Modulus (GPa) = 29.92028 49.85280 39.88654
# Shear Modulus (GPa) = 19.48382 23.82234 21.65308
#
# Velocity S-wave (km/s) = 3.18307 3.51967 3.35560
# Velocity P-wave (km/s) = 5.39151 6.51474 5.97956
#
# Compressibility (1/GPa) = 0.03342215
#
# Stress axis : x y z
#
# Youngs Moduli (GPa) = 91.38298 50.64539 26.42453
#
# Poissons Ratio (x) = 0.32215 0.17486
# Poissons Ratio (y) = 0.58127 0.12093
# Poissons Ratio (z) = 0.60473 0.23177
#
# Static dielectric constant tensor:
#      x y z
#    x 3.868640 0.000000 0.000000 
#    y 0.000000 3.398400 0.000000 
#    z 0.000000 0.000000 2.979110 
# 
# 
# High freq. dielectric constant tensor:
#      x y z
#    x 1.761880 0.000000 0.000000 
#    y 0.000000 1.731990 0.000000 
#    z 0.000000 0.000000 1.697690 
# 
# From -- ./inp_files/12930.got.cif
#   From: 2010.06.25/outbox.cif.g09.slc.cpg/sg71_7_cif.got.tgz:12930.got - 2010.06.28 04:59:45.
