data_PCOD8287590
_publ_section_title
;
Structure prediction by ZEFSAII (Michael W. Deem and Ramdas Pophale) SiO2 
 PCOD8287590
Probable space group: I M M M
;
_chemical_formula_sum "Si O2"
_cell_formula_units_Z 80
_cell_length_a 18.080932
_cell_length_b 19.076971
_cell_length_c 12.746091
_cell_angle_alpha 90.000000
_cell_angle_beta 90.000000
_cell_angle_gamma 90.000000
_cell_volume 4396.501717
_symmetry_space_group_name_H-M "I M M M"
_symmetry_group_IT_number 71
_symmetry_cell_setting 'orthorhombic'
loop_
_space_group_symop_operation_xyz
x,y,z
-x,-y,z
x,-y,-z
-x,y,-z
-x,-y,-z
x,y,-z
-x,y,z
x,-y,z
1/2+x,1/2+y,1/2+z
1/2-x,1/2-y,1/2+z
1/2+x,1/2-y,1/2-z
1/2-x,1/2+y,1/2-z
1/2-x,1/2-y,1/2-z
1/2+x,1/2+y,1/2-z
1/2-x,1/2+y,1/2+z
1/2+x,1/2-y,1/2+z
loop_
_atom_site_type_symbol
_atom_site_label
_atom_site_fract_x
_atom_site_fract_y
_atom_site_fract_z
Si Si1 0.331551 0.416814 0.500000
Si Si2 0.412167 0.078400 0.615751
Si Si3 0.912188 0.186993 0.617714
Si Si4 0.587906 0.160840 0.185713
Si Si5 0.913144 0.080830 0.792883
Si Si6 0.664019 0.917150 0.000000
O O1 0.336363 0.500000 0.500000
O O2 0.372710 0.388971 0.604074
O O3 0.248000 0.388892 0.500000
O O4 0.383141 0.100415 0.500000
O O5 0.500000 0.077538 0.615764
O O6 0.383550 0.134929 0.700375
O O7 0.383431 0.000000 0.643776
O O8 0.880026 0.176765 0.500000
O O9 0.883818 0.260369 0.665801
O O10 0.884432 0.124152 0.692087
O O11 0.000000 0.187226 0.612585
O O12 0.500000 0.156082 0.175634
O O13 0.622271 0.108902 0.102004
O O14 0.000000 0.091327 0.811203
O O15 0.893245 0.000000 0.771353
O O16 0.662896 0.000000 0.000000
#
# Coordination Sequence:
#
# PCOD8287590 Si02
#       6
#     8  16  16  16  16   8
#     4   9  19  35  51  73 103 126 157 210 256 288
#     4   8  14  25  41  62  89 122 164 212 249 276
#     4   9  17  30  48  73 105 131 155 200 251 288
#     4  10  18  30  47  69 102 138 169 204 241 282
#     4   9  17  32  56  79  97 123 159 199 250 311
#     4  11  21  31  49  73  98 135 175 207 241 283
#
# _framework density 18.196285
#
# number of rings (size 3 to 8) (size 9 to 14) (size 15 to 20)
#    0.000    2.800    1.000    1.800    0.000    3.200 
#    1.800    3.000    0.000    1.200    0.000    2.800 
#    0.000    0.000    0.000    0.000    0.000    0.000 
#
# Total GULP energy -495856.833982 kJ/mol
# GULP energy per Si atom -12396.420850 kJ/mol
# Density = 1.815487 g / cm^3
# Si number density = 18.196285 Si / 1000 Ang^3
#
#
#
# Elastic Constant Matrix: (Units=GPa)
#
#
# Indices 1 2 3 4 5 6 
#
# 1 29.1563 22.6436 29.1184 0.0000 0.0000 0.0000
# 2 22.6436 101.0361 85.0548 0.0000 0.0000 0.0000
# 3 29.1184 85.0548 190.8711 0.0000 0.0000 0.0000
# 4 0.0000 0.0000 0.0000 44.3795 0.0000 0.0000
# 5 0.0000 0.0000 0.0000 0.0000 -0.1310 0.0000
# 6 0.0000 0.0000 0.0000 0.0000 0.0000 10.3317
#
#
#
# Elastic Compliance Matrix: (Units=1/GPa)
#
#
# Indices 1 2 3 4 5 6 
#
# 1 0.043041 -0.006591 -0.003629 0.000000 0.000000 0.000000
# 2 -0.006591 0.016849 -0.006502 0.000000 0.000000 0.000000
# 3 -0.003629 -0.006502 0.008690 0.000000 0.000000 0.000000
# 4 0.000000 0.000000 0.000000 0.022533 0.000000 0.000000
# 5 0.000000 0.000000 0.000000 0.000000 -7.632921 0.000000
# 6 0.000000 0.000000 0.000000 0.000000 0.000000 0.096790
#
#
# Mechanical properties :
#
#
# Convention : Reuss Voigt Hill
#
# Bulk Modulus (GPa) = 28.46184 66.07746 47.26965
# Shear Modulus (GPa) = -0.67569 23.19915 11.26173
#
# Velocity S-wave (km/s) = -0.61003 3.57450 2.49047
# Velocity P-wave (km/s) = 3.89607 7.30949 5.85696
#
# Compressibility (1/GPa) = 0.03513476
#
# Stress axis : x y z
#
# Youngs Moduli (GPa) = 23.23367 59.35242 115.07019
#
# Poissons Ratio (x) = 0.39119 0.41760
# Poissons Ratio (y) = 0.15313 0.74824
# Poissons Ratio (z) = 0.08432 0.38594
#
# Static dielectric constant tensor:
#      x y z
#    x 2.943370 0.000000 0.000000 
#    y 0.000000 3.385650 0.000000 
#    z 0.000000 0.000000 4.186050 
# 
# 
# High freq. dielectric constant tensor:
#      x y z
#    x 1.653580 0.000000 0.000000 
#    y 0.000000 1.697160 0.000000 
#    z 0.000000 0.000000 1.721830 
# 
# From -- ./inp_files/25564.got.cif
#   From: 2010.06.25/outbox.cif.g09.slc.cpg/sg71_13_cif.got.tgz:25564.got - 2010.06.28 04:59:45.
