data_PCOD8287700
_publ_section_title
;
Structure prediction by ZEFSAII (Michael W. Deem and Ramdas Pophale) SiO2 
 PCOD8287700
Probable space group: I M M M
;
_chemical_formula_sum "Si O2"
_cell_formula_units_Z 120
_cell_length_a 12.989074
_cell_length_b 23.928551
_cell_length_c 22.413501
_cell_angle_alpha 90.000000
_cell_angle_beta 90.000000
_cell_angle_gamma 90.000000
_cell_volume 6966.333962
_symmetry_space_group_name_H-M "I M M M"
_symmetry_group_IT_number 71
_symmetry_cell_setting 'orthorhombic'
loop_
_space_group_symop_operation_xyz
x,y,z
-x,-y,z
x,-y,-z
-x,y,-z
-x,-y,-z
x,y,-z
-x,y,z
x,-y,z
1/2+x,1/2+y,1/2+z
1/2-x,1/2-y,1/2+z
1/2+x,1/2-y,1/2-z
1/2-x,1/2+y,1/2-z
1/2-x,1/2-y,1/2-z
1/2+x,1/2+y,1/2-z
1/2-x,1/2+y,1/2+z
1/2+x,1/2-y,1/2+z
loop_
_atom_site_type_symbol
_atom_site_label
_atom_site_fract_x
_atom_site_fract_y
_atom_site_fract_z
Si Si1 0.115176 0.855757 0.289866
Si Si2 0.382769 0.331212 0.567508
Si Si3 0.615985 0.062947 0.758864
Si Si4 0.698437 0.105373 0.640889
Si Si5 0.710259 0.785435 0.431843
Si Si6 0.383746 0.242076 0.145204
Si Si7 0.620593 0.000000 0.570912
Si Si8 0.746670 0.360890 0.674174
O O1 0.183042 0.892649 0.336183
O O2 0.113996 0.791040 0.306794
O O3 0.158050 0.856211 0.223225
O O4 0.000000 0.881023 0.291060
O O5 0.351931 0.346734 0.500000
O O6 0.500000 0.347412 0.581145
O O7 0.370342 0.264754 0.577940
O O8 0.307784 0.366571 0.610089
O O9 0.500000 0.066189 0.781875
O O10 0.627682 0.100721 0.699661
O O11 0.687254 0.083654 0.813031
O O12 0.648280 0.000000 0.741806
O O13 0.670454 0.162895 0.607667
O O14 0.678541 0.054213 0.596331
O O15 0.715333 0.805392 0.500000
O O16 0.823660 0.763603 0.413477
O O17 0.500000 0.224487 0.126880
O O18 0.324590 0.191155 0.176427
O O19 0.500000 0.000000 0.590135
O O20 0.631530 0.000000 0.500000
#
# Coordination Sequence:
#
# PCOD8287700 Si02
#       8
#    16  16  16  16  16  16   8  16
#     4   9  18  31  48  70  98 130 165 207 254 301
#     4   9  18  32  50  74 105 134 159 194 242 298
#     4  10  20  34  52  73 100 131 164 206 257 306
#     4  10  19  33  51  70 101 135 172 215 257 295
#     4   9  18  31  47  71 101 137 174 206 243 294
#     4   9  17  29  45  70 101 130 164 207 253 301
#     4  11  22  34  51  73  97 131 175 222 266 304
#     4  10  18  30  51  74  98 127 165 202 246 301
#
# _framework density 17.225702999999999
#
# number of rings (size 3 to 8) (size 9 to 14) (size 15 to 20)
#    0.000    2.467    0.667    2.000    0.000    2.400 
#    0.000    1.667    0.000    4.400    0.000    1.867 
#    0.000    0.000    0.000    0.000    0.000    0.000 
#
# Total GULP energy -743883.991760 kJ/mol
# GULP energy per Si atom -12398.066529 kJ/mol
# Density = 1.718650 g / cm^3
# Si number density = 17.225703 Si / 1000 Ang^3
#
#
#
# Elastic Constant Matrix: (Units=GPa)
#
#
# Indices 1 2 3 4 5 6 
#
# 1 108.8749 39.4848 51.2534 0.0000 0.0000 0.0000
# 2 39.4848 54.6559 42.1271 0.0000 0.0000 0.0000
# 3 51.2534 42.1271 107.5618 0.0000 0.0000 0.0000
# 4 0.0000 0.0000 0.0000 31.3657 0.0000 0.0000
# 5 0.0000 0.0000 0.0000 0.0000 23.6751 0.0000
# 6 0.0000 0.0000 0.0000 0.0000 0.0000 23.9827
#
#
#
# Elastic Compliance Matrix: (Units=1/GPa)
#
#
# Indices 1 2 3 4 5 6 
#
# 1 0.013409 -0.006821 -0.003718 0.000000 0.000000 0.000000
# 2 -0.006821 0.029678 -0.008373 0.000000 0.000000 0.000000
# 3 -0.003718 -0.008373 0.014348 0.000000 0.000000 0.000000
# 4 0.000000 0.000000 0.000000 0.031882 0.000000 0.000000
# 5 0.000000 0.000000 0.000000 0.000000 0.042238 0.000000
# 6 0.000000 0.000000 0.000000 0.000000 0.000000 0.041697
#
#
# Mechanical properties :
#
#
# Convention : Reuss Voigt Hill
#
# Bulk Modulus (GPa) = 50.99377 59.64701 55.32039
# Shear Modulus (GPa) = 22.97658 25.01987 23.99822
#
# Velocity S-wave (km/s) = 3.65616 3.81527 3.73656
# Velocity P-wave (km/s) = 6.89136 7.35597 7.12745
#
# Compressibility (1/GPa) = 0.01961024
#
# Stress axis : x y z
#
# Youngs Moduli (GPa) = 74.57761 33.69499 69.69689
#
# Poissons Ratio (x) = 0.22985 0.25911
# Poissons Ratio (y) = 0.50873 0.58358
# Poissons Ratio (z) = 0.27726 0.28213
#
# Static dielectric constant tensor:
#      x y z
#    x 3.358650 0.000000 0.000000 
#    y 0.000000 3.077370 0.000000 
#    z 0.000000 0.000000 3.203260 
# 
# 
# High freq. dielectric constant tensor:
#      x y z
#    x 1.669340 0.000000 0.000000 
#    y 0.000000 1.643760 0.000000 
#    z 0.000000 0.000000 1.662330 
# 
# From -- ./inp_files/52259.got.cif
#   From: 2010.06.25/outbox.cif.g09.slc.cpg/sg71_27_cif.got.tgz:52259.got - 2010.06.28 04:59:45.
