data_PCOD8287846
_publ_section_title
;
Structure prediction by ZEFSAII (Michael W. Deem and Ramdas Pophale) SiO2 
 PCOD8287846
Probable space group: I M M M
;
_chemical_formula_sum "Si O2"
_cell_formula_units_Z 104
_cell_length_a 10.020503
_cell_length_b 21.000766
_cell_length_c 27.721427
_cell_angle_alpha 90.000000
_cell_angle_beta 90.000000
_cell_angle_gamma 90.000000
_cell_volume 5833.648272
_symmetry_space_group_name_H-M "I M M M"
_symmetry_group_IT_number 71
_symmetry_cell_setting 'orthorhombic'
loop_
_space_group_symop_operation_xyz
x,y,z
-x,-y,z
x,-y,-z
-x,y,-z
-x,-y,-z
x,y,-z
-x,y,z
x,-y,z
1/2+x,1/2+y,1/2+z
1/2-x,1/2-y,1/2+z
1/2+x,1/2-y,1/2-z
1/2-x,1/2+y,1/2-z
1/2-x,1/2-y,1/2-z
1/2+x,1/2+y,1/2-z
1/2-x,1/2+y,1/2+z
1/2+x,1/2-y,1/2+z
loop_
_atom_site_type_symbol
_atom_site_label
_atom_site_fract_x
_atom_site_fract_y
_atom_site_fract_z
Si Si1 0.658266 0.500000 0.444703
Si Si2 0.345084 0.431424 0.263030
Si Si3 0.850110 0.828379 0.444800
Si Si4 0.648536 0.929754 0.557294
Si Si5 0.655266 0.607326 0.370739
Si Si6 0.351160 0.224605 0.128354
Si Si7 0.154584 0.201324 0.276831
O O1 0.500000 0.500000 0.446172
O O2 0.715299 0.500000 0.500000
O O3 0.705216 0.562681 0.415054
O O4 0.500000 0.433469 0.251532
O O5 0.282074 0.500000 0.246219
O O6 0.320468 0.427671 0.320304
O O7 0.288080 0.369983 0.234179
O O8 0.811285 0.819207 0.500000
O O9 0.752740 0.879995 0.420053
O O10 0.832375 0.758666 0.422660
O O11 0.000000 0.854163 0.437826
O O12 0.662993 0.932151 0.500000
O O13 0.500000 0.908054 0.572096
O O14 0.679023 0.000000 0.578261
O O15 0.500000 0.625416 0.377411
O O16 0.740009 0.671315 0.368316
O O17 0.500000 0.194387 0.133269
O O18 0.334062 0.281478 0.167101
O O19 0.250000 0.250000 0.250000
O O20 0.000000 0.207301 0.258695
#
# Coordination Sequence:
#
# PCOD8287846 Si02
#       7
#     8  16  16  16  16  16  16
#     4   9  18  32  51  79 111 135 169 227 272 300
#     4   9  16  29  51  76  98 125 166 209 248 304
#     4   9  18  32  47  64  93 133 170 202 241 291
#     4   8  14  26  45  68  91 116 153 201 245 283
#     4  10  18  31  53  75  95 129 172 206 249 309
#     4  10  21  34  48  73 105 132 166 213 257 298
#     4  10  19  32  52  76 101 129 164 210 261 310
#
# _framework density 17.827608999999999
#
# number of rings (size 3 to 8) (size 9 to 14) (size 15 to 20)
#    0.000    2.692    2.308    0.462    0.000    1.538 
#    0.000    2.692    0.000    4.615    0.000    0.000 
#    0.000    0.000    0.000    0.000    0.000    0.000 
#
# Total GULP energy -644318.617488 kJ/mol
# GULP energy per Si atom -12390.742644 kJ/mol
# Density = 1.778703 g / cm^3
# Si number density = 17.827609 Si / 1000 Ang^3
#
#
#
# Elastic Constant Matrix: (Units=GPa)
#
#
# Indices 1 2 3 4 5 6 
#
# 1 66.5714 56.9784 22.2163 0.0000 0.0000 0.0000
# 2 56.9784 147.9092 44.0906 0.0000 0.0000 0.0000
# 3 22.2163 44.0906 56.7465 0.0000 0.0000 0.0000
# 4 0.0000 0.0000 0.0000 17.5042 0.0000 0.0000
# 5 0.0000 0.0000 0.0000 0.0000 15.3334 0.0000
# 6 0.0000 0.0000 0.0000 0.0000 0.0000 24.6242
#
#
#
# Elastic Compliance Matrix: (Units=1/GPa)
#
#
# Indices 1 2 3 4 5 6 
#
# 1 0.022730 -0.007943 -0.002727 0.000000 0.000000 0.000000
# 2 -0.007943 0.011575 -0.005883 0.000000 0.000000 0.000000
# 3 -0.002727 -0.005883 0.023261 0.000000 0.000000 0.000000
# 4 0.000000 0.000000 0.000000 0.057129 0.000000 0.000000
# 5 0.000000 0.000000 0.000000 0.000000 0.065217 0.000000
# 6 0.000000 0.000000 0.000000 0.000000 0.000000 0.040610
#
#
# Mechanical properties :
#
#
# Convention : Reuss Voigt Hill
#
# Bulk Modulus (GPa) = 40.88582 57.53308 49.20945
# Shear Modulus (GPa) = 19.09975 21.35514 20.22745
#
# Velocity S-wave (km/s) = 3.27671 3.46478 3.37206
# Velocity P-wave (km/s) = 6.10734 6.95329 6.54400
#
# Compressibility (1/GPa) = 0.02445836
#
# Stress axis : x y z
#
# Youngs Moduli (GPa) = 43.99414 86.39529 42.99004
#
# Poissons Ratio (x) = 0.68627 0.11724
# Poissons Ratio (y) = 0.34946 0.25293
# Poissons Ratio (z) = 0.11998 0.50830
#
# Static dielectric constant tensor:
#      x y z
#    x 3.194980 0.000000 0.000000 
#    y 0.000000 3.555760 0.000000 
#    z 0.000000 0.000000 3.356790 
# 
# 
# High freq. dielectric constant tensor:
#      x y z
#    x 1.666510 0.000000 0.000000 
#    y 0.000000 1.693730 0.000000 
#    z 0.000000 0.000000 1.672350 
# 
# From -- ./inp_files/56724.got.cif
#   From: 2010.06.25/outbox.cif.g09.slc.cpg/sg71_29_cif.got.tgz:56724.got - 2010.06.28 04:59:45.
