data_PCOD8287269
_publ_section_title
;
Structure prediction by ZEFSAII (Michael W. Deem and Ramdas Pophale) SiO2 
 PCOD8287269
Probable space group: I M M M
;
_chemical_formula_sum "Si O2"
_cell_formula_units_Z 88
_cell_length_a 23.931598
_cell_length_b 30.288088
_cell_length_c 8.748971
_cell_angle_alpha 90.000000
_cell_angle_beta 90.000000
_cell_angle_gamma 90.000000
_cell_volume 6341.624667
_symmetry_space_group_name_H-M "I M M M"
_symmetry_group_IT_number 71
_symmetry_cell_setting 'orthorhombic'
loop_
_space_group_symop_operation_xyz
x,y,z
-x,-y,z
x,-y,-z
-x,y,-z
-x,-y,-z
x,y,-z
-x,y,z
x,-y,z
1/2+x,1/2+y,1/2+z
1/2-x,1/2-y,1/2+z
1/2+x,1/2-y,1/2-z
1/2-x,1/2+y,1/2-z
1/2-x,1/2-y,1/2-z
1/2+x,1/2+y,1/2-z
1/2-x,1/2+y,1/2+z
1/2+x,1/2-y,1/2+z
loop_
_atom_site_type_symbol
_atom_site_label
_atom_site_fract_x
_atom_site_fract_y
_atom_site_fract_z
Si Si1 0.615333 0.256363 0.179836
Si Si2 0.000000 0.240431 0.171571
Si Si3 0.000000 0.863814 0.827349
Si Si4 0.564636 0.500000 0.319101
Si Si5 0.278987 0.790781 0.176192
Si Si6 0.176382 0.158857 0.180561
Si Si7 0.102978 0.910391 0.680452
O O1 0.554812 0.242495 0.241175
O O2 0.654853 0.213015 0.214743
O O3 0.638918 0.299938 0.262848
O O4 0.612244 0.266727 0.000000
O O5 0.000000 0.188129 0.167838
O O6 0.000000 0.259595 0.000000
O O7 0.053408 0.879203 0.735143
O O8 0.000000 0.883750 0.000000
O O9 0.500000 0.500000 0.262459
O O10 0.567147 0.500000 0.500000
O O11 0.597524 0.458066 0.255875
O O12 0.250000 0.750000 0.250000
O O13 0.242782 0.834207 0.222622
O O14 0.269508 0.783728 0.000000
O O15 0.159747 0.113500 0.264856
O O16 0.165777 0.153621 0.000000
O O17 0.102178 0.915836 0.500000
#
# Coordination Sequence:
#
# PCOD8287269 Si02
#       7
#    16   8   8   8  16  16  16
#     4  10  18  28  42  60  80 103 134 170 204 237
#     4  11  21  29  40  58  82 110 138 168 207 249
#     4  11  21  32  44  57  78 106 137 169 207 251
#     4  11  23  37  51  61  78 106 134 165 210 257
#     4   8  16  28  42  59  78 101 129 163 201 239
#     4  10  18  30  45  60  80 104 131 164 204 248
#     4  12  23  33  47  64  80 100 133 172 210 248
#
# _framework density 13.876571
#
# number of rings (size 3 to 8) (size 9 to 14) (size 15 to 20)
#    0.000    1.727    2.727    3.545    0.000    2.545 
#    0.000    0.000    0.000    0.000    0.000    0.000 
#    0.000    0.000    0.000    0.000    0.000    0.909 
#
# Total GULP energy -545174.362329 kJ/mol
# GULP energy per Si atom -12390.326417 kJ/mol
# Density = 1.384499 g / cm^3
# Si number density = 13.876571 Si / 1000 Ang^3
#
#
#
# Elastic Constant Matrix: (Units=GPa)
#
#
# Indices 1 2 3 4 5 6 
#
# 1 97.8724 47.6404 34.2836 0.0000 0.0000 0.0000
# 2 47.6404 60.4876 29.3197 0.0000 0.0000 0.0000
# 3 34.2836 29.3197 70.5144 0.0000 0.0000 0.0000
# 4 0.0000 0.0000 0.0000 17.7147 0.0000 0.0000
# 5 0.0000 0.0000 0.0000 0.0000 2.8398 0.0000
# 6 0.0000 0.0000 0.0000 0.0000 0.0000 28.1383
#
#
#
# Elastic Compliance Matrix: (Units=1/GPa)
#
#
# Indices 1 2 3 4 5 6 
#
# 1 0.017204 -0.011892 -0.003420 0.000000 0.000000 0.000000
# 2 -0.011892 0.028926 -0.006245 0.000000 0.000000 0.000000
# 3 -0.003420 -0.006245 0.018441 0.000000 0.000000 0.000000
# 4 0.000000 0.000000 0.000000 0.056450 0.000000 0.000000
# 5 0.000000 0.000000 0.000000 0.000000 0.352137 0.000000
# 6 0.000000 0.000000 0.000000 0.000000 0.000000 0.035539
#
#
# Mechanical properties :
#
#
# Convention : Reuss Voigt Hill
#
# Bulk Modulus (GPa) = 46.60666 50.15133 48.37899
# Shear Modulus (GPa) = 8.94512 17.58062 13.26287
#
# Velocity S-wave (km/s) = 2.54169 3.56326 3.09491
# Velocity P-wave (km/s) = 6.50178 7.29030 6.90730
#
# Compressibility (1/GPa) = 0.02145616
#
# Stress axis : x y z
#
# Youngs Moduli (GPa) = 58.12610 34.57084 54.22718
#
# Poissons Ratio (x) = 0.41113 0.18544
# Poissons Ratio (y) = 0.69126 0.33867
# Poissons Ratio (z) = 0.19877 0.21591
#
# Static dielectric constant tensor:
#      x y z
#    x 3.401200 0.000000 0.000000 
#    y 0.000000 2.644500 0.000000 
#    z 0.000000 0.000000 2.726740 
# 
# 
# High freq. dielectric constant tensor:
#      x y z
#    x 1.522110 0.000000 0.000000 
#    y 0.000000 1.483130 0.000000 
#    z 0.000000 0.000000 1.550600 
# 
# From -- ./inp_files/13575.got.cif
#   From: 2010.06.25/outbox.cif.g09.slc.cpg/sg71_7_cif.got.tgz:13575.got - 2010.06.28 04:59:45.
