data_PCOD8287945
_publ_section_title
;
Structure prediction by ZEFSAII (Michael W. Deem and Ramdas Pophale) SiO2 
 PCOD8287945
Probable space group: I M M M
;
_chemical_formula_sum "Si O2"
_cell_formula_units_Z 88
_cell_length_a 15.064299
_cell_length_b 26.132538
_cell_length_c 11.828080
_cell_angle_alpha 90.000000
_cell_angle_beta 90.000000
_cell_angle_gamma 90.000000
_cell_volume 4656.340927
_symmetry_space_group_name_H-M "I M M M"
_symmetry_group_IT_number 71
_symmetry_cell_setting 'orthorhombic'
loop_
_space_group_symop_operation_xyz
x,y,z
-x,-y,z
x,-y,-z
-x,y,-z
-x,-y,-z
x,y,-z
-x,y,z
x,-y,z
1/2+x,1/2+y,1/2+z
1/2-x,1/2-y,1/2+z
1/2+x,1/2-y,1/2-z
1/2-x,1/2+y,1/2-z
1/2-x,1/2-y,1/2-z
1/2+x,1/2+y,1/2-z
1/2-x,1/2+y,1/2+z
1/2+x,1/2-y,1/2+z
loop_
_atom_site_type_symbol
_atom_site_label
_atom_site_fract_x
_atom_site_fract_y
_atom_site_fract_z
Si Si1 0.190926 0.059335 0.874752
Si Si2 0.894741 0.560596 0.000000
Si Si3 0.500000 0.645565 0.865968
Si Si4 0.170916 0.201633 0.631922
Si Si5 0.810321 0.622316 0.792877
Si Si6 0.101355 0.692915 0.629063
Si Si7 0.500000 0.442203 0.293687
O O1 0.240790 0.089331 0.776949
O O2 0.086071 0.070343 0.868661
O O3 0.212311 0.000000 0.856076
O O4 0.222593 0.076707 0.000000
O O5 0.853421 0.587318 0.889579
O O6 0.871777 0.500000 0.000000
O O7 0.000000 0.569258 0.000000
O O8 0.413019 0.672638 0.813395
O O9 0.500000 0.587750 0.823739
O O10 0.500000 0.644212 0.000000
O O11 0.153823 0.202044 0.500000
O O12 0.262156 0.172582 0.657533
O O13 0.167630 0.261314 0.670459
O O14 0.885602 0.643355 0.708223
O O15 0.122517 0.676909 0.500000
O O16 0.000000 0.712181 0.639510
O O17 0.500000 0.500000 0.252363
#
# Coordination Sequence:
#
# PCOD8287945 Si02
#       7
#    16   8   8  16  16  16   8
#     4  10  21  36  55  81 113 150 193 242 294 348
#     4  11  26  46  64  85 119 159 193 238 306 365
#     4  10  18  32  53  80 118 157 186 230 294 348
#     4  10  19  35  57  84 115 152 187 233 291 344
#     4  12  21  37  61  88 112 146 197 246 283 343
#     4  10  21  37  58  84 113 150 191 233 289 349
#     4  10  19  33  52  77 115 161 198 233 292 356
#
# _framework density 18.898959000000001
#
# number of rings (size 3 to 8) (size 9 to 14) (size 15 to 20)
#    0.000    1.545    3.636    2.455    0.000    1.273 
#    0.000    0.000    0.000    0.000    0.000    7.636 
#    0.000    0.000    0.000    0.000    0.000    0.000 
#
# Total GULP energy -545405.217129 kJ/mol
# GULP energy per Si atom -12395.573117 kJ/mol
# Density = 1.885594 g / cm^3
# Si number density = 18.898959 Si / 1000 Ang^3
#
#
#
# Elastic Constant Matrix: (Units=GPa)
#
#
# Indices 1 2 3 4 5 6 
#
# 1 82.4233 44.5116 36.3736 -0.0001 0.0000 0.0000
# 2 44.5116 107.4199 67.2978 -0.0002 0.0000 -0.0001
# 3 36.3736 67.2978 94.3105 -0.0006 -0.0001 -0.0002
# 4 -0.0001 -0.0002 -0.0006 34.7937 -0.0001 -0.0002
# 5 0.0000 0.0000 -0.0001 -0.0001 25.5542 0.0001
# 6 0.0000 -0.0001 -0.0002 -0.0002 0.0001 31.7584
#
#
#
# Elastic Compliance Matrix: (Units=1/GPa)
#
#
# Indices 1 2 3 4 5 6 
#
# 1 0.015975 -0.004991 -0.002600 0.000000 0.000000 0.000000
# 2 -0.004991 0.018395 -0.011201 0.000000 0.000000 0.000000
# 3 -0.002600 -0.011201 0.019599 0.000000 0.000000 0.000000
# 4 0.000000 0.000000 0.000000 0.028741 0.000000 0.000000
# 5 0.000000 0.000000 0.000000 0.000000 0.039133 0.000000
# 6 0.000000 0.000000 0.000000 0.000000 0.000000 0.031488
#
#
# Mechanical properties :
#
#
# Convention : Reuss Voigt Hill
#
# Bulk Modulus (GPa) = 61.03185 64.50217 62.76701
# Shear Modulus (GPa) = 25.46142 27.48597 26.47370
#
# Velocity S-wave (km/s) = 3.67446 3.81775 3.74679
# Velocity P-wave (km/s) = 7.09691 7.32378 7.21123
#
# Compressibility (1/GPa) = 0.01638489
#
# Stress axis : x y z
#
# Youngs Moduli (GPa) = 62.59772 54.36325 51.02297
#
# Poissons Ratio (x) = 0.27131 0.13266
# Poissons Ratio (y) = 0.31241 0.57152
# Poissons Ratio (z) = 0.16275 0.60894
#
# Static dielectric constant tensor:
#      x y z
#    x 3.429830 0.000000 0.000000 
#    y 0.000000 3.529550 0.000000 
#    z 0.000000 0.000000 3.344690 
# 
# 
# High freq. dielectric constant tensor:
#      x y z
#    x 1.732260 0.000000 0.000000 
#    y 0.000000 1.738730 0.000000 
#    z 0.000000 0.000000 1.728660 
# 
# From -- ./inp_files/22366.got.cif
#   From: 2010.06.25/outbox.cif.g09.slc.cpg/sg71_12_cif.got.tgz:22366.got - 2010.06.28 04:59:45.
