data_PCOD8287185
_publ_section_title
;
Structure prediction by ZEFSAII (Michael W. Deem and Ramdas Pophale) SiO2 
 PCOD8287185
Probable space group: I M M M
;
_chemical_formula_sum "Si O2"
_cell_formula_units_Z 112
_cell_length_a 24.200777
_cell_length_b 16.842438
_cell_length_c 16.655503
_cell_angle_alpha 90.000000
_cell_angle_beta 90.000000
_cell_angle_gamma 90.000000
_cell_volume 6788.784458
_symmetry_space_group_name_H-M "I M M M"
_symmetry_group_IT_number 71
_symmetry_cell_setting 'orthorhombic'
loop_
_space_group_symop_operation_xyz
x,y,z
-x,-y,z
x,-y,-z
-x,y,-z
-x,-y,-z
x,y,-z
-x,y,z
x,-y,z
1/2+x,1/2+y,1/2+z
1/2-x,1/2-y,1/2+z
1/2+x,1/2-y,1/2-z
1/2-x,1/2+y,1/2-z
1/2-x,1/2-y,1/2-z
1/2+x,1/2+y,1/2-z
1/2-x,1/2+y,1/2+z
1/2+x,1/2-y,1/2+z
loop_
_atom_site_type_symbol
_atom_site_label
_atom_site_fract_x
_atom_site_fract_y
_atom_site_fract_z
Si Si1 0.438395 0.410053 0.667389
Si Si2 0.257823 0.092853 0.736857
Si Si3 0.658798 0.200839 0.815168
Si Si4 0.249344 0.709688 0.907808
Si Si5 0.937295 0.253095 0.408510
Si Si6 0.563364 0.414858 0.143080
Si Si7 0.165410 0.182784 0.170814
O O1 0.500000 0.378513 0.643996
O O2 0.432106 0.500000 0.636013
O O3 0.430238 0.406167 0.762315
O O4 0.389364 0.356198 0.630460
O O5 0.312518 0.119822 0.785732
O O6 0.257190 0.133498 0.649476
O O7 0.204101 0.115691 0.788815
O O8 0.259748 0.000000 0.723102
O O9 0.696278 0.243063 0.882049
O O10 0.599466 0.185205 0.856981
O O11 0.647904 0.256214 0.739326
O O12 0.197494 0.769430 0.898277
O O13 0.253579 0.681932 0.000000
O O14 0.935322 0.279972 0.500000
O O15 0.911399 0.163439 0.399209
O O16 0.000000 0.255462 0.375268
O O17 0.500000 0.419318 0.117164
O O18 0.591119 0.500000 0.116420
#
# Coordination Sequence:
#
# PCOD8287185 Si02
#       7
#    16  16  16  16  16  16  16
#     4   9  15  23  40  65  91 119 148 180 214 247
#     4   9  18  31  49  70  87 113 151 188 228 264
#     4   9  17  30  46  63  90 122 151 185 215 255
#     4   9  18  31  47  68  92 118 145 180 229 271
#     4  10  18  26  40  62  90 125 156 183 218 260
#     4   8  14  23  34  53  85 122 153 177 203 241
#     4   9  16  28  47  66  89 122 153 181 209 255
#
# _framework density 16.497799000000001
#
# number of rings (size 3 to 8) (size 9 to 14) (size 15 to 20)
#    0.000    3.000    1.429    3.429    0.000    0.571 
#    0.000    1.429    0.000   17.143    0.000    2.000 
#    0.000    0.000    0.000    6.286    0.000    0.000 
#
# Total GULP energy -693864.614375 kJ/mol
# GULP energy per Si atom -12390.439542 kJ/mol
# Density = 1.646025 g / cm^3
# Si number density = 16.497799 Si / 1000 Ang^3
#
#
#
# Elastic Constant Matrix: (Units=GPa)
#
#
# Indices 1 2 3 4 5 6 
#
# 1 86.2537 32.1304 13.6944 0.0000 0.0000 0.0000
# 2 32.1304 76.1975 19.0184 0.0000 0.0000 0.0000
# 3 13.6944 19.0184 53.4774 0.0000 0.0000 0.0000
# 4 0.0000 0.0000 0.0000 12.1706 0.0000 0.0000
# 5 0.0000 0.0000 0.0000 0.0000 18.1310 0.0000
# 6 0.0000 0.0000 0.0000 0.0000 0.0000 23.6188
#
#
#
# Elastic Compliance Matrix: (Units=1/GPa)
#
#
# Indices 1 2 3 4 5 6 
#
# 1 0.013880 -0.005450 -0.001616 0.000000 0.000000 0.000000
# 2 -0.005450 0.016542 -0.004487 0.000000 0.000000 0.000000
# 3 -0.001616 -0.004487 0.020709 0.000000 0.000000 0.000000
# 4 0.000000 0.000000 0.000000 0.082165 0.000000 0.000000
# 5 0.000000 0.000000 0.000000 0.000000 0.055154 0.000000
# 6 0.000000 0.000000 0.000000 0.000000 0.000000 0.042339
#
#
# Mechanical properties :
#
#
# Convention : Reuss Voigt Hill
#
# Bulk Modulus (GPa) = 35.68263 38.40167 37.04215
# Shear Modulus (GPa) = 18.99420 20.85643 19.92532
#
# Velocity S-wave (km/s) = 3.39679 3.55941 3.47905
# Velocity P-wave (km/s) = 6.08768 6.34192 6.21610
#
# Compressibility (1/GPa) = 0.02802484
#
# Stress axis : x y z
#
# Youngs Moduli (GPa) = 72.04438 60.45329 48.28762
#
# Poissons Ratio (x) = 0.32944 0.07805
# Poissons Ratio (y) = 0.39261 0.21668
# Poissons Ratio (z) = 0.11645 0.27127
#
# Static dielectric constant tensor:
#      x y z
#    x 3.254850 0.000000 0.000000 
#    y 0.000000 2.949770 0.000000 
#    z 0.000000 0.000000 2.795030 
# 
# 
# High freq. dielectric constant tensor:
#      x y z
#    x 1.632920 0.000000 0.000000 
#    y 0.000000 1.604030 0.000000 
#    z 0.000000 0.000000 1.607020 
# 
# From -- ./inp_files/40385.got.cif
#   From: 2010.06.25/outbox.cif.g09.slc.cpg/sg71_21_cif.got.tgz:40385.got - 2010.06.28 04:59:45.
