data_PCOD8287335
_publ_section_title
;
Structure prediction by ZEFSAII (Michael W. Deem and Ramdas Pophale) SiO2 
 PCOD8287335
Probable space group: I M M M
;
_chemical_formula_sum "Si O2"
_cell_formula_units_Z 80
_cell_length_a 9.425235
_cell_length_b 23.598707
_cell_length_c 23.622093
_cell_angle_alpha 90.000000
_cell_angle_beta 90.000000
_cell_angle_gamma 90.000000
_cell_volume 5254.105276
_symmetry_space_group_name_H-M "I M M M"
_symmetry_group_IT_number 71
_symmetry_cell_setting 'orthorhombic'
loop_
_space_group_symop_operation_xyz
x,y,z
-x,-y,z
x,-y,-z
-x,y,-z
-x,-y,-z
x,y,-z
-x,y,z
x,-y,z
1/2+x,1/2+y,1/2+z
1/2-x,1/2-y,1/2+z
1/2+x,1/2-y,1/2-z
1/2-x,1/2+y,1/2-z
1/2-x,1/2-y,1/2-z
1/2+x,1/2+y,1/2-z
1/2-x,1/2+y,1/2+z
1/2+x,1/2-y,1/2+z
loop_
_atom_site_type_symbol
_atom_site_label
_atom_site_fract_x
_atom_site_fract_y
_atom_site_fract_z
Si Si1 0.836809 0.163998 0.563698
Si Si2 0.163736 0.435605 0.759390
Si Si3 0.164580 0.833259 0.776556
Si Si4 0.836240 0.240015 0.333832
Si Si5 0.163919 0.563929 0.890021
O O1 0.813505 0.186694 0.500000
O O2 0.785374 0.212400 0.607129
O O3 0.752923 0.105812 0.571173
O O4 0.000000 0.149874 0.576223
O O5 0.188198 0.500000 0.738864
O O6 0.262871 0.394882 0.722187
O O7 0.207908 0.429555 0.824723
O O8 0.000000 0.418064 0.751135
O O9 0.188884 0.806027 0.715094
O O10 0.238644 0.794675 0.824122
O O11 0.000000 0.839526 0.791861
O O12 0.000000 0.259352 0.335556
O O13 0.194558 0.500000 0.910497
O O14 0.000000 0.579122 0.897846
#
# Coordination Sequence:
#
# PCOD8287335 Si02
#       5
#    16  16  16  16  16
#     4  10  20  33  47  63  85 114 151 191 226 260
#     4   9  17  29  45  65  90 119 147 178 219 263
#     4  10  18  28  46  68  87 112 145 182 221 264
#     4   9  18  31  44  62  87 115 145 180 224 266
#     4   9  18  31  45  61  84 116 153 189 223 259
#
# _framework density 15.226188
#
# number of rings (size 3 to 8) (size 9 to 14) (size 15 to 20)
#    0.000    2.600    2.000    1.800    0.000    3.200 
#    0.000    4.000    0.000    0.000    0.000    0.000 
#    0.000    0.800    0.000    9.200    0.000    2.600 
#
# Total GULP energy -496031.857436 kJ/mol
# GULP energy per Si atom -12400.796436 kJ/mol
# Density = 1.519153 g / cm^3
# Si number density = 15.226188 Si / 1000 Ang^3
#
#
#
# Elastic Constant Matrix: (Units=GPa)
#
#
# Indices 1 2 3 4 5 6 
#
# 1 71.3807 53.6977 35.8318 0.0000 0.0000 0.0000
# 2 53.6977 90.8403 47.7284 0.0000 0.0000 0.0000
# 3 35.8318 47.7284 71.6722 0.0000 0.0000 0.0000
# 4 0.0000 0.0000 0.0000 22.3916 0.0000 0.0000
# 5 0.0000 0.0000 0.0000 0.0000 17.0380 0.0000
# 6 0.0000 0.0000 0.0000 0.0000 0.0000 30.9636
#
#
#
# Elastic Compliance Matrix: (Units=1/GPa)
#
#
# Indices 1 2 3 4 5 6 
#
# 1 0.026046 -0.013159 -0.004259 0.000000 0.000000 0.000000
# 2 -0.013159 0.023581 -0.009125 0.000000 0.000000 0.000000
# 3 -0.004259 -0.009125 0.022158 0.000000 0.000000 0.000000
# 4 0.000000 0.000000 0.000000 0.044660 0.000000 0.000000
# 5 0.000000 0.000000 0.000000 0.000000 0.058692 0.000000
# 6 0.000000 0.000000 0.000000 0.000000 0.000000 0.032296
#
#
# Mechanical properties :
#
#
# Convention : Reuss Voigt Hill
#
# Bulk Modulus (GPa) = 53.47389 56.48988 54.98189
# Shear Modulus (GPa) = 18.74408 20.52100 19.63254
#
# Velocity S-wave (km/s) = 3.51243 3.67515 3.59471
# Velocity P-wave (km/s) = 7.18648 7.42899 7.30874
#
# Compressibility (1/GPa) = 0.01870071
#
# Stress axis : x y z
#
# Youngs Moduli (GPa) = 38.39314 42.40695 45.13100
#
# Poissons Ratio (x) = 0.55803 0.19220
# Poissons Ratio (y) = 0.50522 0.41180
# Poissons Ratio (z) = 0.16350 0.38694
#
# Static dielectric constant tensor:
#      x y z
#    x 2.918950 0.000000 0.000000 
#    y 0.000000 2.855750 0.000000 
#    z 0.000000 0.000000 2.704680 
# 
# 
# High freq. dielectric constant tensor:
#      x y z
#    x 1.588840 0.000000 0.000000 
#    y 0.000000 1.575450 0.000000 
#    z 0.000000 0.000000 1.545680 
# 
# From -- ./inp_files/63041.got.cif
#   From: 2010.06.25/outbox.cif.g09.slc.cpg/sg71_32_cif.got.tgz:63041.got - 2010.06.28 04:59:45.
