data_PCOD8287605
_publ_section_title
;
Structure prediction by ZEFSAII (Michael W. Deem and Ramdas Pophale) SiO2 
 PCOD8287605
Probable space group: I M M M
;
_chemical_formula_sum "Si O2"
_cell_formula_units_Z 112
_cell_length_a 20.872660
_cell_length_b 18.770064
_cell_length_c 17.303429
_cell_angle_alpha 90.000000
_cell_angle_beta 90.000000
_cell_angle_gamma 90.000000
_cell_volume 6779.157556
_symmetry_space_group_name_H-M "I M M M"
_symmetry_group_IT_number 71
_symmetry_cell_setting 'orthorhombic'
loop_
_space_group_symop_operation_xyz
x,y,z
-x,-y,z
x,-y,-z
-x,y,-z
-x,-y,-z
x,y,-z
-x,y,z
x,-y,z
1/2+x,1/2+y,1/2+z
1/2-x,1/2-y,1/2+z
1/2+x,1/2-y,1/2-z
1/2-x,1/2+y,1/2-z
1/2-x,1/2-y,1/2-z
1/2+x,1/2+y,1/2-z
1/2-x,1/2+y,1/2+z
1/2+x,1/2-y,1/2+z
loop_
_atom_site_type_symbol
_atom_site_label
_atom_site_fract_x
_atom_site_fract_y
_atom_site_fract_z
Si Si1 0.337808 0.698937 0.801056
Si Si2 0.322394 0.582785 0.589260
Si Si3 0.166007 0.419222 0.175881
Si Si4 0.797242 0.080807 0.409711
Si Si5 0.724466 0.158436 0.812480
Si Si6 0.573969 0.819596 0.586856
Si Si7 0.573971 0.326213 0.331313
O O1 0.342179 0.637559 0.866047
O O2 0.321786 0.776176 0.838645
O O3 0.282652 0.685439 0.739272
O O4 0.404980 0.698411 0.754899
O O5 0.335996 0.598398 0.500000
O O6 0.313302 0.500000 0.606854
O O7 0.255903 0.621649 0.612643
O O8 0.383433 0.608039 0.639089
O O9 0.141937 0.500000 0.175396
O O10 0.224872 0.407844 0.117776
O O11 0.183676 0.398373 0.263400
O O12 0.109067 0.370137 0.146882
O O13 0.801454 0.096488 0.500000
O O14 0.819849 0.000000 0.390409
O O15 0.600086 0.830951 0.500000
O O16 0.500000 0.839832 0.591972
O O17 0.585558 0.737961 0.609250
O O18 0.500000 0.349828 0.328687
#
# Coordination Sequence:
#
# PCOD8287605 Si02
#       7
#    16  16  16  16  16  16  16
#     4   9  17  30  50  71  93 123 167 202 243 290
#     4  10  21  34  49  73 103 132 165 209 256 299
#     4  10  18  30  48  68  95 131 163 195 240 294
#     4   9  18  30  46  72 102 127 154 196 248 299
#     4   9  17  31  48  71  95 126 162 209 249 291
#     4  10  20  32  46  67  97 132 167 203 241 285
#     4  10  20  35  52  70  96 133 172 206 240 290
#
# _framework density 16.521227
#
# number of rings (size 3 to 8) (size 9 to 14) (size 15 to 20)
#    0.000    2.429    1.429    1.286    2.000    6.286 
#    0.000    1.429    0.000    0.429    0.000    1.000 
#    0.000    0.571    0.000    4.857    0.000    0.000 
#
# Total GULP energy -694334.754776 kJ/mol
# GULP energy per Si atom -12398.834907 kJ/mol
# Density = 1.648362 g / cm^3
# Si number density = 16.521227 Si / 1000 Ang^3
#
#
#
# Elastic Constant Matrix: (Units=GPa)
#
#
# Indices 1 2 3 4 5 6 
#
# 1 56.8381 42.2465 42.0866 0.0000 0.0000 0.0000
# 2 42.2465 83.3148 41.9310 0.0000 0.0000 0.0000
# 3 42.0866 41.9310 67.4318 0.0000 0.0000 0.0000
# 4 0.0000 0.0000 0.0000 29.3360 0.0000 0.0000
# 5 0.0000 0.0000 0.0000 0.0000 20.8775 0.0000
# 6 0.0000 0.0000 0.0000 0.0000 0.0000 20.3709
#
#
#
# Elastic Compliance Matrix: (Units=1/GPa)
#
#
# Indices 1 2 3 4 5 6 
#
# 1 0.038379 -0.010779 -0.017251 0.000000 0.000000 0.000000
# 2 -0.010779 0.020497 -0.006018 0.000000 0.000000 0.000000
# 3 -0.017251 -0.006018 0.029339 0.000000 0.000000 0.000000
# 4 0.000000 0.000000 0.000000 0.034088 0.000000 0.000000
# 5 0.000000 0.000000 0.000000 0.000000 0.047899 0.000000
# 6 0.000000 0.000000 0.000000 0.000000 0.000000 0.049090
#
#
# Mechanical properties :
#
#
# Convention : Reuss Voigt Hill
#
# Bulk Modulus (GPa) = 49.70423 51.12364 50.41394
# Shear Modulus (GPa) = 17.00128 19.53826 18.26977
#
# Velocity S-wave (km/s) = 3.21137 3.44265 3.32902
# Velocity P-wave (km/s) = 6.62578 6.84206 6.73479
#
# Compressibility (1/GPa) = 0.02011901
#
# Stress axis : x y z
#
# Youngs Moduli (GPa) = 26.05558 48.78723 34.08383
#
# Poissons Ratio (x) = 0.52586 0.58800
# Poissons Ratio (y) = 0.28085 0.20513
# Poissons Ratio (z) = 0.44950 0.29362
#
# Static dielectric constant tensor:
#      x y z
#    x 2.956460 0.000000 0.000000 
#    y 0.000000 3.252440 0.000000 
#    z 0.000000 0.000000 3.056860 
# 
# 
# High freq. dielectric constant tensor:
#      x y z
#    x 1.605350 0.000000 0.000000 
#    y 0.000000 1.647260 0.000000 
#    z 0.000000 0.000000 1.624520 
# 
# From -- ./inp_files/46376.got.cif
#   From: 2010.06.25/outbox.cif.g09.slc.cpg/sg71_24_cif.got.tgz:46376.got - 2010.06.28 04:59:45.
