data_PCOD8287172
_publ_section_title
;
Structure prediction by ZEFSAII (Michael W. Deem and Ramdas Pophale) SiO2 
 PCOD8287172
Probable space group: I M M M
;
_chemical_formula_sum "Si O2"
_cell_formula_units_Z 88
_cell_length_a 14.025396
_cell_length_b 13.735860
_cell_length_c 32.016549
_cell_angle_alpha 90.000000
_cell_angle_beta 90.000000
_cell_angle_gamma 90.000000
_cell_volume 6168.016208
_symmetry_space_group_name_H-M "I M M M"
_symmetry_group_IT_number 71
_symmetry_cell_setting 'orthorhombic'
loop_
_space_group_symop_operation_xyz
x,y,z
-x,-y,z
x,-y,-z
-x,y,-z
-x,-y,-z
x,y,-z
-x,y,z
x,-y,z
1/2+x,1/2+y,1/2+z
1/2-x,1/2-y,1/2+z
1/2+x,1/2-y,1/2-z
1/2-x,1/2+y,1/2-z
1/2-x,1/2-y,1/2-z
1/2+x,1/2+y,1/2-z
1/2-x,1/2+y,1/2+z
1/2+x,1/2-y,1/2+z
loop_
_atom_site_type_symbol
_atom_site_label
_atom_site_fract_x
_atom_site_fract_y
_atom_site_fract_z
Si Si1 0.112499 0.701238 0.413976
Si Si2 0.204068 0.388858 0.665835
Si Si3 0.893232 0.888716 0.792462
Si Si4 0.887622 0.782388 0.708855
Si Si5 0.612107 0.393463 0.871451
Si Si6 0.613023 0.109765 0.000000
O O1 0.170684 0.639214 0.380316
O O2 0.135793 0.816112 0.408246
O O3 0.148834 0.667937 0.459337
O O4 0.000000 0.680838 0.407484
O O5 0.175632 0.500000 0.674656
O O6 0.318967 0.374161 0.669578
O O7 0.153961 0.325232 0.701810
O O8 0.858262 0.822313 0.753958
O O9 0.000000 0.859302 0.807458
O O10 0.893127 0.000000 0.776591
O O11 0.846734 0.853159 0.672456
O O12 0.000000 0.775456 0.704313
O O13 0.500000 0.405367 0.867162
O O14 0.657386 0.500000 0.881483
O O15 0.500000 0.105591 0.000000
O O16 0.654665 0.000000 0.000000
#
# Coordination Sequence:
#
# PCOD8287172 Si02
#       6
#    16  16  16  16  16   8
#     4   9  17  27  39  57  78  98 123 154 187 227
#     4  10  18  26  38  56  77 100 126 157 190 222
#     4   9  17  28  40  54  73  99 131 162 188 216
#     4   9  16  25  38  55  76 101 127 154 183 220
#     4   8  13  22  36  53  74 100 126 150 177 210
#     4   9  16  26  39  53  74 104 129 148 179 229
#
# _framework density 14.267148000000001
#
# number of rings (size 3 to 8) (size 9 to 14) (size 15 to 20)
#    0.000    3.000    0.000    3.273    0.000    4.364 
#    0.000    0.455    0.000    2.727    0.000    0.636 
#    0.000    3.636    0.000    0.000    0.000    7.273 
#
# Total GULP energy -545282.417274 kJ/mol
# GULP energy per Si atom -12392.782211 kJ/mol
# Density = 1.423467 g / cm^3
# Si number density = 14.267148 Si / 1000 Ang^3
#
#
#
# Elastic Constant Matrix: (Units=GPa)
#
#
# Indices 1 2 3 4 5 6 
#
# 1 34.0403 29.1891 41.9106 0.0000 0.0000 0.0000
# 2 29.1891 115.8425 50.0901 0.0000 0.0000 0.0000
# 3 41.9106 50.0901 90.1268 0.0000 0.0000 0.0000
# 4 0.0000 0.0000 0.0000 18.7231 0.0000 0.0000
# 5 0.0000 0.0000 0.0000 0.0000 14.8841 0.0000
# 6 0.0000 0.0000 0.0000 0.0000 0.0000 13.3250
#
#
#
# Elastic Compliance Matrix: (Units=1/GPa)
#
#
# Indices 1 2 3 4 5 6 
#
# 1 0.070641 -0.004733 -0.030219 0.000000 0.000000 0.000000
# 2 -0.004733 0.011680 -0.004291 0.000000 0.000000 0.000000
# 3 -0.030219 -0.004291 0.027532 0.000000 0.000000 0.000000
# 4 0.000000 0.000000 0.000000 0.053410 0.000000 0.000000
# 5 0.000000 0.000000 0.000000 0.000000 0.067186 0.000000
# 6 0.000000 0.000000 0.000000 0.000000 0.000000 0.075047
#
#
# Mechanical properties :
#
#
# Convention : Reuss Voigt Hill
#
# Bulk Modulus (GPa) = 31.87893 53.59879 42.73886
# Shear Modulus (GPa) = 12.67628 17.30777 14.99202
#
# Velocity S-wave (km/s) = 2.98400 3.48677 3.24513
# Velocity P-wave (km/s) = 5.85364 7.33891 6.63795
#
# Compressibility (1/GPa) = 0.03136868
#
# Stress axis : x y z
#
# Youngs Moduli (GPa) = 14.15608 85.61450 36.32082
#
# Poissons Ratio (x) = 0.40521 1.09757
# Poissons Ratio (y) = 0.06700 0.15584
# Poissons Ratio (z) = 0.42778 0.36734
#
# Static dielectric constant tensor:
#      x y z
#    x 2.563340 0.000000 0.000000 
#    y 0.000000 3.059640 0.000000 
#    z 0.000000 0.000000 2.721170 
# 
# 
# High freq. dielectric constant tensor:
#      x y z
#    x 1.504290 0.000000 0.000000 
#    y 0.000000 1.557100 0.000000 
#    z 0.000000 0.000000 1.525310 
# 
# From -- ./inp_files/33097.got.cif
#   From: 2010.06.25/outbox.cif.g09.slc.cpg/sg71_17_cif.got.tgz:33097.got - 2010.06.28 04:59:45.
