data_PCOD8287866
_publ_section_title
;
Structure prediction by ZEFSAII (Michael W. Deem and Ramdas Pophale) SiO2 
 PCOD8287866
Probable space group: I M M M
;
_chemical_formula_sum "Si O2"
_cell_formula_units_Z 80
_cell_length_a 24.905625
_cell_length_b 18.662151
_cell_length_c 8.654805
_cell_angle_alpha 90.000000
_cell_angle_beta 90.000000
_cell_angle_gamma 90.000000
_cell_volume 4022.688752
_symmetry_space_group_name_H-M "I M M M"
_symmetry_group_IT_number 71
_symmetry_cell_setting 'orthorhombic'
loop_
_space_group_symop_operation_xyz
x,y,z
-x,-y,z
x,-y,-z
-x,y,-z
-x,-y,-z
x,y,-z
-x,y,z
x,-y,z
1/2+x,1/2+y,1/2+z
1/2-x,1/2-y,1/2+z
1/2+x,1/2-y,1/2-z
1/2-x,1/2+y,1/2-z
1/2-x,1/2-y,1/2-z
1/2+x,1/2+y,1/2-z
1/2-x,1/2+y,1/2+z
1/2+x,1/2-y,1/2+z
loop_
_atom_site_type_symbol
_atom_site_label
_atom_site_fract_x
_atom_site_fract_y
_atom_site_fract_z
Si Si1 0.904032 0.326015 0.182881
Si Si2 0.717199 0.316322 0.819817
Si Si3 0.904103 0.175880 0.681932
Si Si4 0.692705 0.920473 0.680844
Si Si5 0.500000 0.922721 0.682372
Si Si6 0.000000 0.083223 0.182259
O O1 0.921731 0.255474 0.273911
O O2 0.848382 0.360312 0.244409
O O3 0.947193 0.383135 0.236466
O O4 0.903516 0.309601 0.000000
O O5 0.750000 0.250000 0.750000
O O6 0.657274 0.329629 0.752672
O O7 0.747958 0.390693 0.785258
O O8 0.713340 0.299797 0.000000
O O9 0.906112 0.163185 0.500000
O O10 0.945227 0.119280 0.755858
O O11 0.681225 0.928009 0.500000
O O12 0.686470 0.000000 0.756328
O O13 0.500000 0.930137 0.500000
O O14 0.500000 0.000000 0.762517
O O15 0.000000 0.000000 0.232907
O O16 0.000000 0.091786 0.000000
#
# Coordination Sequence:
#
# PCOD8287866 Si02
#       6
#    16  16  16  16   8   8
#     4  10  18  31  54  80 111 152 194 240 287 344
#     4  10  20  35  57  85 118 158 200 248 297 354
#     4  11  23  38  61  90 120 157 196 243 303 362
#     4   9  17  30  51  80 112 150 197 246 293 342
#     4   9  17  28  46  76 106 135 182 237 284 330
#     4  11  26  47  68  90 118 155 202 257 314 372
#
# _framework density 19.887195999999999
#
# number of rings (size 3 to 8) (size 9 to 14) (size 15 to 20)
#    0.000    2.000    2.000    2.100    0.000    5.600 
#    0.000    2.000    0.000    4.800    0.000    0.000 
#    0.000    0.000    0.000    0.000    0.000    0.000 
#
# Total GULP energy -495732.399315 kJ/mol
# GULP energy per Si atom -12393.309983 kJ/mol
# Density = 1.984193 g / cm^3
# Si number density = 19.887196 Si / 1000 Ang^3
#
#
#
# Elastic Constant Matrix: (Units=GPa)
#
#
# Indices 1 2 3 4 5 6 
#
# 1 161.4237 74.1907 32.4052 0.0000 0.0000 0.0000
# 2 74.1907 158.6186 31.3038 0.0000 0.0000 0.0000
# 3 32.4052 31.3038 37.5435 0.0000 0.0000 0.0000
# 4 0.0000 0.0000 0.0000 16.5923 0.0000 0.0000
# 5 0.0000 0.0000 0.0000 0.0000 10.6606 0.0000
# 6 0.0000 0.0000 0.0000 0.0000 0.0000 34.4509
#
#
#
# Elastic Compliance Matrix: (Units=1/GPa)
#
#
# Indices 1 2 3 4 5 6 
#
# 1 0.008572 -0.003051 -0.004854 0.000000 0.000000 0.000000
# 2 -0.003051 0.008632 -0.004564 0.000000 0.000000 0.000000
# 3 -0.004854 -0.004564 0.034631 0.000000 0.000000 0.000000
# 4 0.000000 0.000000 0.000000 0.060269 0.000000 0.000000
# 5 0.000000 0.000000 0.000000 0.000000 0.093803 0.000000
# 6 0.000000 0.000000 0.000000 0.000000 0.000000 0.029027
#
#
# Mechanical properties :
#
#
# Convention : Reuss Voigt Hill
#
# Bulk Modulus (GPa) = 37.18031 70.37614 53.77822
# Shear Modulus (GPa) = 18.59851 26.98652 22.79251
#
# Velocity S-wave (km/s) = 3.06142 3.68772 3.38907
# Velocity P-wave (km/s) = 5.58861 7.32099 6.51266
#
# Compressibility (1/GPa) = 0.02689596
#
# Stress axis : x y z
#
# Youngs Moduli (GPa) = 116.66237 115.84410 28.87561
#
# Poissons Ratio (x) = 0.35347 0.14018
# Poissons Ratio (y) = 0.35596 0.13179
# Poissons Ratio (z) = 0.56634 0.52871
#
# Static dielectric constant tensor:
#      x y z
#    x 3.925290 0.000000 0.000000 
#    y 0.000000 3.800320 0.000000 
#    z 0.000000 0.000000 3.252560 
# 
# 
# High freq. dielectric constant tensor:
#      x y z
#    x 1.793930 0.000000 0.000000 
#    y 0.000000 1.782990 0.000000 
#    z 0.000000 0.000000 1.734160 
# 
# From -- ./inp_files/14591.got.cif
#   From: 2010.06.25/outbox.cif.g09.slc.cpg/sg71_8_cif.got.tgz:14591.got - 2010.06.28 04:59:45.
