data_PCOD8287553
_publ_section_title
;
Structure prediction by ZEFSAII (Michael W. Deem and Ramdas Pophale) SiO2 
 PCOD8287553
Probable space group: I M M M
;
_chemical_formula_sum "Si O2"
_cell_formula_units_Z 96
_cell_length_a 24.966264
_cell_length_b 32.237624
_cell_length_c 7.902753
_cell_angle_alpha 90.000000
_cell_angle_beta 90.000000
_cell_angle_gamma 90.000000
_cell_volume 6360.554709
_symmetry_space_group_name_H-M "I M M M"
_symmetry_group_IT_number 71
_symmetry_cell_setting 'orthorhombic'
loop_
_space_group_symop_operation_xyz
x,y,z
-x,-y,z
x,-y,-z
-x,y,-z
-x,-y,-z
x,y,-z
-x,y,z
x,-y,z
1/2+x,1/2+y,1/2+z
1/2-x,1/2-y,1/2+z
1/2+x,1/2-y,1/2-z
1/2-x,1/2+y,1/2-z
1/2-x,1/2-y,1/2-z
1/2+x,1/2+y,1/2-z
1/2-x,1/2+y,1/2+z
1/2+x,1/2-y,1/2+z
loop_
_atom_site_type_symbol
_atom_site_label
_atom_site_fract_x
_atom_site_fract_y
_atom_site_fract_z
Si Si1 0.748323 0.312044 0.198608
Si Si2 0.058671 0.719051 0.691164
Si Si3 0.675683 0.047510 0.000000
Si Si4 0.557338 0.922583 0.000000
Si Si5 0.664426 0.251983 0.305816
Si Si6 0.299011 0.895681 0.307727
Si Si7 0.582436 0.868685 0.314717
O O1 0.692419 0.296681 0.278931
O O2 0.797287 0.284127 0.272909
O O3 0.754825 0.360922 0.240643
O O4 0.745957 0.304544 0.000000
O O5 0.061121 0.702909 0.500000
O O6 0.105972 0.752335 0.718992
O O7 0.066337 0.679183 0.808912
O O8 0.000000 0.739133 0.729777
O O9 0.610594 0.049256 0.000000
O O10 0.700971 0.067694 0.830678
O O11 0.693308 0.000000 0.000000
O O12 0.554841 0.894845 0.168104
O O13 0.500000 0.947572 0.000000
O O14 0.654060 0.242991 0.500000
O O15 0.289961 0.913203 0.500000
O O16 0.353990 0.870747 0.296503
O O17 0.564843 0.885950 0.500000
#
# Coordination Sequence:
#
# PCOD8287553 Si02
#       7
#    16  16   8   8  16  16  16
#     4   9  17  30  44  64  88 114 145 181 230 269
#     4  11  21  30  40  57  86 122 157 193 230 265
#     4  10  22  35  50  70  86 112 145 188 238 285
#     4  10  20  33  46  64  84 110 146 187 235 286
#     4  10  19  28  42  64  88 115 148 188 225 266
#     4   9  18  32  51  68  88 114 143 182 227 283
#     4  10  18  30  45  63  85 110 147 188 228 274
#
# _framework density 15.093021999999999
#
# number of rings (size 3 to 8) (size 9 to 14) (size 15 to 20)
#    0.000    2.167    2.500    1.500    1.167    3.500 
#    0.000    0.000    0.000    0.000    0.000    4.667 
#    0.000    0.000    0.000    0.000    0.000    1.667 
#
# Total GULP energy -594862.472112 kJ/mol
# GULP energy per Si atom -12392.968169 kJ/mol
# Density = 1.505867 g / cm^3
# Si number density = 15.093022 Si / 1000 Ang^3
#
#
#
# Elastic Constant Matrix: (Units=GPa)
#
#
# Indices 1 2 3 4 5 6 
#
# 1 76.8519 38.0135 26.9441 0.0000 0.0000 0.0000
# 2 38.0135 73.0247 36.4659 0.0000 0.0000 0.0000
# 3 26.9441 36.4659 85.7948 0.0000 0.0000 0.0000
# 4 0.0000 0.0000 0.0000 16.0304 0.0000 0.0000
# 5 0.0000 0.0000 0.0000 0.0000 -29.0957 0.0000
# 6 0.0000 0.0000 0.0000 0.0000 0.0000 8.0012
#
#
#
# Elastic Compliance Matrix: (Units=1/GPa)
#
#
# Indices 1 2 3 4 5 6 
#
# 1 0.017817 -0.008227 -0.002099 0.000000 0.000000 0.000000
# 2 -0.008227 0.021182 -0.006420 0.000000 0.000000 0.000000
# 3 -0.002099 -0.006420 0.015043 0.000000 0.000000 0.000000
# 4 0.000000 0.000000 0.000000 0.062382 0.000000 0.000000
# 5 0.000000 0.000000 0.000000 0.000000 -0.034369 0.000000
# 6 0.000000 0.000000 0.000000 0.000000 0.000000 0.124981
#
#
# Mechanical properties :
#
#
# Convention : Reuss Voigt Hill
#
# Bulk Modulus (GPa) = 48.65610 48.72426 48.69018
# Shear Modulus (GPa) = 20.21207 7.93704 14.07456
#
# Velocity S-wave (km/s) = 3.66343 2.29568 3.05703
# Velocity P-wave (km/s) = 7.08532 6.27532 6.69259
#
# Compressibility (1/GPa) = 0.02055241
#
# Stress axis : x y z
#
# Youngs Moduli (GPa) = 56.12590 47.20953 66.47422
#
# Poissons Ratio (x) = 0.38838 0.13952
# Poissons Ratio (y) = 0.46173 0.42674
# Poissons Ratio (z) = 0.11780 0.30306
#
# Static dielectric constant tensor:
#      x y z
#    x 2.906960 0.000000 0.000000 
#    y 0.000000 2.501590 0.000000 
#    z 0.000000 0.000000 3.100150 
# 
# 
# High freq. dielectric constant tensor:
#      x y z
#    x 1.556080 0.000000 0.000000 
#    y 0.000000 1.522540 0.000000 
#    z 0.000000 0.000000 1.597230 
# 
# From -- ./inp_files/13174.got.cif
#   From: 2010.06.25/outbox.cif.g09.slc.cpg/sg71_7_cif.got.tgz:13174.got - 2010.06.28 04:59:45.
