data_PCOD8287879
_publ_section_title
;
Structure prediction by ZEFSAII (Michael W. Deem and Ramdas Pophale) SiO2 
 PCOD8287879
Probable space group: I M M M
;
_chemical_formula_sum "Si O2"
_cell_formula_units_Z 96
_cell_length_a 16.953222
_cell_length_b 18.094778
_cell_length_c 16.538024
_cell_angle_alpha 90.000000
_cell_angle_beta 90.000000
_cell_angle_gamma 90.000000
_cell_volume 5073.283434
_symmetry_space_group_name_H-M "I M M M"
_symmetry_group_IT_number 71
_symmetry_cell_setting 'orthorhombic'
loop_
_space_group_symop_operation_xyz
x,y,z
-x,-y,z
x,-y,-z
-x,y,-z
-x,-y,-z
x,y,-z
-x,y,z
x,-y,z
1/2+x,1/2+y,1/2+z
1/2-x,1/2-y,1/2+z
1/2+x,1/2-y,1/2-z
1/2-x,1/2+y,1/2-z
1/2-x,1/2-y,1/2-z
1/2+x,1/2+y,1/2-z
1/2-x,1/2+y,1/2+z
1/2+x,1/2-y,1/2+z
loop_
_atom_site_type_symbol
_atom_site_label
_atom_site_fract_x
_atom_site_fract_y
_atom_site_fract_z
Si Si1 0.906794 0.225023 0.821224
Si Si2 0.344073 0.786514 0.841757
Si Si3 0.212890 0.683604 0.091596
Si Si4 0.406889 0.419173 0.589323
Si Si5 0.000000 0.417474 0.752734
Si Si6 0.326844 0.088022 0.269199
Si Si7 0.000000 0.653940 0.590716
O O1 0.863612 0.237606 0.736604
O O2 0.870607 0.277383 0.890679
O O3 0.883881 0.141131 0.844259
O O4 0.000000 0.239954 0.814512
O O5 0.282083 0.742833 0.895882
O O6 0.304577 0.864936 0.811464
O O7 0.422094 0.796716 0.895640
O O8 0.222875 0.612935 0.152177
O O9 0.214802 0.654028 0.000000
O O10 0.372030 0.399997 0.500000
O O11 0.500000 0.421400 0.581228
O O12 0.375366 0.500000 0.617629
O O13 0.081718 0.383255 0.785852
O O14 0.000000 0.500000 0.782743
O O15 0.000000 0.413079 0.654733
O O16 0.319946 0.000000 0.253578
O O17 0.000000 0.621929 0.500000
#
# Coordination Sequence:
#
# PCOD8287879 Si02
#       7
#    16  16  16  16   8  16   8
#     4  10  18  32  53  75 101 138 177 214 260 318
#     4  10  20  37  53  78 105 137 180 225 266 316
#     4  11  23  35  52  78 111 142 175 222 269 319
#     4   8  14  25  43  70 103 133 162 203 254 309
#     4   8  16  31  51  78 110 136 171 216 253 310
#     4   9  18  34  56  78 105 145 182 218 265 317
#     4  10  18  31  56  77 100 135 173 218 269 316
#
# _framework density 18.922656
#
# number of rings (size 3 to 8) (size 9 to 14) (size 15 to 20)
#    0.000    2.500    0.833    3.500    3.500    1.500 
#    0.000    3.333    0.000    4.000    0.000    0.000 
#    0.000    2.667    0.000    0.000    0.000    0.000 
#
# Total GULP energy -594715.516936 kJ/mol
# GULP energy per Si atom -12389.906603 kJ/mol
# Density = 1.887959 g / cm^3
# Si number density = 18.922656 Si / 1000 Ang^3
#
#
#
# Elastic Constant Matrix: (Units=GPa)
#
#
# Indices 1 2 3 4 5 6 
#
# 1 48.9762 10.6735 16.0919 0.0000 0.0000 0.0000
# 2 10.6735 82.3331 23.4932 0.0000 0.0000 0.0000
# 3 16.0919 23.4932 88.8323 0.0000 0.0000 0.0000
# 4 0.0000 0.0000 0.0000 11.0165 0.0000 0.0000
# 5 0.0000 0.0000 0.0000 0.0000 17.9245 0.0000
# 6 0.0000 0.0000 0.0000 0.0000 0.0000 20.1070
#
#
#
# Elastic Compliance Matrix: (Units=1/GPa)
#
#
# Indices 1 2 3 4 5 6 
#
# 1 0.021968 -0.001852 -0.003490 0.000000 0.000000 0.000000
# 2 -0.001852 0.013293 -0.003180 0.000000 0.000000 0.000000
# 3 -0.003490 -0.003180 0.012730 0.000000 0.000000 0.000000
# 4 0.000000 0.000000 0.000000 0.090773 0.000000 0.000000
# 5 0.000000 0.000000 0.000000 0.000000 0.055790 0.000000
# 6 0.000000 0.000000 0.000000 0.000000 0.000000 0.049734
#
#
# Mechanical properties :
#
#
# Convention : Reuss Voigt Hill
#
# Bulk Modulus (GPa) = 32.31224 35.62875 33.97049
# Shear Modulus (GPa) = 18.40613 21.13514 19.77064
#
# Velocity S-wave (km/s) = 3.12220 3.34566 3.23586
# Velocity P-wave (km/s) = 5.48731 5.81327 5.65264
#
# Compressibility (1/GPa) = 0.03094803
#
# Stress axis : x y z
#
# Youngs Moduli (GPa) = 45.52008 75.22579 78.55244
#
# Poissons Ratio (x) = 0.13933 0.27412
# Poissons Ratio (y) = 0.08431 0.24981
# Poissons Ratio (z) = 0.15885 0.23923
#
# Static dielectric constant tensor:
#      x y z
#    x 3.486140 0.000000 0.000000 
#    y 0.000000 3.652210 0.000000 
#    z 0.000000 0.000000 3.327660 
# 
# 
# High freq. dielectric constant tensor:
#      x y z
#    x 1.727060 0.000000 0.000000 
#    y 0.000000 1.731570 0.000000 
#    z 0.000000 0.000000 1.715460 
# 
# From -- ./inp_files/46340.got.cif
#   From: 2010.06.25/outbox.cif.g09.slc.cpg/sg71_24_cif.got.tgz:46340.got - 2010.06.28 04:59:45.
