data_PCOD8287490
_publ_section_title
;
Structure prediction by ZEFSAII (Michael W. Deem and Ramdas Pophale) SiO2 
 PCOD8287490
Probable space group: I M M M
;
_chemical_formula_sum "Si O2"
_cell_formula_units_Z 120
_cell_length_a 17.129465
_cell_length_b 22.031599
_cell_length_c 18.327890
_cell_angle_alpha 90.000000
_cell_angle_beta 90.000000
_cell_angle_gamma 90.000000
_cell_volume 6916.753316
_symmetry_space_group_name_H-M "I M M M"
_symmetry_group_IT_number 71
_symmetry_cell_setting 'orthorhombic'
loop_
_space_group_symop_operation_xyz
x,y,z
-x,-y,z
x,-y,-z
-x,y,-z
-x,-y,-z
x,y,-z
-x,y,z
x,-y,z
1/2+x,1/2+y,1/2+z
1/2-x,1/2-y,1/2+z
1/2+x,1/2-y,1/2-z
1/2-x,1/2+y,1/2-z
1/2-x,1/2-y,1/2-z
1/2+x,1/2+y,1/2-z
1/2-x,1/2+y,1/2+z
1/2+x,1/2-y,1/2+z
loop_
_atom_site_type_symbol
_atom_site_label
_atom_site_fract_x
_atom_site_fract_y
_atom_site_fract_z
Si Si1 0.671183 0.257083 0.161934
Si Si2 0.303247 0.930232 0.824839
Si Si3 0.500000 0.928284 0.581458
Si Si4 0.348408 0.068217 0.666357
Si Si5 0.090229 0.769492 0.916519
Si Si6 0.213741 0.668390 0.918630
Si Si7 0.588781 0.154965 0.914974
Si Si8 0.689194 0.329163 0.299581
O O1 0.709999 0.290854 0.093174
O O2 0.599214 0.217807 0.130578
O O3 0.647479 0.306823 0.224043
O O4 0.732307 0.209755 0.194938
O O5 0.358103 0.927742 0.753106
O O6 0.350707 0.896893 0.889048
O O7 0.219599 0.898879 0.804731
O O8 0.286743 0.000000 0.847651
O O9 0.500000 0.898840 0.500000
O O10 0.574537 0.906732 0.626649
O O11 0.500000 0.000000 0.574570
O O12 0.280365 0.112634 0.638083
O O13 0.327994 0.000000 0.641838
O O14 0.135451 0.706811 0.902743
O O15 0.127565 0.820902 0.865018
O O16 0.000000 0.759025 0.896469
O O17 0.100440 0.791293 0.000000
O O18 0.213686 0.642261 0.000000
O O19 0.500000 0.132605 0.903120
O O20 0.605963 0.167219 0.000000
#
# Coordination Sequence:
#
# PCOD8287490 Si02
#       8
#    16  16   8  16  16  16  16  16
#     4   9  17  32  50  73  97 129 167 213 258 304
#     4  10  21  36  54  75 102 138 175 213 254 305
#     4   9  18  30  42  60  93 135 173 207 245 291
#     4  10  20  32  45  66  99 138 175 210 245 295
#     4   9  19  32  48  74 103 129 160 203 255 310
#     4  10  18  29  48  70  98 134 165 203 247 298
#     4  10  22  37  53  75 103 134 173 222 266 308
#     4   9  17  32  52  73  99 129 169 208 253 303
#
# _framework density 17.349181000000002
#
# number of rings (size 3 to 8) (size 9 to 14) (size 15 to 20)
#    0.000    2.467    1.333    0.800    3.733    5.067 
#    0.000    0.667    0.000    0.400    0.000    0.933 
#    0.000    0.533    0.000    4.533    0.000    0.000 
#
# Total GULP energy -743648.844694 kJ/mol
# GULP energy per Si atom -12394.147412 kJ/mol
# Density = 1.730969 g / cm^3
# Si number density = 17.349181 Si / 1000 Ang^3
#
#
#
# Elastic Constant Matrix: (Units=GPa)
#
#
# Indices 1 2 3 4 5 6 
#
# 1 46.3421 32.9294 33.2774 -0.0001 0.0000 0.0000
# 2 32.9294 91.8557 40.0941 0.0000 0.0000 0.0000
# 3 33.2774 40.0941 91.9729 0.0000 0.0000 0.0000
# 4 -0.0001 0.0000 0.0000 24.3874 0.0000 0.0000
# 5 0.0000 0.0000 0.0000 0.0000 25.3113 0.0000
# 6 0.0000 0.0000 0.0000 0.0000 0.0000 17.9039
#
#
#
# Elastic Compliance Matrix: (Units=1/GPa)
#
#
# Indices 1 2 3 4 5 6 
#
# 1 0.033626 -0.008329 -0.008536 0.000000 0.000000 0.000000
# 2 -0.008329 0.015508 -0.003747 0.000000 0.000000 0.000000
# 3 -0.008536 -0.003747 0.015595 0.000000 0.000000 0.000000
# 4 0.000000 0.000000 0.000000 0.041005 0.000000 0.000000
# 5 0.000000 0.000000 0.000000 0.000000 0.039508 0.000000
# 6 0.000000 0.000000 0.000000 0.000000 0.000000 0.055854
#
#
# Mechanical properties :
#
#
# Convention : Reuss Voigt Hill
#
# Bulk Modulus (GPa) = 42.54288 49.19696 45.86992
# Shear Modulus (GPa) = 19.98770 21.77850 20.88310
#
# Velocity S-wave (km/s) = 3.39792 3.54687 3.47319
# Velocity P-wave (km/s) = 6.32212 6.72252 6.52539
#
# Compressibility (1/GPa) = 0.02350570
#
# Stress axis : x y z
#
# Youngs Moduli (GPa) = 29.73861 64.48301 64.12504
#
# Poissons Ratio (x) = 0.53708 0.54735
# Poissons Ratio (y) = 0.24769 0.24027
# Poissons Ratio (z) = 0.25384 0.24161
#
# Static dielectric constant tensor:
#      x y z
#    x 2.999810 0.000000 0.000000 
#    y 0.000000 3.217820 0.000000 
#    z 0.000000 0.000000 3.349680 
# 
# 
# High freq. dielectric constant tensor:
#      x y z
#    x 1.632710 0.000000 0.000000 
#    y 0.000000 1.653940 0.000000 
#    z 0.000000 0.000000 1.682800 
# 
# From -- ./inp_files/53456.got.cif
#   From: 2010.06.25/outbox.cif.g09.slc.cpg/sg71_27_cif.got.tgz:53456.got - 2010.06.28 04:59:45.
