data_PCOD8287296
_publ_section_title
;
Structure prediction by ZEFSAII (Michael W. Deem and Ramdas Pophale) SiO2 
 PCOD8287296
Probable space group: I M M M
;
_chemical_formula_sum "Si O2"
_cell_formula_units_Z 72
_cell_length_a 30.359470
_cell_length_b 19.351791
_cell_length_c 7.787513
_cell_angle_alpha 90.000000
_cell_angle_beta 90.000000
_cell_angle_gamma 90.000000
_cell_volume 4575.242684
_symmetry_space_group_name_H-M "I M M M"
_symmetry_group_IT_number 71
_symmetry_cell_setting 'orthorhombic'
loop_
_space_group_symop_operation_xyz
x,y,z
-x,-y,z
x,-y,-z
-x,y,-z
-x,-y,-z
x,y,-z
-x,y,z
x,-y,z
1/2+x,1/2+y,1/2+z
1/2-x,1/2-y,1/2+z
1/2+x,1/2-y,1/2-z
1/2-x,1/2+y,1/2-z
1/2-x,1/2-y,1/2-z
1/2+x,1/2+y,1/2-z
1/2-x,1/2+y,1/2+z
1/2+x,1/2-y,1/2+z
loop_
_atom_site_type_symbol
_atom_site_label
_atom_site_fract_x
_atom_site_fract_y
_atom_site_fract_z
Si Si1 0.234157 0.500000 0.191261
Si Si2 0.551873 0.580876 0.000000
Si Si3 0.182157 0.218690 0.698169
Si Si4 0.771807 0.350123 0.795073
Si Si5 0.391181 0.626239 0.305942
Si Si6 0.171043 0.000000 0.803145
O O1 0.218976 0.427715 0.280046
O O2 0.287019 0.500000 0.180616
O O3 0.214952 0.500000 0.000000
O O4 0.569188 0.620215 0.170362
O O5 0.565412 0.500000 0.000000
O O6 0.500000 0.589415 0.000000
O O7 0.176126 0.201622 0.500000
O O8 0.189526 0.300442 0.727767
O O9 0.224468 0.177284 0.774549
O O10 0.136789 0.197163 0.791759
O O11 0.770905 0.350758 0.000000
O O12 0.410066 0.618946 0.500000
O O13 0.357258 0.566507 0.258105
O O14 0.186793 0.000000 0.000000
#
# Coordination Sequence:
#
# PCOD8287296 Si02
#       6
#     8   8  16  16  16   8
#     4  10  18  28  44  60  89 131 165 204 244 279
#     4  11  24  38  54  74  98 125 159 207 255 296
#     4  10  18  29  46  65  90 123 161 204 243 281
#     4   9  18  28  40  62  92 124 161 205 243 277
#     4  11  21  34  52  71  93 124 163 205 245 289
#     4  10  20  28  42  67  88 119 167 203 235 286
#
# _framework density 15.73687
#
# number of rings (size 3 to 8) (size 9 to 14) (size 15 to 20)
#    0.000    1.889    4.444    0.667    1.556    2.222 
#    0.000    1.111    0.000    0.000    0.000    0.000 
#    0.000    0.000    0.000    2.000    0.000   12.000 
#
# Total GULP energy -446233.320949 kJ/mol
# GULP energy per Si atom -12395.370026 kJ/mol
# Density = 1.570105 g / cm^3
# Si number density = 15.736870 Si / 1000 Ang^3
#
#
#
# Elastic Constant Matrix: (Units=GPa)
#
#
# Indices 1 2 3 4 5 6 
#
# 1 61.9762 33.3164 28.4942 0.0000 0.0000 0.0000
# 2 33.3164 112.9808 19.5449 0.0000 0.0000 0.0000
# 3 28.4942 19.5449 63.6973 0.0000 0.0000 0.0000
# 4 0.0000 0.0000 0.0000 18.5108 0.0000 0.0000
# 5 0.0000 0.0000 0.0000 0.0000 17.0591 0.0000
# 6 0.0000 0.0000 0.0000 0.0000 0.0000 19.7911
#
#
#
# Elastic Compliance Matrix: (Units=1/GPa)
#
#
# Indices 1 2 3 4 5 6 
#
# 1 0.022943 -0.005270 -0.008646 0.000000 0.000000 0.000000
# 2 -0.005270 0.010558 -0.000882 0.000000 0.000000 0.000000
# 3 -0.008646 -0.000882 0.019838 0.000000 0.000000 0.000000
# 4 0.000000 0.000000 0.000000 0.054023 0.000000 0.000000
# 5 0.000000 0.000000 0.000000 0.000000 0.058620 0.000000
# 6 0.000000 0.000000 0.000000 0.000000 0.000000 0.050528
#
#
# Mechanical properties :
#
#
# Convention : Reuss Voigt Hill
#
# Bulk Modulus (GPa) = 42.11942 44.59614 43.35778
# Shear Modulus (GPa) = 19.68348 21.55877 20.62112
#
# Velocity S-wave (km/s) = 3.54048 3.70530 3.62383
# Velocity P-wave (km/s) = 6.59820 6.83417 6.71722
#
# Compressibility (1/GPa) = 0.02374202
#
# Stress axis : x y z
#
# Youngs Moduli (GPa) = 43.58535 94.71776 50.40879
#
# Poissons Ratio (x) = 0.49915 0.43586
# Poissons Ratio (y) = 0.22969 0.04446
# Poissons Ratio (z) = 0.37686 0.08355
#
# Static dielectric constant tensor:
#      x y z
#    x 2.573820 0.000000 0.000000 
#    y 0.000000 3.265140 0.000000 
#    z 0.000000 0.000000 2.938420 
# 
# 
# High freq. dielectric constant tensor:
#      x y z
#    x 1.542060 0.000000 0.000000 
#    y 0.000000 1.600350 0.000000 
#    z 0.000000 0.000000 1.611810 
# 
# From -- ./inp_files/9979.got.cif
#   From: 2010.06.25/outbox.cif.g09.slc.cpg/sg71_5_cif.got.tgz:9979.got - 2010.06.28 04:59:45.
