data_PCOD8287388
_publ_section_title
;
Structure prediction by ZEFSAII (Michael W. Deem and Ramdas Pophale) SiO2 
 PCOD8287388
Probable space group: I M M M
;
_chemical_formula_sum "Si O2"
_cell_formula_units_Z 80
_cell_length_a 26.103338
_cell_length_b 8.935478
_cell_length_c 23.788823
_cell_angle_alpha 90.000000
_cell_angle_beta 90.000000
_cell_angle_gamma 90.000000
_cell_volume 5548.643109
_symmetry_space_group_name_H-M "I M M M"
_symmetry_group_IT_number 71
_symmetry_cell_setting 'orthorhombic'
loop_
_space_group_symop_operation_xyz
x,y,z
-x,-y,z
x,-y,-z
-x,y,-z
-x,-y,-z
x,y,-z
-x,y,z
x,-y,z
1/2+x,1/2+y,1/2+z
1/2-x,1/2-y,1/2+z
1/2+x,1/2-y,1/2-z
1/2-x,1/2+y,1/2-z
1/2-x,1/2-y,1/2-z
1/2+x,1/2+y,1/2-z
1/2-x,1/2+y,1/2+z
1/2+x,1/2-y,1/2+z
loop_
_atom_site_type_symbol
_atom_site_label
_atom_site_fract_x
_atom_site_fract_y
_atom_site_fract_z
Si Si1 0.240231 0.823455 0.386940
Si Si2 0.387925 0.672981 0.000000
Si Si3 0.720889 0.823074 0.000000
Si Si4 0.204993 0.671757 0.218590
Si Si5 0.646195 0.175448 0.822009
Si Si6 0.558570 0.674328 0.116124
O O1 0.249942 0.741751 0.445697
O O2 0.290462 0.785121 0.347679
O O3 0.187984 0.763991 0.358743
O O4 0.233588 0.000000 0.397253
O O5 0.421942 0.712118 0.946148
O O6 0.370524 0.500000 0.000000
O O7 0.338204 0.775856 0.000000
O O8 0.725023 0.000000 0.000000
O O9 0.218473 0.500000 0.223324
O O10 0.250000 0.750000 0.250000
O O11 0.153258 0.706806 0.254209
O O12 0.590013 0.232567 0.837732
O O13 0.651686 0.000000 0.835665
O O14 0.500000 0.725903 0.120695
O O15 0.564811 0.500000 0.129517
#
# Coordination Sequence:
#
# PCOD8287388 Si02
#       6
#    16   8   8  16  16  16
#     4  10  18  30  45  60  80 110 141 167 202 253
#     4  10  19  32  46  56  75 109 146 181 217 251
#     4  12  22  29  41  63  87 109 137 179 216 246
#     4   8  16  28  43  61  80 103 133 166 204 250
#     4  10  18  29  44  63  84 104 132 176 218 248
#     4  10  20  32  45  60  79 109 148 183 215 253
#
# _framework density 14.41794
#
# number of rings (size 3 to 8) (size 9 to 14) (size 15 to 20)
#    0.000    2.200    2.000    2.400    0.000    3.200 
#    0.000    0.000    0.000    1.800    0.000    0.000 
#    0.000    0.000    0.000    0.900    0.000   18.800 
#
# Total GULP energy -495593.078784 kJ/mol
# GULP energy per Si atom -12389.826970 kJ/mol
# Density = 1.438512 g / cm^3
# Si number density = 14.417940 Si / 1000 Ang^3
#
#
#
# Elastic Constant Matrix: (Units=GPa)
#
#
# Indices 1 2 3 4 5 6 
#
# 1 58.9004 30.2009 60.9452 0.0000 0.0000 0.0000
# 2 30.2009 69.5490 54.2827 0.0000 0.0000 0.0000
# 3 60.9452 54.2827 128.8116 0.0000 0.0000 0.0000
# 4 0.0000 0.0000 0.0000 20.7700 0.0000 0.0000
# 5 0.0000 0.0000 0.0000 0.0000 16.4793 0.0000
# 6 0.0000 0.0000 0.0000 0.0000 0.0000 16.5951
#
#
#
# Elastic Compliance Matrix: (Units=1/GPa)
#
#
# Indices 1 2 3 4 5 6 
#
# 1 0.033752 -0.003267 -0.014592 0.000000 0.000000 0.000000
# 2 -0.003267 0.021742 -0.007616 0.000000 0.000000 0.000000
# 3 -0.014592 -0.007616 0.017877 0.000000 0.000000 0.000000
# 4 0.000000 0.000000 0.000000 0.048146 0.000000 0.000000
# 5 0.000000 0.000000 0.000000 0.000000 0.060682 0.000000
# 6 0.000000 0.000000 0.000000 0.000000 0.000000 0.060259
#
#
# Mechanical properties :
#
#
# Convention : Reuss Voigt Hill
#
# Bulk Modulus (GPa) = 44.60531 60.90207 52.75369
# Shear Modulus (GPa) = 16.61775 18.22434 17.42104
#
# Velocity S-wave (km/s) = 3.39864 3.55914 3.47982
# Velocity P-wave (km/s) = 6.81216 7.69559 7.26731
#
# Compressibility (1/GPa) = 0.02241886
#
# Stress axis : x y z
#
# Youngs Moduli (GPa) = 29.62785 45.99467 55.93745
#
# Poissons Ratio (x) = 0.15027 0.81626
# Poissons Ratio (y) = 0.09680 0.42604
# Poissons Ratio (z) = 0.43234 0.35031
#
# Static dielectric constant tensor:
#      x y z
#    x 2.740480 0.000000 0.000000 
#    y 0.000000 2.647420 0.000000 
#    z 0.000000 0.000000 3.378960 
# 
# 
# High freq. dielectric constant tensor:
#      x y z
#    x 1.504480 0.000000 0.000000 
#    y 0.000000 1.563320 0.000000 
#    z 0.000000 0.000000 1.552130 
# 
# From -- ./inp_files/10715.got.cif
#   From: 2010.06.25/outbox.cif.g09.slc.cpg/sg71_6_cif.got.tgz:10715.got - 2010.06.28 04:59:45.
