data_PCOD8287496
_publ_section_title
;
Structure prediction by ZEFSAII (Michael W. Deem and Ramdas Pophale) SiO2 
 PCOD8287496
Probable space group: I M M M
;
_chemical_formula_sum "Si O2"
_cell_formula_units_Z 104
_cell_length_a 12.027078
_cell_length_b 16.286435
_cell_length_c 28.381310
_cell_angle_alpha 90.000000
_cell_angle_beta 90.000000
_cell_angle_gamma 90.000000
_cell_volume 5559.280600
_symmetry_space_group_name_H-M "I M M M"
_symmetry_group_IT_number 71
_symmetry_cell_setting 'orthorhombic'
loop_
_space_group_symop_operation_xyz
x,y,z
-x,-y,z
x,-y,-z
-x,y,-z
-x,-y,-z
x,y,-z
-x,y,z
x,-y,z
1/2+x,1/2+y,1/2+z
1/2-x,1/2-y,1/2+z
1/2+x,1/2-y,1/2-z
1/2-x,1/2+y,1/2-z
1/2-x,1/2-y,1/2-z
1/2+x,1/2+y,1/2-z
1/2-x,1/2+y,1/2+z
1/2+x,1/2-y,1/2+z
loop_
_atom_site_type_symbol
_atom_site_label
_atom_site_fract_x
_atom_site_fract_y
_atom_site_fract_z
Si Si1 0.216807 0.183619 0.361076
Si Si2 0.125716 0.665666 0.305328
Si Si3 0.368241 0.593011 0.500000
Si Si4 0.624252 0.907061 0.706080
Si Si5 0.339296 0.591809 0.671748
Si Si6 0.500000 0.402030 0.858014
Si Si7 0.876041 0.796966 0.913636
Si Si8 0.500000 0.595140 0.248198
O O1 0.176043 0.248432 0.322125
O O2 0.292515 0.116881 0.335194
O O3 0.110214 0.135645 0.382645
O O4 0.287072 0.224431 0.403854
O O5 0.130834 0.657424 0.248972
O O6 0.205349 0.595733 0.327366
O O7 0.000000 0.652986 0.324005
O O8 0.317672 0.500000 0.500000
O O9 0.500000 0.585889 0.500000
O O10 0.327576 0.644042 0.545545
O O11 0.500000 0.904063 0.684940
O O12 0.652881 0.000000 0.723297
O O13 0.378414 0.500000 0.659955
O O14 0.392071 0.650338 0.633209
O O15 0.389678 0.620209 0.722420
O O16 0.500000 0.500000 0.862759
O O17 0.500000 0.366094 0.803924
O O18 0.000000 0.762602 0.926791
O O19 0.500000 0.500000 0.237851
#
# Coordination Sequence:
#
# PCOD8287496 Si02
#       8
#    16  16   8  16  16   8  16   8
#     4  11  21  35  50  74 104 139 183 228 275 321
#     4  10  20  33  45  67  98 139 186 228 265 309
#     4   9  18  34  60  91 119 142 168 211 270 340
#     4  10  20  33  49  69  98 138 184 230 273 317
#     4  10  18  29  48  72 103 142 180 221 263 311
#     4  11  22  36  54  75 105 149 193 233 265 307
#     4  10  20  34  54  82 112 139 172 217 275 331
#     4   9  18  30  46  71 103 137 183 227 263 301
#
# _framework density 18.707457000000002
#
# number of rings (size 3 to 8) (size 9 to 14) (size 15 to 20)
#    0.000    1.923    1.538    3.231    0.000    4.000 
#    0.000    0.000    0.000    0.462    0.000    3.231 
#    0.000    8.615    0.000    0.000    0.000    0.000 
#
# Total GULP energy -644494.657373 kJ/mol
# GULP energy per Si atom -12394.128026 kJ/mol
# Density = 1.866488 g / cm^3
# Si number density = 18.707457 Si / 1000 Ang^3
#
#
#
# Elastic Constant Matrix: (Units=GPa)
#
#
# Indices 1 2 3 4 5 6 
#
# 1 130.9021 48.1748 24.7557 0.0000 0.0000 0.0000
# 2 48.1748 86.1234 25.4315 0.0000 0.0000 0.0000
# 3 24.7557 25.4315 51.9067 0.0000 0.0000 0.0000
# 4 0.0000 0.0000 0.0000 25.2579 0.0000 0.0000
# 5 0.0000 0.0000 0.0000 0.0000 17.6380 0.0000
# 6 0.0000 0.0000 0.0000 0.0000 0.0000 24.6579
#
#
#
# Elastic Compliance Matrix: (Units=1/GPa)
#
#
# Indices 1 2 3 4 5 6 
#
# 1 0.009856 -0.004823 -0.002338 0.000000 0.000000 0.000000
# 2 -0.004823 0.015935 -0.005507 0.000000 0.000000 0.000000
# 3 -0.002338 -0.005507 0.023078 0.000000 0.000000 0.000000
# 4 0.000000 0.000000 0.000000 0.039592 0.000000 0.000000
# 5 0.000000 0.000000 0.000000 0.000000 0.056696 0.000000
# 6 0.000000 0.000000 0.000000 0.000000 0.000000 0.040555
#
#
# Mechanical properties :
#
#
# Convention : Reuss Voigt Hill
#
# Bulk Modulus (GPa) = 42.49133 51.73958 47.11545
# Shear Modulus (GPa) = 22.84218 24.88211 23.86214
#
# Velocity S-wave (km/s) = 3.49810 3.65096 3.57535
# Velocity P-wave (km/s) = 6.25128 6.74462 6.50263
#
# Compressibility (1/GPa) = 0.02353422
#
# Stress axis : x y z
#
# Youngs Moduli (GPa) = 101.45703 62.75359 43.33040
#
# Poissons Ratio (x) = 0.30266 0.10130
# Poissons Ratio (y) = 0.48933 0.23863
# Poissons Ratio (z) = 0.23718 0.34560
#
# Static dielectric constant tensor:
#      x y z
#    x 3.853180 0.000000 0.000000 
#    y 0.000000 3.403590 0.000000 
#    z 0.000000 0.000000 3.039360 
# 
# 
# High freq. dielectric constant tensor:
#      x y z
#    x 1.738980 0.000000 0.000000 
#    y 0.000000 1.724600 0.000000 
#    z 0.000000 0.000000 1.664140 
# 
# From -- ./inp_files/64674.got.cif
#   From: 2010.06.25/outbox.cif.g09.slc.cpg/sg71_33_cif.got.tgz:64674.got - 2010.06.28 04:59:45.
