data_PCOD8287132
_publ_section_title
;
Structure prediction by ZEFSAII (Michael W. Deem and Ramdas Pophale) SiO2 
 PCOD8287132
Probable space group: I M M M
;
_chemical_formula_sum "Si O2"
_cell_formula_units_Z 64
_cell_length_a 7.917450
_cell_length_b 22.356423
_cell_length_c 17.666449
_cell_angle_alpha 90.000000
_cell_angle_beta 90.000000
_cell_angle_gamma 90.000000
_cell_volume 3127.065021
_symmetry_space_group_name_H-M "I M M M"
_symmetry_group_IT_number 71
_symmetry_cell_setting 'orthorhombic'
loop_
_space_group_symop_operation_xyz
x,y,z
-x,-y,z
x,-y,-z
-x,y,-z
-x,-y,-z
x,y,-z
-x,y,z
x,-y,z
1/2+x,1/2+y,1/2+z
1/2-x,1/2-y,1/2+z
1/2+x,1/2-y,1/2-z
1/2-x,1/2+y,1/2-z
1/2-x,1/2-y,1/2-z
1/2+x,1/2+y,1/2-z
1/2-x,1/2+y,1/2+z
1/2+x,1/2-y,1/2+z
loop_
_atom_site_type_symbol
_atom_site_label
_atom_site_fract_x
_atom_site_fract_y
_atom_site_fract_z
Si Si1 0.199299 0.741121 0.336072
Si Si2 0.500000 0.564936 0.911519
Si Si3 0.696386 0.384247 0.321000
Si Si4 0.200523 0.000000 0.914108
Si Si5 0.687786 0.866738 0.653213
O O1 0.250000 0.750000 0.250000
O O2 0.272521 0.677857 0.367338
O O3 0.284211 0.798459 0.375646
O O4 0.000000 0.743400 0.348074
O O5 0.500000 0.500000 0.872817
O O6 0.327832 0.595237 0.887582
O O7 0.500000 0.560016 0.000000
O O8 0.500000 0.392581 0.301377
O O9 0.763883 0.440518 0.370017
O O10 0.799556 0.377322 0.243481
O O11 0.000000 0.000000 0.917893
O O12 0.273666 0.000000 0.000000
O O13 0.500000 0.886659 0.628295
#
# Coordination Sequence:
#
# PCOD8287132 Si02
#       5
#    16   8  16   8  16
#     4  10  17  31  54  87 123 152 199 258 307 347
#     4  11  26  46  64  88 126 159 195 249 315 377
#     4  10  18  32  58  89 124 163 209 260 305 352
#     4   9  20  36  55  83 125 171 209 248 303 364
#     4  11  21  38  65  94 122 156 207 254 301 366
#
# _framework density 20.466477000000001
#
# number of rings (size 3 to 8) (size 9 to 14) (size 15 to 20)
#    0.000    1.750    2.500    6.000    1.750    1.000 
#    0.000    4.375    0.000    8.250    0.000    0.000 
#    0.000    0.000    0.000    0.000    0.000    0.000 
#
# Total GULP energy -396565.389184 kJ/mol
# GULP energy per Si atom -12392.668412 kJ/mol
# Density = 2.041989 g / cm^3
# Si number density = 20.466477 Si / 1000 Ang^3
#
#
#
# Elastic Constant Matrix: (Units=GPa)
#
#
# Indices 1 2 3 4 5 6 
#
# 1 148.5243 52.7283 16.9211 0.0000 0.0000 0.0000
# 2 52.7283 207.1550 50.0325 0.0000 0.0000 0.0000
# 3 16.9211 50.0325 46.6826 0.0000 -0.0001 0.0000
# 4 0.0000 0.0000 0.0000 -17.2944 0.0000 0.0000
# 5 0.0000 0.0000 -0.0001 0.0000 -4.0307 0.0000
# 6 0.0000 0.0000 0.0000 0.0000 0.0000 31.5824
#
#
#
# Elastic Compliance Matrix: (Units=1/GPa)
#
#
# Indices 1 2 3 4 5 6 
#
# 1 0.007430 -0.001674 -0.000899 0.000000 0.000000 0.000000
# 2 -0.001674 0.006890 -0.006778 0.000000 0.000000 0.000000
# 3 -0.000899 -0.006778 0.029012 0.000000 0.000000 0.000000
# 4 0.000000 0.000000 0.000000 -0.057822 0.000000 0.000000
# 5 0.000000 0.000000 0.000000 0.000000 -0.248094 0.000000
# 6 0.000000 0.000000 0.000000 0.000000 0.000000 0.031663
#
#
# Mechanical properties :
#
#
# Convention : Reuss Voigt Hill
#
# Bulk Modulus (GPa) = 40.60156 71.30286 55.95221
# Shear Modulus (GPa) = -24.50870 20.89678 -1.80596
#
# Velocity S-wave (km/s) = -3.46425 3.19881 -0.94038
# Velocity P-wave (km/s) = 1.96971 6.96834 5.12042
#
# Compressibility (1/GPa) = 0.02462960
#
# Stress axis : x y z
#
# Youngs Moduli (GPa) = 134.59661 145.12819 34.46898
#
# Poissons Ratio (x) = 0.24294 0.03098
# Poissons Ratio (y) = 0.22531 0.23364
# Poissons Ratio (z) = 0.12099 0.98370
#
# Static dielectric constant tensor:
#      x y z
#    x 3.744110 0.000000 0.000000 
#    y 0.000000 4.717300 0.000000 
#    z 0.000000 0.000000 3.350620 
# 
# 
# High freq. dielectric constant tensor:
#      x y z
#    x 1.802910 0.000000 0.000000 
#    y 0.000000 1.822900 0.000000 
#    z 0.000000 0.000000 1.747060 
# 
# From -- ./inp_files/41878.got.cif
#   From: 2010.06.25/outbox.cif.g09.slc.cpg/sg71_21_cif.got.tgz:41878.got - 2010.06.28 04:59:45.
