data_PCOD8287653
_publ_section_title
;
Structure prediction by ZEFSAII (Michael W. Deem and Ramdas Pophale) SiO2 
 PCOD8287653
Probable space group: I M M M
;
_chemical_formula_sum "Si O2"
_cell_formula_units_Z 120
_cell_length_a 28.563043
_cell_length_b 24.327906
_cell_length_c 9.427116
_cell_angle_alpha 90.000000
_cell_angle_beta 90.000000
_cell_angle_gamma 90.000000
_cell_volume 6550.705176
_symmetry_space_group_name_H-M "I M M M"
_symmetry_group_IT_number 71
_symmetry_cell_setting 'orthorhombic'
loop_
_space_group_symop_operation_xyz
x,y,z
-x,-y,z
x,-y,-z
-x,y,-z
-x,-y,-z
x,y,-z
-x,y,z
x,-y,z
1/2+x,1/2+y,1/2+z
1/2-x,1/2-y,1/2+z
1/2+x,1/2-y,1/2-z
1/2-x,1/2+y,1/2-z
1/2-x,1/2-y,1/2-z
1/2+x,1/2+y,1/2-z
1/2-x,1/2+y,1/2+z
1/2+x,1/2-y,1/2+z
loop_
_atom_site_type_symbol
_atom_site_label
_atom_site_fract_x
_atom_site_fract_y
_atom_site_fract_z
Si Si1 0.000000 0.939747 0.668577
Si Si2 0.689374 0.378259 0.840397
Si Si3 0.552575 0.276072 0.339186
Si Si4 0.587095 0.629304 0.163074
Si Si5 0.269001 0.062988 0.831224
Si Si6 0.702814 0.747251 0.836091
Si Si7 0.948903 0.333628 0.663619
Si Si8 0.151993 0.643649 0.666046
O O1 0.953215 0.910141 0.722729
O O2 0.000000 0.942808 0.500000
O O3 0.000000 0.000000 0.736592
O O4 0.636836 0.402060 0.822312
O O5 0.722874 0.408320 0.730467
O O6 0.682214 0.313287 0.811768
O O7 0.708391 0.388512 0.000000
O O8 0.570232 0.269081 0.500000
O O9 0.500000 0.300441 0.334101
O O10 0.587571 0.315833 0.256662
O O11 0.552923 0.217771 0.264898
O O12 0.577731 0.646354 0.000000
O O13 0.314306 0.096067 0.770855
O O14 0.272668 0.000000 0.779045
O O15 0.265150 0.065775 0.000000
O O16 0.750000 0.750000 0.750000
O O17 0.667329 0.795187 0.780372
O O18 0.714595 0.757937 0.000000
O O19 0.944249 0.314419 0.500000
O O20 0.902723 0.369654 0.704164
O O21 0.000000 0.363885 0.684874
O O22 0.159079 0.641407 0.500000
#
# Coordination Sequence:
#
# PCOD8287653 Si02
#       8
#     8  16  16  16  16  16  16  16
#     4   9  18  32  51  73  91 117 167 219 254 291
#     4  10  21  34  52  79 105 131 170 220 266 306
#     4  10  19  30  46  72 106 137 165 200 245 298
#     4  10  19  33  53  72  94 129 169 209 254 306
#     4  10  21  37  56  75  99 137 178 211 254 314
#     4  10  18  30  49  73 102 132 165 204 250 302
#     4   9  17  30  51  76 102 134 169 203 245 300
#     4   9  17  32  53  76 104 135 170 211 250 300
#
# _framework density 18.318639000000001
#
# number of rings (size 3 to 8) (size 9 to 14) (size 15 to 20)
#    0.000    2.333    2.000    1.200    0.000    4.000 
#    0.000    4.000    0.000    1.200    0.000    2.800 
#    0.000    0.000    0.000    4.533    0.000    4.800 
#
# Total GULP energy -743510.007717 kJ/mol
# GULP energy per Si atom -12391.833462 kJ/mol
# Density = 1.827694 g / cm^3
# Si number density = 18.318639 Si / 1000 Ang^3
#
#
#
# Elastic Constant Matrix: (Units=GPa)
#
#
# Indices 1 2 3 4 5 6 
#
# 1 150.8234 51.8142 30.2572 0.0000 0.0000 0.0000
# 2 51.8142 91.6079 20.6337 0.0000 0.0000 0.0000
# 3 30.2572 20.6337 49.4568 0.0000 0.0000 0.0000
# 4 0.0000 0.0000 0.0000 12.8212 0.0000 0.0000
# 5 0.0000 0.0000 0.0000 0.0000 22.6373 0.0000
# 6 0.0000 0.0000 0.0000 0.0000 0.0000 12.0430
#
#
#
# Elastic Compliance Matrix: (Units=1/GPa)
#
#
# Indices 1 2 3 4 5 6 
#
# 1 0.008787 -0.004149 -0.003645 0.000000 0.000000 0.000000
# 2 -0.004149 0.014007 -0.003306 0.000000 0.000000 0.000000
# 3 -0.003645 -0.003306 0.023829 0.000000 0.000000 0.000000
# 4 0.000000 0.000000 0.000000 0.077996 0.000000 0.000000
# 5 0.000000 0.000000 0.000000 0.000000 0.044175 0.000000
# 6 0.000000 0.000000 0.000000 0.000000 0.000000 0.083036
#
#
# Mechanical properties :
#
#
# Convention : Reuss Voigt Hill
#
# Bulk Modulus (GPa) = 40.94319 55.25538 48.09929
# Shear Modulus (GPa) = 17.71985 22.11249 19.91617
#
# Velocity S-wave (km/s) = 3.11354 3.47811 3.30086
# Velocity P-wave (km/s) = 5.94345 6.80872 6.39074
#
# Compressibility (1/GPa) = 0.02442408
#
# Stress axis : x y z
#
# Youngs Moduli (GPa) = 113.80723 71.39119 41.96640
#
# Poissons Ratio (x) = 0.29620 0.15296
# Poissons Ratio (y) = 0.47218 0.13873
# Poissons Ratio (z) = 0.41479 0.23599
#
# Static dielectric constant tensor:
#      x y z
#    x 3.928760 0.000000 0.000000 
#    y 0.000000 3.463630 0.000000 
#    z 0.000000 0.000000 3.154650 
# 
# 
# High freq. dielectric constant tensor:
#      x y z
#    x 1.726500 0.000000 0.000000 
#    y 0.000000 1.677110 0.000000 
#    z 0.000000 0.000000 1.684400 
# 
# From -- ./inp_files/15629.got.cif
#   From: 2010.06.25/outbox.cif.g09.slc.cpg/sg71_8_cif.got.tgz:15629.got - 2010.06.28 04:59:45.
