data_PCOD8287536
_publ_section_title
;
Structure prediction by ZEFSAII (Michael W. Deem and Ramdas Pophale) SiO2 
 PCOD8287536
Probable space group: I M M M
;
_chemical_formula_sum "Si O2"
_cell_formula_units_Z 88
_cell_length_a 27.784333
_cell_length_b 11.525316
_cell_length_c 14.612942
_cell_angle_alpha 90.000000
_cell_angle_beta 90.000000
_cell_angle_gamma 90.000000
_cell_volume 4679.403307
_symmetry_space_group_name_H-M "I M M M"
_symmetry_group_IT_number 71
_symmetry_cell_setting 'orthorhombic'
loop_
_space_group_symop_operation_xyz
x,y,z
-x,-y,z
x,-y,-z
-x,y,-z
-x,-y,-z
x,y,-z
-x,y,z
x,-y,z
1/2+x,1/2+y,1/2+z
1/2-x,1/2-y,1/2+z
1/2+x,1/2-y,1/2-z
1/2-x,1/2+y,1/2-z
1/2-x,1/2-y,1/2-z
1/2+x,1/2+y,1/2-z
1/2-x,1/2+y,1/2+z
1/2+x,1/2-y,1/2+z
loop_
_atom_site_type_symbol
_atom_site_label
_atom_site_fract_x
_atom_site_fract_y
_atom_site_fract_z
Si Si1 0.948523 0.786984 0.313744
Si Si2 0.925059 0.871570 0.500000
Si Si3 0.442431 0.500000 0.314449
Si Si4 0.859612 0.367202 0.315711
Si Si5 0.669027 0.224602 0.000000
Si Si6 0.736545 0.137895 0.500000
Si Si7 0.661703 0.500000 0.607342
Si Si8 0.295239 0.737904 0.318780
O O1 0.956557 0.851345 0.410183
O O2 0.931471 0.884167 0.242359
O O3 0.913591 0.678543 0.326939
O O4 0.000000 0.736139 0.282378
O O5 0.881605 0.784027 0.500000
O O6 0.903544 0.000000 0.500000
O O7 0.500000 0.500000 0.349360
O O8 0.397451 0.500000 0.386564
O O9 0.860903 0.500000 0.287938
O O10 0.827465 0.353069 0.408119
O O11 0.839689 0.294689 0.232072
O O12 0.708149 0.325074 0.000000
O O13 0.711809 0.189303 0.410526
O O14 0.732378 0.000000 0.500000
O O15 0.674533 0.500000 0.500000
O O16 0.688721 0.607599 0.656335
O O17 0.250000 0.750000 0.250000
#
# Coordination Sequence:
#
# PCOD8287536 Si02
#       8
#    16   8   8  16   8   8   8  16
#     4  10  20  34  56  87 120 158 204 253 313 376
#     4  10  18  29  50  84 123 160 196 249 311 366
#     4  10  20  38  66  94 121 155 210 275 324 382
#     4  11  23  40  60  86 123 165 206 255 309 369
#     4  10  22  37  57  87 120 162 212 255 307 360
#     4  12  25  42  61  91 121 160 209 252 303 366
#     4  12  26  47  69  93 132 168 210 260 331 391
#     4  12  26  42  64  93 122 165 207 253 306 371
#
# _framework density 18.805817000000001
#
# number of rings (size 3 to 8) (size 9 to 14) (size 15 to 20)
#    0.000    1.091    5.455    1.364    2.545    0.909 
#    1.636    0.000    0.000    3.273    0.000    0.000 
#    0.000    5.818    0.000    0.000    0.000    0.000 
#
# Total GULP energy -545201.041839 kJ/mol
# GULP energy per Si atom -12390.932769 kJ/mol
# Density = 1.876301 g / cm^3
# Si number density = 18.805817 Si / 1000 Ang^3
#
#
#
# Elastic Constant Matrix: (Units=GPa)
#
#
# Indices 1 2 3 4 5 6 
#
# 1 87.8623 45.3443 41.0389 0.0000 0.0000 0.0000
# 2 45.3443 148.1427 52.0669 0.0000 0.0000 0.0000
# 3 41.0389 52.0669 118.1392 0.0000 0.0000 0.0000
# 4 0.0000 0.0000 0.0000 21.5518 0.0000 0.0000
# 5 0.0000 0.0000 0.0000 0.0000 18.1165 0.0000
# 6 0.0000 0.0000 0.0000 0.0000 0.0000 24.1035
#
#
#
# Elastic Compliance Matrix: (Units=1/GPa)
#
#
# Indices 1 2 3 4 5 6 
#
# 1 0.014777 -0.003217 -0.003715 0.000000 0.000000 0.000000
# 2 -0.003217 0.008688 -0.002711 0.000000 0.000000 0.000000
# 3 -0.003715 -0.002711 0.010950 0.000000 0.000000 0.000000
# 4 0.000000 0.000000 0.000000 0.046400 0.000000 0.000000
# 5 0.000000 0.000000 0.000000 0.000000 0.055198 0.000000
# 6 0.000000 0.000000 0.000000 0.000000 0.000000 0.041488
#
#
# Mechanical properties :
#
#
# Convention : Reuss Voigt Hill
#
# Bulk Modulus (GPa) = 66.10542 70.11604 68.11073
# Shear Modulus (GPa) = 24.77311 27.13396 25.95354
#
# Velocity S-wave (km/s) = 3.63342 3.80261 3.71897
# Velocity P-wave (km/s) = 7.26844 7.52628 7.39848
#
# Compressibility (1/GPa) = 0.01512735
#
# Stress axis : x y z
#
# Youngs Moduli (GPa) = 67.67177 115.10174 91.32253
#
# Poissons Ratio (x) = 0.37031 0.33929
# Poissons Ratio (y) = 0.21772 0.24761
# Poissons Ratio (z) = 0.25142 0.31209
#
# Static dielectric constant tensor:
#      x y z
#    x 3.494900 0.000000 0.000000 
#    y 0.000000 3.298470 0.000000 
#    z 0.000000 0.000000 3.690400 
# 
# 
# High freq. dielectric constant tensor:
#      x y z
#    x 1.739350 0.000000 0.000000 
#    y 0.000000 1.727390 0.000000 
#    z 0.000000 0.000000 1.729630 
# 
# From -- ./inp_files/40224.got.cif
#   From: 2010.06.25/outbox.cif.g09.slc.cpg/sg71_21_cif.got.tgz:40224.got - 2010.06.28 04:59:45.
