data_PCOD8287465
_publ_section_title
;
Structure prediction by ZEFSAII (Michael W. Deem and Ramdas Pophale) SiO2 
 PCOD8287465
Probable space group: I M M M
;
_chemical_formula_sum "Si O2"
_cell_formula_units_Z 72
_cell_length_a 19.594606
_cell_length_b 8.804587
_cell_length_c 22.374369
_cell_angle_alpha 90.000000
_cell_angle_beta 90.000000
_cell_angle_gamma 90.000000
_cell_volume 3860.080135
_symmetry_space_group_name_H-M "I M M M"
_symmetry_group_IT_number 71
_symmetry_cell_setting 'orthorhombic'
loop_
_space_group_symop_operation_xyz
x,y,z
-x,-y,z
x,-y,-z
-x,y,-z
-x,-y,-z
x,y,-z
-x,y,z
x,-y,z
1/2+x,1/2+y,1/2+z
1/2-x,1/2-y,1/2+z
1/2+x,1/2-y,1/2-z
1/2-x,1/2+y,1/2-z
1/2-x,1/2-y,1/2-z
1/2+x,1/2+y,1/2-z
1/2-x,1/2+y,1/2+z
1/2+x,1/2-y,1/2+z
loop_
_atom_site_type_symbol
_atom_site_label
_atom_site_fract_x
_atom_site_fract_y
_atom_site_fract_z
Si Si1 0.423906 0.180409 0.778216
Si Si2 0.836400 0.680646 0.612176
Si Si3 0.700825 0.819461 0.432058
Si Si4 0.923595 0.680359 0.500000
Si Si5 0.075833 0.319429 0.144990
O O1 0.500000 0.238905 0.794585
O O2 0.369631 0.242447 0.826332
O O3 0.403976 0.237113 0.711708
O O4 0.423919 0.000000 0.780748
O O5 0.829513 0.500000 0.611170
O O6 0.762173 0.752874 0.606635
O O7 0.883845 0.739208 0.558211
O O8 0.704143 0.759056 0.500000
O O9 0.630664 0.758044 0.402632
O O10 0.704312 0.000000 0.430072
O O11 0.927321 0.500000 0.500000
O O12 0.000000 0.748629 0.500000
O O13 0.075101 0.500000 0.144469
O O14 0.000000 0.259255 0.127883
#
# Coordination Sequence:
#
# PCOD8287465 Si02
#       5
#    16  16  16   8  16
#     4   8  14  26  46  71  94 115 148 195 235 266
#     4  10  18  29  47  70  94 121 151 186 230 275
#     4  10  20  32  46  66  95 126 154 188 228 271
#     4   9  16  26  43  67  90 115 152 190 217 251
#     4   8  15  29  48  69  91 116 151 195 236 270
#
# _framework density 18.652462
#
# number of rings (size 3 to 8) (size 9 to 14) (size 15 to 20)
#    0.000    3.000    1.111    2.000    0.000    4.000 
#    0.000    2.222    0.000    4.000    0.000    4.667 
#    0.000    0.000    0.000    0.000    0.000    0.000 
#
# Total GULP energy -446230.341512 kJ/mol
# GULP energy per Si atom -12395.287264 kJ/mol
# Density = 1.861001 g / cm^3
# Si number density = 18.652462 Si / 1000 Ang^3
#
#
#
# Elastic Constant Matrix: (Units=GPa)
#
#
# Indices 1 2 3 4 5 6 
#
# 1 161.3419 14.1255 81.8238 0.0000 0.0000 0.0000
# 2 14.1255 7.7458 12.1902 0.0000 0.0000 0.0000
# 3 81.8238 12.1902 114.0215 0.0000 0.0000 0.0000
# 4 0.0000 0.0000 0.0000 10.8470 0.0000 0.0000
# 5 0.0000 0.0000 0.0000 0.0000 42.3956 0.0000
# 6 0.0000 0.0000 0.0000 0.0000 0.0000 23.3853
#
#
#
# Elastic Compliance Matrix: (Units=1/GPa)
#
#
# Indices 1 2 3 4 5 6 
#
# 1 0.010190 -0.008506 -0.006403 0.000000 0.000000 0.000000
# 2 -0.008506 0.162319 -0.011250 0.000000 0.000000 0.000000
# 3 -0.006403 -0.011250 0.014568 0.000000 0.000000 0.000000
# 4 0.000000 0.000000 0.000000 0.092191 0.000000 0.000000
# 5 0.000000 0.000000 0.000000 0.000000 0.023587 0.000000
# 6 0.000000 0.000000 0.000000 0.000000 0.000000 0.042762
#
#
# Mechanical properties :
#
#
# Convention : Reuss Voigt Hill
#
# Bulk Modulus (GPa) = 7.42062 55.48758 31.45410
# Shear Modulus (GPa) = 11.29037 26.99023 19.14030
#
# Velocity S-wave (km/s) = 2.46296 3.80808 3.20684
# Velocity P-wave (km/s) = 3.47494 7.01056 5.53278
#
# Compressibility (1/GPa) = 0.13475962
#
# Stress axis : x y z
#
# Youngs Moduli (GPa) = 98.13494 6.16070 68.64340
#
# Poissons Ratio (x) = 0.05240 0.43954
# Poissons Ratio (y) = 0.83472 0.77222
# Poissons Ratio (z) = 0.62838 0.06931
#
# Static dielectric constant tensor:
#      x y z
#    x 3.671200 0.000000 0.000000 
#    y 0.000000 2.753860 0.000000 
#    z 0.000000 0.000000 3.763960 
# 
# 
# High freq. dielectric constant tensor:
#      x y z
#    x 1.733480 0.000000 0.000000 
#    y 0.000000 1.654670 0.000000 
#    z 0.000000 0.000000 1.733360 
# 
# From -- ./inp_files/7926.got.cif
#   From: 2010.06.25/outbox.cif.g09.slc.cpg/sg71_4_cif.got.tgz:7926.got - 2010.06.28 04:59:45.
