data_PCOD8287122
_publ_section_title
;
Structure prediction by ZEFSAII (Michael W. Deem and Ramdas Pophale) SiO2 
 PCOD8287122
Probable space group: I M M M
;
_chemical_formula_sum "Si O2"
_cell_formula_units_Z 72
_cell_length_a 20.364845
_cell_length_b 8.798156
_cell_length_c 21.179003
_cell_angle_alpha 90.000000
_cell_angle_beta 90.000000
_cell_angle_gamma 90.000000
_cell_volume 3794.707267
_symmetry_space_group_name_H-M "I M M M"
_symmetry_group_IT_number 71
_symmetry_cell_setting 'orthorhombic'
loop_
_space_group_symop_operation_xyz
x,y,z
-x,-y,z
x,-y,-z
-x,y,-z
-x,-y,-z
x,y,-z
-x,y,z
x,-y,z
1/2+x,1/2+y,1/2+z
1/2-x,1/2-y,1/2+z
1/2+x,1/2-y,1/2-z
1/2-x,1/2+y,1/2-z
1/2-x,1/2-y,1/2-z
1/2+x,1/2+y,1/2-z
1/2-x,1/2+y,1/2+z
1/2+x,1/2-y,1/2+z
loop_
_atom_site_type_symbol
_atom_site_label
_atom_site_fract_x
_atom_site_fract_y
_atom_site_fract_z
Si Si1 0.000000 0.178878 0.144315
Si Si2 0.379923 0.176399 0.572564
Si Si3 0.375034 0.679523 0.131604
Si Si4 0.240919 0.679515 0.427811
Si Si5 0.929144 0.820439 0.500000
Si Si6 0.500000 0.321875 0.791103
O O1 0.064295 0.252418 0.115600
O O2 0.000000 0.217539 0.218213
O O3 0.000000 0.000000 0.131574
O O4 0.400659 0.199403 0.500000
O O5 0.313189 0.262287 0.588581
O O6 0.371351 0.000000 0.589040
O O7 0.366902 0.500000 0.140808
O O8 0.303333 0.757704 0.131394
O O9 0.431892 0.743738 0.178473
O O10 0.393386 0.734733 0.061929
O O11 0.222408 0.735195 0.500000
O O12 0.240122 0.500000 0.425072
O O13 0.000000 0.743130 0.500000
O O14 0.935960 0.000000 0.500000
O O15 0.500000 0.500000 0.806494
#
# Coordination Sequence:
#
# PCOD8287122 Si02
#       6
#     8  16  16  16   8   8
#     4  11  22  38  58  82 112 142 173 218 276 325
#     4  10  21  38  61  86 107 133 175 222 268 325
#     4  10  17  30  52  78 108 145 188 225 258 304
#     4  10  20  33  51  81 117 144 170 217 280 330
#     4   9  14  22  45  77 103 134 181 228 259 293
#     4   9  20  35  54  79 109 148 191 226 256 308
#
# _framework density 18.973794000000002
#
# number of rings (size 3 to 8) (size 9 to 14) (size 15 to 20)
#    0.000    2.111    2.222    2.000    0.000    3.556 
#    0.000    3.889    0.000    2.000    0.000    0.000 
#    0.000    0.000    0.000    0.000    0.000    0.000 
#
# Total GULP energy -446027.480823 kJ/mol
# GULP energy per Si atom -12389.652245 kJ/mol
# Density = 1.893061 g / cm^3
# Si number density = 18.973794 Si / 1000 Ang^3
#
#
#
# Elastic Constant Matrix: (Units=GPa)
#
#
# Indices 1 2 3 4 5 6 
#
# 1 142.2688 38.4171 56.0312 0.0000 0.0000 0.0000
# 2 38.4171 51.4665 25.2516 0.0000 0.0000 0.0000
# 3 56.0312 25.2516 77.9876 0.0000 0.0000 0.0000
# 4 0.0000 0.0000 0.0000 19.8139 0.0000 0.0000
# 5 0.0000 0.0000 0.0000 0.0000 62.6449 0.0000
# 6 0.0000 0.0000 0.0000 0.0000 0.0000 21.6141
#
#
#
# Elastic Compliance Matrix: (Units=1/GPa)
#
#
# Indices 1 2 3 4 5 6 
#
# 1 0.010809 -0.005062 -0.006127 0.000000 0.000000 0.000000
# 2 -0.005062 0.025471 -0.004610 0.000000 0.000000 0.000000
# 3 -0.006127 -0.004610 0.018717 0.000000 0.000000 0.000000
# 4 0.000000 0.000000 0.000000 0.050470 0.000000 0.000000
# 5 0.000000 0.000000 0.000000 0.000000 0.015963 0.000000
# 6 0.000000 0.000000 0.000000 0.000000 0.000000 0.046266
#
#
# Mechanical properties :
#
#
# Convention : Reuss Voigt Hill
#
# Bulk Modulus (GPa) = 42.73768 56.79140 49.76454
# Shear Modulus (GPa) = 24.14376 30.94945 27.54661
#
# Velocity S-wave (km/s) = 3.57105 4.04315 3.81441
# Velocity P-wave (km/s) = 6.29100 7.19671 6.75904
#
# Compressibility (1/GPa) = 0.02339856
#
# Stress axis : x y z
#
# Youngs Moduli (GPa) = 92.51693 39.26075 53.42727
#
# Poissons Ratio (x) = 0.19875 0.32733
# Poissons Ratio (y) = 0.46834 0.24631
# Poissons Ratio (z) = 0.56682 0.18100
#
# Static dielectric constant tensor:
#      x y z
#    x 3.752650 0.000000 0.000000 
#    y 0.000000 3.222330 0.000000 
#    z 0.000000 0.000000 3.255680 
# 
# 
# High freq. dielectric constant tensor:
#      x y z
#    x 1.759070 0.000000 0.000000 
#    y 0.000000 1.718050 0.000000 
#    z 0.000000 0.000000 1.710600 
# 
# From -- ./inp_files/54696.got.cif
#   From: 2010.06.25/outbox.cif.g09.slc.cpg/sg71_28_cif.got.tgz:54696.got - 2010.06.28 04:59:45.
