data_PCOD8287707
_publ_section_title
;
Structure prediction by ZEFSAII (Michael W. Deem and Ramdas Pophale) SiO2 
 PCOD8287707
Probable space group: I M M M
;
_chemical_formula_sum "Si O2"
_cell_formula_units_Z 72
_cell_length_a 15.689991
_cell_length_b 28.809608
_cell_length_c 8.938633
_cell_angle_alpha 90.000000
_cell_angle_beta 90.000000
_cell_angle_gamma 90.000000
_cell_volume 4040.463148
_symmetry_space_group_name_H-M "I M M M"
_symmetry_group_IT_number 71
_symmetry_cell_setting 'orthorhombic'
loop_
_space_group_symop_operation_xyz
x,y,z
-x,-y,z
x,-y,-z
-x,y,-z
-x,-y,-z
x,y,-z
-x,y,z
x,-y,z
1/2+x,1/2+y,1/2+z
1/2-x,1/2-y,1/2+z
1/2+x,1/2-y,1/2-z
1/2-x,1/2+y,1/2-z
1/2-x,1/2-y,1/2-z
1/2+x,1/2+y,1/2-z
1/2-x,1/2+y,1/2+z
1/2+x,1/2-y,1/2+z
loop_
_atom_site_type_symbol
_atom_site_label
_atom_site_fract_x
_atom_site_fract_y
_atom_site_fract_z
Si Si1 0.000000 0.220441 0.175795
Si Si2 0.817597 0.551806 0.677612
Si Si3 0.315927 0.385341 0.832103
Si Si4 0.172622 0.776271 0.674672
Si Si5 0.000000 0.125822 0.669898
Si Si6 0.000000 0.445022 0.663246
O O1 0.914942 0.242071 0.250116
O O2 0.000000 0.165613 0.206039
O O3 0.000000 0.230838 0.000000
O O4 0.825521 0.550775 0.500000
O O5 0.794761 0.500000 0.736698
O O6 0.744893 0.587676 0.720748
O O7 0.910346 0.568418 0.744942
O O8 0.315002 0.330882 0.795763
O O9 0.413480 0.404140 0.810880
O O10 0.283920 0.394910 0.000000
O O11 0.169592 0.764577 0.500000
O O12 0.250000 0.750000 0.750000
O O13 0.000000 0.148012 0.500000
O O14 0.000000 0.500000 0.643854
O O15 0.000000 0.421114 0.500000
#
# Coordination Sequence:
#
# PCOD8287707 Si02
#       6
#     8  16  16  16   8   8
#     4  10  18  30  51  76  99 128 164 202 248 297
#     4   9  17  30  49  71  94 123 161 201 238 283
#     4   9  18  32  50  71  96 125 157 197 242 287
#     4  10  20  35  53  74 100 131 168 206 245 294
#     4   8  16  32  49  66  93 129 165 196 232 289
#     4   7  12  26  46  65  88 121 157 190 228 277
#
# _framework density 17.819739999999999
#
# number of rings (size 3 to 8) (size 9 to 14) (size 15 to 20)
#    0.000    3.000    0.000    4.333    0.000    4.889 
#    0.000    2.222    0.000   10.667    0.000    0.000 
#    0.000    0.000    0.000    0.000    0.000    0.000 
#
# Total GULP energy -445985.876949 kJ/mol
# GULP energy per Si atom -12388.496582 kJ/mol
# Density = 1.777918 g / cm^3
# Si number density = 17.819740 Si / 1000 Ang^3
#
#
#
# Elastic Constant Matrix: (Units=GPa)
#
#
# Indices 1 2 3 4 5 6 
#
# 1 187.2627 51.7155 60.4867 0.0004 -0.0003 0.0002
# 2 51.7155 38.9191 27.1301 0.0000 0.0003 0.0001
# 3 60.4867 27.1301 80.7037 0.0000 0.0034 -0.0014
# 4 0.0004 0.0000 0.0000 23.0083 0.0007 -0.0001
# 5 -0.0003 0.0003 0.0034 0.0007 29.2607 0.0002
# 6 0.0002 0.0001 -0.0014 -0.0001 0.0002 29.4711
#
#
#
# Elastic Compliance Matrix: (Units=1/GPa)
#
#
# Indices 1 2 3 4 5 6 
#
# 1 0.009184 -0.009672 -0.003632 0.000000 0.000001 0.000000
# 2 -0.009672 0.043745 -0.007456 0.000000 0.000000 0.000000
# 3 -0.003632 -0.007456 0.017620 0.000000 -0.000002 0.000001
# 4 0.000000 0.000000 0.000000 0.043463 -0.000001 0.000000
# 5 0.000001 0.000000 -0.000002 -0.000001 0.034176 0.000000
# 6 0.000000 0.000000 0.000001 0.000000 0.000000 0.033932
#
#
# Mechanical properties :
#
#
# Convention : Reuss Voigt Hill
#
# Bulk Modulus (GPa) = 34.45022 65.06112 49.75567
# Shear Modulus (GPa) = 21.43020 27.51824 24.47422
#
# Velocity S-wave (km/s) = 3.47163 3.93397 3.71001
# Velocity P-wave (km/s) = 5.95350 7.56470 6.80694
#
# Compressibility (1/GPa) = 0.02902739
#
# Stress axis : x y z
#
# Youngs Moduli (GPa) = 108.87983 22.86001 56.75431
#
# Poissons Ratio (x) = 0.22111 0.20614
# Poissons Ratio (y) = 1.05312 0.42317
# Poissons Ratio (z) = 0.39546 0.17045
#
# Static dielectric constant tensor:
#      x y z
#    x 3.833540 0.000000 0.000000 
#    y 0.000000 2.847680 0.000000 
#    z 0.000000 0.000000 3.106580 
# 
# 
# High freq. dielectric constant tensor:
#      x y z
#    x 1.718200 0.000000 0.000000 
#    y 0.000000 1.638110 0.000000 
#    z 0.000000 0.000000 1.674830 
# 
# From -- ./inp_files/6530.got.cif
#   From: 2010.06.25/outbox.cif.g09.slc.cpg/sg71_4_cif.got.tgz:6530.got - 2010.06.28 04:59:45.
