data_PCOD8287842
_publ_section_title
;
Structure prediction by ZEFSAII (Michael W. Deem and Ramdas Pophale) SiO2 
 PCOD8287842
Probable space group: I M M M
;
_chemical_formula_sum "Si O2"
_cell_formula_units_Z 88
_cell_length_a 22.659809
_cell_length_b 23.140668
_cell_length_c 8.589406
_cell_angle_alpha 90.000000
_cell_angle_beta 90.000000
_cell_angle_gamma 90.000000
_cell_volume 4503.967703
_symmetry_space_group_name_H-M "I M M M"
_symmetry_group_IT_number 71
_symmetry_cell_setting 'orthorhombic'
loop_
_space_group_symop_operation_xyz
x,y,z
-x,-y,z
x,-y,-z
-x,y,-z
-x,-y,-z
x,y,-z
-x,y,z
x,-y,z
1/2+x,1/2+y,1/2+z
1/2-x,1/2-y,1/2+z
1/2+x,1/2-y,1/2-z
1/2-x,1/2+y,1/2-z
1/2-x,1/2-y,1/2-z
1/2+x,1/2+y,1/2-z
1/2-x,1/2+y,1/2+z
1/2+x,1/2-y,1/2+z
loop_
_atom_site_type_symbol
_atom_site_label
_atom_site_fract_x
_atom_site_fract_y
_atom_site_fract_z
Si Si1 0.765898 0.062940 0.681748
Si Si2 0.164782 0.645692 0.814640
Si Si3 0.000000 0.066965 0.183673
Si Si4 0.435698 0.936363 0.684379
Si Si5 0.882974 0.875880 0.318502
Si Si6 0.314820 0.262121 0.181927
O O1 0.752216 0.059414 0.500000
O O2 0.725821 0.115836 0.744455
O O3 0.834557 0.074702 0.713270
O O4 0.750370 0.000000 0.756219
O O5 0.113449 0.605367 0.749321
O O6 0.149934 0.704700 0.725653
O O7 0.164292 0.656061 0.000000
O O8 0.057261 0.103700 0.235334
O O9 0.000000 0.000000 0.249159
O O10 0.000000 0.063986 0.000000
O O11 0.430342 0.939738 0.500000
O O12 0.500000 0.912882 0.733574
O O13 0.425482 0.000000 0.754735
O O14 0.897682 0.868776 0.500000
O O15 0.853457 0.816214 0.252396
O O16 0.250000 0.250000 0.250000
O O17 0.306365 0.272700 0.000000
#
# Coordination Sequence:
#
# PCOD8287842 Si02
#       6
#    16  16   8  16  16  16
#     4   9  16  28  51  82 109 138 183 233 277 328
#     4  10  18  31  52  80 113 146 184 230 279 334
#     4  11  25  43  63  91 123 151 186 241 308 361
#     4   8  14  26  47  77 111 144 180 224 270 318
#     4  10  21  39  61  83 111 153 200 236 277 343
#     4  11  22  38  59  83 112 147 187 231 279 335
#
# _framework density 19.538329000000001
#
# number of rings (size 3 to 8) (size 9 to 14) (size 15 to 20)
#    0.000    2.273    1.818    2.455    0.000    5.091 
#    1.636    0.000    0.000    2.182    0.000    1.273 
#    0.000    0.000    0.000    0.000    0.000    0.000 
#
# Total GULP energy -545112.705272 kJ/mol
# GULP energy per Si atom -12388.925120 kJ/mol
# Density = 1.949386 g / cm^3
# Si number density = 19.538329 Si / 1000 Ang^3
#
#
#
# Elastic Constant Matrix: (Units=GPa)
#
#
# Indices 1 2 3 4 5 6 
#
# 1 133.1657 61.8080 22.7568 0.0000 0.0000 0.0000
# 2 61.8080 142.4308 22.1047 0.0000 0.0000 0.0000
# 3 22.7568 22.1047 31.6114 0.0000 0.0000 0.0000
# 4 0.0000 0.0000 0.0000 24.5905 0.0000 0.0000
# 5 0.0000 0.0000 0.0000 0.0000 17.0233 0.0000
# 6 0.0000 0.0000 0.0000 0.0000 0.0000 28.0344
#
#
#
# Elastic Compliance Matrix: (Units=1/GPa)
#
#
# Indices 1 2 3 4 5 6 
#
# 1 0.009981 -0.003608 -0.004662 0.000000 0.000000 0.000000
# 2 -0.003608 0.009180 -0.003822 0.000000 0.000000 0.000000
# 3 -0.004662 -0.003822 0.037663 0.000000 0.000000 0.000000
# 4 0.000000 0.000000 0.000000 0.040666 0.000000 0.000000
# 5 0.000000 0.000000 0.000000 0.000000 0.058743 0.000000
# 6 0.000000 0.000000 0.000000 0.000000 0.000000 0.035670
#
#
# Mechanical properties :
#
#
# Convention : Reuss Voigt Hill
#
# Bulk Modulus (GPa) = 30.63755 57.83856 44.23806
# Shear Modulus (GPa) = 22.02967 27.29885 24.66426
#
# Velocity S-wave (km/s) = 3.36149 3.74196 3.55681
# Velocity P-wave (km/s) = 5.54805 6.95245 6.28957
#
# Compressibility (1/GPa) = 0.03263968
#
# Stress axis : x y z
#
# Youngs Moduli (GPa) = 100.19432 108.93740 26.55117
#
# Poissons Ratio (x) = 0.39299 0.12379
# Poissons Ratio (y) = 0.36145 0.10148
# Poissons Ratio (z) = 0.46714 0.41635
#
# Static dielectric constant tensor:
#      x y z
#    x 3.720540 0.000000 0.000000 
#    y 0.000000 4.266320 0.000000 
#    z 0.000000 0.000000 3.175770 
# 
# 
# High freq. dielectric constant tensor:
#      x y z
#    x 1.765900 0.000000 0.000000 
#    y 0.000000 1.777570 0.000000 
#    z 0.000000 0.000000 1.708010 
# 
# From -- ./inp_files/10459.got.cif
#   From: 2010.06.25/outbox.cif.g09.slc.cpg/sg71_6_cif.got.tgz:10459.got - 2010.06.28 04:59:45.
