data_PCOD8287807
_publ_section_title
;
Structure prediction by ZEFSAII (Michael W. Deem and Ramdas Pophale) SiO2 
 PCOD8287807
Probable space group: I M M M
;
_chemical_formula_sum "Si O2"
_cell_formula_units_Z 64
_cell_length_a 22.408746
_cell_length_b 7.626313
_cell_length_c 23.159433
_cell_angle_alpha 90.000000
_cell_angle_beta 90.000000
_cell_angle_gamma 90.000000
_cell_volume 3957.857031
_symmetry_space_group_name_H-M "I M M M"
_symmetry_group_IT_number 71
_symmetry_cell_setting 'orthorhombic'
loop_
_space_group_symop_operation_xyz
x,y,z
-x,-y,z
x,-y,-z
-x,y,-z
-x,-y,-z
x,y,-z
-x,y,z
x,-y,z
1/2+x,1/2+y,1/2+z
1/2-x,1/2-y,1/2+z
1/2+x,1/2-y,1/2-z
1/2-x,1/2+y,1/2-z
1/2-x,1/2-y,1/2-z
1/2+x,1/2+y,1/2-z
1/2-x,1/2+y,1/2+z
1/2+x,1/2-y,1/2+z
loop_
_atom_site_type_symbol
_atom_site_label
_atom_site_fract_x
_atom_site_fract_y
_atom_site_fract_z
Si Si1 0.346122 0.304332 0.726190
Si Si2 0.431268 0.000000 0.250074
Si Si3 0.772391 0.295042 0.666598
Si Si4 0.068588 0.500000 0.613370
Si Si5 0.650097 0.700016 0.934055
O O1 0.370608 0.500000 0.714437
O O2 0.296890 0.250163 0.678047
O O3 0.314533 0.305644 0.788506
O O4 0.401296 0.172310 0.722645
O O5 0.500000 0.000000 0.268293
O O6 0.422773 0.000000 0.181672
O O7 0.785138 0.500000 0.675100
O O8 0.789539 0.233429 0.602368
O O9 0.097392 0.675385 0.587851
O O10 0.000000 0.500000 0.594933
O O11 0.628127 0.500000 0.927229
O O12 0.665957 0.744372 0.000000
#
# Coordination Sequence:
#
# PCOD8287807 Si02
#       5
#    16   8  16   8  16
#     4  10  19  31  51  74  96 128 161 203 250 300
#     4  11  22  35  50  75 103 132 175 205 239 296
#     4  10  18  31  51  74  98 124 164 201 254 306
#     4  11  23  38  51  66  98 139 180 212 240 285
#     4  11  22  34  50  72  97 129 170 212 252 289
#
# _framework density 16.170366999999999
#
# number of rings (size 3 to 8) (size 9 to 14) (size 15 to 20)
#    0.000    1.500    5.000    1.125    3.500    2.000 
#    0.000    3.750    0.000    0.000    0.000    0.000 
#    0.000    2.000    0.000    5.500    0.000    0.000 
#
# Total GULP energy -396843.491025 kJ/mol
# GULP energy per Si atom -12401.359095 kJ/mol
# Density = 1.613356 g / cm^3
# Si number density = 16.170367 Si / 1000 Ang^3
#
#
#
# Elastic Constant Matrix: (Units=GPa)
#
#
# Indices 1 2 3 4 5 6 
#
# 1 124.9640 70.7886 59.3349 0.0000 0.0000 0.0000
# 2 70.7886 113.0816 33.2833 0.0000 0.0000 0.0000
# 3 59.3349 33.2833 78.2391 0.0000 0.0000 0.0000
# 4 0.0000 0.0000 0.0000 21.1182 0.0000 0.0000
# 5 0.0000 0.0000 0.0000 0.0000 21.2839 0.0000
# 6 0.0000 0.0000 0.0000 0.0000 0.0000 23.8840
#
#
#
# Elastic Compliance Matrix: (Units=1/GPa)
#
#
# Indices 1 2 3 4 5 6 
#
# 1 0.016951 -0.007805 -0.009535 0.000000 0.000000 0.000000
# 2 -0.007805 0.013702 0.000090 0.000000 0.000000 0.000000
# 3 -0.009535 0.000090 0.019974 0.000000 0.000000 0.000000
# 4 0.000000 0.000000 0.000000 0.047352 0.000000 0.000000
# 5 0.000000 0.000000 0.000000 0.000000 0.046984 0.000000
# 6 0.000000 0.000000 0.000000 0.000000 0.000000 0.041869
#
#
# Mechanical properties :
#
#
# Convention : Reuss Voigt Hill
#
# Bulk Modulus (GPa) = 62.00472 71.45536 66.73004
# Shear Modulus (GPa) = 22.05476 23.44909 22.75192
#
# Velocity S-wave (km/s) = 3.69711 3.81218 3.75509
# Velocity P-wave (km/s) = 7.52680 7.97885 7.75612
#
# Compressibility (1/GPa) = 0.01612780
#
# Stress axis : x y z
#
# Youngs Moduli (GPa) = 58.99425 72.97965 50.06452
#
# Poissons Ratio (x) = 0.56959 0.47736
# Poissons Ratio (y) = 0.46043 -0.00450
# Poissons Ratio (z) = 0.56251 -0.00656
#
# Static dielectric constant tensor:
#      x y z
#    x 3.029670 0.000000 0.000000 
#    y 0.000000 3.269230 0.000000 
#    z 0.000000 0.000000 3.030800 
# 
# 
# High freq. dielectric constant tensor:
#      x y z
#    x 1.599870 0.000000 0.000000 
#    y 0.000000 1.644650 0.000000 
#    z 0.000000 0.000000 1.594670 
# 
# From -- ./inp_files/54635.got.cif
#   From: 2010.06.25/outbox.cif.g09.slc.cpg/sg71_28_cif.got.tgz:54635.got - 2010.06.28 04:59:45.
