data_PCOD8287358
_publ_section_title
;
Structure prediction by ZEFSAII (Michael W. Deem and Ramdas Pophale) SiO2 
 PCOD8287358
Probable space group: I M M M
;
_chemical_formula_sum "Si O2"
_cell_formula_units_Z 80
_cell_length_a 20.243460
_cell_length_b 8.839250
_cell_length_c 24.873525
_cell_angle_alpha 90.000000
_cell_angle_beta 90.000000
_cell_angle_gamma 90.000000
_cell_volume 4450.794038
_symmetry_space_group_name_H-M "I M M M"
_symmetry_group_IT_number 71
_symmetry_cell_setting 'orthorhombic'
loop_
_space_group_symop_operation_xyz
x,y,z
-x,-y,z
x,-y,-z
-x,y,-z
-x,-y,-z
x,y,-z
-x,y,z
x,-y,z
1/2+x,1/2+y,1/2+z
1/2-x,1/2-y,1/2+z
1/2+x,1/2-y,1/2-z
1/2-x,1/2+y,1/2-z
1/2-x,1/2-y,1/2-z
1/2+x,1/2+y,1/2-z
1/2-x,1/2+y,1/2+z
1/2+x,1/2-y,1/2+z
loop_
_atom_site_type_symbol
_atom_site_label
_atom_site_fract_x
_atom_site_fract_y
_atom_site_fract_z
Si Si1 0.379457 0.676913 0.500000
Si Si2 0.384343 0.824959 0.391013
Si Si3 0.271955 0.329820 0.883923
Si Si4 0.811306 0.677061 0.719458
Si Si5 0.243052 0.173389 0.500000
Si Si6 0.924997 0.172874 0.783919
O O1 0.395036 0.500000 0.500000
O O2 0.410216 0.752359 0.446633
O O3 0.301202 0.705176 0.500000
O O4 0.306222 0.801091 0.383731
O O5 0.421472 0.741660 0.343161
O O6 0.403753 0.000000 0.390360
O O7 0.287697 0.500000 0.864554
O O8 0.307955 0.214824 0.843878
O O9 0.299130 0.303840 0.945132
O O10 0.807809 0.500000 0.728719
O O11 0.750000 0.750000 0.750000
O O12 0.880106 0.736061 0.742350
O O13 0.272630 0.000000 0.500000
O O14 0.000000 0.184509 0.763114
O O15 0.900633 0.000000 0.786041
#
# Coordination Sequence:
#
# PCOD8287358 Si02
#       6
#     8  16  16  16   8  16
#     4  10  18  28  47  73 104 139 179 226 266 309
#     4  10  19  33  53  75 104 141 180 222 269 322
#     4   9  17  31  52  79 108 140 176 220 266 316
#     4  12  23  35  55  81 110 144 182 225 268 319
#     4   8  16  30  48  73 108 141 174 215 268 321
#     4  11  24  40  57  78 106 140 180 227 277 329
#
# _framework density 17.974319999999999
#
# number of rings (size 3 to 8) (size 9 to 14) (size 15 to 20)
#    0.000    1.800    2.000    5.100    0.000    4.800 
#    0.000    0.500    0.000    3.000    0.000    0.700 
#    0.000    5.600    0.000    0.000    0.000    0.000 
#
# Total GULP energy -495978.219397 kJ/mol
# GULP energy per Si atom -12399.455485 kJ/mol
# Density = 1.793341 g / cm^3
# Si number density = 17.974320 Si / 1000 Ang^3
#
#
#
# Elastic Constant Matrix: (Units=GPa)
#
#
# Indices 1 2 3 4 5 6 
#
# 1 56.0940 40.1068 39.3358 0.0000 0.0000 0.0000
# 2 40.1068 143.5373 55.0160 0.0000 0.0000 0.0000
# 3 39.3358 55.0160 127.3817 0.0000 0.0000 0.0000
# 4 0.0000 0.0000 0.0000 35.3634 0.0000 0.0000
# 5 0.0000 0.0000 0.0000 0.0000 14.5140 0.0000
# 6 0.0000 0.0000 0.0000 0.0000 0.0000 20.1223
#
#
#
# Elastic Compliance Matrix: (Units=1/GPa)
#
#
# Indices 1 2 3 4 5 6 
#
# 1 0.025326 -0.004888 -0.005710 0.000000 0.000000 0.000000
# 2 -0.004888 0.009292 -0.002504 0.000000 0.000000 0.000000
# 3 -0.005710 -0.002504 0.010695 0.000000 0.000000 0.000000
# 4 0.000000 0.000000 0.000000 0.028278 0.000000 0.000000
# 5 0.000000 0.000000 0.000000 0.000000 0.068899 0.000000
# 6 0.000000 0.000000 0.000000 0.000000 0.000000 0.049696
#
#
# Mechanical properties :
#
#
# Convention : Reuss Voigt Hill
#
# Bulk Modulus (GPa) = 52.32809 66.21447 59.27128
# Shear Modulus (GPa) = 22.24598 26.83689 24.54144
#
# Velocity S-wave (km/s) = 3.52185 3.86822 3.69909
# Velocity P-wave (km/s) = 6.76120 7.54116 7.16181
#
# Compressibility (1/GPa) = 0.01911019
#
# Stress axis : x y z
#
# Youngs Moduli (GPa) = 39.48511 107.61518 93.50191
#
# Poissons Ratio (x) = 0.52604 0.53385
# Poissons Ratio (y) = 0.19301 0.23412
# Poissons Ratio (z) = 0.22544 0.26946
#
# Static dielectric constant tensor:
#      x y z
#    x 2.895760 0.000000 0.000000 
#    y 0.000000 3.418330 0.000000 
#    z 0.000000 0.000000 3.751580 
# 
# 
# High freq. dielectric constant tensor:
#      x y z
#    x 1.640480 0.000000 0.000000 
#    y 0.000000 1.707500 0.000000 
#    z 0.000000 0.000000 1.710640 
# 
# From -- ./inp_files/50382.got.cif
#   From: 2010.06.25/outbox.cif.g09.slc.cpg/sg71_26_cif.got.tgz:50382.got - 2010.06.28 04:59:45.
