data_PCOD8287198
_publ_section_title
;
Structure prediction by ZEFSAII (Michael W. Deem and Ramdas Pophale) SiO2 
 PCOD8287198
Probable space group: I M M M
;
_chemical_formula_sum "Si O2"
_cell_formula_units_Z 80
_cell_length_a 24.921821
_cell_length_b 20.792802
_cell_length_c 9.242500
_cell_angle_alpha 90.000000
_cell_angle_beta 90.000000
_cell_angle_gamma 90.000000
_cell_volume 4789.412570
_symmetry_space_group_name_H-M "I M M M"
_symmetry_group_IT_number 71
_symmetry_cell_setting 'orthorhombic'
loop_
_space_group_symop_operation_xyz
x,y,z
-x,-y,z
x,-y,-z
-x,y,-z
-x,-y,-z
x,y,-z
-x,y,z
x,-y,z
1/2+x,1/2+y,1/2+z
1/2-x,1/2-y,1/2+z
1/2+x,1/2-y,1/2-z
1/2-x,1/2+y,1/2-z
1/2-x,1/2-y,1/2-z
1/2+x,1/2+y,1/2-z
1/2-x,1/2+y,1/2+z
1/2+x,1/2-y,1/2+z
loop_
_atom_site_type_symbol
_atom_site_label
_atom_site_fract_x
_atom_site_fract_y
_atom_site_fract_z
Si Si1 0.720187 0.192539 0.329561
Si Si2 0.115609 0.119567 0.163118
Si Si3 0.000000 0.133412 0.835200
Si Si4 0.603737 0.230374 0.667087
Si Si5 0.000000 0.263866 0.328484
Si Si6 0.713831 0.571159 0.830330
O O1 0.728503 0.203026 0.500000
O O2 0.750000 0.250000 0.250000
O O3 0.657202 0.191122 0.290414
O O4 0.744461 0.124776 0.274086
O O5 0.054618 0.092312 0.185016
O O6 0.115694 0.195051 0.200215
O O7 0.154781 0.081348 0.266888
O O8 0.135572 0.108041 0.000000
O O9 0.000000 0.189813 0.718153
O O10 0.000000 0.162969 0.000000
O O11 0.588534 0.220251 0.500000
O O12 0.554181 0.203947 0.763342
O O13 0.000000 0.271454 0.500000
O O14 0.734729 0.500000 0.786368
O O15 0.707281 0.577244 0.000000
#
# Coordination Sequence:
#
# PCOD8287198 Si02
#       6
#    16  16   8  16   8  16
#     4  10  19  32  51  72  96 126 162 201 239 282
#     4   9  16  29  48  67  89 122 162 201 237 277
#     4   8  16  30  45  63  92 124 159 201 238 276
#     4   9  17  30  47  68  95 126 157 194 238 281
#     4  10  18  26  42  71 100 123 150 191 240 287
#     4  10  21  34  47  68  99 129 156 195 246 290
#
# _framework density 16.703510000000001
#
# number of rings (size 3 to 8) (size 9 to 14) (size 15 to 20)
#    0.000    2.600    2.000    2.100    0.000    4.400 
#    0.000    0.500    0.000    3.000    0.000    0.700 
#    0.000    5.600    0.000    0.000    0.000    0.000 
#
# Total GULP energy -495757.893016 kJ/mol
# GULP energy per Si atom -12393.947325 kJ/mol
# Density = 1.666549 g / cm^3
# Si number density = 16.703510 Si / 1000 Ang^3
#
#
#
# Elastic Constant Matrix: (Units=GPa)
#
#
# Indices 1 2 3 4 5 6 
#
# 1 140.2304 61.2869 53.0079 0.0000 0.0000 0.0000
# 2 61.2869 85.6326 32.3000 0.0000 0.0000 0.0000
# 3 53.0079 32.3000 52.9710 0.0000 0.0000 0.0000
# 4 0.0000 0.0000 0.0000 13.8884 0.0000 0.0000
# 5 0.0000 0.0000 0.0000 0.0000 28.3521 0.0000
# 6 0.0000 0.0000 0.0000 0.0000 0.0000 14.8413
#
#
#
# Elastic Compliance Matrix: (Units=1/GPa)
#
#
# Indices 1 2 3 4 5 6 
#
# 1 0.013430 -0.005899 -0.009842 0.000000 0.000000 0.000000
# 2 -0.005899 0.017757 -0.004924 0.000000 0.000000 0.000000
# 3 -0.009842 -0.004924 0.031730 0.000000 0.000000 0.000000
# 4 0.000000 0.000000 0.000000 0.072002 0.000000 0.000000
# 5 0.000000 0.000000 0.000000 0.000000 0.035271 0.000000
# 6 0.000000 0.000000 0.000000 0.000000 0.000000 0.067380
#
#
# Mechanical properties :
#
#
# Convention : Reuss Voigt Hill
#
# Bulk Modulus (GPa) = 46.32719 63.55818 54.94268
# Shear Modulus (GPa) = 17.47666 20.23231 18.85448
#
# Velocity S-wave (km/s) = 3.23814 3.48409 3.36337
# Velocity P-wave (km/s) = 6.46343 7.37012 6.93162
#
# Compressibility (1/GPa) = 0.02158560
#
# Stress axis : x y z
#
# Youngs Moduli (GPa) = 74.46227 56.31472 31.51618
#
# Poissons Ratio (x) = 0.33222 0.31018
# Poissons Ratio (y) = 0.43927 0.15520
# Poissons Ratio (z) = 0.73284 0.27732
#
# Static dielectric constant tensor:
#      x y z
#    x 3.565140 0.000000 0.000000 
#    y 0.000000 2.973870 0.000000 
#    z 0.000000 0.000000 3.031890 
# 
# 
# High freq. dielectric constant tensor:
#      x y z
#    x 1.657400 0.000000 0.000000 
#    y 0.000000 1.593590 0.000000 
#    z 0.000000 0.000000 1.636930 
# 
# From -- ./inp_files/10208.got.cif
#   From: 2010.06.25/outbox.cif.g09.slc.cpg/sg71_6_cif.got.tgz:10208.got - 2010.06.28 04:59:45.
