data_PCOD8287389
_publ_section_title
;
Structure prediction by ZEFSAII (Michael W. Deem and Ramdas Pophale) SiO2 
 PCOD8287389
Probable space group: I M M M
;
_chemical_formula_sum "Si O2"
_cell_formula_units_Z 88
_cell_length_a 9.250452
_cell_length_b 30.443166
_cell_length_c 18.200598
_cell_angle_alpha 90.000000
_cell_angle_beta 90.000000
_cell_angle_gamma 90.000000
_cell_volume 5125.525838
_symmetry_space_group_name_H-M "I M M M"
_symmetry_group_IT_number 71
_symmetry_cell_setting 'orthorhombic'
loop_
_space_group_symop_operation_xyz
x,y,z
-x,-y,z
x,-y,-z
-x,y,-z
-x,-y,-z
x,y,-z
-x,y,z
x,-y,z
1/2+x,1/2+y,1/2+z
1/2-x,1/2-y,1/2+z
1/2+x,1/2-y,1/2-z
1/2-x,1/2+y,1/2-z
1/2-x,1/2-y,1/2-z
1/2+x,1/2+y,1/2-z
1/2-x,1/2+y,1/2+z
1/2+x,1/2-y,1/2+z
loop_
_atom_site_type_symbol
_atom_site_label
_atom_site_fract_x
_atom_site_fract_y
_atom_site_fract_z
Si Si1 0.165145 0.789537 0.785419
Si Si2 0.670168 0.449250 0.354981
Si Si3 0.170848 0.882515 0.734008
Si Si4 0.170548 0.850981 0.582151
Si Si5 0.163457 0.735407 0.918660
Si Si6 0.664512 0.947836 0.000000
O O1 0.250000 0.750000 0.750000
O O2 0.233520 0.836938 0.767187
O O3 0.179013 0.780077 0.872288
O O4 0.000000 0.787850 0.757938
O O5 0.500000 0.442108 0.368411
O O6 0.706203 0.500000 0.339896
O O7 0.728832 0.423035 0.282934
O O8 0.753034 0.431155 0.426923
O O9 0.213776 0.885961 0.646718
O O10 0.000000 0.882187 0.741811
O O11 0.227500 0.864908 0.500000
O O12 0.234247 0.804295 0.608049
O O13 0.000000 0.845481 0.579440
O O14 0.000000 0.717134 0.914478
O O15 0.208294 0.749492 0.000000
O O16 0.500000 0.930109 0.000000
O O17 0.667916 0.000000 0.000000
#
# Coordination Sequence:
#
# PCOD8287389 Si02
#       6
#    16  16  16  16  16   8
#     4  10  18  29  44  63  89 118 148 183 224 267
#     4   9  17  31  51  71  91 120 158 193 225 271
#     4   9  17  29  45  68  92 117 152 191 229 269
#     4   9  16  27  45  65  86 116 152 186 222 268
#     4   9  17  28  41  59  84 114 149 185 219 258
#     4   9  17  31  51  73  97 121 147 187 235 277
#
# _framework density 17.168970000000002
#
# number of rings (size 3 to 8) (size 9 to 14) (size 15 to 20)
#    0.000    2.818    1.818    0.273    0.000    1.091 
#    1.636    1.818    0.000    0.545    0.000    3.818 
#    0.000    0.000    0.000    9.091    0.000    9.455 
#
# Total GULP energy -545113.413470 kJ/mol
# GULP energy per Si atom -12388.941215 kJ/mol
# Density = 1.712989 g / cm^3
# Si number density = 17.168970 Si / 1000 Ang^3
#
#
#
# Elastic Constant Matrix: (Units=GPa)
#
#
# Indices 1 2 3 4 5 6 
#
# 1 33.7611 19.3390 28.8878 -0.0001 0.0001 0.0000
# 2 19.3390 75.4973 63.2567 -0.0001 0.0000 0.0000
# 3 28.8878 63.2567 142.3359 -0.0005 0.0001 0.0000
# 4 -0.0001 -0.0001 -0.0005 30.4994 0.0000 0.0000
# 5 0.0001 0.0000 0.0001 0.0000 18.2175 0.0000
# 6 0.0000 0.0000 0.0000 0.0000 0.0000 15.1885
#
#
#
# Elastic Compliance Matrix: (Units=1/GPa)
#
#
# Indices 1 2 3 4 5 6 
#
# 1 0.037028 -0.005080 -0.005257 0.000000 0.000000 0.000000
# 2 -0.005080 0.021801 -0.008658 0.000000 0.000000 0.000000
# 3 -0.005257 -0.008658 0.011940 0.000000 0.000000 0.000000
# 4 0.000000 0.000000 0.000000 0.032788 0.000000 0.000000
# 5 0.000000 0.000000 0.000000 0.000000 0.054892 0.000000
# 6 0.000000 0.000000 0.000000 0.000000 0.000000 0.065839
#
#
# Mechanical properties :
#
#
# Convention : Reuss Voigt Hill
#
# Bulk Modulus (GPa) = 30.50712 52.72903 41.61807
# Shear Modulus (GPa) = 18.30129 22.12180 20.21154
#
# Velocity S-wave (km/s) = 3.26843 3.59343 3.43478
# Velocity P-wave (km/s) = 5.66135 6.92788 6.32639
#
# Compressibility (1/GPa) = 0.03277924
#
# Stress axis : x y z
#
# Youngs Moduli (GPa) = 27.00638 45.87011 83.75016
#
# Poissons Ratio (x) = 0.23301 0.44032
# Poissons Ratio (y) = 0.13719 0.72508
# Poissons Ratio (z) = 0.14199 0.39713
#
# Static dielectric constant tensor:
#      x y z
#    x 3.065210 0.000000 0.000000 
#    y 0.000000 3.094150 0.000000 
#    z 0.000000 0.000000 3.867140 
# 
# 
# High freq. dielectric constant tensor:
#      x y z
#    x 1.639430 0.000000 0.000000 
#    y 0.000000 1.620700 0.000000 
#    z 0.000000 0.000000 1.683280 
# 
# From -- ./inp_files/16713.got.cif
#   From: 2010.06.25/outbox.cif.g09.slc.cpg/sg71_9_cif.got.tgz:16713.got - 2010.06.28 04:59:45.
