data_PCOD8287349
_publ_section_title
;
Structure prediction by ZEFSAII (Michael W. Deem and Ramdas Pophale) SiO2 
 PCOD8287349
Probable space group: I M M M
;
_chemical_formula_sum "Si O2"
_cell_formula_units_Z 88
_cell_length_a 22.898683
_cell_length_b 22.411019
_cell_length_c 9.451074
_cell_angle_alpha 90.000000
_cell_angle_beta 90.000000
_cell_angle_gamma 90.000000
_cell_volume 4850.128805
_symmetry_space_group_name_H-M "I M M M"
_symmetry_group_IT_number 71
_symmetry_cell_setting 'orthorhombic'
loop_
_space_group_symop_operation_xyz
x,y,z
-x,-y,z
x,-y,-z
-x,y,-z
-x,-y,-z
x,y,-z
-x,y,z
x,-y,z
1/2+x,1/2+y,1/2+z
1/2-x,1/2-y,1/2+z
1/2+x,1/2-y,1/2-z
1/2-x,1/2+y,1/2-z
1/2-x,1/2-y,1/2-z
1/2+x,1/2+y,1/2-z
1/2-x,1/2+y,1/2+z
1/2+x,1/2-y,1/2+z
loop_
_atom_site_type_symbol
_atom_site_label
_atom_site_fract_x
_atom_site_fract_y
_atom_site_fract_z
Si Si1 0.872203 0.147060 0.659861
Si Si2 0.840312 0.405890 0.336501
Si Si3 0.066603 0.500000 0.331679
Si Si4 0.000000 0.843117 0.659820
Si Si5 0.786325 0.067118 0.164690
Si Si6 0.108291 0.283704 0.338088
Si Si7 0.000000 0.273740 0.167685
O O1 0.850608 0.136847 0.500000
O O2 0.830632 0.112170 0.763457
O O3 0.868562 0.217531 0.698774
O O4 0.938936 0.121298 0.677577
O O5 0.837708 0.423399 0.500000
O O6 0.896575 0.442025 0.275871
O O7 0.778679 0.426187 0.268749
O O8 0.843189 0.334425 0.313813
O O9 0.060921 0.500000 0.500000
O O10 0.000000 0.500000 0.268376
O O11 0.000000 0.794308 0.781708
O O12 0.000000 0.814629 0.500000
O O13 0.808522 0.000000 0.190912
O O14 0.785705 0.083637 0.000000
O O15 0.085705 0.284776 0.500000
O O16 0.056965 0.304491 0.233203
O O17 0.000000 0.278671 0.000000
#
# Coordination Sequence:
#
# PCOD8287349 Si02
#       7
#    16  16   8   8  16  16   8
#     4   9  18  33  53  77 103 132 169 209 255 313
#     4   9  17  31  50  74 105 136 172 218 260 297
#     4   9  16  26  46  80 108 129 172 225 257 286
#     4   8  16  34  55  75 103 134 166 209 253 297
#     4  10  20  35  53  74 103 137 171 212 263 312
#     4   9  18  32  51  75 102 136 174 215 258 301
#     4  10  18  28  46  74 108 138 167 204 254 313
#
# _framework density 18.143848999999999
#
# number of rings (size 3 to 8) (size 9 to 14) (size 15 to 20)
#    0.000    2.818    0.909    1.909    1.273    4.000 
#    0.000    1.364    0.000    2.727    0.000    0.636 
#    0.000    0.000    0.000    0.000    0.000    0.000 
#
# Total GULP energy -545078.813432 kJ/mol
# GULP energy per Si atom -12388.154851 kJ/mol
# Density = 1.810255 g / cm^3
# Si number density = 18.143849 Si / 1000 Ang^3
#
#
#
# Elastic Constant Matrix: (Units=GPa)
#
#
# Indices 1 2 3 4 5 6 
#
# 1 133.4016 69.2238 34.6014 0.0000 0.0000 0.0000
# 2 69.2238 103.9853 37.3400 0.0000 0.0000 0.0000
# 3 34.6014 37.3400 57.7210 0.0000 0.0000 0.0000
# 4 0.0000 0.0000 0.0000 17.9089 0.0000 0.0000
# 5 0.0000 0.0000 0.0000 0.0000 22.9762 0.0000
# 6 0.0000 0.0000 0.0000 0.0000 0.0000 31.2303
#
#
#
# Elastic Compliance Matrix: (Units=1/GPa)
#
#
# Indices 1 2 3 4 5 6 
#
# 1 0.011740 -0.006889 -0.002582 0.000000 0.000000 0.000000
# 2 -0.006889 0.016569 -0.006589 0.000000 0.000000 0.000000
# 3 -0.002582 -0.006589 0.023135 0.000000 0.000000 0.000000
# 4 0.000000 0.000000 0.000000 0.055838 0.000000 0.000000
# 5 0.000000 0.000000 0.000000 0.000000 0.043523 0.000000
# 6 0.000000 0.000000 0.000000 0.000000 0.000000 0.032020
#
#
# Mechanical properties :
#
#
# Convention : Reuss Voigt Hill
#
# Bulk Modulus (GPa) = 51.74526 64.15983 57.95255
# Shear Modulus (GPa) = 22.58511 24.68594 23.63552
#
# Velocity S-wave (km/s) = 3.53197 3.69259 3.61317
# Velocity P-wave (km/s) = 6.72417 7.32249 7.02970
#
# Compressibility (1/GPa) = 0.01932544
#
# Stress axis : x y z
#
# Youngs Moduli (GPa) = 85.17614 60.35538 43.22532
#
# Poissons Ratio (x) = 0.41577 0.11159
# Poissons Ratio (y) = 0.58675 0.28480
# Poissons Ratio (z) = 0.21989 0.39767
#
# Static dielectric constant tensor:
#      x y z
#    x 3.562010 0.000000 0.000000 
#    y 0.000000 3.203720 0.000000 
#    z 0.000000 0.000000 2.956560 
# 
# 
# High freq. dielectric constant tensor:
#      x y z
#    x 1.707760 0.000000 0.000000 
#    y 0.000000 1.690620 0.000000 
#    z 0.000000 0.000000 1.660510 
# 
# From -- ./inp_files/10561.got.cif
#   From: 2010.06.25/outbox.cif.g09.slc.cpg/sg71_6_cif.got.tgz:10561.got - 2010.06.28 04:59:45.
