data_PCOD8287301
_publ_section_title
;
Structure prediction by ZEFSAII (Michael W. Deem and Ramdas Pophale) SiO2 
 PCOD8287301
Probable space group: I M M M
;
_chemical_formula_sum "Si O2"
_cell_formula_units_Z 120
_cell_length_a 22.786609
_cell_length_b 21.579012
_cell_length_c 15.582368
_cell_angle_alpha 90.000000
_cell_angle_beta 90.000000
_cell_angle_gamma 90.000000
_cell_volume 7662.045266
_symmetry_space_group_name_H-M "I M M M"
_symmetry_group_IT_number 71
_symmetry_cell_setting 'orthorhombic'
loop_
_space_group_symop_operation_xyz
x,y,z
-x,-y,z
x,-y,-z
-x,y,-z
-x,-y,-z
x,y,-z
-x,y,z
x,-y,z
1/2+x,1/2+y,1/2+z
1/2-x,1/2-y,1/2+z
1/2+x,1/2-y,1/2-z
1/2-x,1/2+y,1/2-z
1/2-x,1/2-y,1/2-z
1/2+x,1/2+y,1/2-z
1/2-x,1/2+y,1/2+z
1/2+x,1/2-y,1/2+z
loop_
_atom_site_type_symbol
_atom_site_label
_atom_site_fract_x
_atom_site_fract_y
_atom_site_fract_z
Si Si1 0.000000 0.930591 0.100783
Si Si2 0.122675 0.069173 0.354059
Si Si3 0.275677 0.153537 0.255290
Si Si4 0.736011 0.572397 0.402525
Si Si5 0.245452 0.429109 0.094336
Si Si6 0.933687 0.810356 0.402435
Si Si7 0.379745 0.617820 0.334373
Si Si8 0.342961 0.273076 0.763688
O O1 0.944362 0.892515 0.131608
O O2 0.000000 0.000000 0.140359
O O3 0.000000 0.934960 0.000000
O O4 0.184824 0.079215 0.399051
O O5 0.075342 0.115670 0.394319
O O6 0.131962 0.081477 0.253613
O O7 0.098806 0.000000 0.368847
O O8 0.270279 0.115998 0.165438
O O9 0.290110 0.107470 0.332942
O O10 0.330045 0.200971 0.251787
O O11 0.217142 0.190250 0.282440
O O12 0.758825 0.584311 0.500000
O O13 0.744071 0.500000 0.378037
O O14 0.667281 0.590895 0.401490
O O15 0.227721 0.500000 0.106588
O O16 0.226405 0.405190 0.000000
O O17 0.924288 0.788862 0.500000
O O18 0.886406 0.774848 0.344700
O O19 0.000000 0.794902 0.372298
O O20 0.372534 0.692105 0.318045
#
# Coordination Sequence:
#
# PCOD8287301 Si02
#       8
#     8  16  16  16  16  16  16  16
#     4  11  22  32  46  68  91 123 166 203 237 275
#     4  10  18  28  44  65  91 125 162 199 238 277
#     4  10  18  33  48  67  93 124 160 200 237 284
#     4  10  18  29  47  69  94 122 153 193 238 281
#     4  10  18  29  49  73  97 124 151 190 244 291
#     4  10  20  32  45  64  92 127 164 203 239 273
#     4  10  19  32  45  61  92 124 161 198 235 271
#     4   9  20  32  47  64  88 125 165 200 236 273
#
# _framework density 15.661614999999999
#
# number of rings (size 3 to 8) (size 9 to 14) (size 15 to 20)
#    0.000    2.067    4.000    2.400    3.733    2.667 
#    0.000    6.667    0.000    0.000    0.000    0.000 
#    0.000    2.133    0.000    8.800    0.000    0.000 
#
# Total GULP energy -743723.895101 kJ/mol
# GULP energy per Si atom -12395.398252 kJ/mol
# Density = 1.562597 g / cm^3
# Si number density = 15.661615 Si / 1000 Ang^3
#
#
#
# Elastic Constant Matrix: (Units=GPa)
#
#
# Indices 1 2 3 4 5 6 
#
# 1 61.6077 50.2845 32.1963 0.0000 0.0000 0.0000
# 2 50.2845 96.4972 54.8116 0.0000 0.0000 0.0000
# 3 32.1963 54.8116 99.5109 0.0000 0.0000 0.0000
# 4 0.0000 0.0000 0.0000 9.6064 0.0000 0.0000
# 5 0.0000 0.0000 0.0000 0.0000 17.4293 0.0000
# 6 0.0000 0.0000 0.0000 0.0000 0.0000 25.7894
#
#
#
# Elastic Compliance Matrix: (Units=1/GPa)
#
#
# Indices 1 2 3 4 5 6 
#
# 1 0.028400 -0.013942 -0.001509 0.000000 0.000000 0.000000
# 2 -0.013942 0.021926 -0.007566 0.000000 0.000000 0.000000
# 3 -0.001509 -0.007566 0.014705 0.000000 0.000000 0.000000
# 4 0.000000 0.000000 0.000000 0.104097 0.000000 0.000000
# 5 0.000000 0.000000 0.000000 0.000000 0.057375 0.000000
# 6 0.000000 0.000000 0.000000 0.000000 0.000000 0.038776
#
#
# Mechanical properties :
#
#
# Convention : Reuss Voigt Hill
#
# Bulk Modulus (GPa) = 52.64250 59.13339 55.88795
# Shear Modulus (GPa) = 15.74088 18.58660 17.16374
#
# Velocity S-wave (km/s) = 3.17371 3.44868 3.31405
# Velocity P-wave (km/s) = 6.86406 7.32780 7.09972
#
# Compressibility (1/GPa) = 0.01899606
#
# Stress axis : x y z
#
# Youngs Moduli (GPa) = 35.21132 45.60865 68.00432
#
# Poissons Ratio (x) = 0.63587 0.10264
# Poissons Ratio (y) = 0.49091 0.51452
# Poissons Ratio (z) = 0.05315 0.34508
#
# Static dielectric constant tensor:
#      x y z
#    x 2.671570 0.000000 0.000000 
#    y 0.000000 3.092640 0.000000 
#    z 0.000000 0.000000 3.141910 
# 
# 
# High freq. dielectric constant tensor:
#      x y z
#    x 1.558870 0.000000 0.000000 
#    y 0.000000 1.587960 0.000000 
#    z 0.000000 0.000000 1.609880 
# 
# From -- ./inp_files/39632.got.cif
#   From: 2010.06.25/outbox.cif.g09.slc.cpg/sg71_20_cif.got.tgz:39632.got - 2010.06.28 04:59:45.
