data_PCOD8287210
_publ_section_title
;
Structure prediction by ZEFSAII (Michael W. Deem and Ramdas Pophale) SiO2 
 PCOD8287210
Probable space group: I M M M
;
_chemical_formula_sum "Si O2"
_cell_formula_units_Z 88
_cell_length_a 27.958451
_cell_length_b 9.280460
_cell_length_c 25.435695
_cell_angle_alpha 90.000000
_cell_angle_beta 90.000000
_cell_angle_gamma 90.000000
_cell_volume 6599.730753
_symmetry_space_group_name_H-M "I M M M"
_symmetry_group_IT_number 71
_symmetry_cell_setting 'orthorhombic'
loop_
_space_group_symop_operation_xyz
x,y,z
-x,-y,z
x,-y,-z
-x,y,-z
-x,-y,-z
x,y,-z
-x,y,z
x,-y,z
1/2+x,1/2+y,1/2+z
1/2-x,1/2-y,1/2+z
1/2+x,1/2-y,1/2-z
1/2-x,1/2+y,1/2-z
1/2-x,1/2-y,1/2-z
1/2+x,1/2+y,1/2-z
1/2-x,1/2+y,1/2+z
1/2+x,1/2-y,1/2+z
loop_
_atom_site_type_symbol
_atom_site_label
_atom_site_fract_x
_atom_site_fract_y
_atom_site_fract_z
Si Si1 0.813816 0.340750 0.354020
Si Si2 0.857370 0.659677 0.237897
Si Si3 0.446425 0.329361 0.000000
Si Si4 0.724426 0.331639 0.703065
Si Si5 0.445681 0.831890 0.201628
Si Si6 0.397554 0.670877 0.106933
O O1 0.821080 0.500000 0.378488
O O2 0.833712 0.338210 0.295135
O O3 0.756656 0.305783 0.349622
O O4 0.842613 0.225950 0.389113
O O5 0.854574 0.500000 0.213191
O O6 0.829410 0.767106 0.198039
O O7 0.912645 0.707057 0.247582
O O8 0.418146 0.276318 0.948700
O O9 0.449732 0.500000 0.000000
O O10 0.500000 0.263602 0.000000
O O11 0.721030 0.500000 0.716525
O O12 0.750000 0.250000 0.750000
O O13 0.500000 0.796398 0.217191
O O14 0.431129 0.738043 0.151463
O O15 0.438515 0.000000 0.186950
O O16 0.397871 0.500000 0.113067
#
# Coordination Sequence:
#
# PCOD8287210 Si02
#       6
#    16  16   8  16  16  16
#     4   8  15  26  36  48  67  85 100 125 163 201
#     4   8  14  23  34  48  65  84 105 129 156 188
#     4   9  18  30  39  49  67  85 103 137 182 215
#     4   9  15  22  33  48  66  85 101 122 155 192
#     4   9  17  28  38  48  66  89 110 136 170 201
#     4  10  18  27  40  53  63  80 108 140 173 208
#
# _framework density 13.333876999999999
#
# number of rings (size 3 to 8) (size 9 to 14) (size 15 to 20)
#    0.000    3.182    0.000    3.818    0.000    8.364 
#    0.000    1.818    0.000    3.273    0.000    0.000 
#    0.000    0.000    0.000    0.000    0.000    0.000 
#
# Total GULP energy -545084.483718 kJ/mol
# GULP energy per Si atom -12388.283721 kJ/mol
# Density = 1.330353 g / cm^3
# Si number density = 13.333877 Si / 1000 Ang^3
#
#
#
# Elastic Constant Matrix: (Units=GPa)
#
#
# Indices 1 2 3 4 5 6 
#
# 1 122.9033 53.1023 43.7861 0.0000 0.0000 0.0000
# 2 53.1023 68.4695 23.8357 0.0000 0.0000 0.0000
# 3 43.7861 23.8357 27.5232 0.0000 0.0000 0.0000
# 4 0.0000 0.0000 0.0000 10.6057 0.0000 0.0000
# 5 0.0000 0.0000 0.0000 0.0000 17.8022 0.0000
# 6 0.0000 0.0000 0.0000 0.0000 0.0000 22.1339
#
#
#
# Elastic Compliance Matrix: (Units=1/GPa)
#
#
# Indices 1 2 3 4 5 6 
#
# 1 0.020650 -0.006555 -0.027175 0.000000 0.000000 0.000000
# 2 -0.006555 0.022990 -0.009481 0.000000 0.000000 0.000000
# 3 -0.027175 -0.009481 0.087776 0.000000 0.000000 0.000000
# 4 0.000000 0.000000 0.000000 0.094289 0.000000 0.000000
# 5 0.000000 0.000000 0.000000 0.000000 0.056173 0.000000
# 6 0.000000 0.000000 0.000000 0.000000 0.000000 0.045179
#
#
# Mechanical properties :
#
#
# Convention : Reuss Voigt Hill
#
# Bulk Modulus (GPa) = 22.22548 51.14936 36.68742
# Shear Modulus (GPa) = 11.66922 16.65315 14.16118
#
# Velocity S-wave (km/s) = 2.96151 3.53786 3.26244
# Velocity P-wave (km/s) = 5.32904 7.42512 6.46263
#
# Compressibility (1/GPa) = 0.04499340
#
# Stress axis : x y z
#
# Youngs Moduli (GPa) = 48.42530 43.49801 11.39266
#
# Poissons Ratio (x) = 0.28515 0.30960
# Poissons Ratio (y) = 0.31745 0.10801
# Poissons Ratio (z) = 1.31596 0.41239
#
# Static dielectric constant tensor:
#      x y z
#    x 3.492330 0.000000 0.000000 
#    y 0.000000 2.788460 0.000000 
#    z 0.000000 0.000000 2.339670 
# 
# 
# High freq. dielectric constant tensor:
#      x y z
#    x 1.514660 0.000000 0.000000 
#    y 0.000000 1.512960 0.000000 
#    z 0.000000 0.000000 1.435540 
# 
# From -- ./inp_files/13549.got.cif
#   From: 2010.06.25/outbox.cif.g09.slc.cpg/sg71_7_cif.got.tgz:13549.got - 2010.06.28 04:59:45.
