data_PCOD8287514
_publ_section_title
;
Structure prediction by ZEFSAII (Michael W. Deem and Ramdas Pophale) SiO2 
 PCOD8287514
Probable space group: I M M M
;
_chemical_formula_sum "Si O2"
_cell_formula_units_Z 104
_cell_length_a 24.526567
_cell_length_b 13.575557
_cell_length_c 17.339391
_cell_angle_alpha 90.000000
_cell_angle_beta 90.000000
_cell_angle_gamma 90.000000
_cell_volume 5773.354983
_symmetry_space_group_name_H-M "I M M M"
_symmetry_group_IT_number 71
_symmetry_cell_setting 'orthorhombic'
loop_
_space_group_symop_operation_xyz
x,y,z
-x,-y,z
x,-y,-z
-x,y,-z
-x,-y,-z
x,y,-z
-x,y,z
x,-y,z
1/2+x,1/2+y,1/2+z
1/2-x,1/2-y,1/2+z
1/2+x,1/2-y,1/2-z
1/2-x,1/2+y,1/2-z
1/2-x,1/2-y,1/2-z
1/2+x,1/2+y,1/2-z
1/2-x,1/2+y,1/2+z
1/2+x,1/2-y,1/2+z
loop_
_atom_site_type_symbol
_atom_site_label
_atom_site_fract_x
_atom_site_fract_y
_atom_site_fract_z
Si Si1 0.729025 0.111545 0.147129
Si Si2 0.059753 0.889487 0.591377
Si Si3 0.438779 0.000000 0.591801
Si Si4 0.264259 0.113613 0.676332
Si Si5 0.867935 0.316387 0.908458
Si Si6 0.850082 0.106018 0.910109
Si Si7 0.168328 0.208491 0.410010
O O1 0.735715 0.147006 0.234994
O O2 0.786649 0.124954 0.105830
O O3 0.683309 0.178002 0.105964
O O4 0.707805 0.000000 0.141522
O O5 0.057793 0.891295 0.500000
O O6 0.106526 0.813309 0.618660
O O7 0.000000 0.855776 0.622887
O O8 0.073056 0.000000 0.621517
O O9 0.409621 0.100059 0.622340
O O10 0.500000 0.000000 0.624792
O O11 0.439156 0.000000 0.500000
O O12 0.309373 0.172061 0.629407
O O13 0.206170 0.136214 0.639195
O O14 0.277719 0.000000 0.668244
O O15 0.885304 0.203309 0.884927
O O16 0.861332 0.326444 0.000000
O O17 0.868416 0.000000 0.871528
O O18 0.857933 0.094020 0.000000
O O19 0.175245 0.183640 0.500000
#
# Coordination Sequence:
#
# PCOD8287514 Si02
#       7
#    16  16   8  16  16  16  16
#     4  10  21  33  45  67 100 139 167 195 240 298
#     4   8  15  29  48  71  98 126 157 198 249 298
#     4   9  18  32  50  74 102 130 162 202 256 312
#     4  11  21  31  45  72 104 133 156 196 257 306
#     4  10  18  29  49  74  98 126 158 205 251 293
#     4   9  17  30  47  68  97 133 170 200 235 289
#     4  11  20  30  49  74  99 129 166 207 246 295
#
# _framework density 18.01379
#
# number of rings (size 3 to 8) (size 9 to 14) (size 15 to 20)
#    0.000    2.231    2.308    2.308    0.000    2.462 
#    0.000    0.000    0.000    1.846    0.000    5.385 
#    0.000    0.000    0.000    0.000    0.000    0.000 
#
# Total GULP energy -644267.468035 kJ/mol
# GULP energy per Si atom -12389.759001 kJ/mol
# Density = 1.797279 g / cm^3
# Si number density = 18.013790 Si / 1000 Ang^3
#
#
#
# Elastic Constant Matrix: (Units=GPa)
#
#
# Indices 1 2 3 4 5 6 
#
# 1 84.5112 46.4824 4.6943 0.0000 0.0000 0.0000
# 2 46.4824 141.6263 -0.8505 0.0000 0.0000 0.0000
# 3 4.6943 -0.8505 14.1977 0.0000 0.0000 0.0000
# 4 0.0000 0.0000 0.0000 16.6699 0.0000 0.0000
# 5 0.0000 0.0000 0.0000 0.0000 -0.5699 0.0000
# 6 0.0000 0.0000 0.0000 0.0000 0.0000 17.7967
#
#
#
# Elastic Compliance Matrix: (Units=1/GPa)
#
#
# Indices 1 2 3 4 5 6 
#
# 1 0.014812 -0.004893 -0.005191 0.000000 0.000000 0.000000
# 2 -0.004893 0.008679 0.002138 0.000000 0.000000 0.000000
# 3 -0.005191 0.002138 0.072278 0.000000 0.000000 0.000000
# 4 0.000000 0.000000 0.000000 0.059989 0.000000 0.000000
# 5 0.000000 0.000000 0.000000 0.000000 -1.754844 0.000000
# 6 0.000000 0.000000 0.000000 0.000000 0.000000 0.056190
#
#
# Mechanical properties :
#
#
# Convention : Reuss Voigt Hill
#
# Bulk Modulus (GPa) = 12.51894 37.88751 25.20323
# Shear Modulus (GPa) = -3.33249 19.44660 8.05705
#
# Velocity S-wave (km/s) = -1.36161 3.28920 2.11717
# Velocity P-wave (km/s) = 2.11961 5.95846 4.47191
#
# Compressibility (1/GPa) = 0.07987894
#
# Stress axis : x y z
#
# Youngs Moduli (GPa) = 67.51269 115.21493 13.83539
#
# Poissons Ratio (x) = 0.56369 0.07181
# Poissons Ratio (y) = 0.33031 -0.02957
# Poissons Ratio (z) = 0.35042 -0.24628
#
# Static dielectric constant tensor:
#      x y z
#    x 3.285560 0.000000 0.000000 
#    y 0.000000 3.774640 0.000000 
#    z 0.000000 0.000000 3.124830 
# 
# 
# High freq. dielectric constant tensor:
#      x y z
#    x 1.664070 0.000000 0.000000 
#    y 0.000000 1.718800 0.000000 
#    z 0.000000 0.000000 1.669520 
# 
# From -- ./inp_files/48228.got.cif
#   From: 2010.06.25/outbox.cif.g09.slc.cpg/sg71_25_cif.got.tgz:48228.got - 2010.06.28 04:59:45.
