data_PCOD8287640
_publ_section_title
;
Structure prediction by ZEFSAII (Michael W. Deem and Ramdas Pophale) SiO2 
 PCOD8287640
Probable space group: I M M M
;
_chemical_formula_sum "Si O2"
_cell_formula_units_Z 80
_cell_length_a 19.719401
_cell_length_b 8.845205
_cell_length_c 25.858283
_cell_angle_alpha 90.000000
_cell_angle_beta 90.000000
_cell_angle_gamma 90.000000
_cell_volume 4510.257169
_symmetry_space_group_name_H-M "I M M M"
_symmetry_group_IT_number 71
_symmetry_cell_setting 'orthorhombic'
loop_
_space_group_symop_operation_xyz
x,y,z
-x,-y,z
x,-y,-z
-x,y,-z
-x,-y,-z
x,y,-z
-x,y,z
x,-y,z
1/2+x,1/2+y,1/2+z
1/2-x,1/2-y,1/2+z
1/2+x,1/2-y,1/2-z
1/2-x,1/2+y,1/2-z
1/2-x,1/2-y,1/2-z
1/2+x,1/2+y,1/2-z
1/2-x,1/2+y,1/2+z
1/2+x,1/2-y,1/2+z
loop_
_atom_site_type_symbol
_atom_site_label
_atom_site_fract_x
_atom_site_fract_y
_atom_site_fract_z
Si Si1 0.579272 0.326621 0.689647
Si Si2 0.679146 0.674931 0.111795
Si Si3 0.168323 0.176331 0.000000
Si Si4 0.690746 0.673124 0.000000
Si Si5 0.075096 0.820326 0.306226
Si Si6 0.667683 0.822079 0.395636
O O1 0.500000 0.304054 0.678996
O O2 0.600315 0.500000 0.679792
O O3 0.597270 0.277173 0.748157
O O4 0.621033 0.218285 0.652501
O O5 0.682040 0.500000 0.126305
O O6 0.648977 0.699211 0.053260
O O7 0.628706 0.753153 0.153211
O O8 0.755740 0.739843 0.114932
O O9 0.136668 0.247439 0.947694
O O10 0.247944 0.210069 0.000000
O O11 0.153001 0.000000 0.000000
O O12 0.719595 0.500000 0.000000
O O13 0.000000 0.754771 0.318184
O O14 0.071921 0.000000 0.311396
O O15 0.668772 0.000000 0.404123
#
# Coordination Sequence:
#
# PCOD8287640 Si02
#       6
#    16  16   8   8  16  16
#     4   9  18  32  48  66  90 121 157 195 231 270
#     4   8  14  25  42  65  93 124 155 189 230 272
#     4  10  18  30  49  70  93 121 153 187 223 270
#     4   8  14  26  43  65  97 128 151 186 235 275
#     4   8  14  26  44  65  92 126 159 191 230 273
#     4  10  19  31  48  70  96 122 149 187 233 277
#
# _framework density 17.737348000000001
#
# number of rings (size 3 to 8) (size 9 to 14) (size 15 to 20)
#    0.000    3.200    0.000    3.900    0.000    1.200 
#    0.000    1.000    0.000   10.800    0.000    0.000 
#    0.000   12.800    0.000    0.000    0.000    0.000 
#
# Total GULP energy -495618.972308 kJ/mol
# GULP energy per Si atom -12390.474308 kJ/mol
# Density = 1.769698 g / cm^3
# Si number density = 17.737348 Si / 1000 Ang^3
#
#
#
# Elastic Constant Matrix: (Units=GPa)
#
#
# Indices 1 2 3 4 5 6 
#
# 1 63.9075 20.2523 69.8093 0.0000 0.0000 0.0000
# 2 20.2523 46.9875 32.6391 0.0000 0.0000 0.0000
# 3 69.8093 32.6391 159.4289 0.0000 0.0000 0.0000
# 4 0.0000 0.0000 0.0000 21.0479 0.0000 0.0000
# 5 0.0000 0.0000 0.0000 0.0000 12.6889 0.0000
# 6 0.0000 0.0000 0.0000 0.0000 0.0000 14.0291
#
#
#
# Elastic Compliance Matrix: (Units=1/GPa)
#
#
# Indices 1 2 3 4 5 6 
#
# 1 0.030809 -0.004556 -0.012557 0.000000 0.000000 0.000000
# 2 -0.004556 0.025484 -0.003222 0.000000 0.000000 0.000000
# 3 -0.012557 -0.003222 0.012431 0.000000 0.000000 0.000000
# 4 0.000000 0.000000 0.000000 0.047511 0.000000 0.000000
# 5 0.000000 0.000000 0.000000 0.000000 0.078809 0.000000
# 6 0.000000 0.000000 0.000000 0.000000 0.000000 0.071280
#
#
# Mechanical properties :
#
#
# Convention : Reuss Voigt Hill
#
# Bulk Modulus (GPa) = 35.64832 57.30283 46.47557
# Shear Modulus (GPa) = 15.80548 19.39472 17.60010
#
# Velocity S-wave (km/s) = 2.98834 3.31031 3.15344
# Velocity P-wave (km/s) = 5.66113 6.85473 6.28632
#
# Compressibility (1/GPa) = 0.02805181
#
# Stress axis : x y z
#
# Youngs Moduli (GPa) = 32.45850 39.23984 80.44651
#
# Poissons Ratio (x) = 0.17878 1.01020
# Poissons Ratio (y) = 0.14788 0.25922
# Poissons Ratio (z) = 0.40760 0.12644
#
# Static dielectric constant tensor:
#      x y z
#    x 3.256290 0.000000 0.000000 
#    y 0.000000 2.848580 0.000000 
#    z 0.000000 0.000000 3.671190 
# 
# 
# High freq. dielectric constant tensor:
#      x y z
#    x 1.655750 0.000000 0.000000 
#    y 0.000000 1.645230 0.000000 
#    z 0.000000 0.000000 1.706090 
# 
# From -- ./inp_files/14585.got.cif
#   From: 2010.06.25/outbox.cif.g09.slc.cpg/sg71_8_cif.got.tgz:14585.got - 2010.06.28 04:59:45.
