data_PCOD8287257
_publ_section_title
;
Structure prediction by ZEFSAII (Michael W. Deem and Ramdas Pophale) SiO2 
 PCOD8287257
Probable space group: I M M M
;
_chemical_formula_sum "Si O2"
_cell_formula_units_Z 96
_cell_length_a 20.707290
_cell_length_b 13.944337
_cell_length_c 24.231409
_cell_angle_alpha 90.000000
_cell_angle_beta 90.000000
_cell_angle_gamma 90.000000
_cell_volume 6996.805540
_symmetry_space_group_name_H-M "I M M M"
_symmetry_group_IT_number 71
_symmetry_cell_setting 'orthorhombic'
loop_
_space_group_symop_operation_xyz
x,y,z
-x,-y,z
x,-y,-z
-x,y,-z
-x,-y,-z
x,y,-z
-x,y,z
x,-y,z
1/2+x,1/2+y,1/2+z
1/2-x,1/2-y,1/2+z
1/2+x,1/2-y,1/2-z
1/2-x,1/2+y,1/2-z
1/2-x,1/2-y,1/2-z
1/2+x,1/2+y,1/2-z
1/2-x,1/2+y,1/2+z
1/2+x,1/2-y,1/2+z
loop_
_atom_site_type_symbol
_atom_site_label
_atom_site_fract_x
_atom_site_fract_y
_atom_site_fract_z
Si Si1 0.500000 0.106653 0.065524
Si Si2 0.249288 0.389054 0.435977
Si Si3 0.571596 0.386196 0.261038
Si Si4 0.500000 0.385627 0.437690
Si Si5 0.621900 0.772886 0.064823
Si Si6 0.923808 0.110491 0.638627
Si Si7 0.624917 0.613953 0.626263
O O1 0.436538 0.161223 0.086487
O O2 0.500000 0.000000 0.091031
O O3 0.500000 0.100350 0.000000
O O4 0.267535 0.377445 0.500000
O O5 0.233844 0.500000 0.422533
O O6 0.187727 0.326235 0.419759
O O7 0.308696 0.347904 0.400064
O O8 0.500000 0.344662 0.272969
O O9 0.566650 0.500000 0.261224
O O10 0.595350 0.353861 0.200414
O O11 0.619610 0.351436 0.309802
O O12 0.500000 0.500000 0.436184
O O13 0.500000 0.346913 0.500000
O O14 0.563735 0.345193 0.407442
O O15 0.618193 0.671340 0.095622
O O16 0.616362 0.752985 0.000000
O O17 0.000000 0.124920 0.628442
O O18 0.904693 0.000000 0.629716
O O19 0.624466 0.500000 0.621947
#
# Coordination Sequence:
#
# PCOD8287257 Si02
#       7
#     8  16  16   8  16  16  16
#     4   9  16  26  40  55  71  95 129 162 187 217
#     4   9  17  27  38  54  80 111 135 155 185 225
#     4   8  13  23  38  55  75 100 127 156 192 228
#     4   9  14  18  29  52  78 100 127 158 181 213
#     4  10  18  28  40  56  76 100 130 163 198 234
#     4   9  17  28  42  59  77  96 123 163 207 242
#     4   9  14  22  36  54  76 104 133 157 184 220
#
# _framework density 13.720547
#
# number of rings (size 3 to 8) (size 9 to 14) (size 15 to 20)
#    0.000    3.000    1.667    2.000    0.000    4.333 
#    0.000    1.667    0.000    0.000    0.000    0.000 
#    0.000    0.000    0.000    0.750    0.000    8.417 
#
# Total GULP energy -594935.731968 kJ/mol
# GULP energy per Si atom -12394.494416 kJ/mol
# Density = 1.368932 g / cm^3
# Si number density = 13.720547 Si / 1000 Ang^3
#
#
#
# Elastic Constant Matrix: (Units=GPa)
#
#
# Indices 1 2 3 4 5 6 
#
# 1 104.1436 36.3393 53.8345 0.0000 0.0000 0.0000
# 2 36.3393 47.1580 35.4519 0.0000 0.0000 0.0000
# 3 53.8345 35.4519 79.6649 0.0000 0.0000 0.0000
# 4 0.0000 0.0000 0.0000 10.0708 0.0000 0.0000
# 5 0.0000 0.0000 0.0000 0.0000 20.0389 0.0000
# 6 0.0000 0.0000 0.0000 0.0000 0.0000 8.2058
#
#
#
# Elastic Compliance Matrix: (Units=1/GPa)
#
#
# Indices 1 2 3 4 5 6 
#
# 1 0.015904 -0.006275 -0.007955 0.000000 0.000000 0.000000
# 2 -0.006275 0.034342 -0.011042 0.000000 0.000000 0.000000
# 3 -0.007955 -0.011042 0.022842 0.000000 0.000000 0.000000
# 4 0.000000 0.000000 0.000000 0.099297 0.000000 0.000000
# 5 0.000000 0.000000 0.000000 0.000000 0.049903 0.000000
# 6 0.000000 0.000000 0.000000 0.000000 0.000000 0.121865
#
#
# Mechanical properties :
#
#
# Convention : Reuss Voigt Hill
#
# Bulk Modulus (GPa) = 44.35804 53.57975 48.96889
# Shear Modulus (GPa) = 12.43130 14.68582 13.55856
#
# Velocity S-wave (km/s) = 3.01331 3.27517 3.14697
# Velocity P-wave (km/s) = 6.67132 7.31012 6.99801
#
# Compressibility (1/GPa) = 0.02254383
#
# Stress axis : x y z
#
# Youngs Moduli (GPa) = 62.87859 29.11897 43.77929
#
# Poissons Ratio (x) = 0.18273 0.34825
# Poissons Ratio (y) = 0.39457 0.48341
# Poissons Ratio (z) = 0.50017 0.32153
#
# Static dielectric constant tensor:
#      x y z
#    x 2.727050 0.000000 0.000000 
#    y 0.000000 2.338140 0.000000 
#    z 0.000000 0.000000 2.844390 
# 
# 
# High freq. dielectric constant tensor:
#      x y z
#    x 1.516260 0.000000 0.000000 
#    y 0.000000 1.469910 0.000000 
#    z 0.000000 0.000000 1.522850 
# 
# From -- ./inp_files/52304.got.cif
#   From: 2010.06.25/outbox.cif.g09.slc.cpg/sg71_27_cif.got.tgz:52304.got - 2010.06.28 04:59:45.
