data_PCOD8287708
_publ_section_title
;
Structure prediction by ZEFSAII (Michael W. Deem and Ramdas Pophale) SiO2 
 PCOD8287708
Probable space group: I M M M
;
_chemical_formula_sum "Si O2"
_cell_formula_units_Z 72
_cell_length_a 15.612167
_cell_length_b 8.925692
_cell_length_c 28.316331
_cell_angle_alpha 90.000000
_cell_angle_beta 90.000000
_cell_angle_gamma 90.000000
_cell_volume 3945.863568
_symmetry_space_group_name_H-M "I M M M"
_symmetry_group_IT_number 71
_symmetry_cell_setting 'orthorhombic'
loop_
_space_group_symop_operation_xyz
x,y,z
-x,-y,z
x,-y,-z
-x,y,-z
-x,-y,-z
x,y,-z
-x,y,z
x,-y,z
1/2+x,1/2+y,1/2+z
1/2-x,1/2-y,1/2+z
1/2+x,1/2-y,1/2-z
1/2-x,1/2+y,1/2-z
1/2-x,1/2-y,1/2-z
1/2+x,1/2+y,1/2-z
1/2-x,1/2+y,1/2+z
1/2+x,1/2-y,1/2+z
loop_
_atom_site_type_symbol
_atom_site_label
_atom_site_fract_x
_atom_site_fract_y
_atom_site_fract_z
Si Si1 0.326613 0.322330 0.608006
Si Si2 0.500000 0.169436 0.943830
Si Si3 0.000000 0.170345 0.206411
Si Si4 0.685059 0.670107 0.284012
Si Si5 0.828465 0.171163 0.443945
Si Si6 0.500000 0.175812 0.390305
O O1 0.334416 0.500000 0.604140
O O2 0.311262 0.270051 0.662218
O O3 0.249265 0.265479 0.576522
O O4 0.414127 0.249230 0.587743
O O5 0.583541 0.256168 0.924975
O O6 0.500000 0.000000 0.923917
O O7 0.500000 0.167820 0.000000
O O8 0.087558 0.191243 0.236262
O O9 0.000000 0.292158 0.165336
O O10 0.000000 0.000000 0.184420
O O11 0.714027 0.500000 0.283517
O O12 0.750000 0.750000 0.250000
O O13 0.823847 0.180280 0.500000
O O14 0.824028 0.000000 0.426327
O O15 0.500000 0.000000 0.400810
#
# Coordination Sequence:
#
# PCOD8287708 Si02
#       6
#    16   8   8  16  16   8
#     4  10  20  35  53  74 102 136 171 206 249 303
#     4   9  17  31  52  75 100 135 173 204 244 303
#     4   8  16  32  49  68  97 132 166 199 242 300
#     4   9  18  32  51  73  98 129 165 205 246 293
#     4  10  20  34  53  78 105 132 167 212 255 294
#     4  10  18  30  51  76  99 128 167 209 252 299
#
# _framework density 18.246956000000001
#
# number of rings (size 3 to 8) (size 9 to 14) (size 15 to 20)
#    0.000    2.556    0.000    4.000    0.000    7.111 
#    0.000    1.667    0.000    8.667    0.000    0.000 
#    0.000    0.000    0.000    0.000    0.000    0.000 
#
# Total GULP energy -446211.576478 kJ/mol
# GULP energy per Si atom -12394.766013 kJ/mol
# Density = 1.820542 g / cm^3
# Si number density = 18.246956 Si / 1000 Ang^3
#
#
#
# Elastic Constant Matrix: (Units=GPa)
#
#
# Indices 1 2 3 4 5 6 
#
# 1 169.0822 62.2101 30.9494 0.0000 0.0000 0.0000
# 2 62.2101 106.1650 21.3734 0.0000 0.0000 0.0000
# 3 30.9494 21.3734 22.6928 0.0000 0.0000 0.0000
# 4 0.0000 0.0000 0.0000 25.6836 0.0000 0.0000
# 5 0.0000 0.0000 0.0000 0.0000 29.5043 0.0000
# 6 0.0000 0.0000 0.0000 0.0000 0.0000 39.3914
#
#
#
# Elastic Compliance Matrix: (Units=1/GPa)
#
#
# Indices 1 2 3 4 5 6 
#
# 1 0.008759 -0.003366 -0.008776 0.000000 0.000000 0.000000
# 2 -0.003366 0.012917 -0.007575 0.000000 0.000000 0.000000
# 3 -0.008776 -0.007575 0.063171 0.000000 0.000000 0.000000
# 4 0.000000 0.000000 0.000000 0.038935 0.000000 0.000000
# 5 0.000000 0.000000 0.000000 0.000000 0.033893 0.000000
# 6 0.000000 0.000000 0.000000 0.000000 0.000000 0.025386
#
#
# Mechanical properties :
#
#
# Convention : Reuss Voigt Hill
#
# Bulk Modulus (GPa) = 22.02035 58.55618 40.28827
# Shear Modulus (GPa) = 21.04091 31.14301 26.09196
#
# Velocity S-wave (km/s) = 3.39944 4.13577 3.78555
# Velocity P-wave (km/s) = 5.24428 7.41395 6.42141
#
# Compressibility (1/GPa) = 0.04541254
#
# Stress axis : x y z
#
# Youngs Moduli (GPa) = 114.16814 77.41960 15.83016
#
# Poissons Ratio (x) = 0.26058 0.13892
# Poissons Ratio (y) = 0.38427 0.11992
# Poissons Ratio (z) = 1.00192 0.58647
#
# Static dielectric constant tensor:
#      x y z
#    x 3.734290 0.000000 0.000000 
#    y 0.000000 3.453100 0.000000 
#    z 0.000000 0.000000 2.942350 
# 
# 
# High freq. dielectric constant tensor:
#      x y z
#    x 1.731790 0.000000 0.000000 
#    y 0.000000 1.716900 0.000000 
#    z 0.000000 0.000000 1.652650 
# 
# From -- ./inp_files/6526.got.cif
#   From: 2010.06.25/outbox.cif.g09.slc.cpg/sg71_4_cif.got.tgz:6526.got - 2010.06.28 04:59:45.
