data_PCOD8287763
_publ_section_title
;
Structure prediction by ZEFSAII (Michael W. Deem and Ramdas Pophale) SiO2 
 PCOD8287763
Probable space group: I M M M
;
_chemical_formula_sum "Si O2"
_cell_formula_units_Z 96
_cell_length_a 25.242416
_cell_length_b 16.774695
_cell_length_c 13.781499
_cell_angle_alpha 90.000000
_cell_angle_beta 90.000000
_cell_angle_gamma 90.000000
_cell_volume 5835.552897
_symmetry_space_group_name_H-M "I M M M"
_symmetry_group_IT_number 71
_symmetry_cell_setting 'orthorhombic'
loop_
_space_group_symop_operation_xyz
x,y,z
-x,-y,z
x,-y,-z
-x,y,-z
-x,-y,-z
x,y,-z
-x,y,z
x,-y,z
1/2+x,1/2+y,1/2+z
1/2-x,1/2-y,1/2+z
1/2+x,1/2-y,1/2-z
1/2-x,1/2+y,1/2-z
1/2-x,1/2-y,1/2-z
1/2+x,1/2+y,1/2-z
1/2-x,1/2+y,1/2+z
1/2+x,1/2-y,1/2+z
loop_
_atom_site_type_symbol
_atom_site_label
_atom_site_fract_x
_atom_site_fract_y
_atom_site_fract_z
Si Si1 0.214382 0.594124 0.112460
Si Si2 0.628099 0.186221 0.258953
Si Si3 0.559203 0.093742 0.110391
Si Si4 0.651655 0.591360 0.388840
Si Si5 0.559569 0.289948 0.388418
Si Si6 0.206632 0.185106 0.728677
O O1 0.213191 0.500000 0.131337
O O2 0.170129 0.636134 0.178209
O O3 0.272681 0.628340 0.141709
O O4 0.203858 0.614275 0.000000
O O5 0.604065 0.131891 0.176090
O O6 0.581442 0.214500 0.329692
O O7 0.653585 0.264130 0.205904
O O8 0.500000 0.122485 0.139641
O O9 0.563172 0.000000 0.123539
O O10 0.570969 0.118473 0.000000
O O11 0.669888 0.601321 0.500000
O O12 0.645272 0.500000 0.358746
O O13 0.594784 0.631678 0.370419
O O14 0.697217 0.631467 0.324221
O O15 0.560932 0.264082 0.500000
O O16 0.500000 0.309972 0.354304
O O17 0.250000 0.250000 0.750000
#
# Coordination Sequence:
#
# PCOD8287763 Si02
#       6
#    16  16  16  16  16  16
#     4  10  20  33  48  65  88 118 151 187 226 269
#     4  10  18  31  49  69  90 119 152 187 223 267
#     4   9  18  32  49  69  93 120 149 183 224 268
#     4   9  17  30  48  68  92 122 154 188 225 268
#     4   9  17  28  44  69  98 124 150 182 222 267
#     4   9  19  31  46  66  89 117 150 188 229 268
#
# _framework density 16.450883999999999
#
# number of rings (size 3 to 8) (size 9 to 14) (size 15 to 20)
#    0.000    2.667    0.000    2.500    0.000    5.000 
#    0.000    4.167    0.000    9.000    0.000    7.000 
#    0.000    0.000    0.000   31.000    0.000    0.500 
#
# Total GULP energy -594966.133605 kJ/mol
# GULP energy per Si atom -12395.127783 kJ/mol
# Density = 1.641344 g / cm^3
# Si number density = 16.450884 Si / 1000 Ang^3
#
#
#
# Elastic Constant Matrix: (Units=GPa)
#
#
# Indices 1 2 3 4 5 6 
#
# 1 95.5063 46.7576 62.3268 0.0000 0.0000 0.0000
# 2 46.7576 88.1569 56.1794 0.0000 0.0000 0.0000
# 3 62.3268 56.1794 92.2880 0.0000 0.0000 0.0000
# 4 0.0000 0.0000 0.0000 29.3089 0.0000 0.0000
# 5 0.0000 0.0000 0.0000 0.0000 32.7774 0.0000
# 6 0.0000 0.0000 0.0000 0.0000 0.0000 25.0110
#
#
#
# Elastic Compliance Matrix: (Units=1/GPa)
#
#
# Indices 1 2 3 4 5 6 
#
# 1 0.019241 -0.003144 -0.011080 0.000000 0.000000 0.000000
# 2 -0.003144 0.019047 -0.009471 0.000000 0.000000 0.000000
# 3 -0.011080 -0.009471 0.024084 0.000000 0.000000 0.000000
# 4 0.000000 0.000000 0.000000 0.034119 0.000000 0.000000
# 5 0.000000 0.000000 0.000000 0.000000 0.030509 0.000000
# 6 0.000000 0.000000 0.000000 0.000000 0.000000 0.039982
#
#
# Mechanical properties :
#
#
# Convention : Reuss Voigt Hill
#
# Bulk Modulus (GPa) = 66.75304 67.38652 67.06978
# Shear Modulus (GPa) = 22.79289 24.79860 23.79575
#
# Velocity S-wave (km/s) = 3.72628 3.88678 3.80738
# Velocity P-wave (km/s) = 7.69278 7.82265 7.75799
#
# Compressibility (1/GPa) = 0.01498059
#
# Stress axis : x y z
#
# Youngs Moduli (GPa) = 51.97321 52.50290 41.52092
#
# Poissons Ratio (x) = 0.16507 0.46007
# Poissons Ratio (y) = 0.16340 0.39325
# Poissons Ratio (z) = 0.57588 0.49726
#
# Static dielectric constant tensor:
#      x y z
#    x 3.313370 0.000000 0.000000 
#    y 0.000000 3.227950 0.000000 
#    z 0.000000 0.000000 3.085980 
# 
# 
# High freq. dielectric constant tensor:
#      x y z
#    x 1.633070 0.000000 0.000000 
#    y 0.000000 1.638850 0.000000 
#    z 0.000000 0.000000 1.623190 
# 
# From -- ./inp_files/24218.got.cif
#   From: 2010.06.25/outbox.cif.g09.slc.cpg/sg71_13_cif.got.tgz:24218.got - 2010.06.28 04:59:45.
