data_PCOD8287532
_publ_section_title
;
Structure prediction by ZEFSAII (Michael W. Deem and Ramdas Pophale) SiO2 
 PCOD8287532
Probable space group: I M M M
;
_chemical_formula_sum "Si O2"
_cell_formula_units_Z 104
_cell_length_a 21.385294
_cell_length_b 7.929573
_cell_length_c 30.124762
_cell_angle_alpha 90.000000
_cell_angle_beta 90.000000
_cell_angle_gamma 90.000000
_cell_volume 5108.444169
_symmetry_space_group_name_H-M "I M M M"
_symmetry_group_IT_number 71
_symmetry_cell_setting 'orthorhombic'
loop_
_space_group_symop_operation_xyz
x,y,z
-x,-y,z
x,-y,-z
-x,y,-z
-x,-y,-z
x,y,-z
-x,y,z
x,-y,z
1/2+x,1/2+y,1/2+z
1/2-x,1/2-y,1/2+z
1/2+x,1/2-y,1/2-z
1/2-x,1/2+y,1/2-z
1/2-x,1/2-y,1/2-z
1/2+x,1/2+y,1/2-z
1/2-x,1/2+y,1/2+z
1/2+x,1/2-y,1/2+z
loop_
_atom_site_type_symbol
_atom_site_label
_atom_site_fract_x
_atom_site_fract_y
_atom_site_fract_z
Si Si1 0.862028 0.801151 0.133574
Si Si2 0.569557 0.699853 0.548319
Si Si3 0.569673 0.300887 0.278173
Si Si4 0.068760 0.000000 0.552316
Si Si5 0.274171 0.692458 0.129760
Si Si6 0.346872 0.189309 0.050720
Si Si7 0.812668 0.199326 0.275735
O O1 0.887189 0.727478 0.087029
O O2 0.912123 0.755442 0.171364
O O3 0.797983 0.705881 0.142889
O O4 0.848853 0.000000 0.132210
O O5 0.597313 0.750563 0.500000
O O6 0.500000 0.774946 0.553203
O O7 0.565894 0.500000 0.553075
O O8 0.500000 0.225788 0.268070
O O9 0.567105 0.500000 0.271853
O O10 0.623900 0.224232 0.246224
O O11 0.102959 0.172281 0.567154
O O12 0.062434 0.000000 0.500000
O O13 0.000000 0.000000 0.574444
O O14 0.292022 0.500000 0.119776
O O15 0.289371 0.799784 0.085361
O O16 0.311524 0.760824 0.173008
O O17 0.375416 0.000000 0.052925
O O18 0.324301 0.227154 0.000000
O O19 0.750000 0.250000 0.250000
O O20 0.815858 0.000000 0.273687
#
# Coordination Sequence:
#
# PCOD8287532 Si02
#       7
#    16  16  16   8  16  16  16
#     4  10  18  29  50  77 101 137 188 236 282 341
#     4   8  14  25  42  68 102 133 166 219 281 335
#     4   9  17  31  53  80 106 136 184 244 298 350
#     4   9  18  36  62  90 122 158 195 241 297 357
#     4  11  22  35  53  79 115 154 196 239 294 356
#     4  10  21  38  61  89 121 158 199 245 297 356
#     4  10  20  35  56  80 110 147 193 240 296 359
#
# _framework density 20.358447999999999
#
# number of rings (size 3 to 8) (size 9 to 14) (size 15 to 20)
#    0.000    2.385    2.308    1.385    0.000    3.385 
#    0.000    3.846    0.000    3.231    0.000    1.077 
#    0.000    0.000    0.000    0.000    0.000    0.000 
#
# Total GULP energy -644433.071496 kJ/mol
# GULP energy per Si atom -12392.943683 kJ/mol
# Density = 2.031211 g / cm^3
# Si number density = 20.358448 Si / 1000 Ang^3
#
#
#
# Elastic Constant Matrix: (Units=GPa)
#
#
# Indices 1 2 3 4 5 6 
#
# 1 143.8062 18.5482 71.3738 0.0000 0.0000 0.0000
# 2 18.5482 55.2739 23.1132 0.0000 0.0000 0.0000
# 3 71.3738 23.1132 151.0291 0.0000 0.0000 0.0000
# 4 0.0000 0.0000 0.0000 14.2175 0.0000 0.0000
# 5 0.0000 0.0000 0.0000 0.0000 35.9105 0.0000
# 6 0.0000 0.0000 0.0000 0.0000 0.0000 18.7738
#
#
#
# Elastic Compliance Matrix: (Units=1/GPa)
#
#
# Indices 1 2 3 4 5 6 
#
# 1 0.009178 -0.001353 -0.004130 0.000000 0.000000 0.000000
# 2 -0.001353 0.019528 -0.002349 0.000000 0.000000 0.000000
# 3 -0.004130 -0.002349 0.008933 0.000000 0.000000 0.000000
# 4 0.000000 0.000000 0.000000 0.070336 0.000000 0.000000
# 5 0.000000 0.000000 0.000000 0.000000 0.027847 0.000000
# 6 0.000000 0.000000 0.000000 0.000000 0.000000 0.053266
#
#
# Mechanical properties :
#
#
# Convention : Reuss Voigt Hill
#
# Bulk Modulus (GPa) = 45.50811 64.01994 54.76403
# Shear Modulus (GPa) = 23.57631 29.58530 26.58081
#
# Velocity S-wave (km/s) = 3.40672 3.81625 3.61728
# Velocity P-wave (km/s) = 6.15437 7.13673 6.66368
#
# Compressibility (1/GPa) = 0.02197411
#
# Stress axis : x y z
#
# Youngs Moduli (GPa) = 108.95225 51.20852 111.94740
#
# Poissons Ratio (x) = 0.06927 0.46240
# Poissons Ratio (y) = 0.14739 0.26299
# Poissons Ratio (z) = 0.45003 0.12030
#
# Static dielectric constant tensor:
#      x y z
#    x 3.874940 0.000000 0.000000 
#    y 0.000000 3.383280 0.000000 
#    z 0.000000 0.000000 3.964500 
# 
# 
# High freq. dielectric constant tensor:
#      x y z
#    x 1.782000 0.000000 0.000000 
#    y 0.000000 1.767120 0.000000 
#    z 0.000000 0.000000 1.799950 
# 
# From -- ./inp_files/70739.got.cif
#   From: 2010.06.25/outbox.cif.g09.slc.cpg/sg71_36_cif.got.tgz:70739.got - 2010.06.28 04:59:45.
