data_PCOD8287883
_publ_section_title
;
Structure prediction by ZEFSAII (Michael W. Deem and Ramdas Pophale) SiO2 
 PCOD8287883
Probable space group: I M M M
;
_chemical_formula_sum "Si O2"
_cell_formula_units_Z 104
_cell_length_a 12.293827
_cell_length_b 18.552171
_cell_length_c 24.293175
_cell_angle_alpha 90.000000
_cell_angle_beta 90.000000
_cell_angle_gamma 90.000000
_cell_volume 5540.718865
_symmetry_space_group_name_H-M "I M M M"
_symmetry_group_IT_number 71
_symmetry_cell_setting 'orthorhombic'
loop_
_space_group_symop_operation_xyz
x,y,z
-x,-y,z
x,-y,-z
-x,y,-z
-x,-y,-z
x,y,-z
-x,y,z
x,-y,z
1/2+x,1/2+y,1/2+z
1/2-x,1/2-y,1/2+z
1/2+x,1/2-y,1/2-z
1/2-x,1/2+y,1/2-z
1/2-x,1/2-y,1/2-z
1/2+x,1/2+y,1/2-z
1/2-x,1/2+y,1/2+z
1/2+x,1/2-y,1/2+z
loop_
_atom_site_type_symbol
_atom_site_label
_atom_site_fract_x
_atom_site_fract_y
_atom_site_fract_z
Si Si1 0.880695 0.500000 0.564707
Si Si2 0.500000 0.369839 0.938650
Si Si3 0.126672 0.317317 0.160273
Si Si4 0.378270 0.348836 0.328876
Si Si5 0.730759 0.369650 0.437553
Si Si6 0.279959 0.585396 0.228122
Si Si7 0.000000 0.079227 0.323844
Si Si8 0.275451 0.292790 0.060848
O O1 0.895237 0.500000 0.500000
O O2 0.816744 0.571272 0.582743
O O3 0.000000 0.500000 0.592955
O O4 0.500000 0.428569 0.890279
O O5 0.604356 0.320926 0.928715
O O6 0.500000 0.405211 0.000000
O O7 0.142706 0.235857 0.181479
O O8 0.175561 0.373030 0.204418
O O9 0.188701 0.327473 0.102395
O O10 0.000000 0.335421 0.151356
O O11 0.500000 0.369995 0.311015
O O12 0.367150 0.369512 0.393463
O O13 0.293395 0.394641 0.292432
O O14 0.687420 0.385116 0.500000
O O15 0.788808 0.292816 0.433914
O O16 0.262229 0.500000 0.220085
O O17 0.388490 0.616201 0.197242
O O18 0.000000 0.000000 0.297698
O O19 0.233553 0.314142 0.000000
#
# Coordination Sequence:
#
# PCOD8287883 Si02
#       8
#     8   8  16  16  16  16   8  16
#     4   9  18  32  49  69 103 149 188 224 271 324
#     4  10  18  31  56  85 112 137 180 237 276 316
#     4  10  21  38  59  83 112 148 185 227 275 327
#     4  10  21  37  59  84 110 143 186 231 275 329
#     4   9  19  34  52  79 112 145 183 226 274 329
#     4  11  22  38  59  81 110 146 187 228 278 334
#     4  10  20  35  56  82 106 145 182 221 276 331
#     4   9  18  32  54  84 113 143 182 227 275 326
#
# _framework density 18.770126999999999
#
# number of rings (size 3 to 8) (size 9 to 14) (size 15 to 20)
#    0.000    2.231    2.308    0.462    2.154    1.077 
#    0.000    3.846    0.000    1.846    0.000    1.077 
#    0.000    0.000    0.000    0.000    0.000    0.000 
#
# Total GULP energy -644570.877673 kJ/mol
# GULP energy per Si atom -12395.593801 kJ/mol
# Density = 1.872741 g / cm^3
# Si number density = 18.770127 Si / 1000 Ang^3
#
#
#
# Elastic Constant Matrix: (Units=GPa)
#
#
# Indices 1 2 3 4 5 6 
#
# 1 115.8042 41.7760 47.3157 0.0000 0.0000 0.0000
# 2 41.7760 73.7272 37.0816 0.0000 0.0000 0.0000
# 3 47.3157 37.0816 109.2434 0.0000 0.0000 0.0000
# 4 0.0000 0.0000 0.0000 23.0326 0.0000 0.0000
# 5 0.0000 0.0000 0.0000 0.0000 27.0120 0.0000
# 6 0.0000 0.0000 0.0000 0.0000 0.0000 20.7746
#
#
#
# Elastic Compliance Matrix: (Units=1/GPa)
#
#
# Indices 1 2 3 4 5 6 
#
# 1 0.011835 -0.004978 -0.003436 0.000000 0.000000 0.000000
# 2 -0.004978 0.018449 -0.004107 0.000000 0.000000 0.000000
# 3 -0.003436 -0.004107 0.012036 0.000000 0.000000 0.000000
# 4 0.000000 0.000000 0.000000 0.043417 0.000000 0.000000
# 5 0.000000 0.000000 0.000000 0.000000 0.037021 0.000000
# 6 0.000000 0.000000 0.000000 0.000000 0.000000 0.048136
#
#
# Mechanical properties :
#
#
# Convention : Reuss Voigt Hill
#
# Bulk Modulus (GPa) = 57.87243 61.23572 59.55408
# Shear Modulus (GPa) = 24.78996 25.67061 25.23028
#
# Velocity S-wave (km/s) = 3.63810 3.70216 3.67027
# Velocity P-wave (km/s) = 6.96756 7.13929 7.05395
#
# Compressibility (1/GPa) = 0.01727938
#
# Stress axis : x y z
#
# Youngs Moduli (GPa) = 84.49516 54.20220 83.08304
#
# Poissons Ratio (x) = 0.26980 0.28550
# Poissons Ratio (y) = 0.42059 0.34118
# Poissons Ratio (z) = 0.29036 0.22258
#
# Static dielectric constant tensor:
#      x y z
#    x 3.411460 0.000000 0.000000 
#    y 0.000000 3.288850 0.000000 
#    z 0.000000 0.000000 3.529860 
# 
# 
# High freq. dielectric constant tensor:
#      x y z
#    x 1.718680 0.000000 0.000000 
#    y 0.000000 1.716160 0.000000 
#    z 0.000000 0.000000 1.733210 
# 
# From -- ./inp_files/64676.got.cif
#   From: 2010.06.25/outbox.cif.g09.slc.cpg/sg71_33_cif.got.tgz:64676.got - 2010.06.28 04:59:45.
