data_PCOD8287193
_publ_section_title
;
Structure prediction by ZEFSAII (Michael W. Deem and Ramdas Pophale) SiO2 
 PCOD8287193
Probable space group: I M M M
;
_chemical_formula_sum "Si O2"
_cell_formula_units_Z 104
_cell_length_a 16.213058
_cell_length_b 15.078624
_cell_length_c 26.061875
_cell_angle_alpha 90.000000
_cell_angle_beta 90.000000
_cell_angle_gamma 90.000000
_cell_volume 6371.362361
_symmetry_space_group_name_H-M "I M M M"
_symmetry_group_IT_number 71
_symmetry_cell_setting 'orthorhombic'
loop_
_space_group_symop_operation_xyz
x,y,z
-x,-y,z
x,-y,-z
-x,y,-z
-x,-y,-z
x,y,-z
-x,y,z
x,-y,z
1/2+x,1/2+y,1/2+z
1/2-x,1/2-y,1/2+z
1/2+x,1/2-y,1/2-z
1/2-x,1/2+y,1/2-z
1/2-x,1/2-y,1/2-z
1/2+x,1/2+y,1/2-z
1/2-x,1/2+y,1/2+z
1/2+x,1/2-y,1/2+z
loop_
_atom_site_type_symbol
_atom_site_label
_atom_site_fract_x
_atom_site_fract_y
_atom_site_fract_z
Si Si1 0.406838 0.260778 0.287905
Si Si2 0.815531 0.404931 0.254972
Si Si3 0.095254 0.097852 0.591489
Si Si4 0.251990 0.308607 0.345963
Si Si5 0.660028 0.642540 0.803416
Si Si6 0.657533 0.215430 0.058963
Si Si7 0.000000 0.398455 0.439380
O O1 0.500000 0.255552 0.308517
O O2 0.381556 0.167793 0.262205
O O3 0.347610 0.283591 0.336100
O O4 0.399371 0.337362 0.244948
O O5 0.860847 0.500000 0.254801
O O6 0.775647 0.391929 0.311554
O O7 0.740124 0.410689 0.214813
O O8 0.110246 0.091560 0.652669
O O9 0.144692 0.178183 0.564765
O O10 0.000000 0.116182 0.580261
O O11 0.120311 0.000000 0.569146
O O12 0.190041 0.234373 0.326460
O O13 0.235179 0.318821 0.406908
O O14 0.579344 0.157988 0.078761
O O15 0.678339 0.194509 0.000000
O O16 0.000000 0.500000 0.416946
O O17 0.000000 0.404090 0.500000
#
# Coordination Sequence:
#
# PCOD8287193 Si02
#       7
#    16  16  16  16  16  16   8
#     4   9  16  28  46  65  89 123 156 183 221 273
#     4   9  16  27  43  65  92 117 146 187 228 266
#     4  10  18  26  41  67  93 117 148 182 218 264
#     4   8  17  30  44  62  86 119 153 185 225 268
#     4   8  15  28  43  60  88 124 149 173 215 273
#     4  10  19  33  48  62  88 121 154 192 233 275
#     4   9  18  32  49  67  85 111 148 186 227 277
#
# _framework density 16.323039999999999
#
# number of rings (size 3 to 8) (size 9 to 14) (size 15 to 20)
#    0.000    3.000    0.769    2.769    0.000    1.231 
#    1.385    0.769    0.000    4.615    0.000    0.000 
#    0.000    0.000    0.000   20.615    0.000    0.000 
#
# Total GULP energy -644216.146158 kJ/mol
# GULP energy per Si atom -12388.772041 kJ/mol
# Density = 1.628589 g / cm^3
# Si number density = 16.323040 Si / 1000 Ang^3
#
#
#
# Elastic Constant Matrix: (Units=GPa)
#
#
# Indices 1 2 3 4 5 6 
#
# 1 88.3003 13.1234 33.0070 0.0000 0.0000 0.0000
# 2 13.1234 68.7153 10.1874 0.0000 0.0000 0.0000
# 3 33.0070 10.1874 80.7716 0.0000 0.0000 0.0000
# 4 0.0000 0.0000 0.0000 9.6483 0.0000 0.0000
# 5 0.0000 0.0000 0.0000 0.0000 20.6011 0.0000
# 6 0.0000 0.0000 0.0000 0.0000 0.0000 8.4038
#
#
#
# Elastic Compliance Matrix: (Units=1/GPa)
#
#
# Indices 1 2 3 4 5 6 
#
# 1 0.013583 -0.001805 -0.005323 0.000000 0.000000 0.000000
# 2 -0.001805 0.015070 -0.001163 0.000000 0.000000 0.000000
# 3 -0.005323 -0.001163 0.014702 0.000000 0.000000 0.000000
# 4 0.000000 0.000000 0.000000 0.103645 0.000000 0.000000
# 5 0.000000 0.000000 0.000000 0.000000 0.048541 0.000000
# 6 0.000000 0.000000 0.000000 0.000000 0.000000 0.118993
#
#
# Mechanical properties :
#
#
# Convention : Reuss Voigt Hill
#
# Bulk Modulus (GPa) = 37.35062 38.93589 38.14325
# Shear Modulus (GPa) = 14.70410 19.82862 17.26636
#
# Velocity S-wave (km/s) = 3.00462 3.48913 3.25590
# Velocity P-wave (km/s) = 5.91344 6.33539 6.12805
#
# Compressibility (1/GPa) = 0.02677332
#
# Stress axis : x y z
#
# Youngs Moduli (GPa) = 73.62146 66.35724 68.01566
#
# Poissons Ratio (x) = 0.11977 0.36205
# Poissons Ratio (y) = 0.13288 0.07911
# Poissons Ratio (z) = 0.39189 0.07718
#
# Static dielectric constant tensor:
#      x y z
#    x 2.871130 0.000000 0.000000 
#    y 0.000000 3.143680 0.000000 
#    z 0.000000 0.000000 3.246960 
# 
# 
# High freq. dielectric constant tensor:
#      x y z
#    x 1.595410 0.000000 0.000000 
#    y 0.000000 1.632150 0.000000 
#    z 0.000000 0.000000 1.605710 
# 
# From -- ./inp_files/66150.got.cif
#   From: 2010.06.25/outbox.cif.g09.slc.cpg/sg71_34_cif.got.tgz:66150.got - 2010.06.28 04:59:45.
