data_PCOD8287228
_publ_section_title
;
Structure prediction by ZEFSAII (Michael W. Deem and Ramdas Pophale) SiO2 
 PCOD8287228
Probable space group: I M M M
;
_chemical_formula_sum "Si O2"
_cell_formula_units_Z 96
_cell_length_a 22.874732
_cell_length_b 9.074419
_cell_length_c 25.979072
_cell_angle_alpha 90.000000
_cell_angle_beta 90.000000
_cell_angle_gamma 90.000000
_cell_volume 5392.603342
_symmetry_space_group_name_H-M "I M M M"
_symmetry_group_IT_number 71
_symmetry_cell_setting 'orthorhombic'
loop_
_space_group_symop_operation_xyz
x,y,z
-x,-y,z
x,-y,-z
-x,y,-z
-x,-y,-z
x,y,-z
-x,y,z
x,-y,z
1/2+x,1/2+y,1/2+z
1/2-x,1/2-y,1/2+z
1/2+x,1/2-y,1/2-z
1/2-x,1/2+y,1/2-z
1/2-x,1/2-y,1/2-z
1/2+x,1/2+y,1/2-z
1/2-x,1/2+y,1/2+z
1/2+x,1/2-y,1/2+z
loop_
_atom_site_type_symbol
_atom_site_label
_atom_site_fract_x
_atom_site_fract_y
_atom_site_fract_z
Si Si1 0.349595 0.838565 0.640021
Si Si2 0.167109 0.326126 0.381263
Si Si3 0.267672 0.662385 0.200973
Si Si4 0.567426 0.828290 0.269747
Si Si5 0.718672 0.673895 0.558472
Si Si6 0.067402 0.827981 0.662486
O O1 0.287588 0.859526 0.665608
O O2 0.395010 0.768214 0.681253
O O3 0.336811 0.737619 0.590098
O O4 0.372935 0.000000 0.622300
O O5 0.158699 0.500000 0.382246
O O6 0.185304 0.267513 0.325342
O O7 0.216417 0.275183 0.422399
O O8 0.103504 0.247522 0.385265
O O9 0.294015 0.500000 0.213714
O O10 0.250000 0.750000 0.250000
O O11 0.500000 0.804652 0.284345
O O12 0.583802 0.739622 0.218338
O O13 0.582238 0.000000 0.260006
O O14 0.712271 0.727793 0.500000
O O15 0.714708 0.500000 0.564064
O O16 0.000000 0.796796 0.649934
O O17 0.081907 0.000000 0.664000
#
# Coordination Sequence:
#
# PCOD8287228 Si02
#       6
#    16  16  16  16  16  16
#     4   9  18  30  45  68  94 121 155 192 232 280
#     4  10  19  31  48  68  91 121 156 193 237 287
#     4  10  18  27  41  64  95 125 154 190 231 279
#     4   9  17  30  48  70  99 133 165 195 227 269
#     4   9  19  35  53  72  92 116 151 198 248 291
#     4  10  20  32  47  70 100 131 162 194 227 270
#
# _framework density 17.802161999999999
#
# number of rings (size 3 to 8) (size 9 to 14) (size 15 to 20)
#    0.000    2.500    0.000    2.500    0.000    4.667 
#    0.000    0.000    0.000    1.000    0.000    7.000 
#    0.000    0.000    0.000    0.000    0.000    0.000 
#
# Total GULP energy -594701.201819 kJ/mol
# GULP energy per Si atom -12389.608371 kJ/mol
# Density = 1.776164 g / cm^3
# Si number density = 17.802162 Si / 1000 Ang^3
#
#
#
# Elastic Constant Matrix: (Units=GPa)
#
#
# Indices 1 2 3 4 5 6 
#
# 1 56.5229 15.9590 2.1133 0.0000 0.0000 0.0000
# 2 15.9590 56.2200 23.6422 0.0000 0.0000 0.0000
# 3 2.1133 23.6422 46.4157 0.0000 0.0000 0.0000
# 4 0.0000 0.0000 0.0000 22.9910 0.0000 0.0000
# 5 0.0000 0.0000 0.0000 0.0000 25.3979 0.0000
# 6 0.0000 0.0000 0.0000 0.0000 0.0000 27.5286
#
#
#
# Elastic Compliance Matrix: (Units=1/GPa)
#
#
# Indices 1 2 3 4 5 6 
#
# 1 0.019450 -0.006552 0.002452 0.000000 0.000000 0.000000
# 2 -0.006552 0.024843 -0.012356 0.000000 0.000000 0.000000
# 3 0.002452 -0.012356 0.027726 0.000000 0.000000 0.000000
# 4 0.000000 0.000000 0.000000 0.043495 0.000000 0.000000
# 5 0.000000 0.000000 0.000000 0.000000 0.039373 0.000000
# 6 0.000000 0.000000 0.000000 0.000000 0.000000 0.036326
#
#
# Mechanical properties :
#
#
# Convention : Reuss Voigt Hill
#
# Bulk Modulus (GPa) = 25.57059 26.95417 26.26238
# Shear Modulus (GPa) = 21.08257 23.01310 22.04784
#
# Velocity S-wave (km/s) = 3.44506 3.59933 3.52304
# Velocity P-wave (km/s) = 5.49723 5.69626 5.59763
#
# Compressibility (1/GPa) = 0.03910743
#
# Stress axis : x y z
#
# Youngs Moduli (GPa) = 51.41300 40.25233 36.06679
#
# Poissons Ratio (x) = 0.26375 -0.08844
# Poissons Ratio (y) = 0.33688 0.44563
# Poissons Ratio (z) = -0.12606 0.49735
#
# Static dielectric constant tensor:
#      x y z
#    x 3.377980 0.000000 0.000000 
#    y 0.000000 3.474940 0.000000 
#    z 0.000000 0.000000 2.997510 
# 
# 
# High freq. dielectric constant tensor:
#      x y z
#    x 1.689890 0.000000 0.000000 
#    y 0.000000 1.693060 0.000000 
#    z 0.000000 0.000000 1.653250 
# 
# From -- ./inp_files/12848.got.cif
#   From: 2010.06.25/outbox.cif.g09.slc.cpg/sg71_7_cif.got.tgz:12848.got - 2010.06.28 04:59:45.
