data_PCOD8287223
_publ_section_title
;
Structure prediction by ZEFSAII (Michael W. Deem and Ramdas Pophale) SiO2 
 PCOD8287223
Probable space group: I M M M
;
_chemical_formula_sum "Si O2"
_cell_formula_units_Z 80
_cell_length_a 9.684310
_cell_length_b 38.708356
_cell_length_c 14.462475
_cell_angle_alpha 90.000000
_cell_angle_beta 90.000000
_cell_angle_gamma 90.000000
_cell_volume 5421.457166
_symmetry_space_group_name_H-M "I M M M"
_symmetry_group_IT_number 71
_symmetry_cell_setting 'orthorhombic'
loop_
_space_group_symop_operation_xyz
x,y,z
-x,-y,z
x,-y,-z
-x,y,-z
-x,-y,-z
x,y,-z
-x,y,z
x,-y,z
1/2+x,1/2+y,1/2+z
1/2-x,1/2-y,1/2+z
1/2+x,1/2-y,1/2-z
1/2-x,1/2+y,1/2-z
1/2-x,1/2-y,1/2-z
1/2+x,1/2+y,1/2-z
1/2-x,1/2+y,1/2+z
1/2+x,1/2-y,1/2+z
loop_
_atom_site_type_symbol
_atom_site_label
_atom_site_fract_x
_atom_site_fract_y
_atom_site_fract_z
Si Si1 0.339531 0.899628 0.392606
Si Si2 0.837144 0.697087 0.600333
Si Si3 0.656365 0.274462 0.892314
Si Si4 0.337270 0.169552 0.708841
Si Si5 0.654929 0.538126 0.109791
O O1 0.304896 0.892357 0.500000
O O2 0.500000 0.907394 0.378570
O O3 0.290127 0.866944 0.332967
O O4 0.258466 0.932756 0.352450
O O5 0.775809 0.685078 0.500000
O O6 0.786224 0.735739 0.625266
O O7 0.796658 0.670556 0.682059
O O8 0.000000 0.699524 0.590152
O O9 0.500000 0.278921 0.854178
O O10 0.758982 0.299926 0.841386
O O11 0.659391 0.283378 0.000000
O O12 0.500000 0.175297 0.693552
O O13 0.500000 0.546759 0.143627
O O14 0.699191 0.500000 0.146344
O O15 0.660423 0.537899 0.000000
#
# Coordination Sequence:
#
# PCOD8287223 Si02
#       5
#    16  16  16  16  16
#     4   9  17  26  35  53  81 106 126 150 184 226
#     4   8  15  28  43  57  74  99 133 170 204 237
#     4   9  17  28  41  57  77 102 132 164 199 239
#     4  10  18  27  41  59  79 103 131 164 199 234
#     4   8  14  25  40  56  74  99 130 156 176 208
#
# _framework density 14.756181
#
# number of rings (size 3 to 8) (size 9 to 14) (size 15 to 20)
#    0.000    3.200    0.000    3.000    0.000    2.400 
#    0.000    4.000    0.000    1.800    0.000    0.000 
#    0.000    0.800    0.000   10.000    0.000    2.000 
#
# Total GULP energy -495698.795048 kJ/mol
# GULP energy per Si atom -12392.469876 kJ/mol
# Density = 1.472260 g / cm^3
# Si number density = 14.756181 Si / 1000 Ang^3
#
#
#
# Elastic Constant Matrix: (Units=GPa)
#
#
# Indices 1 2 3 4 5 6 
#
# 1 37.0562 39.8436 28.9635 0.0001 0.0000 0.0000
# 2 39.8436 108.1746 62.1038 0.0000 0.0001 0.0001
# 3 28.9635 62.1038 66.1723 0.0001 0.0002 0.0001
# 4 0.0001 0.0000 0.0001 13.7399 0.0001 0.0000
# 5 0.0000 0.0001 0.0002 0.0001 11.4041 0.0001
# 6 0.0000 0.0001 0.0001 0.0000 0.0001 25.4176
#
#
#
# Elastic Compliance Matrix: (Units=1/GPa)
#
#
# Indices 1 2 3 4 5 6 
#
# 1 0.047246 -0.011990 -0.009427 0.000000 0.000000 0.000000
# 2 -0.011990 0.023087 -0.016420 0.000000 0.000000 0.000000
# 3 -0.009427 -0.016420 0.034648 0.000000 0.000000 0.000000
# 4 0.000000 0.000000 0.000000 0.072781 0.000000 0.000000
# 5 0.000000 0.000000 0.000000 0.000000 0.087688 0.000000
# 6 0.000000 0.000000 0.000000 0.000000 0.000000 0.039343
#
#
# Mechanical properties :
#
#
# Convention : Reuss Voigt Hill
#
# Bulk Modulus (GPa) = 34.11957 52.58052 43.35004
# Shear Modulus (GPa) = 12.81279 15.47848 14.14564
#
# Velocity S-wave (km/s) = 2.94989 3.24226 3.09952
# Velocity P-wave (km/s) = 5.89702 7.05171 6.50006
#
# Compressibility (1/GPa) = 0.02930869
#
# Stress axis : x y z
#
# Youngs Moduli (GPa) = 21.16584 43.31392 28.86146
#
# Poissons Ratio (x) = 0.51934 0.27206
# Poissons Ratio (y) = 0.25378 0.47390
# Poissons Ratio (z) = 0.19952 0.71120
#
# Static dielectric constant tensor:
#      x y z
#    x 2.780650 0.000000 0.000000 
#    y 0.000000 2.987720 0.000000 
#    z 0.000000 0.000000 2.951750 
# 
# 
# High freq. dielectric constant tensor:
#      x y z
#    x 1.551130 0.000000 0.000000 
#    y 0.000000 1.554410 0.000000 
#    z 0.000000 0.000000 1.536440 
# 
# From -- ./inp_files/22425.got.cif
#   From: 2010.06.25/outbox.cif.g09.slc.cpg/sg71_12_cif.got.tgz:22425.got - 2010.06.28 04:59:45.
