data_PCOD8287032
_publ_section_title
;
Structure prediction by ZEFSAII (Michael W. Deem and Ramdas Pophale) SiO2 
 PCOD8287032
Probable space group: I M M M
;
_chemical_formula_sum "Si O2"
_cell_formula_units_Z 80
_cell_length_a 8.715333
_cell_length_b 23.793637
_cell_length_c 26.526941
_cell_angle_alpha 90.000000
_cell_angle_beta 90.000000
_cell_angle_gamma 90.000000
_cell_volume 5500.877689
_symmetry_space_group_name_H-M "I M M M"
_symmetry_group_IT_number 71
_symmetry_cell_setting 'orthorhombic'
loop_
_space_group_symop_operation_xyz
x,y,z
-x,-y,z
x,-y,-z
-x,y,-z
-x,-y,-z
x,y,-z
-x,y,z
x,-y,z
1/2+x,1/2+y,1/2+z
1/2-x,1/2-y,1/2+z
1/2+x,1/2-y,1/2-z
1/2-x,1/2+y,1/2-z
1/2-x,1/2-y,1/2-z
1/2+x,1/2+y,1/2-z
1/2-x,1/2+y,1/2+z
1/2+x,1/2-y,1/2+z
loop_
_atom_site_type_symbol
_atom_site_label
_atom_site_fract_x
_atom_site_fract_y
_atom_site_fract_z
Si Si1 0.181110 0.000000 0.718113
Si Si2 0.181641 0.615029 0.755973
Si Si3 0.180932 0.500000 0.107717
Si Si4 0.180258 0.315899 0.147353
Si Si5 0.817716 0.385286 0.944214
Si Si6 0.680545 0.712845 0.293891
O O1 0.244529 0.053906 0.747782
O O2 0.235338 0.000000 0.660788
O O3 0.000000 0.000000 0.720341
O O4 0.243637 0.645655 0.806782
O O5 0.238044 0.651906 0.707521
O O6 0.000000 0.609666 0.754660
O O7 0.233017 0.446111 0.075855
O O8 0.000000 0.500000 0.118776
O O9 0.248177 0.337623 0.094016
O O10 0.216487 0.249298 0.155264
O O11 0.000000 0.326202 0.147171
O O12 0.000000 0.382329 0.947249
O O13 0.747521 0.375370 0.000000
O O14 0.500000 0.705259 0.286189
O O15 0.750000 0.750000 0.250000
#
# Coordination Sequence:
#
# PCOD8287032 Si02
#       6
#     8  16   8  16  16  16
#     4  12  22  29  41  61  82 108 137 169 210 257
#     4  10  18  30  44  58  78 104 135 171 209 246
#     4  10  17  28  42  56  78 108 144 183 213 237
#     4   8  14  24  39  58  79 102 130 171 210 239
#     4   9  15  23  39  62  81 103 141 182 213 240
#     4   9  16  26  40  59  81 104 133 168 207 249
#
# _framework density 14.543134
#
# number of rings (size 3 to 8) (size 9 to 14) (size 15 to 20)
#    0.000    2.600    2.000    3.600    0.000    1.200 
#    0.000    0.000    0.000    1.200    0.000    0.000 
#    0.000    0.000    0.000    0.900    0.000   21.200 
#
# Total GULP energy -495615.071859 kJ/mol
# GULP energy per Si atom -12390.376796 kJ/mol
# Density = 1.451003 g / cm^3
# Si number density = 14.543134 Si / 1000 Ang^3
#
#
#
# Elastic Constant Matrix: (Units=GPa)
#
#
# Indices 1 2 3 4 5 6 
#
# 1 51.3744 34.9129 18.6005 0.0000 0.0000 0.0000
# 2 34.9129 129.7610 65.8846 0.0000 0.0000 0.0000
# 3 18.6005 65.8846 69.9368 0.0000 0.0000 0.0000
# 4 0.0000 0.0000 0.0000 16.0815 0.0000 0.0000
# 5 0.0000 0.0000 0.0000 0.0000 10.5220 0.0000
# 6 0.0000 0.0000 0.0000 0.0000 0.0000 21.3388
#
#
#
# Elastic Compliance Matrix: (Units=1/GPa)
#
#
# Indices 1 2 3 4 5 6 
#
# 1 0.023832 -0.006122 -0.000571 0.000000 0.000000 0.000000
# 2 -0.006122 0.016345 -0.013770 0.000000 0.000000 0.000000
# 3 -0.000571 -0.013770 0.027422 0.000000 0.000000 0.000000
# 4 0.000000 0.000000 0.000000 0.062183 0.000000 0.000000
# 5 0.000000 0.000000 0.000000 0.000000 0.095039 0.000000
# 6 0.000000 0.000000 0.000000 0.000000 0.000000 0.046863
#
#
# Mechanical properties :
#
#
# Convention : Reuss Voigt Hill
#
# Bulk Modulus (GPa) = 37.48989 54.42980 45.95984
# Shear Modulus (GPa) = 15.55196 18.36673 16.95935
#
# Velocity S-wave (km/s) = 3.27367 3.55761 3.41859
# Velocity P-wave (km/s) = 6.33432 7.37449 6.87411
#
# Compressibility (1/GPa) = 0.02667386
#
# Stress axis : x y z
#
# Youngs Moduli (GPa) = 41.95992 61.18006 36.46652
#
# Poissons Ratio (x) = 0.37457 0.02082
# Poissons Ratio (y) = 0.25689 0.50214
# Poissons Ratio (z) = 0.02395 0.84244
#
# Static dielectric constant tensor:
#      x y z
#    x 2.676170 0.000000 0.000000 
#    y 0.000000 3.213270 0.000000 
#    z 0.000000 0.000000 2.982720 
# 
# 
# High freq. dielectric constant tensor:
#      x y z
#    x 1.538080 0.000000 0.000000 
#    y 0.000000 1.554780 0.000000 
#    z 0.000000 0.000000 1.514350 
# 
# From -- ./inp_files/11269.got.cif
#   From: 2010.06.25/outbox.cif.g09.slc.cpg/sg71_6_cif.got.tgz:11269.got - 2010.06.28 04:59:45.
