data_PCOD8287108
_publ_section_title
;
Structure prediction by ZEFSAII (Michael W. Deem and Ramdas Pophale) SiO2 
 PCOD8287108
Probable space group: I M M M
;
_chemical_formula_sum "Si O2"
_cell_formula_units_Z 104
_cell_length_a 25.846941
_cell_length_b 9.764983
_cell_length_c 22.955534
_cell_angle_alpha 90.000000
_cell_angle_beta 90.000000
_cell_angle_gamma 90.000000
_cell_volume 5793.860614
_symmetry_space_group_name_H-M "I M M M"
_symmetry_group_IT_number 71
_symmetry_cell_setting 'orthorhombic'
loop_
_space_group_symop_operation_xyz
x,y,z
-x,-y,z
x,-y,-z
-x,y,-z
-x,-y,-z
x,y,-z
-x,y,z
x,-y,z
1/2+x,1/2+y,1/2+z
1/2-x,1/2-y,1/2+z
1/2+x,1/2-y,1/2-z
1/2-x,1/2+y,1/2-z
1/2-x,1/2-y,1/2-z
1/2+x,1/2+y,1/2-z
1/2-x,1/2+y,1/2+z
1/2+x,1/2-y,1/2+z
loop_
_atom_site_type_symbol
_atom_site_label
_atom_site_fract_x
_atom_site_fract_y
_atom_site_fract_z
Si Si1 0.000000 0.836930 0.930515
Si Si2 0.306944 0.156239 0.687315
Si Si3 0.558175 0.000000 0.931605
Si Si4 0.209758 0.341206 0.678879
Si Si5 0.419451 0.160114 0.360218
Si Si6 0.059011 0.000000 0.568733
Si Si7 0.442623 0.848085 0.231920
Si Si8 0.889408 0.750833 0.627306
O O1 0.052145 0.760756 0.906389
O O2 0.000000 0.000000 0.913869
O O3 0.000000 0.820348 0.000000
O O4 0.263473 0.263529 0.669049
O O5 0.315527 0.174901 0.756739
O O6 0.358166 0.189488 0.649036
O O7 0.289000 0.000000 0.675040
O O8 0.586750 0.871895 0.907179
O O9 0.500000 0.000000 0.908664
O O10 0.560730 0.000000 0.000000
O O11 0.218770 0.500000 0.663909
O O12 0.172066 0.269504 0.632039
O O13 0.445588 0.195974 0.298817
O O14 0.428533 0.000000 0.377619
O O15 0.094152 0.121744 0.590169
O O16 0.055379 0.000000 0.500000
O O17 0.000000 0.000000 0.593986
O O18 0.500000 0.853652 0.206369
O O19 0.411130 0.740326 0.193278
O O20 0.416385 0.000000 0.226973
#
# Coordination Sequence:
#
# PCOD8287108 Si02
#       8
#     8  16   8  16  16   8  16  16
#     4  11  25  43  61  87 125 163 194 233 290 349
#     4   9  19  34  56  85 124 157 186 232 291 352
#     4  11  22  36  58  83 108 150 204 244 283 349
#     4  10  19  34  55  86 119 154 192 235 294 353
#     4  10  19  36  60  90 119 154 194 237 280 346
#     4  11  26  44  56  75 116 162 200 246 301 349
#     4  10  17  29  53  84 120 146 177 233 295 338
#     4  12  21  36  57  83 114 153 195 249 293 350
#
# _framework density 17.950036000000001
#
# number of rings (size 3 to 8) (size 9 to 14) (size 15 to 20)
#    0.000    1.615    3.846    2.077    1.077    2.462 
#    1.385    0.000    0.000    1.846    0.000    0.000 
#    0.000    0.000    0.000    0.000    0.000    0.000 
#
# Total GULP energy -644374.201622 kJ/mol
# GULP energy per Si atom -12391.811570 kJ/mol
# Density = 1.790918 g / cm^3
# Si number density = 17.950036 Si / 1000 Ang^3
#
#
#
# Elastic Constant Matrix: (Units=GPa)
#
#
# Indices 1 2 3 4 5 6 
#
# 1 135.5515 71.7562 51.8089 0.0000 0.0000 0.0000
# 2 71.7562 128.4251 47.1101 0.0000 0.0000 0.0000
# 3 51.8089 47.1101 109.6898 0.0000 0.0000 0.0000
# 4 0.0000 0.0000 0.0000 33.2810 0.0000 0.0000
# 5 0.0000 0.0000 0.0000 0.0000 33.9089 0.0000
# 6 0.0000 0.0000 0.0000 0.0000 0.0000 33.1842
#
#
#
# Elastic Compliance Matrix: (Units=1/GPa)
#
#
# Indices 1 2 3 4 5 6 
#
# 1 0.011308 -0.005174 -0.003119 0.000000 0.000000 0.000000
# 2 -0.005174 0.011610 -0.002543 0.000000 0.000000 0.000000
# 3 -0.003119 -0.002543 0.011682 0.000000 0.000000 0.000000
# 4 0.000000 0.000000 0.000000 0.030047 0.000000 0.000000
# 5 0.000000 0.000000 0.000000 0.000000 0.029491 0.000000
# 6 0.000000 0.000000 0.000000 0.000000 0.000000 0.030135
#
#
# Mechanical properties :
#
#
# Convention : Reuss Voigt Hill
#
# Bulk Modulus (GPa) = 77.34562 79.44630 78.39596
# Shear Modulus (GPa) = 33.27682 33.60758 33.44220
#
# Velocity S-wave (km/s) = 4.31032 4.33168 4.32101
# Velocity P-wave (km/s) = 8.24346 8.32909 8.28639
#
# Compressibility (1/GPa) = 0.01292898
#
# Stress axis : x y z
#
# Youngs Moduli (GPa) = 88.42919 86.12929 85.60373
#
# Poissons Ratio (x) = 0.44567 0.26699
# Poissons Ratio (y) = 0.45757 0.21765
# Poissons Ratio (z) = 0.27580 0.21899
#
# Static dielectric constant tensor:
#      x y z
#    x 3.465390 0.000000 0.000000 
#    y 0.000000 3.307450 0.000000 
#    z 0.000000 0.000000 3.247730 
# 
# 
# High freq. dielectric constant tensor:
#      x y z
#    x 1.703000 0.000000 0.000000 
#    y 0.000000 1.689110 0.000000 
#    z 0.000000 0.000000 1.671860 
# 
# From -- ./inp_files/62014.got.cif
#   From: 2010.06.25/outbox.cif.g09.slc.cpg/sg71_32_cif.got.tgz:62014.got - 2010.06.28 04:59:45.
