data_PCOD8287882
_publ_section_title
;
Structure prediction by ZEFSAII (Michael W. Deem and Ramdas Pophale) SiO2 
 PCOD8287882
Probable space group: I M M M
;
_chemical_formula_sum "Si O2"
_cell_formula_units_Z 80
_cell_length_a 17.754553
_cell_length_b 11.811816
_cell_length_c 20.279899
_cell_angle_alpha 90.000000
_cell_angle_beta 90.000000
_cell_angle_gamma 90.000000
_cell_volume 4252.968867
_symmetry_space_group_name_H-M "I M M M"
_symmetry_group_IT_number 71
_symmetry_cell_setting 'orthorhombic'
loop_
_space_group_symop_operation_xyz
x,y,z
-x,-y,z
x,-y,-z
-x,y,-z
-x,-y,-z
x,y,-z
-x,y,z
x,-y,z
1/2+x,1/2+y,1/2+z
1/2-x,1/2-y,1/2+z
1/2+x,1/2-y,1/2-z
1/2-x,1/2+y,1/2-z
1/2-x,1/2-y,1/2-z
1/2+x,1/2+y,1/2-z
1/2-x,1/2+y,1/2+z
1/2+x,1/2-y,1/2+z
loop_
_atom_site_type_symbol
_atom_site_label
_atom_site_fract_x
_atom_site_fract_y
_atom_site_fract_z
Si Si1 0.588965 0.500000 0.852970
Si Si2 0.589305 0.500000 0.291288
Si Si3 0.337553 0.127870 0.000000
Si Si4 0.410855 0.715948 0.369590
Si Si5 0.410649 0.873110 0.253696
Si Si6 0.910844 0.751986 0.621179
Si Si7 0.340467 0.632480 0.500000
O O1 0.500000 0.500000 0.844450
O O2 0.626220 0.500000 0.780748
O O3 0.613106 0.383847 0.888925
O O4 0.500000 0.500000 0.285954
O O5 0.618175 0.391277 0.329228
O O6 0.368463 0.184573 0.934634
O O7 0.248441 0.133959 0.000000
O O8 0.366686 0.000000 0.000000
O O9 0.500000 0.715304 0.382053
O O10 0.385469 0.823399 0.325022
O O11 0.369573 0.707575 0.439132
O O12 0.500000 0.875974 0.252060
O O13 0.383791 0.794483 0.192682
O O14 0.377361 0.000000 0.246354
O O15 0.000000 0.736012 0.612646
O O16 0.369795 0.500000 0.500000
#
# Coordination Sequence:
#
# PCOD8287882 Si02
#       7
#     8   8   8  16  16  16   8
#     4   9  16  29  55  91 113 125 161 222 279 308
#     4   9  14  25  51  87 113 125 155 216 277 316
#     4  11  25  40  51  71 108 149 182 216 259 312
#     4  10  18  31  56  85 109 135 172 219 267 316
#     4   9  17  30  53  84 112 138 171 214 262 314
#     4  10  19  34  59  84 107 136 174 220 264 313
#     4  11  23  37  53  75 107 143 180 223 267 311
#
# _framework density 18.810389000000001
#
# number of rings (size 3 to 8) (size 9 to 14) (size 15 to 20)
#    0.000    2.200    3.000    1.200    0.000    2.400 
#    0.000    3.000    4.400    2.400    0.000    0.000 
#    0.000    0.000    0.000    0.000    0.000    0.000 
#
# Total GULP energy -495731.690629 kJ/mol
# GULP energy per Si atom -12393.292266 kJ/mol
# Density = 1.876758 g / cm^3
# Si number density = 18.810389 Si / 1000 Ang^3
#
#
#
# Elastic Constant Matrix: (Units=GPa)
#
#
# Indices 1 2 3 4 5 6 
#
# 1 33.3402 30.1665 35.7691 0.0000 0.0000 0.0000
# 2 30.1665 160.5174 71.0717 0.0000 0.0000 0.0000
# 3 35.7691 71.0717 145.2315 0.0000 0.0000 0.0000
# 4 0.0000 0.0000 0.0000 32.0971 0.0000 0.0000
# 5 0.0000 0.0000 0.0000 0.0000 -9.1983 0.0000
# 6 0.0000 0.0000 0.0000 0.0000 0.0000 15.1620
#
#
#
# Elastic Compliance Matrix: (Units=1/GPa)
#
#
# Indices 1 2 3 4 5 6 
#
# 1 0.043001 -0.004330 -0.008472 0.000000 0.000000 0.000000
# 2 -0.004330 0.008389 -0.003039 0.000000 0.000000 0.000000
# 3 -0.008472 -0.003039 0.010459 0.000000 0.000000 0.000000
# 4 0.000000 0.000000 0.000000 0.031155 0.000000 0.000000
# 5 0.000000 0.000000 0.000000 0.000000 -0.108716 0.000000
# 6 0.000000 0.000000 0.000000 0.000000 0.000000 0.065954
#
#
# Mechanical properties :
#
#
# Convention : Reuss Voigt Hill
#
# Bulk Modulus (GPa) = 33.14823 68.12263 50.63543
# Shear Modulus (GPa) = 54.35972 21.08430 37.72201
#
# Velocity S-wave (km/s) = 5.38159 3.35160 4.48301
# Velocity P-wave (km/s) = 7.50173 7.16042 7.33306
#
# Compressibility (1/GPa) = 0.03016752
#
# Stress axis : x y z
#
# Youngs Moduli (GPa) = 23.25546 119.20120 95.61017
#
# Poissons Ratio (x) = 0.51618 0.80996
# Poissons Ratio (y) = 0.10070 0.29055
# Poissons Ratio (z) = 0.19701 0.36224
#
# Static dielectric constant tensor:
#      x y z
#    x 2.944140 0.000000 0.000000 
#    y 0.000000 3.846600 0.000000 
#    z 0.000000 0.000000 3.536200 
# 
# 
# High freq. dielectric constant tensor:
#      x y z
#    x 1.675670 0.000000 0.000000 
#    y 0.000000 1.739640 0.000000 
#    z 0.000000 0.000000 1.739090 
# 
# From -- ./inp_files/23893.got.cif
#   From: 2010.06.25/outbox.cif.g09.slc.cpg/sg71_12_cif.got.tgz:23893.got - 2010.06.28 04:59:45.
