data_PCOD8287821
_publ_section_title
;
Structure prediction by ZEFSAII (Michael W. Deem and Ramdas Pophale) SiO2 
 PCOD8287821
Probable space group: I M M M
;
_chemical_formula_sum "Si O2"
_cell_formula_units_Z 104
_cell_length_a 9.534841
_cell_length_b 26.724662
_cell_length_c 22.748508
_cell_angle_alpha 90.000000
_cell_angle_beta 90.000000
_cell_angle_gamma 90.000000
_cell_volume 5796.670233
_symmetry_space_group_name_H-M "I M M M"
_symmetry_group_IT_number 71
_symmetry_cell_setting 'orthorhombic'
loop_
_space_group_symop_operation_xyz
x,y,z
-x,-y,z
x,-y,-z
-x,y,-z
-x,-y,-z
x,y,-z
-x,y,z
x,-y,z
1/2+x,1/2+y,1/2+z
1/2-x,1/2-y,1/2+z
1/2+x,1/2-y,1/2-z
1/2-x,1/2+y,1/2-z
1/2-x,1/2-y,1/2-z
1/2+x,1/2+y,1/2-z
1/2-x,1/2+y,1/2+z
1/2+x,1/2-y,1/2+z
loop_
_atom_site_type_symbol
_atom_site_label
_atom_site_fract_x
_atom_site_fract_y
_atom_site_fract_z
Si Si1 0.339421 0.690942 0.195825
Si Si2 0.346383 0.943028 0.230807
Si Si3 0.164804 0.213794 0.826716
Si Si4 0.163385 0.847334 0.936690
Si Si5 0.839291 0.943376 0.874103
Si Si6 0.335760 0.500000 0.065333
Si Si7 0.662500 0.580295 0.839870
O O1 0.500000 0.708390 0.189080
O O2 0.239260 0.732746 0.169253
O O3 0.302786 0.684562 0.265439
O O4 0.313067 0.640152 0.158743
O O5 0.500000 0.916432 0.235599
O O6 0.253130 0.920151 0.178659
O O7 0.263300 0.941699 0.291140
O O8 0.370896 0.000000 0.213796
O O9 0.228061 0.182478 0.881466
O O10 0.000000 0.222993 0.833010
O O11 0.186887 0.906995 0.929180
O O12 0.000000 0.835032 0.938368
O O13 0.230819 0.832036 0.000000
O O14 0.000000 0.940234 0.852418
O O15 0.800002 0.000000 0.892512
O O16 0.500000 0.500000 0.056544
O O17 0.293933 0.551241 0.100128
O O18 0.264784 0.500000 0.000000
O O19 0.500000 0.568616 0.824426
#
# Coordination Sequence:
#
# PCOD8287821 Si02
#       7
#    16  16  16  16  16   8  16
#     4   9  18  31  50  75  99 122 156 204 253 292
#     4  10  19  29  44  70 102 130 158 197 242 288
#     4   9  17  31  49  70  98 129 161 199 245 297
#     4   9  17  30  49  72  98 130 167 205 243 287
#     4   9  17  29  47  71  99 130 165 203 242 285
#     4   9  18  32  51  75 101 131 166 201 244 301
#     4  10  18  31  52  74  97 128 165 204 245 299
#
# _framework density 17.941334000000001
#
# number of rings (size 3 to 8) (size 9 to 14) (size 15 to 20)
#    0.000    2.692    0.769    1.385    0.000    4.000 
#    0.000    6.154    0.000    3.692    0.000    2.154 
#    0.000    0.000    0.000    0.000    0.000    0.000 
#
# Total GULP energy -644258.560379 kJ/mol
# GULP energy per Si atom -12389.587700 kJ/mol
# Density = 1.790050 g / cm^3
# Si number density = 17.941334 Si / 1000 Ang^3
#
#
#
# Elastic Constant Matrix: (Units=GPa)
#
#
# Indices 1 2 3 4 5 6 
#
# 1 47.7889 25.1003 30.4418 0.0000 0.0000 0.0000
# 2 25.1003 108.6835 65.9590 0.0000 0.0000 0.0000
# 3 30.4418 65.9590 132.6955 0.0000 0.0000 0.0000
# 4 0.0000 0.0000 0.0000 21.3024 0.0000 0.0000
# 5 0.0000 0.0000 0.0000 0.0000 8.9280 0.0000
# 6 0.0000 0.0000 0.0000 0.0000 0.0000 20.2577
#
#
#
# Elastic Compliance Matrix: (Units=1/GPa)
#
#
# Indices 1 2 3 4 5 6 
#
# 1 0.025319 -0.003325 -0.004155 0.000000 0.000000 0.000000
# 2 -0.003325 0.013612 -0.006003 0.000000 0.000000 0.000000
# 3 -0.004155 -0.006003 0.011474 0.000000 0.000000 0.000000
# 4 0.000000 0.000000 0.000000 0.046943 0.000000 0.000000
# 5 0.000000 0.000000 0.000000 0.000000 0.112007 0.000000
# 6 0.000000 0.000000 0.000000 0.000000 0.000000 0.049364
#
#
# Mechanical properties :
#
#
# Convention : Reuss Voigt Hill
#
# Bulk Modulus (GPa) = 42.66896 59.13000 50.89948
# Shear Modulus (GPa) = 17.03576 21.27540 19.15558
#
# Velocity S-wave (km/s) = 3.08478 3.44733 3.27108
# Velocity P-wave (km/s) = 6.04334 6.99102 6.53438
#
# Compressibility (1/GPa) = 0.02343624
#
# Stress axis : x y z
#
# Youngs Moduli (GPa) = 39.49593 73.46192 87.15733
#
# Poissons Ratio (x) = 0.24430 0.36218
# Poissons Ratio (y) = 0.13134 0.52325
# Poissons Ratio (z) = 0.16412 0.44103
#
# Static dielectric constant tensor:
#      x y z
#    x 3.281670 0.000000 0.000000 
#    y 0.000000 3.315000 0.000000 
#    z 0.000000 0.000000 3.476420 
# 
# 
# High freq. dielectric constant tensor:
#      x y z
#    x 1.668800 0.000000 0.000000 
#    y 0.000000 1.690800 0.000000 
#    z 0.000000 0.000000 1.677840 
# 
# From -- ./inp_files/57987.got.cif
#   From: 2010.06.25/outbox.cif.g09.slc.cpg/sg71_29_cif.got.tgz:57987.got - 2010.06.28 04:59:45.
