data_PCOD8287867
_publ_section_title
;
Structure prediction by ZEFSAII (Michael W. Deem and Ramdas Pophale) SiO2 
 PCOD8287867
Probable space group: I M M M
;
_chemical_formula_sum "Si O2"
_cell_formula_units_Z 60
_cell_length_a 17.638387
_cell_length_b 13.160766
_cell_length_c 14.388854
_cell_angle_alpha 90.000000
_cell_angle_beta 90.000000
_cell_angle_gamma 90.000000
_cell_volume 3340.152075
_symmetry_space_group_name_H-M "I M M M"
_symmetry_group_IT_number 71
_symmetry_cell_setting 'orthorhombic'
loop_
_space_group_symop_operation_xyz
x,y,z
-x,-y,z
x,-y,-z
-x,y,-z
-x,-y,-z
x,y,-z
-x,y,z
x,-y,z
1/2+x,1/2+y,1/2+z
1/2-x,1/2-y,1/2+z
1/2+x,1/2-y,1/2-z
1/2-x,1/2+y,1/2-z
1/2-x,1/2-y,1/2-z
1/2+x,1/2+y,1/2-z
1/2-x,1/2+y,1/2+z
1/2+x,1/2-y,1/2+z
loop_
_atom_site_type_symbol
_atom_site_label
_atom_site_fract_x
_atom_site_fract_y
_atom_site_fract_z
Si Si1 0.000000 0.111257 0.790743
Si Si2 0.357032 0.306251 0.808015
Si Si3 0.915438 0.119329 0.500000
Si Si4 0.735918 0.115667 0.177849
Si Si5 0.335889 0.620728 0.500000
Si Si6 0.500000 0.641799 0.500000
O O1 0.927735 0.176150 0.759975
O O2 0.000000 0.085652 0.900358
O O3 0.000000 0.000000 0.740540
O O4 0.370885 0.343720 0.910921
O O5 0.338126 0.186290 0.813241
O O6 0.286036 0.370327 0.770006
O O7 0.000000 0.166366 0.500000
O O8 0.920152 0.000000 0.500000
O O9 0.786496 0.148613 0.089655
O O10 0.707803 0.000000 0.168620
O O11 0.358513 0.500000 0.500000
O O12 0.414194 0.690184 0.500000
#
# Coordination Sequence:
#
# PCOD8287867 Si02
#       6
#     8  16   8  16   8   4
#     4  12  21  35  57  84 110 134 173 231 277 322
#     4  11  22  35  56  81 109 145 186 219 274 326
#     4  11  21  34  54  80 111 141 175 225 270 318
#     4  10  21  37  55  79 112 145 181 225 270 325
#     4  10  18  31  54  81 108 138 170 220 276 319
#     4  12  21  30  56  88 111 134 169 220 284 320
#
# _framework density 17.963253000000002
#
# number of rings (size 3 to 8) (size 9 to 14) (size 15 to 20)
#    0.000    1.200    4.000    4.400    0.000    0.000 
#    0.000    0.667    0.000    0.800    0.000    0.933 
#    0.000    0.000    0.000    0.000    0.000    0.000 
#
# Total GULP energy -371701.404670 kJ/mol
# GULP energy per Si atom -12390.046822 kJ/mol
# Density = 1.792237 g / cm^3
# Si number density = 17.963253 Si / 1000 Ang^3
#
#
#
# Elastic Constant Matrix: (Units=GPa)
#
#
# Indices 1 2 3 4 5 6 
#
# 1 110.3092 64.1612 49.3562 0.0000 0.0000 0.0000
# 2 64.1612 97.9873 39.1073 0.0000 0.0000 0.0000
# 3 49.3562 39.1073 138.7793 0.0000 0.0000 0.0000
# 4 0.0000 0.0000 0.0000 8.4226 0.0000 0.0000
# 5 0.0000 0.0000 0.0000 0.0000 40.2884 0.0000
# 6 0.0000 0.0000 0.0000 0.0000 0.0000 15.8844
#
#
#
# Elastic Compliance Matrix: (Units=1/GPa)
#
#
# Indices 1 2 3 4 5 6 
#
# 1 0.015694 -0.009069 -0.003026 0.000000 0.000000 0.000000
# 2 -0.009069 0.016739 -0.001492 0.000000 0.000000 0.000000
# 3 -0.003026 -0.001492 0.008702 0.000000 0.000000 0.000000
# 4 0.000000 0.000000 0.000000 0.118729 0.000000 0.000000
# 5 0.000000 0.000000 0.000000 0.000000 0.024821 0.000000
# 6 0.000000 0.000000 0.000000 0.000000 0.000000 0.062955
#
#
# Mechanical properties :
#
#
# Convention : Reuss Voigt Hill
#
# Bulk Modulus (GPa) = 71.62090 72.48058 72.05074
# Shear Modulus (GPa) = 17.89121 25.88248 21.88684
#
# Velocity S-wave (km/s) = 3.15935 3.79998 3.49438
# Velocity P-wave (km/s) = 7.29836 7.72594 7.51519
#
# Compressibility (1/GPa) = 0.01396240
#
# Stress axis : x y z
#
# Youngs Moduli (GPa) = 63.71783 59.74120 114.91306
#
# Poissons Ratio (x) = 0.54178 0.34773
# Poissons Ratio (y) = 0.57784 0.17141
# Poissons Ratio (z) = 0.19281 0.08912
#
# Static dielectric constant tensor:
#      x y z
#    x 3.490740 0.000000 0.000000 
#    y 0.000000 3.109490 0.000000 
#    z 0.000000 0.000000 3.566080 
# 
# 
# High freq. dielectric constant tensor:
#      x y z
#    x 1.694880 0.000000 0.000000 
#    y 0.000000 1.656330 0.000000 
#    z 0.000000 0.000000 1.721050 
# 
# From -- ./inp_files/33804.got.cif
#   From: 2010.06.25/outbox.cif.g09.slc.cpg/sg71_17_cif.got.tgz:33804.got - 2010.06.28 04:59:45.
