data_PCOD8287493
_publ_section_title
;
Structure prediction by ZEFSAII (Michael W. Deem and Ramdas Pophale) SiO2 
 PCOD8287493
Probable space group: I M M M
;
_chemical_formula_sum "Si O2"
_cell_formula_units_Z 120
_cell_length_a 20.649969
_cell_length_b 14.797073
_cell_length_c 23.964751
_cell_angle_alpha 90.000000
_cell_angle_beta 90.000000
_cell_angle_gamma 90.000000
_cell_volume 7322.647717
_symmetry_space_group_name_H-M "I M M M"
_symmetry_group_IT_number 71
_symmetry_cell_setting 'orthorhombic'
loop_
_space_group_symop_operation_xyz
x,y,z
-x,-y,z
x,-y,-z
-x,y,-z
-x,-y,-z
x,y,-z
-x,y,z
x,-y,z
1/2+x,1/2+y,1/2+z
1/2-x,1/2-y,1/2+z
1/2+x,1/2-y,1/2-z
1/2-x,1/2+y,1/2-z
1/2-x,1/2-y,1/2-z
1/2+x,1/2+y,1/2-z
1/2-x,1/2+y,1/2+z
1/2+x,1/2-y,1/2+z
loop_
_atom_site_type_symbol
_atom_site_label
_atom_site_fract_x
_atom_site_fract_y
_atom_site_fract_z
Si Si1 0.812272 0.273861 0.937009
Si Si2 0.427993 0.727119 0.935441
Si Si3 0.308478 0.396357 0.933784
Si Si4 0.424104 0.000000 0.438357
Si Si5 0.888705 0.603793 0.369238
Si Si6 0.075393 0.326357 0.869434
Si Si7 0.925702 0.601696 0.751266
Si Si8 0.234498 0.598156 0.560865
O O1 0.756798 0.343492 0.914495
O O2 0.874073 0.257936 0.896556
O O3 0.788479 0.172409 0.935552
O O4 0.832889 0.301818 0.000000
O O5 0.500000 0.683422 0.928550
O O6 0.372730 0.657932 0.912374
O O7 0.430395 0.822156 0.902238
O O8 0.413530 0.748926 0.000000
O O9 0.308473 0.500000 0.910485
O O10 0.310815 0.398522 0.000000
O O11 0.402185 0.084834 0.402729
O O12 0.500000 0.000000 0.445979
O O13 0.390954 0.000000 0.500000
O O14 0.915300 0.500000 0.377360
O O15 0.885486 0.628708 0.303489
O O16 0.816102 0.612593 0.390158
O O17 0.089678 0.333974 0.803597
O O18 0.000000 0.301699 0.880267
O O19 0.910403 0.500000 0.771110
O O20 0.000000 0.610776 0.733585
O O21 0.199383 0.605194 0.500000
O O22 0.267735 0.500000 0.567385
#
# Coordination Sequence:
#
# PCOD8287493 Si02
#       8
#    16  16  16   8  16  16  16  16
#     4  10  19  31  50  74  98 125 158 195 240 295
#     4  10  19  30  45  67  95 124 159 205 248 287
#     4   9  18  31  45  64  93 127 161 193 231 286
#     4   9  16  26  42  66  96 124 148 182 232 288
#     4  10  18  29  48  71  95 125 161 199 243 292
#     4  10  19  31  46  68  98 128 159 196 239 291
#     4   9  17  30  45  64  95 133 165 193 233 290
#     4   9  17  31  51  72  97 129 160 197 246 294
#
# _framework density 16.387516000000002
#
# number of rings (size 3 to 8) (size 9 to 14) (size 15 to 20)
#    0.000    2.467    2.000    1.200    0.933    2.667 
#    0.000    2.667    0.000    0.400    0.000    1.867 
#    0.000    1.067    0.000    0.000    0.000    0.000 
#
# Total GULP energy -743298.687182 kJ/mol
# GULP energy per Si atom -12388.311453 kJ/mol
# Density = 1.635022 g / cm^3
# Si number density = 16.387516 Si / 1000 Ang^3
#
#
#
# Elastic Constant Matrix: (Units=GPa)
#
#
# Indices 1 2 3 4 5 6 
#
# 1 93.2296 38.3766 48.3645 0.0000 0.0000 0.0000
# 2 38.3766 76.4852 30.2055 0.0000 0.0000 0.0000
# 3 48.3645 30.2055 94.7981 0.0000 0.0000 0.0000
# 4 0.0000 0.0000 0.0000 14.9588 0.0000 0.0000
# 5 0.0000 0.0000 0.0000 0.0000 16.5558 0.0000
# 6 0.0000 0.0000 0.0000 0.0000 0.0000 13.6954
#
#
#
# Elastic Compliance Matrix: (Units=1/GPa)
#
#
# Indices 1 2 3 4 5 6 
#
# 1 0.016484 -0.005662 -0.006606 0.000000 0.000000 0.000000
# 2 -0.005662 0.016901 -0.002497 0.000000 0.000000 0.000000
# 3 -0.006606 -0.002497 0.014714 0.000000 0.000000 0.000000
# 4 0.000000 0.000000 0.000000 0.066850 0.000000 0.000000
# 5 0.000000 0.000000 0.000000 0.000000 0.060402 0.000000
# 6 0.000000 0.000000 0.000000 0.000000 0.000000 0.073017
#
#
# Mechanical properties :
#
#
# Convention : Reuss Voigt Hill
#
# Bulk Modulus (GPa) = 53.84790 55.37845 54.61318
# Shear Modulus (GPa) = 17.60026 18.87978 18.24002
#
# Velocity S-wave (km/s) = 3.28076 3.39792 3.33985
# Velocity P-wave (km/s) = 6.87616 7.01861 6.94775
#
# Compressibility (1/GPa) = 0.01857082
#
# Stress axis : x y z
#
# Youngs Moduli (GPa) = 60.66606 59.16709 67.96111
#
# Poissons Ratio (x) = 0.33501 0.44893
# Poissons Ratio (y) = 0.34349 0.16967
# Poissons Ratio (z) = 0.40074 0.14771
#
# Static dielectric constant tensor:
#      x y z
#    x 2.959650 0.000000 0.000000 
#    y 0.000000 3.179240 0.000000 
#    z 0.000000 0.000000 3.064810 
# 
# 
# High freq. dielectric constant tensor:
#      x y z
#    x 1.617810 0.000000 0.000000 
#    y 0.000000 1.614610 0.000000 
#    z 0.000000 0.000000 1.611910 
# 
# From -- ./inp_files/61425.got.cif
#   From: 2010.06.25/outbox.cif.g09.slc.cpg/sg71_31_cif.got.tgz:61425.got - 2010.06.28 04:59:45.
