data_PCOD8287646
_publ_section_title
;
Structure prediction by ZEFSAII (Michael W. Deem and Ramdas Pophale) SiO2 
 PCOD8287646
Probable space group: I M M M
;
_chemical_formula_sum "Si O2"
_cell_formula_units_Z 96
_cell_length_a 22.633281
_cell_length_b 20.766038
_cell_length_c 12.542759
_cell_angle_alpha 90.000000
_cell_angle_beta 90.000000
_cell_angle_gamma 90.000000
_cell_volume 5895.141549
_symmetry_space_group_name_H-M "I M M M"
_symmetry_group_IT_number 71
_symmetry_cell_setting 'orthorhombic'
loop_
_space_group_symop_operation_xyz
x,y,z
-x,-y,z
x,-y,-z
-x,y,-z
-x,-y,-z
x,y,-z
-x,y,z
x,-y,z
1/2+x,1/2+y,1/2+z
1/2-x,1/2-y,1/2+z
1/2+x,1/2-y,1/2-z
1/2-x,1/2+y,1/2-z
1/2-x,1/2-y,1/2-z
1/2+x,1/2+y,1/2-z
1/2-x,1/2+y,1/2+z
1/2+x,1/2-y,1/2+z
loop_
_atom_site_type_symbol
_atom_site_label
_atom_site_fract_x
_atom_site_fract_y
_atom_site_fract_z
Si Si1 0.385202 0.354450 0.623703
Si Si2 0.142068 0.380913 0.376699
Si Si3 0.731492 0.576781 0.300424
Si Si4 0.066428 0.500000 0.373188
Si Si5 0.000000 0.928703 0.126663
Si Si6 0.757712 0.824953 0.375339
Si Si7 0.656386 0.237811 0.253900
O O1 0.392543 0.337860 0.500000
O O2 0.325529 0.395431 0.638981
O O3 0.441033 0.393872 0.667948
O O4 0.387050 0.287998 0.689580
O O5 0.129056 0.367449 0.500000
O O6 0.210972 0.399102 0.364036
O O7 0.101202 0.437775 0.330982
O O8 0.122451 0.318327 0.309491
O O9 0.728409 0.500000 0.295942
O O10 0.733540 0.605807 0.181312
O O11 0.066335 0.500000 0.500000
O O12 0.000000 0.500000 0.327196
O O13 0.000000 0.000000 0.176091
O O14 0.000000 0.932049 0.000000
O O15 0.764338 0.836389 0.500000
O O16 0.694478 0.794680 0.347776
O O17 0.805362 0.773880 0.335188
#
# Coordination Sequence:
#
# PCOD8287646 Si02
#       7
#    16  16  16   8   8  16  16
#     4  10  19  31  48  69  96 125 155 193 235 278
#     4  10  18  30  49  71  98 123 151 195 238 278
#     4  10  19  29  46  73  96 120 160 194 233 283
#     4   9  18  32  48  68  95 126 154 186 236 282
#     4   9  18  32  48  68  95 126 155 188 235 280
#     4   9  17  29  44  65  99 129 150 189 240 281
#     4   9  18  29  45  70  93 122 161 190 228 282
#
# _framework density 16.284597000000002
#
# number of rings (size 3 to 8) (size 9 to 14) (size 15 to 20)
#    0.000    2.500    0.833    3.000    0.000    2.000 
#    1.500    0.000    0.000    0.000    0.000    5.250 
#    0.000   38.667    0.000    0.000    0.000    0.000 
#
# Total GULP energy -595105.990670 kJ/mol
# GULP energy per Si atom -12398.041472 kJ/mol
# Density = 1.624753 g / cm^3
# Si number density = 16.284597 Si / 1000 Ang^3
#
#
#
# Elastic Constant Matrix: (Units=GPa)
#
#
# Indices 1 2 3 4 5 6 
#
# 1 100.5572 47.9704 17.4762 0.0000 0.0000 0.0000
# 2 47.9704 148.3353 40.1423 0.0000 0.0000 0.0000
# 3 17.4762 40.1423 79.5603 0.0000 0.0000 0.0000
# 4 0.0000 0.0000 0.0000 25.2370 0.0000 0.0000
# 5 0.0000 0.0000 0.0000 0.0000 10.2821 0.0000
# 6 0.0000 0.0000 0.0000 0.0000 0.0000 24.7005
#
#
#
# Elastic Compliance Matrix: (Units=1/GPa)
#
#
# Indices 1 2 3 4 5 6 
#
# 1 0.011799 -0.003607 -0.000772 0.000000 0.000000 0.000000
# 2 -0.003607 0.008910 -0.003703 0.000000 0.000000 0.000000
# 3 -0.000772 -0.003703 0.014607 0.000000 0.000000 0.000000
# 4 0.000000 0.000000 0.000000 0.039624 0.000000 0.000000
# 5 0.000000 0.000000 0.000000 0.000000 0.097257 0.000000
# 6 0.000000 0.000000 0.000000 0.000000 0.000000 0.040485
#
#
# Mechanical properties :
#
#
# Convention : Reuss Voigt Hill
#
# Bulk Modulus (GPa) = 52.21314 59.95896 56.08605
# Shear Modulus (GPa) = 21.25566 26.90150 24.07858
#
# Velocity S-wave (km/s) = 3.61676 4.06884 3.84944
# Velocity P-wave (km/s) = 7.04086 7.67941 7.36706
#
# Compressibility (1/GPa) = 0.01915227
#
# Stress axis : x y z
#
# Youngs Moduli (GPa) = 84.74993 112.23189 68.45947
#
# Poissons Ratio (x) = 0.40481 0.05285
# Poissons Ratio (y) = 0.30569 0.25353
# Poissons Ratio (z) = 0.06543 0.41563
#
# Static dielectric constant tensor:
#      x y z
#    x 3.010100 0.000000 0.000000 
#    y 0.000000 3.287920 0.000000 
#    z 0.000000 0.000000 2.823140 
# 
# 
# High freq. dielectric constant tensor:
#      x y z
#    x 1.609020 0.000000 0.000000 
#    y 0.000000 1.640690 0.000000 
#    z 0.000000 0.000000 1.603370 
# 
# From -- ./inp_files/25997.got.cif
#   From: 2010.06.25/outbox.cif.g09.slc.cpg/sg71_13_cif.got.tgz:25997.got - 2010.06.28 04:59:45.
