data_PCOD8287897
_publ_section_title
;
Structure prediction by ZEFSAII (Michael W. Deem and Ramdas Pophale) SiO2 
 PCOD8287897
Probable space group: I M M M
;
_chemical_formula_sum "Si O2"
_cell_formula_units_Z 104
_cell_length_a 20.380378
_cell_length_b 17.355266
_cell_length_c 18.083450
_cell_angle_alpha 90.000000
_cell_angle_beta 90.000000
_cell_angle_gamma 90.000000
_cell_volume 6396.240704
_symmetry_space_group_name_H-M "I M M M"
_symmetry_group_IT_number 71
_symmetry_cell_setting 'orthorhombic'
loop_
_space_group_symop_operation_xyz
x,y,z
-x,-y,z
x,-y,-z
-x,y,-z
-x,-y,-z
x,y,-z
-x,y,z
x,-y,z
1/2+x,1/2+y,1/2+z
1/2-x,1/2-y,1/2+z
1/2+x,1/2-y,1/2-z
1/2-x,1/2+y,1/2-z
1/2-x,1/2-y,1/2-z
1/2+x,1/2+y,1/2-z
1/2-x,1/2+y,1/2+z
1/2+x,1/2-y,1/2+z
loop_
_atom_site_type_symbol
_atom_site_label
_atom_site_fract_x
_atom_site_fract_y
_atom_site_fract_z
Si Si1 0.178447 0.778433 0.915613
Si Si2 0.307035 0.687599 0.084896
Si Si3 0.149591 0.912887 0.713802
Si Si4 0.923768 0.778382 0.787210
Si Si5 0.620014 0.825303 0.156590
Si Si6 0.000000 0.586883 0.587364
Si Si7 0.250740 0.413088 0.656855
O O1 0.232125 0.712460 0.897899
O O2 0.116135 0.767676 0.862998
O O3 0.212480 0.861420 0.904009
O O4 0.154104 0.773235 0.000000
O O5 0.326898 0.613790 0.133043
O O6 0.355547 0.757519 0.103366
O O7 0.315963 0.664270 0.000000
O O8 0.092423 0.859043 0.746730
O O9 0.212911 0.906667 0.765248
O O10 0.122448 0.000000 0.709039
O O11 0.905699 0.707719 0.734119
O O12 0.000000 0.777290 0.807555
O O13 0.563555 0.869494 0.114821
O O14 0.677516 0.885369 0.172916
O O15 0.000000 0.500000 0.618712
O O16 0.000000 0.586356 0.500000
O O17 0.250173 0.500000 0.626136
#
# Coordination Sequence:
#
# PCOD8287897 Si02
#       7
#    16  16  16  16  16   8  16
#     4   9  18  31  48  73 100 122 155 199 241 288
#     4   9  17  30  49  70  93 122 152 194 247 286
#     4   9  18  31  48  70  93 119 158 203 240 281
#     4  10  19  32  50  69  93 131 166 197 235 277
#     4  10  18  32  48  68  93 127 162 195 226 283
#     4  11  22  32  44  68 100 128 154 189 232 280
#     4   9  17  30  49  70  94 124 155 192 240 287
#
# _framework density 16.259550999999998
#
# number of rings (size 3 to 8) (size 9 to 14) (size 15 to 20)
#    0.000    2.538    0.769    1.846    0.000    5.538 
#    0.000    0.000    0.000    0.000    0.000    6.462 
#    0.000    0.615    0.000    0.000    0.000    0.000 
#
# Total GULP energy -644818.764983 kJ/mol
# GULP energy per Si atom -12400.360865 kJ/mol
# Density = 1.622254 g / cm^3
# Si number density = 16.259551 Si / 1000 Ang^3
#
#
#
# Elastic Constant Matrix: (Units=GPa)
#
#
# Indices 1 2 3 4 5 6 
#
# 1 113.5503 25.0015 44.7952 0.0000 0.0000 0.0000
# 2 25.0015 49.5090 29.9392 0.0000 0.0000 0.0000
# 3 44.7952 29.9392 100.8880 0.0000 0.0000 0.0000
# 4 0.0000 0.0000 0.0000 20.0829 0.0000 0.0000
# 5 0.0000 0.0000 0.0000 0.0000 22.4437 0.0000
# 6 0.0000 0.0000 0.0000 0.0000 0.0000 22.8673
#
#
#
# Elastic Compliance Matrix: (Units=1/GPa)
#
#
# Indices 1 2 3 4 5 6 
#
# 1 0.011076 -0.003192 -0.003970 0.000000 0.000000 0.000000
# 2 -0.003192 0.025536 -0.006161 0.000000 0.000000 0.000000
# 3 -0.003970 -0.006161 0.013503 0.000000 0.000000 0.000000
# 4 0.000000 0.000000 0.000000 0.049794 0.000000 0.000000
# 5 0.000000 0.000000 0.000000 0.000000 0.044556 0.000000
# 6 0.000000 0.000000 0.000000 0.000000 0.000000 0.043731
#
#
# Mechanical properties :
#
#
# Convention : Reuss Voigt Hill
#
# Bulk Modulus (GPa) = 42.61060 51.49101 47.05081
# Shear Modulus (GPa) = 22.45533 24.02619 23.24076
#
# Velocity S-wave (km/s) = 3.72029 3.84821 3.78479
# Velocity P-wave (km/s) = 6.68711 7.17509 6.93539
#
# Compressibility (1/GPa) = 0.02346834
#
# Stress axis : x y z
#
# Youngs Moduli (GPa) = 90.28635 39.16071 74.05706
#
# Poissons Ratio (x) = 0.12501 0.29404
# Poissons Ratio (y) = 0.28821 0.45623
# Poissons Ratio (z) = 0.35848 0.24125
#
# Static dielectric constant tensor:
#      x y z
#    x 3.043490 0.000000 0.000000 
#    y 0.000000 3.162250 0.000000 
#    z 0.000000 0.000000 3.026590 
# 
# 
# High freq. dielectric constant tensor:
#      x y z
#    x 1.621770 0.000000 0.000000 
#    y 0.000000 1.621620 0.000000 
#    z 0.000000 0.000000 1.624450 
# 
# From -- ./inp_files/46116.got.cif
#   From: 2010.06.25/outbox.cif.g09.slc.cpg/sg71_24_cif.got.tgz:46116.got - 2010.06.28 04:59:45.
