data_PCOD8287873
_publ_section_title
;
Structure prediction by ZEFSAII (Michael W. Deem and Ramdas Pophale) SiO2 
 PCOD8287873
Probable space group: I M M M
;
_chemical_formula_sum "Si O2"
_cell_formula_units_Z 96
_cell_length_a 10.822513
_cell_length_b 17.642451
_cell_length_c 25.215932
_cell_angle_alpha 90.000000
_cell_angle_beta 90.000000
_cell_angle_gamma 90.000000
_cell_volume 4814.620500
_symmetry_space_group_name_H-M "I M M M"
_symmetry_group_IT_number 71
_symmetry_cell_setting 'orthorhombic'
loop_
_space_group_symop_operation_xyz
x,y,z
-x,-y,z
x,-y,-z
-x,y,-z
-x,-y,-z
x,y,-z
-x,y,z
x,-y,z
1/2+x,1/2+y,1/2+z
1/2-x,1/2-y,1/2+z
1/2+x,1/2-y,1/2-z
1/2-x,1/2+y,1/2-z
1/2-x,1/2-y,1/2-z
1/2+x,1/2+y,1/2-z
1/2-x,1/2+y,1/2+z
1/2+x,1/2-y,1/2+z
loop_
_atom_site_type_symbol
_atom_site_label
_atom_site_fract_x
_atom_site_fract_y
_atom_site_fract_z
Si Si1 0.140953 0.188477 0.748579
Si Si2 0.500000 0.915065 0.858011
Si Si3 0.500000 0.215458 0.060388
Si Si4 0.735920 0.314166 0.939644
Si Si5 0.857558 0.086206 0.353153
Si Si6 0.268199 0.412966 0.338940
Si Si7 0.140852 0.834481 0.940158
O O1 0.250000 0.250000 0.750000
O O2 0.167148 0.135754 0.698525
O O3 0.146687 0.137464 0.801192
O O4 0.000000 0.222569 0.745713
O O5 0.500000 0.861015 0.907669
O O6 0.623629 0.902662 0.822726
O O7 0.500000 0.000000 0.881175
O O8 0.382679 0.264844 0.075409
O O9 0.500000 0.190879 0.000000
O O10 0.733883 0.385652 0.900126
O O11 0.849369 0.256441 0.929211
O O12 0.734215 0.344836 0.000000
O O13 0.000000 0.091588 0.371694
O O14 0.821300 0.000000 0.339855
O O15 0.310893 0.500000 0.334328
O O16 0.281183 0.385052 0.399595
O O17 0.000000 0.859037 0.934701
O O18 0.190971 0.850159 0.000000
#
# Coordination Sequence:
#
# PCOD8287873 Si02
#       7
#    16   8   8  16  16  16  16
#     4  11  25  41  65  90 113 152 198 245 296 350
#     4  10  22  35  56  85 119 160 191 237 297 351
#     4  10  18  31  55  82 112 149 191 235 281 341
#     4  10  19  33  56  84 114 148 186 234 286 340
#     4  10  21  37  57  85 119 149 185 235 292 352
#     4  11  23  39  59  84 118 154 193 238 293 354
#     4  10  21  36  56  82 113 154 200 243 286 339
#
# _framework density 19.939267000000001
#
# number of rings (size 3 to 8) (size 9 to 14) (size 15 to 20)
#    0.000    1.667    2.500    2.000    1.167    2.833 
#    0.000    3.333    0.000    1.500    0.000    2.333 
#    0.000    0.000    0.000    0.000    0.000    0.000 
#
# Total GULP energy -595055.341934 kJ/mol
# GULP energy per Si atom -12396.986290 kJ/mol
# Density = 1.989388 g / cm^3
# Si number density = 19.939267 Si / 1000 Ang^3
#
#
#
# Elastic Constant Matrix: (Units=GPa)
#
#
# Indices 1 2 3 4 5 6 
#
# 1 85.6005 35.9445 25.6858 0.0000 0.0000 0.0000
# 2 35.9445 110.1422 50.4921 0.0000 0.0000 0.0000
# 3 25.6858 50.4921 98.1797 0.0000 0.0000 0.0000
# 4 0.0000 0.0000 0.0000 18.2088 0.0000 0.0000
# 5 0.0000 0.0000 0.0000 0.0000 20.2567 0.0000
# 6 0.0000 0.0000 0.0000 0.0000 0.0000 29.8130
#
#
#
# Elastic Compliance Matrix: (Units=1/GPa)
#
#
# Indices 1 2 3 4 5 6 
#
# 1 0.013748 -0.003713 -0.001687 0.000000 0.000000 0.000000
# 2 -0.003713 0.012883 -0.005654 0.000000 0.000000 0.000000
# 3 -0.001687 -0.005654 0.013535 0.000000 0.000000 0.000000
# 4 0.000000 0.000000 0.000000 0.054918 0.000000 0.000000
# 5 0.000000 0.000000 0.000000 0.000000 0.049366 0.000000
# 6 0.000000 0.000000 0.000000 0.000000 0.000000 0.033542
#
#
# Mechanical properties :
#
#
# Convention : Reuss Voigt Hill
#
# Bulk Modulus (GPa) = 55.38128 57.57415 56.47772
# Shear Modulus (GPa) = 24.25778 25.77570 25.01674
#
# Velocity S-wave (km/s) = 3.49174 3.59933 3.54594
# Velocity P-wave (km/s) = 6.64015 6.79787 6.71947
#
# Compressibility (1/GPa) = 0.01805664
#
# Stress axis : x y z
#
# Youngs Moduli (GPa) = 72.74018 77.62251 73.88511
#
# Poissons Ratio (x) = 0.28822 0.12465
# Poissons Ratio (y) = 0.27009 0.41775
# Poissons Ratio (z) = 0.12272 0.43888
#
# Static dielectric constant tensor:
#      x y z
#    x 3.692460 0.000000 0.000000 
#    y 0.000000 3.596780 0.000000 
#    z 0.000000 0.000000 3.582150 
# 
# 
# High freq. dielectric constant tensor:
#      x y z
#    x 1.773370 0.000000 0.000000 
#    y 0.000000 1.768620 0.000000 
#    z 0.000000 0.000000 1.775260 
# 
# From -- ./inp_files/43597.got.cif
#   From: 2010.06.25/outbox.cif.g09.slc.cpg/sg71_22_cif.got.tgz:43597.got - 2010.06.28 04:59:45.
