data_PCOD8287634
_publ_section_title
;
Structure prediction by ZEFSAII (Michael W. Deem and Ramdas Pophale) SiO2 
 PCOD8287634
Probable space group: I M M M
;
_chemical_formula_sum "Si O2"
_cell_formula_units_Z 104
_cell_length_a 28.952437
_cell_length_b 24.579405
_cell_length_c 7.636385
_cell_angle_alpha 90.000000
_cell_angle_beta 90.000000
_cell_angle_gamma 90.000000
_cell_volume 5434.308719
_symmetry_space_group_name_H-M "I M M M"
_symmetry_group_IT_number 71
_symmetry_cell_setting 'orthorhombic'
loop_
_space_group_symop_operation_xyz
x,y,z
-x,-y,z
x,-y,-z
-x,y,-z
-x,-y,-z
x,y,-z
-x,y,z
x,-y,z
1/2+x,1/2+y,1/2+z
1/2-x,1/2-y,1/2+z
1/2+x,1/2-y,1/2-z
1/2-x,1/2+y,1/2-z
1/2-x,1/2-y,1/2-z
1/2+x,1/2+y,1/2-z
1/2-x,1/2+y,1/2+z
1/2+x,1/2-y,1/2+z
loop_
_atom_site_type_symbol
_atom_site_label
_atom_site_fract_x
_atom_site_fract_y
_atom_site_fract_z
Si Si1 0.550874 0.745738 0.706080
Si Si2 0.602389 0.365248 0.707336
Si Si3 0.945331 0.935386 0.500000
Si Si4 0.448445 0.938965 0.793586
Si Si5 0.792807 0.309189 0.207395
Si Si6 0.888612 0.658360 0.198379
Si Si7 0.694742 0.312115 0.301949
O O1 0.546839 0.754420 0.500000
O O2 0.500000 0.746916 0.791397
O O3 0.574019 0.688831 0.750543
O O4 0.580170 0.795431 0.791897
O O5 0.599656 0.381315 0.500000
O O6 0.579799 0.412687 0.824681
O O7 0.655156 0.352461 0.773948
O O8 0.000000 0.920368 0.500000
O O9 0.938636 0.000000 0.500000
O O10 0.500000 0.921982 0.733973
O O11 0.411351 0.900520 0.704465
O O12 0.437934 0.000000 0.730307
O O13 0.443980 0.934421 0.000000
O O14 0.836613 0.344395 0.275295
O O15 0.746398 0.336979 0.286041
O O16 0.802001 0.248131 0.284015
O O17 0.786215 0.308386 0.000000
O O18 0.882522 0.677686 0.000000
O O19 0.678792 0.303674 0.500000
#
# Coordination Sequence:
#
# PCOD8287634 Si02
#       7
#    16  16   8  16  16  16  16
#     4   9  16  28  48  74 108 146 176 213 273 335
#     4  10  20  38  62  85 116 155 190 230 286 345
#     4  11  26  44  62  90 120 148 195 247 288 346
#     4   9  19  35  50  65  93 136 182 224 266 313
#     4   9  17  29  47  76 114 146 174 217 275 329
#     4  10  18  30  48  75 107 136 174 223 272 325
#     4   9  17  31  51  78 109 145 185 218 263 333
#
# _framework density 19.137668999999999
#
# number of rings (size 3 to 8) (size 9 to 14) (size 15 to 20)
#    0.000    2.538    1.538    1.385    1.077    3.077 
#    1.385    1.538    0.000    0.923    0.000    0.000 
#    0.000    0.000    0.000    0.000    0.000    0.000 
#
# Total GULP energy -644309.563149 kJ/mol
# GULP energy per Si atom -12390.568522 kJ/mol
# Density = 1.909411 g / cm^3
# Si number density = 19.137669 Si / 1000 Ang^3
#
#
#
# Elastic Constant Matrix: (Units=GPa)
#
#
# Indices 1 2 3 4 5 6 
#
# 1 196.9842 70.9940 25.7188 0.0000 0.0000 0.0000
# 2 70.9940 89.9555 21.2356 0.0000 0.0000 0.0000
# 3 25.7188 21.2356 46.6664 0.0000 0.0000 0.0000
# 4 0.0000 0.0000 0.0000 17.3569 0.0000 0.0000
# 5 0.0000 0.0000 0.0000 0.0000 22.4826 0.0000
# 6 0.0000 0.0000 0.0000 0.0000 0.0000 26.4976
#
#
#
# Elastic Compliance Matrix: (Units=1/GPa)
#
#
# Indices 1 2 3 4 5 6 
#
# 1 0.007193 -0.005311 -0.001547 0.000000 0.000000 0.000000
# 2 -0.005311 0.016377 -0.004525 0.000000 0.000000 0.000000
# 3 -0.001547 -0.004525 0.024340 0.000000 0.000000 0.000000
# 4 0.000000 0.000000 0.000000 0.057614 0.000000 0.000000
# 5 0.000000 0.000000 0.000000 0.000000 0.044479 0.000000
# 6 0.000000 0.000000 0.000000 0.000000 0.000000 0.037739
#
#
# Mechanical properties :
#
#
# Convention : Reuss Voigt Hill
#
# Bulk Modulus (GPa) = 39.77277 63.27810 51.52544
# Shear Modulus (GPa) = 22.84254 27.64461 25.24357
#
# Velocity S-wave (km/s) = 3.45859 3.80480 3.63582
# Velocity P-wave (km/s) = 6.06438 7.24144 6.67889
#
# Compressibility (1/GPa) = 0.02514283
#
# Stress axis : x y z
#
# Youngs Moduli (GPa) = 139.02763 61.06252 41.08391
#
# Poissons Ratio (x) = 0.32433 0.06356
# Poissons Ratio (y) = 0.73844 0.18590
# Poissons Ratio (z) = 0.21509 0.27631
#
# Static dielectric constant tensor:
#      x y z
#    x 3.950990 0.000000 0.000000 
#    y 0.000000 3.260430 0.000000 
#    z 0.000000 0.000000 3.269750 
# 
# 
# High freq. dielectric constant tensor:
#      x y z
#    x 1.764240 0.000000 0.000000 
#    y 0.000000 1.699680 0.000000 
#    z 0.000000 0.000000 1.727700 
# 
# From -- ./inp_files/15257.got.cif
#   From: 2010.06.25/outbox.cif.g09.slc.cpg/sg71_8_cif.got.tgz:15257.got - 2010.06.28 04:59:45.
