data_PCOD8287592
_publ_section_title
;
Structure prediction by ZEFSAII (Michael W. Deem and Ramdas Pophale) SiO2 
 PCOD8287592
Probable space group: I M M M
;
_chemical_formula_sum "Si O2"
_cell_formula_units_Z 88
_cell_length_a 22.590791
_cell_length_b 16.828459
_cell_length_c 15.452354
_cell_angle_alpha 90.000000
_cell_angle_beta 90.000000
_cell_angle_gamma 90.000000
_cell_volume 5874.493608
_symmetry_space_group_name_H-M "I M M M"
_symmetry_group_IT_number 71
_symmetry_cell_setting 'orthorhombic'
loop_
_space_group_symop_operation_xyz
x,y,z
-x,-y,z
x,-y,-z
-x,y,-z
-x,-y,-z
x,y,-z
-x,y,z
x,-y,z
1/2+x,1/2+y,1/2+z
1/2-x,1/2-y,1/2+z
1/2+x,1/2-y,1/2-z
1/2-x,1/2+y,1/2-z
1/2-x,1/2-y,1/2-z
1/2+x,1/2+y,1/2-z
1/2-x,1/2+y,1/2+z
1/2+x,1/2-y,1/2+z
loop_
_atom_site_type_symbol
_atom_site_label
_atom_site_fract_x
_atom_site_fract_y
_atom_site_fract_z
Si Si1 0.126638 0.092858 0.326451
Si Si2 0.249897 0.090220 0.598217
Si Si3 0.070902 0.184346 0.167218
Si Si4 0.929994 0.911799 0.000000
Si Si5 0.126665 0.340638 0.898893
Si Si6 0.933690 0.094367 0.500000
Si Si7 0.933643 0.500000 0.102784
O O1 0.197194 0.106837 0.334049
O O2 0.098734 0.142785 0.249833
O O3 0.097900 0.126285 0.414172
O O4 0.111999 0.000000 0.311674
O O5 0.225775 0.099997 0.500000
O O6 0.302721 0.152404 0.615471
O O7 0.273842 0.000000 0.609444
O O8 0.091876 0.133878 0.084703
O O9 0.099135 0.271112 0.158575
O O10 0.000000 0.189798 0.175073
O O11 0.000000 0.917243 0.000000
O O12 0.902090 0.000000 0.000000
O O13 0.098011 0.421212 0.862522
O O14 0.111273 0.326695 0.000000
O O15 0.000000 0.127309 0.500000
O O16 0.931184 0.000000 0.500000
O O17 0.000000 0.500000 0.138383
O O18 0.930990 0.500000 0.000000
#
# Coordination Sequence:
#
# PCOD8287592 Si02
#       7
#    16  16  16   8  16   8   8
#     4  10  19  31  48  70  93 126 161 199 238 282
#     4   9  16  30  50  70  94 120 158 196 240 293
#     4  11  21  31  45  68  98 128 163 199 232 280
#     4   9  18  32  45  57  85 131 168 192 218 262
#     4  10  18  30  47  69  94 127 159 196 240 285
#     4   9  16  28  45  66  90 117 152 195 241 282
#     4   9  16  26  44  68  92 121 155 193 242 292
#
# _framework density 14.980014000000001
#
# number of rings (size 3 to 8) (size 9 to 14) (size 15 to 20)
#    0.000    2.273    2.727    1.636    0.000    3.273 
#    0.000    0.000    0.000    0.000    0.000    0.000 
#    0.000    0.727    0.000    3.636    0.000    0.000 
#
# Total GULP energy -545508.560662 kJ/mol
# GULP energy per Si atom -12397.921833 kJ/mol
# Density = 1.494592 g / cm^3
# Si number density = 14.980014 Si / 1000 Ang^3
#
#
#
# Elastic Constant Matrix: (Units=GPa)
#
#
# Indices 1 2 3 4 5 6 
#
# 1 86.5973 47.4434 45.6459 0.0000 0.0000 0.0000
# 2 47.4434 99.7205 52.5384 0.0000 0.0000 0.0000
# 3 45.6459 52.5384 95.6992 0.0000 0.0000 0.0000
# 4 0.0000 0.0000 0.0000 17.3625 0.0000 0.0000
# 5 0.0000 0.0000 0.0000 0.0000 18.8779 0.0000
# 6 0.0000 0.0000 0.0000 0.0000 0.0000 21.7601
#
#
#
# Elastic Compliance Matrix: (Units=1/GPa)
#
#
# Indices 1 2 3 4 5 6 
#
# 1 0.017314 -0.005468 -0.005256 0.000000 0.000000 0.000000
# 2 -0.005468 0.015836 -0.006086 0.000000 0.000000 0.000000
# 3 -0.005256 -0.006086 0.016298 0.000000 0.000000 0.000000
# 4 0.000000 0.000000 0.000000 0.057595 0.000000 0.000000
# 5 0.000000 0.000000 0.000000 0.000000 0.052972 0.000000
# 6 0.000000 0.000000 0.000000 0.000000 0.000000 0.045956
#
#
# Mechanical properties :
#
#
# Convention : Reuss Voigt Hill
#
# Bulk Modulus (GPa) = 63.18230 63.69693 63.43962
# Shear Modulus (GPa) = 20.41929 20.69273 20.55601
#
# Velocity S-wave (km/s) = 3.69603 3.72069 3.70838
# Velocity P-wave (km/s) = 7.77711 7.81483 7.79600
#
# Compressibility (1/GPa) = 0.01582722
#
# Stress axis : x y z
#
# Youngs Moduli (GPa) = 57.75629 63.14802 61.35877
#
# Poissons Ratio (x) = 0.34530 0.32253
# Poissons Ratio (y) = 0.31581 0.37341
# Poissons Ratio (z) = 0.30359 0.38430
#
# Static dielectric constant tensor:
#      x y z
#    x 2.920710 0.000000 0.000000 
#    y 0.000000 2.806170 0.000000 
#    z 0.000000 0.000000 2.701440 
# 
# 
# High freq. dielectric constant tensor:
#      x y z
#    x 1.578480 0.000000 0.000000 
#    y 0.000000 1.557680 0.000000 
#    z 0.000000 0.000000 1.546810 
# 
# From -- ./inp_files/34717.got.cif
#   From: 2010.06.25/outbox.cif.g09.slc.cpg/sg71_18_cif.got.tgz:34717.got - 2010.06.28 04:59:45.
