data_PCOD8287234
_publ_section_title
;
Structure prediction by ZEFSAII (Michael W. Deem and Ramdas Pophale) SiO2 
 PCOD8287234
Probable space group: I M M M
;
_chemical_formula_sum "Si O2"
_cell_formula_units_Z 96
_cell_length_a 22.899431
_cell_length_b 27.445402
_cell_length_c 9.201397
_cell_angle_alpha 90.000000
_cell_angle_beta 90.000000
_cell_angle_gamma 90.000000
_cell_volume 5782.931614
_symmetry_space_group_name_H-M "I M M M"
_symmetry_group_IT_number 71
_symmetry_cell_setting 'orthorhombic'
loop_
_space_group_symop_operation_xyz
x,y,z
-x,-y,z
x,-y,-z
-x,y,-z
-x,-y,-z
x,y,-z
-x,y,z
x,-y,z
1/2+x,1/2+y,1/2+z
1/2-x,1/2-y,1/2+z
1/2+x,1/2-y,1/2-z
1/2-x,1/2+y,1/2-z
1/2-x,1/2-y,1/2-z
1/2+x,1/2+y,1/2-z
1/2-x,1/2+y,1/2+z
1/2+x,1/2-y,1/2+z
loop_
_atom_site_type_symbol
_atom_site_label
_atom_site_fract_x
_atom_site_fract_y
_atom_site_fract_z
Si Si1 0.792714 0.150706 0.170203
Si Si2 0.811167 0.692345 0.834161
Si Si3 0.624891 0.110761 0.170416
Si Si4 0.500000 0.868082 0.170119
Si Si5 0.391353 0.282488 0.336466
Si Si6 0.735283 0.053079 0.171145
Si Si7 0.500000 0.242303 0.172426
O O1 0.750807 0.188328 0.254044
O O2 0.860634 0.165016 0.198204
O O3 0.779568 0.095327 0.226447
O O4 0.777087 0.154556 0.000000
O O5 0.858714 0.658867 0.756604
O O6 0.836416 0.746412 0.823334
O O7 0.803032 0.675634 0.000000
O O8 0.557286 0.100587 0.215052
O O9 0.668176 0.066698 0.213359
O O10 0.630569 0.122263 0.000000
O O11 0.500000 0.812949 0.236328
O O12 0.500000 0.859487 0.000000
O O13 0.417206 0.281616 0.500000
O O14 0.442916 0.271262 0.225654
O O15 0.749757 0.000000 0.241600
O O16 0.741112 0.048445 0.000000
O O17 0.500000 0.243563 0.000000
#
# Coordination Sequence:
#
# PCOD8287234 Si02
#       7
#    16  16  16   8  16  16   8
#     4   9  18  31  47  65  90 121 147 180 229 274
#     4  10  18  27  42  65  91 116 150 187 219 260
#     4   9  16  28  44  61  87 120 154 187 224 267
#     4   9  16  27  42  61  84 118 158 183 212 257
#     4  10  20  32  44  64  93 123 152 182 220 265
#     4   8  14  26  46  69  88 110 145 188 231 272
#     4  11  21  31  47  66  90 126 158 187 217 253
#
# _framework density 16.600576
#
# number of rings (size 3 to 8) (size 9 to 14) (size 15 to 20)
#    0.000    2.667    1.667    2.250    0.000    1.333 
#    0.000    0.833    0.000   10.500    0.000    0.583 
#    0.000   10.000    0.000    0.000    0.000    0.000 
#
# Total GULP energy -594699.014784 kJ/mol
# GULP energy per Si atom -12389.562808 kJ/mol
# Density = 1.656279 g / cm^3
# Si number density = 16.600576 Si / 1000 Ang^3
#
#
#
# Elastic Constant Matrix: (Units=GPa)
#
#
# Indices 1 2 3 4 5 6 
#
# 1 66.8656 40.2634 22.3909 0.0000 0.0000 0.0000
# 2 40.2634 84.6168 18.6226 0.0000 0.0000 0.0000
# 3 22.3909 18.6226 47.4410 0.0000 0.0000 0.0000
# 4 0.0000 0.0000 0.0000 11.1423 0.0000 0.0000
# 5 0.0000 0.0000 0.0000 0.0000 23.5053 0.0000
# 6 0.0000 0.0000 0.0000 0.0000 0.0000 12.7376
#
#
#
# Elastic Compliance Matrix: (Units=1/GPa)
#
#
# Indices 1 2 3 4 5 6 
#
# 1 0.022997 -0.009363 -0.007179 0.000000 0.000000 0.000000
# 2 -0.009363 0.016747 -0.002155 0.000000 0.000000 0.000000
# 3 -0.007179 -0.002155 0.025313 0.000000 0.000000 0.000000
# 4 0.000000 0.000000 0.000000 0.089748 0.000000 0.000000
# 5 0.000000 0.000000 0.000000 0.000000 0.042544 0.000000
# 6 0.000000 0.000000 0.000000 0.000000 0.000000 0.078508
#
#
# Mechanical properties :
#
#
# Convention : Reuss Voigt Hill
#
# Bulk Modulus (GPa) = 36.14776 40.16413 38.15594
# Shear Modulus (GPa) = 15.50524 17.32015 16.41269
#
# Velocity S-wave (km/s) = 3.05949 3.23359 3.14774
# Velocity P-wave (km/s) = 5.85687 6.17968 6.02044
#
# Compressibility (1/GPa) = 0.02766423
#
# Stress axis : x y z
#
# Youngs Moduli (GPa) = 43.48361 59.71069 39.50549
#
# Poissons Ratio (x) = 0.55906 0.28360
# Poissons Ratio (y) = 0.40713 0.08514
# Poissons Ratio (z) = 0.31216 0.12868
#
# Static dielectric constant tensor:
#      x y z
#    x 3.209120 0.000000 0.000000 
#    y 0.000000 3.228270 0.000000 
#    z 0.000000 0.000000 2.947070 
# 
# 
# High freq. dielectric constant tensor:
#      x y z
#    x 1.630700 0.000000 0.000000 
#    y 0.000000 1.615080 0.000000 
#    z 0.000000 0.000000 1.617070 
# 
# From -- ./inp_files/13179.got.cif
#   From: 2010.06.25/outbox.cif.g09.slc.cpg/sg71_7_cif.got.tgz:13179.got - 2010.06.28 04:59:45.
