data_PCOD8287583
_publ_section_title
;
Structure prediction by ZEFSAII (Michael W. Deem and Ramdas Pophale) SiO2 
 PCOD8287583
Probable space group: I M M M
;
_chemical_formula_sum "Si O2"
_cell_formula_units_Z 104
_cell_length_a 17.716179
_cell_length_b 27.764298
_cell_length_c 12.652400
_cell_angle_alpha 90.000000
_cell_angle_beta 90.000000
_cell_angle_gamma 90.000000
_cell_volume 6223.428011
_symmetry_space_group_name_H-M "I M M M"
_symmetry_group_IT_number 71
_symmetry_cell_setting 'orthorhombic'
loop_
_space_group_symop_operation_xyz
x,y,z
-x,-y,z
x,-y,-z
-x,y,-z
-x,-y,-z
x,y,-z
-x,y,z
x,-y,z
1/2+x,1/2+y,1/2+z
1/2-x,1/2-y,1/2+z
1/2+x,1/2-y,1/2-z
1/2-x,1/2+y,1/2-z
1/2-x,1/2-y,1/2-z
1/2+x,1/2+y,1/2-z
1/2-x,1/2+y,1/2+z
1/2+x,1/2-y,1/2+z
loop_
_atom_site_type_symbol
_atom_site_label
_atom_site_fract_x
_atom_site_fract_y
_atom_site_fract_z
Si Si1 0.316472 0.692180 0.817151
Si Si2 0.916192 0.651126 0.875621
Si Si3 0.724643 0.904069 0.687624
Si Si4 0.000000 0.447688 0.624567
Si Si5 0.327984 0.754087 0.378379
Si Si6 0.185875 0.945264 0.500000
Si Si7 0.089209 0.150434 0.500000
Si Si8 0.839294 0.443197 0.384245
O O1 0.271774 0.643670 0.798097
O O2 0.346428 0.710870 0.703423
O O3 0.260216 0.731120 0.869948
O O4 0.384822 0.680452 0.896880
O O5 0.861477 0.607561 0.843602
O O6 0.881302 0.702247 0.840773
O O7 0.000000 0.644201 0.825375
O O8 0.922657 0.651052 0.000000
O O9 0.761461 0.939362 0.602361
O O10 0.725270 0.929820 0.801232
O O11 0.921051 0.420393 0.652123
O O12 0.000000 0.500000 0.681805
O O13 0.000000 0.455749 0.500000
O O14 0.344269 0.738344 0.500000
O O15 0.121186 0.904368 0.500000
O O16 0.152404 0.000000 0.500000
O O17 0.000000 0.146487 0.500000
O O18 0.815470 0.423318 0.500000
O O19 0.849816 0.500000 0.389988
#
# Coordination Sequence:
#
# PCOD8287583 Si02
#       8
#    16  16  16   8  16   8   8  16
#     4   9  18  31  48  73  97 126 164 198 243 294
#     4   9  17  29  45  66  92 124 158 191 231 281
#     4  10  18  30  47  67  93 123 155 198 244 278
#     4   7  12  24  38  53  77 113 155 190 219 263
#     4   9  16  30  51  71  97 131 165 199 234 288
#     4  10  20  35  53  72  96 123 159 200 248 304
#     4  10  20  35  54  75 101 128 160 205 254 295
#     4   9  17  28  42  61  86 120 160 194 232 280
#
# _framework density 16.711048000000002
#
# number of rings (size 3 to 8) (size 9 to 14) (size 15 to 20)
#    0.000    2.846    1.538    1.385    1.077    1.385 
#    0.000    0.000    0.000    0.462    0.000    0.000 
#    0.000    0.000    0.000   16.308    0.000    0.000 
#
# Total GULP energy -644271.591351 kJ/mol
# GULP energy per Si atom -12389.838295 kJ/mol
# Density = 1.667301 g / cm^3
# Si number density = 16.711048 Si / 1000 Ang^3
#
#
#
# Elastic Constant Matrix: (Units=GPa)
#
#
# Indices 1 2 3 4 5 6 
#
# 1 91.0684 21.3384 37.9516 -0.0002 -0.0001 -0.0002
# 2 21.3384 54.6837 32.1274 -0.0002 0.0000 -0.0002
# 3 37.9516 32.1274 99.4795 -0.0005 0.0007 0.0000
# 4 -0.0002 -0.0002 -0.0005 23.9903 0.0002 0.0003
# 5 -0.0001 0.0000 0.0007 0.0002 18.1765 0.0002
# 6 -0.0002 -0.0002 0.0000 0.0003 0.0002 6.4224
#
#
#
# Elastic Compliance Matrix: (Units=1/GPa)
#
#
# Indices 1 2 3 4 5 6 
#
# 1 0.013382 -0.002743 -0.004219 0.000000 0.000000 0.000000
# 2 -0.002743 0.023131 -0.006424 0.000000 0.000000 0.000001
# 3 -0.004219 -0.006424 0.013737 0.000000 -0.000001 0.000000
# 4 0.000000 0.000000 0.000000 0.041683 -0.000001 -0.000002
# 5 0.000000 0.000000 -0.000001 -0.000001 0.055016 -0.000002
# 6 0.000000 0.000001 0.000000 -0.000002 -0.000002 0.155704
#
#
# Mechanical properties :
#
#
# Convention : Reuss Voigt Hill
#
# Bulk Modulus (GPa) = 42.59398 47.56295 45.07847
# Shear Modulus (GPa) = 14.82571 19.97213 17.39892
#
# Velocity S-wave (km/s) = 2.98179 3.46084 3.23021
# Velocity P-wave (km/s) = 6.11544 6.67035 6.39892
#
# Compressibility (1/GPa) = 0.02347749
#
# Stress axis : x y z
#
# Youngs Moduli (GPa) = 74.72829 43.23110 72.79768
#
# Poissons Ratio (x) = 0.11858 0.30716
# Poissons Ratio (y) = 0.20497 0.46766
# Poissons Ratio (z) = 0.31531 0.27772
#
# Static dielectric constant tensor:
#      x y z
#    x 3.168400 0.000000 0.000000 
#    y 0.000000 2.973010 0.000000 
#    z 0.000000 0.000000 3.205110 
# 
# 
# High freq. dielectric constant tensor:
#      x y z
#    x 1.622830 0.000000 0.000000 
#    y 0.000000 1.621500 0.000000 
#    z 0.000000 0.000000 1.646510 
# 
# From -- ./inp_files/24830.got.cif
#   From: 2010.06.25/outbox.cif.g09.slc.cpg/sg71_13_cif.got.tgz:24830.got - 2010.06.28 04:59:45.
