data_PCOD8287557
_publ_section_title
;
Structure prediction by ZEFSAII (Michael W. Deem and Ramdas Pophale) SiO2 
 PCOD8287557
Probable space group: I M M M
;
_chemical_formula_sum "Si O2"
_cell_formula_units_Z 88
_cell_length_a 8.954241
_cell_length_b 19.137067
_cell_length_c 37.996713
_cell_angle_alpha 90.000000
_cell_angle_beta 90.000000
_cell_angle_gamma 90.000000
_cell_volume 6511.037325
_symmetry_space_group_name_H-M "I M M M"
_symmetry_group_IT_number 71
_symmetry_cell_setting 'orthorhombic'
loop_
_space_group_symop_operation_xyz
x,y,z
-x,-y,z
x,-y,-z
-x,y,-z
-x,-y,-z
x,y,-z
-x,y,z
x,-y,z
1/2+x,1/2+y,1/2+z
1/2-x,1/2-y,1/2+z
1/2+x,1/2-y,1/2-z
1/2-x,1/2+y,1/2-z
1/2-x,1/2-y,1/2-z
1/2+x,1/2+y,1/2-z
1/2-x,1/2+y,1/2+z
1/2+x,1/2-y,1/2+z
loop_
_atom_site_type_symbol
_atom_site_label
_atom_site_fract_x
_atom_site_fract_y
_atom_site_fract_z
Si Si1 0.174614 0.274941 0.304486
Si Si2 0.331981 0.417180 0.500000
Si Si3 0.825869 0.137338 0.137933
Si Si4 0.675411 0.000000 0.254348
Si Si5 0.830528 0.000000 0.181619
Si Si6 0.175156 0.651768 0.768097
Si Si7 0.823523 0.580887 0.429002
O O1 0.259283 0.299075 0.339529
O O2 0.213581 0.326094 0.271958
O O3 0.230712 0.197139 0.295508
O O4 0.000000 0.273144 0.312351
O O5 0.336185 0.500000 0.500000
O O6 0.500000 0.386556 0.500000
O O7 0.244378 0.391209 0.465562
O O8 0.793633 0.066604 0.158459
O O9 0.742943 0.131315 0.100780
O O10 0.000000 0.150586 0.131352
O O11 0.728344 0.928765 0.273581
O O12 0.500000 0.000000 0.253020
O O13 0.723307 0.000000 0.214347
O O14 0.000000 0.000000 0.195223
O O15 0.000000 0.662637 0.775543
O O16 0.777946 0.500000 0.422125
O O17 0.000000 0.589330 0.430353
#
# Coordination Sequence:
#
# PCOD8287557 Si02
#       7
#    16   8  16   8   8  16  16
#     4  10  19  30  43  58  78 103 130 162 203 246
#     4   9  17  29  43  57  77 103 131 164 201 238
#     4  11  20  30  42  58  80 104 133 168 207 246
#     4  10  18  30  46  60  75  99 132 167 205 246
#     4  10  20  28  38  57  79 100 128 168 208 243
#     4   9  18  30  43  58  77 101 129 163 203 245
#     4  10  19  29  42  59  79 103 133 167 202 240
#
# _framework density 13.515511999999999
#
# number of rings (size 3 to 8) (size 9 to 14) (size 15 to 20)
#    0.000    2.091    2.727    1.909    0.000    4.000 
#    0.000    0.000    0.000    0.000    0.000    0.000 
#    0.000    0.000    0.000    0.000    0.000    0.909 
#
# Total GULP energy -545601.209983 kJ/mol
# GULP energy per Si atom -12400.027500 kJ/mol
# Density = 1.348475 g / cm^3
# Si number density = 13.515512 Si / 1000 Ang^3
#
#
#
# Elastic Constant Matrix: (Units=GPa)
#
#
# Indices 1 2 3 4 5 6 
#
# 1 63.4384 33.6480 44.0000 0.0000 0.0000 0.0000
# 2 33.6480 76.1792 38.8116 0.0000 0.0000 0.0000
# 3 44.0000 38.8116 92.1214 0.0000 0.0000 0.0000
# 4 0.0000 0.0000 0.0000 19.7791 0.0000 0.0000
# 5 0.0000 0.0000 0.0000 0.0000 26.1477 0.0000
# 6 0.0000 0.0000 0.0000 0.0000 0.0000 34.1956
#
#
#
# Elastic Compliance Matrix: (Units=1/GPa)
#
#
# Indices 1 2 3 4 5 6 
#
# 1 0.025902 -0.006542 -0.009616 0.000000 0.000000 0.000000
# 2 -0.006542 0.018367 -0.004614 0.000000 0.000000 0.000000
# 3 -0.009616 -0.004614 0.017392 0.000000 0.000000 0.000000
# 4 0.000000 0.000000 0.000000 0.050558 0.000000 0.000000
# 5 0.000000 0.000000 0.000000 0.000000 0.038244 0.000000
# 6 0.000000 0.000000 0.000000 0.000000 0.000000 0.029244
#
#
# Mechanical properties :
#
#
# Convention : Reuss Voigt Hill
#
# Bulk Modulus (GPa) = 49.70466 51.62869 50.66668
# Shear Modulus (GPa) = 21.93406 23.70976 22.82191
#
# Velocity S-wave (km/s) = 4.03287 4.19294 4.11368
# Velocity P-wave (km/s) = 7.65122 7.85643 7.75450
#
# Compressibility (1/GPa) = 0.02011884
#
# Stress axis : x y z
#
# Youngs Moduli (GPa) = 38.60637 54.44533 57.49890
#
# Poissons Ratio (x) = 0.35619 0.55288
# Poissons Ratio (y) = 0.25257 0.26527
# Poissons Ratio (z) = 0.37122 0.25118
#
# Static dielectric constant tensor:
#      x y z
#    x 2.759510 0.000000 0.000000 
#    y 0.000000 2.663740 0.000000 
#    z 0.000000 0.000000 2.574850 
# 
# 
# High freq. dielectric constant tensor:
#      x y z
#    x 1.530180 0.000000 0.000000 
#    y 0.000000 1.480570 0.000000 
#    z 0.000000 0.000000 1.493010 
# 
# From -- ./inp_files/68189.got.cif
#   From: 2010.06.25/outbox.cif.g09.slc.cpg/sg71_35_cif.got.tgz:68189.got - 2010.06.28 04:59:45.
