data_PCOD8287516
_publ_section_title
;
Structure prediction by ZEFSAII (Michael W. Deem and Ramdas Pophale) SiO2 
 PCOD8287516
Probable space group: I M M M
;
_chemical_formula_sum "Si O2"
_cell_formula_units_Z 80
_cell_length_a 20.641300
_cell_length_b 15.659728
_cell_length_c 14.346384
_cell_angle_alpha 90.000000
_cell_angle_beta 90.000000
_cell_angle_gamma 90.000000
_cell_volume 4637.284185
_symmetry_space_group_name_H-M "I M M M"
_symmetry_group_IT_number 71
_symmetry_cell_setting 'orthorhombic'
loop_
_space_group_symop_operation_xyz
x,y,z
-x,-y,z
x,-y,-z
-x,y,-z
-x,-y,-z
x,y,-z
-x,y,z
x,-y,z
1/2+x,1/2+y,1/2+z
1/2-x,1/2-y,1/2+z
1/2+x,1/2-y,1/2-z
1/2-x,1/2+y,1/2-z
1/2-x,1/2-y,1/2-z
1/2+x,1/2+y,1/2-z
1/2-x,1/2+y,1/2+z
1/2+x,1/2-y,1/2+z
loop_
_atom_site_type_symbol
_atom_site_label
_atom_site_fract_x
_atom_site_fract_y
_atom_site_fract_z
Si Si1 0.826421 0.827376 0.396857
Si Si2 0.301800 0.593895 0.711128
Si Si3 0.815275 0.739666 0.893971
Si Si4 0.425281 0.820841 0.105525
Si Si5 0.155453 0.595321 0.755960
O O1 0.828755 0.869628 0.500000
O O2 0.825853 0.900242 0.318501
O O3 0.761957 0.770319 0.386203
O O4 0.887941 0.767775 0.379713
O O5 0.322341 0.500000 0.673795
O O6 0.334161 0.668176 0.649142
O O7 0.224667 0.604370 0.706388
O O8 0.851949 0.664200 0.838772
O O9 0.839693 0.736566 0.000000
O O10 0.500000 0.802877 0.127098
O O11 0.398847 0.891061 0.177200
O O12 0.415277 0.854818 0.000000
O O13 0.146840 0.500000 0.797908
#
# Coordination Sequence:
#
# PCOD8287516 Si02
#       5
#    16  16  16  16  16
#     4   9  16  30  49  70 101 132 161 201 245 291
#     4  10  18  29  49  75 100 128 161 199 252 303
#     4  10  18  31  50  71  99 130 161 203 253 295
#     4  10  19  31  50  74 101 136 170 196 232 287
#     4  10  19  32  49  71 101 132 164 201 242 291
#
# _framework density 17.251477000000001
#
# number of rings (size 3 to 8) (size 9 to 14) (size 15 to 20)
#    0.000    2.200    4.000    1.200    0.000    2.000 
#    0.000    7.000    0.000    1.200    0.000    4.200 
#    0.000    1.600    0.000    0.000    0.000    0.000 
#
# Total GULP energy -495883.842378 kJ/mol
# GULP energy per Si atom -12397.096059 kJ/mol
# Density = 1.721221 g / cm^3
# Si number density = 17.251477 Si / 1000 Ang^3
#
#
#
# Elastic Constant Matrix: (Units=GPa)
#
#
# Indices 1 2 3 4 5 6 
#
# 1 60.4535 22.5405 38.3341 0.0000 0.0000 0.0000
# 2 22.5405 120.0888 63.8920 0.0000 0.0000 0.0000
# 3 38.3341 63.8920 112.9906 0.0000 0.0000 0.0000
# 4 0.0000 0.0000 0.0000 14.6391 0.0000 0.0000
# 5 0.0000 0.0000 0.0000 0.0000 21.1968 0.0000
# 6 0.0000 0.0000 0.0000 0.0000 0.0000 10.4490
#
#
#
# Elastic Compliance Matrix: (Units=1/GPa)
#
#
# Indices 1 2 3 4 5 6 
#
# 1 0.021080 -0.000217 -0.007029 0.000000 0.000000 0.000000
# 2 -0.000217 0.011913 -0.006663 0.000000 0.000000 0.000000
# 3 -0.007029 -0.006663 0.015002 0.000000 0.000000 0.000000
# 4 0.000000 0.000000 0.000000 0.068310 0.000000 0.000000
# 5 0.000000 0.000000 0.000000 0.000000 0.047177 0.000000
# 6 0.000000 0.000000 0.000000 0.000000 0.000000 0.095703
#
#
# Mechanical properties :
#
#
# Convention : Reuss Voigt Hill
#
# Bulk Modulus (GPa) = 49.55945 60.34066 54.95006
# Shear Modulus (GPa) = 17.02259 20.50808 18.76533
#
# Velocity S-wave (km/s) = 3.14464 3.45160 3.30169
# Velocity P-wave (km/s) = 6.47881 7.13707 6.81589
#
# Compressibility (1/GPa) = 0.02017779
#
# Stress axis : x y z
#
# Youngs Moduli (GPa) = 47.43914 83.94454 66.65592
#
# Poissons Ratio (x) = 0.01821 0.46852
# Poissons Ratio (y) = 0.01029 0.44410
# Poissons Ratio (z) = 0.33345 0.55928
#
# Static dielectric constant tensor:
#      x y z
#    x 2.898590 0.000000 0.000000 
#    y 0.000000 3.137840 0.000000 
#    z 0.000000 0.000000 3.365770 
# 
# 
# High freq. dielectric constant tensor:
#      x y z
#    x 1.618220 0.000000 0.000000 
#    y 0.000000 1.659950 0.000000 
#    z 0.000000 0.000000 1.668670 
# 
# From -- ./inp_files/34256.got.cif
#   From: 2010.06.25/outbox.cif.g09.slc.cpg/sg71_18_cif.got.tgz:34256.got - 2010.06.28 04:59:45.
