data_PCOD8287892
_publ_section_title
;
Structure prediction by ZEFSAII (Michael W. Deem and Ramdas Pophale) SiO2 
 PCOD8287892
Probable space group: I M M M
;
_chemical_formula_sum "Si O2"
_cell_formula_units_Z 120
_cell_length_a 21.815341
_cell_length_b 30.839524
_cell_length_c 10.312824
_cell_angle_alpha 90.000000
_cell_angle_beta 90.000000
_cell_angle_gamma 90.000000
_cell_volume 6938.207406
_symmetry_space_group_name_H-M "I M M M"
_symmetry_group_IT_number 71
_symmetry_cell_setting 'orthorhombic'
loop_
_space_group_symop_operation_xyz
x,y,z
-x,-y,z
x,-y,-z
-x,y,-z
-x,-y,-z
x,y,-z
-x,y,z
x,-y,z
1/2+x,1/2+y,1/2+z
1/2-x,1/2-y,1/2+z
1/2+x,1/2-y,1/2-z
1/2-x,1/2+y,1/2-z
1/2-x,1/2-y,1/2-z
1/2+x,1/2+y,1/2-z
1/2-x,1/2+y,1/2+z
1/2+x,1/2-y,1/2+z
loop_
_atom_site_type_symbol
_atom_site_label
_atom_site_fract_x
_atom_site_fract_y
_atom_site_fract_z
Si Si1 0.932097 0.196049 0.347450
Si Si2 0.890756 0.290121 0.352241
Si Si3 0.720893 0.453804 0.151012
Si Si4 0.430745 0.000000 0.151060
Si Si5 0.823549 0.863491 0.654461
Si Si6 0.653381 0.077534 0.752322
Si Si7 0.432510 0.854976 0.641513
Si Si8 0.276099 0.844742 0.142271
O O1 0.939295 0.194939 0.500000
O O2 0.899675 0.240715 0.305542
O O3 0.889081 0.155983 0.304280
O O4 0.000000 0.191417 0.283998
O O5 0.915254 0.296489 0.500000
O O6 0.928897 0.319778 0.254976
O O7 0.819362 0.302633 0.344108
O O8 0.700511 0.500000 0.215364
O O9 0.678002 0.414099 0.198015
O O10 0.792323 0.446848 0.179053
O O11 0.712275 0.457832 0.000000
O O12 0.392766 0.043044 0.185834
O O13 0.500000 0.000000 0.213625
O O14 0.439606 0.000000 0.000000
O O15 0.809813 0.857236 0.500000
O O16 0.771044 0.840211 0.738852
O O17 0.615921 0.106313 0.650619
O O18 0.683330 0.111051 0.855313
O O19 0.422364 0.832875 0.500000
O O20 0.500000 0.875723 0.650465
O O21 0.243789 0.843926 0.000000
#
# Coordination Sequence:
#
# PCOD8287892 Si02
#       8
#    16  16  16   8  16  16  16  16
#     4   9  17  31  51  74  99 128 163 199 235 288
#     4   9  18  32  51  72  94 127 168 201 237 287
#     4   9  16  28  48  70  90 116 153 196 239 288
#     4  11  22  32  43  63  91 125 168 213 250 286
#     4   9  18  31  50  74  98 126 161 198 242 291
#     4  10  18  32  47  63  89 126 163 198 245 293
#     4  10  20  32  46  67  96 128 167 211 248 285
#     4   9  18  31  48  70  97 124 156 201 245 283
#
# _framework density 17.295532000000001
#
# number of rings (size 3 to 8) (size 9 to 14) (size 15 to 20)
#    0.000    2.600    0.667    1.600    0.000    5.067 
#    0.000    0.667    0.000    3.200    0.000    2.800 
#    0.000    0.000    0.000    3.467    0.000    3.333 
#
# Total GULP energy -743323.223000 kJ/mol
# GULP energy per Si atom -12388.720383 kJ/mol
# Density = 1.725617 g / cm^3
# Si number density = 17.295532 Si / 1000 Ang^3
#
#
#
# Elastic Constant Matrix: (Units=GPa)
#
#
# Indices 1 2 3 4 5 6 
#
# 1 100.6500 72.3089 31.3899 0.0000 0.0000 0.0000
# 2 72.3089 121.1550 25.6640 0.0000 0.0000 0.0000
# 3 31.3899 25.6640 66.6983 0.0000 0.0000 0.0000
# 4 0.0000 0.0000 0.0000 14.6989 0.0000 0.0000
# 5 0.0000 0.0000 0.0000 0.0000 17.8405 0.0000
# 6 0.0000 0.0000 0.0000 0.0000 0.0000 28.1247
#
#
#
# Elastic Compliance Matrix: (Units=1/GPa)
#
#
# Indices 1 2 3 4 5 6 
#
# 1 0.018770 -0.010159 -0.004925 0.000000 0.000000 0.000000
# 2 -0.010159 0.014485 -0.000792 0.000000 0.000000 0.000000
# 3 -0.004925 -0.000792 0.017615 0.000000 0.000000 0.000000
# 4 0.000000 0.000000 0.000000 0.068032 0.000000 0.000000
# 5 0.000000 0.000000 0.000000 0.000000 0.056052 0.000000
# 6 0.000000 0.000000 0.000000 0.000000 0.000000 0.035556
#
#
# Mechanical properties :
#
#
# Convention : Reuss Voigt Hill
#
# Bulk Modulus (GPa) = 52.30649 60.80321 56.55485
# Shear Modulus (GPa) = 20.10973 22.74217 21.42595
#
# Velocity S-wave (km/s) = 3.41356 3.63011 3.52350
# Velocity P-wave (km/s) = 6.77089 7.26650 7.02307
#
# Compressibility (1/GPa) = 0.01911809
#
# Stress axis : x y z
#
# Youngs Moduli (GPa) = 53.27693 69.03655 56.76867
#
# Poissons Ratio (x) = 0.70136 0.27956
# Poissons Ratio (y) = 0.54125 0.04498
# Poissons Ratio (z) = 0.26236 0.05470
#
# Static dielectric constant tensor:
#      x y z
#    x 3.284360 0.000000 0.000000 
#    y 0.000000 3.365040 0.000000 
#    z 0.000000 0.000000 3.094690 
# 
# 
# High freq. dielectric constant tensor:
#      x y z
#    x 1.649990 0.000000 0.000000 
#    y 0.000000 1.666070 0.000000 
#    z 0.000000 0.000000 1.649200 
# 
# From -- ./inp_files/26626.got.cif
#   From: 2010.06.25/outbox.cif.g09.slc.cpg/sg71_14_cif.got.tgz:26626.got - 2010.06.28 04:59:45.
