data_PCOD8287385
_publ_section_title
;
Structure prediction by ZEFSAII (Michael W. Deem and Ramdas Pophale) SiO2 
 PCOD8287385
Probable space group: I M M M
;
_chemical_formula_sum "Si O2"
_cell_formula_units_Z 112
_cell_length_a 30.432106
_cell_length_b 16.498115
_cell_length_c 14.390013
_cell_angle_alpha 90.000000
_cell_angle_beta 90.000000
_cell_angle_gamma 90.000000
_cell_volume 7224.828140
_symmetry_space_group_name_H-M "I M M M"
_symmetry_group_IT_number 71
_symmetry_cell_setting 'orthorhombic'
loop_
_space_group_symop_operation_xyz
x,y,z
-x,-y,z
x,-y,-z
-x,y,-z
-x,-y,-z
x,y,-z
-x,y,z
x,-y,z
1/2+x,1/2+y,1/2+z
1/2-x,1/2-y,1/2+z
1/2+x,1/2-y,1/2-z
1/2-x,1/2+y,1/2-z
1/2-x,1/2-y,1/2-z
1/2+x,1/2+y,1/2-z
1/2-x,1/2+y,1/2+z
1/2+x,1/2-y,1/2+z
loop_
_atom_site_type_symbol
_atom_site_label
_atom_site_fract_x
_atom_site_fract_y
_atom_site_fract_z
Si Si1 0.051118 0.906749 0.393572
Si Si2 0.249356 0.740974 0.141103
Si Si3 0.299937 0.409182 0.894289
Si Si4 0.287071 0.500000 0.609605
Si Si5 0.189311 0.500000 0.610667
Si Si6 0.375863 0.683844 0.209009
Si Si7 0.834510 0.162678 0.104358
Si Si8 0.837889 0.672332 0.395863
O O1 0.063206 0.885111 0.500000
O O2 0.076923 0.848884 0.322596
O O3 0.000000 0.891799 0.375301
O O4 0.063522 0.000000 0.373511
O O5 0.250000 0.750000 0.250000
O O6 0.256657 0.646684 0.114898
O O7 0.202808 0.768313 0.100538
O O8 0.288126 0.794833 0.097833
O O9 0.288026 0.500000 0.861081
O O10 0.338529 0.374383 0.831248
O O11 0.317070 0.409435 0.000000
O O12 0.282627 0.500000 0.500000
O O13 0.238389 0.500000 0.654411
O O14 0.313133 0.579529 0.641780
O O15 0.193385 0.500000 0.500000
O O16 0.163123 0.580303 0.643211
O O17 0.372559 0.685496 0.321611
O O18 0.368679 0.774972 0.171547
O O19 0.854543 0.154104 0.000000
O O20 0.857648 0.675371 0.500000
#
# Coordination Sequence:
#
# PCOD8287385 Si02
#       8
#    16  16  16   8   8  16  16  16
#     4   9  18  33  53  75  96 116 137 170 224 284
#     4  11  18  30  41  59  84 120 158 193 227 258
#     4  10  20  31  44  63  88 118 149 187 234 274
#     4   9  18  28  40  56  76 117 163 195 222 249
#     4   9  16  26  42  60  86 120 153 186 224 262
#     4  11  20  30  47  69  89 113 150 188 227 269
#     4  11  21  31  43  60  89 124 161 198 228 256
#     4  10  18  29  43  63  88 117 149 188 228 263
#
# _framework density 15.502098
#
# number of rings (size 3 to 8) (size 9 to 14) (size 15 to 20)
#    0.000    1.857    4.286    4.286    2.000    1.143 
#    1.286    0.000    0.000    0.429    0.000    1.500 
#    0.000    2.857    0.000    0.000    0.000    1.429 
#
# Total GULP energy -694288.148875 kJ/mol
# GULP energy per Si atom -12398.002658 kJ/mol
# Density = 1.546682 g / cm^3
# Si number density = 15.502098 Si / 1000 Ang^3
#
#
#
# Elastic Constant Matrix: (Units=GPa)
#
#
# Indices 1 2 3 4 5 6 
#
# 1 53.3556 28.4092 26.3874 0.0000 0.0000 0.0000
# 2 28.4092 121.5463 30.1665 0.0000 0.0000 0.0000
# 3 26.3874 30.1665 84.8652 0.0000 0.0000 0.0000
# 4 0.0000 0.0000 0.0000 14.3334 0.0000 0.0000
# 5 0.0000 0.0000 0.0000 0.0000 17.5339 0.0000
# 6 0.0000 0.0000 0.0000 0.0000 0.0000 15.8328
#
#
#
# Elastic Compliance Matrix: (Units=1/GPa)
#
#
# Indices 1 2 3 4 5 6 
#
# 1 0.023876 -0.004100 -0.005966 0.000000 0.000000 0.000000
# 2 -0.004100 0.009727 -0.002183 0.000000 0.000000 0.000000
# 3 -0.005966 -0.002183 0.014415 0.000000 0.000000 0.000000
# 4 0.000000 0.000000 0.000000 0.069767 0.000000 0.000000
# 5 0.000000 0.000000 0.000000 0.000000 0.057032 0.000000
# 6 0.000000 0.000000 0.000000 0.000000 0.000000 0.063160
#
#
# Mechanical properties :
#
#
# Convention : Reuss Voigt Hill
#
# Bulk Modulus (GPa) = 42.51816 47.74370 45.13093
# Shear Modulus (GPa) = 18.49691 21.19361 19.84526
#
# Velocity S-wave (km/s) = 3.45800 3.70150 3.58182
# Velocity P-wave (km/s) = 6.59019 7.00951 6.80308
#
# Compressibility (1/GPa) = 0.02351936
#
# Stress axis : x y z
#
# Youngs Moduli (GPa) = 41.88334 102.80301 69.37440
#
# Poissons Ratio (x) = 0.42146 0.41392
# Poissons Ratio (y) = 0.17171 0.15144
# Poissons Ratio (z) = 0.24990 0.22442
#
# Static dielectric constant tensor:
#      x y z
#    x 2.609510 0.000000 0.000000 
#    y 0.000000 3.283410 0.000000 
#    z 0.000000 0.000000 3.015910 
# 
# 
# High freq. dielectric constant tensor:
#      x y z
#    x 1.532290 0.000000 0.000000 
#    y 0.000000 1.599200 0.000000 
#    z 0.000000 0.000000 1.594990 
# 
# From -- ./inp_files/41218.got.cif
#   From: 2010.06.25/outbox.cif.g09.slc.cpg/sg71_21_cif.got.tgz:41218.got - 2010.06.28 04:59:45.
