data_PCOD8287822
_publ_section_title
;
Structure prediction by ZEFSAII (Michael W. Deem and Ramdas Pophale) SiO2 
 PCOD8287822
Probable space group: I M M M
;
_chemical_formula_sum "Si O2"
_cell_formula_units_Z 72
_cell_length_a 7.707348
_cell_length_b 28.457781
_cell_length_c 17.922815
_cell_angle_alpha 90.000000
_cell_angle_beta 90.000000
_cell_angle_gamma 90.000000
_cell_volume 3931.083090
_symmetry_space_group_name_H-M "I M M M"
_symmetry_group_IT_number 71
_symmetry_cell_setting 'orthorhombic'
loop_
_space_group_symop_operation_xyz
x,y,z
-x,-y,z
x,-y,-z
-x,y,-z
-x,-y,-z
x,y,-z
-x,y,z
x,-y,z
1/2+x,1/2+y,1/2+z
1/2-x,1/2-y,1/2+z
1/2+x,1/2-y,1/2-z
1/2-x,1/2+y,1/2-z
1/2-x,1/2-y,1/2-z
1/2+x,1/2+y,1/2-z
1/2-x,1/2+y,1/2+z
1/2+x,1/2-y,1/2+z
loop_
_atom_site_type_symbol
_atom_site_label
_atom_site_fract_x
_atom_site_fract_y
_atom_site_fract_z
Si Si1 0.500000 0.786367 0.919667
Si Si2 0.303009 0.716299 0.315621
Si Si3 0.500000 0.897231 0.084003
Si Si4 0.798830 0.052358 0.658814
Si Si5 0.203012 0.447495 0.000000
Si Si6 0.297842 0.392972 0.303593
O O1 0.323897 0.768899 0.881823
O O2 0.500000 0.841976 0.924999
O O3 0.500000 0.762460 0.000000
O O4 0.500000 0.724928 0.341469
O O5 0.250000 0.750000 0.250000
O O6 0.274012 0.662519 0.291400
O O7 0.324687 0.911932 0.129036
O O8 0.500000 0.919868 0.000000
O O9 0.764194 0.076889 0.577669
O O10 0.727081 0.083598 0.727006
O O11 0.000000 0.047684 0.672273
O O12 0.712830 0.000000 0.660832
O O13 0.284072 0.500000 0.000000
O O14 0.000000 0.448525 0.000000
O O15 0.500000 0.405186 0.321740
#
# Coordination Sequence:
#
# PCOD8287822 Si02
#       6
#     8  16   8  16   8  16
#     4   9  18  32  50  75 100 124 162 209 244 283
#     4  10  18  31  52  74  97 131 164 199 245 296
#     4   9  18  32  51  75  99 126 160 202 250 293
#     4   9  17  31  50  70  96 130 166 201 239 286
#     4   9  17  27  43  71  99 127 163 203 241 277
#     4   9  19  32  50  76  99 127 164 204 243 291
#
# _framework density 18.315562
#
# number of rings (size 3 to 8) (size 9 to 14) (size 15 to 20)
#    0.000    2.778    1.111    0.333    1.556    2.222 
#    0.000    4.444    2.444    1.333    0.000    3.111 
#    0.000    0.000    0.000    0.000    0.000    0.000 
#
# Total GULP energy -446048.436520 kJ/mol
# GULP energy per Si atom -12390.234348 kJ/mol
# Density = 1.827388 g / cm^3
# Si number density = 18.315562 Si / 1000 Ang^3
#
#
#
# Elastic Constant Matrix: (Units=GPa)
#
#
# Indices 1 2 3 4 5 6 
#
# 1 116.6387 27.5004 76.9508 0.0000 0.0000 0.0000
# 2 27.5004 35.2978 42.8438 0.0000 0.0000 0.0000
# 3 76.9508 42.8438 198.4431 0.0001 0.0000 0.0000
# 4 0.0000 0.0000 0.0001 28.4693 0.0000 0.0000
# 5 0.0000 0.0000 0.0000 0.0000 31.7522 0.0000
# 6 0.0000 0.0000 0.0000 0.0000 0.0000 13.9002
#
#
#
# Elastic Compliance Matrix: (Units=1/GPa)
#
#
# Indices 1 2 3 4 5 6 
#
# 1 0.012158 -0.005082 -0.003618 0.000000 0.000000 0.000000
# 2 -0.005082 0.040515 -0.006777 0.000000 0.000000 0.000000
# 3 -0.003618 -0.006777 0.007905 0.000000 0.000000 0.000000
# 4 0.000000 0.000000 0.000000 0.035126 0.000000 0.000000
# 5 0.000000 0.000000 0.000000 0.000000 0.031494 0.000000
# 6 0.000000 0.000000 0.000000 0.000000 0.000000 0.071941
#
#
# Mechanical properties :
#
#
# Convention : Reuss Voigt Hill
#
# Bulk Modulus (GPa) = 33.75340 71.66328 52.70834
# Shear Modulus (GPa) = 20.83630 28.36330 24.59980
#
# Velocity S-wave (km/s) = 3.37653 3.93948 3.66882
# Velocity P-wave (km/s) = 5.80260 7.73981 6.84013
#
# Compressibility (1/GPa) = 0.02962665
#
# Stress axis : x y z
#
# Youngs Moduli (GPa) = 82.24916 24.68236 126.50102
#
# Poissons Ratio (x) = 0.12542 0.45762
# Poissons Ratio (y) = 0.41795 0.85725
# Poissons Ratio (z) = 0.29754 0.16726
#
# Static dielectric constant tensor:
#      x y z
#    x 3.487940 0.000000 0.000000 
#    y 0.000000 2.900300 0.000000 
#    z 0.000000 0.000000 3.957820 
# 
# 
# High freq. dielectric constant tensor:
#      x y z
#    x 1.721430 0.000000 0.000000 
#    y 0.000000 1.660730 0.000000 
#    z 0.000000 0.000000 1.715460 
# 
# From -- ./inp_files/31687.got.cif
#   From: 2010.06.25/outbox.cif.g09.slc.cpg/sg71_16_cif.got.tgz:31687.got - 2010.06.28 04:59:45.
