data_PCOD8287589
_publ_section_title
;
Structure prediction by ZEFSAII (Michael W. Deem and Ramdas Pophale) SiO2 
 PCOD8287589
Probable space group: I M M M
;
_chemical_formula_sum "Si O2"
_cell_formula_units_Z 120
_cell_length_a 8.894984
_cell_length_b 28.248421
_cell_length_c 27.558465
_cell_angle_alpha 90.000000
_cell_angle_beta 90.000000
_cell_angle_gamma 90.000000
_cell_volume 6924.594909
_symmetry_space_group_name_H-M "I M M M"
_symmetry_group_IT_number 71
_symmetry_cell_setting 'orthorhombic'
loop_
_space_group_symop_operation_xyz
x,y,z
-x,-y,z
x,-y,-z
-x,y,-z
-x,-y,-z
x,y,-z
-x,y,z
x,-y,z
1/2+x,1/2+y,1/2+z
1/2-x,1/2-y,1/2+z
1/2+x,1/2-y,1/2-z
1/2-x,1/2+y,1/2-z
1/2-x,1/2-y,1/2-z
1/2+x,1/2+y,1/2-z
1/2-x,1/2+y,1/2+z
1/2+x,1/2-y,1/2+z
loop_
_atom_site_type_symbol
_atom_site_label
_atom_site_fract_x
_atom_site_fract_y
_atom_site_fract_z
Si Si1 0.825678 0.863364 0.738541
Si Si2 0.676496 0.912635 0.098493
Si Si3 0.173449 0.805902 0.649035
Si Si4 0.175434 0.721320 0.053832
Si Si5 0.834148 0.000000 0.944224
Si Si6 0.675948 0.207643 0.808861
Si Si7 0.323080 0.945801 0.205871
Si Si8 0.325301 0.679101 0.402926
O O1 0.801211 0.853412 0.680786
O O2 0.762731 0.816449 0.764628
O O3 0.746971 0.912709 0.752167
O O4 0.000000 0.867701 0.751477
O O5 0.500000 0.903645 0.091965
O O6 0.728584 0.956698 0.068189
O O7 0.719602 0.922606 0.154625
O O8 0.773742 0.870259 0.073797
O O9 0.252894 0.810338 0.596613
O O10 0.233634 0.761182 0.680777
O O11 0.000000 0.796640 0.637735
O O12 0.210113 0.776865 0.062074
O O13 0.000000 0.711275 0.055658
O O14 0.238028 0.707882 0.000000
O O15 0.000000 0.000000 0.917919
O O16 0.868690 0.000000 0.000000
O O17 0.500000 0.204667 0.797596
O O18 0.716265 0.178404 0.856555
O O19 0.500000 0.946136 0.213622
O O20 0.261618 0.000000 0.209436
O O21 0.500000 0.678898 0.387885
#
# Coordination Sequence:
#
# PCOD8287589 Si02
#       8
#    16  16  16  16   8  16  16  16
#     4  11  21  32  49  75 104 132 166 206 251 302
#     4  11  21  36  55  73  96 125 163 211 260 313
#     4   9  20  34  48  72 104 135 168 206 246 297
#     4   9  19  35  53  73  99 132 170 210 249 291
#     4  11  25  41  55  71  91 119 161 215 270 317
#     4  10  18  30  47  69 100 135 169 202 241 293
#     4  10  21  37  54  73  99 131 167 208 255 309
#     4  10  19  31  49  73  99 128 164 208 252 295
#
# _framework density 17.329533999999999
#
# number of rings (size 3 to 8) (size 9 to 14) (size 15 to 20)
#    0.000    1.933    2.000    2.200    0.000    4.267 
#    0.000    1.333    0.000    0.000    0.000    0.000 
#    0.000    0.533    0.000    5.867    0.000    4.267 
#
# Total GULP energy -743647.264570 kJ/mol
# GULP energy per Si atom -12394.121076 kJ/mol
# Density = 1.729009 g / cm^3
# Si number density = 17.329534 Si / 1000 Ang^3
#
#
#
# Elastic Constant Matrix: (Units=GPa)
#
#
# Indices 1 2 3 4 5 6 
#
# 1 48.3203 25.2960 33.6515 0.0000 0.0000 0.0000
# 2 25.2960 49.5614 30.5631 0.0000 0.0000 0.0000
# 3 33.6515 30.5631 88.4265 0.0000 0.0000 0.0000
# 4 0.0000 0.0000 0.0000 6.4006 0.0000 0.0000
# 5 0.0000 0.0000 0.0000 0.0000 24.7867 0.0000
# 6 0.0000 0.0000 0.0000 0.0000 0.0000 26.7221
#
#
#
# Elastic Compliance Matrix: (Units=1/GPa)
#
#
# Indices 1 2 3 4 5 6 
#
# 1 0.032546 -0.011404 -0.008444 0.000000 0.000000 0.000000
# 2 -0.011404 0.029639 -0.005904 0.000000 0.000000 0.000000
# 3 -0.008444 -0.005904 0.016563 0.000000 0.000000 0.000000
# 4 0.000000 0.000000 0.000000 0.156235 0.000000 0.000000
# 5 0.000000 0.000000 0.000000 0.000000 0.040344 0.000000
# 6 0.000000 0.000000 0.000000 0.000000 0.000000 0.037422
#
#
# Mechanical properties :
#
#
# Convention : Reuss Voigt Hill
#
# Bulk Modulus (GPa) = 36.70684 40.59216 38.64950
# Shear Modulus (GPa) = 13.39282 18.03506 15.71394
#
# Velocity S-wave (km/s) = 2.78300 3.22951 3.01453
# Velocity P-wave (km/s) = 5.61733 6.11399 5.87091
#
# Compressibility (1/GPa) = 0.02724288
#
# Stress axis : x y z
#
# Youngs Moduli (GPa) = 30.72561 33.73983 60.37583
#
# Poissons Ratio (x) = 0.38478 0.50982
# Poissons Ratio (y) = 0.35040 0.35646
# Poissons Ratio (z) = 0.25945 0.19920
#
# Static dielectric constant tensor:
#      x y z
#    x 3.229480 0.000000 0.000000 
#    y 0.000000 3.203380 0.000000 
#    z 0.000000 0.000000 3.163600 
# 
# 
# High freq. dielectric constant tensor:
#      x y z
#    x 1.676640 0.000000 0.000000 
#    y 0.000000 1.646190 0.000000 
#    z 0.000000 0.000000 1.648790 
# 
# From -- ./inp_files/63797.got.cif
#   From: 2010.06.25/outbox.cif.g09.slc.cpg/sg71_32_cif.got.tgz:63797.got - 2010.06.28 04:59:45.
