data_PCOD8287106
_publ_section_title
;
Structure prediction by ZEFSAII (Michael W. Deem and Ramdas Pophale) SiO2 
 PCOD8287106
Probable space group: I M M M
;
_chemical_formula_sum "Si O2"
_cell_formula_units_Z 56
_cell_length_a 5.164504
_cell_length_b 34.474945
_cell_length_c 18.293030
_cell_angle_alpha 90.000000
_cell_angle_beta 90.000000
_cell_angle_gamma 90.000000
_cell_volume 3257.000661
_symmetry_space_group_name_H-M "I M M M"
_symmetry_group_IT_number 71
_symmetry_cell_setting 'orthorhombic'
loop_
_space_group_symop_operation_xyz
x,y,z
-x,-y,z
x,-y,-z
-x,y,-z
-x,-y,-z
x,y,-z
-x,y,z
x,-y,z
1/2+x,1/2+y,1/2+z
1/2-x,1/2-y,1/2+z
1/2+x,1/2-y,1/2-z
1/2-x,1/2+y,1/2-z
1/2-x,1/2-y,1/2-z
1/2+x,1/2+y,1/2-z
1/2-x,1/2+y,1/2+z
1/2+x,1/2-y,1/2+z
loop_
_atom_site_type_symbol
_atom_site_label
_atom_site_fract_x
_atom_site_fract_y
_atom_site_fract_z
Si Si1 0.000000 0.683315 0.418184
Si Si2 0.500000 0.398600 0.728794
Si Si3 0.000000 0.725582 0.730962
Si Si4 0.000000 0.586438 0.084177
Si Si5 0.500000 0.141958 0.711306
Si Si6 0.000000 0.130606 0.080527
Si Si7 0.000000 0.045816 0.355115
O O1 0.000000 0.715968 0.355607
O O2 0.748973 0.657116 0.407706
O O3 0.000000 0.702172 0.500000
O O4 0.251221 0.373754 0.748674
O O5 0.500000 0.404010 0.640705
O O6 0.500000 0.439601 0.770828
O O7 0.250000 0.750000 0.750000
O O8 0.000000 0.688152 0.783689
O O9 0.000000 0.627210 0.127485
O O10 0.249413 0.560863 0.102741
O O11 0.000000 0.597898 0.000000
O O12 0.000000 0.111353 0.000000
O O13 0.000000 0.000000 0.353812
#
# Coordination Sequence:
#
# PCOD8287106 Si02
#       7
#     8   8   8   8   8   8   8
#     4  10  20  34  51  75 103 124 161 216 259 292
#     4  10  17  33  53  72 104 133 169 212 249 307
#     4  12  22  34  54  77 102 138 172 210 260 315
#     4  10  21  36  55  76 102 141 180 218 260 308
#     4  10  20  35  52  72 101 132 174 213 254 306
#     4  10  17  29  53  77  97 127 164 211 253 289
#     4  10  21  33  52  80 108 140 172 217 267 304
#
# _framework density 17.193733999999999
#
# number of rings (size 3 to 8) (size 9 to 14) (size 15 to 20)
#    0.000    1.714    2.857    2.571    0.000    1.714 
#    0.000    1.429    0.000    0.429    0.000    0.000 
#    0.000   10.286    0.000    0.000    0.000    1.714 
#
# Total GULP energy -347112.874566 kJ/mol
# GULP energy per Si atom -12396.888377 kJ/mol
# Density = 1.715460 g / cm^3
# Si number density = 17.193734 Si / 1000 Ang^3
#
#
#
# Elastic Constant Matrix: (Units=GPa)
#
#
# Indices 1 2 3 4 5 6 
#
# 1 147.1199 38.7496 43.1016 0.0000 0.0000 0.0000
# 2 38.7496 108.3608 65.5712 0.0000 0.0000 0.0000
# 3 43.1016 65.5712 192.9283 0.0000 0.0000 0.0000
# 4 0.0000 0.0000 0.0000 23.7543 0.0000 0.0000
# 5 0.0000 0.0000 0.0000 0.0000 17.7047 0.0000
# 6 0.0000 0.0000 0.0000 0.0000 0.0000 20.8117
#
#
#
# Elastic Compliance Matrix: (Units=1/GPa)
#
#
# Indices 1 2 3 4 5 6 
#
# 1 0.007649 -0.002142 -0.000981 0.000000 0.000000 0.000000
# 2 -0.002142 0.012217 -0.003674 0.000000 0.000000 0.000000
# 3 -0.000981 -0.003674 0.006651 0.000000 0.000000 0.000000
# 4 0.000000 0.000000 0.000000 0.042098 0.000000 0.000000
# 5 0.000000 0.000000 0.000000 0.000000 0.056482 0.000000
# 6 0.000000 0.000000 0.000000 0.000000 0.000000 0.048050
#
#
# Mechanical properties :
#
#
# Convention : Reuss Voigt Hill
#
# Bulk Modulus (GPa) = 77.37348 82.58374 79.97861
# Shear Modulus (GPa) = 26.17150 32.51993 29.34571
#
# Velocity S-wave (km/s) = 3.90571 4.35372 4.13579
# Velocity P-wave (km/s) = 8.08938 8.56789 8.33207
#
# Compressibility (1/GPa) = 0.01292432
#
# Stress axis : x y z
#
# Youngs Moduli (GPa) = 130.74267 81.85033 150.35146
#
# Poissons Ratio (x) = 0.17529 0.14748
# Poissons Ratio (y) = 0.27999 0.55238
# Poissons Ratio (z) = 0.12824 0.30071
#
# Static dielectric constant tensor:
#      x y z
#    x 3.502310 0.000000 0.000000 
#    y 0.000000 2.948810 0.000000 
#    z 0.000000 0.000000 3.601790 
# 
# 
# High freq. dielectric constant tensor:
#      x y z
#    x 1.697940 0.000000 0.000000 
#    y 0.000000 1.624360 0.000000 
#    z 0.000000 0.000000 1.676150 
# 
# From -- ./inp_files/41360.got.cif
#   From: 2010.06.25/outbox.cif.g09.slc.cpg/sg71_21_cif.got.tgz:41360.got - 2010.06.28 04:59:45.
