data_PCOD8287911
_publ_section_title
;
Structure prediction by ZEFSAII (Michael W. Deem and Ramdas Pophale) SiO2 
 PCOD8287911
Probable space group: I M M M
;
_chemical_formula_sum "Si O2"
_cell_formula_units_Z 64
_cell_length_a 10.320544
_cell_length_b 9.674159
_cell_length_c 38.647275
_cell_angle_alpha 90.000000
_cell_angle_beta 90.000000
_cell_angle_gamma 90.000000
_cell_volume 3858.643786
_symmetry_space_group_name_H-M "I M M M"
_symmetry_group_IT_number 71
_symmetry_cell_setting 'orthorhombic'
loop_
_space_group_symop_operation_xyz
x,y,z
-x,-y,z
x,-y,-z
-x,y,-z
-x,-y,-z
x,y,-z
-x,y,z
x,-y,z
1/2+x,1/2+y,1/2+z
1/2-x,1/2-y,1/2+z
1/2+x,1/2-y,1/2-z
1/2-x,1/2+y,1/2-z
1/2-x,1/2-y,1/2-z
1/2+x,1/2+y,1/2-z
1/2-x,1/2+y,1/2+z
1/2+x,1/2-y,1/2+z
loop_
_atom_site_type_symbol
_atom_site_label
_atom_site_fract_x
_atom_site_fract_y
_atom_site_fract_z
Si Si1 0.500000 0.835026 0.779203
Si Si2 0.345953 0.344874 0.038259
Si Si3 0.500000 0.662606 0.709654
Si Si4 0.734767 0.162368 0.826408
Si Si5 0.346137 0.157672 0.099874
O O1 0.500000 0.755438 0.743350
O O2 0.373816 0.782753 0.799964
O O3 0.500000 0.000000 0.772621
O O4 0.500000 0.340779 0.039347
O O5 0.296758 0.500000 0.045847
O O6 0.289355 0.243445 0.067488
O O7 0.298623 0.297333 0.000000
O O8 0.500000 0.500000 0.719423
O O9 0.624244 0.703811 0.687047
O O10 0.714176 0.222446 0.864988
O O11 0.715007 0.000000 0.829328
O O12 0.500000 0.169129 0.102867
O O13 0.302411 0.000000 0.094175
#
# Coordination Sequence:
#
# PCOD8287911 Si02
#       5
#     8  16   8  16  16
#     4  10  18  32  50  64  85 116 145 177 222 265
#     4   8  14  24  37  57  88 118 138 166 214 258
#     4  10  20  32  46  66  89 112 145 183 218 259
#     4   9  17  30  47  65  87 116 145 178 220 260
#     4   9  15  25  42  61  81 110 146 176 206 250
#
# _framework density 16.586137999999998
#
# number of rings (size 3 to 8) (size 9 to 14) (size 15 to 20)
#    0.000    3.000    1.250    1.500    0.000    0.500 
#    0.000    5.000    0.000    0.000    0.000    0.875 
#    0.000    7.000    0.000    0.000    0.000    0.000 
#
# Total GULP energy -396646.554865 kJ/mol
# GULP energy per Si atom -12395.204840 kJ/mol
# Density = 1.654839 g / cm^3
# Si number density = 16.586138 Si / 1000 Ang^3
#
#
#
# Elastic Constant Matrix: (Units=GPa)
#
#
# Indices 1 2 3 4 5 6 
#
# 1 76.1320 23.3403 46.2930 0.0000 0.0000 0.0000
# 2 23.3403 59.2389 72.2123 0.0000 0.0000 0.0000
# 3 46.2930 72.2123 181.6982 0.0000 0.0000 0.0000
# 4 0.0000 0.0000 0.0000 33.1687 0.0000 0.0000
# 5 0.0000 0.0000 0.0000 0.0000 -34.6149 0.0000
# 6 0.0000 0.0000 0.0000 0.0000 0.0000 6.3967
#
#
#
# Elastic Compliance Matrix: (Units=1/GPa)
#
#
# Indices 1 2 3 4 5 6 
#
# 1 0.015739 -0.002547 -0.002998 0.000000 0.000000 0.000000
# 2 -0.002547 0.033157 -0.012528 0.000000 0.000000 0.000000
# 3 -0.002998 -0.012528 0.011247 0.000000 0.000000 0.000000
# 4 0.000000 0.000000 0.000000 0.030149 0.000000 0.000000
# 5 0.000000 0.000000 0.000000 0.000000 -0.028889 0.000000
# 6 0.000000 0.000000 0.000000 0.000000 0.000000 0.156330
#
#
# Mechanical properties :
#
#
# Convention : Reuss Voigt Hill
#
# Bulk Modulus (GPa) = 41.67424 66.75112 54.21268
# Shear Modulus (GPa) = 19.09300 12.67167 15.88233
#
# Velocity S-wave (km/s) = 3.39653 2.76704 3.09781
# Velocity P-wave (km/s) = 6.36886 7.10923 6.74920
#
# Compressibility (1/GPa) = 0.02399564
#
# Stress axis : x y z
#
# Youngs Moduli (GPa) = 63.53771 30.15998 88.91597
#
# Poissons Ratio (x) = 0.07681 0.26654
# Poissons Ratio (y) = 0.16182 1.11398
# Poissons Ratio (z) = 0.19047 0.37786
#
# Static dielectric constant tensor:
#      x y z
#    x 2.969070 0.000000 0.000000 
#    y 0.000000 2.993360 0.000000 
#    z 0.000000 0.000000 3.463520 
# 
# 
# High freq. dielectric constant tensor:
#      x y z
#    x 1.599280 0.000000 0.000000 
#    y 0.000000 1.612150 0.000000 
#    z 0.000000 0.000000 1.656170 
# 
# From -- ./inp_files/18485.got.cif
#   From: 2010.06.25/outbox.cif.g09.slc.cpg/sg71_10_cif.got.tgz:18485.got - 2010.06.28 04:59:45.
