data_PCOD8287569
_publ_section_title
;
Structure prediction by ZEFSAII (Michael W. Deem and Ramdas Pophale) SiO2 
 PCOD8287569
Probable space group: I M M M
;
_chemical_formula_sum "Si O2"
_cell_formula_units_Z 88
_cell_length_a 16.883222
_cell_length_b 21.315374
_cell_length_c 16.802357
_cell_angle_alpha 90.000000
_cell_angle_beta 90.000000
_cell_angle_gamma 90.000000
_cell_volume 6046.701032
_symmetry_space_group_name_H-M "I M M M"
_symmetry_group_IT_number 71
_symmetry_cell_setting 'orthorhombic'
loop_
_space_group_symop_operation_xyz
x,y,z
-x,-y,z
x,-y,-z
-x,y,-z
-x,-y,-z
x,y,-z
-x,y,z
x,-y,z
1/2+x,1/2+y,1/2+z
1/2-x,1/2-y,1/2+z
1/2+x,1/2-y,1/2-z
1/2-x,1/2+y,1/2-z
1/2-x,1/2-y,1/2-z
1/2+x,1/2+y,1/2-z
1/2-x,1/2+y,1/2+z
1/2+x,1/2-y,1/2+z
loop_
_atom_site_type_symbol
_atom_site_label
_atom_site_fract_x
_atom_site_fract_y
_atom_site_fract_z
Si Si1 0.410581 0.265610 0.408839
Si Si2 0.412548 0.500000 0.405680
Si Si3 0.592118 0.866447 0.340511
Si Si4 0.807421 0.885250 0.093386
Si Si5 0.000000 0.574134 0.588247
Si Si6 0.594101 0.929725 0.500000
Si Si7 0.153613 0.575243 0.684042
O O1 0.399563 0.242378 0.500000
O O2 0.500000 0.292157 0.398785
O O3 0.396932 0.208398 0.347932
O O4 0.347450 0.318838 0.387451
O O5 0.500000 0.500000 0.367417
O O6 0.419170 0.500000 0.500000
O O7 0.366928 0.561395 0.376057
O O8 0.500000 0.884290 0.326315
O O9 0.626126 0.896204 0.421276
O O10 0.645582 0.895565 0.271367
O O11 0.727230 0.891820 0.142117
O O12 0.788664 0.893198 0.000000
O O13 0.922601 0.596918 0.634378
O O14 0.000000 0.500000 0.582129
O O15 0.000000 0.603925 0.500000
O O16 0.500000 0.926459 0.500000
O O17 0.626526 0.000000 0.500000
O O18 0.162981 0.500000 0.687715
#
# Coordination Sequence:
#
# PCOD8287569 Si02
#       7
#    16   8  16  16   8   8  16
#     4   9  17  31  49  68  91 121 154 188 232 287
#     4   9  16  28  46  67  89 116 151 189 229 274
#     4  10  18  30  46  66  92 123 157 191 229 279
#     4  10  19  30  46  67  93 123 155 190 231 273
#     4   9  18  30  44  59  85 127 165 189 218 257
#     4   9  16  26  44  66  88 117 153 191 232 272
#     4  11  20  30  44  66  95 125 158 195 226 267
#
# _framework density 14.553391
#
# number of rings (size 3 to 8) (size 9 to 14) (size 15 to 20)
#    0.000    2.273    2.727    1.636    0.000    4.364 
#    0.000    0.000    0.000    0.000    0.000    0.000 
#    0.000    0.000    0.000    3.364    0.000    0.000 
#
# Total GULP energy -545540.142618 kJ/mol
# GULP energy per Si atom -12398.639605 kJ/mol
# Density = 1.452027 g / cm^3
# Si number density = 14.553391 Si / 1000 Ang^3
#
#
#
# Elastic Constant Matrix: (Units=GPa)
#
#
# Indices 1 2 3 4 5 6 
#
# 1 99.8551 42.7931 48.4446 0.0000 0.0000 0.0000
# 2 42.7931 76.3639 40.2868 0.0000 0.0000 0.0000
# 3 48.4446 40.2868 89.8802 -0.0001 0.0001 0.0000
# 4 0.0000 0.0000 -0.0001 19.4321 0.0000 0.0000
# 5 0.0000 0.0000 0.0001 0.0000 15.8280 0.0000
# 6 0.0000 0.0000 0.0000 0.0000 0.0000 16.1250
#
#
#
# Elastic Compliance Matrix: (Units=1/GPa)
#
#
# Indices 1 2 3 4 5 6 
#
# 1 0.015123 -0.005467 -0.005701 0.000000 0.000000 0.000000
# 2 -0.005467 0.019127 -0.005627 0.000000 0.000000 0.000000
# 3 -0.005701 -0.005627 0.016721 0.000000 0.000000 0.000000
# 4 0.000000 0.000000 0.000000 0.051461 0.000000 0.000000
# 5 0.000000 0.000000 0.000000 0.000000 0.063179 0.000000
# 6 0.000000 0.000000 0.000000 0.000000 0.000000 0.062015
#
#
# Mechanical properties :
#
#
# Convention : Reuss Voigt Hill
#
# Bulk Modulus (GPa) = 57.53093 58.79423 58.16258
# Shear Modulus (GPa) = 18.72588 19.24867 18.98728
#
# Velocity S-wave (km/s) = 3.59096 3.64074 3.61593
# Velocity P-wave (km/s) = 7.53724 7.62627 7.58189
#
# Compressibility (1/GPa) = 0.01738195
#
# Stress axis : x y z
#
# Youngs Moduli (GPa) = 66.12344 52.28108 59.80682
#
# Poissons Ratio (x) = 0.28584 0.34094
# Poissons Ratio (y) = 0.36152 0.33651
# Poissons Ratio (z) = 0.37695 0.29416
#
# Static dielectric constant tensor:
#      x y z
#    x 2.721560 0.000000 0.000000 
#    y 0.000000 2.782040 0.000000 
#    z 0.000000 0.000000 2.749750 
# 
# 
# High freq. dielectric constant tensor:
#      x y z
#    x 1.539310 0.000000 0.000000 
#    y 0.000000 1.554060 0.000000 
#    z 0.000000 0.000000 1.540410 
# 
# From -- ./inp_files/34718.got.cif
#   From: 2010.06.25/outbox.cif.g09.slc.cpg/sg71_18_cif.got.tgz:34718.got - 2010.06.28 04:59:45.
