data_PCOD8287336
_publ_section_title
;
Structure prediction by ZEFSAII (Michael W. Deem and Ramdas Pophale) SiO2 
 PCOD8287336
Probable space group: I M M M
;
_chemical_formula_sum "Si O2"
_cell_formula_units_Z 80
_cell_length_a 24.097278
_cell_length_b 23.555412
_cell_length_c 9.065303
_cell_angle_alpha 90.000000
_cell_angle_beta 90.000000
_cell_angle_gamma 90.000000
_cell_volume 5145.659177
_symmetry_space_group_name_H-M "I M M M"
_symmetry_group_IT_number 71
_symmetry_cell_setting 'orthorhombic'
loop_
_space_group_symop_operation_xyz
x,y,z
-x,-y,z
x,-y,-z
-x,y,-z
-x,-y,-z
x,y,-z
-x,y,z
x,-y,z
1/2+x,1/2+y,1/2+z
1/2-x,1/2-y,1/2+z
1/2+x,1/2-y,1/2-z
1/2-x,1/2+y,1/2-z
1/2-x,1/2-y,1/2-z
1/2+x,1/2+y,1/2-z
1/2-x,1/2+y,1/2+z
1/2+x,1/2-y,1/2+z
loop_
_atom_site_type_symbol
_atom_site_label
_atom_site_fract_x
_atom_site_fract_y
_atom_site_fract_z
Si Si1 0.165180 0.728149 0.328844
Si Si2 0.343775 0.436331 0.330548
Si Si3 0.937101 0.125389 0.669916
Si Si4 0.224310 0.171071 0.169858
Si Si5 0.437799 0.744054 0.673135
O O1 0.151579 0.733463 0.500000
O O2 0.188565 0.788309 0.273552
O O3 0.210121 0.678704 0.296105
O O4 0.107588 0.713536 0.244690
O O5 0.362584 0.430304 0.500000
O O6 0.322981 0.500000 0.295606
O O7 0.396802 0.423454 0.229205
O O8 0.292768 0.393722 0.296129
O O9 0.923874 0.138863 0.500000
O O10 0.926614 0.181794 0.763468
O O11 0.000000 0.103650 0.689646
O O12 0.212289 0.187893 0.000000
O O13 0.428584 0.741559 0.500000
O O14 0.500000 0.765056 0.712964
#
# Coordination Sequence:
#
# PCOD8287336 Si02
#       5
#    16  16  16  16  16
#     4  10  18  28  46  68  89 114 144 180 220 264
#     4  10  20  33  48  64  85 116 153 188 220 259
#     4  10  20  32  45  62  85 114 151 192 228 259
#     4   9  18  31  45  64  89 116 147 180 219 264
#     4  10  19  30  45  65  90 118 146 179 221 267
#
# _framework density 15.547084999999999
#
# number of rings (size 3 to 8) (size 9 to 14) (size 15 to 20)
#    0.000    2.200    2.000    1.800    0.000    4.000 
#    0.000    2.000    0.000    0.000    0.000    0.000 
#    0.000    0.800    0.000   10.000    0.000    1.600 
#
# Total GULP energy -495940.013400 kJ/mol
# GULP energy per Si atom -12398.500335 kJ/mol
# Density = 1.551170 g / cm^3
# Si number density = 15.547085 Si / 1000 Ang^3
#
#
#
# Elastic Constant Matrix: (Units=GPa)
#
#
# Indices 1 2 3 4 5 6 
#
# 1 130.5255 55.5968 59.8412 0.0000 0.0000 0.0000
# 2 55.5968 65.5937 28.8907 0.0000 0.0000 0.0000
# 3 59.8412 28.8907 79.2936 0.0000 0.0000 0.0000
# 4 0.0000 0.0000 0.0000 14.8163 0.0000 0.0000
# 5 0.0000 0.0000 0.0000 0.0000 28.6024 0.0000
# 6 0.0000 0.0000 0.0000 0.0000 0.0000 21.1208
#
#
#
# Elastic Compliance Matrix: (Units=1/GPa)
#
#
# Indices 1 2 3 4 5 6 
#
# 1 0.015474 -0.009496 -0.008218 0.000000 0.000000 0.000000
# 2 -0.009496 0.023987 -0.001573 0.000000 0.000000 0.000000
# 3 -0.008218 -0.001573 0.019386 0.000000 0.000000 0.000000
# 4 0.000000 0.000000 0.000000 0.067493 0.000000 0.000000
# 5 0.000000 0.000000 0.000000 0.000000 0.034962 0.000000
# 6 0.000000 0.000000 0.000000 0.000000 0.000000 0.047347
#
#
# Mechanical properties :
#
#
# Convention : Reuss Voigt Hill
#
# Bulk Modulus (GPa) = 49.32667 62.67444 56.00056
# Shear Modulus (GPa) = 19.68657 21.64687 20.66672
#
# Velocity S-wave (km/s) = 3.56231 3.73546 3.64991
# Velocity P-wave (km/s) = 6.97970 7.68147 7.33898
#
# Compressibility (1/GPa) = 0.02027301
#
# Stress axis : x y z
#
# Youngs Moduli (GPa) = 64.62628 41.68933 51.58256
#
# Poissons Ratio (x) = 0.39587 0.42389
# Poissons Ratio (y) = 0.61368 0.08116
# Poissons Ratio (z) = 0.53108 0.06559
#
# Static dielectric constant tensor:
#      x y z
#    x 3.282260 0.000000 0.000000 
#    y 0.000000 2.693840 0.000000 
#    z 0.000000 0.000000 3.090950 
# 
# 
# High freq. dielectric constant tensor:
#      x y z
#    x 1.601910 0.000000 0.000000 
#    y 0.000000 1.544380 0.000000 
#    z 0.000000 0.000000 1.610720 
# 
# From -- ./inp_files/11251.got.cif
#   From: 2010.06.25/outbox.cif.g09.slc.cpg/sg71_6_cif.got.tgz:11251.got - 2010.06.28 04:59:45.
