data_PCOD8287402
_publ_section_title
;
Structure prediction by ZEFSAII (Michael W. Deem and Ramdas Pophale) SiO2 
 PCOD8287402
Probable space group: I M M M
;
_chemical_formula_sum "Si O2"
_cell_formula_units_Z 80
_cell_length_a 26.070665
_cell_length_b 8.883767
_cell_length_c 23.766255
_cell_angle_alpha 90.000000
_cell_angle_beta 90.000000
_cell_angle_gamma 90.000000
_cell_volume 5504.400444
_symmetry_space_group_name_H-M "I M M M"
_symmetry_group_IT_number 71
_symmetry_cell_setting 'orthorhombic'
loop_
_space_group_symop_operation_xyz
x,y,z
-x,-y,z
x,-y,-z
-x,y,-z
-x,-y,-z
x,y,-z
-x,y,z
x,-y,z
1/2+x,1/2+y,1/2+z
1/2-x,1/2-y,1/2+z
1/2+x,1/2-y,1/2-z
1/2-x,1/2+y,1/2-z
1/2-x,1/2-y,1/2-z
1/2+x,1/2+y,1/2-z
1/2-x,1/2+y,1/2+z
1/2+x,1/2-y,1/2+z
loop_
_atom_site_type_symbol
_atom_site_label
_atom_site_fract_x
_atom_site_fract_y
_atom_site_fract_z
Si Si1 0.601377 0.322588 0.500000
Si Si2 0.795347 0.172969 0.718443
Si Si3 0.237658 0.322363 0.885782
Si Si4 0.143028 0.822313 0.819625
Si Si5 0.559475 0.825779 0.611498
Si Si6 0.720606 0.677353 0.500000
O O1 0.593949 0.500000 0.500000
O O2 0.574102 0.256261 0.445736
O O3 0.660934 0.277639 0.500000
O O4 0.750000 0.250000 0.750000
O O5 0.789392 0.211438 0.651938
O O6 0.847728 0.213585 0.752464
O O7 0.784405 0.000000 0.727286
O O8 0.227591 0.500000 0.891966
O O9 0.187862 0.246568 0.858064
O O10 0.248260 0.248750 0.945961
O O11 0.089539 0.746263 0.835990
O O12 0.140556 0.000000 0.831952
O O13 0.500000 0.801942 0.624383
O O14 0.573893 0.000000 0.605414
O O15 0.729023 0.500000 0.500000
#
# Coordination Sequence:
#
# PCOD8287402 Si02
#       6
#     8  16  16  16  16   8
#     4  11  22  34  47  60  79 108 144 185 223 255
#     4   8  16  28  43  63  83 103 132 167 205 249
#     4  10  18  29  45  63  83 110 139 169 207 251
#     4  10  18  30  46  63  83 106 135 174 213 252
#     4  11  23  35  46  61  81 107 143 184 220 255
#     4  11  21  30  42  63  87 112 142 180 213 245
#
# _framework density 14.533825999999999
#
# number of rings (size 3 to 8) (size 9 to 14) (size 15 to 20)
#    0.000    2.000    2.000    2.700    0.000    5.200 
#    0.000    0.000    0.000    0.000    0.000    0.000 
#    0.000    0.000    0.000    0.900    0.000   18.800 
#
# Total GULP energy -495618.436388 kJ/mol
# GULP energy per Si atom -12390.460910 kJ/mol
# Density = 1.450075 g / cm^3
# Si number density = 14.533826 Si / 1000 Ang^3
#
#
#
# Elastic Constant Matrix: (Units=GPa)
#
#
# Indices 1 2 3 4 5 6 
#
# 1 58.5901 36.9651 57.8370 0.0000 0.0000 0.0000
# 2 36.9651 72.0879 49.3792 0.0000 0.0000 0.0000
# 3 57.8370 49.3792 115.8538 0.0000 0.0000 0.0000
# 4 0.0000 0.0000 0.0000 21.1824 0.0000 0.0000
# 5 0.0000 0.0000 0.0000 0.0000 19.6141 0.0000
# 6 0.0000 0.0000 0.0000 0.0000 0.0000 18.6134
#
#
#
# Elastic Compliance Matrix: (Units=1/GPa)
#
#
# Indices 1 2 3 4 5 6 
#
# 1 0.037389 -0.009020 -0.014821 0.000000 0.000000 0.000000
# 2 -0.009020 0.021768 -0.004775 0.000000 0.000000 0.000000
# 3 -0.014821 -0.004775 0.018066 0.000000 0.000000 0.000000
# 4 0.000000 0.000000 0.000000 0.047209 0.000000 0.000000
# 5 0.000000 0.000000 0.000000 0.000000 0.050984 0.000000
# 6 0.000000 0.000000 0.000000 0.000000 0.000000 0.053725
#
#
# Mechanical properties :
#
#
# Convention : Reuss Voigt Hill
#
# Bulk Modulus (GPa) = 50.02302 59.43272 54.72787
# Shear Modulus (GPa) = 17.06276 18.70535 17.88406
#
# Velocity S-wave (km/s) = 3.43009 3.59140 3.51167
# Velocity P-wave (km/s) = 7.08381 7.62752 7.36069
#
# Compressibility (1/GPa) = 0.01999080
#
# Stress axis : x y z
#
# Youngs Moduli (GPa) = 26.74580 45.93897 55.35355
#
# Poissons Ratio (x) = 0.41438 0.82039
# Poissons Ratio (y) = 0.24125 0.26431
# Poissons Ratio (z) = 0.39640 0.21935
#
# Static dielectric constant tensor:
#      x y z
#    x 2.778520 0.000000 0.000000 
#    y 0.000000 2.152430 0.000000 
#    z 0.000000 0.000000 3.244930 
# 
# 
# High freq. dielectric constant tensor:
#      x y z
#    x 1.510720 0.000000 0.000000 
#    y 0.000000 1.577890 0.000000 
#    z 0.000000 0.000000 1.553980 
# 
# From -- ./inp_files/10730.got.cif
#   From: 2010.06.25/outbox.cif.g09.slc.cpg/sg71_6_cif.got.tgz:10730.got - 2010.06.28 04:59:45.
