data_PCOD8287854
_publ_section_title
;
Structure prediction by ZEFSAII (Michael W. Deem and Ramdas Pophale) SiO2 
 PCOD8287854
Probable space group: I M M M
;
_chemical_formula_sum "Si O2"
_cell_formula_units_Z 128
_cell_length_a 19.890769
_cell_length_b 20.027462
_cell_length_c 18.835641
_cell_angle_alpha 90.000000
_cell_angle_beta 90.000000
_cell_angle_gamma 90.000000
_cell_volume 7503.396468
_symmetry_space_group_name_H-M "I M M M"
_symmetry_group_IT_number 71
_symmetry_cell_setting 'orthorhombic'
loop_
_space_group_symop_operation_xyz
x,y,z
-x,-y,z
x,-y,-z
-x,y,-z
-x,-y,-z
x,y,-z
-x,y,z
x,-y,z
1/2+x,1/2+y,1/2+z
1/2-x,1/2-y,1/2+z
1/2+x,1/2-y,1/2-z
1/2-x,1/2+y,1/2-z
1/2-x,1/2-y,1/2-z
1/2+x,1/2+y,1/2-z
1/2-x,1/2+y,1/2+z
1/2+x,1/2-y,1/2+z
loop_
_atom_site_type_symbol
_atom_site_label
_atom_site_fract_x
_atom_site_fract_y
_atom_site_fract_z
Si Si1 0.574153 0.310347 0.319954
Si Si2 0.238518 0.223419 0.421702
Si Si3 0.696891 0.922439 0.222683
Si Si4 0.384555 0.575753 0.579863
Si Si5 0.235467 0.379372 0.421370
Si Si6 0.924846 0.423887 0.179445
Si Si7 0.890052 0.310128 0.080086
Si Si8 0.204033 0.188307 0.273900
O O1 0.500000 0.307115 0.284429
O O2 0.577758 0.378419 0.364155
O O3 0.580908 0.248914 0.372965
O O4 0.630305 0.307315 0.259272
O O5 0.205918 0.211240 0.500000
O O6 0.250822 0.301704 0.408532
O O7 0.309849 0.187476 0.417112
O O8 0.192908 0.192217 0.359290
O O9 0.685312 0.906987 0.138940
O O10 0.628083 0.900157 0.260845
O O11 0.760175 0.880660 0.252161
O O12 0.712841 0.000000 0.235615
O O13 0.405420 0.596892 0.500000
O O14 0.406037 0.500000 0.595462
O O15 0.304606 0.581372 0.587948
O O16 0.204475 0.391709 0.500000
O O17 0.911073 0.500000 0.157115
O O18 0.916812 0.380445 0.108816
O O19 0.000000 0.415299 0.210967
O O20 0.916033 0.300439 0.000000
O O21 0.250000 0.250000 0.250000
#
# Coordination Sequence:
#
# PCOD8287854 Si02
#       8
#    16  16  16  16  16  16  16  16
#     4  12  24  34  50  79 109 138 176 214 252 304
#     4  10  19  33  57  82 103 131 174 222 262 302
#     4  11  20  32  54  79 102 136 176 218 257 302
#     4  10  19  32  49  71 107 150 180 204 243 298
#     4  10  18  31  53  79 105 135 175 219 259 303
#     4  10  22  37  51  73 104 137 172 212 265 316
#     4  11  20  34  54  76 102 136 175 212 251 301
#     4  12  19  36  58  75 101 138 176 214 260 302
#
# _framework density 17.058941999999998
#
# number of rings (size 3 to 8) (size 9 to 14) (size 15 to 20)
#    0.000    1.250    6.250    1.125    0.000    3.000 
#    0.000    1.250    0.000    1.125    0.000    3.500 
#    0.000    0.000    0.000    2.250    0.000    0.000 
#
# Total GULP energy -793552.826418 kJ/mol
# GULP energy per Si atom -12399.262913 kJ/mol
# Density = 1.702012 g / cm^3
# Si number density = 17.058942 Si / 1000 Ang^3
#
#
#
# Elastic Constant Matrix: (Units=GPa)
#
#
# Indices 1 2 3 4 5 6 
#
# 1 103.1840 34.8403 59.5499 0.0000 0.0000 0.0000
# 2 34.8403 78.6781 46.1959 0.0000 0.0000 0.0000
# 3 59.5499 46.1959 122.9506 0.0000 0.0000 0.0000
# 4 0.0000 0.0000 0.0000 25.2904 0.0000 0.0000
# 5 0.0000 0.0000 0.0000 0.0000 20.1338 0.0000
# 6 0.0000 0.0000 0.0000 0.0000 0.0000 10.8138
#
#
#
# Elastic Compliance Matrix: (Units=1/GPa)
#
#
# Indices 1 2 3 4 5 6 
#
# 1 0.013926 -0.002831 -0.005681 0.000000 0.000000 0.000000
# 2 -0.002831 0.016883 -0.004972 0.000000 0.000000 0.000000
# 3 -0.005681 -0.004972 0.012753 0.000000 0.000000 0.000000
# 4 0.000000 0.000000 0.000000 0.039541 0.000000 0.000000
# 5 0.000000 0.000000 0.000000 0.000000 0.049668 0.000000
# 6 0.000000 0.000000 0.000000 0.000000 0.000000 0.092474
#
#
# Mechanical properties :
#
#
# Convention : Reuss Voigt Hill
#
# Bulk Modulus (GPa) = 60.26517 65.10944 62.68730
# Shear Modulus (GPa) = 19.39898 22.19604 20.79751
#
# Velocity S-wave (km/s) = 3.37586 3.61104 3.49543
# Velocity P-wave (km/s) = 7.11334 7.45898 7.28821
#
# Compressibility (1/GPa) = 0.01659333
#
# Stress axis : x y z
#
# Youngs Moduli (GPa) = 71.80745 59.23079 78.41146
#
# Poissons Ratio (x) = 0.16768 0.44548
# Poissons Ratio (y) = 0.20329 0.38988
# Poissons Ratio (z) = 0.40796 0.29451
#
# Static dielectric constant tensor:
#      x y z
#    x 3.035820 0.000000 0.000000 
#    y 0.000000 3.275360 0.000000 
#    z 0.000000 0.000000 3.475530 
# 
# 
# High freq. dielectric constant tensor:
#      x y z
#    x 1.627540 0.000000 0.000000 
#    y 0.000000 1.666240 0.000000 
#    z 0.000000 0.000000 1.655940 
# 
# From -- ./inp_files/47717.got.cif
#   From: 2010.06.25/outbox.cif.g09.slc.cpg/sg71_24_cif.got.tgz:47717.got - 2010.06.28 04:59:45.
