data_PCOD8287927
_publ_section_title
;
Structure prediction by ZEFSAII (Michael W. Deem and Ramdas Pophale) SiO2 
 PCOD8287927
Probable space group: I M M M
;
_chemical_formula_sum "Si O2"
_cell_formula_units_Z 72
_cell_length_a 9.185531
_cell_length_b 14.441608
_cell_length_c 30.450584
_cell_angle_alpha 90.000000
_cell_angle_beta 90.000000
_cell_angle_gamma 90.000000
_cell_volume 4039.386836
_symmetry_space_group_name_H-M "I M M M"
_symmetry_group_IT_number 71
_symmetry_cell_setting 'orthorhombic'
loop_
_space_group_symop_operation_xyz
x,y,z
-x,-y,z
x,-y,-z
-x,y,-z
-x,-y,-z
x,y,-z
-x,y,z
x,-y,z
1/2+x,1/2+y,1/2+z
1/2-x,1/2-y,1/2+z
1/2+x,1/2-y,1/2-z
1/2-x,1/2+y,1/2-z
1/2-x,1/2-y,1/2-z
1/2+x,1/2+y,1/2-z
1/2-x,1/2+y,1/2+z
1/2+x,1/2-y,1/2+z
loop_
_atom_site_type_symbol
_atom_site_label
_atom_site_fract_x
_atom_site_fract_y
_atom_site_fract_z
Si Si1 0.171327 0.317798 0.449895
Si Si2 0.826350 0.000000 0.337336
Si Si3 0.172089 0.806184 0.627974
Si Si4 0.669650 0.802763 0.211772
Si Si5 0.167687 0.500000 0.254647
Si Si6 0.336345 0.500000 0.552090
O O1 0.214667 0.293952 0.500000
O O2 0.222326 0.231550 0.419647
O O3 0.251989 0.408839 0.431768
O O4 0.000000 0.336933 0.445632
O O5 0.766994 0.090398 0.363310
O O6 0.767319 0.000000 0.288137
O O7 0.000000 0.000000 0.334158
O O8 0.228784 0.735487 0.665341
O O9 0.000000 0.810388 0.629448
O O10 0.500000 0.781308 0.216987
O O11 0.750000 0.750000 0.250000
O O12 0.703083 0.911777 0.214978
O O13 0.000000 0.500000 0.239105
O O14 0.500000 0.500000 0.571222
O O15 0.338258 0.500000 0.500000
#
# Coordination Sequence:
#
# PCOD8287927 Si02
#       6
#    16   8  16  16   8   8
#     4   9  17  31  51  74 100 132 169 204 240 291
#     4  10  18  32  52  71  94 130 167 197 241 295
#     4   9  18  31  50  74  98 128 166 203 244 290
#     4  10  19  32  49  71  98 128 162 201 245 292
#     4  10  20  31  47  72  99 126 161 202 244 288
#     4   9  17  30  49  73 100 129 160 199 250 298
#
# _framework density 17.824487000000001
#
# number of rings (size 3 to 8) (size 9 to 14) (size 15 to 20)
#    0.000    2.556    2.222    0.333    0.000    2.222 
#    0.000    6.111    0.000    4.667    0.000    0.000 
#    0.000    4.444    0.000    0.000    0.000    0.000 
#
# Total GULP energy -446285.364864 kJ/mol
# GULP energy per Si atom -12396.815691 kJ/mol
# Density = 1.778392 g / cm^3
# Si number density = 17.824487 Si / 1000 Ang^3
#
#
#
# Elastic Constant Matrix: (Units=GPa)
#
#
# Indices 1 2 3 4 5 6 
#
# 1 34.3175 32.6923 23.8519 0.0000 0.0000 0.0000
# 2 32.6923 175.4607 81.5458 0.0000 0.0000 0.0000
# 3 23.8519 81.5458 113.5900 0.0000 0.0000 0.0000
# 4 0.0000 0.0000 0.0000 29.3556 0.0000 0.0000
# 5 0.0000 0.0000 0.0000 0.0000 18.4491 0.0000
# 6 0.0000 0.0000 0.0000 0.0000 0.0000 17.8615
#
#
#
# Elastic Compliance Matrix: (Units=1/GPa)
#
#
# Indices 1 2 3 4 5 6 
#
# 1 0.036716 -0.004889 -0.004200 0.000000 0.000000 0.000000
# 2 -0.004889 0.009204 -0.005581 0.000000 0.000000 0.000000
# 3 -0.004200 -0.005581 0.013692 0.000000 0.000000 0.000000
# 4 0.000000 0.000000 0.000000 0.034065 0.000000 0.000000
# 5 0.000000 0.000000 0.000000 0.000000 0.054203 0.000000
# 6 0.000000 0.000000 0.000000 0.000000 0.000000 0.055986
#
#
# Mechanical properties :
#
#
# Convention : Reuss Voigt Hill
#
# Bulk Modulus (GPa) = 33.03331 66.61647 49.82489
# Shear Modulus (GPa) = 20.55098 25.48513 23.01806
#
# Velocity S-wave (km/s) = 3.39922 3.78535 3.59747
# Velocity P-wave (km/s) = 5.82915 7.52063 6.72826
#
# Compressibility (1/GPa) = 0.03027248
#
# Stress axis : x y z
#
# Youngs Moduli (GPa) = 27.23582 108.64897 73.03556
#
# Poissons Ratio (x) = 0.53120 0.30674
# Poissons Ratio (y) = 0.13316 0.40760
# Poissons Ratio (z) = 0.11439 0.60635
#
# Static dielectric constant tensor:
#      x y z
#    x 3.127430 0.000000 0.000000 
#    y 0.000000 4.017720 0.000000 
#    z 0.000000 0.000000 3.343280 
# 
# 
# High freq. dielectric constant tensor:
#      x y z
#    x 1.661300 0.000000 0.000000 
#    y 0.000000 1.699390 0.000000 
#    z 0.000000 0.000000 1.677820 
# 
# From -- ./inp_files/6514.got.cif
#   From: 2010.06.25/outbox.cif.g09.slc.cpg/sg71_4_cif.got.tgz:6514.got - 2010.06.28 04:59:45.
