data_PCOD8287627
_publ_section_title
;
Structure prediction by ZEFSAII (Michael W. Deem and Ramdas Pophale) SiO2 
 PCOD8287627
Probable space group: I M M M
;
_chemical_formula_sum "Si O2"
_cell_formula_units_Z 104
_cell_length_a 21.568777
_cell_length_b 14.360879
_cell_length_c 17.518411
_cell_angle_alpha 90.000000
_cell_angle_beta 90.000000
_cell_angle_gamma 90.000000
_cell_volume 5426.268186
_symmetry_space_group_name_H-M "I M M M"
_symmetry_group_IT_number 71
_symmetry_cell_setting 'orthorhombic'
loop_
_space_group_symop_operation_xyz
x,y,z
-x,-y,z
x,-y,-z
-x,y,-z
-x,-y,-z
x,y,-z
-x,y,z
x,-y,z
1/2+x,1/2+y,1/2+z
1/2-x,1/2-y,1/2+z
1/2+x,1/2-y,1/2-z
1/2-x,1/2+y,1/2-z
1/2-x,1/2-y,1/2-z
1/2+x,1/2+y,1/2-z
1/2-x,1/2+y,1/2+z
1/2+x,1/2-y,1/2+z
loop_
_atom_site_type_symbol
_atom_site_label
_atom_site_fract_x
_atom_site_fract_y
_atom_site_fract_z
Si Si1 0.618255 0.207453 0.412357
Si Si2 0.570628 0.394653 0.799147
Si Si3 0.500000 0.105274 0.591353
Si Si4 0.852990 0.104010 0.851894
Si Si5 0.736594 0.103750 0.590604
Si Si6 0.719275 0.104681 0.087880
Si Si7 0.144258 0.217831 0.411005
O O1 0.617729 0.179886 0.500000
O O2 0.559446 0.157896 0.373507
O O3 0.614124 0.318822 0.404174
O O4 0.680684 0.165545 0.374571
O O5 0.500000 0.378016 0.770026
O O6 0.576498 0.500000 0.831948
O O7 0.621247 0.380659 0.732844
O O8 0.584625 0.317450 0.864111
O O9 0.500000 0.109363 0.500000
O O10 0.500000 0.000000 0.621164
O O11 0.778589 0.117992 0.856942
O O12 0.870237 0.000000 0.881447
O O13 0.731607 0.101016 0.500000
O O14 0.800782 0.149454 0.614822
O O15 0.732948 0.000000 0.625225
O O16 0.664665 0.176542 0.110267
O O17 0.692660 0.000000 0.095689
O O18 0.740613 0.124871 0.000000
O O19 0.128051 0.209883 0.500000
#
# Coordination Sequence:
#
# PCOD8287627 Si02
#       7
#    16  16   8  16  16  16  16
#     4  10  18  30  48  73 103 140 184 225 265 313
#     4  10  23  40  55  75 106 146 186 225 275 327
#     4   9  18  30  45  67  99 141 185 224 264 314
#     4  10  20  34  53  75 106 146 182 216 261 319
#     4   9  16  27  46  74 106 134 165 215 271 317
#     4   9  17  32  56  86 117 143 171 214 268 324
#     4  10  19  34  58  85 107 133 174 223 279 334
#
# _framework density 19.166027
#
# number of rings (size 3 to 8) (size 9 to 14) (size 15 to 20)
#    0.000    2.385    1.538    1.385    1.077    4.615 
#    0.000    0.769    0.000    2.769    0.000    2.154 
#    0.000    0.000    0.000    0.000    0.000    0.000 
#
# Total GULP energy -644522.914756 kJ/mol
# GULP energy per Si atom -12394.671438 kJ/mol
# Density = 1.912240 g / cm^3
# Si number density = 19.166027 Si / 1000 Ang^3
#
#
#
# Elastic Constant Matrix: (Units=GPa)
#
#
# Indices 1 2 3 4 5 6 
#
# 1 65.6517 36.0088 25.2050 0.0000 0.0000 0.0000
# 2 36.0088 137.4584 16.6630 0.0000 0.0000 0.0000
# 3 25.2050 16.6630 35.6556 0.0000 0.0000 0.0000
# 4 0.0000 0.0000 0.0000 18.1990 0.0000 0.0000
# 5 0.0000 0.0000 0.0000 0.0000 22.3399 0.0000
# 6 0.0000 0.0000 0.0000 0.0000 0.0000 34.2898
#
#
#
# Elastic Compliance Matrix: (Units=1/GPa)
#
#
# Indices 1 2 3 4 5 6 
#
# 1 0.023091 -0.004315 -0.014307 0.000000 0.000000 0.000000
# 2 -0.004315 0.008518 -0.000931 0.000000 0.000000 0.000000
# 3 -0.014307 -0.000931 0.038594 0.000000 0.000000 0.000000
# 4 0.000000 0.000000 0.000000 0.054948 0.000000 0.000000
# 5 0.000000 0.000000 0.000000 0.000000 0.044763 0.000000
# 6 0.000000 0.000000 0.000000 0.000000 0.000000 0.029163
#
#
# Mechanical properties :
#
#
# Convention : Reuss Voigt Hill
#
# Bulk Modulus (GPa) = 32.15495 43.83547 37.99521
# Shear Modulus (GPa) = 20.11683 25.69169 22.90426
#
# Velocity S-wave (km/s) = 3.24328 3.66523 3.46069
# Velocity P-wave (km/s) = 5.55326 6.39007 5.98630
#
# Compressibility (1/GPa) = 0.03109941
#
# Stress axis : x y z
#
# Youngs Moduli (GPa) = 43.30688 117.39811 25.91045
#
# Poissons Ratio (x) = 0.50653 0.37069
# Poissons Ratio (y) = 0.18686 0.02411
# Poissons Ratio (z) = 0.61958 0.10926
#
# Static dielectric constant tensor:
#      x y z
#    x 3.449840 0.000000 0.000000 
#    y 0.000000 3.776550 0.000000 
#    z 0.000000 0.000000 3.007170 
# 
# 
# High freq. dielectric constant tensor:
#      x y z
#    x 1.729680 0.000000 0.000000 
#    y 0.000000 1.762900 0.000000 
#    z 0.000000 0.000000 1.693810 
# 
# From -- ./inp_files/47312.got.cif
#   From: 2010.06.25/outbox.cif.g09.slc.cpg/sg71_24_cif.got.tgz:47312.got - 2010.06.28 04:59:45.
