data_PCOD8287373
_publ_section_title
;
Structure prediction by ZEFSAII (Michael W. Deem and Ramdas Pophale) SiO2 
 PCOD8287373
Probable space group: I M M M
;
_chemical_formula_sum "Si O2"
_cell_formula_units_Z 88
_cell_length_a 23.774007
_cell_length_b 23.429675
_cell_length_c 10.458716
_cell_angle_alpha 90.000000
_cell_angle_beta 90.000000
_cell_angle_gamma 90.000000
_cell_volume 5825.685303
_symmetry_space_group_name_H-M "I M M M"
_symmetry_group_IT_number 71
_symmetry_cell_setting 'orthorhombic'
loop_
_space_group_symop_operation_xyz
x,y,z
-x,-y,z
x,-y,-z
-x,y,-z
-x,-y,-z
x,y,-z
-x,y,z
x,-y,z
1/2+x,1/2+y,1/2+z
1/2-x,1/2-y,1/2+z
1/2+x,1/2-y,1/2-z
1/2-x,1/2+y,1/2-z
1/2-x,1/2-y,1/2-z
1/2+x,1/2+y,1/2-z
1/2-x,1/2+y,1/2+z
1/2+x,1/2-y,1/2+z
loop_
_atom_site_type_symbol
_atom_site_label
_atom_site_fract_x
_atom_site_fract_y
_atom_site_fract_z
Si Si1 0.561671 0.239415 0.853910
Si Si2 0.935889 0.384123 0.738573
Si Si3 0.329772 0.937666 0.144498
Si Si4 0.757222 0.667185 0.648465
Si Si5 0.178350 0.215777 0.645480
Si Si6 0.066431 0.563349 0.000000
O O1 0.500000 0.267536 0.827944
O O2 0.569089 0.183885 0.766807
O O3 0.611194 0.284631 0.826256
O O4 0.565928 0.218020 0.000000
O O5 0.894432 0.416470 0.642424
O O6 0.000000 0.404151 0.711331
O O7 0.913177 0.401751 0.877681
O O8 0.288651 0.889242 0.202022
O O9 0.323485 0.000000 0.213326
O O10 0.311020 0.945374 0.000000
O O11 0.736749 0.661530 0.500000
O O12 0.800269 0.719561 0.659971
O O13 0.705432 0.675744 0.746158
O O14 0.190683 0.193788 0.500000
O O15 0.093238 0.500000 0.000000
O O16 0.000000 0.558554 0.000000
#
# Coordination Sequence:
#
# PCOD8287373 Si02
#       6
#    16  16  16  16  16   8
#     4   9  16  27  45  67  88 108 134 175 222 258
#     4  10  18  29  42  56  80 114 149 182 214 250
#     4  10  19  30  44  62  84 109 142 185 223 252
#     4   9  17  30  44  61  85 113 145 179 215 254
#     4   9  16  29  47  64  84 111 143 178 213 258
#     4   9  18  30  38  46  70 112 152 182 212 246
#
# _framework density 15.105518
#
# number of rings (size 3 to 8) (size 9 to 14) (size 15 to 20)
#    0.000    2.636    1.818    1.091    0.000    2.182 
#    3.273    0.909    0.000    0.000    0.000    0.000 
#    0.000    0.727    0.000    9.091    0.000    0.000 
#
# Total GULP energy -545191.619903 kJ/mol
# GULP energy per Si atom -12390.718634 kJ/mol
# Density = 1.507114 g / cm^3
# Si number density = 15.105518 Si / 1000 Ang^3
#
#
#
# Elastic Constant Matrix: (Units=GPa)
#
#
# Indices 1 2 3 4 5 6 
#
# 1 103.4332 46.7357 42.5564 0.0000 0.0000 0.0000
# 2 46.7357 61.3885 25.6427 0.0000 0.0000 0.0000
# 3 42.5564 25.6427 59.7615 0.0000 0.0000 0.0000
# 4 0.0000 0.0000 0.0000 17.0716 0.0000 0.0000
# 5 0.0000 0.0000 0.0000 0.0000 20.1267 0.0000
# 6 0.0000 0.0000 0.0000 0.0000 0.0000 18.6545
#
#
#
# Elastic Compliance Matrix: (Units=1/GPa)
#
#
# Indices 1 2 3 4 5 6 
#
# 1 0.017533 -0.009909 -0.008234 0.000000 0.000000 0.000000
# 2 -0.009909 0.025447 -0.003863 0.000000 0.000000 0.000000
# 3 -0.008234 -0.003863 0.024254 0.000000 0.000000 0.000000
# 4 0.000000 0.000000 0.000000 0.058577 0.000000 0.000000
# 5 0.000000 0.000000 0.000000 0.000000 0.049685 0.000000
# 6 0.000000 0.000000 0.000000 0.000000 0.000000 0.053606
#
#
# Mechanical properties :
#
#
# Convention : Reuss Voigt Hill
#
# Bulk Modulus (GPa) = 43.06005 50.49475 46.77740
# Shear Modulus (GPa) = 17.80290 18.48046 18.14168
#
# Velocity S-wave (km/s) = 3.43675 3.50154 3.46930
# Velocity P-wave (km/s) = 6.65706 7.06033 6.86166
#
# Compressibility (1/GPa) = 0.02322338
#
# Stress axis : x y z
#
# Youngs Moduli (GPa) = 57.03572 39.29762 41.23070
#
# Poissons Ratio (x) = 0.38939 0.33948
# Poissons Ratio (y) = 0.56515 0.15926
# Poissons Ratio (z) = 0.46961 0.15180
#
# Static dielectric constant tensor:
#      x y z
#    x 2.912970 0.000000 0.000000 
#    y 0.000000 2.807450 0.000000 
#    z 0.000000 0.000000 2.993210 
# 
# 
# High freq. dielectric constant tensor:
#      x y z
#    x 1.564380 0.000000 0.000000 
#    y 0.000000 1.541240 0.000000 
#    z 0.000000 0.000000 1.572230 
# 
# From -- ./inp_files/25667.got.cif
#   From: 2010.06.25/outbox.cif.g09.slc.cpg/sg71_13_cif.got.tgz:25667.got - 2010.06.28 04:59:45.
