data_PCOD8287202
_publ_section_title
;
Structure prediction by ZEFSAII (Michael W. Deem and Ramdas Pophale) SiO2 
 PCOD8287202
Probable space group: I M M M
;
_chemical_formula_sum "Si O2"
_cell_formula_units_Z 80
_cell_length_a 18.476910
_cell_length_b 8.959375
_cell_length_c 36.899292
_cell_angle_alpha 90.000000
_cell_angle_beta 90.000000
_cell_angle_gamma 90.000000
_cell_volume 6108.366565
_symmetry_space_group_name_H-M "I M M M"
_symmetry_group_IT_number 71
_symmetry_cell_setting 'orthorhombic'
loop_
_space_group_symop_operation_xyz
x,y,z
-x,-y,z
x,-y,-z
-x,y,-z
-x,-y,-z
x,y,-z
-x,y,z
x,-y,z
1/2+x,1/2+y,1/2+z
1/2-x,1/2-y,1/2+z
1/2+x,1/2-y,1/2-z
1/2-x,1/2+y,1/2-z
1/2-x,1/2-y,1/2-z
1/2+x,1/2+y,1/2-z
1/2-x,1/2+y,1/2+z
1/2+x,1/2-y,1/2+z
loop_
_atom_site_type_symbol
_atom_site_label
_atom_site_fract_x
_atom_site_fract_y
_atom_site_fract_z
Si Si1 0.920516 0.175165 0.747308
Si Si2 0.585860 0.332569 0.039764
Si Si3 0.782475 0.175553 0.785338
Si Si4 0.163131 0.823328 0.323593
Si Si5 0.414837 0.172032 0.889198
O O1 0.869132 0.208063 0.782312
O O2 0.885606 0.236685 0.709940
O O3 0.000000 0.248189 0.753433
O O4 0.928951 0.000000 0.742184
O O5 0.500000 0.332671 0.039100
O O6 0.613903 0.500000 0.048127
O O7 0.613089 0.220375 0.070922
O O8 0.614499 0.280356 0.000000
O O9 0.750000 0.250000 0.750000
O O10 0.743948 0.251504 0.820044
O O11 0.766644 0.000000 0.785471
O O12 0.127214 0.772033 0.360588
O O13 0.171263 0.000000 0.323462
O O14 0.500000 0.202417 0.884779
O O15 0.395517 0.000000 0.883203
#
# Coordination Sequence:
#
# PCOD8287202 Si02
#       5
#    16  16  16  16  16
#     4   8  14  24  38  54  68  86 115 148 181 216
#     4   8  14  25  39  52  67  90 119 147 175 211
#     4   9  16  26  39  53  70  91 116 147 181 219
#     4  10  18  27  39  52  70  96 122 149 181 218
#     4  10  19  27  36  53  74  93 117 152 189 219
#
# _framework density 13.096791
#
# number of rings (size 3 to 8) (size 9 to 14) (size 15 to 20)
#    0.000    3.000    0.000    4.200    0.000    2.400 
#    0.000    2.000    0.000   12.000    0.000    0.000 
#    0.000    0.000    0.000    0.000    0.000    1.000 
#
# Total GULP energy -495561.192782 kJ/mol
# GULP energy per Si atom -12389.029820 kJ/mol
# Density = 1.306698 g / cm^3
# Si number density = 13.096791 Si / 1000 Ang^3
#
#
#
# Elastic Constant Matrix: (Units=GPa)
#
#
# Indices 1 2 3 4 5 6 
#
# 1 69.3122 28.1280 37.1886 0.0000 0.0000 0.0000
# 2 28.1280 61.4819 31.9927 0.0000 0.0000 0.0000
# 3 37.1886 31.9927 68.7832 0.0000 0.0000 0.0000
# 4 0.0000 0.0000 0.0000 21.8672 0.0000 0.0000
# 5 0.0000 0.0000 0.0000 0.0000 12.0684 0.0000
# 6 0.0000 0.0000 0.0000 0.0000 0.0000 14.2836
#
#
#
# Elastic Compliance Matrix: (Units=1/GPa)
#
#
# Indices 1 2 3 4 5 6 
#
# 1 0.021419 -0.004978 -0.009265 0.000000 0.000000 0.000000
# 2 -0.004978 0.022616 -0.007828 0.000000 0.000000 0.000000
# 3 -0.009265 -0.007828 0.023188 0.000000 0.000000 0.000000
# 4 0.000000 0.000000 0.000000 0.045731 0.000000 0.000000
# 5 0.000000 0.000000 0.000000 0.000000 0.082861 0.000000
# 6 0.000000 0.000000 0.000000 0.000000 0.000000 0.070011
#
#
# Mechanical properties :
#
#
# Convention : Reuss Voigt Hill
#
# Bulk Modulus (GPa) = 43.32451 43.79956 43.56203
# Shear Modulus (GPa) = 15.74012 16.46169 16.10090
#
# Velocity S-wave (km/s) = 3.47050 3.54916 3.51005
# Velocity P-wave (km/s) = 7.01507 7.09302 7.05415
#
# Compressibility (1/GPa) = 0.02308162
#
# Stress axis : x y z
#
# Youngs Moduli (GPa) = 46.68845 44.21738 43.12489
#
# Poissons Ratio (x) = 0.22011 0.39955
# Poissons Ratio (y) = 0.23241 0.33757
# Poissons Ratio (z) = 0.43256 0.34612
#
# Static dielectric constant tensor:
#      x y z
#    x 2.834790 0.000000 0.000000 
#    y 0.000000 2.689650 0.000000 
#    z 0.000000 0.000000 2.682640 
# 
# 
# High freq. dielectric constant tensor:
#      x y z
#    x 1.463400 0.000000 0.000000 
#    y 0.000000 1.500650 0.000000 
#    z 0.000000 0.000000 1.477220 
# 
# From -- ./inp_files/16529.got.cif
#   From: 2010.06.25/outbox.cif.g09.slc.cpg/sg71_9_cif.got.tgz:16529.got - 2010.06.28 04:59:45.
