data_PCOD8287314
_publ_section_title
;
Structure prediction by ZEFSAII (Michael W. Deem and Ramdas Pophale) SiO2 
 PCOD8287314
Probable space group: I M M M
;
_chemical_formula_sum "Si O2"
_cell_formula_units_Z 104
_cell_length_a 13.662273
_cell_length_b 20.293289
_cell_length_c 25.037929
_cell_angle_alpha 90.000000
_cell_angle_beta 90.000000
_cell_angle_gamma 90.000000
_cell_volume 6941.827268
_symmetry_space_group_name_H-M "I M M M"
_symmetry_group_IT_number 71
_symmetry_cell_setting 'orthorhombic'
loop_
_space_group_symop_operation_xyz
x,y,z
-x,-y,z
x,-y,-z
-x,y,-z
-x,-y,-z
x,y,-z
-x,y,z
x,-y,z
1/2+x,1/2+y,1/2+z
1/2-x,1/2-y,1/2+z
1/2+x,1/2-y,1/2-z
1/2-x,1/2+y,1/2-z
1/2-x,1/2-y,1/2-z
1/2+x,1/2+y,1/2-z
1/2-x,1/2+y,1/2+z
1/2+x,1/2-y,1/2+z
loop_
_atom_site_type_symbol
_atom_site_label
_atom_site_fract_x
_atom_site_fract_y
_atom_site_fract_z
Si Si1 0.606856 0.500000 0.820383
Si Si2 0.801186 0.367065 0.937818
Si Si3 0.887597 0.858737 0.372847
Si Si4 0.610507 0.868131 0.245295
Si Si5 0.890939 0.283837 0.851665
Si Si6 0.382636 0.000000 0.392438
Si Si7 0.292837 0.756875 0.191604
Si Si8 0.197040 0.500000 0.772481
O O1 0.500000 0.500000 0.793459
O O2 0.621018 0.565594 0.855242
O O3 0.685949 0.500000 0.774140
O O4 0.688469 0.351125 0.921638
O O5 0.878266 0.319625 0.908054
O O6 0.833123 0.439911 0.922764
O O7 0.812075 0.353994 0.000000
O O8 0.855151 0.807487 0.326255
O O9 0.000000 0.843100 0.390163
O O10 0.500000 0.888850 0.237735
O O11 0.626810 0.836269 0.303846
O O12 0.638231 0.820868 0.195237
O O13 0.671021 0.934913 0.239830
O O14 0.802667 0.230653 0.846326
O O15 0.000000 0.252449 0.847777
O O16 0.500000 0.000000 0.398229
O O17 0.354857 0.000000 0.330235
O O18 0.250000 0.750000 0.250000
#
# Coordination Sequence:
#
# PCOD8287314 Si02
#       8
#     8  16  16  16  16   8  16   8
#     4  10  18  29  46  60  78 112 149 186 226 260
#     4  11  21  31  43  62  86 114 153 196 229 263
#     4  10  19  33  48  62  84 115 151 191 231 266
#     4  10  18  28  45  64  84 112 144 180 224 269
#     4   9  17  29  43  60  84 113 142 179 224 265
#     4  12  21  31  45  59  83 118 152 191 236 269
#     4   9  17  29  44  65  85 106 141 186 223 270
#     4  12  18  31  45  64  89 115 147 186 223 272
#
# _framework density 14.981646
#
# number of rings (size 3 to 8) (size 9 to 14) (size 15 to 20)
#    0.000    1.846    3.077    3.692    0.000    2.462 
#    0.000    0.769    0.000    2.308    0.000    0.000 
#    0.000    0.000    0.000   11.077    0.000   61.846 
#
# Total GULP energy -644270.256747 kJ/mol
# GULP energy per Si atom -12389.812630 kJ/mol
# Density = 1.494755 g / cm^3
# Si number density = 14.981646 Si / 1000 Ang^3
#
#
#
# Elastic Constant Matrix: (Units=GPa)
#
#
# Indices 1 2 3 4 5 6 
#
# 1 111.4890 22.7909 24.0426 0.0000 0.0000 0.0000
# 2 22.7909 57.2214 35.5448 0.0000 0.0000 0.0000
# 3 24.0426 35.5448 60.1074 0.0000 0.0000 0.0000
# 4 0.0000 0.0000 0.0000 6.2991 0.0000 0.0000
# 5 0.0000 0.0000 0.0000 0.0000 14.5052 0.0000
# 6 0.0000 0.0000 0.0000 0.0000 0.0000 20.3683
#
#
#
# Elastic Compliance Matrix: (Units=1/GPa)
#
#
# Indices 1 2 3 4 5 6 
#
# 1 0.010016 -0.002372 -0.002604 0.000000 0.000000 0.000000
# 2 -0.002372 0.028185 -0.015718 0.000000 0.000000 0.000000
# 3 -0.002604 -0.015718 0.026973 0.000000 0.000000 0.000000
# 4 0.000000 0.000000 0.000000 0.158752 0.000000 0.000000
# 5 0.000000 0.000000 0.000000 0.000000 0.068941 0.000000
# 6 0.000000 0.000000 0.000000 0.000000 0.000000 0.049096
#
#
# Mechanical properties :
#
#
# Convention : Reuss Voigt Hill
#
# Bulk Modulus (GPa) = 42.04135 43.73048 42.88591
# Shear Modulus (GPa) = 12.77861 17.99716 15.38789
#
# Velocity S-wave (km/s) = 2.92370 3.46971 3.20834
# Velocity P-wave (km/s) = 6.28651 6.73087 6.51248
#
# Compressibility (1/GPa) = 0.02378611
#
# Stress axis : x y z
#
# Youngs Moduli (GPa) = 99.84182 35.48031 37.07354
#
# Poissons Ratio (x) = 0.08416 0.09653
# Poissons Ratio (y) = 0.23682 0.58273
# Poissons Ratio (z) = 0.25995 0.55769
#
# Static dielectric constant tensor:
#      x y z
#    x 3.387150 0.000000 0.000000 
#    y 0.000000 3.051830 0.000000 
#    z 0.000000 0.000000 2.672280 
# 
# 
# High freq. dielectric constant tensor:
#      x y z
#    x 1.603500 0.000000 0.000000 
#    y 0.000000 1.550400 0.000000 
#    z 0.000000 0.000000 1.525730 
# 
# From -- ./inp_files/38369.got.cif
#   From: 2010.06.25/outbox.cif.g09.slc.cpg/sg71_20_cif.got.tgz:38369.got - 2010.06.28 04:59:45.
