data_PCOD8287258
_publ_section_title
;
Structure prediction by ZEFSAII (Michael W. Deem and Ramdas Pophale) SiO2 
 PCOD8287258
Probable space group: I M M M
;
_chemical_formula_sum "Si O2"
_cell_formula_units_Z 104
_cell_length_a 31.948108
_cell_length_b 29.027015
_cell_length_c 8.583581
_cell_angle_alpha 90.000000
_cell_angle_beta 90.000000
_cell_angle_gamma 90.000000
_cell_volume 7960.054313
_symmetry_space_group_name_H-M "I M M M"
_symmetry_group_IT_number 71
_symmetry_cell_setting 'orthorhombic'
loop_
_space_group_symop_operation_xyz
x,y,z
-x,-y,z
x,-y,-z
-x,y,-z
-x,-y,-z
x,y,-z
-x,y,z
x,-y,z
1/2+x,1/2+y,1/2+z
1/2-x,1/2-y,1/2+z
1/2+x,1/2-y,1/2-z
1/2-x,1/2+y,1/2-z
1/2-x,1/2-y,1/2-z
1/2+x,1/2+y,1/2-z
1/2-x,1/2+y,1/2+z
1/2+x,1/2-y,1/2+z
loop_
_atom_site_type_symbol
_atom_site_label
_atom_site_fract_x
_atom_site_fract_y
_atom_site_fract_z
Si Si1 0.812959 0.269236 0.328069
Si Si2 0.137554 0.500000 0.179862
Si Si3 0.150192 0.645433 0.818019
Si Si4 0.913573 0.581776 0.683263
Si Si5 0.232714 0.599929 0.686786
Si Si6 0.721795 0.313381 0.672740
Si Si7 0.726182 0.000000 0.180242
Si Si8 0.000000 0.554232 0.185079
O O1 0.832591 0.270508 0.500000
O O2 0.841477 0.300612 0.216518
O O3 0.766325 0.288546 0.329559
O O4 0.811332 0.215831 0.273455
O O5 0.110144 0.544306 0.214086
O O6 0.176916 0.500000 0.292946
O O7 0.151760 0.500000 0.000000
O O8 0.108385 0.630435 0.724814
O O9 0.188932 0.613845 0.764135
O O10 0.143008 0.638686 0.000000
O O11 0.910428 0.571330 0.500000
O O12 0.961252 0.580867 0.738413
O O13 0.226422 0.602591 0.500000
O O14 0.269921 0.634870 0.739119
O O15 0.245103 0.548245 0.746273
O O16 0.702897 0.316188 0.500000
O O17 0.735725 0.000000 0.000000
O O18 0.000000 0.500000 0.230007
O O19 0.000000 0.560486 0.000000
#
# Coordination Sequence:
#
# PCOD8287258 Si02
#       8
#    16   8  16  16  16  16   8   8
#     4   9  16  26  39  54  71  91 115 141 174 217
#     4  12  22  31  43  60  74  92 119 152 184 218
#     4  11  20  29  42  58  75  92 114 146 182 218
#     4  12  23  35  48  60  75  95 118 145 182 227
#     4   9  17  27  39  54  73  96 122 148 180 219
#     4   8  14  24  36  52  72  93 116 143 174 212
#     4  10  18  28  41  55  74 100 124 152 185 219
#     4  11  23  37  51  63  76  92 118 152 182 219
#
# _framework density 13.065237
#
# number of rings (size 3 to 8) (size 9 to 14) (size 15 to 20)
#    0.000    1.923    2.308    5.077    0.000    4.000 
#    0.000    0.000    0.000    0.000    0.000    0.000 
#    0.000    0.000    0.000    0.000    0.000    0.000 
#
# Total GULP energy -644440.269306 kJ/mol
# GULP energy per Si atom -12393.082102 kJ/mol
# Density = 1.303550 g / cm^3
# Si number density = 13.065237 Si / 1000 Ang^3
#
#
#
# Elastic Constant Matrix: (Units=GPa)
#
#
# Indices 1 2 3 4 5 6 
#
# 1 30.5332 34.8396 12.1802 0.0000 0.0000 0.0000
# 2 34.8396 106.0795 20.5054 0.0000 0.0000 0.0000
# 3 12.1802 20.5054 56.1352 0.0000 0.0000 0.0000
# 4 0.0000 0.0000 0.0000 15.0126 0.0000 0.0000
# 5 0.0000 0.0000 0.0000 0.0000 14.6336 0.0000
# 6 0.0000 0.0000 0.0000 0.0000 0.0000 63.3841
#
#
#
# Elastic Compliance Matrix: (Units=1/GPa)
#
#
# Indices 1 2 3 4 5 6 
#
# 1 0.053989 -0.016642 -0.005635 0.000000 0.000000 0.000000
# 2 -0.016642 0.015273 -0.001968 0.000000 0.000000 0.000000
# 3 -0.005635 -0.001968 0.019756 0.000000 0.000000 0.000000
# 4 0.000000 0.000000 0.000000 0.066611 0.000000 0.000000
# 5 0.000000 0.000000 0.000000 0.000000 0.068336 0.000000
# 6 0.000000 0.000000 0.000000 0.000000 0.000000 0.015777
#
#
# Mechanical properties :
#
#
# Convention : Reuss Voigt Hill
#
# Bulk Modulus (GPa) = 24.67518 36.42204 30.54861
# Shear Modulus (GPa) = 16.57048 26.95420 21.76234
#
# Velocity S-wave (km/s) = 3.56517 4.54701 4.08569
# Velocity P-wave (km/s) = 5.98952 7.45014 6.75940
#
# Compressibility (1/GPa) = 0.04052656
#
# Stress axis : x y z
#
# Youngs Moduli (GPa) = 18.52238 65.47456 50.61806
#
# Poissons Ratio (x) = 1.08964 0.28525
# Poissons Ratio (y) = 0.30825 0.09962
# Poissons Ratio (z) = 0.10438 0.12886
#
# Static dielectric constant tensor:
#      x y z
#    x 2.321940 0.000000 0.000000 
#    y 0.000000 2.885780 0.000000 
#    z 0.000000 0.000000 2.721650 
# 
# 
# High freq. dielectric constant tensor:
#      x y z
#    x 1.433180 0.000000 0.000000 
#    y 0.000000 1.493290 0.000000 
#    z 0.000000 0.000000 1.509110 
# 
# From -- ./inp_files/15813.got.cif
#   From: 2010.06.25/outbox.cif.g09.slc.cpg/sg71_8_cif.got.tgz:15813.got - 2010.06.28 04:59:45.
