data_PCOD8287755
_publ_section_title
;
Structure prediction by ZEFSAII (Michael W. Deem and Ramdas Pophale) SiO2 
 PCOD8287755
Probable space group: I M M M
;
_chemical_formula_sum "Si O2"
_cell_formula_units_Z 64
_cell_length_a 10.025528
_cell_length_b 10.204642
_cell_length_c 34.910048
_cell_angle_alpha 90.000000
_cell_angle_beta 90.000000
_cell_angle_gamma 90.000000
_cell_volume 3571.539631
_symmetry_space_group_name_H-M "I M M M"
_symmetry_group_IT_number 71
_symmetry_cell_setting 'orthorhombic'
loop_
_space_group_symop_operation_xyz
x,y,z
-x,-y,z
x,-y,-z
-x,y,-z
-x,-y,-z
x,y,-z
-x,y,z
x,-y,z
1/2+x,1/2+y,1/2+z
1/2-x,1/2-y,1/2+z
1/2+x,1/2-y,1/2-z
1/2-x,1/2+y,1/2-z
1/2-x,1/2-y,1/2-z
1/2+x,1/2+y,1/2-z
1/2-x,1/2+y,1/2+z
1/2+x,1/2-y,1/2+z
loop_
_atom_site_type_symbol
_atom_site_label
_atom_site_fract_x
_atom_site_fract_y
_atom_site_fract_z
Si Si1 0.842704 0.500000 0.957628
Si Si2 0.840161 0.717518 0.101192
Si Si3 0.351058 0.713134 0.169675
Si Si4 0.275475 0.000000 0.186715
Si Si5 0.347121 0.500000 0.769229
Si Si6 0.649178 0.500000 0.390679
O O1 0.797718 0.370673 0.934757
O O2 0.000000 0.500000 0.961759
O O3 0.776892 0.500000 0.000000
O O4 0.758766 0.670708 0.138330
O O5 0.000000 0.709630 0.109672
O O6 0.789048 0.866029 0.092121
O O7 0.500000 0.671530 0.155923
O O8 0.310812 0.631076 0.207262
O O9 0.358204 0.867755 0.178938
O O10 0.233819 0.000000 0.230350
O O11 0.154899 0.000000 0.155795
O O12 0.500000 0.500000 0.757253
O O13 0.500000 0.500000 0.404692
#
# Coordination Sequence:
#
# PCOD8287755 Si02
#       6
#     8  16  16   8   8   8
#     4   9  17  30  50  76 102 124 150 189 232 274
#     4   9  17  31  50  70  93 124 159 191 230 281
#     4  10  20  33  49  70  95 124 159 199 240 279
#     4  10  18  31  47  66  91 124 161 198 236 280
#     4  10  20  32  46  67  96 127 158 199 247 284
#     4   8  15  27  45  67  89 117 155 194 228 269
#
# _framework density 17.919443999999999
#
# number of rings (size 3 to 8) (size 9 to 14) (size 15 to 20)
#    0.000    2.625    0.000    2.250    0.000    1.000 
#    0.000    3.125    0.000    5.250    0.000    0.000 
#    0.000    6.000    0.000    0.000    0.000    0.000 
#
# Total GULP energy -396443.681484 kJ/mol
# GULP energy per Si atom -12388.865046 kJ/mol
# Density = 1.787866 g / cm^3
# Si number density = 17.919444 Si / 1000 Ang^3
#
#
#
# Elastic Constant Matrix: (Units=GPa)
#
#
# Indices 1 2 3 4 5 6 
#
# 1 54.5140 17.8786 39.2058 0.0000 0.0000 0.0000
# 2 17.8786 128.5985 67.0829 0.0000 0.0000 0.0000
# 3 39.2058 67.0829 129.7744 0.0000 0.0000 0.0000
# 4 0.0000 0.0000 0.0000 15.2046 0.0000 0.0000
# 5 0.0000 0.0000 0.0000 0.0000 15.0044 0.0000
# 6 0.0000 0.0000 0.0000 0.0000 0.0000 13.6203
#
#
#
# Elastic Compliance Matrix: (Units=1/GPa)
#
#
# Indices 1 2 3 4 5 6 
#
# 1 0.023469 0.000597 -0.007399 0.000000 0.000000 0.000000
# 2 0.000597 0.010662 -0.005692 0.000000 0.000000 0.000000
# 3 -0.007399 -0.005692 0.012883 0.000000 0.000000 0.000000
# 4 0.000000 0.000000 0.000000 0.065769 0.000000 0.000000
# 5 0.000000 0.000000 0.000000 0.000000 0.066647 0.000000
# 6 0.000000 0.000000 0.000000 0.000000 0.000000 0.073420
#
#
# Mechanical properties :
#
#
# Convention : Reuss Voigt Hill
#
# Bulk Modulus (GPa) = 45.39884 62.35793 53.87839
# Shear Modulus (GPa) = 17.53274 21.34718 19.43996
#
# Velocity S-wave (km/s) = 3.13136 3.45525 3.29728
# Velocity P-wave (km/s) = 6.20193 7.12691 6.68045
#
# Compressibility (1/GPa) = 0.02202700
#
# Stress axis : x y z
#
# Youngs Moduli (GPa) = 42.60892 93.78845 77.62129
#
# Poissons Ratio (x) = -0.05596 0.57429
# Poissons Ratio (y) = -0.02542 0.44180
# Poissons Ratio (z) = 0.31525 0.53382
#
# Static dielectric constant tensor:
#      x y z
#    x 3.048760 0.000000 0.000000 
#    y 0.000000 3.775550 0.000000 
#    z 0.000000 0.000000 3.220570 
# 
# 
# High freq. dielectric constant tensor:
#      x y z
#    x 1.663800 0.000000 0.000000 
#    y 0.000000 1.719550 0.000000 
#    z 0.000000 0.000000 1.666750 
# 
# From -- ./inp_files/67755.got.cif
#   From: 2010.06.25/outbox.cif.g09.slc.cpg/sg71_34_cif.got.tgz:67755.got - 2010.06.28 04:59:45.
