data_PCOD8287832
_publ_section_title
;
Structure prediction by ZEFSAII (Michael W. Deem and Ramdas Pophale) SiO2 
 PCOD8287832
Probable space group: I M M M
;
_chemical_formula_sum "Si O2"
_cell_formula_units_Z 72
_cell_length_a 20.082124
_cell_length_b 8.924087
_cell_length_c 21.491874
_cell_angle_alpha 90.000000
_cell_angle_beta 90.000000
_cell_angle_gamma 90.000000
_cell_volume 3851.658069
_symmetry_space_group_name_H-M "I M M M"
_symmetry_group_IT_number 71
_symmetry_cell_setting 'orthorhombic'
loop_
_space_group_symop_operation_xyz
x,y,z
-x,-y,z
x,-y,-z
-x,y,-z
-x,-y,-z
x,y,-z
-x,y,z
x,-y,z
1/2+x,1/2+y,1/2+z
1/2-x,1/2-y,1/2+z
1/2+x,1/2-y,1/2-z
1/2-x,1/2+y,1/2-z
1/2-x,1/2-y,1/2-z
1/2+x,1/2+y,1/2-z
1/2-x,1/2+y,1/2+z
1/2+x,1/2-y,1/2+z
loop_
_atom_site_type_symbol
_atom_site_label
_atom_site_fract_x
_atom_site_fract_y
_atom_site_fract_z
Si Si1 0.374930 0.171671 0.570896
Si Si2 0.500000 0.824241 0.347076
Si Si3 0.000000 0.178062 0.285914
Si Si4 0.423418 0.662151 0.000000
Si Si5 0.762629 0.676364 0.571435
Si Si6 0.879850 0.820891 0.628865
O O1 0.398994 0.190892 0.500000
O O2 0.435129 0.223737 0.614537
O O3 0.312737 0.277118 0.585720
O O4 0.354526 0.000000 0.584044
O O5 0.500000 0.733721 0.283652
O O6 0.500000 0.000000 0.332840
O O7 0.931858 0.237809 0.319069
O O8 0.000000 0.000000 0.288864
O O9 0.405253 0.747703 0.936904
O O10 0.386464 0.500000 0.000000
O O11 0.500000 0.630080 0.000000
O O12 0.781955 0.728809 0.500000
O O13 0.769137 0.500000 0.577176
O O14 0.805629 0.751289 0.628060
O O15 0.876884 0.000000 0.631494
#
# Coordination Sequence:
#
# PCOD8287832 Si02
#       6
#    16   8   8   8  16  16
#     4   9  18  35  60  85 105 130 169 215 263 319
#     4  10  21  38  59  81 105 134 171 218 269 317
#     4  10  22  36  53  78 107 143 186 222 255 306
#     4   9  14  24  47  75  99 128 175 226 257 287
#     4  10  20  32  49  80 116 141 166 211 271 322
#     4  10  18  31  52  76 104 142 184 220 254 300
#
# _framework density 18.693248000000001
#
# number of rings (size 3 to 8) (size 9 to 14) (size 15 to 20)
#    0.000    2.333    2.222    1.000    0.000    4.000 
#    0.000    1.111    0.000    5.333    0.000    0.000 
#    0.000    0.000    0.000    0.000    0.000    0.000 
#
# Total GULP energy -446031.056651 kJ/mol
# GULP energy per Si atom -12389.751574 kJ/mol
# Density = 1.865070 g / cm^3
# Si number density = 18.693248 Si / 1000 Ang^3
#
#
#
# Elastic Constant Matrix: (Units=GPa)
#
#
# Indices 1 2 3 4 5 6 
#
# 1 123.1800 37.8515 63.1644 0.0000 0.0000 0.0000
# 2 37.8515 44.0164 27.6096 0.0000 0.0000 0.0000
# 3 63.1644 27.6096 102.5905 0.0000 0.0000 0.0000
# 4 0.0000 0.0000 0.0000 27.5983 0.0000 0.0000
# 5 0.0000 0.0000 0.0000 0.0000 -127.7926 0.0000
# 6 0.0000 0.0000 0.0000 0.0000 0.0000 19.1925
#
#
#
# Elastic Compliance Matrix: (Units=1/GPa)
#
#
# Indices 1 2 3 4 5 6 
#
# 1 0.013811 -0.007872 -0.006385 0.000000 0.000000 0.000000
# 2 -0.007872 0.031819 -0.003717 0.000000 0.000000 0.000000
# 3 -0.006385 -0.003717 0.014679 0.000000 0.000000 0.000000
# 4 0.000000 0.000000 0.000000 0.036234 0.000000 0.000000
# 5 0.000000 0.000000 0.000000 0.000000 -0.007825 0.000000
# 6 0.000000 0.000000 0.000000 0.000000 0.000000 0.052104
#
#
# Mechanical properties :
#
#
# Convention : Reuss Voigt Hill
#
# Bulk Modulus (GPa) = 41.04662 58.55976 49.80319
# Shear Modulus (GPa) = 27.04308 -6.78959 10.12674
#
# Velocity S-wave (km/s) = 3.80765 -1.90788 2.33004
# Velocity P-wave (km/s) = 6.42935 5.15183 5.82572
#
# Compressibility (1/GPa) = 0.02436254
#
# Stress axis : x y z
#
# Youngs Moduli (GPa) = 72.40501 31.42729 68.12467
#
# Poissons Ratio (x) = 0.24739 0.43498
# Poissons Ratio (y) = 0.56996 0.25320
# Poissons Ratio (z) = 0.46231 0.11681
#
# Static dielectric constant tensor:
#      x y z
#    x 3.597640 0.000000 0.000000 
#    y 0.000000 3.193160 0.000000 
#    z 0.000000 0.000000 3.306860 
# 
# 
# High freq. dielectric constant tensor:
#      x y z
#    x 1.737390 0.000000 0.000000 
#    y 0.000000 1.702550 0.000000 
#    z 0.000000 0.000000 1.701970 
# 
# From -- ./inp_files/54698.got.cif
#   From: 2010.06.25/outbox.cif.g09.slc.cpg/sg71_28_cif.got.tgz:54698.got - 2010.06.28 04:59:45.
