data_PCOD8287309
_publ_section_title
;
Structure prediction by ZEFSAII (Michael W. Deem and Ramdas Pophale) SiO2 
 PCOD8287309
Probable space group: I M M M
;
_chemical_formula_sum "Si O2"
_cell_formula_units_Z 120
_cell_length_a 23.130280
_cell_length_b 22.858342
_cell_length_c 13.041344
_cell_angle_alpha 90.000000
_cell_angle_beta 90.000000
_cell_angle_gamma 90.000000
_cell_volume 6895.217454
_symmetry_space_group_name_H-M "I M M M"
_symmetry_group_IT_number 71
_symmetry_cell_setting 'orthorhombic'
loop_
_space_group_symop_operation_xyz
x,y,z
-x,-y,z
x,-y,-z
-x,y,-z
-x,-y,-z
x,y,-z
-x,y,z
x,-y,z
1/2+x,1/2+y,1/2+z
1/2-x,1/2-y,1/2+z
1/2+x,1/2-y,1/2-z
1/2-x,1/2+y,1/2-z
1/2-x,1/2-y,1/2-z
1/2+x,1/2+y,1/2-z
1/2-x,1/2+y,1/2+z
1/2+x,1/2-y,1/2+z
loop_
_atom_site_type_symbol
_atom_site_label
_atom_site_fract_x
_atom_site_fract_y
_atom_site_fract_z
Si Si1 0.138685 0.567574 0.191921
Si Si2 0.671499 0.629266 0.618022
Si Si3 0.934449 0.069270 0.500000
Si Si4 0.855609 0.930298 0.308884
Si Si5 0.291236 0.934056 0.112877
Si Si6 0.756252 0.367265 0.884805
Si Si7 0.063952 0.335326 0.121288
Si Si8 0.670627 0.761721 0.378407
O O1 0.126106 0.500000 0.172878
O O2 0.158725 0.581977 0.307728
O O3 0.188742 0.589445 0.115091
O O4 0.079630 0.602138 0.170934
O O5 0.648526 0.624912 0.500000
O O6 0.628135 0.591642 0.693092
O O7 0.736628 0.607241 0.625812
O O8 0.674679 0.695540 0.660185
O O9 0.901444 0.089879 0.603967
O O10 0.000000 0.094814 0.500000
O O11 0.937083 0.000000 0.500000
O O12 0.794928 0.896937 0.321823
O O13 0.847163 0.000000 0.312914
O O14 0.268779 0.000000 0.131869
O O15 0.318497 0.926842 0.000000
O O16 0.776900 0.303940 0.838927
O O17 0.733584 0.360181 0.000000
O O18 0.109068 0.286578 0.160637
O O19 0.000000 0.316909 0.157963
O O20 0.066655 0.342112 0.000000
O O21 0.673219 0.763873 0.500000
#
# Coordination Sequence:
#
# PCOD8287309 Si02
#       8
#    16  16   8  16  16  16  16  16
#     4  10  18  28  44  70 102 131 162 202 248 301
#     4  10  19  32  50  77 107 134 167 209 253 309
#     4   9  20  38  56  74 100 134 171 207 246 304
#     4  11  20  31  52  78 101 134 169 204 254 306
#     4   9  17  29  45  67 101 138 163 193 245 305
#     4  10  18  29  45  71 105 132 164 206 248 298
#     4   9  18  33  50  68  94 129 167 206 251 301
#     4   8  17  32  48  70 100 133 166 207 255 298
#
# _framework density 17.403366999999999
#
# number of rings (size 3 to 8) (size 9 to 14) (size 15 to 20)
#    0.000    2.467    2.000    2.000    0.000    3.200 
#    0.000    1.333    0.000    1.600    0.000    3.733 
#    0.000    0.000    0.000    0.000    0.000    0.000 
#
# Total GULP energy -743508.814915 kJ/mol
# GULP energy per Si atom -12391.813582 kJ/mol
# Density = 1.736376 g / cm^3
# Si number density = 17.403367 Si / 1000 Ang^3
#
#
#
# Elastic Constant Matrix: (Units=GPa)
#
#
# Indices 1 2 3 4 5 6 
#
# 1 77.9586 41.4156 26.6089 0.0000 0.0000 0.0000
# 2 41.4156 100.7135 31.5653 0.0000 0.0000 0.0000
# 3 26.6089 31.5653 77.8830 0.0000 0.0000 0.0000
# 4 0.0000 0.0000 0.0000 22.9433 0.0000 0.0000
# 5 0.0000 0.0000 0.0000 0.0000 16.0285 0.0000
# 6 0.0000 0.0000 0.0000 0.0000 0.0000 14.1729
#
#
#
# Elastic Compliance Matrix: (Units=1/GPa)
#
#
# Indices 1 2 3 4 5 6 
#
# 1 0.017183 -0.005987 -0.003444 0.000000 0.000000 0.000000
# 2 -0.005987 0.013460 -0.003410 0.000000 0.000000 0.000000
# 3 -0.003444 -0.003410 0.015398 0.000000 0.000000 0.000000
# 4 0.000000 0.000000 0.000000 0.043586 0.000000 0.000000
# 5 0.000000 0.000000 0.000000 0.000000 0.062389 0.000000
# 6 0.000000 0.000000 0.000000 0.000000 0.000000 0.070557
#
#
# Mechanical properties :
#
#
# Convention : Reuss Voigt Hill
#
# Bulk Modulus (GPa) = 49.11598 50.63719 49.87659
# Shear Modulus (GPa) = 19.60467 21.09330 20.34899
#
# Velocity S-wave (km/s) = 3.35996 3.48519 3.42315
# Velocity P-wave (km/s) = 6.58299 6.73460 6.65923
#
# Compressibility (1/GPa) = 0.02035997
#
# Stress axis : x y z
#
# Youngs Moduli (GPa) = 58.19580 74.29606 64.94141
#
# Poissons Ratio (x) = 0.44478 0.22368
# Poissons Ratio (y) = 0.34840 0.22143
# Poissons Ratio (z) = 0.20045 0.25333
#
# Static dielectric constant tensor:
#      x y z
#    x 3.094010 0.000000 0.000000 
#    y 0.000000 3.400290 0.000000 
#    z 0.000000 0.000000 3.474340 
# 
# 
# High freq. dielectric constant tensor:
#      x y z
#    x 1.634770 0.000000 0.000000 
#    y 0.000000 1.670610 0.000000 
#    z 0.000000 0.000000 1.672040 
# 
# From -- ./inp_files/39658.got.cif
#   From: 2010.06.25/outbox.cif.g09.slc.cpg/sg71_20_cif.got.tgz:39658.got - 2010.06.28 04:59:45.
