data_PCOD8287715
_publ_section_title
;
Structure prediction by ZEFSAII (Michael W. Deem and Ramdas Pophale) SiO2 
 PCOD8287715
Probable space group: I M M M
;
_chemical_formula_sum "Si O2"
_cell_formula_units_Z 88
_cell_length_a 19.450139
_cell_length_b 9.820438
_cell_length_c 24.059237
_cell_angle_alpha 90.000000
_cell_angle_beta 90.000000
_cell_angle_gamma 90.000000
_cell_volume 4595.528013
_symmetry_space_group_name_H-M "I M M M"
_symmetry_group_IT_number 71
_symmetry_cell_setting 'orthorhombic'
loop_
_space_group_symop_operation_xyz
x,y,z
-x,-y,z
x,-y,-z
-x,y,-z
-x,-y,-z
x,y,-z
-x,y,z
x,-y,z
1/2+x,1/2+y,1/2+z
1/2-x,1/2-y,1/2+z
1/2+x,1/2-y,1/2-z
1/2-x,1/2+y,1/2-z
1/2-x,1/2-y,1/2-z
1/2+x,1/2+y,1/2-z
1/2-x,1/2+y,1/2+z
1/2+x,1/2-y,1/2+z
loop_
_atom_site_type_symbol
_atom_site_label
_atom_site_fract_x
_atom_site_fract_y
_atom_site_fract_z
Si Si1 0.080351 0.734664 0.629516
Si Si2 0.581143 0.350906 0.243734
Si Si3 0.180976 0.657390 0.065768
Si Si4 0.919175 0.158054 0.132696
Si Si5 0.919964 0.000000 0.561181
Si Si6 0.801438 0.352079 0.562693
O O1 0.101347 0.747322 0.694501
O O2 0.131022 0.627222 0.601289
O O3 0.000000 0.694610 0.622382
O O4 0.101093 0.871093 0.597038
O O5 0.500000 0.368787 0.243146
O O6 0.613623 0.500000 0.231876
O O7 0.604197 0.299707 0.304601
O O8 0.183619 0.500000 0.085779
O O9 0.116577 0.736548 0.091494
O O10 0.250107 0.735434 0.085125
O O11 0.172524 0.666279 0.000000
O O12 0.000000 0.177783 0.124687
O O13 0.899272 0.000000 0.120970
O O14 0.883228 0.000000 0.500000
O O15 0.000000 0.000000 0.550841
O O16 0.825158 0.316878 0.500000
O O17 0.764014 0.500000 0.564061
#
# Coordination Sequence:
#
# PCOD8287715 Si02
#       6
#    16  16  16  16   8  16
#     4  10  18  30  51  78 108 143 183 226 268 311
#     4   8  14  28  50  78 110 143 177 216 263 311
#     4  10  22  39  58  80 107 139 175 220 273 327
#     4   9  18  34  59  87 112 140 175 213 259 322
#     4   9  16  24  40  72 106 134 170 218 262 300
#     4  10  22  38  54  74 106 146 182 222 274 328
#
# _framework density 19.149051
#
# number of rings (size 3 to 8) (size 9 to 14) (size 15 to 20)
#    0.000    2.636    0.909    2.182    1.273    3.273 
#    0.000    4.545    0.000    3.273    0.000    0.000 
#    0.000    0.000    0.000    0.000    0.000    0.000 
#
# Total GULP energy -545169.738578 kJ/mol
# GULP energy per Si atom -12390.221331 kJ/mol
# Density = 1.910547 g / cm^3
# Si number density = 19.149051 Si / 1000 Ang^3
#
#
#
# Elastic Constant Matrix: (Units=GPa)
#
#
# Indices 1 2 3 4 5 6 
#
# 1 77.1742 45.9386 40.4051 0.0000 0.0000 0.0000
# 2 45.9386 108.0676 40.2572 0.0000 0.0000 0.0000
# 3 40.4051 40.2572 74.5515 0.0000 0.0000 0.0000
# 4 0.0000 0.0000 0.0000 22.6272 0.0000 0.0000
# 5 0.0000 0.0000 0.0000 0.0000 18.1117 0.0000
# 6 0.0000 0.0000 0.0000 0.0000 0.0000 25.2020
#
#
#
# Elastic Compliance Matrix: (Units=1/GPa)
#
#
# Indices 1 2 3 4 5 6 
#
# 1 0.020603 -0.005756 -0.008058 0.000000 0.000000 0.000000
# 2 -0.005756 0.013192 -0.004004 0.000000 0.000000 0.000000
# 3 -0.008058 -0.004004 0.019943 0.000000 0.000000 0.000000
# 4 0.000000 0.000000 0.000000 0.044195 0.000000 0.000000
# 5 0.000000 0.000000 0.000000 0.000000 0.055213 0.000000
# 6 0.000000 0.000000 0.000000 0.000000 0.000000 0.039679
#
#
# Mechanical properties :
#
#
# Convention : Reuss Voigt Hill
#
# Bulk Modulus (GPa) = 55.24379 56.99946 56.12162
# Shear Modulus (GPa) = 21.32245 22.06767 21.69506
#
# Velocity S-wave (km/s) = 3.34053 3.39841 3.36959
# Velocity P-wave (km/s) = 6.61747 6.72530 6.67160
#
# Compressibility (1/GPa) = 0.01810158
#
# Stress axis : x y z
#
# Youngs Moduli (GPa) = 48.53655 75.80396 50.14372
#
# Poissons Ratio (x) = 0.43636 0.40405
# Poissons Ratio (y) = 0.27940 0.20076
# Poissons Ratio (z) = 0.39110 0.30349
#
# Static dielectric constant tensor:
#      x y z
#    x 3.146080 0.000000 0.000000 
#    y 0.000000 3.514970 0.000000 
#    z 0.000000 0.000000 3.760510 
# 
# 
# High freq. dielectric constant tensor:
#      x y z
#    x 1.714060 0.000000 0.000000 
#    y 0.000000 1.736820 0.000000 
#    z 0.000000 0.000000 1.745280 
# 
# From -- ./inp_files/61108.got.cif
#   From: 2010.06.25/outbox.cif.g09.slc.cpg/sg71_31_cif.got.tgz:61108.got - 2010.06.28 04:59:45.
