data_PCOD8287974
_publ_section_title
;
Structure prediction by ZEFSAII (Michael W. Deem and Ramdas Pophale) SiO2 
 PCOD8287974
Probable space group: I M M M
;
_chemical_formula_sum "Si O2"
_cell_formula_units_Z 88
_cell_length_a 20.800854
_cell_length_b 8.637291
_cell_length_c 25.448955
_cell_angle_alpha 90.000000
_cell_angle_beta 90.000000
_cell_angle_gamma 90.000000
_cell_volume 4572.236341
_symmetry_space_group_name_H-M "I M M M"
_symmetry_group_IT_number 71
_symmetry_cell_setting 'orthorhombic'
loop_
_space_group_symop_operation_xyz
x,y,z
-x,-y,z
x,-y,-z
-x,y,-z
-x,-y,-z
x,y,-z
-x,y,z
x,-y,z
1/2+x,1/2+y,1/2+z
1/2-x,1/2-y,1/2+z
1/2+x,1/2-y,1/2-z
1/2-x,1/2+y,1/2-z
1/2-x,1/2-y,1/2-z
1/2+x,1/2+y,1/2-z
1/2-x,1/2+y,1/2+z
1/2+x,1/2-y,1/2+z
loop_
_atom_site_type_symbol
_atom_site_label
_atom_site_fract_x
_atom_site_fract_y
_atom_site_fract_z
Si Si1 0.668633 0.819334 0.190829
Si Si2 0.779550 0.183395 0.000000
Si Si3 0.364507 0.683184 0.597658
Si Si4 0.000000 0.182434 0.943221
Si Si5 0.197489 0.679142 0.807500
Si Si6 0.574199 0.681647 0.105653
Si Si7 0.633747 0.183582 0.000000
O O1 0.740693 0.777004 0.173500
O O2 0.666011 0.768582 0.252076
O O3 0.615620 0.731217 0.156335
O O4 0.656312 0.000000 0.182243
O O5 0.816877 0.241383 0.051697
O O6 0.706857 0.248586 0.000000
O O7 0.779916 0.000000 0.000000
O O8 0.356916 0.500000 0.607627
O O9 0.436597 0.734718 0.586269
O O10 0.354765 0.783963 0.649331
O O11 0.000000 0.000000 0.950562
O O12 0.000000 0.262571 0.000000
O O13 0.217020 0.500000 0.804581
O O14 0.500000 0.728360 0.115715
O O15 0.581656 0.500000 0.097671
O O16 0.597940 0.761266 0.052289
O O17 0.634334 0.000000 0.000000
#
# Coordination Sequence:
#
# PCOD8287974 Si02
#       7
#    16   8  16   8  16  16   8
#     4  10  21  39  62  85 111 147 190 235 284 340
#     4   9  18  31  52  82 111 142 185 235 275 319
#     4  10  18  32  55  81 111 148 192 235 277 332
#     4   9  16  30  53  79 109 149 193 234 275 322
#     4  10  21  37  58  85 115 146 184 235 292 343
#     4  11  24  41  60  84 117 154 191 235 285 335
#     4  11  22  36  58  88 117 150 193 233 280 342
#
# _framework density 19.246599
#
# number of rings (size 3 to 8) (size 9 to 14) (size 15 to 20)
#    0.000    1.909    0.909    3.273    0.000    6.182 
#    1.636    1.818    0.000    0.545    0.000    0.000 
#    0.000    0.000    0.000    0.000    0.000    0.000 
#
# Total GULP energy -545506.220977 kJ/mol
# GULP energy per Si atom -12397.868659 kJ/mol
# Density = 1.920279 g / cm^3
# Si number density = 19.246599 Si / 1000 Ang^3
#
#
#
# Elastic Constant Matrix: (Units=GPa)
#
#
# Indices 1 2 3 4 5 6 
#
# 1 154.0283 34.6567 86.5283 0.0000 0.0000 0.0000
# 2 34.6567 47.0210 31.7277 0.0000 0.0000 0.0000
# 3 86.5283 31.7277 134.2750 0.0000 0.0000 0.0000
# 4 0.0000 0.0000 0.0000 30.1425 0.0000 0.0000
# 5 0.0000 0.0000 0.0000 0.0000 124.8695 0.0000
# 6 0.0000 0.0000 0.0000 0.0000 0.0000 25.9794
#
#
#
# Elastic Compliance Matrix: (Units=1/GPa)
#
#
# Indices 1 2 3 4 5 6 
#
# 1 0.010734 -0.003860 -0.006005 0.000000 0.000000 0.000000
# 2 -0.003860 0.026689 -0.003819 0.000000 0.000000 0.000000
# 3 -0.006005 -0.003819 0.012220 0.000000 0.000000 0.000000
# 4 0.000000 0.000000 0.000000 0.033176 0.000000 0.000000
# 5 0.000000 0.000000 0.000000 0.000000 0.008008 0.000000
# 6 0.000000 0.000000 0.000000 0.000000 0.000000 0.038492
#
#
# Mechanical properties :
#
#
# Convention : Reuss Voigt Hill
#
# Bulk Modulus (GPa) = 44.89386 71.23885 58.06635
# Shear Modulus (GPa) = 30.46700 48.35905 39.41302
#
# Velocity S-wave (km/s) = 3.98299 5.01802 4.53016
# Velocity P-wave (km/s) = 6.67297 8.40644 7.58936
#
# Compressibility (1/GPa) = 0.02227476
#
# Stress axis : x y z
#
# Youngs Moduli (GPa) = 93.15889 37.46899 81.83493
#
# Poissons Ratio (x) = 0.14461 0.49145
# Poissons Ratio (y) = 0.35955 0.31253
# Poissons Ratio (z) = 0.55945 0.14310
#
# Static dielectric constant tensor:
#      x y z
#    x 3.544210 0.000000 0.000000 
#    y 0.000000 3.310030 0.000000 
#    z 0.000000 0.000000 3.622270 
# 
# 
# High freq. dielectric constant tensor:
#      x y z
#    x 1.752820 0.000000 0.000000 
#    y 0.000000 1.734270 0.000000 
#    z 0.000000 0.000000 1.760980 
# 
# From -- ./inp_files/61175.got.cif
#   From: 2010.06.25/outbox.cif.g09.slc.cpg/sg71_31_cif.got.tgz:61175.got - 2010.06.28 04:59:45.
