data_PCOD8287677
_publ_section_title
;
Structure prediction by ZEFSAII (Michael W. Deem and Ramdas Pophale) SiO2 
 PCOD8287677
Probable space group: I M M M
;
_chemical_formula_sum "Si O2"
_cell_formula_units_Z 104
_cell_length_a 29.052501
_cell_length_b 21.256022
_cell_length_c 8.803847
_cell_angle_alpha 90.000000
_cell_angle_beta 90.000000
_cell_angle_gamma 90.000000
_cell_volume 5436.732962
_symmetry_space_group_name_H-M "I M M M"
_symmetry_group_IT_number 71
_symmetry_cell_setting 'orthorhombic'
loop_
_space_group_symop_operation_xyz
x,y,z
-x,-y,z
x,-y,-z
-x,y,-z
-x,-y,-z
x,y,-z
-x,y,z
x,-y,z
1/2+x,1/2+y,1/2+z
1/2-x,1/2-y,1/2+z
1/2+x,1/2-y,1/2-z
1/2-x,1/2+y,1/2-z
1/2-x,1/2-y,1/2-z
1/2+x,1/2+y,1/2-z
1/2-x,1/2+y,1/2+z
1/2+x,1/2-y,1/2+z
loop_
_atom_site_type_symbol
_atom_site_label
_atom_site_fract_x
_atom_site_fract_y
_atom_site_fract_z
Si Si1 0.201504 0.684177 0.678969
Si Si2 0.050477 0.373546 0.319273
Si Si3 0.857647 0.431327 0.680977
Si Si4 0.449074 0.266375 0.819823
Si Si5 0.053348 0.000000 0.319412
Si Si6 0.807409 0.814468 0.821596
Si Si7 0.388595 0.379299 0.819384
O O1 0.194329 0.692125 0.500000
O O2 0.175454 0.622933 0.744657
O O3 0.179335 0.746089 0.754715
O O4 0.254484 0.673320 0.722735
O O5 0.048301 0.373185 0.500000
O O6 0.089995 0.420341 0.260755
O O7 0.063812 0.303405 0.262787
O O8 0.000000 0.393596 0.255902
O O9 0.856427 0.429520 0.500000
O O10 0.841655 0.500000 0.740379
O O11 0.500000 0.284148 0.762673
O O12 0.414340 0.317779 0.754036
O O13 0.447327 0.269543 0.000000
O O14 0.082559 0.060269 0.261005
O O15 0.050810 0.000000 0.500000
O O16 0.000000 0.000000 0.257754
O O17 0.837338 0.871840 0.750164
O O18 0.815134 0.813995 0.000000
O O19 0.384510 0.381771 0.000000
#
# Coordination Sequence:
#
# PCOD8287677 Si02
#       7
#    16  16  16  16   8  16  16
#     4   9  18  34  53  73  95 126 166 206 249 297
#     4   8  13  20  32  57  92 121 145 181 231 279
#     4   9  16  26  42  65  93 125 159 190 227 281
#     4   8  13  22  40  66  92 120 157 198 237 278
#     4   9  18  32  51  77 107 139 179 221 258 307
#     4  10  20  33  51  75  98 123 161 211 260 302
#     4  10  18  30  50  74 100 132 167 206 253 303
#
# _framework density 19.129134000000001
#
# number of rings (size 3 to 8) (size 9 to 14) (size 15 to 20)
#    0.000    3.000    0.000    2.769    0.000    5.231 
#    1.385    1.923    0.000    2.769    0.000    0.000 
#    0.000    0.000    0.000    5.538    0.000    4.923 
#
# Total GULP energy -644361.298206 kJ/mol
# GULP energy per Si atom -12391.563427 kJ/mol
# Density = 1.908560 g / cm^3
# Si number density = 19.129134 Si / 1000 Ang^3
#
#
#
# Elastic Constant Matrix: (Units=GPa)
#
#
# Indices 1 2 3 4 5 6 
#
# 1 111.1283 75.9344 19.1070 0.0000 0.0000 0.0000
# 2 75.9344 131.3545 17.1514 0.0000 0.0000 0.0000
# 3 19.1070 17.1514 19.0071 0.0000 0.0000 0.0000
# 4 0.0000 0.0000 0.0000 12.7735 0.0000 0.0000
# 5 0.0000 0.0000 0.0000 0.0000 15.6006 0.0000
# 6 0.0000 0.0000 0.0000 0.0000 0.0000 35.2717
#
#
#
# Elastic Compliance Matrix: (Units=1/GPa)
#
#
# Indices 1 2 3 4 5 6 
#
# 1 0.016079 -0.008144 -0.008815 0.000000 0.000000 0.000000
# 2 -0.008144 0.012755 -0.003323 0.000000 0.000000 0.000000
# 3 -0.008815 -0.003323 0.064471 0.000000 0.000000 0.000000
# 4 0.000000 0.000000 0.000000 0.078287 0.000000 0.000000
# 5 0.000000 0.000000 0.000000 0.000000 0.064100 0.000000
# 6 0.000000 0.000000 0.000000 0.000000 0.000000 0.028351
#
#
# Mechanical properties :
#
#
# Convention : Reuss Voigt Hill
#
# Bulk Modulus (GPa) = 18.96009 53.98616 36.47313
# Shear Modulus (GPa) = 15.51892 22.68228 19.10060
#
# Velocity S-wave (km/s) = 2.85137 3.44720 3.16335
# Velocity P-wave (km/s) = 4.55780 6.64285 5.69654
#
# Compressibility (1/GPa) = 0.05274237
#
# Stress axis : x y z
#
# Youngs Moduli (GPa) = 62.19247 78.40134 15.51081
#
# Poissons Ratio (x) = 0.63851 0.13672
# Poissons Ratio (y) = 0.50651 0.05154
# Poissons Ratio (z) = 0.54820 0.26050
#
# Static dielectric constant tensor:
#      x y z
#    x 3.794030 0.000000 0.000000 
#    y 0.000000 3.724190 0.000000 
#    z 0.000000 0.000000 2.833020 
# 
# 
# High freq. dielectric constant tensor:
#      x y z
#    x 1.757430 0.000000 0.000000 
#    y 0.000000 1.741270 0.000000 
#    z 0.000000 0.000000 1.673280 
# 
# From -- ./inp_files/16986.got.cif
#   From: 2010.06.25/outbox.cif.g09.slc.cpg/sg71_9_cif.got.tgz:16986.got - 2010.06.28 04:59:45.
