data_PCOD8287060
_publ_section_title
;
Structure prediction by ZEFSAII (Michael W. Deem and Ramdas Pophale) SiO2 
 PCOD8287060
Probable space group: I M M M
;
_chemical_formula_sum "Si O2"
_cell_formula_units_Z 104
_cell_length_a 21.891754
_cell_length_b 24.175599
_cell_length_c 11.815728
_cell_angle_alpha 90.000000
_cell_angle_beta 90.000000
_cell_angle_gamma 90.000000
_cell_volume 6253.429925
_symmetry_space_group_name_H-M "I M M M"
_symmetry_group_IT_number 71
_symmetry_cell_setting 'orthorhombic'
loop_
_space_group_symop_operation_xyz
x,y,z
-x,-y,z
x,-y,-z
-x,y,-z
-x,-y,-z
x,y,-z
-x,y,z
x,-y,z
1/2+x,1/2+y,1/2+z
1/2-x,1/2-y,1/2+z
1/2+x,1/2-y,1/2-z
1/2-x,1/2+y,1/2-z
1/2-x,1/2-y,1/2-z
1/2+x,1/2+y,1/2-z
1/2-x,1/2+y,1/2+z
1/2+x,1/2-y,1/2+z
loop_
_atom_site_type_symbol
_atom_site_label
_atom_site_fract_x
_atom_site_fract_y
_atom_site_fract_z
Si Si1 0.309628 0.563300 0.000000
Si Si2 0.429857 0.349487 0.247386
Si Si3 0.069942 0.259554 0.129876
Si Si4 0.736716 0.935471 0.712512
Si Si5 0.879112 0.622968 0.132742
Si Si6 0.067572 0.882346 0.500000
Si Si7 0.000000 0.438062 0.865684
Si Si8 0.155630 0.935811 0.130573
O O1 0.279447 0.588709 0.112160
O O2 0.293429 0.500000 0.000000
O O3 0.382444 0.569628 0.000000
O O4 0.500000 0.358657 0.284639
O O5 0.405496 0.291358 0.295668
O O6 0.423564 0.345055 0.111656
O O7 0.391888 0.400430 0.296979
O O8 0.113402 0.311749 0.153524
O O9 0.000000 0.275336 0.160109
O O10 0.074502 0.241281 0.000000
O O11 0.675310 0.899465 0.711319
O O12 0.774720 0.925855 0.827779
O O13 0.719681 0.000000 0.696683
O O14 0.939884 0.592994 0.177509
O O15 0.866747 0.609754 0.000000
O O16 0.000000 0.909813 0.500000
O O17 0.000000 0.500000 0.816819
O O18 0.000000 0.437566 0.000000
O O19 0.137988 0.000000 0.149098
O O20 0.152000 0.918416 0.000000
#
# Coordination Sequence:
#
# PCOD8287060 Si02
#       8
#     8  16  16  16  16   8   8  16
#     4  10  18  31  50  73 102 134 165 197 242 310
#     4  10  20  34  54  76 100 131 166 207 253 302
#     4   9  17  31  50  72 100 135 170 206 249 296
#     4  10  19  31  50  74 102 137 169 200 249 307
#     4  10  17  28  47  74 104 134 169 204 247 304
#     4  10  20  33  52  76 101 131 166 210 253 294
#     4   9  16  24  40  72 111 135 156 204 254 298
#     4  10  21  36  53  73 100 133 169 210 250 293
#
# _framework density 16.630873000000001
#
# number of rings (size 3 to 8) (size 9 to 14) (size 15 to 20)
#    0.000    2.231    3.077    0.923    0.000    2.000 
#    0.000    3.077    1.692    0.000    0.000    0.538 
#    0.000    3.077    0.000    0.000    0.000    0.000 
#
# Total GULP energy -644678.906845 kJ/mol
# GULP energy per Si atom -12397.671285 kJ/mol
# Density = 1.659302 g / cm^3
# Si number density = 16.630873 Si / 1000 Ang^3
#
#
#
# Elastic Constant Matrix: (Units=GPa)
#
#
# Indices 1 2 3 4 5 6 
#
# 1 103.2871 51.4849 37.2180 0.0000 0.0000 0.0000
# 2 51.4849 88.1365 44.7895 0.0000 0.0000 0.0000
# 3 37.2180 44.7895 85.6973 0.0000 0.0000 0.0000
# 4 0.0000 0.0000 0.0000 17.2909 0.0000 0.0000
# 5 0.0000 0.0000 0.0000 0.0000 19.2464 0.0000
# 6 0.0000 0.0000 0.0000 0.0000 0.0000 22.9629
#
#
#
# Elastic Compliance Matrix: (Units=1/GPa)
#
#
# Indices 1 2 3 4 5 6 
#
# 1 0.014031 -0.006944 -0.002464 0.000000 0.000000 0.000000
# 2 -0.006944 0.018886 -0.006855 0.000000 0.000000 0.000000
# 3 -0.002464 -0.006855 0.016322 0.000000 0.000000 0.000000
# 4 0.000000 0.000000 0.000000 0.057834 0.000000 0.000000
# 5 0.000000 0.000000 0.000000 0.000000 0.051958 0.000000
# 6 0.000000 0.000000 0.000000 0.000000 0.000000 0.043549
#
#
# Mechanical properties :
#
#
# Convention : Reuss Voigt Hill
#
# Bulk Modulus (GPa) = 59.83579 60.45619 60.14599
# Shear Modulus (GPa) = 20.77480 21.47528 21.12504
#
# Velocity S-wave (km/s) = 3.53820 3.59735 3.56790
# Velocity P-wave (km/s) = 7.26282 7.32702 7.29499
#
# Compressibility (1/GPa) = 0.01671240
#
# Stress axis : x y z
#
# Youngs Moduli (GPa) = 71.27060 52.94965 61.26697
#
# Poissons Ratio (x) = 0.36767 0.15099
# Poissons Ratio (y) = 0.49489 0.41998
# Poissons Ratio (z) = 0.17564 0.36297
#
# Static dielectric constant tensor:
#      x y z
#    x 3.087530 0.000000 0.000000 
#    y 0.000000 3.027430 0.000000 
#    z 0.000000 0.000000 3.089180 
# 
# 
# High freq. dielectric constant tensor:
#      x y z
#    x 1.638940 0.000000 0.000000 
#    y 0.000000 1.628940 0.000000 
#    z 0.000000 0.000000 1.620030 
# 
# From -- ./inp_files/24603.got.cif
#   From: 2010.06.25/outbox.cif.g09.slc.cpg/sg71_13_cif.got.tgz:24603.got - 2010.06.28 04:59:45.
