data_PCOD8287622
_publ_section_title
;
Structure prediction by ZEFSAII (Michael W. Deem and Ramdas Pophale) SiO2 
 PCOD8287622
Probable space group: I M M M
;
_chemical_formula_sum "Si O2"
_cell_formula_units_Z 128
_cell_length_a 23.744543
_cell_length_b 13.132211
_cell_length_c 24.195211
_cell_angle_alpha 90.000000
_cell_angle_beta 90.000000
_cell_angle_gamma 90.000000
_cell_volume 7544.510742
_symmetry_space_group_name_H-M "I M M M"
_symmetry_group_IT_number 71
_symmetry_cell_setting 'orthorhombic'
loop_
_space_group_symop_operation_xyz
x,y,z
-x,-y,z
x,-y,-z
-x,y,-z
-x,-y,-z
x,y,-z
-x,y,z
x,-y,z
1/2+x,1/2+y,1/2+z
1/2-x,1/2-y,1/2+z
1/2+x,1/2-y,1/2-z
1/2-x,1/2+y,1/2-z
1/2-x,1/2-y,1/2-z
1/2+x,1/2+y,1/2-z
1/2-x,1/2+y,1/2+z
1/2+x,1/2-y,1/2+z
loop_
_atom_site_type_symbol
_atom_site_label
_atom_site_fract_x
_atom_site_fract_y
_atom_site_fract_z
Si Si1 0.601073 0.115952 0.757954
Si Si2 0.147807 0.380079 0.935495
Si Si3 0.756660 0.750864 0.883807
Si Si4 0.152354 0.117935 0.180717
Si Si5 0.832877 0.615924 0.563364
Si Si6 0.934662 0.276093 0.148386
Si Si7 0.440137 0.882585 0.124712
Si Si8 0.306529 0.275587 0.220273
O O1 0.571400 0.155515 0.702821
O O2 0.558837 0.128770 0.809077
O O3 0.657706 0.173079 0.774791
O O4 0.618759 0.000000 0.747843
O O5 0.148577 0.500000 0.924488
O O6 0.207198 0.335641 0.914062
O O7 0.095416 0.330785 0.903228
O O8 0.140391 0.354433 0.000000
O O9 0.796765 0.827062 0.850443
O O10 0.723087 0.817651 0.928378
O O11 0.710278 0.697956 0.843010
O O12 0.093530 0.166491 0.160327
O O13 0.160704 0.133728 0.247194
O O14 0.151182 0.000000 0.165775
O O15 0.850178 0.617738 0.500000
O O16 0.820999 0.500000 0.583555
O O17 0.885206 0.667601 0.596703
O O18 0.000000 0.260346 0.133544
O O19 0.500000 0.834768 0.104069
O O20 0.438512 0.000000 0.107069
O O21 0.250000 0.250000 0.250000
#
# Coordination Sequence:
#
# PCOD8287622 Si02
#       8
#    16  16  16  16  16  16  16  16
#     4  10  18  30  48  72 102 131 162 204 251 301
#     4  10  22  38  54  75 104 135 167 210 259 298
#     4  10  18  33  52  73  99 132 170 210 249 301
#     4   9  19  33  50  74 104 133 162 203 257 306
#     4  10  19  29  45  70  99 135 175 209 245 294
#     4  10  21  35  53  77 101 132 174 211 248 302
#     4   9  17  28  43  65  95 131 164 198 244 291
#     4   9  18  28  44  72 100 128 161 198 247 302
#
# _framework density 16.965976999999999
#
# number of rings (size 3 to 8) (size 9 to 14) (size 15 to 20)
#    0.000    2.375    1.250    2.250    0.000    4.750 
#    0.000    1.875    0.000    3.375    0.000    3.500 
#    0.000    0.500    0.000    2.625    0.000    0.125 
#
# Total GULP energy -793165.101446 kJ/mol
# GULP energy per Si atom -12393.204710 kJ/mol
# Density = 1.692736 g / cm^3
# Si number density = 16.965977 Si / 1000 Ang^3
#
#
#
# Elastic Constant Matrix: (Units=GPa)
#
#
# Indices 1 2 3 4 5 6 
#
# 1 120.9715 41.8708 38.9412 0.0000 0.0000 0.0000
# 2 41.8708 79.9617 35.7072 0.0000 0.0000 0.0000
# 3 38.9412 35.7072 94.6415 0.0000 0.0000 0.0000
# 4 0.0000 0.0000 0.0000 18.6480 0.0000 0.0000
# 5 0.0000 0.0000 0.0000 0.0000 14.7015 0.0000
# 6 0.0000 0.0000 0.0000 0.0000 0.0000 15.5167
#
#
#
# Elastic Compliance Matrix: (Units=1/GPa)
#
#
# Indices 1 2 3 4 5 6 
#
# 1 0.010657 -0.004356 -0.002741 0.000000 0.000000 0.000000
# 2 -0.004356 0.016821 -0.004554 0.000000 0.000000 0.000000
# 3 -0.002741 -0.004554 0.013412 0.000000 0.000000 0.000000
# 4 0.000000 0.000000 0.000000 0.053625 0.000000 0.000000
# 5 0.000000 0.000000 0.000000 0.000000 0.068020 0.000000
# 6 0.000000 0.000000 0.000000 0.000000 0.000000 0.064447
#
#
# Mechanical properties :
#
#
# Convention : Reuss Voigt Hill
#
# Bulk Modulus (GPa) = 56.86027 58.73481 57.79754
# Shear Modulus (GPa) = 19.52012 21.71027 20.61520
#
# Velocity S-wave (km/s) = 3.39565 3.58108 3.48960
# Velocity P-wave (km/s) = 6.99721 7.19675 7.09768
#
# Compressibility (1/GPa) = 0.01758697
#
# Stress axis : x y z
#
# Youngs Moduli (GPa) = 93.83897 59.45124 74.55884
#
# Poissons Ratio (x) = 0.25897 0.20439
# Poissons Ratio (y) = 0.40877 0.33953
# Poissons Ratio (z) = 0.25724 0.27073
#
# Static dielectric constant tensor:
#      x y z
#    x 3.245010 0.000000 0.000000 
#    y 0.000000 2.958030 0.000000 
#    z 0.000000 0.000000 3.386510 
# 
# 
# High freq. dielectric constant tensor:
#      x y z
#    x 1.660370 0.000000 0.000000 
#    y 0.000000 1.620580 0.000000 
#    z 0.000000 0.000000 1.658120 
# 
# From -- ./inp_files/67020.got.cif
#   From: 2010.06.25/outbox.cif.g09.slc.cpg/sg71_34_cif.got.tgz:67020.got - 2010.06.28 04:59:45.
