data_PCOD8287765
_publ_section_title
;
Structure prediction by ZEFSAII (Michael W. Deem and Ramdas Pophale) SiO2 
 PCOD8287765
Probable space group: I M M M
;
_chemical_formula_sum "Si O2"
_cell_formula_units_Z 104
_cell_length_a 12.904188
_cell_length_b 34.029372
_cell_length_c 14.286626
_cell_angle_alpha 90.000000
_cell_angle_beta 90.000000
_cell_angle_gamma 90.000000
_cell_volume 6273.563408
_symmetry_space_group_name_H-M "I M M M"
_symmetry_group_IT_number 71
_symmetry_cell_setting 'orthorhombic'
loop_
_space_group_symop_operation_xyz
x,y,z
-x,-y,z
x,-y,-z
-x,y,-z
-x,-y,-z
x,y,-z
-x,y,z
x,-y,z
1/2+x,1/2+y,1/2+z
1/2-x,1/2-y,1/2+z
1/2+x,1/2-y,1/2-z
1/2-x,1/2+y,1/2-z
1/2-x,1/2-y,1/2-z
1/2+x,1/2+y,1/2-z
1/2-x,1/2+y,1/2+z
1/2+x,1/2-y,1/2+z
loop_
_atom_site_type_symbol
_atom_site_label
_atom_site_fract_x
_atom_site_fract_y
_atom_site_fract_z
Si Si1 0.877414 0.893283 0.604223
Si Si2 0.881218 0.257549 0.392590
Si Si3 0.621426 0.317968 0.787945
Si Si4 0.787293 0.418870 0.608099
Si Si5 0.263368 0.670173 0.394043
Si Si6 0.879946 0.045662 0.242157
Si Si7 0.500000 0.044673 0.888799
O O1 0.829625 0.896967 0.500000
O O2 0.830295 0.854822 0.655472
O O3 0.847242 0.931883 0.663094
O O4 0.000000 0.889155 0.597660
O O5 0.868718 0.244467 0.500000
O O6 0.832548 0.222606 0.329518
O O7 0.824624 0.298217 0.371716
O O8 0.000000 0.265096 0.366267
O O9 0.500000 0.317494 0.803660
O O10 0.643295 0.322531 0.677763
O O11 0.777132 0.430788 0.500000
O O12 0.786862 0.372230 0.622029
O O13 0.689819 0.439196 0.657339
O O14 0.896304 0.434340 0.650232
O O15 0.306492 0.674418 0.500000
O O16 0.000000 0.054269 0.216193
O O17 0.860348 0.000000 0.260426
O O18 0.500000 0.000000 0.853276
O O19 0.500000 0.047477 0.000000
#
# Coordination Sequence:
#
# PCOD8287765 Si02
#       7
#    16  16  16  16  16  16   8
#     4   9  17  30  48  69  94 124 158 197 241 288
#     4   9  18  31  49  72  96 123 158 200 241 281
#     4  10  18  31  49  69  96 129 162 193 231 287
#     4  10  20  33  50  72 101 135 168 203 244 290
#     4  10  20  31  46  70  99 129 157 194 241 287
#     4  10  20  33  49  72 102 132 162 199 246 302
#     4   9  18  32  50  70  93 127 173 217 246 274
#
# _framework density 16.577500000000001
#
# number of rings (size 3 to 8) (size 9 to 14) (size 15 to 20)
#    0.000    2.385    1.538    1.385    1.077    3.692 
#    0.000    3.846    0.000    0.000    0.000    0.538 
#    0.000    1.846    0.000    0.000    0.000    0.000 
#
# Total GULP energy -644724.478745 kJ/mol
# GULP energy per Si atom -12398.547668 kJ/mol
# Density = 1.653977 g / cm^3
# Si number density = 16.577500 Si / 1000 Ang^3
#
#
#
# Elastic Constant Matrix: (Units=GPa)
#
#
# Indices 1 2 3 4 5 6 
#
# 1 50.7285 38.4233 33.6589 -0.0002 0.0000 0.0000
# 2 38.4233 137.5800 51.5741 -0.0002 0.0004 0.0001
# 3 33.6589 51.5741 92.0610 -0.0011 0.0028 0.0006
# 4 -0.0002 -0.0002 -0.0011 25.9258 0.0009 0.0002
# 5 0.0000 0.0004 0.0028 0.0009 16.5465 -0.0003
# 6 0.0000 0.0001 0.0006 0.0002 -0.0003 23.6785
#
#
#
# Elastic Compliance Matrix: (Units=1/GPa)
#
#
# Indices 1 2 3 4 5 6 
#
# 1 0.028654 -0.005159 -0.007586 0.000000 0.000001 0.000000
# 2 -0.005159 0.010129 -0.003789 0.000000 0.000000 0.000000
# 3 -0.007586 -0.003789 0.015758 0.000001 -0.000003 0.000000
# 4 0.000000 0.000000 0.000001 0.038572 -0.000002 0.000000
# 5 0.000001 0.000000 -0.000003 -0.000002 0.060436 0.000001
# 6 0.000000 0.000000 0.000000 0.000000 0.000001 0.042232
#
#
# Mechanical properties :
#
#
# Convention : Reuss Voigt Hill
#
# Bulk Modulus (GPa) = 46.56667 58.63135 52.59901
# Shear Modulus (GPa) = 21.18588 23.67771 22.43180
#
# Velocity S-wave (km/s) = 3.57878 3.78339 3.68251
# Velocity P-wave (km/s) = 6.72519 7.38446 7.06252
#
# Compressibility (1/GPa) = 0.02147458
#
# Stress axis : x y z
#
# Youngs Moduli (GPa) = 34.89965 98.72246 63.45792
#
# Poissons Ratio (x) = 0.50926 0.48141
# Poissons Ratio (y) = 0.18003 0.24042
# Poissons Ratio (z) = 0.26476 0.37402
#
# Static dielectric constant tensor:
#      x y z
#    x 2.901720 0.000000 0.000000 
#    y 0.000000 3.362350 0.000000 
#    z 0.000000 0.000000 3.152760 
# 
# 
# High freq. dielectric constant tensor:
#      x y z
#    x 1.605540 0.000000 0.000000 
#    y 0.000000 1.658340 0.000000 
#    z 0.000000 0.000000 1.629070 
# 
# From -- ./inp_files/22697.got.cif
#   From: 2010.06.25/outbox.cif.g09.slc.cpg/sg71_12_cif.got.tgz:22697.got - 2010.06.28 04:59:45.
