data_PCOD8287874
_publ_section_title
;
Structure prediction by ZEFSAII (Michael W. Deem and Ramdas Pophale) SiO2 
 PCOD8287874
Probable space group: I M M M
;
_chemical_formula_sum "Si O2"
_cell_formula_units_Z 88
_cell_length_a 28.384405
_cell_length_b 14.845352
_cell_length_c 11.898860
_cell_angle_alpha 90.000000
_cell_angle_beta 90.000000
_cell_angle_gamma 90.000000
_cell_volume 5013.899785
_symmetry_space_group_name_H-M "I M M M"
_symmetry_group_IT_number 71
_symmetry_cell_setting 'orthorhombic'
loop_
_space_group_symop_operation_xyz
x,y,z
-x,-y,z
x,-y,-z
-x,y,-z
-x,-y,-z
x,y,-z
-x,y,z
x,-y,z
1/2+x,1/2+y,1/2+z
1/2-x,1/2-y,1/2+z
1/2+x,1/2-y,1/2-z
1/2-x,1/2+y,1/2-z
1/2-x,1/2-y,1/2-z
1/2+x,1/2+y,1/2-z
1/2-x,1/2+y,1/2+z
1/2+x,1/2-y,1/2+z
loop_
_atom_site_type_symbol
_atom_site_label
_atom_site_fract_x
_atom_site_fract_y
_atom_site_fract_z
Si Si1 0.554095 0.811116 0.278592
Si Si2 0.143665 0.897083 0.000000
Si Si3 0.286200 0.897758 0.871361
Si Si4 0.444255 0.000000 0.626225
Si Si5 0.312652 0.394707 0.725957
Si Si6 0.138268 0.249895 0.631474
Si Si7 0.551462 0.695453 0.500000
O O1 0.500000 0.809191 0.234600
O O2 0.571586 0.912750 0.302843
O O3 0.587232 0.763908 0.186791
O O4 0.559028 0.757976 0.393603
O O5 0.164482 0.853158 0.887379
O O6 0.087488 0.887096 0.000000
O O7 0.159595 0.000000 0.000000
O O8 0.243377 0.879643 0.785107
O O9 0.329208 0.834553 0.836841
O O10 0.303952 0.000000 0.859092
O O11 0.269412 0.879626 0.000000
O O12 0.500000 0.000000 0.612042
O O13 0.421987 0.000000 0.500000
O O14 0.324904 0.500000 0.743003
O O15 0.335024 0.340544 0.829187
O O16 0.129642 0.240902 0.500000
O O17 0.500000 0.650732 0.500000
#
# Coordination Sequence:
#
# PCOD8287874 Si02
#       7
#    16   8  16   8  16  16   8
#     4  10  20  34  53  78 108 140 177 219 265 312
#     4  10  18  31  55  83 102 128 168 217 278 324
#     4   9  18  34  55  80 107 134 170 219 271 318
#     4   9  16  30  53  79 103 133 172 217 271 317
#     4  10  19  35  58  79 103 136 175 220 269 319
#     4  11  23  35  52  78 108 148 185 213 252 308
#     4  10  18  32  54  80 107 133 168 223 275 311
#
# _framework density 17.551207999999999
#
# number of rings (size 3 to 8) (size 9 to 14) (size 15 to 20)
#    0.000    2.091    3.636    0.545    1.273    0.909 
#    0.000    0.000    0.000    2.182    0.000    1.273 
#    0.000    0.000    0.000    0.000    0.000    0.000 
#
# Total GULP energy -545528.306868 kJ/mol
# GULP energy per Si atom -12398.370611 kJ/mol
# Density = 1.751126 g / cm^3
# Si number density = 17.551208 Si / 1000 Ang^3
#
#
#
# Elastic Constant Matrix: (Units=GPa)
#
#
# Indices 1 2 3 4 5 6 
#
# 1 98.9366 38.2559 51.6918 0.0000 0.0000 0.0000
# 2 38.2559 65.5378 36.6020 0.0000 0.0000 0.0000
# 3 51.6918 36.6020 94.8053 0.0000 0.0000 0.0000
# 4 0.0000 0.0000 0.0000 32.5660 0.0000 0.0000
# 5 0.0000 0.0000 0.0000 0.0000 -20.5298 0.0000
# 6 0.0000 0.0000 0.0000 0.0000 0.0000 28.7587
#
#
#
# Elastic Compliance Matrix: (Units=1/GPa)
#
#
# Indices 1 2 3 4 5 6 
#
# 1 0.015567 -0.005541 -0.006348 0.000000 0.000000 0.000000
# 2 -0.005541 0.021425 -0.005250 0.000000 0.000000 0.000000
# 3 -0.006348 -0.005250 0.016036 0.000000 0.000000 0.000000
# 4 0.000000 0.000000 0.000000 0.030707 0.000000 0.000000
# 5 0.000000 0.000000 0.000000 0.000000 -0.048710 0.000000
# 6 0.000000 0.000000 0.000000 0.000000 0.000000 0.034772
#
#
# Mechanical properties :
#
#
# Convention : Reuss Voigt Hill
#
# Bulk Modulus (GPa) = 53.33789 56.93100 55.13444
# Shear Modulus (GPa) = 45.31957 17.00766 31.16361
#
# Velocity S-wave (km/s) = 5.08698 3.11630 4.21834
# Velocity P-wave (km/s) = 8.05972 6.74210 7.43017
#
# Compressibility (1/GPa) = 0.01874840
#
# Stress axis : x y z
#
# Youngs Moduli (GPa) = 64.23824 46.67395 62.35807
#
# Poissons Ratio (x) = 0.25863 0.39588
# Poissons Ratio (y) = 0.35596 0.32740
# Poissons Ratio (z) = 0.40781 0.24506
#
# Static dielectric constant tensor:
#      x y z
#    x 3.221770 0.000000 0.000000 
#    y 0.000000 3.217060 0.000000 
#    z 0.000000 0.000000 3.133300 
# 
# 
# High freq. dielectric constant tensor:
#      x y z
#    x 1.675600 0.000000 0.000000 
#    y 0.000000 1.673610 0.000000 
#    z 0.000000 0.000000 1.664460 
# 
# From -- ./inp_files/28644.got.cif
#   From: 2010.06.25/outbox.cif.g09.slc.cpg/sg71_15_cif.got.tgz:28644.got - 2010.06.28 04:59:45.
