data_PCOD8287691
_publ_section_title
;
Structure prediction by ZEFSAII (Michael W. Deem and Ramdas Pophale) SiO2 
 PCOD8287691
Probable space group: I M M M
;
_chemical_formula_sum "Si O2"
_cell_formula_units_Z 88
_cell_length_a 13.552163
_cell_length_b 11.710071
_cell_length_c 28.461543
_cell_angle_alpha 90.000000
_cell_angle_beta 90.000000
_cell_angle_gamma 90.000000
_cell_volume 4516.755539
_symmetry_space_group_name_H-M "I M M M"
_symmetry_group_IT_number 71
_symmetry_cell_setting 'orthorhombic'
loop_
_space_group_symop_operation_xyz
x,y,z
-x,-y,z
x,-y,-z
-x,y,-z
-x,-y,-z
x,y,-z
-x,y,z
x,-y,z
1/2+x,1/2+y,1/2+z
1/2-x,1/2-y,1/2+z
1/2+x,1/2-y,1/2-z
1/2-x,1/2+y,1/2-z
1/2-x,1/2-y,1/2-z
1/2+x,1/2+y,1/2-z
1/2-x,1/2+y,1/2+z
1/2+x,1/2-y,1/2+z
loop_
_atom_site_type_symbol
_atom_site_label
_atom_site_fract_x
_atom_site_fract_y
_atom_site_fract_z
Si Si1 0.713185 0.864669 0.095396
Si Si2 0.116565 0.716896 0.313356
Si Si3 0.883821 0.500000 0.845513
Si Si4 0.118357 0.500000 0.258276
Si Si5 0.617198 0.373214 0.269106
Si Si6 0.615686 0.749323 0.636065
Si Si7 0.110466 0.634967 0.500000
O O1 0.661258 0.785563 0.134636
O O2 0.828657 0.829642 0.097596
O O3 0.669317 0.824178 0.045850
O O4 0.697176 0.000000 0.103800
O O5 0.160252 0.610075 0.284743
O O6 0.147920 0.826543 0.282410
O O7 0.000000 0.707657 0.319069
O O8 0.836886 0.500000 0.793786
O O9 0.853992 0.382594 0.871967
O O10 0.000000 0.500000 0.838389
O O11 0.000000 0.500000 0.258093
O O12 0.500000 0.379182 0.271638
O O13 0.663140 0.500000 0.275291
O O14 0.651347 0.290347 0.311731
O O15 0.500000 0.729370 0.628564
O O16 0.103128 0.500000 0.500000
O O17 0.000000 0.687407 0.500000
#
# Coordination Sequence:
#
# PCOD8287691 Si02
#       7
#    16  16   8   8  16  16   8
#     4  11  22  35  55  83 107 135 178 222 274 330
#     4  10  18  30  50  76 107 144 184 224 263 311
#     4   9  16  32  54  75 105 147 187 219 257 304
#     4   9  14  26  48  71 102 141 182 225 260 298
#     4   9  17  30  47  72 112 154 183 214 262 314
#     4  10  20  35  54  77 110 148 181 217 260 310
#     4   9  20  40  63  86 111 134 165 220 279 323
#
# _framework density 19.483011999999999
#
# number of rings (size 3 to 8) (size 9 to 14) (size 15 to 20)
#    0.000    2.273    2.727    1.091    0.000    2.545 
#    1.636    0.455    0.000    2.182    0.000    2.545 
#    0.000    0.000    0.000    0.000    0.000    0.000 
#
# Total GULP energy -545413.661013 kJ/mol
# GULP energy per Si atom -12395.765023 kJ/mol
# Density = 1.943867 g / cm^3
# Si number density = 19.483012 Si / 1000 Ang^3
#
#
#
# Elastic Constant Matrix: (Units=GPa)
#
#
# Indices 1 2 3 4 5 6 
#
# 1 60.3438 31.3692 51.7851 0.0000 0.0000 0.0000
# 2 31.3692 103.2827 35.4294 0.0000 0.0000 0.0000
# 3 51.7851 35.4294 119.1995 0.0000 0.0000 0.0000
# 4 0.0000 0.0000 0.0000 22.0893 0.0000 0.0000
# 5 0.0000 0.0000 0.0000 0.0000 28.2663 0.0000
# 6 0.0000 0.0000 0.0000 0.0000 0.0000 25.8978
#
#
#
# Elastic Compliance Matrix: (Units=1/GPa)
#
#
# Indices 1 2 3 4 5 6 
#
# 1 0.028495 -0.004908 -0.010920 0.000000 0.000000 0.000000
# 2 -0.004908 0.011627 -0.001323 0.000000 0.000000 0.000000
# 3 -0.010920 -0.001323 0.013527 0.000000 0.000000 0.000000
# 4 0.000000 0.000000 0.000000 0.045271 0.000000 0.000000
# 5 0.000000 0.000000 0.000000 0.000000 0.035378 0.000000
# 6 0.000000 0.000000 0.000000 0.000000 0.000000 0.038613
#
#
# Mechanical properties :
#
#
# Convention : Reuss Voigt Hill
#
# Bulk Modulus (GPa) = 51.69514 57.77707 54.73611
# Shear Modulus (GPa) = 23.40132 26.20017 24.80075
#
# Velocity S-wave (km/s) = 3.46947 3.67109 3.57170
# Velocity P-wave (km/s) = 6.52998 6.90570 6.72047
#
# Compressibility (1/GPa) = 0.01934418
#
# Stress axis : x y z
#
# Youngs Moduli (GPa) = 35.09409 86.00711 73.92671
#
# Poissons Ratio (x) = 0.42216 0.80731
# Poissons Ratio (y) = 0.17226 0.09784
# Poissons Ratio (z) = 0.38324 0.11382
#
# Static dielectric constant tensor:
#      x y z
#    x 3.645410 0.000000 0.000000 
#    y 0.000000 3.703730 0.000000 
#    z 0.000000 0.000000 3.305780 
# 
# 
# High freq. dielectric constant tensor:
#      x y z
#    x 1.771900 0.000000 0.000000 
#    y 0.000000 1.748060 0.000000 
#    z 0.000000 0.000000 1.714750 
# 
# From -- ./inp_files/22348.got.cif
#   From: 2010.06.25/outbox.cif.g09.slc.cpg/sg71_12_cif.got.tgz:22348.got - 2010.06.28 04:59:45.
