data_PCOD8287237
_publ_section_title
;
Structure prediction by ZEFSAII (Michael W. Deem and Ramdas Pophale) SiO2 
 PCOD8287237
Probable space group: I M M M
;
_chemical_formula_sum "Si O2"
_cell_formula_units_Z 72
_cell_length_a 14.561236
_cell_length_b 9.317150
_cell_length_c 33.456741
_cell_angle_alpha 90.000000
_cell_angle_beta 90.000000
_cell_angle_gamma 90.000000
_cell_volume 4539.049955
_symmetry_space_group_name_H-M "I M M M"
_symmetry_group_IT_number 71
_symmetry_cell_setting 'orthorhombic'
loop_
_space_group_symop_operation_xyz
x,y,z
-x,-y,z
x,-y,-z
-x,y,-z
-x,-y,-z
x,y,-z
-x,y,z
x,-y,z
1/2+x,1/2+y,1/2+z
1/2-x,1/2-y,1/2+z
1/2+x,1/2-y,1/2-z
1/2-x,1/2+y,1/2-z
1/2-x,1/2-y,1/2-z
1/2+x,1/2+y,1/2-z
1/2-x,1/2+y,1/2+z
1/2+x,1/2-y,1/2+z
loop_
_atom_site_type_symbol
_atom_site_label
_atom_site_fract_x
_atom_site_fract_y
_atom_site_fract_z
Si Si1 0.900180 0.169941 0.812735
Si Si2 0.606832 0.832457 0.077243
Si Si3 0.109045 0.838043 0.500000
Si Si4 0.789112 0.330528 0.344136
Si Si5 0.893533 0.162772 0.723120
O O1 0.818653 0.215850 0.842905
O O2 0.877751 0.223827 0.767877
O O3 0.000000 0.231151 0.827126
O O4 0.907681 0.000000 0.810280
O O5 0.500000 0.800705 0.086048
O O6 0.666039 0.776324 0.114709
O O7 0.622739 0.000000 0.068625
O O8 0.644095 0.744838 0.039219
O O9 0.000000 0.837818 0.500000
O O10 0.147988 0.000000 0.500000
O O11 0.801044 0.500000 0.340474
O O12 0.839030 0.263573 0.306540
O O13 0.000000 0.169549 0.711685
O O14 0.856980 0.000000 0.719065
#
# Coordination Sequence:
#
# PCOD8287237 Si02
#       5
#    16  16   8  16  16
#     4   8  15  28  43  59  82 113 147 180 214 248
#     4   9  17  28  41  60  87 112 131 159 203 248
#     4   9  17  29  45  63  82 107 136 160 189 241
#     4  10  18  27  43  65  85 109 143 179 211 246
#     4   9  17  28  41  58  84 117 146 174 212 252
#
# _framework density 15.862349999999999
#
# number of rings (size 3 to 8) (size 9 to 14) (size 15 to 20)
#    0.000    3.000    0.000    3.000    0.000    3.556 
#    0.000    2.222    0.000    2.000    0.000    0.778 
#    0.000    6.222    0.000    0.000    0.000    0.000 
#
# Total GULP energy -446210.282473 kJ/mol
# GULP energy per Si atom -12394.730069 kJ/mol
# Density = 1.582625 g / cm^3
# Si number density = 15.862350 Si / 1000 Ang^3
#
#
#
# Elastic Constant Matrix: (Units=GPa)
#
#
# Indices 1 2 3 4 5 6 
#
# 1 89.3224 27.6856 72.6388 0.0000 0.0000 0.0000
# 2 27.6856 33.9302 31.5845 0.0000 0.0000 0.0000
# 3 72.6388 31.5845 105.3237 0.0000 0.0000 0.0000
# 4 0.0000 0.0000 0.0000 22.2614 0.0000 0.0000
# 5 0.0000 0.0000 0.0000 0.0000 20.9556 0.0000
# 6 0.0000 0.0000 0.0000 0.0000 0.0000 12.7580
#
#
#
# Elastic Compliance Matrix: (Units=1/GPa)
#
#
# Indices 1 2 3 4 5 6 
#
# 1 0.026454 -0.006384 -0.016330 0.000000 0.000000 0.000000
# 2 -0.006384 0.042426 -0.008320 0.000000 0.000000 0.000000
# 3 -0.016330 -0.008320 0.023252 0.000000 0.000000 0.000000
# 4 0.000000 0.000000 0.000000 0.044921 0.000000 0.000000
# 5 0.000000 0.000000 0.000000 0.000000 0.047720 0.000000
# 6 0.000000 0.000000 0.000000 0.000000 0.000000 0.078382
#
#
# Mechanical properties :
#
#
# Convention : Reuss Voigt Hill
#
# Bulk Modulus (GPa) = 33.26248 54.71043 43.98645
# Shear Modulus (GPa) = 14.91448 17.63951 16.27700
#
# Velocity S-wave (km/s) = 3.06967 3.33834 3.20682
# Velocity P-wave (km/s) = 5.79472 7.03029 6.44219
#
# Compressibility (1/GPa) = 0.03006391
#
# Stress axis : x y z
#
# Youngs Moduli (GPa) = 37.80105 23.57041 43.00714
#
# Poissons Ratio (x) = 0.15048 0.70232
# Poissons Ratio (y) = 0.24133 0.35781
# Poissons Ratio (z) = 0.61730 0.19610
#
# Static dielectric constant tensor:
#      x y z
#    x 3.246090 0.000000 0.000000 
#    y 0.000000 2.854310 0.000000 
#    z 0.000000 0.000000 3.010620 
# 
# 
# High freq. dielectric constant tensor:
#      x y z
#    x 1.595280 0.000000 0.000000 
#    y 0.000000 1.589670 0.000000 
#    z 0.000000 0.000000 1.595520 
# 
# From -- ./inp_files/6437.got.cif
#   From: 2010.06.25/outbox.cif.g09.slc.cpg/sg71_4_cif.got.tgz:6437.got - 2010.06.28 04:59:45.
