data_PCOD8287950
_publ_section_title
;
Structure prediction by ZEFSAII (Michael W. Deem and Ramdas Pophale) SiO2 
 PCOD8287950
Probable space group: I M M M
;
_chemical_formula_sum "Si O2"
_cell_formula_units_Z 104
_cell_length_a 9.198398
_cell_length_b 34.065578
_cell_length_c 18.043407
_cell_angle_alpha 90.000000
_cell_angle_beta 90.000000
_cell_angle_gamma 90.000000
_cell_volume 5653.878931
_symmetry_space_group_name_H-M "I M M M"
_symmetry_group_IT_number 71
_symmetry_cell_setting 'orthorhombic'
loop_
_space_group_symop_operation_xyz
x,y,z
-x,-y,z
x,-y,-z
-x,y,-z
-x,-y,-z
x,y,-z
-x,y,z
x,-y,z
1/2+x,1/2+y,1/2+z
1/2-x,1/2-y,1/2+z
1/2+x,1/2-y,1/2-z
1/2-x,1/2+y,1/2-z
1/2-x,1/2-y,1/2-z
1/2+x,1/2+y,1/2-z
1/2-x,1/2+y,1/2+z
1/2+x,1/2-y,1/2+z
loop_
_atom_site_type_symbol
_atom_site_label
_atom_site_fract_x
_atom_site_fract_y
_atom_site_fract_z
Si Si1 0.670345 0.330345 0.311479
Si Si2 0.330792 0.954741 0.709671
Si Si3 0.670745 0.581143 0.652442
Si Si4 0.672171 0.818075 0.341728
Si Si5 0.672754 0.544267 0.500000
Si Si6 0.327428 0.261218 0.417489
Si Si7 0.327656 0.102338 0.417810
O O1 0.500000 0.325931 0.295177
O O2 0.709695 0.373175 0.341840
O O3 0.756579 0.322050 0.237548
O O4 0.724705 0.299131 0.372136
O O5 0.500000 0.945402 0.722174
O O6 0.247960 0.943663 0.784082
O O7 0.267719 0.929620 0.640664
O O8 0.303730 0.000000 0.690493
O O9 0.500000 0.573560 0.660452
O O10 0.730113 0.566423 0.573141
O O11 0.500000 0.817407 0.330975
O O12 0.730988 0.778363 0.379186
O O13 0.721410 0.854347 0.392860
O O14 0.733723 0.500000 0.500000
O O15 0.500000 0.544391 0.500000
O O16 0.261598 0.264144 0.500000
O O17 0.500000 0.259656 0.421524
O O18 0.263384 0.093986 0.500000
O O19 0.500000 0.099561 0.420889
#
# Coordination Sequence:
#
# PCOD8287950 Si02
#       7
#    16  16  16  16   8  16  16
#     4  10  20  32  50  76 104 133 165 205 254 302
#     4  10  20  34  53  77 104 133 167 211 262 309
#     4  10  20  34  54  77 103 137 173 210 255 306
#     4  10  18  32  54  75  98 133 171 207 247 296
#     4   9  18  32  51  75  99 129 175 219 249 291
#     4   9  18  31  50  77 104 130 166 210 250 294
#     4   9  17  30  50  75 101 130 168 211 251 295
#
# _framework density 18.394449999999999
#
# number of rings (size 3 to 8) (size 9 to 14) (size 15 to 20)
#    0.000    2.385    1.538    1.385    1.077    3.077 
#    0.000    1.923    0.000    6.000    0.000    1.077 
#    0.000    0.000    0.000    0.000    0.000    0.000 
#
# Total GULP energy -644827.770535 kJ/mol
# GULP energy per Si atom -12400.534049 kJ/mol
# Density = 1.835258 g / cm^3
# Si number density = 18.394450 Si / 1000 Ang^3
#
#
#
# Elastic Constant Matrix: (Units=GPa)
#
#
# Indices 1 2 3 4 5 6 
#
# 1 16.6588 18.8306 26.0211 0.0003 -0.0001 0.0000
# 2 18.8306 120.2782 70.2419 0.0013 0.0001 0.0000
# 3 26.0211 70.2419 181.6593 0.0037 0.0002 0.0000
# 4 0.0003 0.0013 0.0037 56.4131 0.0001 -0.0001
# 5 -0.0001 0.0001 0.0002 0.0001 26.5685 0.0001
# 6 0.0000 0.0000 0.0000 -0.0001 0.0001 18.2044
#
#
#
# Elastic Compliance Matrix: (Units=1/GPa)
#
#
# Indices 1 2 3 4 5 6 
#
# 1 0.082606 -0.007779 -0.008825 0.000000 0.000000 0.000000
# 2 -0.007779 0.011472 -0.003321 0.000000 0.000000 0.000000
# 3 -0.008825 -0.003321 0.008053 0.000000 0.000000 0.000000
# 4 0.000000 0.000000 0.000000 0.017726 0.000000 0.000000
# 5 0.000000 0.000000 0.000000 0.000000 0.037639 0.000000
# 6 0.000000 0.000000 0.000000 0.000000 0.000000 0.054932
#
#
# Mechanical properties :
#
#
# Convention : Reuss Voigt Hill
#
# Bulk Modulus (GPa) = 16.05648 60.97594 38.51621
# Shear Modulus (GPa) = 18.31252 33.80405 26.05828
#
# Velocity S-wave (km/s) = 3.15865 4.29153 3.76791
# Velocity P-wave (km/s) = 4.69582 7.60114 6.31775
#
# Compressibility (1/GPa) = 0.06228016
#
# Stress axis : x y z
#
# Youngs Moduli (GPa) = 12.10572 87.17151 124.17491
#
# Poissons Ratio (x) = 0.67811 1.09580
# Poissons Ratio (y) = 0.09417 0.41244
# Poissons Ratio (z) = 0.10683 0.28953
#
# Static dielectric constant tensor:
#      x y z
#    x 2.952210 0.000000 0.000000 
#    y 0.000000 3.845490 0.000000 
#    z 0.000000 0.000000 3.718120 
# 
# 
# High freq. dielectric constant tensor:
#      x y z
#    x 1.661660 0.000000 0.000000 
#    y 0.000000 1.731670 0.000000 
#    z 0.000000 0.000000 1.728390 
# 
# From -- ./inp_files/43968.got.cif
#   From: 2010.06.25/outbox.cif.g09.slc.cpg/sg71_22_cif.got.tgz:43968.got - 2010.06.28 04:59:45.
