data_PCOD8287743
_publ_section_title
;
Structure prediction by ZEFSAII (Michael W. Deem and Ramdas Pophale) SiO2 
 PCOD8287743
Probable space group: I M M M
;
_chemical_formula_sum "Si O2"
_cell_formula_units_Z 88
_cell_length_a 17.504484
_cell_length_b 13.984740
_cell_length_c 20.814735
_cell_angle_alpha 90.000000
_cell_angle_beta 90.000000
_cell_angle_gamma 90.000000
_cell_volume 5095.356742
_symmetry_space_group_name_H-M "I M M M"
_symmetry_group_IT_number 71
_symmetry_cell_setting 'orthorhombic'
loop_
_space_group_symop_operation_xyz
x,y,z
-x,-y,z
x,-y,-z
-x,y,-z
-x,-y,-z
x,y,-z
-x,y,z
x,-y,z
1/2+x,1/2+y,1/2+z
1/2-x,1/2-y,1/2+z
1/2+x,1/2-y,1/2-z
1/2-x,1/2+y,1/2-z
1/2-x,1/2-y,1/2-z
1/2+x,1/2+y,1/2-z
1/2-x,1/2+y,1/2+z
1/2+x,1/2-y,1/2+z
loop_
_atom_site_type_symbol
_atom_site_label
_atom_site_fract_x
_atom_site_fract_y
_atom_site_fract_z
Si Si1 0.355719 0.392787 0.193367
Si Si2 0.224968 0.389970 0.705705
Si Si3 0.832014 0.776430 0.884737
Si Si4 0.084694 0.279395 0.241434
Si Si5 0.589414 0.386952 0.500000
Si Si6 0.734007 0.607383 0.928376
O O1 0.386236 0.500000 0.205641
O O2 0.276840 0.373734 0.231623
O O3 0.418795 0.319107 0.217824
O O4 0.337167 0.373774 0.118869
O O5 0.219583 0.500000 0.685481
O O6 0.259862 0.332136 0.645892
O O7 0.141104 0.353185 0.723834
O O8 0.892566 0.745924 0.831044
O O9 0.872857 0.844044 0.936111
O O10 0.803284 0.680362 0.918773
O O11 0.000000 0.324253 0.241279
O O12 0.603537 0.500000 0.500000
O O13 0.500000 0.361921 0.500000
O O14 0.766317 0.500000 0.916329
O O15 0.701065 0.618462 0.000000
#
# Coordination Sequence:
#
# PCOD8287743 Si02
#       6
#    16  16  16  16   8  16
#     4   9  17  33  53  73 101 132 170 220 264 310
#     4  10  19  33  53  75 101 138 184 223 257 307
#     4  11  19  36  55  77 105 143 182 215 256 314
#     4  11  21  32  50  78 108 138 173 217 271 317
#     4  11  24  38  53  79 114 146 176 217 267 313
#     4  10  18  30  55  83 102 128 173 218 257 307
#
# _framework density 17.270626
#
# number of rings (size 3 to 8) (size 9 to 14) (size 15 to 20)
#    0.000    1.727    4.545    2.182    0.000    1.455 
#    0.000    0.000    0.000    2.727    0.000    2.545 
#    0.000    3.636    0.000    0.000    0.000    0.000 
#
# Total GULP energy -545611.862232 kJ/mol
# GULP energy per Si atom -12400.269596 kJ/mol
# Density = 1.723132 g / cm^3
# Si number density = 17.270626 Si / 1000 Ang^3
#
#
#
# Elastic Constant Matrix: (Units=GPa)
#
#
# Indices 1 2 3 4 5 6 
#
# 1 83.1461 18.7210 29.1324 0.0000 0.0000 0.0000
# 2 18.7210 70.7221 31.3291 0.0000 0.0000 0.0000
# 3 29.1324 31.3291 109.5543 0.0000 0.0000 0.0000
# 4 0.0000 0.0000 0.0000 27.8735 0.0000 0.0000
# 5 0.0000 0.0000 0.0000 0.0000 15.9690 0.0000
# 6 0.0000 0.0000 0.0000 0.0000 0.0000 21.2746
#
#
#
# Elastic Compliance Matrix: (Units=1/GPa)
#
#
# Indices 1 2 3 4 5 6 
#
# 1 0.013577 -0.002284 -0.002957 0.000000 0.000000 0.000000
# 2 -0.002284 0.016575 -0.004133 0.000000 0.000000 0.000000
# 3 -0.002957 -0.004133 0.011096 0.000000 0.000000 0.000000
# 4 0.000000 0.000000 0.000000 0.035876 0.000000 0.000000
# 5 0.000000 0.000000 0.000000 0.000000 0.062621 0.000000
# 6 0.000000 0.000000 0.000000 0.000000 0.000000 0.047004
#
#
# Mechanical properties :
#
#
# Convention : Reuss Voigt Hill
#
# Bulk Modulus (GPa) = 44.44297 46.86529 45.65413
# Shear Modulus (GPa) = 23.47431 25.30610 24.39020
#
# Velocity S-wave (km/s) = 3.69074 3.83204 3.76205
# Velocity P-wave (km/s) = 6.62957 6.83916 6.73518
#
# Compressibility (1/GPa) = 0.02250075
#
# Stress axis : x y z
#
# Youngs Moduli (GPa) = 73.65139 60.33119 90.12181
#
# Poissons Ratio (x) = 0.13780 0.26652
# Poissons Ratio (y) = 0.16823 0.37244
# Poissons Ratio (z) = 0.21781 0.24933
#
# Static dielectric constant tensor:
#      x y z
#    x 2.870660 0.000000 0.000000 
#    y 0.000000 3.409320 0.000000 
#    z 0.000000 0.000000 3.323050 
# 
# 
# High freq. dielectric constant tensor:
#      x y z
#    x 1.634120 0.000000 0.000000 
#    y 0.000000 1.680840 0.000000 
#    z 0.000000 0.000000 1.671140 
# 
# From -- ./inp_files/36567.got.cif
#   From: 2010.06.25/outbox.cif.g09.slc.cpg/sg71_19_cif.got.tgz:36567.got - 2010.06.28 04:59:45.
