data_PCOD8287292
_publ_section_title
;
Structure prediction by ZEFSAII (Michael W. Deem and Ramdas Pophale) SiO2 
 PCOD8287292
Probable space group: I M M M
;
_chemical_formula_sum "Si O2"
_cell_formula_units_Z 112
_cell_length_a 20.371458
_cell_length_b 18.701678
_cell_length_c 18.144029
_cell_angle_alpha 90.000000
_cell_angle_beta 90.000000
_cell_angle_gamma 90.000000
_cell_volume 6912.520295
_symmetry_space_group_name_H-M "I M M M"
_symmetry_group_IT_number 71
_symmetry_cell_setting 'orthorhombic'
loop_
_space_group_symop_operation_xyz
x,y,z
-x,-y,z
x,-y,-z
-x,y,-z
-x,-y,-z
x,y,-z
-x,y,z
x,-y,z
1/2+x,1/2+y,1/2+z
1/2-x,1/2-y,1/2+z
1/2+x,1/2-y,1/2-z
1/2-x,1/2+y,1/2-z
1/2-x,1/2-y,1/2-z
1/2+x,1/2+y,1/2-z
1/2-x,1/2+y,1/2+z
1/2+x,1/2-y,1/2+z
loop_
_atom_site_type_symbol
_atom_site_label
_atom_site_fract_x
_atom_site_fract_y
_atom_site_fract_z
Si Si1 0.129466 0.580186 0.783341
Si Si2 0.274911 0.421952 0.721649
Si Si3 0.325927 0.580631 0.881508
Si Si4 0.308301 0.147369 0.417333
Si Si5 0.424785 0.297275 0.081627
Si Si6 0.696509 0.272214 0.310833
Si Si7 0.074618 0.717609 0.273757
O O1 0.100604 0.500000 0.782200
O O2 0.199697 0.584518 0.744804
O O3 0.137339 0.606603 0.867868
O O4 0.081308 0.632190 0.738092
O O5 0.287343 0.500000 0.684278
O O6 0.319802 0.413719 0.793596
O O7 0.294058 0.356093 0.668138
O O8 0.342678 0.500000 0.905639
O O9 0.258343 0.602420 0.920522
O O10 0.384116 0.630826 0.907626
O O11 0.336278 0.155803 0.500000
O O12 0.292605 0.225837 0.384063
O O13 0.500000 0.320413 0.090023
O O14 0.406772 0.236680 0.141728
O O15 0.410753 0.265359 0.000000
O O16 0.750000 0.250000 0.250000
O O17 0.623195 0.259686 0.280570
O O18 0.000000 0.740540 0.255531
#
# Coordination Sequence:
#
# PCOD8287292 Si02
#       7
#    16  16  16  16  16  16  16
#     4   9  18  31  49  69  92 124 156 191 239 286
#     4   9  16  28  48  70  90 117 156 199 236 272
#     4  10  18  28  43  65  93 124 158 193 232 274
#     4  10  19  28  46  75  99 119 151 195 239 287
#     4  10  20  31  42  60  91 131 165 193 231 274
#     4  11  16  31  52  67  91 125 163 196 235 280
#     4  10  19  31  48  70  94 122 162 204 233 276
#
# _framework density 16.202483999999998
#
# number of rings (size 3 to 8) (size 9 to 14) (size 15 to 20)
#    0.000    2.143    5.714    1.714    0.000    2.571 
#    0.000    0.714    0.000    8.143    0.000    8.000 
#    0.000    0.000    0.000    5.143    0.000    0.000 
#
# Total GULP energy -694118.565964 kJ/mol
# GULP energy per Si atom -12394.974392 kJ/mol
# Density = 1.616561 g / cm^3
# Si number density = 16.202484 Si / 1000 Ang^3
#
#
#
# Elastic Constant Matrix: (Units=GPa)
#
#
# Indices 1 2 3 4 5 6 
#
# 1 53.2259 22.3597 24.5634 0.0000 0.0000 0.0000
# 2 22.3597 131.0946 47.5798 0.0000 0.0000 0.0000
# 3 24.5634 47.5798 73.1358 0.0000 0.0000 0.0000
# 4 0.0000 0.0000 0.0000 17.2601 0.0000 0.0000
# 5 0.0000 0.0000 0.0000 0.0000 13.2401 0.0000
# 6 0.0000 0.0000 0.0000 0.0000 0.0000 16.4630
#
#
#
# Elastic Compliance Matrix: (Units=1/GPa)
#
#
# Indices 1 2 3 4 5 6 
#
# 1 0.022437 -0.001429 -0.006606 0.000000 0.000000 0.000000
# 2 -0.001429 0.010077 -0.006076 0.000000 0.000000 0.000000
# 3 -0.006606 -0.006076 0.019844 0.000000 0.000000 0.000000
# 4 0.000000 0.000000 0.000000 0.057937 0.000000 0.000000
# 5 0.000000 0.000000 0.000000 0.000000 0.075528 0.000000
# 6 0.000000 0.000000 0.000000 0.000000 0.000000 0.060742
#
#
# Mechanical properties :
#
#
# Convention : Reuss Voigt Hill
#
# Bulk Modulus (GPa) = 41.43074 49.60689 45.51881
# Shear Modulus (GPa) = 17.67827 20.25619 18.96723
#
# Velocity S-wave (km/s) = 3.30674 3.53964 3.42517
# Velocity P-wave (km/s) = 6.34078 6.88395 6.61794
#
# Compressibility (1/GPa) = 0.02413667
#
# Stress axis : x y z
#
# Youngs Moduli (GPa) = 44.56969 99.23581 50.39189
#
# Poissons Ratio (x) = 0.14184 0.33287
# Poissons Ratio (y) = 0.06371 0.30617
# Poissons Ratio (z) = 0.29441 0.60293
#
# Static dielectric constant tensor:
#      x y z
#    x 2.914210 0.000000 0.000000 
#    y 0.000000 3.417560 0.000000 
#    z 0.000000 0.000000 2.945580 
# 
# 
# High freq. dielectric constant tensor:
#      x y z
#    x 1.607440 0.000000 0.000000 
#    y 0.000000 1.629700 0.000000 
#    z 0.000000 0.000000 1.590930 
# 
# From -- ./inp_files/46404.got.cif
#   From: 2010.06.25/outbox.cif.g09.slc.cpg/sg71_24_cif.got.tgz:46404.got - 2010.06.28 04:59:45.
