data_PCOD8287387
_publ_section_title
;
Structure prediction by ZEFSAII (Michael W. Deem and Ramdas Pophale) SiO2 
 PCOD8287387
Probable space group: I M M M
;
_chemical_formula_sum "Si O2"
_cell_formula_units_Z 64
_cell_length_a 8.659435
_cell_length_b 26.098918
_cell_length_c 18.407924
_cell_angle_alpha 90.000000
_cell_angle_beta 90.000000
_cell_angle_gamma 90.000000
_cell_volume 4160.225504
_symmetry_space_group_name_H-M "I M M M"
_symmetry_group_IT_number 71
_symmetry_cell_setting 'orthorhombic'
loop_
_space_group_symop_operation_xyz
x,y,z
-x,-y,z
x,-y,-z
-x,y,-z
-x,-y,-z
x,y,-z
-x,y,z
x,-y,z
1/2+x,1/2+y,1/2+z
1/2-x,1/2-y,1/2+z
1/2+x,1/2-y,1/2-z
1/2-x,1/2+y,1/2-z
1/2-x,1/2-y,1/2-z
1/2+x,1/2+y,1/2-z
1/2-x,1/2+y,1/2+z
1/2+x,1/2-y,1/2+z
loop_
_atom_site_type_symbol
_atom_site_label
_atom_site_fract_x
_atom_site_fract_y
_atom_site_fract_z
Si Si1 0.682025 0.754795 0.916623
Si Si2 0.317006 0.798829 0.708798
Si Si3 0.178107 0.441215 0.583494
Si Si4 0.180635 0.850775 0.834835
O O1 0.500000 0.754367 0.905402
O O2 0.755720 0.706111 0.873803
O O3 0.744824 0.808868 0.887972
O O4 0.729958 0.748482 0.000000
O O5 0.500000 0.799661 0.709663
O O6 0.250000 0.750000 0.750000
O O7 0.251566 0.847706 0.753009
O O8 0.224427 0.431949 0.500000
O O9 0.206857 0.500000 0.605084
O O10 0.285580 0.407010 0.634520
O O11 0.000000 0.426166 0.595518
O O12 0.000000 0.840503 0.830804
#
# Coordination Sequence:
#
# PCOD8287387 Si02
#       4
#    16  16  16  16
#     4  10  19  30  44  62  86 114 143 175 212 254
#     4  10  18  29  44  60  82 110 142 177 211 250
#     4   9  18  32  47  62  83 112 145 180 216 252
#     4  11  20  29  43  62  86 114 145 178 212 252
#
# _framework density 15.383782
#
# number of rings (size 3 to 8) (size 9 to 14) (size 15 to 20)
#    0.000    2.000    0.000    9.750    0.000    6.000 
#    0.000    1.250    0.000    0.000    0.000    0.000 
#    0.000    1.000    0.000   10.500    0.000    4.500 
#
# Total GULP energy -396725.093104 kJ/mol
# GULP energy per Si atom -12397.659160 kJ/mol
# Density = 1.534877 g / cm^3
# Si number density = 15.383782 Si / 1000 Ang^3
#
#
#
# Elastic Constant Matrix: (Units=GPa)
#
#
# Indices 1 2 3 4 5 6 
#
# 1 82.7539 25.4184 49.3789 0.0000 0.0000 0.0000
# 2 25.4184 60.8045 46.0237 0.0001 0.0000 0.0000
# 3 49.3789 46.0237 110.7926 0.0004 0.0000 0.0000
# 4 0.0000 0.0001 0.0004 27.8489 0.0000 0.0000
# 5 0.0000 0.0000 0.0000 0.0000 26.4667 0.0000
# 6 0.0000 0.0000 0.0000 0.0000 0.0000 23.2818
#
#
#
# Elastic Compliance Matrix: (Units=1/GPa)
#
#
# Indices 1 2 3 4 5 6 
#
# 1 0.016620 -0.001956 -0.006595 0.000000 0.000000 0.000000
# 2 -0.001956 0.024219 -0.009189 0.000000 0.000000 0.000000
# 3 -0.006595 -0.009189 0.015782 0.000000 0.000000 0.000000
# 4 0.000000 0.000000 0.000000 0.035908 0.000000 0.000000
# 5 0.000000 0.000000 0.000000 0.000000 0.037783 0.000000
# 6 0.000000 0.000000 0.000000 0.000000 0.000000 0.042952
#
#
# Mechanical properties :
#
#
# Convention : Reuss Voigt Hill
#
# Bulk Modulus (GPa) = 47.29983 55.11035 51.20509
# Shear Modulus (GPa) = 23.17056 24.42148 23.79602
#
# Velocity S-wave (km/s) = 3.88515 3.98864 3.93724
# Velocity P-wave (km/s) = 7.13717 7.55737 7.35027
#
# Compressibility (1/GPa) = 0.02114172
#
# Stress axis : x y z
#
# Youngs Moduli (GPa) = 60.16888 41.28980 63.36263
#
# Poissons Ratio (x) = 0.08077 0.41786
# Poissons Ratio (y) = 0.11769 0.58223
# Poissons Ratio (z) = 0.39680 0.37941
#
# Static dielectric constant tensor:
#      x y z
#    x 3.017670 0.000000 0.000000 
#    y 0.000000 2.828190 0.000000 
#    z 0.000000 0.000000 3.424230 
# 
# 
# High freq. dielectric constant tensor:
#      x y z
#    x 1.607360 0.000000 0.000000 
#    y 0.000000 1.551720 0.000000 
#    z 0.000000 0.000000 1.584110 
# 
# From -- ./inp_files/7805.got.cif
#   From: 2010.06.25/outbox.cif.g09.slc.cpg/sg71_4_cif.got.tgz:7805.got - 2010.06.28 04:59:45.
