data_PCOD8287664
_publ_section_title
;
Structure prediction by ZEFSAII (Michael W. Deem and Ramdas Pophale) SiO2 
 PCOD8287664
Probable space group: I M M M
;
_chemical_formula_sum "Si O2"
_cell_formula_units_Z 112
_cell_length_a 25.627590
_cell_length_b 14.215847
_cell_length_c 17.358448
_cell_angle_alpha 90.000000
_cell_angle_beta 90.000000
_cell_angle_gamma 90.000000
_cell_volume 6323.993295
_symmetry_space_group_name_H-M "I M M M"
_symmetry_group_IT_number 71
_symmetry_cell_setting 'orthorhombic'
loop_
_space_group_symop_operation_xyz
x,y,z
-x,-y,z
x,-y,-z
-x,y,-z
-x,-y,-z
x,y,-z
-x,y,z
x,-y,z
1/2+x,1/2+y,1/2+z
1/2-x,1/2-y,1/2+z
1/2+x,1/2-y,1/2-z
1/2-x,1/2+y,1/2-z
1/2-x,1/2-y,1/2-z
1/2+x,1/2+y,1/2-z
1/2-x,1/2+y,1/2+z
1/2+x,1/2-y,1/2+z
loop_
_atom_site_type_symbol
_atom_site_label
_atom_site_fract_x
_atom_site_fract_y
_atom_site_fract_z
Si Si1 0.403037 0.607318 0.345023
Si Si2 0.443569 0.212318 0.411151
Si Si3 0.208517 0.895429 0.088025
Si Si4 0.341729 0.110160 0.590458
Si Si5 0.442372 0.389392 0.821386
Si Si6 0.656140 0.389543 0.088799
Si Si7 0.252254 0.276759 0.161252
O O1 0.420949 0.500000 0.361204
O O2 0.433395 0.676288 0.402293
O O3 0.341286 0.618242 0.357049
O O4 0.416823 0.641401 0.259186
O O5 0.446816 0.187377 0.500000
O O6 0.500000 0.186593 0.373220
O O7 0.396485 0.150336 0.376171
O O8 0.251861 0.819778 0.112076
O O9 0.232162 0.000000 0.098650
O O10 0.190734 0.879139 0.000000
O O11 0.334335 0.133874 0.500000
O O12 0.296211 0.158067 0.638682
O O13 0.339910 0.000000 0.605796
O O14 0.500000 0.342987 0.832895
O O15 0.449331 0.500000 0.821989
O O16 0.403023 0.359122 0.889627
O O17 0.664833 0.500000 0.105206
O O18 0.695016 0.331902 0.142694
O O19 0.666603 0.365292 0.000000
O O20 0.250000 0.250000 0.250000
#
# Coordination Sequence:
#
# PCOD8287664 Si02
#       7
#    16  16  16  16  16  16  16
#     4  10  18  30  49  75 107 143 179 216 262 317
#     4  10  20  32  49  76 107 141 183 223 258 305
#     4  10  20  34  53  75 104 141 176 213 258 313
#     4  10  21  38  58  77 104 143 181 218 262 314
#     4   9  18  32  50  74 106 141 173 209 260 316
#     4  10  21  36  55  80 108 139 178 221 261 311
#     4  12  23  35  55  79 105 135 174 219 273 318
#
# _framework density 17.710329000000002
#
# number of rings (size 3 to 8) (size 9 to 14) (size 15 to 20)
#    0.000    1.857    1.429    3.429    0.000    5.714 
#    0.000    3.571    0.000    0.000    0.000    0.000 
#    0.000    0.571    0.000    3.000    0.000    0.143 
#
# Total GULP energy -694244.691194 kJ/mol
# GULP energy per Si atom -12397.226628 kJ/mol
# Density = 1.767002 g / cm^3
# Si number density = 17.710329 Si / 1000 Ang^3
#
#
#
# Elastic Constant Matrix: (Units=GPa)
#
#
# Indices 1 2 3 4 5 6 
#
# 1 118.3881 50.1818 49.5107 0.0000 0.0000 0.0000
# 2 50.1818 91.7667 38.4941 0.0000 0.0000 0.0000
# 3 49.5107 38.4941 78.8107 0.0000 0.0000 0.0000
# 4 0.0000 0.0000 0.0000 21.0764 0.0000 0.0000
# 5 0.0000 0.0000 0.0000 0.0000 23.3119 0.0000
# 6 0.0000 0.0000 0.0000 0.0000 0.0000 19.4459
#
#
#
# Elastic Compliance Matrix: (Units=1/GPa)
#
#
# Indices 1 2 3 4 5 6 
#
# 1 0.012817 -0.004567 -0.005821 0.000000 0.000000 0.000000
# 2 -0.004567 0.015333 -0.004620 0.000000 0.000000 0.000000
# 3 -0.005821 -0.004620 0.018602 0.000000 0.000000 0.000000
# 4 0.000000 0.000000 0.000000 0.047446 0.000000 0.000000
# 5 0.000000 0.000000 0.000000 0.000000 0.042897 0.000000
# 6 0.000000 0.000000 0.000000 0.000000 0.000000 0.051425
#
#
# Mechanical properties :
#
#
# Convention : Reuss Voigt Hill
#
# Bulk Modulus (GPa) = 59.75324 62.81541 61.28432
# Shear Modulus (GPa) = 22.31002 22.81878 22.56440
#
# Velocity S-wave (km/s) = 3.55310 3.59339 3.57330
# Velocity P-wave (km/s) = 7.11654 7.26373 7.19051
#
# Compressibility (1/GPa) = 0.01673549
#
# Stress axis : x y z
#
# Youngs Moduli (GPa) = 78.02036 65.22063 53.75697
#
# Poissons Ratio (x) = 0.29787 0.31294
# Poissons Ratio (y) = 0.35632 0.24835
# Poissons Ratio (z) = 0.45418 0.30131
#
# Static dielectric constant tensor:
#      x y z
#    x 3.622280 0.000000 0.000000 
#    y 0.000000 3.306860 0.000000 
#    z 0.000000 0.000000 3.206250 
# 
# 
# High freq. dielectric constant tensor:
#      x y z
#    x 1.686040 0.000000 0.000000 
#    y 0.000000 1.669980 0.000000 
#    z 0.000000 0.000000 1.670120 
# 
# From -- ./inp_files/34922.got.cif
#   From: 2010.06.25/outbox.cif.g09.slc.cpg/sg71_18_cif.got.tgz:34922.got - 2010.06.28 04:59:45.
