data_PCOD8287046
_publ_section_title
;
Structure prediction by ZEFSAII (Michael W. Deem and Ramdas Pophale) SiO2 
 PCOD8287046
Probable space group: I M M M
;
_chemical_formula_sum "Si O2"
_cell_formula_units_Z 120
_cell_length_a 28.367685
_cell_length_b 13.558039
_cell_length_c 20.070326
_cell_angle_alpha 90.000000
_cell_angle_beta 90.000000
_cell_angle_gamma 90.000000
_cell_volume 7719.251687
_symmetry_space_group_name_H-M "I M M M"
_symmetry_group_IT_number 71
_symmetry_cell_setting 'orthorhombic'
loop_
_space_group_symop_operation_xyz
x,y,z
-x,-y,z
x,-y,-z
-x,y,-z
-x,-y,-z
x,y,-z
-x,y,z
x,-y,z
1/2+x,1/2+y,1/2+z
1/2-x,1/2-y,1/2+z
1/2+x,1/2-y,1/2-z
1/2-x,1/2+y,1/2-z
1/2-x,1/2-y,1/2-z
1/2+x,1/2+y,1/2-z
1/2-x,1/2+y,1/2+z
1/2+x,1/2-y,1/2+z
loop_
_atom_site_type_symbol
_atom_site_label
_atom_site_fract_x
_atom_site_fract_y
_atom_site_fract_z
Si Si1 0.947869 0.882792 0.926684
Si Si2 0.187624 0.389823 0.578353
Si Si3 0.871376 0.117256 0.173610
Si Si4 0.773487 0.809561 0.158538
Si Si5 0.905718 0.272382 0.578956
Si Si6 0.369946 0.386875 0.824490
Si Si7 0.500000 0.888328 0.078686
Si Si8 0.262837 0.389185 0.804503
O O1 0.914583 0.840671 0.869180
O O2 0.000000 0.840799 0.913369
O O3 0.948509 0.000000 0.923294
O O4 0.930267 0.849242 0.000000
O O5 0.192899 0.389611 0.500000
O O6 0.184676 0.500000 0.606956
O O7 0.233858 0.337556 0.605938
O O8 0.139350 0.337131 0.599540
O O9 0.825804 0.161846 0.136043
O O10 0.878666 0.153842 0.249488
O O11 0.866577 0.000000 0.172745
O O12 0.772605 0.690786 0.165017
O O13 0.764843 0.869669 0.226083
O O14 0.906559 0.247665 0.500000
O O15 0.901134 0.172260 0.621706
O O16 0.953104 0.329608 0.601340
O O17 0.386338 0.500000 0.830450
O O18 0.314150 0.376774 0.838595
O O19 0.500000 0.000000 0.108733
O O20 0.500000 0.897388 0.000000
O O21 0.243764 0.500000 0.817055
#
# Coordination Sequence:
#
# PCOD8287046 Si02
#       8
#    16  16  16  16  16  16   8  16
#     4   8  14  26  44  65  90 120 150 176 208 262
#     4  10  19  29  43  67  95 117 146 189 230 273
#     4   9  17  28  43  66  96 125 152 182 224 270
#     4  10  17  28  45  65  91 119 150 182 224 274
#     4  10  19  32  48  66  86 116 157 194 231 276
#     4   9  17  31  46  63  90 122 157 192 225 265
#     4   9  18  34  53  67  83 111 145 186 238 290
#     4   9  17  29  46  64  87 122 157 186 218 268
#
# _framework density 15.545548
#
# number of rings (size 3 to 8) (size 9 to 14) (size 15 to 20)
#    0.000    2.733    1.333    2.800    0.000    2.400 
#    1.200    1.667    0.000    1.600    0.000    0.000 
#    0.000    0.000    0.000    1.467    0.000    0.133 
#
# Total GULP energy -743642.379415 kJ/mol
# GULP energy per Si atom -12394.039657 kJ/mol
# Density = 1.551017 g / cm^3
# Si number density = 15.545548 Si / 1000 Ang^3
#
#
#
# Elastic Constant Matrix: (Units=GPa)
#
#
# Indices 1 2 3 4 5 6 
#
# 1 94.5830 38.2680 42.7797 0.0000 0.0000 0.0000
# 2 38.2680 80.8769 28.3511 0.0000 0.0000 0.0000
# 3 42.7797 28.3511 47.2756 0.0000 0.0000 0.0000
# 4 0.0000 0.0000 0.0000 17.5392 0.0000 0.0000
# 5 0.0000 0.0000 0.0000 0.0000 22.5019 0.0000
# 6 0.0000 0.0000 0.0000 0.0000 0.0000 22.1649
#
#
#
# Elastic Compliance Matrix: (Units=1/GPa)
#
#
# Indices 1 2 3 4 5 6 
#
# 1 0.018733 -0.003699 -0.014733 0.000000 0.000000 0.000000
# 2 -0.003699 0.016386 -0.006479 0.000000 0.000000 0.000000
# 3 -0.014733 -0.006479 0.038370 0.000000 0.000000 0.000000
# 4 0.000000 0.000000 0.000000 0.057015 0.000000 0.000000
# 5 0.000000 0.000000 0.000000 0.000000 0.044441 0.000000
# 6 0.000000 0.000000 0.000000 0.000000 0.000000 0.045116
#
#
# Mechanical properties :
#
#
# Convention : Reuss Voigt Hill
#
# Bulk Modulus (GPa) = 42.25459 49.05923 45.65691
# Shear Modulus (GPa) = 18.00022 19.99698 18.99860
#
# Velocity S-wave (km/s) = 3.40649 3.59046 3.49968
# Velocity P-wave (km/s) = 6.53547 6.98680 6.76490
#
# Compressibility (1/GPa) = 0.02366607
#
# Stress axis : x y z
#
# Youngs Moduli (GPa) = 53.38097 61.02734 26.06171
#
# Poissons Ratio (x) = 0.22575 0.38398
# Poissons Ratio (y) = 0.19746 0.16886
# Poissons Ratio (z) = 0.78648 0.39542
#
# Static dielectric constant tensor:
#      x y z
#    x 3.123690 0.000000 0.000000 
#    y 0.000000 2.934350 0.000000 
#    z 0.000000 0.000000 2.881230 
# 
# 
# High freq. dielectric constant tensor:
#      x y z
#    x 1.592180 0.000000 0.000000 
#    y 0.000000 1.578130 0.000000 
#    z 0.000000 0.000000 1.578890 
# 
# From -- ./inp_files/56460.got.cif
#   From: 2010.06.25/outbox.cif.g09.slc.cpg/sg71_29_cif.got.tgz:56460.got - 2010.06.28 04:59:45.
