data_PCOD8287861
_publ_section_title
;
Structure prediction by ZEFSAII (Michael W. Deem and Ramdas Pophale) SiO2 
 PCOD8287861
Probable space group: I M M M
;
_chemical_formula_sum "Si O2"
_cell_formula_units_Z 120
_cell_length_a 17.364409
_cell_length_b 20.191061
_cell_length_c 17.923611
_cell_angle_alpha 90.000000
_cell_angle_beta 90.000000
_cell_angle_gamma 90.000000
_cell_volume 6284.122715
_symmetry_space_group_name_H-M "I M M M"
_symmetry_group_IT_number 71
_symmetry_cell_setting 'orthorhombic'
loop_
_space_group_symop_operation_xyz
x,y,z
-x,-y,z
x,-y,-z
-x,y,-z
-x,-y,-z
x,y,-z
-x,y,z
x,-y,z
1/2+x,1/2+y,1/2+z
1/2-x,1/2-y,1/2+z
1/2+x,1/2-y,1/2-z
1/2-x,1/2+y,1/2-z
1/2-x,1/2-y,1/2-z
1/2+x,1/2+y,1/2-z
1/2-x,1/2+y,1/2+z
1/2+x,1/2-y,1/2+z
loop_
_atom_site_type_symbol
_atom_site_label
_atom_site_fract_x
_atom_site_fract_y
_atom_site_fract_z
Si Si1 0.592278 0.500000 0.916295
Si Si2 0.694722 0.666853 0.698727
Si Si3 0.409713 0.076888 0.412627
Si Si4 0.584469 0.140671 0.087049
Si Si5 0.853223 0.780856 0.414036
Si Si6 0.914940 0.884127 0.684219
Si Si7 0.801301 0.313522 0.834871
Si Si8 0.768884 0.573140 0.412555
O O1 0.500000 0.500000 0.921203
O O2 0.624906 0.437642 0.870434
O O3 0.627219 0.500000 0.000000
O O4 0.628240 0.624970 0.738313
O O5 0.768594 0.667163 0.753646
O O6 0.662685 0.739838 0.676022
O O7 0.714678 0.627351 0.624460
O O8 0.393004 0.089618 0.500000
O O9 0.500000 0.088361 0.395589
O O10 0.361290 0.130561 0.363688
O O11 0.387730 0.000000 0.392679
O O12 0.500000 0.136865 0.127110
O O13 0.635262 0.204748 0.108295
O O14 0.640378 0.080340 0.110063
O O15 0.568103 0.141012 0.000000
O O16 0.870410 0.795244 0.500000
O O17 0.916682 0.817176 0.363883
O O18 0.768194 0.806370 0.393720
O O19 0.000000 0.907358 0.705433
O O20 0.759710 0.585048 0.500000
O O21 0.742623 0.500000 0.388335
#
# Coordination Sequence:
#
# PCOD8287861 Si02
#       8
#     8  16  16  16  16  16  16  16
#     4   9  18  34  54  78 111 147 182 223 279 349
#     4  10  22  37  56  81 112 148 193 245 290 346
#     4   9  19  37  61  90 124 160 199 245 296 350
#     4   9  17  30  51  79 108 140 181 231 285 338
#     4  10  18  31  53  81 112 145 183 227 276 335
#     4  10  21  35  53  79 111 148 185 228 285 345
#     4  10  20  36  56  82 114 154 191 232 289 345
#     4  10  21  37  57  78 105 147 193 243 300 348
#
# _framework density 19.095744
#
# number of rings (size 3 to 8) (size 9 to 14) (size 15 to 20)
#    0.000    2.333    1.333    1.600    0.933    3.200 
#    3.600    2.000    0.000    0.400    0.000    0.933 
#    0.000    0.000    0.000    0.000    0.000    0.000 
#
# Total GULP energy -743437.104448 kJ/mol
# GULP energy per Si atom -12390.618407 kJ/mol
# Density = 1.905228 g / cm^3
# Si number density = 19.095744 Si / 1000 Ang^3
#
#
#
# Elastic Constant Matrix: (Units=GPa)
#
#
# Indices 1 2 3 4 5 6 
#
# 1 74.3537 50.0443 36.6154 0.0000 0.0000 0.0000
# 2 50.0443 120.7848 55.4636 0.0000 0.0000 0.0000
# 3 36.6154 55.4636 68.4291 0.0000 0.0000 0.0000
# 4 0.0000 0.0000 0.0000 33.4818 0.0000 0.0000
# 5 0.0000 0.0000 0.0000 0.0000 21.7294 0.0000
# 6 0.0000 0.0000 0.0000 0.0000 0.0000 40.5705
#
#
#
# Elastic Compliance Matrix: (Units=1/GPa)
#
#
# Indices 1 2 3 4 5 6 
#
# 1 0.020288 -0.005449 -0.006439 0.000000 0.000000 0.000000
# 2 -0.005449 0.014651 -0.008959 0.000000 0.000000 0.000000
# 3 -0.006439 -0.008959 0.025321 0.000000 0.000000 0.000000
# 4 0.000000 0.000000 0.000000 0.029867 0.000000 0.000000
# 5 0.000000 0.000000 0.000000 0.000000 0.046021 0.000000
# 6 0.000000 0.000000 0.000000 0.000000 0.000000 0.024648
#
#
# Mechanical properties :
#
#
# Convention : Reuss Voigt Hill
#
# Bulk Modulus (GPa) = 53.86556 60.86823 57.36689
# Shear Modulus (GPa) = 23.96036 27.25264 25.60650
#
# Velocity S-wave (km/s) = 3.54609 3.78187 3.66588
# Velocity P-wave (km/s) = 6.71086 7.14245 6.93002
#
# Compressibility (1/GPa) = 0.01856474
#
# Stress axis : x y z
#
# Youngs Moduli (GPa) = 49.29125 68.25548 39.49316
#
# Poissons Ratio (x) = 0.37192 0.25430
# Poissons Ratio (y) = 0.26858 0.35383
# Poissons Ratio (z) = 0.31739 0.61152
#
# Static dielectric constant tensor:
#      x y z
#    x 3.257180 0.000000 0.000000 
#    y 0.000000 3.707160 0.000000 
#    z 0.000000 0.000000 3.358330 
# 
# 
# High freq. dielectric constant tensor:
#      x y z
#    x 1.720120 0.000000 0.000000 
#    y 0.000000 1.751850 0.000000 
#    z 0.000000 0.000000 1.729640 
# 
# From -- ./inp_files/46474.got.cif
#   From: 2010.06.25/outbox.cif.g09.slc.cpg/sg71_24_cif.got.tgz:46474.got - 2010.06.28 04:59:45.
