data_PCOD8287629
_publ_section_title
;
Structure prediction by ZEFSAII (Michael W. Deem and Ramdas Pophale) SiO2 
 PCOD8287629
Probable space group: I M M M
;
_chemical_formula_sum "Si O2"
_cell_formula_units_Z 96
_cell_length_a 10.372344
_cell_length_b 19.390032
_cell_length_c 26.551511
_cell_angle_alpha 90.000000
_cell_angle_beta 90.000000
_cell_angle_gamma 90.000000
_cell_volume 5340.042072
_symmetry_space_group_name_H-M "I M M M"
_symmetry_group_IT_number 71
_symmetry_cell_setting 'orthorhombic'
loop_
_space_group_symop_operation_xyz
x,y,z
-x,-y,z
x,-y,-z
-x,y,-z
-x,-y,-z
x,y,-z
-x,y,z
x,-y,z
1/2+x,1/2+y,1/2+z
1/2-x,1/2-y,1/2+z
1/2+x,1/2-y,1/2-z
1/2-x,1/2+y,1/2-z
1/2-x,1/2-y,1/2-z
1/2+x,1/2+y,1/2-z
1/2-x,1/2+y,1/2+z
1/2+x,1/2-y,1/2+z
loop_
_atom_site_type_symbol
_atom_site_label
_atom_site_fract_x
_atom_site_fract_y
_atom_site_fract_z
Si Si1 0.226272 0.077333 0.728226
Si Si2 0.350578 0.074682 0.375584
Si Si3 0.649117 0.211623 0.109610
Si Si4 0.148925 0.700310 0.941762
Si Si5 0.860875 0.779284 0.284939
Si Si6 0.849652 0.575812 0.335643
O O1 0.331025 0.086726 0.683945
O O2 0.123194 0.137783 0.719350
O O3 0.288637 0.092488 0.781970
O O4 0.164788 0.000000 0.726814
O O5 0.500000 0.072430 0.387044
O O6 0.293956 0.135774 0.410027
O O7 0.289211 0.000000 0.390849
O O8 0.500000 0.215805 0.090188
O O9 0.753172 0.236034 0.068191
O O10 0.669576 0.259609 0.157994
O O11 0.688537 0.132926 0.123186
O O12 0.000000 0.719140 0.926755
O O13 0.155562 0.680374 0.000000
O O14 0.750000 0.750000 0.250000
O O15 0.000000 0.747590 0.269176
O O16 0.806493 0.500000 0.355356
O O17 0.000000 0.578544 0.325793
#
# Coordination Sequence:
#
# PCOD8287629 Si02
#       6
#    16  16  16  16  16  16
#     4  10  18  30  48  73 108 147 176 205 245 300
#     4   9  17  29  48  75 105 139 177 214 253 298
#     4  10  20  35  54  77 103 135 174 213 259 308
#     4  10  21  36  55  78 102 131 171 221 273 316
#     4  11  22  34  50  76 107 141 180 216 253 301
#     4   9  17  30  50  77 108 138 170 208 248 299
#
# _framework density 17.977385999999999
#
# number of rings (size 3 to 8) (size 9 to 14) (size 15 to 20)
#    0.000    2.167    3.333    0.500    0.000    4.333 
#    0.000    1.667    0.000    1.500    0.000    4.667 
#    0.000    0.000    0.000    0.000    0.000    0.000 
#
# Total GULP energy -594714.255657 kJ/mol
# GULP energy per Si atom -12389.880326 kJ/mol
# Density = 1.793647 g / cm^3
# Si number density = 17.977386 Si / 1000 Ang^3
#
#
#
# Elastic Constant Matrix: (Units=GPa)
#
#
# Indices 1 2 3 4 5 6 
#
# 1 64.7539 32.0650 29.6417 0.0000 0.0000 0.0000
# 2 32.0650 108.4673 21.8980 0.0000 0.0000 0.0000
# 3 29.6417 21.8980 44.9493 0.0000 0.0000 0.0000
# 4 0.0000 0.0000 0.0000 20.5673 0.0000 0.0000
# 5 0.0000 0.0000 0.0000 0.0000 24.1266 0.0000
# 6 0.0000 0.0000 0.0000 0.0000 0.0000 21.5367
#
#
#
# Elastic Compliance Matrix: (Units=1/GPa)
#
#
# Indices 1 2 3 4 5 6 
#
# 1 0.023792 -0.004288 -0.013601 0.000000 0.000000 0.000000
# 2 -0.004288 0.010998 -0.002530 0.000000 0.000000 0.000000
# 3 -0.013601 -0.002530 0.032449 0.000000 0.000000 0.000000
# 4 0.000000 0.000000 0.000000 0.048621 0.000000 0.000000
# 5 0.000000 0.000000 0.000000 0.000000 0.041448 0.000000
# 6 0.000000 0.000000 0.000000 0.000000 0.000000 0.046432
#
#
# Mechanical properties :
#
#
# Convention : Reuss Voigt Hill
#
# Bulk Modulus (GPa) = 37.87688 42.81997 40.34843
# Shear Modulus (GPa) = 19.73336 22.21719 20.97528
#
# Velocity S-wave (km/s) = 3.31672 3.51927 3.41949
# Velocity P-wave (km/s) = 5.98184 6.35485 6.17116
#
# Compressibility (1/GPa) = 0.02640133
#
# Stress axis : x y z
#
# Youngs Moduli (GPa) = 42.03070 90.92814 30.81755
#
# Poissons Ratio (x) = 0.38986 0.41915
# Poissons Ratio (y) = 0.18021 0.07798
# Poissons Ratio (z) = 0.57165 0.23008
#
# Static dielectric constant tensor:
#      x y z
#    x 3.124500 0.000000 0.000000 
#    y 0.000000 4.108970 0.000000 
#    z 0.000000 0.000000 3.027720 
# 
# 
# High freq. dielectric constant tensor:
#      x y z
#    x 1.673570 0.000000 0.000000 
#    y 0.000000 1.712980 0.000000 
#    z 0.000000 0.000000 1.665460 
# 
# From -- ./inp_files/24222.got.cif
#   From: 2010.06.25/outbox.cif.g09.slc.cpg/sg71_13_cif.got.tgz:24222.got - 2010.06.28 04:59:45.
