data_PCOD8287399
_publ_section_title
;
Structure prediction by ZEFSAII (Michael W. Deem and Ramdas Pophale) SiO2 
 PCOD8287399
Probable space group: I M M M
;
_chemical_formula_sum "Si O2"
_cell_formula_units_Z 104
_cell_length_a 23.886644
_cell_length_b 9.405374
_cell_length_c 32.724481
_cell_angle_alpha 90.000000
_cell_angle_beta 90.000000
_cell_angle_gamma 90.000000
_cell_volume 7351.974198
_symmetry_space_group_name_H-M "I M M M"
_symmetry_group_IT_number 71
_symmetry_cell_setting 'orthorhombic'
loop_
_space_group_symop_operation_xyz
x,y,z
-x,-y,z
x,-y,-z
-x,y,-z
-x,-y,-z
x,y,-z
-x,y,z
x,-y,z
1/2+x,1/2+y,1/2+z
1/2-x,1/2-y,1/2+z
1/2+x,1/2-y,1/2-z
1/2-x,1/2+y,1/2-z
1/2-x,1/2-y,1/2-z
1/2+x,1/2+y,1/2-z
1/2-x,1/2+y,1/2+z
1/2+x,1/2-y,1/2+z
loop_
_atom_site_type_symbol
_atom_site_label
_atom_site_fract_x
_atom_site_fract_y
_atom_site_fract_z
Si Si1 0.937110 0.659786 0.658731
Si Si2 0.157987 0.834675 0.618335
Si Si3 0.437694 0.161247 0.744769
Si Si4 0.500000 0.166642 0.955379
Si Si5 0.237499 0.836774 0.308941
Si Si6 0.377579 0.165739 0.047386
Si Si7 0.832148 0.834110 0.229400
O O1 0.916471 0.500000 0.647247
O O2 0.896927 0.777436 0.640503
O O3 0.937503 0.680005 0.706941
O O4 0.000000 0.681504 0.641217
O O5 0.211959 0.805863 0.646511
O O6 0.166104 0.754764 0.574843
O O7 0.149584 0.000000 0.610010
O O8 0.500000 0.197683 0.728187
O O9 0.393496 0.267207 0.724098
O O10 0.421451 0.000000 0.733060
O O11 0.559760 0.205245 0.934451
O O12 0.500000 0.000000 0.962650
O O13 0.500000 0.240174 0.000000
O O14 0.190691 0.801483 0.274838
O O15 0.290954 0.736097 0.303781
O O16 0.256651 0.000000 0.304409
O O17 0.364578 0.000000 0.052594
O O18 0.372098 0.210143 0.000000
O O19 0.836025 0.000000 0.219999
#
# Coordination Sequence:
#
# PCOD8287399 Si02
#       7
#    16  16  16   8  16  16  16
#     4   9  18  30  42  56  76 105 138 168 202 247
#     4  11  21  31  43  61  83 102 129 170 215 254
#     4   9  17  29  44  61  82 109 138 167 203 248
#     4   7  12  26  45  59  71  93 127 163 199 243
#     4   9  19  32  42  57  81 109 136 166 207 250
#     4   9  18  32  47  60  76 101 133 167 203 250
#     4  10  18  29  45  62  81 106 137 172 206 239
#
# _framework density 14.145859
#
# number of rings (size 3 to 8) (size 9 to 14) (size 15 to 20)
#    0.000    2.692    1.538    2.769    1.077    2.769 
#    0.000    1.538    0.000    1.385    0.000    0.000 
#    0.000    0.000    0.000    0.000    0.000    0.769 
#
# Total GULP energy -644515.707759 kJ/mol
# GULP energy per Si atom -12394.532842 kJ/mol
# Density = 1.411366 g / cm^3
# Si number density = 14.145859 Si / 1000 Ang^3
#
#
#
# Elastic Constant Matrix: (Units=GPa)
#
#
# Indices 1 2 3 4 5 6 
#
# 1 78.1093 54.7366 33.1245 0.0000 0.0000 0.0000
# 2 54.7366 84.8010 41.5100 0.0000 0.0000 0.0000
# 3 33.1245 41.5100 53.8427 0.0000 0.0000 0.0000
# 4 0.0000 0.0000 0.0000 21.0902 0.0000 0.0000
# 5 0.0000 0.0000 0.0000 0.0000 18.5697 0.0000
# 6 0.0000 0.0000 0.0000 0.0000 0.0000 25.0022
#
#
#
# Elastic Compliance Matrix: (Units=1/GPa)
#
#
# Indices 1 2 3 4 5 6 
#
# 1 0.024048 -0.013300 -0.004542 0.000000 0.000000 0.000000
# 2 -0.013300 0.026295 -0.012090 0.000000 0.000000 0.000000
# 3 -0.004542 -0.012090 0.030687 0.000000 0.000000 0.000000
# 4 0.000000 0.000000 0.000000 0.047415 0.000000 0.000000
# 5 0.000000 0.000000 0.000000 0.000000 0.053851 0.000000
# 6 0.000000 0.000000 0.000000 0.000000 0.000000 0.039996
#
#
# Mechanical properties :
#
#
# Convention : Reuss Voigt Hill
#
# Bulk Modulus (GPa) = 47.23994 52.83280 50.03637
# Shear Modulus (GPa) = 17.28837 18.75789 18.02313
#
# Velocity S-wave (km/s) = 3.49972 3.64543 3.57332
# Velocity P-wave (km/s) = 7.05678 7.42620 7.24385
#
# Compressibility (1/GPa) = 0.02116853
#
# Stress axis : x y z
#
# Youngs Moduli (GPa) = 41.58278 38.03030 32.58669
#
# Poissons Ratio (x) = 0.50578 0.14799
# Poissons Ratio (y) = 0.55303 0.39397
# Poissons Ratio (z) = 0.18885 0.45979
#
# Static dielectric constant tensor:
#      x y z
#    x 2.713260 0.000000 0.000000 
#    y 0.000000 2.745640 0.000000 
#    z 0.000000 0.000000 2.627230 
# 
# 
# High freq. dielectric constant tensor:
#      x y z
#    x 1.513990 0.000000 0.000000 
#    y 0.000000 1.540340 0.000000 
#    z 0.000000 0.000000 1.510560 
# 
# From -- ./inp_files/70963.got.cif
#   From: 2010.06.25/outbox.cif.g09.slc.cpg/sg71_36_cif.got.tgz:70963.got - 2010.06.28 04:59:45.
