data_PCOD8287481
_publ_section_title
;
Structure prediction by ZEFSAII (Michael W. Deem and Ramdas Pophale) SiO2 
 PCOD8287481
Probable space group: I M M M
;
_chemical_formula_sum "Si O2"
_cell_formula_units_Z 120
_cell_length_a 17.556740
_cell_length_b 19.356460
_cell_length_c 20.904377
_cell_angle_alpha 90.000000
_cell_angle_beta 90.000000
_cell_angle_gamma 90.000000
_cell_volume 7104.066876
_symmetry_space_group_name_H-M "I M M M"
_symmetry_group_IT_number 71
_symmetry_cell_setting 'orthorhombic'
loop_
_space_group_symop_operation_xyz
x,y,z
-x,-y,z
x,-y,-z
-x,y,-z
-x,-y,-z
x,y,-z
-x,y,z
x,-y,z
1/2+x,1/2+y,1/2+z
1/2-x,1/2-y,1/2+z
1/2+x,1/2-y,1/2-z
1/2-x,1/2+y,1/2-z
1/2-x,1/2-y,1/2-z
1/2+x,1/2+y,1/2-z
1/2-x,1/2+y,1/2+z
1/2+x,1/2-y,1/2+z
loop_
_atom_site_type_symbol
_atom_site_label
_atom_site_fract_x
_atom_site_fract_y
_atom_site_fract_z
Si Si1 0.912103 0.227091 0.787650
Si Si2 0.308288 0.161379 0.347031
Si Si3 0.587694 0.810458 0.163318
Si Si4 0.220197 0.268610 0.424301
Si Si5 0.587137 0.500000 0.575263
Si Si6 0.417743 0.918990 0.429685
Si Si7 0.678993 0.619714 0.360271
Si Si8 0.311634 0.921409 0.224380
O O1 0.875230 0.285369 0.831656
O O2 0.902002 0.247164 0.713183
O O3 0.869135 0.155844 0.803484
O O4 0.000000 0.219965 0.806499
O O5 0.240167 0.198395 0.385625
O O6 0.345672 0.102656 0.389319
O O7 0.277738 0.122864 0.283678
O O8 0.500000 0.818812 0.142334
O O9 0.638021 0.794437 0.100742
O O10 0.614283 0.882132 0.196409
O O11 0.215672 0.254640 0.500000
O O12 0.285048 0.325127 0.409568
O O13 0.500000 0.500000 0.597535
O O14 0.595730 0.500000 0.500000
O O15 0.625133 0.430707 0.600900
O O16 0.410967 0.885240 0.500000
O O17 0.500000 0.897048 0.399505
O O18 0.414386 0.000000 0.435849
O O19 0.746103 0.575590 0.328547
O O20 0.334411 0.000000 0.243206
#
# Coordination Sequence:
#
# PCOD8287481 Si02
#       8
#    16  16  16  16   8  16  16  16
#     4   9  17  30  49  71  96 124 154 197 250 291
#     4  10  18  29  47  72  99 125 165 205 242 293
#     4   9  19  34  51  73  99 126 163 211 257 301
#     4  10  20  33  51  72  96 131 169 207 252 294
#     4  11  22  34  50  72  97 127 160 193 229 277
#     4   9  17  28  41  61  96 138 170 197 236 289
#     4  10  19  34  50  70  97 128 160 199 238 294
#     4  10  19  32  51  74  99 131 160 197 252 301
#
# _framework density 16.891732999999999
#
# number of rings (size 3 to 8) (size 9 to 14) (size 15 to 20)
#    0.000    2.333    0.667    3.200    0.000    4.267 
#    0.000    0.000    0.000    6.400    0.000    1.867 
#    0.000    0.000    0.000    8.133    0.000    0.000 
#
# Total GULP energy -743754.869197 kJ/mol
# GULP energy per Si atom -12395.914487 kJ/mol
# Density = 1.685329 g / cm^3
# Si number density = 16.891733 Si / 1000 Ang^3
#
#
#
# Elastic Constant Matrix: (Units=GPa)
#
#
# Indices 1 2 3 4 5 6 
#
# 1 102.7587 37.3646 44.0463 0.0000 0.0000 0.0000
# 2 37.3646 71.3453 30.2931 0.0000 0.0000 0.0000
# 3 44.0463 30.2931 84.3966 0.0000 0.0000 0.0000
# 4 0.0000 0.0000 0.0000 14.3951 0.0000 0.0000
# 5 0.0000 0.0000 0.0000 0.0000 23.8862 0.0000
# 6 0.0000 0.0000 0.0000 0.0000 0.0000 19.4806
#
#
#
# Elastic Compliance Matrix: (Units=1/GPa)
#
#
# Indices 1 2 3 4 5 6 
#
# 1 0.013872 -0.004945 -0.005465 0.000000 0.000000 0.000000
# 2 -0.004945 0.018299 -0.003988 0.000000 0.000000 0.000000
# 3 -0.005465 -0.003988 0.016132 0.000000 0.000000 0.000000
# 4 0.000000 0.000000 0.000000 0.069468 0.000000 0.000000
# 5 0.000000 0.000000 0.000000 0.000000 0.041865 0.000000
# 6 0.000000 0.000000 0.000000 0.000000 0.000000 0.051333
#
#
# Mechanical properties :
#
#
# Convention : Reuss Voigt Hill
#
# Bulk Modulus (GPa) = 51.25854 53.54542 52.40198
# Shear Modulus (GPa) = 20.30316 21.33881 20.82098
#
# Velocity S-wave (km/s) = 3.47069 3.55811 3.51467
# Velocity P-wave (km/s) = 6.81705 6.97482 6.89639
#
# Compressibility (1/GPa) = 0.01950894
#
# Stress axis : x y z
#
# Youngs Moduli (GPa) = 72.08803 54.64773 61.98756
#
# Poissons Ratio (x) = 0.27021 0.33876
# Poissons Ratio (y) = 0.35644 0.24719
# Poissons Ratio (z) = 0.39396 0.21792
#
# Static dielectric constant tensor:
#      x y z
#    x 3.124270 0.000000 0.000000 
#    y 0.000000 3.091200 0.000000 
#    z 0.000000 0.000000 3.084240 
# 
# 
# High freq. dielectric constant tensor:
#      x y z
#    x 1.646920 0.000000 0.000000 
#    y 0.000000 1.645600 0.000000 
#    z 0.000000 0.000000 1.644330 
# 
# From -- ./inp_files/46460.got.cif
#   From: 2010.06.25/outbox.cif.g09.slc.cpg/sg71_24_cif.got.tgz:46460.got - 2010.06.28 04:59:45.
