data_PCOD8287518
_publ_section_title
;
Structure prediction by ZEFSAII (Michael W. Deem and Ramdas Pophale) SiO2 
 PCOD8287518
Probable space group: I M M M
;
_chemical_formula_sum "Si O2"
_cell_formula_units_Z 80
_cell_length_a 14.892125
_cell_length_b 9.405820
_cell_length_c 32.638247
_cell_angle_alpha 90.000000
_cell_angle_beta 90.000000
_cell_angle_gamma 90.000000
_cell_volume 4571.725656
_symmetry_space_group_name_H-M "I M M M"
_symmetry_group_IT_number 71
_symmetry_cell_setting 'orthorhombic'
loop_
_space_group_symop_operation_xyz
x,y,z
-x,-y,z
x,-y,-z
-x,y,-z
-x,-y,-z
x,y,-z
-x,y,z
x,-y,z
1/2+x,1/2+y,1/2+z
1/2-x,1/2-y,1/2+z
1/2+x,1/2-y,1/2-z
1/2-x,1/2+y,1/2-z
1/2-x,1/2-y,1/2-z
1/2+x,1/2+y,1/2-z
1/2-x,1/2+y,1/2+z
1/2+x,1/2-y,1/2+z
loop_
_atom_site_type_symbol
_atom_site_label
_atom_site_fract_x
_atom_site_fract_y
_atom_site_fract_z
Si Si1 0.102595 0.832670 0.646928
Si Si2 0.404962 0.663585 0.321321
Si Si3 0.166225 0.161788 0.264381
Si Si4 0.236025 0.169192 0.115291
Si Si5 0.600159 0.668604 0.454234
O O1 0.121871 0.782946 0.693641
O O2 0.167751 0.747485 0.615960
O O3 0.000000 0.793067 0.636097
O O4 0.118990 0.000000 0.641660
O O5 0.500000 0.732398 0.335972
O O6 0.405515 0.500000 0.334893
O O7 0.404481 0.678451 0.272342
O O8 0.318590 0.727455 0.344661
O O9 0.250000 0.250000 0.250000
O O10 0.197731 0.000000 0.269766
O O11 0.177927 0.222318 0.076351
O O12 0.252762 0.000000 0.115146
O O13 0.622960 0.723894 0.500000
O O14 0.500000 0.722688 0.441279
O O15 0.599218 0.500000 0.453575
#
# Coordination Sequence:
#
# PCOD8287518 Si02
#       5
#    16  16  16  16  16
#     4  10  21  35  49  65  91 130 168 199 237 283
#     4   9  16  26  43  67  92 118 150 187 227 275
#     4  10  18  30  47  65  89 122 159 197 237 278
#     4  10  18  29  49  75  97 120 155 198 237 275
#     4   8  14  26  47  77 108 130 149 181 231 290
#
# _framework density 17.498863
#
# number of rings (size 3 to 8) (size 9 to 14) (size 15 to 20)
#    0.000    2.600    2.000    1.800    0.000    5.200 
#    0.000    0.000    0.000    6.600    0.000    5.600 
#    0.000    0.000    0.000    0.000    0.000    0.000 
#
# Total GULP energy -495593.107391 kJ/mol
# GULP energy per Si atom -12389.827685 kJ/mol
# Density = 1.745904 g / cm^3
# Si number density = 17.498863 Si / 1000 Ang^3
#
#
#
# Elastic Constant Matrix: (Units=GPa)
#
#
# Indices 1 2 3 4 5 6 
#
# 1 157.4471 42.3815 59.1281 0.0000 0.0000 0.0000
# 2 42.3815 28.2878 22.6469 0.0000 0.0000 0.0000
# 3 59.1281 22.6469 96.2694 0.0000 0.0000 0.0000
# 4 0.0000 0.0000 0.0000 14.5811 0.0000 0.0000
# 5 0.0000 0.0000 0.0000 0.0000 25.1393 0.0000
# 6 0.0000 0.0000 0.0000 0.0000 0.0000 22.9097
#
#
#
# Elastic Compliance Matrix: (Units=1/GPa)
#
#
# Indices 1 2 3 4 5 6 
#
# 1 0.011652 -0.014449 -0.003757 0.000000 0.000000 0.000000
# 2 -0.014449 0.061471 -0.005586 0.000000 0.000000 0.000000
# 3 -0.003757 -0.005586 0.014009 0.000000 0.000000 0.000000
# 4 0.000000 0.000000 0.000000 0.068582 0.000000 0.000000
# 5 0.000000 0.000000 0.000000 0.000000 0.039778 0.000000
# 6 0.000000 0.000000 0.000000 0.000000 0.000000 0.043650
#
#
# Mechanical properties :
#
#
# Convention : Reuss Voigt Hill
#
# Bulk Modulus (GPa) = 25.28639 58.92413 42.10526
# Shear Modulus (GPa) = 16.67171 23.04922 19.86046
#
# Velocity S-wave (km/s) = 3.08998 3.63324 3.37257
# Velocity P-wave (km/s) = 5.21654 7.16567 6.26734
#
# Compressibility (1/GPa) = 0.03954696
#
# Stress axis : x y z
#
# Youngs Moduli (GPa) = 85.82426 16.26786 71.38031
#
# Poissons Ratio (x) = 0.23505 0.26821
# Poissons Ratio (y) = 1.24006 0.39876
# Poissons Ratio (z) = 0.32248 0.09088
#
# Static dielectric constant tensor:
#      x y z
#    x 3.166800 0.000000 0.000000 
#    y 0.000000 2.814420 0.000000 
#    z 0.000000 0.000000 3.602530 
# 
# 
# High freq. dielectric constant tensor:
#      x y z
#    x 1.682320 0.000000 0.000000 
#    y 0.000000 1.623540 0.000000 
#    z 0.000000 0.000000 1.664750 
# 
# From -- ./inp_files/69003.got.cif
#   From: 2010.06.25/outbox.cif.g09.slc.cpg/sg71_35_cif.got.tgz:69003.got - 2010.06.28 04:59:45.
