data_PCOD8287535
_publ_section_title
;
Structure prediction by ZEFSAII (Michael W. Deem and Ramdas Pophale) SiO2 
 PCOD8287535
Probable space group: I M M M
;
_chemical_formula_sum "Si O2"
_cell_formula_units_Z 96
_cell_length_a 9.765497
_cell_length_b 24.185873
_cell_length_c 22.479232
_cell_angle_alpha 90.000000
_cell_angle_beta 90.000000
_cell_angle_gamma 90.000000
_cell_volume 5309.303947
_symmetry_space_group_name_H-M "I M M M"
_symmetry_group_IT_number 71
_symmetry_cell_setting 'orthorhombic'
loop_
_space_group_symop_operation_xyz
x,y,z
-x,-y,z
x,-y,-z
-x,y,-z
-x,-y,-z
x,y,-z
-x,y,z
x,-y,z
1/2+x,1/2+y,1/2+z
1/2-x,1/2-y,1/2+z
1/2+x,1/2-y,1/2-z
1/2-x,1/2+y,1/2-z
1/2-x,1/2-y,1/2-z
1/2+x,1/2+y,1/2-z
1/2-x,1/2+y,1/2+z
1/2+x,1/2-y,1/2+z
loop_
_atom_site_type_symbol
_atom_site_label
_atom_site_fract_x
_atom_site_fract_y
_atom_site_fract_z
Si Si1 0.251476 0.367422 0.615816
Si Si2 0.500000 0.564733 0.569929
Si Si3 0.661137 0.696196 0.732430
Si Si4 0.156991 0.840339 0.639930
Si Si5 0.500000 0.066140 0.070773
Si Si6 0.843092 0.260024 0.566451
Si Si7 0.837442 0.060416 0.566764
O O1 0.374407 0.407063 0.601372
O O2 0.266813 0.339374 0.680816
O O3 0.242907 0.316419 0.570034
O O4 0.124765 0.408156 0.607271
O O5 0.500000 0.500000 0.584049
O O6 0.500000 0.575801 0.500000
O O7 0.500000 0.710919 0.718620
O O8 0.750000 0.750000 0.750000
O O9 0.669279 0.656357 0.789510
O O10 0.222790 0.784457 0.612109
O O11 0.227318 0.894777 0.611932
O O12 0.000000 0.838623 0.618316
O O13 0.500000 0.000000 0.076883
O O14 0.500000 0.082236 0.000000
O O15 0.832770 0.235870 0.500000
O O16 0.000000 0.274423 0.583709
O O17 0.795499 0.077247 0.500000
O O18 0.000000 0.057900 0.572848
O O19 0.776796 0.000000 0.582690
#
# Coordination Sequence:
#
# PCOD8287535 Si02
#       7
#    16   8  16  16   8  16  16
#     4  12  22  38  59  87 116 149 198 246 301 366
#     4  11  24  42  61  82 116 156 191 244 316 377
#     4  11  23  39  58  83 116 158 198 240 295 358
#     4   9  17  29  47  72 103 144 183 223 276 334
#     4  11  24  42  65  90 116 154 205 256 308 373
#     4  10  18  29  50  81 110 138 183 240 290 342
#     4   8  13  23  41  67 101 137 171 213 267 324
#
# _framework density 18.081465999999999
#
# number of rings (size 3 to 8) (size 9 to 14) (size 15 to 20)
#    0.000    1.833    3.333    3.000    1.167    3.333 
#    0.000    1.667    0.000    0.000    0.000    0.000 
#    0.000    0.000    0.000    1.833    0.000    1.667 
#
# Total GULP energy -594783.860035 kJ/mol
# GULP energy per Si atom -12391.330417 kJ/mol
# Density = 1.804031 g / cm^3
# Si number density = 18.081466 Si / 1000 Ang^3
#
#
#
# Elastic Constant Matrix: (Units=GPa)
#
#
# Indices 1 2 3 4 5 6 
#
# 1 84.3626 44.2017 38.3958 0.0000 0.0000 0.0000
# 2 44.2017 133.5011 64.8652 0.0000 0.0000 0.0000
# 3 38.3958 64.8652 111.5689 0.0000 0.0000 0.0000
# 4 0.0000 0.0000 0.0000 33.3194 0.0000 0.0000
# 5 0.0000 0.0000 0.0000 0.0000 21.4311 0.0000
# 6 0.0000 0.0000 0.0000 0.0000 0.0000 26.9227
#
#
#
# Elastic Compliance Matrix: (Units=1/GPa)
#
#
# Indices 1 2 3 4 5 6 
#
# 1 0.015117 -0.003453 -0.003195 0.000000 0.000000 0.000000
# 2 -0.003453 0.011228 -0.005340 0.000000 0.000000 0.000000
# 3 -0.003195 -0.005340 0.013167 0.000000 0.000000 0.000000
# 4 0.000000 0.000000 0.000000 0.030013 0.000000 0.000000
# 5 0.000000 0.000000 0.000000 0.000000 0.046661 0.000000
# 6 0.000000 0.000000 0.000000 0.000000 0.000000 0.037143
#
#
# Mechanical properties :
#
#
# Convention : Reuss Voigt Hill
#
# Bulk Modulus (GPa) = 64.36175 69.37311 66.86743
# Shear Modulus (GPa) = 27.39979 28.46596 27.93287
#
# Velocity S-wave (km/s) = 3.89698 3.97207 3.93470
# Velocity P-wave (km/s) = 7.47805 7.71276 7.59631
#
# Compressibility (1/GPa) = 0.01553718
#
# Stress axis : x y z
#
# Youngs Moduli (GPa) = 66.15165 89.06114 75.94699
#
# Poissons Ratio (x) = 0.30751 0.24265
# Poissons Ratio (y) = 0.22841 0.40554
# Poissons Ratio (z) = 0.21135 0.47556
#
# Static dielectric constant tensor:
#      x y z
#    x 3.046830 0.000000 0.000000 
#    y 0.000000 3.715290 0.000000 
#    z 0.000000 0.000000 3.422720 
# 
# 
# High freq. dielectric constant tensor:
#      x y z
#    x 1.658310 0.000000 0.000000 
#    y 0.000000 1.713700 0.000000 
#    z 0.000000 0.000000 1.702390 
# 
# From -- ./inp_files/57773.got.cif
#   From: 2010.06.25/outbox.cif.g09.slc.cpg/sg71_29_cif.got.tgz:57773.got - 2010.06.28 04:59:45.
