data_PCOD8287255
_publ_section_title
;
Structure prediction by ZEFSAII (Michael W. Deem and Ramdas Pophale) SiO2 
 PCOD8287255
Probable space group: I M M M
;
_chemical_formula_sum "Si O2"
_cell_formula_units_Z 104
_cell_length_a 28.483049
_cell_length_b 8.963074
_cell_length_c 32.250221
_cell_angle_alpha 90.000000
_cell_angle_beta 90.000000
_cell_angle_gamma 90.000000
_cell_volume 8233.341969
_symmetry_space_group_name_H-M "I M M M"
_symmetry_group_IT_number 71
_symmetry_cell_setting 'orthorhombic'
loop_
_space_group_symop_operation_xyz
x,y,z
-x,-y,z
x,-y,-z
-x,y,-z
-x,-y,-z
x,y,-z
-x,y,z
x,-y,z
1/2+x,1/2+y,1/2+z
1/2-x,1/2-y,1/2+z
1/2+x,1/2-y,1/2-z
1/2-x,1/2+y,1/2-z
1/2-x,1/2-y,1/2-z
1/2+x,1/2+y,1/2-z
1/2-x,1/2+y,1/2+z
1/2+x,1/2-y,1/2+z
loop_
_atom_site_type_symbol
_atom_site_label
_atom_site_fract_x
_atom_site_fract_y
_atom_site_fract_z
Si Si1 0.102064 0.675850 0.266239
Si Si2 0.090779 0.827430 0.581183
Si Si3 0.054373 0.677357 0.500000
Si Si4 0.316314 0.667555 0.274994
Si Si5 0.235096 0.168240 0.687408
Si Si6 0.651347 0.824116 0.148143
Si Si7 0.000000 0.165997 0.364212
Si Si8 0.500000 0.824908 0.219424
O O1 0.107450 0.500000 0.259615
O O2 0.133031 0.756816 0.231452
O O3 0.118387 0.719248 0.312745
O O4 0.048319 0.733580 0.259709
O O5 0.082898 0.738887 0.538989
O O6 0.133587 0.755998 0.606658
O O7 0.044570 0.807084 0.607785
O O8 0.101853 0.000000 0.571646
O O9 0.056032 0.500000 0.500000
O O10 0.000000 0.733322 0.500000
O O11 0.323723 0.500000 0.291346
O O12 0.286755 0.758885 0.309184
O O13 0.288671 0.667995 0.232116
O O14 0.204039 0.266034 0.656083
O O15 0.239932 0.000000 0.670401
O O16 0.652436 0.000000 0.140984
O O17 0.000000 0.287452 0.328728
O O18 0.000000 0.000000 0.344693
O O19 0.500000 0.000000 0.222412
#
# Coordination Sequence:
#
# PCOD8287255 Si02
#       8
#    16  16   8  16  16  16   8   8
#     4   9  17  26  37  52  71  94 118 145 177 212
#     4  11  21  33  45  58  74  92 115 146 184 224
#     4  11  23  35  47  59  71  91 119 149 183 224
#     4   9  16  25  37  52  70  91 115 141 171 209
#     4   9  16  26  39  54  72  91 112 138 172 212
#     4  10  18  28  42  58  74  91 114 143 177 217
#     4  10  20  29  41  56  71  90 114 146 182 220
#     4  10  18  28  39  53  72  96 123 150 180 215
#
# _framework density 12.631565999999999
#
# number of rings (size 3 to 8) (size 9 to 14) (size 15 to 20)
#    0.000    2.231    2.308    2.077    0.000    5.846 
#    0.000    0.000    0.000    0.000    0.000    0.000 
#    0.000    0.000    0.000    0.000    0.000    0.000 
#
# Total GULP energy -644692.934499 kJ/mol
# GULP energy per Si atom -12397.941048 kJ/mol
# Density = 1.260282 g / cm^3
# Si number density = 12.631566 Si / 1000 Ang^3
#
#
#
# Elastic Constant Matrix: (Units=GPa)
#
#
# Indices 1 2 3 4 5 6 
#
# 1 94.6419 40.1005 38.0974 0.0000 0.0000 0.0000
# 2 40.1005 62.7180 23.8497 0.0000 0.0000 0.0000
# 3 38.0974 23.8497 37.0179 0.0000 0.0000 0.0000
# 4 0.0000 0.0000 0.0000 17.6678 0.0000 0.0000
# 5 0.0000 0.0000 0.0000 0.0000 19.4999 0.0000
# 6 0.0000 0.0000 0.0000 0.0000 0.0000 20.7818
#
#
#
# Elastic Compliance Matrix: (Units=1/GPa)
#
#
# Indices 1 2 3 4 5 6 
#
# 1 0.019871 -0.006528 -0.016245 0.000000 0.000000 0.000000
# 2 -0.006528 0.023263 -0.008269 0.000000 0.000000 0.000000
# 3 -0.016245 -0.008269 0.049061 0.000000 0.000000 0.000000
# 4 0.000000 0.000000 0.000000 0.056600 0.000000 0.000000
# 5 0.000000 0.000000 0.000000 0.000000 0.051282 0.000000
# 6 0.000000 0.000000 0.000000 0.000000 0.000000 0.048119
#
#
# Mechanical properties :
#
#
# Convention : Reuss Voigt Hill
#
# Bulk Modulus (GPa) = 33.21160 44.27479 38.74319
# Shear Modulus (GPa) = 15.60951 17.74526 16.67739
#
# Velocity S-wave (km/s) = 3.51914 3.75218 3.63753
# Velocity P-wave (km/s) = 6.54692 7.34158 6.95561
#
# Compressibility (1/GPa) = 0.03010996
#
# Stress axis : x y z
#
# Youngs Moduli (GPa) = 50.32346 42.98729 20.38296
#
# Poissons Ratio (x) = 0.28061 0.33113
# Poissons Ratio (y) = 0.32850 0.16855
# Poissons Ratio (z) = 0.81752 0.35548
#
# Static dielectric constant tensor:
#      x y z
#    x 2.683280 0.000000 0.000000 
#    y 0.000000 2.709020 0.000000 
#    z 0.000000 0.000000 2.239190 
# 
# 
# High freq. dielectric constant tensor:
#      x y z
#    x 1.470550 0.000000 0.000000 
#    y 0.000000 1.496790 0.000000 
#    z 0.000000 0.000000 1.422220 
# 
# From -- ./inp_files/67114.got.cif
#   From: 2010.06.25/outbox.cif.g09.slc.cpg/sg71_34_cif.got.tgz:67114.got - 2010.06.28 04:59:45.
