data_PCOD8287152
_publ_section_title
;
Structure prediction by ZEFSAII (Michael W. Deem and Ramdas Pophale) SiO2 
 PCOD8287152
Probable space group: I M M M
;
_chemical_formula_sum "Si O2"
_cell_formula_units_Z 96
_cell_length_a 13.854980
_cell_length_b 37.417022
_cell_length_c 13.945172
_cell_angle_alpha 90.000000
_cell_angle_beta 90.000000
_cell_angle_gamma 90.000000
_cell_volume 7229.345782
_symmetry_space_group_name_H-M "I M M M"
_symmetry_group_IT_number 71
_symmetry_cell_setting 'orthorhombic'
loop_
_space_group_symop_operation_xyz
x,y,z
-x,-y,z
x,-y,-z
-x,y,-z
-x,-y,-z
x,y,-z
-x,y,z
x,-y,z
1/2+x,1/2+y,1/2+z
1/2-x,1/2-y,1/2+z
1/2+x,1/2-y,1/2-z
1/2-x,1/2+y,1/2-z
1/2-x,1/2-y,1/2-z
1/2+x,1/2+y,1/2-z
1/2-x,1/2+y,1/2+z
1/2+x,1/2-y,1/2+z
loop_
_atom_site_type_symbol
_atom_site_label
_atom_site_fract_x
_atom_site_fract_y
_atom_site_fract_z
Si Si1 0.779628 0.284277 0.612989
Si Si2 0.389501 0.677466 0.297321
Si Si3 0.292533 0.609864 0.613252
Si Si4 0.108423 0.039151 0.113793
Si Si5 0.890134 0.786226 0.607750
Si Si6 0.605575 0.148179 0.887202
O O1 0.773011 0.288390 0.500000
O O2 0.672801 0.290910 0.654336
O O3 0.819671 0.245617 0.641880
O O4 0.851056 0.314899 0.654549
O O5 0.500000 0.683436 0.328336
O O6 0.356860 0.638354 0.329905
O O7 0.377604 0.680945 0.181611
O O8 0.313226 0.614844 0.500000
O O9 0.320645 0.570368 0.650711
O O10 0.179389 0.615850 0.636822
O O11 0.000000 0.046807 0.151043
O O12 0.143323 0.000000 0.151167
O O13 0.108373 0.038917 0.000000
O O14 0.863757 0.799278 0.500000
O O15 0.000000 0.771621 0.609866
O O16 0.500000 0.140541 0.840971
O O17 0.593744 0.152075 0.000000
#
# Coordination Sequence:
#
# PCOD8287152 Si02
#       6
#    16  16  16  16  16  16
#     4   9  16  25  37  51  67  88 113 143 175 205
#     4  10  18  25  35  52  72  91 112 140 174 210
#     4   9  16  24  35  52  73  92 109 137 174 207
#     4   8  13  21  33  48  67  93 119 136 156 196
#     4   9  17  28  39  49  64  89 120 150 174 196
#     4   8  13  21  33  48  65  87 115 142 166 193
#
# _framework density 13.279210000000001
#
# number of rings (size 3 to 8) (size 9 to 14) (size 15 to 20)
#    0.000    3.167    0.000    3.500    0.000    4.000 
#    0.000    0.000    0.000    0.500    0.000    3.500 
#    0.000    0.667    0.000    6.167    0.000    0.167 
#
# Total GULP energy -594746.157435 kJ/mol
# GULP energy per Si atom -12390.544947 kJ/mol
# Density = 1.324899 g / cm^3
# Si number density = 13.279210 Si / 1000 Ang^3
#
#
#
# Elastic Constant Matrix: (Units=GPa)
#
#
# Indices 1 2 3 4 5 6 
#
# 1 102.2753 48.5035 23.9314 -0.0004 -0.0002 -0.0001
# 2 48.5035 85.7544 32.8564 -0.0005 -0.0001 0.0001
# 3 23.9314 32.8564 26.2789 -0.0022 0.0019 -0.0011
# 4 -0.0004 -0.0005 -0.0022 10.8488 0.0002 0.0000
# 5 -0.0002 -0.0001 0.0019 0.0002 11.4683 -0.0003
# 6 -0.0001 0.0001 -0.0011 0.0000 -0.0003 18.0129
#
#
#
# Elastic Compliance Matrix: (Units=1/GPa)
#
#
# Indices 1 2 3 4 5 6 
#
# 1 0.013745 -0.005717 -0.005369 -0.000001 0.000001 0.000000
# 2 -0.005717 0.024762 -0.025754 -0.000004 0.000004 -0.000002
# 3 -0.005369 -0.025754 0.075143 0.000013 -0.000013 0.000005
# 4 -0.000001 -0.000004 0.000013 0.092176 -0.000001 0.000000
# 5 0.000001 0.000004 -0.000013 -0.000001 0.087197 0.000002
# 6 0.000000 -0.000002 0.000005 0.000000 0.000002 0.055516
#
#
# Mechanical properties :
#
#
# Convention : Reuss Voigt Hill
#
# Bulk Modulus (GPa) = 25.01872 47.21013 36.11442
# Shear Modulus (GPa) = 11.47993 15.33382 13.40688
#
# Velocity S-wave (km/s) = 2.94344 3.40181 3.18089
# Velocity P-wave (km/s) = 5.51663 7.14555 6.38326
#
# Compressibility (1/GPa) = 0.03997007
#
# Stress axis : x y z
#
# Youngs Moduli (GPa) = 72.75245 40.38380 13.30802
#
# Poissons Ratio (x) = 0.23089 0.07145
# Poissons Ratio (y) = 0.41595 0.34273
# Poissons Ratio (z) = 0.39061 1.04004
#
# Static dielectric constant tensor:
#      x y z
#    x 2.866610 0.000000 0.000000 
#    y 0.000000 2.718450 0.000000 
#    z 0.000000 0.000000 2.381650 
# 
# 
# High freq. dielectric constant tensor:
#      x y z
#    x 1.510920 0.000000 0.000000 
#    y 0.000000 1.488300 0.000000 
#    z 0.000000 0.000000 1.460990 
# 
# From -- ./inp_files/35272.got.cif
#   From: 2010.06.25/outbox.cif.g09.slc.cpg/sg71_18_cif.got.tgz:35272.got - 2010.06.28 04:59:45.
