data_PCOD8287203
_publ_section_title
;
Structure prediction by ZEFSAII (Michael W. Deem and Ramdas Pophale) SiO2 
 PCOD8287203
Probable space group: I M M M
;
_chemical_formula_sum "Si O2"
_cell_formula_units_Z 96
_cell_length_a 31.382596
_cell_length_b 9.146204
_cell_length_c 27.323051
_cell_angle_alpha 90.000000
_cell_angle_beta 90.000000
_cell_angle_gamma 90.000000
_cell_volume 7842.579730
_symmetry_space_group_name_H-M "I M M M"
_symmetry_group_IT_number 71
_symmetry_cell_setting 'orthorhombic'
loop_
_space_group_symop_operation_xyz
x,y,z
-x,-y,z
x,-y,-z
-x,y,-z
-x,-y,-z
x,y,-z
-x,y,z
x,-y,z
1/2+x,1/2+y,1/2+z
1/2-x,1/2-y,1/2+z
1/2+x,1/2-y,1/2-z
1/2-x,1/2+y,1/2-z
1/2-x,1/2-y,1/2-z
1/2+x,1/2+y,1/2-z
1/2-x,1/2+y,1/2+z
1/2+x,1/2-y,1/2+z
loop_
_atom_site_type_symbol
_atom_site_label
_atom_site_fract_x
_atom_site_fract_y
_atom_site_fract_z
Si Si1 0.297229 0.171713 0.554709
Si Si2 0.661315 0.333444 0.697627
Si Si3 0.450706 0.667165 0.556315
Si Si4 0.619510 0.172523 0.614076
Si Si5 0.746225 0.662163 0.366311
Si Si6 0.209557 0.672330 0.272888
O O1 0.294407 0.237404 0.500000
O O2 0.342318 0.219245 0.577703
O O3 0.257985 0.230390 0.587524
O O4 0.292740 0.000000 0.553256
O O5 0.647379 0.500000 0.708096
O O6 0.624897 0.252116 0.666337
O O7 0.705022 0.325486 0.667920
O O8 0.667586 0.247967 0.749441
O O9 0.442470 0.709026 0.500000
O O10 0.500000 0.688144 0.569585
O O11 0.436648 0.500000 0.565897
O O12 0.424487 0.776152 0.590419
O O13 0.618593 0.000000 0.622830
O O14 0.750082 0.500000 0.388135
O O15 0.787454 0.697123 0.331970
O O16 0.210323 0.500000 0.260263
O O17 0.250000 0.750000 0.250000
#
# Coordination Sequence:
#
# PCOD8287203 Si02
#       6
#    16  16  16  16  16  16
#     4   9  17  26  34  46  64  84 106 133 164 196
#     4   9  16  25  36  50  66  83 103 126 157 196
#     4   9  18  31  43  53  66  85 108 134 166 204
#     4  10  18  27  39  53  68  84 104 133 168 204
#     4   8  15  24  33  46  62  81 104 128 154 187
#     4   9  15  23  34  48  65  83 104 128 155 189
#
# _framework density 12.240871
#
# number of rings (size 3 to 8) (size 9 to 14) (size 15 to 20)
#    0.000    3.000    0.000    3.500    0.000    7.000 
#    0.000    0.833    0.000    0.000    0.000    0.000 
#    0.000    0.000    0.000    0.000    0.000    0.000 
#
# Total GULP energy -594861.408136 kJ/mol
# GULP energy per Si atom -12392.946003 kJ/mol
# Density = 1.221301 g / cm^3
# Si number density = 12.240871 Si / 1000 Ang^3
#
#
#
# Elastic Constant Matrix: (Units=GPa)
#
#
# Indices 1 2 3 4 5 6 
#
# 1 34.1993 25.9301 33.8540 0.0000 0.0000 0.0000
# 2 25.9301 64.8081 34.8076 0.0000 0.0000 0.0000
# 3 33.8540 34.8076 62.0455 0.0000 0.0000 0.0000
# 4 0.0000 0.0000 0.0000 22.1896 0.0000 0.0000
# 5 0.0000 0.0000 0.0000 0.0000 20.7644 0.0000
# 6 0.0000 0.0000 0.0000 0.0000 0.0000 16.7047
#
#
#
# Elastic Compliance Matrix: (Units=1/GPa)
#
#
# Indices 1 2 3 4 5 6 
#
# 1 0.068192 -0.010448 -0.031346 0.000000 0.000000 0.000000
# 2 -0.010448 0.023685 -0.007586 0.000000 0.000000 0.000000
# 3 -0.031346 -0.007586 0.037477 0.000000 0.000000 0.000000
# 4 0.000000 0.000000 0.000000 0.045066 0.000000 0.000000
# 5 0.000000 0.000000 0.000000 0.000000 0.048159 0.000000
# 6 0.000000 0.000000 0.000000 0.000000 0.000000 0.059863
#
#
# Mechanical properties :
#
#
# Convention : Reuss Voigt Hill
#
# Bulk Modulus (GPa) = 32.68837 38.91513 35.80175
# Shear Modulus (GPa) = 12.77458 16.36249 14.56854
#
# Velocity S-wave (km/s) = 3.23399 3.66007 3.45361
# Velocity P-wave (km/s) = 6.38021 7.05136 6.72417
#
# Compressibility (1/GPa) = 0.03059192
#
# Stress axis : x y z
#
# Youngs Moduli (GPa) = 14.66444 42.22041 26.68330
#
# Poissons Ratio (x) = 0.44114 0.83642
# Poissons Ratio (y) = 0.15322 0.20243
# Poissons Ratio (z) = 0.45967 0.32030
#
# Static dielectric constant tensor:
#      x y z
#    x 2.250780 0.000000 0.000000 
#    y 0.000000 2.602410 0.000000 
#    z 0.000000 0.000000 2.778010 
# 
# 
# High freq. dielectric constant tensor:
#      x y z
#    x 1.408590 0.000000 0.000000 
#    y 0.000000 1.478400 0.000000 
#    z 0.000000 0.000000 1.451570 
# 
# From -- ./inp_files/15429.got.cif
#   From: 2010.06.25/outbox.cif.g09.slc.cpg/sg71_8_cif.got.tgz:15429.got - 2010.06.28 04:59:45.
