data_PCOD8287174
_publ_section_title
;
Structure prediction by ZEFSAII (Michael W. Deem and Ramdas Pophale) SiO2 
 PCOD8287174
Probable space group: I M M M
;
_chemical_formula_sum "Si O2"
_cell_formula_units_Z 64
_cell_length_a 7.515241
_cell_length_b 21.295223
_cell_length_c 31.542279
_cell_angle_alpha 90.000000
_cell_angle_beta 90.000000
_cell_angle_gamma 90.000000
_cell_volume 5047.986367
_symmetry_space_group_name_H-M "I M M M"
_symmetry_group_IT_number 71
_symmetry_cell_setting 'orthorhombic'
loop_
_space_group_symop_operation_xyz
x,y,z
-x,-y,z
x,-y,-z
-x,y,-z
-x,-y,-z
x,y,-z
-x,y,z
x,-y,z
1/2+x,1/2+y,1/2+z
1/2-x,1/2-y,1/2+z
1/2+x,1/2-y,1/2-z
1/2-x,1/2+y,1/2-z
1/2-x,1/2-y,1/2-z
1/2+x,1/2+y,1/2-z
1/2-x,1/2+y,1/2+z
1/2+x,1/2-y,1/2+z
loop_
_atom_site_type_symbol
_atom_site_label
_atom_site_fract_x
_atom_site_fract_y
_atom_site_fract_z
Si Si1 0.000000 0.425588 0.434531
Si Si2 0.000000 0.573802 0.261603
Si Si3 0.000000 0.350558 0.651541
Si Si4 0.296830 0.425770 0.500000
Si Si5 0.802350 0.846402 0.270069
Si Si6 0.302339 0.270823 0.683355
O O1 0.180655 0.404741 0.459093
O O2 0.000000 0.500000 0.428185
O O3 0.000000 0.393188 0.389427
O O4 0.828530 0.594623 0.234390
O O5 0.000000 0.500000 0.267267
O O6 0.000000 0.604264 0.307943
O O7 0.171432 0.305155 0.650692
O O8 0.313430 0.500000 0.500000
O O9 0.500000 0.397204 0.500000
O O10 0.749924 0.802078 0.309734
O O11 0.789214 0.805045 0.228129
O O12 0.000000 0.873187 0.276979
O O13 0.500000 0.274901 0.664179
#
# Coordination Sequence:
#
# PCOD8287174 Si02
#       6
#     8   8   8   8  16  16
#     4   9  17  28  41  58  78  99 123 155 196 236
#     4  10  19  27  36  52  75 101 125 159 205 237
#     4  10  18  26  38  57  79  94 118 163 207 236
#     4   8  15  29  46  57  69  98 133 153 174 224
#     4   9  15  25  39  50  65  91 126 159 185 226
#     4   9  15  24  38  54  67  90 123 154 192 227
#
# _framework density 12.678322
#
# number of rings (size 3 to 8) (size 9 to 14) (size 15 to 20)
#    0.000    2.875    2.500    1.125    0.000    1.500 
#    0.000    0.000    0.000    4.500    0.000    0.000 
#    0.000    0.000    0.000    0.000    0.000    0.000 
#
# Total GULP energy -396554.390328 kJ/mol
# GULP energy per Si atom -12392.324698 kJ/mol
# Density = 1.264947 g / cm^3
# Si number density = 12.678322 Si / 1000 Ang^3
#
#
#
# Elastic Constant Matrix: (Units=GPa)
#
#
# Indices 1 2 3 4 5 6 
#
# 1 134.4087 39.6652 34.3493 0.0000 0.0000 0.0000
# 2 39.6652 54.2787 29.7937 0.0000 0.0000 0.0000
# 3 34.3493 29.7937 44.3659 0.0000 0.0000 0.0000
# 4 0.0000 0.0000 0.0000 16.6539 0.0000 0.0000
# 5 0.0000 0.0000 0.0000 0.0000 9.5561 0.0000
# 6 0.0000 0.0000 0.0000 0.0000 0.0000 16.8361
#
#
#
# Elastic Compliance Matrix: (Units=1/GPa)
#
#
# Indices 1 2 3 4 5 6 
#
# 1 0.010022 -0.004854 -0.004500 0.000000 0.000000 0.000000
# 2 -0.004854 0.031530 -0.017416 0.000000 0.000000 0.000000
# 3 -0.004500 -0.017416 0.037719 0.000000 0.000000 0.000000
# 4 0.000000 0.000000 0.000000 0.060046 0.000000 0.000000
# 5 0.000000 0.000000 0.000000 0.000000 0.104645 0.000000
# 6 0.000000 0.000000 0.000000 0.000000 0.000000 0.059396
#
#
# Mechanical properties :
#
#
# Convention : Reuss Voigt Hill
#
# Bulk Modulus (GPa) = 38.86161 48.96331 43.91246
# Shear Modulus (GPa) = 13.68078 17.22557 15.45318
#
# Velocity S-wave (km/s) = 3.28848 3.69000 3.49501
# Velocity P-wave (km/s) = 6.71844 7.54045 7.14128
#
# Compressibility (1/GPa) = 0.02573234
#
# Stress axis : x y z
#
# Youngs Moduli (GPa) = 99.77570 31.71555 26.51162
#
# Poissons Ratio (x) = 0.15395 0.11930
# Poissons Ratio (y) = 0.48432 0.46172
# Poissons Ratio (z) = 0.44898 0.55235
#
# Static dielectric constant tensor:
#      x y z
#    x 2.994790 0.000000 0.000000 
#    y 0.000000 2.356980 0.000000 
#    z 0.000000 0.000000 2.209840 
# 
# 
# High freq. dielectric constant tensor:
#      x y z
#    x 1.505160 0.000000 0.000000 
#    y 0.000000 1.452740 0.000000 
#    z 0.000000 0.000000 1.429850 
# 
# From -- ./inp_files/57380.got.cif
#   From: 2010.06.25/outbox.cif.g09.slc.cpg/sg71_29_cif.got.tgz:57380.got - 2010.06.28 04:59:45.
