data_PCOD8287196
_publ_section_title
;
Structure prediction by ZEFSAII (Michael W. Deem and Ramdas Pophale) SiO2 
 PCOD8287196
Probable space group: I M M M
;
_chemical_formula_sum "Si O2"
_cell_formula_units_Z 88
_cell_length_a 9.139078
_cell_length_b 18.295431
_cell_length_c 29.888129
_cell_angle_alpha 90.000000
_cell_angle_beta 90.000000
_cell_angle_gamma 90.000000
_cell_volume 4997.395920
_symmetry_space_group_name_H-M "I M M M"
_symmetry_group_IT_number 71
_symmetry_cell_setting 'orthorhombic'
loop_
_space_group_symop_operation_xyz
x,y,z
-x,-y,z
x,-y,-z
-x,y,-z
-x,-y,-z
x,y,-z
-x,y,z
x,-y,z
1/2+x,1/2+y,1/2+z
1/2-x,1/2-y,1/2+z
1/2+x,1/2-y,1/2-z
1/2-x,1/2+y,1/2-z
1/2-x,1/2-y,1/2-z
1/2+x,1/2+y,1/2-z
1/2-x,1/2+y,1/2+z
1/2+x,1/2-y,1/2+z
loop_
_atom_site_type_symbol
_atom_site_label
_atom_site_fract_x
_atom_site_fract_y
_atom_site_fract_z
Si Si1 0.829110 0.000000 0.757033
Si Si2 0.164624 0.413698 0.500000
Si Si3 0.667521 0.159372 0.340168
Si Si4 0.167934 0.500000 0.834450
Si Si5 0.835513 0.637137 0.261796
Si Si6 0.833095 0.703083 0.647109
Si Si7 0.672868 0.585292 0.589509
O O1 0.766826 0.072304 0.780352
O O2 0.781420 0.000000 0.705659
O O3 0.000000 0.000000 0.762706
O O4 0.154112 0.500000 0.500000
O O5 0.253805 0.387821 0.543386
O O6 0.000000 0.380144 0.500000
O O7 0.500000 0.183095 0.346616
O O8 0.694055 0.076973 0.360643
O O9 0.712029 0.162498 0.287677
O O10 0.765907 0.218164 0.366830
O O11 0.000000 0.500000 0.816579
O O12 0.823811 0.700797 0.298662
O O13 0.000000 0.606551 0.258843
O O14 0.741668 0.635491 0.627864
O O15 0.000000 0.698297 0.630067
O O16 0.500000 0.598277 0.586412
O O17 0.707604 0.500000 0.599647
#
# Coordination Sequence:
#
# PCOD8287196 Si02
#       7
#     8   8  16   8  16  16  16
#     4  10  18  26  42  64  82 107 154 205 240 280
#     4   9  17  33  57  79  99 126 161 196 239 293
#     4   9  17  32  50  66  89 123 163 204 248 296
#     4   8  16  32  50  64  84 117 154 193 242 294
#     4   9  19  33  45  59  87 128 163 199 248 298
#     4  11  22  32  46  69  97 126 160 203 248 291
#     4  10  21  36  53  74 101 132 166 202 242 288
#
# _framework density 17.609171
#
# number of rings (size 3 to 8) (size 9 to 14) (size 15 to 20)
#    0.000    2.455    0.000    3.818    1.273    6.545 
#    0.000    0.000    0.000    0.000    0.000    0.000 
#    0.000    0.727    0.000    7.818    0.000    3.455 
#
# Total GULP energy -545202.346237 kJ/mol
# GULP energy per Si atom -12390.962414 kJ/mol
# Density = 1.756909 g / cm^3
# Si number density = 17.609171 Si / 1000 Ang^3
#
#
#
# Elastic Constant Matrix: (Units=GPa)
#
#
# Indices 1 2 3 4 5 6 
#
# 1 109.6779 60.8350 23.6556 0.0000 0.0000 0.0000
# 2 60.8350 115.0815 20.8894 0.0000 0.0000 0.0000
# 3 23.6556 20.8894 36.0874 0.0000 0.0000 0.0000
# 4 0.0000 0.0000 0.0000 11.8065 0.0000 0.0000
# 5 0.0000 0.0000 0.0000 0.0000 22.2974 0.0000
# 6 0.0000 0.0000 0.0000 0.0000 0.0000 29.2183
#
#
#
# Elastic Compliance Matrix: (Units=1/GPa)
#
#
# Indices 1 2 3 4 5 6 
#
# 1 0.013775 -0.006305 -0.005380 0.000000 0.000000 0.000000
# 2 -0.006305 0.012596 -0.003158 0.000000 0.000000 0.000000
# 3 -0.005380 -0.003158 0.033065 0.000000 0.000000 0.000000
# 4 0.000000 0.000000 0.000000 0.084699 0.000000 0.000000
# 5 0.000000 0.000000 0.000000 0.000000 0.044848 0.000000
# 6 0.000000 0.000000 0.000000 0.000000 0.000000 0.034225
#
#
# Mechanical properties :
#
#
# Convention : Reuss Voigt Hill
#
# Bulk Modulus (GPa) = 33.61376 52.40075 43.00726
# Shear Modulus (GPa) = 19.02502 23.02891 21.02696
#
# Velocity S-wave (km/s) = 3.29052 3.62025 3.45931
# Velocity P-wave (km/s) = 5.79369 6.87729 6.35862
#
# Compressibility (1/GPa) = 0.02974972
#
# Stress axis : x y z
#
# Youngs Moduli (GPa) = 72.59309 79.39063 30.24340
#
# Poissons Ratio (x) = 0.50060 0.16271
# Poissons Ratio (y) = 0.45773 0.09551
# Poissons Ratio (z) = 0.39055 0.25071
#
# Static dielectric constant tensor:
#      x y z
#    x 3.315650 0.000000 0.000000 
#    y 0.000000 3.363630 0.000000 
#    z 0.000000 0.000000 2.838000 
# 
# 
# High freq. dielectric constant tensor:
#      x y z
#    x 1.690410 0.000000 0.000000 
#    y 0.000000 1.678980 0.000000 
#    z 0.000000 0.000000 1.618720 
# 
# From -- ./inp_files/42535.got.cif
#   From: 2010.06.25/outbox.cif.g09.slc.cpg/sg71_22_cif.got.tgz:42535.got - 2010.06.28 04:59:45.
