data_PCOD8287379
_publ_section_title
;
Structure prediction by ZEFSAII (Michael W. Deem and Ramdas Pophale) SiO2 
 PCOD8287379
Probable space group: I M M M
;
_chemical_formula_sum "Si O2"
_cell_formula_units_Z 88
_cell_length_a 27.768400
_cell_length_b 24.258889
_cell_length_c 9.177623
_cell_angle_alpha 90.000000
_cell_angle_beta 90.000000
_cell_angle_gamma 90.000000
_cell_volume 6182.327076
_symmetry_space_group_name_H-M "I M M M"
_symmetry_group_IT_number 71
_symmetry_cell_setting 'orthorhombic'
loop_
_space_group_symop_operation_xyz
x,y,z
-x,-y,z
x,-y,-z
-x,y,-z
-x,-y,-z
x,y,-z
-x,y,z
x,-y,z
1/2+x,1/2+y,1/2+z
1/2-x,1/2-y,1/2+z
1/2+x,1/2-y,1/2-z
1/2-x,1/2+y,1/2-z
1/2-x,1/2-y,1/2-z
1/2+x,1/2+y,1/2-z
1/2-x,1/2+y,1/2+z
1/2+x,1/2-y,1/2+z
loop_
_atom_site_type_symbol
_atom_site_label
_atom_site_fract_x
_atom_site_fract_y
_atom_site_fract_z
Si Si1 0.667866 0.341428 0.161795
Si Si2 0.500000 0.565141 0.166767
Si Si3 0.079463 0.130676 0.830296
Si Si4 0.357237 0.786849 0.835386
Si Si5 0.554346 0.244484 0.332221
Si Si6 0.732468 0.195635 0.670692
O O1 0.634992 0.374077 0.277124
O O2 0.657735 0.276586 0.171797
O O3 0.725162 0.350189 0.192671
O O4 0.654926 0.362854 0.000000
O O5 0.500000 0.500000 0.177787
O O6 0.547828 0.586629 0.245124
O O7 0.500000 0.585456 0.000000
O O8 0.058922 0.191004 0.794207
O O9 0.077116 0.116784 0.000000
O O10 0.410032 0.792993 0.763948
O O11 0.317969 0.822937 0.744741
O O12 0.359098 0.809188 0.000000
O O13 0.567961 0.235110 0.500000
O O14 0.500000 0.225508 0.298142
O O15 0.724236 0.207838 0.500000
O O16 0.750000 0.250000 0.750000
#
# Coordination Sequence:
#
# PCOD8287379 Si02
#       6
#    16   8  16  16  16  16
#     4   8  15  25  36  51  68  86 105 127 160 200
#     4  11  23  35  45  55  69  89 109 135 175 219
#     4  10  18  29  43  57  68  81 105 136 170 207
#     4   9  16  23  32  48  67  88 111 134 163 196
#     4   9  16  26  37  50  67  87 112 141 173 205
#     4   9  15  23  34  48  66  87 108 130 158 193
#
# _framework density 14.234123
#
# number of rings (size 3 to 8) (size 9 to 14) (size 15 to 20)
#    0.000    2.818    0.909    3.000    0.000    6.909 
#    0.000    0.000    0.000    0.000    0.000    0.000 
#    0.000    0.000    0.000    0.000    0.000    0.000 
#
# Total GULP energy -545301.913544 kJ/mol
# GULP energy per Si atom -12393.225308 kJ/mol
# Density = 1.420173 g / cm^3
# Si number density = 14.234123 Si / 1000 Ang^3
#
#
#
# Elastic Constant Matrix: (Units=GPa)
#
#
# Indices 1 2 3 4 5 6 
#
# 1 121.8287 20.4980 66.9202 0.0000 0.0000 0.0000
# 2 20.4980 12.4757 19.5182 0.0000 0.0000 0.0000
# 3 66.9202 19.5182 108.9888 0.0000 0.0000 0.0000
# 4 0.0000 0.0000 0.0000 9.6340 0.0000 0.0000
# 5 0.0000 0.0000 0.0000 0.0000 30.4438 0.0000
# 6 0.0000 0.0000 0.0000 0.0000 0.0000 8.3444
#
#
#
# Elastic Compliance Matrix: (Units=1/GPa)
#
#
# Indices 1 2 3 4 5 6 
#
# 1 0.013761 -0.013046 -0.006113 0.000000 0.000000 0.000000
# 2 -0.013046 0.123723 -0.014146 0.000000 0.000000 0.000000
# 3 -0.006113 -0.014146 0.015462 0.000000 0.000000 0.000000
# 4 0.000000 0.000000 0.000000 0.103799 0.000000 0.000000
# 5 0.000000 0.000000 0.000000 0.000000 0.032847 0.000000
# 6 0.000000 0.000000 0.000000 0.000000 0.000000 0.119842
#
#
# Mechanical properties :
#
#
# Convention : Reuss Voigt Hill
#
# Bulk Modulus (GPa) = 11.58277 50.79622 31.18949
# Shear Modulus (GPa) = 9.90443 18.77488 14.33966
#
# Velocity S-wave (km/s) = 2.64071 3.63575 3.17742
# Velocity P-wave (km/s) = 4.17765 7.30675 5.95153
#
# Compressibility (1/GPa) = 0.08633513
#
# Stress axis : x y z
#
# Youngs Moduli (GPa) = 72.66784 8.08257 64.67374
#
# Poissons Ratio (x) = 0.10545 0.39536
# Poissons Ratio (y) = 0.94803 0.91490
# Poissons Ratio (z) = 0.44423 0.11434
#
# Static dielectric constant tensor:
#      x y z
#    x 3.343850 0.000000 0.000000 
#    y 0.000000 2.109990 0.000000 
#    z 0.000000 0.000000 2.975560 
# 
# 
# High freq. dielectric constant tensor:
#      x y z
#    x 1.562140 0.000000 0.000000 
#    y 0.000000 1.441360 0.000000 
#    z 0.000000 0.000000 1.561840 
# 
# From -- ./inp_files/11390.got.cif
#   From: 2010.06.25/outbox.cif.g09.slc.cpg/sg71_6_cif.got.tgz:11390.got - 2010.06.28 04:59:45.
