data_PCOD8287151
_publ_section_title
;
Structure prediction by ZEFSAII (Michael W. Deem and Ramdas Pophale) SiO2 
 PCOD8287151
Probable space group: I M M M
;
_chemical_formula_sum "Si O2"
_cell_formula_units_Z 72
_cell_length_a 22.342472
_cell_length_b 24.805813
_cell_length_c 9.241847
_cell_angle_alpha 90.000000
_cell_angle_beta 90.000000
_cell_angle_gamma 90.000000
_cell_volume 5122.045855
_symmetry_space_group_name_H-M "I M M M"
_symmetry_group_IT_number 71
_symmetry_cell_setting 'orthorhombic'
loop_
_space_group_symop_operation_xyz
x,y,z
-x,-y,z
x,-y,-z
-x,y,-z
-x,-y,-z
x,y,-z
-x,y,z
x,-y,z
1/2+x,1/2+y,1/2+z
1/2-x,1/2-y,1/2+z
1/2+x,1/2-y,1/2-z
1/2-x,1/2+y,1/2-z
1/2-x,1/2-y,1/2-z
1/2+x,1/2+y,1/2-z
1/2-x,1/2+y,1/2+z
1/2+x,1/2-y,1/2+z
loop_
_atom_site_type_symbol
_atom_site_label
_atom_site_fract_x
_atom_site_fract_y
_atom_site_fract_z
Si Si1 0.904245 0.144698 0.329673
Si Si2 0.432533 0.752440 0.333785
Si Si3 0.000000 0.059556 0.670718
Si Si4 0.172113 0.706081 0.662288
Si Si5 0.277303 0.673563 0.160593
O O1 0.913263 0.157534 0.500000
O O2 0.930463 0.194366 0.240820
O O3 0.833549 0.135510 0.295625
O O4 0.940314 0.091548 0.280855
O O5 0.411896 0.746355 0.500000
O O6 0.500000 0.775038 0.323317
O O7 0.388941 0.795196 0.254858
O O8 0.000000 0.053515 0.500000
O O9 0.000000 0.000000 0.742728
O O10 0.158510 0.686349 0.500000
O O11 0.221759 0.665986 0.730790
O O12 0.197740 0.766015 0.664386
O O13 0.254253 0.659397 0.000000
#
# Coordination Sequence:
#
# PCOD8287151 Si02
#       5
#    16  16   8  16  16
#     4   9  16  26  40  53  67  90 119 150 185 221
#     4  10  18  25  35  51  71  94 119 147 179 213
#     4   9  16  26  41  59  75  91 119 159 195 225
#     4   9  16  24  35  50  67  89 114 144 177 209
#     4   8  14  23  34  49  67  87 112 144 179 213
#
# _framework density 14.056882999999999
#
# number of rings (size 3 to 8) (size 9 to 14) (size 15 to 20)
#    0.000    3.000    1.111    2.667    0.000    6.667 
#    0.000    0.000    0.000    1.333    0.000    0.000 
#    0.000    0.000    0.000    0.000    0.000    1.111 
#
# Total GULP energy -446152.729025 kJ/mol
# GULP energy per Si atom -12393.131362 kJ/mol
# Density = 1.402489 g / cm^3
# Si number density = 14.056883 Si / 1000 Ang^3
#
#
#
# Elastic Constant Matrix: (Units=GPa)
#
#
# Indices 1 2 3 4 5 6 
#
# 1 117.2810 40.7393 57.7664 0.0000 0.0000 0.0000
# 2 40.7393 34.8605 17.5374 0.0000 0.0000 0.0000
# 3 57.7664 17.5374 87.6694 0.0000 0.0000 0.0000
# 4 0.0000 0.0000 0.0000 6.4494 0.0000 0.0000
# 5 0.0000 0.0000 0.0000 0.0000 23.9403 0.0000
# 6 0.0000 0.0000 0.0000 0.0000 0.0000 12.5252
#
#
#
# Elastic Compliance Matrix: (Units=1/GPa)
#
#
# Indices 1 2 3 4 5 6 
#
# 1 0.019211 -0.017882 -0.009081 0.000000 0.000000 0.000000
# 2 -0.017882 0.048541 0.002073 0.000000 0.000000 0.000000
# 3 -0.009081 0.002073 0.016976 0.000000 0.000000 0.000000
# 4 0.000000 0.000000 0.000000 0.155054 0.000000 0.000000
# 5 0.000000 0.000000 0.000000 0.000000 0.041771 0.000000
# 6 0.000000 0.000000 0.000000 0.000000 0.000000 0.079839
#
#
# Mechanical properties :
#
#
# Convention : Reuss Voigt Hill
#
# Bulk Modulus (GPa) = 28.61557 52.43299 40.52428
# Shear Modulus (GPa) = 11.82531 16.83416 14.32973
#
# Velocity S-wave (km/s) = 2.90357 3.46435 3.19628
# Velocity P-wave (km/s) = 5.62514 7.30643 6.52020
#
# Compressibility (1/GPa) = 0.03494600
#
# Stress axis : x y z
#
# Youngs Moduli (GPa) = 52.05307 20.60117 58.90800
#
# Poissons Ratio (x) = 0.36840 0.53496
# Poissons Ratio (y) = 0.93083 -0.12210
# Poissons Ratio (z) = 0.47271 -0.04270
#
# Static dielectric constant tensor:
#      x y z
#    x 3.069140 0.000000 0.000000 
#    y 0.000000 2.346890 0.000000 
#    z 0.000000 0.000000 2.861720 
# 
# 
# High freq. dielectric constant tensor:
#      x y z
#    x 1.549000 0.000000 0.000000 
#    y 0.000000 1.451960 0.000000 
#    z 0.000000 0.000000 1.540330 
# 
# From -- ./inp_files/10642.got.cif
#   From: 2010.06.25/outbox.cif.g09.slc.cpg/sg71_6_cif.got.tgz:10642.got - 2010.06.28 04:59:45.
