data_PCOD8287246
_publ_section_title
;
Structure prediction by ZEFSAII (Michael W. Deem and Ramdas Pophale) SiO2 
 PCOD8287246
Probable space group: I M M M
;
_chemical_formula_sum "Si O2"
_cell_formula_units_Z 104
_cell_length_a 8.948340
_cell_length_b 20.068069
_cell_length_c 30.752430
_cell_angle_alpha 90.000000
_cell_angle_beta 90.000000
_cell_angle_gamma 90.000000
_cell_volume 5522.395435
_symmetry_space_group_name_H-M "I M M M"
_symmetry_group_IT_number 71
_symmetry_cell_setting 'orthorhombic'
loop_
_space_group_symop_operation_xyz
x,y,z
-x,-y,z
x,-y,-z
-x,y,-z
-x,-y,-z
x,y,-z
-x,y,z
x,-y,z
1/2+x,1/2+y,1/2+z
1/2-x,1/2-y,1/2+z
1/2+x,1/2-y,1/2-z
1/2-x,1/2+y,1/2-z
1/2-x,1/2-y,1/2-z
1/2+x,1/2+y,1/2-z
1/2-x,1/2+y,1/2+z
1/2+x,1/2-y,1/2+z
loop_
_atom_site_type_symbol
_atom_site_label
_atom_site_fract_x
_atom_site_fract_y
_atom_site_fract_z
Si Si1 0.175497 0.575702 0.180474
Si Si2 0.678156 0.500000 0.451376
Si Si3 0.670932 0.638246 0.583446
Si Si4 0.324137 0.633928 0.000000
Si Si5 0.832649 0.228310 0.000000
Si Si6 0.668521 0.301342 0.218528
Si Si7 0.167638 0.251120 0.377649
Si Si8 0.675996 0.127577 0.587389
O O1 0.216721 0.500000 0.193591
O O2 0.253683 0.626014 0.214480
O O3 0.227948 0.587049 0.130361
O O4 0.000000 0.589223 0.183536
O O5 0.500000 0.500000 0.455362
O O6 0.746309 0.500000 0.500000
O O7 0.733668 0.435665 0.424928
O O8 0.500000 0.635935 0.599267
O O9 0.692206 0.680633 0.540330
O O10 0.772156 0.673176 0.620150
O O11 0.285754 0.712180 0.000000
O O12 0.255844 0.599746 0.043743
O O13 0.500000 0.622457 0.000000
O O14 0.000000 0.259485 0.000000
O O15 0.500000 0.312473 0.235309
O O16 0.750000 0.250000 0.250000
O O17 0.671574 0.267747 0.172078
O O18 0.276796 0.204545 0.406220
O O19 0.000000 0.244989 0.396451
O O20 0.500000 0.122882 0.580347
#
# Coordination Sequence:
#
# PCOD8287246 Si02
#       8
#    16   8  16   8   8  16  16  16
#     4   9  19  37  61  87 114 145 180 220 270 327
#     4   9  16  28  45  67  93 129 177 223 261 303
#     4  10  18  29  48  70  96 131 174 220 265 316
#     4  12  22  30  44  70 105 140 178 228 275 308
#     4  10  18  27  44  69  95 129 174 219 267 316
#     4  10  21  37  60  88 114 141 176 220 269 323
#     4  10  20  33  50  75 105 132 166 214 268 316
#     4  10  19  32  51  75 104 140 181 218 259 314
#
# _framework density 18.832408000000001
#
# number of rings (size 3 to 8) (size 9 to 14) (size 15 to 20)
#    0.000    2.077    2.308    2.077    0.000    2.769 
#    0.000    0.769    1.692    2.769    0.000    0.000 
#    0.000    0.000    0.000    0.000    0.000    0.000 
#
# Total GULP energy -644663.763878 kJ/mol
# GULP energy per Si atom -12397.380075 kJ/mol
# Density = 1.878955 g / cm^3
# Si number density = 18.832408 Si / 1000 Ang^3
#
#
#
# Elastic Constant Matrix: (Units=GPa)
#
#
# Indices 1 2 3 4 5 6 
#
# 1 94.9420 39.7626 35.9759 0.0000 0.0000 0.0000
# 2 39.7626 118.1787 29.5621 0.0000 0.0000 0.0000
# 3 35.9759 29.5621 51.2963 0.0000 0.0000 0.0000
# 4 0.0000 0.0000 0.0000 -12.0937 0.0000 0.0000
# 5 0.0000 0.0000 0.0000 0.0000 28.2340 0.0000
# 6 0.0000 0.0000 0.0000 0.0000 0.0000 19.8761
#
#
#
# Elastic Compliance Matrix: (Units=1/GPa)
#
#
# Indices 1 2 3 4 5 6 
#
# 1 0.015122 -0.002845 -0.008966 0.000000 0.000000 0.000000
# 2 -0.002845 0.010422 -0.004011 0.000000 0.000000 0.000000
# 3 -0.008966 -0.004011 0.028094 0.000000 0.000000 0.000000
# 4 0.000000 0.000000 0.000000 -0.082688 0.000000 0.000000
# 5 0.000000 0.000000 0.000000 0.000000 0.035418 0.000000
# 6 0.000000 0.000000 0.000000 0.000000 0.000000 0.050312
#
#
# Mechanical properties :
#
#
# Convention : Reuss Voigt Hill
#
# Bulk Modulus (GPa) = 45.46609 52.77980 49.12295
# Shear Modulus (GPa) = 52.27103 17.81106 35.04104
#
# Velocity S-wave (km/s) = 5.27410 3.07867 4.31824
# Velocity P-wave (km/s) = 7.82835 6.38157 7.14169
#
# Compressibility (1/GPa) = 0.02199441
#
# Stress axis : x y z
#
# Youngs Moduli (GPa) = 66.13037 95.94739 35.59466
#
# Poissons Ratio (x) = 0.27298 0.31913
# Poissons Ratio (y) = 0.18815 0.14277
# Poissons Ratio (z) = 0.59291 0.38485
#
# Static dielectric constant tensor:
#      x y z
#    x 3.481240 0.000000 0.000000 
#    y 0.000000 3.559200 0.000000 
#    z 0.000000 0.000000 3.499790 
# 
# 
# High freq. dielectric constant tensor:
#      x y z
#    x 1.724020 0.000000 0.000000 
#    y 0.000000 1.722670 0.000000 
#    z 0.000000 0.000000 1.714020 
# 
# From -- ./inp_files/68317.got.cif
#   From: 2010.06.25/outbox.cif.g09.slc.cpg/sg71_35_cif.got.tgz:68317.got - 2010.06.28 04:59:45.
