data_PCOD8287088
_publ_section_title
;
Structure prediction by ZEFSAII (Michael W. Deem and Ramdas Pophale) SiO2 
 PCOD8287088
Probable space group: I M M M
;
_chemical_formula_sum "Si O2"
_cell_formula_units_Z 104
_cell_length_a 25.992338
_cell_length_b 19.120438
_cell_length_c 13.203139
_cell_angle_alpha 90.000000
_cell_angle_beta 90.000000
_cell_angle_gamma 90.000000
_cell_volume 6561.760547
_symmetry_space_group_name_H-M "I M M M"
_symmetry_group_IT_number 71
_symmetry_cell_setting 'orthorhombic'
loop_
_space_group_symop_operation_xyz
x,y,z
-x,-y,z
x,-y,-z
-x,y,-z
-x,-y,-z
x,y,-z
-x,y,z
x,-y,z
1/2+x,1/2+y,1/2+z
1/2-x,1/2-y,1/2+z
1/2+x,1/2-y,1/2-z
1/2-x,1/2+y,1/2-z
1/2-x,1/2-y,1/2-z
1/2+x,1/2+y,1/2-z
1/2-x,1/2+y,1/2+z
1/2+x,1/2-y,1/2+z
loop_
_atom_site_type_symbol
_atom_site_label
_atom_site_fract_x
_atom_site_fract_y
_atom_site_fract_z
Si Si1 0.351683 0.918382 0.306920
Si Si2 0.000000 0.078219 0.879652
Si Si3 0.290242 0.920891 0.887201
Si Si4 0.559030 0.826177 0.619041
Si Si5 0.093873 0.171366 0.880192
Si Si6 0.297312 0.673793 0.694776
Si Si7 0.267178 0.178689 0.384531
O O1 0.336288 0.904158 0.190167
O O2 0.407038 0.883711 0.323643
O O3 0.307603 0.884962 0.378034
O O4 0.355433 0.000000 0.333317
O O5 0.050410 0.118373 0.841390
O O6 0.000000 0.000000 0.834957
O O7 0.000000 0.077705 0.000000
O O8 0.241727 0.871147 0.871777
O O9 0.270572 0.000000 0.871075
O O10 0.312225 0.909278 0.000000
O O11 0.566038 0.837022 0.500000
O O12 0.500000 0.837097 0.651626
O O13 0.577032 0.749110 0.650883
O O14 0.144919 0.147103 0.821006
O O15 0.103314 0.166107 0.000000
O O16 0.296697 0.752989 0.654757
O O17 0.282743 0.667010 0.813578
O O18 0.248328 0.186633 0.500000
#
# Coordination Sequence:
#
# PCOD8287088 Si02
#       7
#    16   8  16  16  16  16  16
#     4  10  20  32  48  70  94 124 159 192 231 279
#     4   9  18  30  46  70  96 124 156 189 230 280
#     4   9  18  32  48  69  98 126 152 187 232 279
#     4  10  19  31  47  66  91 123 155 192 239 282
#     4  10  17  29  47  67  95 125 152 187 233 281
#     4  10  19  29  47  71  93 124 160 190 225 277
#     4  10  19  31  46  68  97 125 155 192 233 274
#
# _framework density 15.849405000000001
#
# number of rings (size 3 to 8) (size 9 to 14) (size 15 to 20)
#    0.000    2.231    2.308    1.846    0.000    2.154 
#    0.000    2.308    0.000    0.462    0.000    2.692 
#    0.000    0.615    0.000    0.000    0.000    0.000 
#
# Total GULP energy -644818.449454 kJ/mol
# GULP energy per Si atom -12400.354797 kJ/mol
# Density = 1.581333 g / cm^3
# Si number density = 15.849405 Si / 1000 Ang^3
#
#
#
# Elastic Constant Matrix: (Units=GPa)
#
#
# Indices 1 2 3 4 5 6 
#
# 1 131.1022 55.7492 42.2109 0.0000 0.0000 0.0000
# 2 55.7492 99.6293 25.8186 0.0000 0.0000 0.0000
# 3 42.2109 25.8186 80.7276 0.0000 0.0000 0.0000
# 4 0.0000 0.0000 0.0000 16.8699 0.0000 0.0000
# 5 0.0000 0.0000 0.0000 0.0000 22.1463 0.0000
# 6 0.0000 0.0000 0.0000 0.0000 0.0000 27.3188
#
#
#
# Elastic Compliance Matrix: (Units=1/GPa)
#
#
# Indices 1 2 3 4 5 6 
#
# 1 0.011174 -0.005167 -0.004190 0.000000 0.000000 0.000000
# 2 -0.005167 0.013333 -0.001563 0.000000 0.000000 0.000000
# 3 -0.004190 -0.001563 0.015078 0.000000 0.000000 0.000000
# 4 0.000000 0.000000 0.000000 0.059277 0.000000 0.000000
# 5 0.000000 0.000000 0.000000 0.000000 0.045154 0.000000
# 6 0.000000 0.000000 0.000000 0.000000 0.000000 0.036605
#
#
# Mechanical properties :
#
#
# Convention : Reuss Voigt Hill
#
# Bulk Modulus (GPa) = 56.35049 62.11294 59.23172
# Shear Modulus (GPa) = 23.99512 25.77903 24.88708
#
# Velocity S-wave (km/s) = 3.89517 4.03736 3.96690
# Velocity P-wave (km/s) = 7.47400 7.81078 7.64424
#
# Compressibility (1/GPa) = 0.01774608
#
# Stress axis : x y z
#
# Youngs Moduli (GPa) = 89.49545 75.00054 66.32133
#
# Poissons Ratio (x) = 0.38750 0.27790
# Poissons Ratio (y) = 0.46239 0.10364
# Poissons Ratio (z) = 0.37500 0.11721
#
# Static dielectric constant tensor:
#      x y z
#    x 2.961810 0.000000 0.000000 
#    y 0.000000 3.149400 0.000000 
#    z 0.000000 0.000000 2.893910 
# 
# 
# High freq. dielectric constant tensor:
#      x y z
#    x 1.600570 0.000000 0.000000 
#    y 0.000000 1.618460 0.000000 
#    z 0.000000 0.000000 1.582520 
# 
# From -- ./inp_files/40484.got.cif
#   From: 2010.06.25/outbox.cif.g09.slc.cpg/sg71_21_cif.got.tgz:40484.got - 2010.06.28 04:59:45.
