data_PCOD8287533
_publ_section_title
;
Structure prediction by ZEFSAII (Michael W. Deem and Ramdas Pophale) SiO2 
 PCOD8287533
Probable space group: I M M M
;
_chemical_formula_sum "Si O2"
_cell_formula_units_Z 104
_cell_length_a 27.187329
_cell_length_b 11.868378
_cell_length_c 18.698220
_cell_angle_alpha 90.000000
_cell_angle_beta 90.000000
_cell_angle_gamma 90.000000
_cell_volume 6033.345249
_symmetry_space_group_name_H-M "I M M M"
_symmetry_group_IT_number 71
_symmetry_cell_setting 'orthorhombic'
loop_
_space_group_symop_operation_xyz
x,y,z
-x,-y,z
x,-y,-z
-x,y,-z
-x,-y,-z
x,y,-z
-x,y,z
x,-y,z
1/2+x,1/2+y,1/2+z
1/2-x,1/2-y,1/2+z
1/2+x,1/2-y,1/2-z
1/2-x,1/2+y,1/2-z
1/2-x,1/2-y,1/2-z
1/2+x,1/2+y,1/2-z
1/2-x,1/2+y,1/2+z
1/2+x,1/2-y,1/2+z
loop_
_atom_site_type_symbol
_atom_site_label
_atom_site_fract_x
_atom_site_fract_y
_atom_site_fract_z
Si Si1 0.708323 0.000000 0.583933
Si Si2 0.943399 0.870317 0.686023
Si Si3 0.684087 0.500000 0.084530
Si Si4 0.000000 0.134055 0.919172
Si Si5 0.717559 0.874285 0.915355
Si Si6 0.095868 0.130192 0.158741
Si Si7 0.129005 0.222730 0.415731
Si Si8 0.184096 0.746296 0.084506
O O1 0.762071 0.000000 0.620443
O O2 0.679941 0.885884 0.605214
O O3 0.717114 0.000000 0.500000
O O4 0.911292 0.853363 0.757106
O O5 0.922695 0.782098 0.626748
O O6 0.000000 0.838890 0.701366
O O7 0.939952 0.000000 0.659340
O O8 0.655770 0.390303 0.110071
O O9 0.688845 0.500000 0.000000
O O10 0.951445 0.182320 0.881303
O O11 0.000000 0.000000 0.912184
O O12 0.000000 0.176721 0.000000
O O13 0.664676 0.824469 0.891007
O O14 0.762636 0.794460 0.891686
O O15 0.723541 0.000000 0.882822
O O16 0.717660 0.879616 0.000000
O O17 0.143930 0.193234 0.132207
O O18 0.102391 0.000000 0.138251
O O19 0.117797 0.227246 0.500000
O O20 0.174836 0.767032 0.000000
#
# Coordination Sequence:
#
# PCOD8287533 Si02
#       8
#     8  16   8   8  16  16  16  16
#     4   9  16  28  48  74 106 136 163 199 246 294
#     4  10  20  34  51  72 101 133 163 206 264 306
#     4   9  14  26  47  74 100 128 163 196 238 292
#     4   9  16  28  48  71  94 124 166 208 243 289
#     4   9  17  29  48  76 107 134 161 201 251 295
#     4  10  19  32  48  71 102 132 164 205 255 302
#     4  10  18  30  52  77 101 130 166 205 243 298
#     4  10  18  29  50  77 104 134 167 204 244 293
#
# _framework density 17.237535000000001
#
# number of rings (size 3 to 8) (size 9 to 14) (size 15 to 20)
#    0.000    2.385    3.077    0.923    0.000    1.846 
#    0.000    1.538    1.692    0.923    0.000    4.308 
#    0.000    0.000    0.000    0.000    0.000    0.000 
#
# Total GULP energy -644537.721345 kJ/mol
# GULP energy per Si atom -12394.956180 kJ/mol
# Density = 1.719830 g / cm^3
# Si number density = 17.237535 Si / 1000 Ang^3
#
#
#
# Elastic Constant Matrix: (Units=GPa)
#
#
# Indices 1 2 3 4 5 6 
#
# 1 101.7052 42.1376 39.0508 0.0000 0.0000 0.0000
# 2 42.1376 96.9230 25.1542 0.0000 0.0000 0.0000
# 3 39.0508 25.1542 52.1536 0.0000 0.0000 0.0000
# 4 0.0000 0.0000 0.0000 15.2355 0.0000 0.0000
# 5 0.0000 0.0000 0.0000 0.0000 18.3542 0.0000
# 6 0.0000 0.0000 0.0000 0.0000 0.0000 30.4700
#
#
#
# Elastic Compliance Matrix: (Units=1/GPa)
#
#
# Indices 1 2 3 4 5 6 
#
# 1 0.015138 -0.004160 -0.009328 0.000000 0.000000 0.000000
# 2 -0.004160 0.012937 -0.003125 0.000000 0.000000 0.000000
# 3 -0.009328 -0.003125 0.027666 0.000000 0.000000 0.000000
# 4 0.000000 0.000000 0.000000 0.065636 0.000000 0.000000
# 5 0.000000 0.000000 0.000000 0.000000 0.054483 0.000000
# 6 0.000000 0.000000 0.000000 0.000000 0.000000 0.032819
#
#
# Mechanical properties :
#
#
# Convention : Reuss Voigt Hill
#
# Bulk Modulus (GPa) = 44.41564 51.49633 47.95598
# Shear Modulus (GPa) = 20.04736 22.44122 21.24429
#
# Velocity S-wave (km/s) = 3.41399 3.61207 3.51443
# Velocity P-wave (km/s) = 6.43142 6.88008 6.65953
#
# Compressibility (1/GPa) = 0.02251459
#
# Stress axis : x y z
#
# Youngs Moduli (GPa) = 66.06100 77.29728 36.14596
#
# Poissons Ratio (x) = 0.32157 0.33717
# Poissons Ratio (y) = 0.27483 0.11294
# Poissons Ratio (z) = 0.61621 0.24153
#
# Static dielectric constant tensor:
#      x y z
#    x 3.274290 0.000000 0.000000 
#    y 0.000000 3.251780 0.000000 
#    z 0.000000 0.000000 2.914080 
# 
# 
# High freq. dielectric constant tensor:
#      x y z
#    x 1.668850 0.000000 0.000000 
#    y 0.000000 1.641580 0.000000 
#    z 0.000000 0.000000 1.635540 
# 
# From -- ./inp_files/48911.got.cif
#   From: 2010.06.25/outbox.cif.g09.slc.cpg/sg71_25_cif.got.tgz:48911.got - 2010.06.28 04:59:45.
