data_PCOD8287699
_publ_section_title
;
Structure prediction by ZEFSAII (Michael W. Deem and Ramdas Pophale) SiO2 
 PCOD8287699
Probable space group: I M M M
;
_chemical_formula_sum "Si O2"
_cell_formula_units_Z 112
_cell_length_a 14.375147
_cell_length_b 25.756143
_cell_length_c 18.034984
_cell_angle_alpha 90.000000
_cell_angle_beta 90.000000
_cell_angle_gamma 90.000000
_cell_volume 6677.422920
_symmetry_space_group_name_H-M "I M M M"
_symmetry_group_IT_number 71
_symmetry_cell_setting 'orthorhombic'
loop_
_space_group_symop_operation_xyz
x,y,z
-x,-y,z
x,-y,-z
-x,y,-z
-x,-y,-z
x,y,-z
-x,y,z
x,-y,z
1/2+x,1/2+y,1/2+z
1/2-x,1/2-y,1/2+z
1/2+x,1/2-y,1/2-z
1/2-x,1/2+y,1/2-z
1/2-x,1/2-y,1/2-z
1/2+x,1/2+y,1/2-z
1/2-x,1/2+y,1/2+z
1/2+x,1/2-y,1/2+z
loop_
_atom_site_type_symbol
_atom_site_label
_atom_site_fract_x
_atom_site_fract_y
_atom_site_fract_z
Si Si1 0.603599 0.649176 0.412609
Si Si2 0.201714 0.255942 0.911621
Si Si3 0.105460 0.379518 0.339161
Si Si4 0.890214 0.348503 0.823459
Si Si5 0.599921 0.225804 0.086257
Si Si6 0.740533 0.440611 0.586709
Si Si7 0.389400 0.943108 0.582756
O O1 0.594268 0.648474 0.500000
O O2 0.500000 0.649241 0.377013
O O3 0.659221 0.700493 0.388155
O O4 0.657838 0.597457 0.386474
O O5 0.152066 0.298629 0.862608
O O6 0.310196 0.257522 0.886085
O O7 0.188920 0.266080 0.000000
O O8 0.138639 0.353098 0.262180
O O9 0.114708 0.335310 0.401057
O O10 0.168390 0.427750 0.364447
O O11 0.000000 0.400466 0.330995
O O12 0.848763 0.399753 0.862840
O O13 0.000000 0.344130 0.833612
O O14 0.500000 0.243466 0.123030
O O15 0.592713 0.234739 0.000000
O O16 0.763412 0.432287 0.500000
O O17 0.710881 0.500000 0.602344
O O18 0.352872 0.931463 0.500000
O O19 0.500000 0.941980 0.583500
O O20 0.354448 0.000000 0.608924
#
# Coordination Sequence:
#
# PCOD8287699 Si02
#       7
#    16  16  16  16  16  16  16
#     4   9  17  30  48  71  97 124 155 195 246 292
#     4  10  18  30  51  74  97 127 161 198 237 282
#     4  10  20  33  47  66  94 126 157 195 244 290
#     4  10  20  30  44  71 102 129 155 189 236 287
#     4   9  17  31  50  67  88 123 163 199 236 280
#     4  10  20  34  51  70  92 122 166 212 246 283
#     4   8  14  26  43  61  86 122 157 186 221 272
#
# _framework density 16.772938
#
# number of rings (size 3 to 8) (size 9 to 14) (size 15 to 20)
#    0.000    2.571    1.429    1.714    0.000    4.000 
#    0.000    3.571    0.000    0.000    0.000    0.000 
#    0.000    0.571    0.000    5.286    0.000    0.143 
#
# Total GULP energy -694006.195115 kJ/mol
# GULP energy per Si atom -12392.967770 kJ/mol
# Density = 1.673476 g / cm^3
# Si number density = 16.772938 Si / 1000 Ang^3
#
#
#
# Elastic Constant Matrix: (Units=GPa)
#
#
# Indices 1 2 3 4 5 6 
#
# 1 95.9577 51.3299 38.3060 0.0000 0.0000 0.0000
# 2 51.3299 111.5302 34.6075 0.0000 0.0000 0.0000
# 3 38.3060 34.6075 33.0636 0.0001 0.0000 0.0000
# 4 0.0000 0.0000 0.0001 11.4168 0.0000 0.0000
# 5 0.0000 0.0000 0.0000 0.0000 16.1706 0.0000
# 6 0.0000 0.0000 0.0000 0.0000 0.0000 25.0974
#
#
#
# Elastic Compliance Matrix: (Units=1/GPa)
#
#
# Indices 1 2 3 4 5 6 
#
# 1 0.020039 -0.002990 -0.020087 0.000000 0.000000 0.000000
# 2 -0.002990 0.013725 -0.010902 0.000000 0.000000 0.000000
# 3 -0.020087 -0.010902 0.064928 0.000000 0.000000 0.000000
# 4 0.000000 0.000000 0.000000 0.087590 0.000000 0.000000
# 5 0.000000 0.000000 0.000000 0.000000 0.061841 0.000000
# 6 0.000000 0.000000 0.000000 0.000000 0.000000 0.039845
#
#
# Mechanical properties :
#
#
# Convention : Reuss Voigt Hill
#
# Bulk Modulus (GPa) = 32.53711 54.33758 43.43735
# Shear Modulus (GPa) = 13.65481 18.29083 15.97282
#
# Velocity S-wave (km/s) = 2.85634 3.30585 3.08928
# Velocity P-wave (km/s) = 5.50626 6.85841 6.21919
#
# Compressibility (1/GPa) = 0.03073414
#
# Stress axis : x y z
#
# Youngs Moduli (GPa) = 49.90199 72.85935 15.40165
#
# Poissons Ratio (x) = 0.21783 0.30938
# Poissons Ratio (y) = 0.14919 0.16791
# Poissons Ratio (z) = 1.00239 0.79433
#
# Static dielectric constant tensor:
#      x y z
#    x 3.412230 0.000000 0.000000 
#    y 0.000000 3.137750 0.000000 
#    z 0.000000 0.000000 3.004720 
# 
# 
# High freq. dielectric constant tensor:
#      x y z
#    x 1.631660 0.000000 0.000000 
#    y 0.000000 1.637770 0.000000 
#    z 0.000000 0.000000 1.625080 
# 
# From -- ./inp_files/35133.got.cif
#   From: 2010.06.25/outbox.cif.g09.slc.cpg/sg71_18_cif.got.tgz:35133.got - 2010.06.28 04:59:45.
