data_PCOD8287523
_publ_section_title
;
Structure prediction by ZEFSAII (Michael W. Deem and Ramdas Pophale) SiO2 
 PCOD8287523
Probable space group: I M M M
;
_chemical_formula_sum "Si O2"
_cell_formula_units_Z 116
_cell_length_a 30.681985
_cell_length_b 22.202932
_cell_length_c 8.998379
_cell_angle_alpha 90.000000
_cell_angle_beta 90.000000
_cell_angle_gamma 90.000000
_cell_volume 6129.965965
_symmetry_space_group_name_H-M "I M M M"
_symmetry_group_IT_number 71
_symmetry_cell_setting 'orthorhombic'
loop_
_space_group_symop_operation_xyz
x,y,z
-x,-y,z
x,-y,-z
-x,y,-z
-x,-y,-z
x,y,-z
-x,y,z
x,-y,z
1/2+x,1/2+y,1/2+z
1/2-x,1/2-y,1/2+z
1/2+x,1/2-y,1/2-z
1/2-x,1/2+y,1/2-z
1/2-x,1/2-y,1/2-z
1/2+x,1/2+y,1/2-z
1/2-x,1/2+y,1/2+z
1/2+x,1/2-y,1/2+z
loop_
_atom_site_type_symbol
_atom_site_label
_atom_site_fract_x
_atom_site_fract_y
_atom_site_fract_z
Si Si1 0.104829 0.831288 0.824935
Si Si2 0.833112 0.569205 0.329079
Si Si3 0.068215 0.594430 0.673879
Si Si4 0.050170 0.930564 0.670306
Si Si5 0.785834 0.327169 0.173047
Si Si6 0.550166 0.230866 0.829962
Si Si7 0.500000 0.000000 0.723649
Si Si8 0.311364 0.290711 0.826474
O O1 0.080182 0.891672 0.777413
O O2 0.078536 0.772447 0.775828
O O3 0.152366 0.831804 0.750829
O O4 0.110338 0.830767 0.000000
O O5 0.827121 0.588652 0.500000
O O6 0.820403 0.500000 0.304985
O O7 0.882572 0.580264 0.278771
O O8 0.800889 0.607533 0.226813
O O9 0.060156 0.582696 0.500000
O O10 0.057150 0.662397 0.719750
O O11 0.036723 0.550714 0.761363
O O12 0.057692 0.910591 0.500000
O O13 0.000000 0.920047 0.714301
O O14 0.063010 0.000000 0.691847
O O15 0.734734 0.321642 0.208189
O O16 0.813004 0.276591 0.260570
O O17 0.795591 0.318809 0.000000
O O18 0.500000 0.249432 0.811815
O O19 0.565530 0.239836 0.000000
O O20 0.321229 0.286201 0.000000
#
# Coordination Sequence:
#
# PCOD8287523 Si02
#       8
#    16  16  16  16  16  16   4  16
#     4  12  24  36  55  85 118 150 184 229 284 335
#     4  10  20  33  52  81 114 150 191 230 273 326
#     4  10  18  29  49  78 111 147 192 243 280 311
#     4   9  19  38  63  87 113 150 193 232 273 333
#     4  10  21  38  61  86 109 138 179 229 288 344
#     4  10  20  33  51  78 112 153 197 238 282 330
#     4  12  17  28  52  80 113 146 195 252 281 306
#     4  10  21  39  62  84 108 141 181 227 280 343
#
# _framework density 18.923432999999999
#
# number of rings (size 3 to 8) (size 9 to 14) (size 15 to 20)
#    0.000    1.793    1.379    4.345    0.000    5.517 
#    0.000    1.379    0.000    0.828    0.000    1.931 
#    0.000    0.000    0.000    0.000    0.000    0.000 
#
# Total GULP energy -718562.522512 kJ/mol
# GULP energy per Si atom -12389.009009 kJ/mol
# Density = 1.888036 g / cm^3
# Si number density = 18.923433 Si / 1000 Ang^3
#
#
#
# Elastic Constant Matrix: (Units=GPa)
#
#
# Indices 1 2 3 4 5 6 
#
# 1 101.5618 57.0601 54.0237 0.0000 0.0000 0.0000
# 2 57.0601 105.6165 46.9731 0.0000 0.0000 0.0000
# 3 54.0237 46.9731 97.5502 0.0000 0.0000 0.0000
# 4 0.0000 0.0000 0.0000 134.0477 0.0000 0.0000
# 5 0.0000 0.0000 0.0000 0.0000 32.6583 0.0000
# 6 0.0000 0.0000 0.0000 0.0000 0.0000 31.4673
#
#
#
# Elastic Compliance Matrix: (Units=1/GPa)
#
#
# Indices 1 2 3 4 5 6 
#
# 1 0.016658 -0.006231 -0.006225 0.000000 0.000000 0.000000
# 2 -0.006231 0.014379 -0.003473 0.000000 0.000000 0.000000
# 3 -0.006225 -0.003473 0.015371 0.000000 0.000000 0.000000
# 4 0.000000 0.000000 0.000000 0.007460 0.000000 0.000000
# 5 0.000000 0.000000 0.000000 0.000000 0.030620 0.000000
# 6 0.000000 0.000000 0.000000 0.000000 0.000000 0.031779
#
#
# Mechanical properties :
#
#
# Convention : Reuss Voigt Hill
#
# Bulk Modulus (GPa) = 68.72872 68.98248 68.85560
# Shear Modulus (GPa) = 32.68475 49.41276 41.04876
#
# Velocity S-wave (km/s) = 4.16048 5.11553 4.66252
# Velocity P-wave (km/s) = 7.71218 8.45128 8.09017
#
# Compressibility (1/GPa) = 0.01454996
#
# Stress axis : x y z
#
# Youngs Moduli (GPa) = 60.03006 69.54395 65.05773
#
# Poissons Ratio (x) = 0.43334 0.40498
# Poissons Ratio (y) = 0.37406 0.22596
# Poissons Ratio (z) = 0.37368 0.24154
#
# Static dielectric constant tensor:
#      x y z
#    x 4.218250 0.000000 0.000000 
#    y 0.000000 4.352590 0.000000 
#    z 0.000000 0.000000 3.253810 
# 
# 
# High freq. dielectric constant tensor:
#      x y z
#    x 1.746650 0.000000 0.000000 
#    y 0.000000 1.746510 0.000000 
#    z 0.000000 0.000000 1.710050 
# 
# From -- ./inp_files/15381.got.cif
#   From: 2010.06.25/outbox.cif.g09.slc.cpg/sg71_8_cif.got.tgz:15381.got - 2010.06.28 04:59:45.
