data_PCOD8287542
_publ_section_title
;
Structure prediction by ZEFSAII (Michael W. Deem and Ramdas Pophale) SiO2 
 PCOD8287542
Probable space group: I M M M
;
_chemical_formula_sum "Si O2"
_cell_formula_units_Z 104
_cell_length_a 21.245766
_cell_length_b 19.258753
_cell_length_c 13.790397
_cell_angle_alpha 90.000000
_cell_angle_beta 90.000000
_cell_angle_gamma 90.000000
_cell_volume 5642.574813
_symmetry_space_group_name_H-M "I M M M"
_symmetry_group_IT_number 71
_symmetry_cell_setting 'orthorhombic'
loop_
_space_group_symop_operation_xyz
x,y,z
-x,-y,z
x,-y,-z
-x,y,-z
-x,-y,-z
x,y,-z
-x,y,z
x,-y,z
1/2+x,1/2+y,1/2+z
1/2-x,1/2-y,1/2+z
1/2+x,1/2-y,1/2-z
1/2-x,1/2+y,1/2-z
1/2-x,1/2-y,1/2-z
1/2+x,1/2+y,1/2-z
1/2-x,1/2+y,1/2+z
1/2+x,1/2-y,1/2+z
loop_
_atom_site_type_symbol
_atom_site_label
_atom_site_fract_x
_atom_site_fract_y
_atom_site_fract_z
Si Si1 0.645680 0.314877 0.613765
Si Si2 0.889816 0.668686 0.210717
Si Si3 0.350206 0.373087 0.110429
Si Si4 0.429042 0.576258 0.721809
Si Si5 0.069342 0.738577 0.605645
Si Si6 0.500000 0.919160 0.385115
Si Si7 0.251559 0.832249 0.745101
O O1 0.656514 0.311321 0.500000
O O2 0.625855 0.238338 0.650292
O O3 0.589478 0.366616 0.642070
O O4 0.708308 0.350191 0.661379
O O5 0.925965 0.681804 0.310892
O O6 0.822158 0.636187 0.243196
O O7 0.935259 0.616982 0.151658
O O8 0.387848 0.424771 0.179786
O O9 0.379983 0.297522 0.123959
O O10 0.278846 0.363682 0.146963
O O11 0.351360 0.400228 0.000000
O O12 0.500000 0.592084 0.753534
O O13 0.422455 0.500000 0.674351
O O14 0.081093 0.703723 0.500000
O O15 0.000000 0.772451 0.608819
O O16 0.500000 0.912247 0.500000
O O17 0.500000 0.000000 0.352748
O O18 0.250000 0.750000 0.750000
#
# Coordination Sequence:
#
# PCOD8287542 Si02
#       7
#    16  16  16  16  16   8  16
#     4  10  21  35  56  85 114 151 196 237 282 342
#     4  11  20  38  61  84 115 149 188 236 294 344
#     4  10  19  32  51  78 114 147 184 233 279 339
#     4  10  21  36  52  75 113 153 189 234 275 323
#     4  10  18  29  52  84 112 144 185 228 280 335
#     4  11  26  44  63  89 118 152 194 243 297 353
#     4   9  18  33  53  84 114 143 180 237 287 340
#
# _framework density 18.431301999999999
#
# number of rings (size 3 to 8) (size 9 to 14) (size 15 to 20)
#    0.000    1.923    5.385    0.923    1.077    5.538 
#    0.000    4.615    0.000    0.923    0.000    0.000 
#    0.000    0.000    0.000    0.000    0.000    0.000 
#
# Total GULP energy -644252.635789 kJ/mol
# GULP energy per Si atom -12389.473765 kJ/mol
# Density = 1.838935 g / cm^3
# Si number density = 18.431302 Si / 1000 Ang^3
#
#
#
# Elastic Constant Matrix: (Units=GPa)
#
#
# Indices 1 2 3 4 5 6 
#
# 1 130.0711 40.7710 35.6906 0.0000 0.0000 0.0000
# 2 40.7710 69.0280 33.7935 0.0000 0.0000 0.0000
# 3 35.6906 33.7935 113.8919 0.0000 0.0000 0.0000
# 4 0.0000 0.0000 0.0000 17.2211 0.0000 0.0000
# 5 0.0000 0.0000 0.0000 0.0000 19.2672 0.0000
# 6 0.0000 0.0000 0.0000 0.0000 0.0000 -11.4662
#
#
#
# Elastic Compliance Matrix: (Units=1/GPa)
#
#
# Indices 1 2 3 4 5 6 
#
# 1 0.009667 -0.004945 -0.001562 0.000000 0.000000 0.000000
# 2 -0.004945 0.019478 -0.004230 0.000000 0.000000 0.000000
# 3 -0.001562 -0.004230 0.010525 0.000000 0.000000 0.000000
# 4 0.000000 0.000000 0.000000 0.058068 0.000000 0.000000
# 5 0.000000 0.000000 0.000000 0.000000 0.051902 0.000000
# 6 0.000000 0.000000 0.000000 0.000000 0.000000 -0.087213
#
#
# Mechanical properties :
#
#
# Convention : Reuss Voigt Hill
#
# Bulk Modulus (GPa) = 54.95663 59.27791 57.11727
# Shear Modulus (GPa) = 55.57669 18.52016 37.04842
#
# Velocity S-wave (km/s) = 5.49717 3.17333 4.48826
# Velocity P-wave (km/s) = 8.37697 6.75707 7.61024
#
# Compressibility (1/GPa) = 0.01819617
#
# Stress axis : x y z
#
# Youngs Moduli (GPa) = 103.44798 51.33906 95.01315
#
# Poissons Ratio (x) = 0.25386 0.14842
# Poissons Ratio (y) = 0.51154 0.40190
# Poissons Ratio (z) = 0.16159 0.21716
#
# Static dielectric constant tensor:
#      x y z
#    x 3.849440 0.000000 0.000000 
#    y 0.000000 3.082890 0.000000 
#    z 0.000000 0.000000 3.481520 
# 
# 
# High freq. dielectric constant tensor:
#      x y z
#    x 1.729500 0.000000 0.000000 
#    y 0.000000 1.671210 0.000000 
#    z 0.000000 0.000000 1.717580 
# 
# From -- ./inp_files/38115.got.cif
#   From: 2010.06.25/outbox.cif.g09.slc.cpg/sg71_20_cif.got.tgz:38115.got - 2010.06.28 04:59:45.
