data_PCOD8287346
_publ_section_title
;
Structure prediction by ZEFSAII (Michael W. Deem and Ramdas Pophale) SiO2 
 PCOD8287346
Probable space group: I M M M
;
_chemical_formula_sum "Si O2"
_cell_formula_units_Z 72
_cell_length_a 25.992191
_cell_length_b 9.922083
_cell_length_c 14.457099
_cell_angle_alpha 90.000000
_cell_angle_beta 90.000000
_cell_angle_gamma 90.000000
_cell_volume 3728.437783
_symmetry_space_group_name_H-M "I M M M"
_symmetry_group_IT_number 71
_symmetry_cell_setting 'orthorhombic'
loop_
_space_group_symop_operation_xyz
x,y,z
-x,-y,z
x,-y,-z
-x,y,-z
-x,-y,-z
x,y,-z
-x,y,z
x,-y,z
1/2+x,1/2+y,1/2+z
1/2-x,1/2-y,1/2+z
1/2+x,1/2-y,1/2-z
1/2-x,1/2+y,1/2-z
1/2-x,1/2-y,1/2-z
1/2+x,1/2+y,1/2-z
1/2-x,1/2+y,1/2+z
1/2+x,1/2-y,1/2+z
loop_
_atom_site_type_symbol
_atom_site_label
_atom_site_fract_x
_atom_site_fract_y
_atom_site_fract_z
Si Si1 0.941297 0.500000 0.273985
Si Si2 0.333513 0.000000 0.710149
Si Si3 0.886656 0.000000 0.103694
Si Si4 0.775394 0.500000 0.607603
Si Si5 0.060095 0.000000 0.287576
Si Si6 0.694448 0.269638 0.605296
Si Si7 0.059777 0.754352 0.601675
O O1 0.896209 0.500000 0.195908
O O2 0.931302 0.622572 0.340705
O O3 0.000000 0.500000 0.231535
O O4 0.322746 0.000000 0.820724
O O5 0.308566 0.134682 0.666766
O O6 0.854798 0.864122 0.120423
O O7 0.931975 0.000000 0.177821
O O8 0.909777 0.000000 0.000000
O O9 0.793611 0.500000 0.500000
O O10 0.743401 0.363416 0.628601
O O11 0.085912 0.872684 0.338517
O O12 0.000000 0.000000 0.303328
O O13 0.697211 0.219778 0.500000
O O14 0.085852 0.744157 0.500000
O O15 0.000000 0.783762 0.587968
#
# Coordination Sequence:
#
# PCOD8287346 Si02
#       7
#     8   8   8   8   8  16  16
#     4  10  21  33  47  73 110 147 180 215 252 302
#     4  12  20  32  58  84 105 138 182 218 260 312
#     4   9  18  34  50  65  95 137 169 203 260 316
#     4   9  20  37  55  81 113 138 165 213 271 324
#     4  10  18  28  46  72  94 119 169 227 264 299
#     4   9  19  36  56  77 103 135 174 216 261 316
#     4   9  17  30  46  64  92 131 170 208 254 305
#
# _framework density 19.311036000000001
#
# number of rings (size 3 to 8) (size 9 to 14) (size 15 to 20)
#    0.000    2.444    0.000    4.333    0.000    3.778 
#    0.000    0.000    0.000    2.667    0.000    9.333 
#    0.000    0.000    0.000    0.000    0.000    0.000 
#
# Total GULP energy -446039.877882 kJ/mol
# GULP energy per Si atom -12389.996608 kJ/mol
# Density = 1.926708 g / cm^3
# Si number density = 19.311036 Si / 1000 Ang^3
#
#
#
# Elastic Constant Matrix: (Units=GPa)
#
#
# Indices 1 2 3 4 5 6 
#
# 1 51.2673 20.9849 20.3600 0.0000 0.0000 0.0000
# 2 20.9849 142.7225 40.9310 0.0000 0.0000 0.0000
# 3 20.3600 40.9310 70.4207 0.0000 0.0000 0.0000
# 4 0.0000 0.0000 0.0000 46.4840 0.0000 0.0000
# 5 0.0000 0.0000 0.0000 0.0000 27.8384 0.0000
# 6 0.0000 0.0000 0.0000 0.0000 0.0000 16.0011
#
#
#
# Elastic Compliance Matrix: (Units=1/GPa)
#
#
# Indices 1 2 3 4 5 6 
#
# 1 0.022383 -0.001722 -0.005470 0.000000 0.000000 0.000000
# 2 -0.001722 0.008541 -0.004466 0.000000 0.000000 0.000000
# 3 -0.005470 -0.004466 0.018378 0.000000 0.000000 0.000000
# 4 0.000000 0.000000 0.000000 0.021513 0.000000 0.000000
# 5 0.000000 0.000000 0.000000 0.000000 0.035922 0.000000
# 6 0.000000 0.000000 0.000000 0.000000 0.000000 0.062496
#
#
# Mechanical properties :
#
#
# Convention : Reuss Voigt Hill
#
# Bulk Modulus (GPa) = 38.48521 47.66249 43.07385
# Shear Modulus (GPa) = 24.84958 30.20700 27.52829
#
# Velocity S-wave (km/s) = 3.59110 3.95933 3.77970
# Velocity P-wave (km/s) = 6.09648 6.75550 6.43443
#
# Compressibility (1/GPa) = 0.02598401
#
# Stress axis : x y z
#
# Youngs Moduli (GPa) = 44.67667 117.08666 54.41320
#
# Poissons Ratio (x) = 0.20165 0.29766
# Poissons Ratio (y) = 0.07694 0.24302
# Poissons Ratio (z) = 0.24440 0.52294
#
# Static dielectric constant tensor:
#      x y z
#    x 3.216150 0.000000 0.000000 
#    y 0.000000 3.748220 0.000000 
#    z 0.000000 0.000000 3.517670 
# 
# 
# High freq. dielectric constant tensor:
#      x y z
#    x 1.713400 0.000000 0.000000 
#    y 0.000000 1.768870 0.000000 
#    z 0.000000 0.000000 1.750290 
# 
# From -- ./inp_files/14415.got.cif
#   From: 2010.06.25/outbox.cif.g09.slc.cpg/sg71_8_cif.got.tgz:14415.got - 2010.06.28 04:59:45.
