data_PCOD8287862
_publ_section_title
;
Structure prediction by ZEFSAII (Michael W. Deem and Ramdas Pophale) SiO2 
 PCOD8287862
Probable space group: I M M M
;
_chemical_formula_sum "Si O2"
_cell_formula_units_Z 76
_cell_length_a 12.211205
_cell_length_b 16.119491
_cell_length_c 21.941865
_cell_angle_alpha 90.000000
_cell_angle_beta 90.000000
_cell_angle_gamma 90.000000
_cell_volume 4319.001799
_symmetry_space_group_name_H-M "I M M M"
_symmetry_group_IT_number 71
_symmetry_cell_setting 'orthorhombic'
loop_
_space_group_symop_operation_xyz
x,y,z
-x,-y,z
x,-y,-z
-x,y,-z
-x,-y,-z
x,y,-z
-x,y,z
x,-y,z
1/2+x,1/2+y,1/2+z
1/2-x,1/2-y,1/2+z
1/2+x,1/2-y,1/2-z
1/2-x,1/2+y,1/2-z
1/2-x,1/2-y,1/2-z
1/2+x,1/2+y,1/2-z
1/2-x,1/2+y,1/2+z
1/2+x,1/2-y,1/2+z
loop_
_atom_site_type_symbol
_atom_site_label
_atom_site_fract_x
_atom_site_fract_y
_atom_site_fract_z
Si Si1 0.622477 0.000000 0.751555
Si Si2 0.119094 0.677655 0.291302
Si Si3 0.877038 0.359366 0.069994
Si Si4 0.500000 0.592433 0.298296
Si Si5 0.160381 0.767418 0.168355
Si Si6 0.000000 0.000000 0.679484
Si Si7 0.759182 0.000000 0.367436
O O1 0.638076 0.079253 0.794628
O O2 0.715797 0.000000 0.701003
O O3 0.500000 0.000000 0.721953
O O4 0.124323 0.703523 0.220517
O O5 0.208565 0.723764 0.331903
O O6 0.000000 0.701576 0.317758
O O7 0.874634 0.270608 0.103908
O O8 0.785226 0.419403 0.097690
O O9 0.000000 0.397266 0.076117
O O10 0.847485 0.343139 0.000000
O O11 0.500000 0.500000 0.328489
O O12 0.606734 0.642799 0.319918
O O13 0.500000 0.581479 0.224176
O O14 0.891946 0.000000 0.636335
#
# Coordination Sequence:
#
# PCOD8287862 Si02
#       7
#     8  16  16   8  16   4   8
#     4  10  18  31  53  85 115 139 177 223 280 332
#     4  10  20  31  51  80 110 141 175 219 282 345
#     4  11  23  39  59  82 108 145 196 245 278 319
#     4  10  22  36  53  84 114 151 179 221 292 350
#     4  11  20  34  54  77 111 143 182 229 277 336
#     4  10  26  36  55  86 125 150 188 214 282 360
#     4  12  21  37  57  83 117 155 181 228 275 348
#
# _framework density 17.596658999999999
#
# number of rings (size 3 to 8) (size 9 to 14) (size 15 to 20)
#    0.316    1.053    4.211    2.526    4.421    0.842 
#    0.000    1.053    0.000    1.263    0.000    0.000 
#    0.000    2.526    0.000    0.000    0.000    0.000 
#
# Total GULP energy -471103.889181 kJ/mol
# GULP energy per Si atom -12397.470768 kJ/mol
# Density = 1.755661 g / cm^3
# Si number density = 17.596659 Si / 1000 Ang^3
#
#
#
# Elastic Constant Matrix: (Units=GPa)
#
#
# Indices 1 2 3 4 5 6 
#
# 1 149.1425 34.9063 40.5496 0.0000 0.0000 0.0000
# 2 34.9063 101.1024 26.6999 0.0000 0.0000 0.0000
# 3 40.5496 26.6999 68.5655 0.0000 0.0000 0.0000
# 4 0.0000 0.0000 0.0000 0.5261 0.0000 0.0000
# 5 0.0000 0.0000 0.0000 0.0000 16.5222 0.0000
# 6 0.0000 0.0000 0.0000 0.0000 0.0000 23.0075
#
#
#
# Elastic Compliance Matrix: (Units=1/GPa)
#
#
# Indices 1 2 3 4 5 6 
#
# 1 0.008255 -0.001740 -0.004205 0.000000 0.000000 0.000000
# 2 -0.001740 0.011391 -0.003407 0.000000 0.000000 0.000000
# 3 -0.004205 -0.003407 0.018398 0.000000 0.000000 0.000000
# 4 0.000000 0.000000 0.000000 1.900834 0.000000 0.000000
# 5 0.000000 0.000000 0.000000 0.000000 0.060525 0.000000
# 6 0.000000 0.000000 0.000000 0.000000 0.000000 0.043464
#
#
# Mechanical properties :
#
#
# Convention : Reuss Voigt Hill
#
# Bulk Modulus (GPa) = 51.70173 58.12467 54.91320
# Shear Modulus (GPa) = 2.41777 22.45478 12.43628
#
# Velocity S-wave (km/s) = 1.17345 3.57610 2.66134
# Velocity P-wave (km/s) = 5.59297 7.08200 6.38107
#
# Compressibility (1/GPa) = 0.01934171
#
# Stress axis : x y z
#
# Youngs Moduli (GPa) = 121.13281 87.78563 54.35381
#
# Poissons Ratio (x) = 0.15273 0.22854
# Poissons Ratio (y) = 0.21075 0.18518
# Poissons Ratio (z) = 0.50933 0.29908
#
# Static dielectric constant tensor:
#      x y z
#    x 3.484360 0.000000 0.000000 
#    y 0.000000 3.298330 0.000000 
#    z 0.000000 0.000000 2.840910 
# 
# 
# High freq. dielectric constant tensor:
#      x y z
#    x 1.696270 0.000000 0.000000 
#    y 0.000000 1.686610 0.000000 
#    z 0.000000 0.000000 1.621840 
# 
# From -- ./inp_files/58708.got.cif
#   From: 2010.06.25/outbox.cif.g09.slc.cpg/sg71_30_cif.got.tgz:58708.got - 2010.06.28 04:59:45.
