data_PCOD8287921
_publ_section_title
;
Structure prediction by ZEFSAII (Michael W. Deem and Ramdas Pophale) SiO2 
 PCOD8287921
Probable space group: I M M M
;
_chemical_formula_sum "Si O2"
_cell_formula_units_Z 104
_cell_length_a 21.621817
_cell_length_b 22.081060
_cell_length_c 13.317631
_cell_angle_alpha 90.000000
_cell_angle_beta 90.000000
_cell_angle_gamma 90.000000
_cell_volume 6358.271707
_symmetry_space_group_name_H-M "I M M M"
_symmetry_group_IT_number 71
_symmetry_cell_setting 'orthorhombic'
loop_
_space_group_symop_operation_xyz
x,y,z
-x,-y,z
x,-y,-z
-x,y,-z
-x,-y,-z
x,y,-z
-x,y,z
x,-y,z
1/2+x,1/2+y,1/2+z
1/2-x,1/2-y,1/2+z
1/2+x,1/2-y,1/2-z
1/2-x,1/2+y,1/2-z
1/2-x,1/2-y,1/2-z
1/2+x,1/2+y,1/2-z
1/2-x,1/2+y,1/2+z
1/2+x,1/2-y,1/2+z
loop_
_atom_site_type_symbol
_atom_site_label
_atom_site_fract_x
_atom_site_fract_y
_atom_site_fract_z
Si Si1 0.810941 0.174101 0.708640
Si Si2 0.874600 0.376175 0.186715
Si Si3 0.500000 0.067722 0.616022
Si Si4 0.699461 0.239571 0.616568
Si Si5 0.929225 0.647385 0.611837
Si Si6 0.067799 0.790281 0.613513
Si Si7 0.745469 0.931117 0.385060
O O1 0.768785 0.215220 0.635134
O O2 0.806387 0.197231 0.823208
O O3 0.882312 0.175260 0.679490
O O4 0.787397 0.105564 0.694239
O O5 0.851379 0.309114 0.154735
O O6 0.881803 0.380841 0.307700
O O7 0.825967 0.425615 0.147829
O O8 0.940866 0.391369 0.141194
O O9 0.500000 0.055263 0.500000
O O10 0.500000 0.000000 0.668079
O O11 0.689211 0.253599 0.500000
O O12 0.911000 0.624891 0.500000
O O13 0.922557 0.718962 0.618736
O O14 0.000000 0.627953 0.635980
O O15 0.074161 0.813206 0.500000
O O16 0.000000 0.807238 0.655798
O O17 0.752544 0.906886 0.500000
O O18 0.766656 0.000000 0.378566
#
# Coordination Sequence:
#
# PCOD8287921 Si02
#       7
#    16  16   8  16  16  16  16
#     4  10  18  32  51  71  97 128 161 198 244 305
#     4  11  18  32  49  70 100 131 167 211 251 287
#     4  11  22  32  47  69  95 137 183 212 236 274
#     4  10  20  31  47  74 101 127 160 203 252 296
#     4   9  17  29  45  69 100 133 164 198 247 296
#     4   9  16  27  46  73 101 125 153 191 240 298
#     4  10  21  36  52  70  95 127 164 205 249 301
#
# _framework density 16.356646000000001
#
# number of rings (size 3 to 8) (size 9 to 14) (size 15 to 20)
#    0.000    2.077    2.308    5.077    0.000    1.231 
#    0.000    0.000    0.000    4.154    0.000    2.154 
#    0.000    0.000    0.000    1.385    0.000    0.154 
#
# Total GULP energy -644536.471211 kJ/mol
# GULP energy per Si atom -12394.932139 kJ/mol
# Density = 1.631942 g / cm^3
# Si number density = 16.356646 Si / 1000 Ang^3
#
#
#
# Elastic Constant Matrix: (Units=GPa)
#
#
# Indices 1 2 3 4 5 6 
#
# 1 94.7769 31.7657 35.1381 0.0000 0.0000 0.0000
# 2 31.7657 64.0893 41.0882 0.0000 0.0000 0.0000
# 3 35.1381 41.0882 115.6511 0.0000 0.0000 0.0000
# 4 0.0000 0.0000 0.0000 20.0142 0.0000 0.0000
# 5 0.0000 0.0000 0.0000 0.0000 24.9968 0.0000
# 6 0.0000 0.0000 0.0000 0.0000 0.0000 19.9652
#
#
#
# Elastic Compliance Matrix: (Units=1/GPa)
#
#
# Indices 1 2 3 4 5 6 
#
# 1 0.013057 -0.005087 -0.002160 0.000000 0.000000 0.000000
# 2 -0.005087 0.022187 -0.006337 0.000000 0.000000 0.000000
# 3 -0.002160 -0.006337 0.011554 0.000000 0.000000 0.000000
# 4 0.000000 0.000000 0.000000 0.049965 0.000000 0.000000
# 5 0.000000 0.000000 0.000000 0.000000 0.040005 0.000000
# 6 0.000000 0.000000 0.000000 0.000000 0.000000 0.050087
#
#
# Mechanical properties :
#
#
# Convention : Reuss Voigt Hill
#
# Bulk Modulus (GPa) = 50.94018 54.50014 52.72016
# Shear Modulus (GPa) = 22.66890 24.09692 23.38291
#
# Velocity S-wave (km/s) = 3.72683 3.84242 3.78506
# Velocity P-wave (km/s) = 7.05195 7.28545 7.16965
#
# Compressibility (1/GPa) = 0.01963087
#
# Stress axis : x y z
#
# Youngs Moduli (GPa) = 76.58876 45.07079 86.54775
#
# Poissons Ratio (x) = 0.22927 0.18692
# Poissons Ratio (y) = 0.38960 0.54846
# Poissons Ratio (z) = 0.16541 0.28562
#
# Static dielectric constant tensor:
#      x y z
#    x 3.180990 0.000000 0.000000 
#    y 0.000000 2.848080 0.000000 
#    z 0.000000 0.000000 3.219170 
# 
# 
# High freq. dielectric constant tensor:
#      x y z
#    x 1.628200 0.000000 0.000000 
#    y 0.000000 1.592970 0.000000 
#    z 0.000000 0.000000 1.627230 
# 
# From -- ./inp_files/26230.got.cif
#   From: 2010.06.25/outbox.cif.g09.slc.cpg/sg71_14_cif.got.tgz:26230.got - 2010.06.28 04:59:45.
