data_PCOD8287447
_publ_section_title
;
Structure prediction by ZEFSAII (Michael W. Deem and Ramdas Pophale) SiO2 
 PCOD8287447
Probable space group: I M M M
;
_chemical_formula_sum "Si O2"
_cell_formula_units_Z 88
_cell_length_a 19.592238
_cell_length_b 18.308691
_cell_length_c 14.370579
_cell_angle_alpha 90.000000
_cell_angle_beta 90.000000
_cell_angle_gamma 90.000000
_cell_volume 5154.844979
_symmetry_space_group_name_H-M "I M M M"
_symmetry_group_IT_number 71
_symmetry_cell_setting 'orthorhombic'
loop_
_space_group_symop_operation_xyz
x,y,z
-x,-y,z
x,-y,-z
-x,y,-z
-x,-y,-z
x,y,-z
-x,y,z
x,-y,z
1/2+x,1/2+y,1/2+z
1/2-x,1/2-y,1/2+z
1/2+x,1/2-y,1/2-z
1/2-x,1/2+y,1/2-z
1/2-x,1/2-y,1/2-z
1/2+x,1/2+y,1/2-z
1/2-x,1/2+y,1/2+z
1/2+x,1/2-y,1/2+z
loop_
_atom_site_type_symbol
_atom_site_label
_atom_site_fract_x
_atom_site_fract_y
_atom_site_fract_z
Si Si1 0.421809 0.226630 0.203213
Si Si2 0.156064 0.857027 0.389902
Si Si3 0.794694 0.420391 0.891675
Si Si4 0.419197 0.080486 0.895248
Si Si5 0.076271 0.000000 0.610328
Si Si6 0.423574 0.827180 0.603590
O O1 0.500000 0.239260 0.169842
O O2 0.373011 0.286005 0.159273
O O3 0.394859 0.146043 0.172282
O O4 0.416599 0.233625 0.315736
O O5 0.148843 0.845810 0.500000
O O6 0.234605 0.866672 0.355965
O O7 0.114803 0.927822 0.354628
O O8 0.789238 0.500000 0.843486
O O9 0.870076 0.390444 0.873377
O O10 0.780679 0.430523 0.000000
O O11 0.500000 0.077875 0.894687
O O12 0.391640 0.000000 0.862754
O O13 0.392954 0.096800 0.000000
O O14 0.074416 0.000000 0.500000
O O15 0.000000 0.000000 0.652081
O O16 0.410122 0.793490 0.500000
O O17 0.500000 0.861305 0.608085
#
# Coordination Sequence:
#
# PCOD8287447 Si02
#       6
#    16  16  16  16   8  16
#     4  10  19  29  45  70  96 124 162 201 234 279
#     4  10  18  29  46  71 102 131 155 184 230 290
#     4   9  17  31  49  68  95 128 158 192 238 291
#     4   8  14  25  40  59  88 125 158 188 226 273
#     4   9  16  26  42  66  98 132 156 178 218 273
#     4   9  19  34  49  66  89 119 161 212 255 282
#
# _framework density 17.071317000000001
#
# number of rings (size 3 to 8) (size 9 to 14) (size 15 to 20)
#    0.000    2.818    0.909    1.636    0.000    3.636 
#    0.000    3.636    0.000    0.000    0.000    0.636 
#    0.000    5.091    0.000    0.000    0.000    0.000 
#
# Total GULP energy -545167.391083 kJ/mol
# GULP energy per Si atom -12390.167979 kJ/mol
# Density = 1.703246 g / cm^3
# Si number density = 17.071317 Si / 1000 Ang^3
#
#
#
# Elastic Constant Matrix: (Units=GPa)
#
#
# Indices 1 2 3 4 5 6 
#
# 1 106.7816 54.5690 32.2350 0.0000 0.0000 0.0000
# 2 54.5690 117.6936 44.1050 0.0000 0.0000 0.0000
# 3 32.2350 44.1050 68.9018 0.0000 0.0000 0.0000
# 4 0.0000 0.0000 0.0000 10.9430 0.0000 0.0000
# 5 0.0000 0.0000 0.0000 0.0000 13.7024 0.0000
# 6 0.0000 0.0000 0.0000 0.0000 0.0000 18.4557
#
#
#
# Elastic Compliance Matrix: (Units=1/GPa)
#
#
# Indices 1 2 3 4 5 6 
#
# 1 0.012686 -0.004812 -0.002855 0.000000 0.000000 0.000000
# 2 -0.004812 0.013003 -0.006072 0.000000 0.000000 0.000000
# 3 -0.002855 -0.006072 0.019736 0.000000 0.000000 0.000000
# 4 0.000000 0.000000 0.000000 0.091383 0.000000 0.000000
# 5 0.000000 0.000000 0.000000 0.000000 0.072980 0.000000
# 6 0.000000 0.000000 0.000000 0.000000 0.000000 0.054184
#
#
# Mechanical properties :
#
#
# Convention : Reuss Voigt Hill
#
# Bulk Modulus (GPa) = 55.71980 61.68836 58.70408
# Shear Modulus (GPa) = 16.81056 19.45141 18.13099
#
# Velocity S-wave (km/s) = 3.14144 3.37919 3.26248
# Velocity P-wave (km/s) = 6.77263 7.17213 6.97524
#
# Compressibility (1/GPa) = 0.01794694
#
# Stress axis : x y z
#
# Youngs Moduli (GPa) = 78.82841 76.90333 50.66896
#
# Poissons Ratio (x) = 0.37006 0.14464
# Poissons Ratio (y) = 0.37933 0.30768
# Poissons Ratio (z) = 0.22503 0.46698
#
# Static dielectric constant tensor:
#      x y z
#    x 3.205510 0.000000 0.000000 
#    y 0.000000 3.207420 0.000000 
#    z 0.000000 0.000000 3.117880 
# 
# 
# High freq. dielectric constant tensor:
#      x y z
#    x 1.648830 0.000000 0.000000 
#    y 0.000000 1.642130 0.000000 
#    z 0.000000 0.000000 1.632760 
# 
# From -- ./inp_files/36382.got.cif
#   From: 2010.06.25/outbox.cif.g09.slc.cpg/sg71_19_cif.got.tgz:36382.got - 2010.06.28 04:59:45.
