data_PCOD8287319
_publ_section_title
;
Structure prediction by ZEFSAII (Michael W. Deem and Ramdas Pophale) SiO2 
 PCOD8287319
Probable space group: I M M M
;
_chemical_formula_sum "Si O2"
_cell_formula_units_Z 96
_cell_length_a 9.540448
_cell_length_b 33.085571
_cell_length_c 18.331461
_cell_angle_alpha 90.000000
_cell_angle_beta 90.000000
_cell_angle_gamma 90.000000
_cell_volume 5786.347107
_symmetry_space_group_name_H-M "I M M M"
_symmetry_group_IT_number 71
_symmetry_cell_setting 'orthorhombic'
loop_
_space_group_symop_operation_xyz
x,y,z
-x,-y,z
x,-y,-z
-x,y,-z
-x,-y,-z
x,y,-z
-x,y,z
x,-y,z
1/2+x,1/2+y,1/2+z
1/2-x,1/2-y,1/2+z
1/2+x,1/2-y,1/2-z
1/2-x,1/2+y,1/2-z
1/2-x,1/2-y,1/2-z
1/2+x,1/2+y,1/2-z
1/2-x,1/2+y,1/2+z
1/2+x,1/2-y,1/2+z
loop_
_atom_site_type_symbol
_atom_site_label
_atom_site_fract_x
_atom_site_fract_y
_atom_site_fract_z
Si Si1 0.161896 0.749673 0.323364
Si Si2 0.834665 0.324329 0.580621
Si Si3 0.836874 0.917303 0.582555
Si Si4 0.662292 0.045200 0.292627
Si Si5 0.163453 0.376709 0.710720
Si Si6 0.841467 0.839233 0.332902
O O1 0.250000 0.750000 0.250000
O O2 0.221434 0.715984 0.378956
O O3 0.177634 0.793557 0.362015
O O4 0.000000 0.740523 0.303740
O O5 0.765888 0.328115 0.500000
O O6 0.795093 0.364345 0.627992
O O7 0.000000 0.320717 0.572046
O O8 0.786947 0.924568 0.500000
O O9 0.750675 0.947012 0.634576
O O10 0.805634 0.870541 0.602460
O O11 0.000000 0.927732 0.591751
O O12 0.500000 0.050450 0.313519
O O13 0.704874 0.076738 0.228411
O O14 0.693732 0.000000 0.263788
O O15 0.241146 0.346100 0.764357
O O16 0.000000 0.369378 0.723667
O O17 0.000000 0.846391 0.305377
#
# Coordination Sequence:
#
# PCOD8287319 Si02
#       6
#    16  16  16  16  16  16
#     4  10  18  28  45  67  91 120 152 186 219 256
#     4   9  17  28  44  68  92 115 147 183 219 260
#     4   9  18  31  45  64  92 122 150 182 222 264
#     4   9  18  31  47  67  88 113 148 186 224 269
#     4   9  16  29  48  65  85 115 147 181 219 263
#     4   9  17  28  44  65  88 117 151 185 217 253
#
# _framework density 16.590778
#
# number of rings (size 3 to 8) (size 9 to 14) (size 15 to 20)
#    0.000    2.833    1.667    0.000    0.000    1.667 
#    0.000    5.000    0.000    2.500    0.000    5.833 
#    0.000    0.000    0.000    8.333    0.000    8.667 
#
# Total GULP energy -594925.043278 kJ/mol
# GULP energy per Si atom -12394.271735 kJ/mol
# Density = 1.655302 g / cm^3
# Si number density = 16.590778 Si / 1000 Ang^3
#
#
#
# Elastic Constant Matrix: (Units=GPa)
#
#
# Indices 1 2 3 4 5 6 
#
# 1 31.6151 25.6136 30.2325 0.0000 0.0000 0.0000
# 2 25.6136 125.2691 66.6505 0.0000 0.0000 0.0000
# 3 30.2325 66.6505 127.7173 0.0000 0.0000 0.0000
# 4 0.0000 0.0000 0.0000 17.9366 0.0000 0.0000
# 5 0.0000 0.0000 0.0000 0.0000 17.7885 0.0000
# 6 0.0000 0.0000 0.0000 0.0000 0.0000 18.6131
#
#
#
# Elastic Compliance Matrix: (Units=1/GPa)
#
#
# Indices 1 2 3 4 5 6 
#
# 1 0.042754 -0.004648 -0.007695 0.000000 0.000000 0.000000
# 2 -0.004648 0.011557 -0.004931 0.000000 0.000000 0.000000
# 3 -0.007695 -0.004931 0.012224 0.000000 0.000000 0.000000
# 4 0.000000 0.000000 0.000000 0.055752 0.000000 0.000000
# 5 0.000000 0.000000 0.000000 0.000000 0.056216 0.000000
# 6 0.000000 0.000000 0.000000 0.000000 0.000000 0.053726
#
#
# Mechanical properties :
#
#
# Convention : Reuss Voigt Hill
#
# Bulk Modulus (GPa) = 31.26134 58.84385 45.05260
# Shear Modulus (GPa) = 18.02200 21.67466 19.84833
#
# Velocity S-wave (km/s) = 3.29943 3.61838 3.46258
# Velocity P-wave (km/s) = 5.77914 7.28022 6.57268
#
# Compressibility (1/GPa) = 0.03198839
#
# Stress axis : x y z
#
# Youngs Moduli (GPa) = 23.38939 86.53102 81.80303
#
# Poissons Ratio (x) = 0.40217 0.62949
# Poissons Ratio (y) = 0.10871 0.40335
# Poissons Ratio (z) = 0.17998 0.42666
#
# Static dielectric constant tensor:
#      x y z
#    x 3.002840 0.000000 0.000000 
#    y 0.000000 3.358020 0.000000 
#    z 0.000000 0.000000 3.157380 
# 
# 
# High freq. dielectric constant tensor:
#      x y z
#    x 1.620680 0.000000 0.000000 
#    y 0.000000 1.645660 0.000000 
#    z 0.000000 0.000000 1.616010 
# 
# From -- ./inp_files/24454.got.cif
#   From: 2010.06.25/outbox.cif.g09.slc.cpg/sg71_13_cif.got.tgz:24454.got - 2010.06.28 04:59:45.
