data_PCOD8287163
_publ_section_title
;
Structure prediction by ZEFSAII (Michael W. Deem and Ramdas Pophale) SiO2 
 PCOD8287163
Probable space group: I M M M
;
_chemical_formula_sum "Si O2"
_cell_formula_units_Z 104
_cell_length_a 11.143256
_cell_length_b 21.293155
_cell_length_c 35.404432
_cell_angle_alpha 90.000000
_cell_angle_beta 90.000000
_cell_angle_gamma 90.000000
_cell_volume 8400.589336
_symmetry_space_group_name_H-M "I M M M"
_symmetry_group_IT_number 71
_symmetry_cell_setting 'orthorhombic'
loop_
_space_group_symop_operation_xyz
x,y,z
-x,-y,z
x,-y,-z
-x,y,-z
-x,-y,-z
x,y,-z
-x,y,z
x,-y,z
1/2+x,1/2+y,1/2+z
1/2-x,1/2-y,1/2+z
1/2+x,1/2-y,1/2-z
1/2-x,1/2+y,1/2-z
1/2-x,1/2-y,1/2-z
1/2+x,1/2+y,1/2-z
1/2-x,1/2+y,1/2+z
1/2+x,1/2-y,1/2+z
loop_
_atom_site_type_symbol
_atom_site_label
_atom_site_fract_x
_atom_site_fract_y
_atom_site_fract_z
Si Si1 0.862101 0.569071 0.215139
Si Si2 0.284870 0.654476 0.266691
Si Si3 0.736925 0.633998 0.151268
Si Si4 0.000000 0.070015 0.680280
Si Si5 0.139232 0.427633 0.000000
Si Si6 0.642359 0.925544 0.417825
Si Si7 0.858147 0.239576 0.303190
Si Si8 0.000000 0.927092 0.770588
O O1 0.800339 0.500000 0.212142
O O2 0.809855 0.606344 0.249986
O O3 0.844646 0.607185 0.176613
O O4 0.000000 0.560456 0.223035
O O5 0.212996 0.695439 0.297377
O O6 0.345458 0.697192 0.234312
O O7 0.385552 0.611115 0.286656
O O8 0.615430 0.600194 0.162221
O O9 0.778107 0.619685 0.108747
O O10 0.709216 0.707118 0.160858
O O11 0.000000 0.077336 0.725205
O O12 0.000000 0.000000 0.666435
O O13 0.187525 0.402332 0.040353
O O14 0.168642 0.500000 0.000000
O O15 0.000000 0.414740 0.000000
O O16 0.500000 0.913693 0.412332
O O17 0.668611 0.000000 0.410966
O O18 0.000000 0.250456 0.311127
O O19 0.000000 0.000000 0.784005
#
# Coordination Sequence:
#
# PCOD8287163 Si02
#       8
#    16  16  16   8   8  16  16   8
#     4  10  18  26  36  53  71  89 118 157 198 226
#     4  10  18  28  40  52  67  95 119 153 191 226
#     4  11  18  27  37  54  71  97 122 154 192 227
#     4  11  18  26  38  51  72  95 124 156 195 235
#     4   7  12  24  40  55  73  95 117 148 189 234
#     4   9  16  26  40  58  76  94 120 154 196 233
#     4  10  18  30  38  49  71  93 127 150 184 233
#     4  11  18  30  44  56  71  92 127 159 193 236
#
# _framework density 12.380083000000001
#
# number of rings (size 3 to 8) (size 9 to 14) (size 15 to 20)
#    0.000    2.077    4.615    3.692    0.000    1.231 
#    2.769    0.000    0.000    0.462    0.000    2.154 
#    0.000    0.000    0.000    0.000    0.000    0.000 
#
# Total GULP energy -644179.440087 kJ/mol
# GULP energy per Si atom -12388.066156 kJ/mol
# Density = 1.235191 g / cm^3
# Si number density = 12.380083 Si / 1000 Ang^3
#
#
#
# Elastic Constant Matrix: (Units=GPa)
#
#
# Indices 1 2 3 4 5 6 
#
# 1 57.5822 35.2156 24.7943 0.0000 0.0000 0.0000
# 2 35.2156 70.1749 31.2054 0.0000 0.0000 0.0000
# 3 24.7943 31.2054 58.8601 0.0000 0.0000 0.0000
# 4 0.0000 0.0000 0.0000 14.7660 0.0000 0.0000
# 5 0.0000 0.0000 0.0000 0.0000 15.5137 0.0000
# 6 0.0000 0.0000 0.0000 0.0000 0.0000 22.0845
#
#
#
# Elastic Compliance Matrix: (Units=1/GPa)
#
#
# Indices 1 2 3 4 5 6 
#
# 1 0.026278 -0.010814 -0.005336 0.000000 0.000000 0.000000
# 2 -0.010814 0.023096 -0.007689 0.000000 0.000000 0.000000
# 3 -0.005336 -0.007689 0.023314 0.000000 0.000000 0.000000
# 4 0.000000 0.000000 0.000000 0.067723 0.000000 0.000000
# 5 0.000000 0.000000 0.000000 0.000000 0.064459 0.000000
# 6 0.000000 0.000000 0.000000 0.000000 0.000000 0.045281
#
#
# Mechanical properties :
#
#
# Convention : Reuss Voigt Hill
#
# Bulk Modulus (GPa) = 39.98602 41.00531 40.49566
# Shear Modulus (GPa) = 16.33101 16.83296 16.58199
#
# Velocity S-wave (km/s) = 3.63593 3.69139 3.66376
# Velocity P-wave (km/s) = 7.07075 7.16675 7.11891
#
# Compressibility (1/GPa) = 0.02500874
#
# Stress axis : x y z
#
# Youngs Moduli (GPa) = 38.05522 43.29721 42.89297
#
# Poissons Ratio (x) = 0.46821 0.22888
# Poissons Ratio (y) = 0.41153 0.32982
# Poissons Ratio (z) = 0.20306 0.33293
#
# Static dielectric constant tensor:
#      x y z
#    x 2.493690 0.000000 0.000000 
#    y 0.000000 2.681050 0.000000 
#    z 0.000000 0.000000 2.433120 
# 
# 
# High freq. dielectric constant tensor:
#      x y z
#    x 1.478980 0.000000 0.000000 
#    y 0.000000 1.454510 0.000000 
#    z 0.000000 0.000000 1.421830 
# 
# From -- ./inp_files/69534.got.cif
#   From: 2010.06.25/outbox.cif.g09.slc.cpg/sg71_35_cif.got.tgz:69534.got - 2010.06.28 04:59:45.
