data_PCOD8287343
_publ_section_title
;
Structure prediction by ZEFSAII (Michael W. Deem and Ramdas Pophale) SiO2 
 PCOD8287343
Probable space group: I M M M
;
_chemical_formula_sum "Si O2"
_cell_formula_units_Z 128
_cell_length_a 16.767739
_cell_length_b 20.309488
_cell_length_c 22.173279
_cell_angle_alpha 90.000000
_cell_angle_beta 90.000000
_cell_angle_gamma 90.000000
_cell_volume 7550.981426
_symmetry_space_group_name_H-M "I M M M"
_symmetry_group_IT_number 71
_symmetry_cell_setting 'orthorhombic'
loop_
_space_group_symop_operation_xyz
x,y,z
-x,-y,z
x,-y,-z
-x,y,-z
-x,-y,-z
x,y,-z
-x,y,z
x,-y,z
1/2+x,1/2+y,1/2+z
1/2-x,1/2-y,1/2+z
1/2+x,1/2-y,1/2-z
1/2-x,1/2+y,1/2-z
1/2-x,1/2-y,1/2-z
1/2+x,1/2+y,1/2-z
1/2-x,1/2+y,1/2+z
1/2+x,1/2-y,1/2+z
loop_
_atom_site_type_symbol
_atom_site_label
_atom_site_fract_x
_atom_site_fract_y
_atom_site_fract_z
Si Si1 0.779198 0.424884 0.146905
Si Si2 0.169916 0.877494 0.748896
Si Si3 0.093061 0.925211 0.133675
Si Si4 0.782470 0.164250 0.930399
Si Si5 0.086412 0.576214 0.234599
Si Si6 0.226306 0.192247 0.430485
Si Si7 0.907691 0.219348 0.337462
Si Si8 0.181796 0.650665 0.677555
O O1 0.783499 0.500000 0.122533
O O2 0.708772 0.422269 0.196596
O O3 0.861486 0.400872 0.177561
O O4 0.768477 0.374373 0.091974
O O5 0.123993 0.922018 0.797550
O O6 0.106098 0.829338 0.718444
O O7 0.238524 0.835309 0.783008
O O8 0.136494 0.871326 0.091201
O O9 0.000000 0.908115 0.131137
O O10 0.108854 0.000000 0.110562
O O11 0.783659 0.243843 0.919836
O O12 0.707913 0.136254 0.891471
O O13 0.766987 0.147240 0.000000
O O14 0.072549 0.500000 0.230336
O O15 0.133887 0.588475 0.296868
O O16 0.000000 0.612047 0.232974
O O17 0.205346 0.183803 0.500000
O O18 0.142724 0.199376 0.396114
O O19 0.879189 0.289915 0.314858
O O20 0.000000 0.220054 0.355740
#
# Coordination Sequence:
#
# PCOD8287343 Si02
#       8
#    16  16  16  16  16  16  16  16
#     4   9  17  30  51  75  96 124 159 190 226 279
#     4   9  17  30  46  68  99 128 153 187 232 286
#     4  10  20  32  48  71  97 125 158 198 241 282
#     4   9  19  35  50  64  89 125 161 198 237 275
#     4   9  17  29  46  70  99 123 144 182 235 283
#     4   9  19  35  51  68  93 125 160 197 235 277
#     4  10  18  28  46  71  96 123 156 196 239 279
#     4   9  17  29  47  68  92 122 161 195 226 278
#
# _framework density 16.951439000000001
#
# number of rings (size 3 to 8) (size 9 to 14) (size 15 to 20)
#    0.000    2.750    0.000    1.500    0.000    7.000 
#    0.000    2.500    0.000    5.625    0.000    6.125 
#    0.000    0.000    0.000    0.000    0.000    0.000 
#
# Total GULP energy -793149.736714 kJ/mol
# GULP energy per Si atom -12392.964636 kJ/mol
# Density = 1.691286 g / cm^3
# Si number density = 16.951439 Si / 1000 Ang^3
#
#
#
# Elastic Constant Matrix: (Units=GPa)
#
#
# Indices 1 2 3 4 5 6 
#
# 1 114.0182 49.7788 37.0462 0.0000 0.0000 0.0000
# 2 49.7788 61.3245 40.4281 0.0000 0.0000 0.0000
# 3 37.0462 40.4281 90.0976 0.0000 0.0000 0.0000
# 4 0.0000 0.0000 0.0000 24.8909 0.0000 0.0000
# 5 0.0000 0.0000 0.0000 0.0000 13.1266 0.0000
# 6 0.0000 0.0000 0.0000 0.0000 0.0000 20.8966
#
#
#
# Elastic Compliance Matrix: (Units=1/GPa)
#
#
# Indices 1 2 3 4 5 6 
#
# 1 0.013637 -0.010470 -0.000909 0.000000 0.000000 0.000000
# 2 -0.010470 0.031196 -0.009693 0.000000 0.000000 0.000000
# 3 -0.000909 -0.009693 0.015822 0.000000 0.000000 0.000000
# 4 0.000000 0.000000 0.000000 0.040175 0.000000 0.000000
# 5 0.000000 0.000000 0.000000 0.000000 0.076181 0.000000
# 6 0.000000 0.000000 0.000000 0.000000 0.000000 0.047855
#
#
# Mechanical properties :
#
#
# Convention : Reuss Voigt Hill
#
# Bulk Modulus (GPa) = 54.02319 57.77186 55.89752
# Shear Modulus (GPa) = 18.30290 20.99529 19.64910
#
# Velocity S-wave (km/s) = 3.28948 3.52313 3.40831
# Velocity P-wave (km/s) = 6.80927 7.12072 6.96674
#
# Compressibility (1/GPa) = 0.01851057
#
# Stress axis : x y z
#
# Youngs Moduli (GPa) = 73.32944 32.05569 63.20237
#
# Poissons Ratio (x) = 0.33563 0.05746
# Poissons Ratio (y) = 0.76778 0.61261
# Poissons Ratio (z) = 0.06666 0.31071
#
# Static dielectric constant tensor:
#      x y z
#    x 3.865680 0.000000 0.000000 
#    y 0.000000 3.156570 0.000000 
#    z 0.000000 0.000000 3.105290 
# 
# 
# High freq. dielectric constant tensor:
#      x y z
#    x 1.649160 0.000000 0.000000 
#    y 0.000000 1.649310 0.000000 
#    z 0.000000 0.000000 1.643350 
# 
# From -- ./inp_files/60879.got.cif
#   From: 2010.06.25/outbox.cif.g09.slc.cpg/sg71_31_cif.got.tgz:60879.got - 2010.06.28 04:59:45.
