data_PCOD8287764
_publ_section_title
;
Structure prediction by ZEFSAII (Michael W. Deem and Ramdas Pophale) SiO2 
 PCOD8287764
Probable space group: I M M M
;
_chemical_formula_sum "Si O2"
_cell_formula_units_Z 56
_cell_length_a 12.718685
_cell_length_b 26.983842
_cell_length_c 10.266275
_cell_angle_alpha 90.000000
_cell_angle_beta 90.000000
_cell_angle_gamma 90.000000
_cell_volume 3523.375175
_symmetry_space_group_name_H-M "I M M M"
_symmetry_group_IT_number 71
_symmetry_cell_setting 'orthorhombic'
loop_
_space_group_symop_operation_xyz
x,y,z
-x,-y,z
x,-y,-z
-x,y,-z
-x,-y,-z
x,y,-z
-x,y,z
x,-y,z
1/2+x,1/2+y,1/2+z
1/2-x,1/2-y,1/2+z
1/2+x,1/2-y,1/2-z
1/2-x,1/2+y,1/2-z
1/2-x,1/2-y,1/2-z
1/2+x,1/2+y,1/2-z
1/2-x,1/2+y,1/2+z
1/2+x,1/2-y,1/2+z
loop_
_atom_site_type_symbol
_atom_site_label
_atom_site_fract_x
_atom_site_fract_y
_atom_site_fract_z
Si Si1 0.261059 0.190022 0.000000
Si Si2 0.301499 0.555016 0.645961
Si Si3 0.378239 0.907393 0.000000
Si Si4 0.379181 0.345563 0.734056
Si Si5 0.122089 0.792766 0.500000
O O1 0.190433 0.182069 0.127185
O O2 0.306126 0.244624 0.000000
O O3 0.358145 0.151621 0.000000
O O4 0.352129 0.557688 0.500000
O O5 0.314877 0.500000 0.706449
O O6 0.177059 0.568546 0.628752
O O7 0.359020 0.595116 0.736366
O O8 0.500000 0.920203 0.000000
O O9 0.500000 0.334634 0.701456
O O10 0.348260 0.325314 0.875107
O O11 0.000000 0.777329 0.500000
#
# Coordination Sequence:
#
# PCOD8287764 Si02
#       5
#     8  16   8  16   8
#     4  10  18  31  49  69  92 119 156 189 224 267
#     4   8  16  28  45  70  93 116 153 190 227 264
#     4   8  14  25  44  70  96 114 143 192 232 265
#     4  10  19  32  48  69  94 121 153 188 227 274
#     4  10  21  33  47  67  94 124 152 187 232 272
#
# _framework density 15.893851
#
# number of rings (size 3 to 8) (size 9 to 14) (size 15 to 20)
#    0.857    2.000    1.429    1.714    0.000    1.714 
#    0.000    2.143    0.000    4.286    0.000    0.000 
#    0.000    9.143    0.000    0.000    0.000    0.000 
#
# Total GULP energy -346944.669566 kJ/mol
# GULP energy per Si atom -12390.881056 kJ/mol
# Density = 1.585768 g / cm^3
# Si number density = 15.893851 Si / 1000 Ang^3
#
#
#
# Elastic Constant Matrix: (Units=GPa)
#
#
# Indices 1 2 3 4 5 6 
#
# 1 56.1393 41.2631 38.3810 0.0001 0.0000 0.0000
# 2 41.2631 158.2528 59.1078 -0.0003 0.0000 0.0000
# 3 38.3810 59.1078 93.0409 -0.0009 -0.0006 0.0000
# 4 0.0001 -0.0003 -0.0009 -4.0481 0.0009 0.0000
# 5 0.0000 0.0000 -0.0006 0.0009 6.8796 0.0000
# 6 0.0000 0.0000 0.0000 0.0000 0.0000 13.7387
#
#
#
# Elastic Compliance Matrix: (Units=1/GPa)
#
#
# Indices 1 2 3 4 5 6 
#
# 1 0.026353 -0.003686 -0.008530 0.000003 -0.000001 0.000000
# 2 -0.003686 0.008800 -0.004070 0.000000 0.000000 0.000000
# 3 -0.008530 -0.004070 0.016853 -0.000004 0.000002 0.000000
# 4 0.000003 0.000000 -0.000004 -0.247030 0.000031 -0.000001
# 5 -0.000001 0.000000 0.000002 0.000031 0.145356 0.000000
# 6 0.000000 0.000000 0.000000 -0.000001 0.000000 0.072787
#
#
# Mechanical properties :
#
#
# Convention : Reuss Voigt Hill
#
# Bulk Modulus (GPa) = 51.45435 64.99298 58.22367
# Shear Modulus (GPa) = 80.42510 14.55945 47.49227
#
# Velocity S-wave (km/s) = 7.12118 3.02990 5.47227
# Velocity P-wave (km/s) = 10.00295 7.29528 8.75443
#
# Compressibility (1/GPa) = 0.01943470
#
# Stress axis : x y z
#
# Youngs Moduli (GPa) = 37.94574 113.63305 59.33823
#
# Poissons Ratio (x) = 0.41880 0.50615
# Poissons Ratio (y) = 0.13985 0.24153
# Poissons Ratio (z) = 0.32367 0.46253
#
# Static dielectric constant tensor:
#      x y z
#    x 2.836120 0.000000 0.000000 
#    y 0.000000 3.102730 0.000000 
#    z 0.000000 0.000000 2.786760 
# 
# 
# High freq. dielectric constant tensor:
#      x y z
#    x 1.601350 0.000000 0.000000 
#    y 0.000000 1.622170 0.000000 
#    z 0.000000 0.000000 1.575830 
# 
# From -- ./inp_files/3602.got.cif
#   From: 2010.06.25/outbox.cif.g09.slc.cpg/sg71_2_cif.got.tgz:3602.got - 2010.06.28 04:59:45.
