data_PCOD8287894
_publ_section_title
;
Structure prediction by ZEFSAII (Michael W. Deem and Ramdas Pophale) SiO2 
 PCOD8287894
Probable space group: I M M M
;
_chemical_formula_sum "Si O2"
_cell_formula_units_Z 56
_cell_length_a 9.960177
_cell_length_b 9.041495
_cell_length_c 33.062611
_cell_angle_alpha 90.000000
_cell_angle_beta 90.000000
_cell_angle_gamma 90.000000
_cell_volume 2977.449815
_symmetry_space_group_name_H-M "I M M M"
_symmetry_group_IT_number 71
_symmetry_cell_setting 'orthorhombic'
loop_
_space_group_symop_operation_xyz
x,y,z
-x,-y,z
x,-y,-z
-x,y,-z
-x,-y,-z
x,y,-z
-x,y,z
x,-y,z
1/2+x,1/2+y,1/2+z
1/2-x,1/2-y,1/2+z
1/2+x,1/2-y,1/2-z
1/2-x,1/2+y,1/2-z
1/2-x,1/2-y,1/2-z
1/2+x,1/2+y,1/2-z
1/2-x,1/2+y,1/2+z
1/2+x,1/2-y,1/2+z
loop_
_atom_site_type_symbol
_atom_site_label
_atom_site_fract_x
_atom_site_fract_y
_atom_site_fract_z
Si Si1 0.773987 0.324827 0.657829
Si Si2 0.000000 0.675169 0.281795
Si Si3 0.849230 0.323870 0.570055
Si Si4 0.653875 0.676314 0.500000
Si Si5 0.500000 0.674879 0.304468
O O1 0.784027 0.500000 0.654833
O O2 0.814977 0.258149 0.614341
O O3 0.626047 0.271175 0.669382
O O4 0.871561 0.268682 0.693160
O O5 0.000000 0.500000 0.275541
O O6 0.000000 0.751179 0.238851
O O7 0.844380 0.500000 0.570714
O O8 0.736456 0.264539 0.538947
O O9 0.000000 0.272411 0.557476
O O10 0.649623 0.500000 0.500000
O O11 0.500000 0.737606 0.500000
O O12 0.500000 0.500000 0.297712
#
# Coordination Sequence:
#
# PCOD8287894 Si02
#       5
#    16   8  16   8   8
#     4   9  17  28  43  61  83 114 151 184 219 267
#     4  10  18  32  48  63  85 119 157 186 218 268
#     4   9  15  25  38  53  77 112 149 178 209 260
#     4   9  17  23  33  55  81 109 142 181 220 255
#     4  10  20  30  44  67  91 115 147 192 234 260
#
# _framework density 18.808043000000001
#
# number of rings (size 3 to 8) (size 9 to 14) (size 15 to 20)
#    0.000    2.714    1.429    1.286    2.000    1.714 
#    0.000    0.000    0.000    0.000    0.000    0.000 
#    0.000    0.000    0.000    7.714    0.000    8.571 
#
# Total GULP energy -347063.956912 kJ/mol
# GULP energy per Si atom -12395.141318 kJ/mol
# Density = 1.876523 g / cm^3
# Si number density = 18.808043 Si / 1000 Ang^3
#
#
#
# Elastic Constant Matrix: (Units=GPa)
#
#
# Indices 1 2 3 4 5 6 
#
# 1 196.3364 12.1496 83.8638 0.0000 0.0000 0.0000
# 2 12.1496 6.7290 11.1477 0.0000 0.0000 0.0000
# 3 83.8638 11.1477 143.6297 0.0000 0.0000 0.0000
# 4 0.0000 0.0000 0.0000 15.3766 0.0000 0.0000
# 5 0.0000 0.0000 0.0000 0.0000 37.4339 0.0000
# 6 0.0000 0.0000 0.0000 0.0000 0.0000 4.9819
#
#
#
# Elastic Compliance Matrix: (Units=1/GPa)
#
#
# Indices 1 2 3 4 5 6 
#
# 1 0.007045 -0.006777 -0.003588 0.000000 0.000000 0.000000
# 2 -0.006777 0.177059 -0.009785 0.000001 0.000000 0.000000
# 3 -0.003588 -0.009785 0.009817 0.000000 0.000000 0.000000
# 4 0.000000 0.000001 0.000000 0.065034 0.000000 0.000000
# 5 0.000000 0.000000 0.000000 0.000000 0.026714 0.000000
# 6 0.000000 0.000000 0.000000 0.000000 0.000000 0.200725
#
#
# Mechanical properties :
#
#
# Convention : Reuss Voigt Hill
#
# Bulk Modulus (GPa) = 6.50954 62.33527 34.42241
# Shear Modulus (GPa) = 8.65202 27.52740 18.08971
#
# Velocity S-wave (km/s) = 2.14713 3.82985 3.10467
# Velocity P-wave (km/s) = 3.10088 7.26442 5.58513
#
# Compressibility (1/GPa) = 0.15362059
#
# Stress axis : x y z
#
# Youngs Moduli (GPa) = 141.94327 5.64785 101.86870
#
# Poissons Ratio (x) = 0.03828 0.36546
# Poissons Ratio (y) = 0.96195 0.99681
# Poissons Ratio (z) = 0.50923 0.05527
#
# Static dielectric constant tensor:
#      x y z
#    x 3.916150 0.000000 0.000000 
#    y 0.000000 2.619880 0.000000 
#    z 0.000000 0.000000 3.678700 
# 
# 
# High freq. dielectric constant tensor:
#      x y z
#    x 1.752870 0.000000 0.000000 
#    y 0.000000 1.635060 0.000000 
#    z 0.000000 0.000000 1.746540 
# 
# From -- ./inp_files/3589.got.cif
#   From: 2010.06.25/outbox.cif.g09.slc.cpg/sg71_2_cif.got.tgz:3589.got - 2010.06.28 04:59:45.
