data_PCOD8287741
_publ_section_title
;
Structure prediction by ZEFSAII (Michael W. Deem and Ramdas Pophale) SiO2 
 PCOD8287741
Probable space group: I M M M
;
_chemical_formula_sum "Si O2"
_cell_formula_units_Z 96
_cell_length_a 17.740683
_cell_length_b 17.151449
_cell_length_c 17.336758
_cell_angle_alpha 90.000000
_cell_angle_beta 90.000000
_cell_angle_gamma 90.000000
_cell_volume 5275.201327
_symmetry_space_group_name_H-M "I M M M"
_symmetry_group_IT_number 71
_symmetry_cell_setting 'orthorhombic'
loop_
_space_group_symop_operation_xyz
x,y,z
-x,-y,z
x,-y,-z
-x,y,-z
-x,-y,-z
x,y,-z
-x,y,z
x,-y,z
1/2+x,1/2+y,1/2+z
1/2-x,1/2-y,1/2+z
1/2+x,1/2-y,1/2-z
1/2-x,1/2+y,1/2-z
1/2-x,1/2-y,1/2-z
1/2+x,1/2+y,1/2-z
1/2-x,1/2+y,1/2+z
1/2+x,1/2-y,1/2+z
loop_
_atom_site_type_symbol
_atom_site_label
_atom_site_fract_x
_atom_site_fract_y
_atom_site_fract_z
Si Si1 0.410909 0.292457 0.125935
Si Si2 0.584008 0.500000 0.591525
Si Si3 0.089247 0.913395 0.500000
Si Si4 0.586890 0.086524 0.759777
Si Si5 0.321952 0.646932 0.410723
Si Si6 0.835662 0.256112 0.775406
Si Si7 0.351463 0.870530 0.084579
O O1 0.500000 0.281038 0.122317
O O2 0.384915 0.294917 0.215080
O O3 0.371212 0.220447 0.084122
O O4 0.384989 0.368901 0.078190
O O5 0.500000 0.500000 0.626530
O O6 0.582392 0.500000 0.500000
O O7 0.626742 0.576672 0.620283
O O8 0.000000 0.919408 0.500000
O O9 0.125393 0.000000 0.500000
O O10 0.500000 0.107018 0.743542
O O11 0.638497 0.153362 0.721717
O O12 0.600196 0.083986 0.851951
O O13 0.606381 0.000000 0.726853
O O14 0.336715 0.667772 0.500000
O O15 0.345085 0.722359 0.361038
O O16 0.236588 0.620494 0.396154
O O17 0.750000 0.250000 0.750000
O O18 0.368926 0.905778 0.000000
#
# Coordination Sequence:
#
# PCOD8287741 Si02
#       7
#    16   8   8  16  16  16  16
#     4  10  19  32  53  78 110 148 184 224 272 325
#     4   9  20  38  56  80 113 144 180 230 288 332
#     4   9  18  34  54  78 113 151 183 220 271 329
#     4  10  22  37  54  80 115 151 183 224 279 334
#     4  10  21  36  59  84 111 146 184 232 285 340
#     4  11  20  36  57  82 110 145 191 231 276 333
#     4  10  18  30  54  81 109 143 181 221 268 331
#
# _framework density 18.198357000000001
#
# number of rings (size 3 to 8) (size 9 to 14) (size 15 to 20)
#    0.000    2.000    4.167    2.000    1.167    2.667 
#    1.500    0.833    0.000    0.500    0.000    1.167 
#    0.000    0.000    0.000    0.000    0.000    0.000 
#
# Total GULP energy -595001.547881 kJ/mol
# GULP energy per Si atom -12395.865581 kJ/mol
# Density = 1.815694 g / cm^3
# Si number density = 18.198357 Si / 1000 Ang^3
#
#
#
# Elastic Constant Matrix: (Units=GPa)
#
#
# Indices 1 2 3 4 5 6 
#
# 1 102.4997 55.1834 18.4586 0.0000 0.0000 0.0000
# 2 55.1834 137.4815 42.7195 0.0000 0.0000 0.0000
# 3 18.4586 42.7195 76.9392 0.0000 0.0000 0.0000
# 4 0.0000 0.0000 0.0000 20.5718 0.0000 0.0000
# 5 0.0000 0.0000 0.0000 0.0000 25.7270 0.0000
# 6 0.0000 0.0000 0.0000 0.0000 0.0000 17.7297
#
#
#
# Elastic Compliance Matrix: (Units=1/GPa)
#
#
# Indices 1 2 3 4 5 6 
#
# 1 0.012450 -0.004917 -0.000256 0.000000 0.000000 0.000000
# 2 -0.004917 0.010733 -0.004779 0.000000 0.000000 0.000000
# 3 -0.000256 -0.004779 0.015713 0.000000 0.000000 0.000000
# 4 0.000000 0.000000 0.000000 0.048610 0.000000 0.000000
# 5 0.000000 0.000000 0.000000 0.000000 0.038870 0.000000
# 6 0.000000 0.000000 0.000000 0.000000 0.000000 0.056403
#
#
# Mechanical properties :
#
#
# Convention : Reuss Voigt Hill
#
# Bulk Modulus (GPa) = 52.66430 61.07151 56.86790
# Shear Modulus (GPa) = 23.92187 26.17626 25.04907
#
# Velocity S-wave (km/s) = 3.62955 3.79672 3.71407
# Velocity P-wave (km/s) = 6.82398 7.26992 7.05048
#
# Compressibility (1/GPa) = 0.01898819
#
# Stress axis : x y z
#
# Youngs Moduli (GPa) = 80.32273 93.17382 63.64354
#
# Poissons Ratio (x) = 0.45818 0.01632
# Poissons Ratio (y) = 0.39499 0.30418
# Poissons Ratio (z) = 0.02060 0.44531
#
# Static dielectric constant tensor:
#      x y z
#    x 3.431960 0.000000 0.000000 
#    y 0.000000 3.494050 0.000000 
#    z 0.000000 0.000000 3.466940 
# 
# 
# High freq. dielectric constant tensor:
#      x y z
#    x 1.704130 0.000000 0.000000 
#    y 0.000000 1.700560 0.000000 
#    z 0.000000 0.000000 1.684640 
# 
# From -- ./inp_files/54234.got.cif
#   From: 2010.06.25/outbox.cif.g09.slc.cpg/sg71_28_cif.got.tgz:54234.got - 2010.06.28 04:59:45.
