data_PCOD8287117
_publ_section_title
;
Structure prediction by ZEFSAII (Michael W. Deem and Ramdas Pophale) SiO2 
 PCOD8287117
Probable space group: I M M M
;
_chemical_formula_sum "Si O2"
_cell_formula_units_Z 128
_cell_length_a 19.901318
_cell_length_b 19.470907
_cell_length_c 20.113533
_cell_angle_alpha 90.000000
_cell_angle_beta 90.000000
_cell_angle_gamma 90.000000
_cell_volume 7793.927903
_symmetry_space_group_name_H-M "I M M M"
_symmetry_group_IT_number 71
_symmetry_cell_setting 'orthorhombic'
loop_
_space_group_symop_operation_xyz
x,y,z
-x,-y,z
x,-y,-z
-x,y,-z
-x,-y,-z
x,y,-z
-x,y,z
x,-y,z
1/2+x,1/2+y,1/2+z
1/2-x,1/2-y,1/2+z
1/2+x,1/2-y,1/2-z
1/2-x,1/2+y,1/2-z
1/2-x,1/2-y,1/2-z
1/2+x,1/2+y,1/2-z
1/2-x,1/2+y,1/2+z
1/2+x,1/2-y,1/2+z
loop_
_atom_site_type_symbol
_atom_site_label
_atom_site_fract_x
_atom_site_fract_y
_atom_site_fract_z
Si Si1 0.260447 0.076068 0.810013
Si Si2 0.635008 0.923923 0.691503
Si Si3 0.924898 0.288339 0.378658
Si Si4 0.764464 0.575927 0.924062
Si Si5 0.364525 0.076391 0.923929
Si Si6 0.074805 0.288279 0.776694
Si Si7 0.708564 0.719000 0.311163
Si Si8 0.295701 0.283590 0.924403
O O1 0.311141 0.086871 0.749492
O O2 0.298305 0.085069 0.879776
O O3 0.205115 0.136104 0.805442
O O4 0.227001 0.000000 0.805637
O O5 0.670284 0.912060 0.620804
O O6 0.577156 0.867555 0.699834
O O7 0.602908 0.000000 0.695879
O O8 0.918967 0.367034 0.402972
O O9 0.910000 0.284258 0.300993
O O10 0.872799 0.238375 0.414992
O O11 0.000000 0.263129 0.395750
O O12 0.733168 0.500000 0.909241
O O13 0.709520 0.634808 0.908356
O O14 0.789112 0.580800 0.000000
O O15 0.395751 0.000000 0.913480
O O16 0.342522 0.087766 0.000000
O O17 0.131726 0.244308 0.813896
O O18 0.000000 0.260309 0.793433
O O19 0.750000 0.750000 0.250000
O O20 0.745577 0.740191 0.378754
O O21 0.274200 0.268614 0.000000
#
# Coordination Sequence:
#
# PCOD8287117 Si02
#       8
#    16  16  16  16  16  16  16  16
#     4  10  19  30  49  77  99 127 170 212 252 295
#     4  10  17  30  51  73 100 130 165 206 250 299
#     4  11  22  34  48  70 104 141 174 209 249 298
#     4   9  18  31  50  77 102 125 161 209 261 308
#     4  10  19  31  46  68 103 140 169 200 243 295
#     4  11  22  34  51  76 104 137 173 210 255 301
#     4  12  18  34  56  73  99 134 170 215 255 295
#     4  11  20  31  53  79  99 131 172 214 253 296
#
# _framework density 16.423041000000001
#
# number of rings (size 3 to 8) (size 9 to 14) (size 15 to 20)
#    0.000    1.500    6.250    0.375    0.000    1.500 
#    0.000    1.875    0.000    2.250    0.000    5.250 
#    0.000    0.000    0.000    4.250    0.000    0.000 
#
# Total GULP energy -793354.841549 kJ/mol
# GULP energy per Si atom -12396.169399 kJ/mol
# Density = 1.638566 g / cm^3
# Si number density = 16.423041 Si / 1000 Ang^3
#
#
#
# Elastic Constant Matrix: (Units=GPa)
#
#
# Indices 1 2 3 4 5 6 
#
# 1 76.0101 43.2455 29.6787 0.0000 0.0000 0.0000
# 2 43.2455 108.6275 26.3148 0.0000 0.0000 0.0000
# 3 29.6787 26.3148 73.2096 0.0000 0.0000 0.0000
# 4 0.0000 0.0000 0.0000 21.5850 0.0000 0.0000
# 5 0.0000 0.0000 0.0000 0.0000 15.6242 0.0000
# 6 0.0000 0.0000 0.0000 0.0000 0.0000 22.8106
#
#
#
# Elastic Compliance Matrix: (Units=1/GPa)
#
#
# Indices 1 2 3 4 5 6 
#
# 1 0.018770 -0.006166 -0.005393 0.000000 0.000000 0.000000
# 2 -0.006166 0.012109 -0.001853 0.000000 0.000000 0.000000
# 3 -0.005393 -0.001853 0.016512 0.000000 0.000000 0.000000
# 4 0.000000 0.000000 0.000000 0.046329 0.000000 0.000000
# 5 0.000000 0.000000 0.000000 0.000000 0.064003 0.000000
# 6 0.000000 0.000000 0.000000 0.000000 0.000000 0.043839
#
#
# Mechanical properties :
#
#
# Convention : Reuss Voigt Hill
#
# Bulk Modulus (GPa) = 48.62098 50.70279 49.66189
# Shear Modulus (GPa) = 21.25473 22.57783 21.91628
#
# Velocity S-wave (km/s) = 3.60140 3.71181 3.65702
# Velocity P-wave (km/s) = 6.85296 7.02211 6.93805
#
# Compressibility (1/GPa) = 0.02056725
#
# Stress axis : x y z
#
# Youngs Moduli (GPa) = 53.27656 82.58043 60.56313
#
# Poissons Ratio (x) = 0.50920 0.32661
# Poissons Ratio (y) = 0.32851 0.11222
# Poissons Ratio (z) = 0.28731 0.15302
#
# Static dielectric constant tensor:
#      x y z
#    x 2.765780 0.000000 0.000000 
#    y 0.000000 3.459640 0.000000 
#    z 0.000000 0.000000 3.273070 
# 
# 
# High freq. dielectric constant tensor:
#      x y z
#    x 1.583730 0.000000 0.000000 
#    y 0.000000 1.642820 0.000000 
#    z 0.000000 0.000000 1.644900 
# 
# From -- ./inp_files/47722.got.cif
#   From: 2010.06.25/outbox.cif.g09.slc.cpg/sg71_24_cif.got.tgz:47722.got - 2010.06.28 04:59:45.
