data_PCOD8287347
_publ_section_title
;
Structure prediction by ZEFSAII (Michael W. Deem and Ramdas Pophale) SiO2 
 PCOD8287347
Probable space group: I M M M
;
_chemical_formula_sum "Si O2"
_cell_formula_units_Z 72
_cell_length_a 25.147633
_cell_length_b 9.349995
_cell_length_c 17.901470
_cell_angle_alpha 90.000000
_cell_angle_beta 90.000000
_cell_angle_gamma 90.000000
_cell_volume 4209.176988
_symmetry_space_group_name_H-M "I M M M"
_symmetry_group_IT_number 71
_symmetry_cell_setting 'orthorhombic'
loop_
_space_group_symop_operation_xyz
x,y,z
-x,-y,z
x,-y,-z
-x,y,-z
-x,-y,-z
x,y,-z
-x,y,z
x,-y,z
1/2+x,1/2+y,1/2+z
1/2-x,1/2-y,1/2+z
1/2+x,1/2-y,1/2-z
1/2-x,1/2+y,1/2-z
1/2-x,1/2-y,1/2-z
1/2+x,1/2+y,1/2-z
1/2-x,1/2+y,1/2+z
1/2+x,1/2-y,1/2+z
loop_
_atom_site_type_symbol
_atom_site_label
_atom_site_fract_x
_atom_site_fract_y
_atom_site_fract_z
Si Si1 0.438456 0.000000 0.911181
Si Si2 0.649083 0.157551 0.164995
Si Si3 0.651954 0.670188 0.685951
Si Si4 0.253071 0.330954 0.582755
Si Si5 0.941307 0.169907 0.916940
O O1 0.407772 0.140810 0.878381
O O2 0.500000 0.000000 0.885382
O O3 0.433878 0.000000 0.000000
O O4 0.646253 0.268570 0.231673
O O5 0.693870 0.213820 0.107703
O O6 0.666367 0.000000 0.195635
O O7 0.651783 0.500000 0.692230
O O8 0.704547 0.727227 0.643434
O O9 0.601682 0.731146 0.640263
O O10 0.263840 0.265784 0.500000
O O11 0.259131 0.500000 0.577294
O O12 0.000000 0.220624 0.891475
O O13 0.938364 0.000000 0.918405
O O14 0.928765 0.228192 0.000000
#
# Coordination Sequence:
#
# PCOD8287347 Si02
#       5
#     8  16  16  16  16
#     4   9  18  34  56  74  87 119 172 210 231 272
#     4   9  19  31  48  70  95 124 156 200 242 279
#     4  10  18  28  46  73  99 124 152 192 244 288
#     4   9  16  28  48  70  93 125 165 199 229 276
#     4   8  14  25  41  62  89 121 157 191 221 266
#
# _framework density 17.105481000000001
#
# number of rings (size 3 to 8) (size 9 to 14) (size 15 to 20)
#    0.667    2.333    0.000    2.667    0.000    3.556 
#    0.000    0.000    0.000    6.667    0.000    3.111 
#    0.000    0.000    0.000    0.000    0.000    0.000 
#
# Total GULP energy -446048.599307 kJ/mol
# GULP energy per Si atom -12390.238870 kJ/mol
# Density = 1.706655 g / cm^3
# Si number density = 17.105481 Si / 1000 Ang^3
#
#
#
# Elastic Constant Matrix: (Units=GPa)
#
#
# Indices 1 2 3 4 5 6 
#
# 1 149.7649 18.1542 71.3821 0.0000 0.0000 0.0000
# 2 18.1542 17.3048 23.8939 0.0000 0.0000 0.0000
# 3 71.3821 23.8939 122.0397 0.0000 0.0000 0.0000
# 4 0.0000 0.0000 0.0000 26.1086 0.0000 0.0000
# 5 0.0000 0.0000 0.0000 0.0000 29.3837 0.0000
# 6 0.0000 0.0000 0.0000 0.0000 0.0000 7.7176
#
#
#
# Elastic Compliance Matrix: (Units=1/GPa)
#
#
# Indices 1 2 3 4 5 6 
#
# 1 0.009378 -0.003103 -0.004878 0.000000 0.000000 0.000000
# 2 -0.003103 0.080224 -0.013892 0.000000 0.000000 0.000000
# 3 -0.004878 -0.013892 0.013767 0.000000 0.000000 0.000000
# 4 0.000000 0.000000 0.000000 0.038302 0.000000 0.000000
# 5 0.000000 0.000000 0.000000 0.000000 0.034032 0.000000
# 6 0.000000 0.000000 0.000000 0.000000 0.000000 0.129573
#
#
# Mechanical properties :
#
#
# Convention : Reuss Voigt Hill
#
# Bulk Modulus (GPa) = 16.77190 57.33000 37.05095
# Shear Modulus (GPa) = 13.55391 24.35394 18.95393
#
# Velocity S-wave (km/s) = 2.81796 3.77736 3.33237
# Velocity P-wave (km/s) = 4.51820 7.25347 6.04264
#
# Compressibility (1/GPa) = 0.05962353
#
# Stress axis : x y z
#
# Youngs Moduli (GPa) = 106.63019 12.46506 72.63767
#
# Poissons Ratio (x) = 0.03868 0.35431
# Poissons Ratio (y) = 0.33092 1.00907
# Poissons Ratio (z) = 0.52012 0.17316
#
# Static dielectric constant tensor:
#      x y z
#    x 3.524250 0.000000 0.000000 
#    y 0.000000 2.566450 0.000000 
#    z 0.000000 0.000000 3.225760 
# 
# 
# High freq. dielectric constant tensor:
#      x y z
#    x 1.674220 0.000000 0.000000 
#    y 0.000000 1.589640 0.000000 
#    z 0.000000 0.000000 1.665170 
# 
# From -- ./inp_files/47978.got.cif
#   From: 2010.06.25/outbox.cif.g09.slc.cpg/sg71_24_cif.got.tgz:47978.got - 2010.06.28 04:59:45.
