data_PCOD8287976
_publ_section_title
;
Structure prediction by ZEFSAII (Michael W. Deem and Ramdas Pophale) SiO2 
 PCOD8287976
Probable space group: I M M M
;
_chemical_formula_sum "Si O2"
_cell_formula_units_Z 88
_cell_length_a 17.533441
_cell_length_b 9.072983
_cell_length_c 28.759567
_cell_angle_alpha 90.000000
_cell_angle_beta 90.000000
_cell_angle_gamma 90.000000
_cell_volume 4575.089523
_symmetry_space_group_name_H-M "I M M M"
_symmetry_group_IT_number 71
_symmetry_cell_setting 'orthorhombic'
loop_
_space_group_symop_operation_xyz
x,y,z
-x,-y,z
x,-y,-z
-x,y,-z
-x,-y,-z
x,y,-z
-x,y,z
x,-y,z
1/2+x,1/2+y,1/2+z
1/2-x,1/2-y,1/2+z
1/2+x,1/2-y,1/2-z
1/2-x,1/2+y,1/2-z
1/2-x,1/2-y,1/2-z
1/2+x,1/2+y,1/2-z
1/2-x,1/2+y,1/2+z
1/2+x,1/2-y,1/2+z
loop_
_atom_site_type_symbol
_atom_site_label
_atom_site_fract_x
_atom_site_fract_y
_atom_site_fract_z
Si Si1 0.584710 0.325171 0.298620
Si Si2 0.714041 0.327095 0.053376
Si Si3 0.909264 0.835634 0.302373
Si Si4 0.410771 0.170962 0.893246
Si Si5 0.350242 0.674728 0.394299
Si Si6 0.000000 0.174943 0.052098
O O1 0.500000 0.257750 0.306828
O O2 0.576638 0.500000 0.298621
O O3 0.618818 0.275919 0.248297
O O4 0.640385 0.276536 0.340402
O O5 0.710962 0.500000 0.062289
O O6 0.632205 0.258255 0.066123
O O7 0.777086 0.255672 0.086070
O O8 0.732638 0.289606 0.000000
O O9 0.881307 0.726826 0.342902
O O10 0.000000 0.841187 0.300335
O O11 0.877346 0.000000 0.312577
O O12 0.500000 0.202365 0.899873
O O13 0.390868 0.000000 0.896986
O O14 0.339226 0.500000 0.399752
O O15 0.424622 0.731302 0.421862
O O16 0.000000 0.000000 0.051693
O O17 0.000000 0.239649 0.000000
#
# Coordination Sequence:
#
# PCOD8287976 Si02
#       6
#    16  16  16  16  16   8
#     4   8  13  25  49  82 114 146 184 224 263 309
#     4  11  25  42  57  76 107 145 182 223 275 331
#     4   8  14  27  51  81 113 146 177 211 261 322
#     4  10  21  38  61  87 110 133 171 223 275 329
#     4  10  18  32  55  82 112 145 187 232 271 313
#     4   9  16  26  47  79 109 141 185 233 274 313
#
# _framework density 19.234596
#
# number of rings (size 3 to 8) (size 9 to 14) (size 15 to 20)
#    0.000    2.636    0.909    2.727    0.000    3.636 
#    0.000    4.091    0.000    2.727    0.000    0.000 
#    0.000    0.000    0.000    0.000    0.000    0.000 
#
# Total GULP energy -545453.128633 kJ/mol
# GULP energy per Si atom -12396.662014 kJ/mol
# Density = 1.919082 g / cm^3
# Si number density = 19.234596 Si / 1000 Ang^3
#
#
#
# Elastic Constant Matrix: (Units=GPa)
#
#
# Indices 1 2 3 4 5 6 
#
# 1 71.2691 35.1761 37.3592 0.0000 0.0000 0.0000
# 2 35.1761 66.4447 39.2038 0.0000 0.0000 0.0000
# 3 37.3592 39.2038 86.0247 0.0000 0.0000 0.0000
# 4 0.0000 0.0000 0.0000 25.5383 0.0000 0.0000
# 5 0.0000 0.0000 0.0000 0.0000 27.8405 0.0000
# 6 0.0000 0.0000 0.0000 0.0000 0.0000 19.2661
#
#
#
# Elastic Compliance Matrix: (Units=1/GPa)
#
#
# Indices 1 2 3 4 5 6 
#
# 1 0.020720 -0.007742 -0.005470 0.000000 0.000000 0.000000
# 2 -0.007742 0.023478 -0.007337 0.000000 0.000000 0.000000
# 3 -0.005470 -0.007337 0.017344 0.000000 0.000000 0.000000
# 4 0.000000 0.000000 0.000000 0.039157 0.000000 0.000000
# 5 0.000000 0.000000 0.000000 0.000000 0.035919 0.000000
# 6 0.000000 0.000000 0.000000 0.000000 0.000000 0.051905
#
#
# Mechanical properties :
#
#
# Convention : Reuss Voigt Hill
#
# Bulk Modulus (GPa) = 48.91610 49.69075 49.30342
# Shear Modulus (GPa) = 21.14747 21.99561 21.57154
#
# Velocity S-wave (km/s) = 3.31939 3.38530 3.35251
# Velocity P-wave (km/s) = 6.33859 6.41642 6.37762
#
# Compressibility (1/GPa) = 0.02044317
#
# Stress axis : x y z
#
# Youngs Moduli (GPa) = 48.26292 42.59347 57.65662
#
# Poissons Ratio (x) = 0.32974 0.31540
# Poissons Ratio (y) = 0.37363 0.42305
# Poissons Ratio (z) = 0.26401 0.31252
#
# Static dielectric constant tensor:
#      x y z
#    x 3.306330 0.000000 0.000000 
#    y 0.000000 3.212280 0.000000 
#    z 0.000000 0.000000 4.024420 
# 
# 
# High freq. dielectric constant tensor:
#      x y z
#    x 1.726750 0.000000 0.000000 
#    y 0.000000 1.714680 0.000000 
#    z 0.000000 0.000000 1.766270 
# 
# From -- ./inp_files/70385.got.cif
#   From: 2010.06.25/outbox.cif.g09.slc.cpg/sg71_36_cif.got.tgz:70385.got - 2010.06.28 04:59:45.
