data_PCOD8287504
_publ_section_title
;
Structure prediction by ZEFSAII (Michael W. Deem and Ramdas Pophale) SiO2 
 PCOD8287504
Probable space group: I M M M
;
_chemical_formula_sum "Si O2"
_cell_formula_units_Z 96
_cell_length_a 9.534607
_cell_length_b 22.372430
_cell_length_c 24.756499
_cell_angle_alpha 90.000000
_cell_angle_beta 90.000000
_cell_angle_gamma 90.000000
_cell_volume 5280.866427
_symmetry_space_group_name_H-M "I M M M"
_symmetry_group_IT_number 71
_symmetry_cell_setting 'orthorhombic'
loop_
_space_group_symop_operation_xyz
x,y,z
-x,-y,z
x,-y,-z
-x,y,-z
-x,-y,-z
x,y,-z
-x,y,z
x,-y,z
1/2+x,1/2+y,1/2+z
1/2-x,1/2-y,1/2+z
1/2+x,1/2-y,1/2-z
1/2-x,1/2+y,1/2-z
1/2-x,1/2-y,1/2-z
1/2+x,1/2+y,1/2-z
1/2-x,1/2+y,1/2+z
1/2+x,1/2-y,1/2+z
loop_
_atom_site_type_symbol
_atom_site_label
_atom_site_fract_x
_atom_site_fract_y
_atom_site_fract_z
Si Si1 0.832090 0.346874 0.000000
Si Si2 0.333991 0.288202 0.500000
Si Si3 0.163580 0.429710 0.681506
Si Si4 0.833614 0.434426 0.090997
Si Si5 0.165574 0.839704 0.886580
Si Si6 0.158442 0.604974 0.797897
Si Si7 0.343459 0.241577 0.698666
O O1 0.771776 0.279411 0.000000
O O2 0.773499 0.382793 0.052133
O O3 0.000000 0.347206 0.000000
O O4 0.500000 0.281495 0.500000
O O5 0.284411 0.324792 0.552624
O O6 0.186719 0.500000 0.674985
O O7 0.250116 0.397306 0.634222
O O8 0.228673 0.407874 0.739458
O O9 0.000000 0.412076 0.675917
O O10 0.795790 0.500000 0.067620
O O11 0.770149 0.429928 0.152000
O O12 0.000000 0.425959 0.095258
O O13 0.207647 0.782096 0.850944
O O14 0.000000 0.853272 0.884344
O O15 0.164265 0.672961 0.818058
O O16 0.000000 0.582127 0.789948
O O17 0.500000 0.260358 0.715184
O O18 0.250000 0.250000 0.750000
#
# Coordination Sequence:
#
# PCOD8287504 Si02
#       7
#     8   8  16  16  16  16  16
#     4   9  15  24  39  60  90 127 164 201 238 280
#     4   9  18  33  50  69  95 128 164 203 248 300
#     4  10  20  34  52  73  99 132 166 203 251 303
#     4   9  15  22  35  59  92 129 166 199 232 278
#     4  10  20  34  53  76 101 130 166 205 249 297
#     4   9  16  27  43  65  95 129 162 196 239 290
#     4  10  18  29  48  74 100 129 164 201 245 291
#
# _framework density 18.178834999999999
#
# number of rings (size 3 to 8) (size 9 to 14) (size 15 to 20)
#    0.000    2.500    1.667    1.750    0.000    7.333 
#    0.000    0.833    0.000    2.500    0.000    0.000 
#    0.000    0.000    0.000    0.167    0.000   17.917 
#
# Total GULP energy -594893.123321 kJ/mol
# GULP energy per Si atom -12393.606736 kJ/mol
# Density = 1.813746 g / cm^3
# Si number density = 18.178835 Si / 1000 Ang^3
#
#
#
# Elastic Constant Matrix: (Units=GPa)
#
#
# Indices 1 2 3 4 5 6 
#
# 1 26.3400 26.7894 32.0050 0.0000 0.0000 0.0000
# 2 26.7894 110.4424 66.5641 0.0000 0.0000 0.0000
# 3 32.0050 66.5641 160.9667 0.0000 0.0000 0.0000
# 4 0.0000 0.0000 0.0000 31.9267 0.0000 0.0000
# 5 0.0000 0.0000 0.0000 0.0000 18.6679 0.0000
# 6 0.0000 0.0000 0.0000 0.0000 0.0000 19.8913
#
#
#
# Elastic Compliance Matrix: (Units=1/GPa)
#
#
# Indices 1 2 3 4 5 6 
#
# 1 0.056304 -0.009204 -0.007389 0.000000 0.000000 0.000000
# 2 -0.009204 0.013565 -0.003779 0.000000 0.000000 0.000000
# 3 -0.007389 -0.003779 0.009244 0.000000 0.000000 0.000000
# 4 0.000000 0.000000 0.000000 0.031322 0.000000 0.000000
# 5 0.000000 0.000000 0.000000 0.000000 0.053568 0.000000
# 6 0.000000 0.000000 0.000000 0.000000 0.000000 0.050273
#
#
# Mechanical properties :
#
#
# Convention : Reuss Voigt Hill
#
# Bulk Modulus (GPa) = 26.06275 60.94068 43.50171
# Shear Modulus (GPa) = 18.66991 25.58991 22.12991
#
# Velocity S-wave (km/s) = 3.20818 3.75597 3.49283
# Velocity P-wave (km/s) = 5.30012 7.23916 6.34416
#
# Compressibility (1/GPa) = 0.03836894
#
# Stress axis : x y z
#
# Youngs Moduli (GPa) = 17.76066 73.71936 108.17273
#
# Poissons Ratio (x) = 0.67852 0.79927
# Poissons Ratio (y) = 0.16347 0.40883
# Poissons Ratio (z) = 0.13123 0.27862
#
# Static dielectric constant tensor:
#      x y z
#    x 2.633520 0.000000 0.000000 
#    y 0.000000 3.729440 0.000000 
#    z 0.000000 0.000000 3.519190 
# 
# 
# High freq. dielectric constant tensor:
#      x y z
#    x 1.631330 0.000000 0.000000 
#    y 0.000000 1.712560 0.000000 
#    z 0.000000 0.000000 1.714380 
# 
# From -- ./inp_files/52061.got.cif
#   From: 2010.06.25/outbox.cif.g09.slc.cpg/sg71_27_cif.got.tgz:52061.got - 2010.06.28 04:59:45.
