data_PCOD8287337
_publ_section_title
;
Structure prediction by ZEFSAII (Michael W. Deem and Ramdas Pophale) SiO2 
 PCOD8287337
Probable space group: I M M M
;
_chemical_formula_sum "Si O2"
_cell_formula_units_Z 128
_cell_length_a 21.526964
_cell_length_b 27.742617
_cell_length_c 13.779505
_cell_angle_alpha 90.000000
_cell_angle_beta 90.000000
_cell_angle_gamma 90.000000
_cell_volume 8229.317673
_symmetry_space_group_name_H-M "I M M M"
_symmetry_group_IT_number 71
_symmetry_cell_setting 'orthorhombic'
loop_
_space_group_symop_operation_xyz
x,y,z
-x,-y,z
x,-y,-z
-x,y,-z
-x,-y,-z
x,y,-z
-x,y,z
x,-y,z
1/2+x,1/2+y,1/2+z
1/2-x,1/2-y,1/2+z
1/2+x,1/2-y,1/2-z
1/2-x,1/2+y,1/2-z
1/2-x,1/2-y,1/2-z
1/2+x,1/2+y,1/2-z
1/2-x,1/2+y,1/2+z
1/2+x,1/2-y,1/2+z
loop_
_atom_site_type_symbol
_atom_site_label
_atom_site_fract_x
_atom_site_fract_y
_atom_site_fract_z
Si Si1 0.687313 0.555089 0.612125
Si Si2 0.124185 0.205500 0.270242
Si Si3 0.306820 0.181819 0.610090
Si Si4 0.928231 0.127359 0.605912
Si Si5 0.761433 0.143637 0.784837
Si Si6 0.070427 0.945205 0.234625
Si Si7 0.930203 0.731789 0.110147
Si Si8 0.713813 0.767242 0.110618
O O1 0.692238 0.569359 0.500000
O O2 0.708862 0.500000 0.630328
O O3 0.733151 0.589651 0.673545
O O4 0.615289 0.561796 0.642405
O O5 0.080926 0.180668 0.350665
O O6 0.170494 0.164209 0.234342
O O7 0.082300 0.223439 0.181158
O O8 0.158594 0.250540 0.319470
O O9 0.293306 0.164284 0.500000
O O10 0.278653 0.142792 0.684746
O O11 0.380567 0.188784 0.627726
O O12 0.274357 0.233836 0.629723
O O13 0.895173 0.124071 0.500000
O O14 0.901569 0.086399 0.677389
O O15 0.000000 0.117217 0.591987
O O16 0.728610 0.177664 0.864205
O O17 0.000000 0.929320 0.205470
O O18 0.070900 0.000000 0.271082
O O19 0.000000 0.711752 0.127971
O O20 0.922770 0.751074 0.000000
O O21 0.691768 0.763707 0.000000
#
# Coordination Sequence:
#
# PCOD8287337 Si02
#       8
#    16  16  16  16  16  16  16  16
#     4  10  21  35  50  69  92 117 149 192 238 281
#     4  11  18  31  44  67  92 123 157 189 228 267
#     4   9  17  30  46  69  95 120 155 188 225 272
#     4  10  20  32  45  62  86 118 156 197 237 273
#     4  11  18  31  49  67  90 123 153 192 232 266
#     4   9  18  34  51  65  85 115 155 200 240 278
#     4  10  19  30  45  65  95 129 156 186 224 267
#     4  10  18  28  46  68  90 120 158 194 224 268
#
# _framework density 15.554145
#
# number of rings (size 3 to 8) (size 9 to 14) (size 15 to 20)
#    0.000    2.000    3.750    1.875    0.000    1.500 
#    0.000    2.500    0.000    0.375    0.000    0.000 
#    0.000    0.500    0.000    4.500    0.000    0.000 
#
# Total GULP energy -793438.199046 kJ/mol
# GULP energy per Si atom -12397.471860 kJ/mol
# Density = 1.551874 g / cm^3
# Si number density = 15.554145 Si / 1000 Ang^3
#
#
#
# Elastic Constant Matrix: (Units=GPa)
#
#
# Indices 1 2 3 4 5 6 
#
# 1 65.5734 32.1821 42.7251 0.0000 0.0000 0.0000
# 2 32.1821 80.0266 50.1671 0.0000 0.0000 0.0000
# 3 42.7251 50.1671 113.3978 0.0000 0.0000 0.0000
# 4 0.0000 0.0000 0.0000 22.6658 0.0000 0.0000
# 5 0.0000 0.0000 0.0000 0.0000 22.4518 0.0000
# 6 0.0000 0.0000 0.0000 0.0000 0.0000 18.4536
#
#
#
# Elastic Compliance Matrix: (Units=1/GPa)
#
#
# Indices 1 2 3 4 5 6 
#
# 1 0.021540 -0.004946 -0.005927 0.000000 0.000000 0.000000
# 2 -0.004946 0.018427 -0.006289 0.000000 0.000000 0.000000
# 3 -0.005927 -0.006289 0.013834 0.000000 0.000000 0.000000
# 4 0.000000 0.000000 0.000000 0.044119 0.000000 0.000000
# 5 0.000000 0.000000 0.000000 0.000000 0.044540 0.000000
# 6 0.000000 0.000000 0.000000 0.000000 0.000000 0.054190
#
#
# Mechanical properties :
#
#
# Convention : Reuss Voigt Hill
#
# Bulk Modulus (GPa) = 51.34441 56.57182 53.95812
# Shear Modulus (GPa) = 21.05562 21.64245 21.34904
#
# Velocity S-wave (km/s) = 3.68326 3.73423 3.70883
# Velocity P-wave (km/s) = 7.15334 7.41906 7.28741
#
# Compressibility (1/GPa) = 0.01947632
#
# Stress axis : x y z
#
# Youngs Moduli (GPa) = 46.42600 54.26782 72.28678
#
# Poissons Ratio (x) = 0.26843 0.42846
# Poissons Ratio (y) = 0.22964 0.45458
# Poissons Ratio (z) = 0.27518 0.34126
#
# Static dielectric constant tensor:
#      x y z
#    x 2.913520 0.000000 0.000000 
#    y 0.000000 2.750970 0.000000 
#    z 0.000000 0.000000 3.262940 
# 
# 
# High freq. dielectric constant tensor:
#      x y z
#    x 1.576400 0.000000 0.000000 
#    y 0.000000 1.561410 0.000000 
#    z 0.000000 0.000000 1.613620 
# 
# From -- ./inp_files/28028.got.cif
#   From: 2010.06.25/outbox.cif.g09.slc.cpg/sg71_15_cif.got.tgz:28028.got - 2010.06.28 04:59:45.
