data_PCOD8287323
_publ_section_title
;
Structure prediction by ZEFSAII (Michael W. Deem and Ramdas Pophale) SiO2 
 PCOD8287323
Probable space group: I M M M
;
_chemical_formula_sum "Si O2"
_cell_formula_units_Z 88
_cell_length_a 32.753423
_cell_length_b 18.139978
_cell_length_c 9.184034
_cell_angle_alpha 90.000000
_cell_angle_beta 90.000000
_cell_angle_gamma 90.000000
_cell_volume 5456.660487
_symmetry_space_group_name_H-M "I M M M"
_symmetry_group_IT_number 71
_symmetry_cell_setting 'orthorhombic'
loop_
_space_group_symop_operation_xyz
x,y,z
-x,-y,z
x,-y,-z
-x,y,-z
-x,-y,-z
x,y,-z
-x,y,z
x,-y,z
1/2+x,1/2+y,1/2+z
1/2-x,1/2-y,1/2+z
1/2+x,1/2-y,1/2-z
1/2-x,1/2+y,1/2-z
1/2-x,1/2-y,1/2-z
1/2+x,1/2+y,1/2-z
1/2-x,1/2+y,1/2+z
1/2+x,1/2-y,1/2+z
loop_
_atom_site_type_symbol
_atom_site_label
_atom_site_fract_x
_atom_site_fract_y
_atom_site_fract_z
Si Si1 0.454631 0.782245 0.835072
Si Si2 0.307323 0.795998 0.163929
Si Si3 0.000000 0.419209 0.328838
Si Si4 0.879258 0.772908 0.171132
Si Si5 0.261966 0.358870 0.163354
Si Si6 0.334110 0.418462 0.666432
O O1 0.500000 0.745683 0.825882
O O2 0.459772 0.869519 0.790298
O O3 0.425156 0.740316 0.724510
O O4 0.437632 0.775045 0.000000
O O5 0.349632 0.784980 0.249343
O O6 0.282132 0.721037 0.161122
O O7 0.280425 0.857307 0.247275
O O8 0.316648 0.823152 0.000000
O O9 0.000000 0.500000 0.250693
O O10 0.000000 0.431284 0.500000
O O11 0.867133 0.856918 0.213197
O O12 0.876402 0.759034 0.000000
O O13 0.293154 0.415035 0.238556
O O14 0.252702 0.386177 0.000000
O O15 0.320998 0.404278 0.500000
O O16 0.353531 0.500000 0.686988
#
# Coordination Sequence:
#
# PCOD8287323 Si02
#       6
#    16  16   8  16  16  16
#     4   8  16  29  47  70  94 120 148 183 226 275
#     4   9  16  26  42  62  86 115 144 179 225 275
#     4   7  12  26  49  73  92 113 142 172 207 261
#     4  10  18  28  45  68  93 119 153 197 236 272
#     4   9  16  26  41  63  87 110 143 186 230 272
#     4   9  18  31  45  62  87 122 161 197 234 277
#
# _framework density 16.127081
#
# number of rings (size 3 to 8) (size 9 to 14) (size 15 to 20)
#    0.545    2.636    0.000    1.636    0.000    5.818 
#    0.000    0.000    0.000    2.727    0.000    6.364 
#    0.000    0.000    0.000    0.000    0.000    0.000 
#
# Total GULP energy -545163.319605 kJ/mol
# GULP energy per Si atom -12390.075446 kJ/mol
# Density = 1.609037 g / cm^3
# Si number density = 16.127081 Si / 1000 Ang^3
#
#
#
# Elastic Constant Matrix: (Units=GPa)
#
#
# Indices 1 2 3 4 5 6 
#
# 1 88.6488 40.2341 48.4351 0.0000 0.0000 0.0000
# 2 40.2341 70.8375 32.7470 0.0000 0.0000 0.0000
# 3 48.4351 32.7470 97.9393 0.0000 0.0000 0.0000
# 4 0.0000 0.0000 0.0000 15.8804 0.0000 0.0000
# 5 0.0000 0.0000 0.0000 0.0000 32.3433 0.0000
# 6 0.0000 0.0000 0.0000 0.0000 0.0000 14.3865
#
#
#
# Elastic Compliance Matrix: (Units=1/GPa)
#
#
# Indices 1 2 3 4 5 6 
#
# 1 0.018167 -0.007292 -0.006546 0.000000 0.000000 0.000000
# 2 -0.007292 0.019625 -0.002955 0.000000 0.000000 0.000000
# 3 -0.006546 -0.002955 0.014436 0.000000 0.000000 0.000000
# 4 0.000000 0.000000 0.000000 0.062971 0.000000 0.000000
# 5 0.000000 0.000000 0.000000 0.000000 0.030918 0.000000
# 6 0.000000 0.000000 0.000000 0.000000 0.000000 0.069510
#
#
# Mechanical properties :
#
#
# Convention : Reuss Voigt Hill
#
# Bulk Modulus (GPa) = 53.64765 55.58422 54.61594
# Shear Modulus (GPa) = 19.57509 21.58932 20.58221
#
# Velocity S-wave (km/s) = 3.48775 3.66279 3.57634
# Velocity P-wave (km/s) = 7.03967 7.24081 7.14095
#
# Compressibility (1/GPa) = 0.01864014
#
# Stress axis : x y z
#
# Youngs Moduli (GPa) = 55.04611 50.95579 69.27203
#
# Poissons Ratio (x) = 0.37158 0.45345
# Poissons Ratio (y) = 0.40140 0.20473
# Poissons Ratio (z) = 0.36033 0.15060
#
# Static dielectric constant tensor:
#      x y z
#    x 2.834970 0.000000 0.000000 
#    y 0.000000 2.937410 0.000000 
#    z 0.000000 0.000000 3.101490 
# 
# 
# High freq. dielectric constant tensor:
#      x y z
#    x 1.597670 0.000000 0.000000 
#    y 0.000000 1.586820 0.000000 
#    z 0.000000 0.000000 1.624370 
# 
# From -- ./inp_files/16879.got.cif
#   From: 2010.06.25/outbox.cif.g09.slc.cpg/sg71_9_cif.got.tgz:16879.got - 2010.06.28 04:59:45.
