data_PCOD8287449
_publ_section_title
;
Structure prediction by ZEFSAII (Michael W. Deem and Ramdas Pophale) SiO2 
 PCOD8287449
Probable space group: I M M M
;
_chemical_formula_sum "Si O2"
_cell_formula_units_Z 120
_cell_length_a 24.067940
_cell_length_b 22.917464
_cell_length_c 12.364779
_cell_angle_alpha 90.000000
_cell_angle_beta 90.000000
_cell_angle_gamma 90.000000
_cell_volume 6820.117178
_symmetry_space_group_name_H-M "I M M M"
_symmetry_group_IT_number 71
_symmetry_cell_setting 'orthorhombic'
loop_
_space_group_symop_operation_xyz
x,y,z
-x,-y,z
x,-y,-z
-x,y,-z
-x,-y,-z
x,y,-z
-x,y,z
x,-y,z
1/2+x,1/2+y,1/2+z
1/2-x,1/2-y,1/2+z
1/2+x,1/2-y,1/2-z
1/2-x,1/2+y,1/2-z
1/2-x,1/2-y,1/2-z
1/2+x,1/2+y,1/2-z
1/2-x,1/2+y,1/2+z
1/2+x,1/2-y,1/2+z
loop_
_atom_site_type_symbol
_atom_site_label
_atom_site_fract_x
_atom_site_fract_y
_atom_site_fract_z
Si Si1 0.767874 0.931377 0.249096
Si Si2 0.731592 0.680115 0.623753
Si Si3 0.872864 0.108496 0.374501
Si Si4 0.329247 0.118709 0.627449
Si Si5 0.330990 0.230983 0.757919
Si Si6 0.559695 0.064995 0.628357
Si Si7 0.560379 0.500000 0.871019
Si Si8 0.565006 0.729154 0.873823
O O1 0.761102 0.889994 0.143419
O O2 0.814425 0.897019 0.316211
O O3 0.712103 0.928217 0.319854
O O4 0.780382 0.000000 0.222189
O O5 0.713693 0.689041 0.500000
O O6 0.684196 0.706686 0.703726
O O7 0.789397 0.715026 0.643708
O O8 0.859861 0.100658 0.500000
O O9 0.909526 0.056691 0.326455
O O10 0.908600 0.166000 0.353256
O O11 0.323244 0.113518 0.500000
O O12 0.318507 0.184477 0.663778
O O13 0.390731 0.104462 0.672121
O O14 0.394655 0.229030 0.802676
O O15 0.562355 0.062191 0.500000
O O16 0.500000 0.091243 0.665662
O O17 0.566233 0.000000 0.675656
O O18 0.500000 0.500000 0.818758
O O19 0.557538 0.500000 0.000000
O O20 0.500000 0.731574 0.835838
O O21 0.568364 0.746281 0.000000
#
# Coordination Sequence:
#
# PCOD8287449 Si02
#       8
#    16  16  16  16  16  16   8  16
#     4  11  21  33  51  77 105 137 175 215 264 315
#     4  10  21  37  55  74 101 135 175 221 263 310
#     4  10  18  29  46  72 104 134 166 208 260 313
#     4  10  20  31  48  76 107 135 169 216 268 315
#     4  10  20  35  54  78 100 134 174 216 263 319
#     4   8  14  26  43  63  92 131 167 198 242 303
#     4   9  16  26  42  66  97 131 164 200 251 310
#     4  10  20  34  53  77 106 137 170 213 264 315
#
# _framework density 17.595005
#
# number of rings (size 3 to 8) (size 9 to 14) (size 15 to 20)
#    0.000    2.200    2.000    2.400    0.000    3.733 
#    0.000    0.000    0.000    1.200    0.000    0.000 
#    0.000    1.600    0.000   24.800    0.000    0.667 
#
# Total GULP energy -743414.132138 kJ/mol
# GULP energy per Si atom -12390.235536 kJ/mol
# Density = 1.755496 g / cm^3
# Si number density = 17.595005 Si / 1000 Ang^3
#
#
#
# Elastic Constant Matrix: (Units=GPa)
#
#
# Indices 1 2 3 4 5 6 
#
# 1 119.8680 15.0673 29.1146 0.0000 0.0000 0.0000
# 2 15.0673 72.9771 22.9627 0.0000 0.0000 0.0000
# 3 29.1146 22.9627 57.8610 0.0000 0.0000 0.0000
# 4 0.0000 0.0000 0.0000 8.5412 0.0000 0.0000
# 5 0.0000 0.0000 0.0000 0.0000 20.5785 0.0000
# 6 0.0000 0.0000 0.0000 0.0000 0.0000 25.7528
#
#
#
# Elastic Compliance Matrix: (Units=1/GPa)
#
#
# Indices 1 2 3 4 5 6 
#
# 1 0.009522 -0.000524 -0.004583 0.000000 0.000000 0.000000
# 2 -0.000524 0.015687 -0.005962 0.000000 0.000000 0.000000
# 3 -0.004583 -0.005962 0.021955 0.000000 0.000000 0.000000
# 4 0.000000 0.000000 0.000000 0.117080 0.000000 0.000000
# 5 0.000000 0.000000 0.000000 0.000000 0.048594 0.000000
# 6 0.000000 0.000000 0.000000 0.000000 0.000000 0.038831
#
#
# Mechanical properties :
#
#
# Convention : Reuss Voigt Hill
#
# Bulk Modulus (GPa) = 39.95890 42.77726 41.36808
# Shear Modulus (GPa) = 17.72115 23.21193 20.46654
#
# Velocity S-wave (km/s) = 3.17704 3.63607 3.41427
# Velocity P-wave (km/s) = 6.01812 6.48019 6.25343
#
# Compressibility (1/GPa) = 0.02502572
#
# Stress axis : x y z
#
# Youngs Moduli (GPa) = 105.02482 63.74683 45.54755
#
# Poissons Ratio (x) = 0.03339 0.20875
# Poissons Ratio (y) = 0.05501 0.27156
# Poissons Ratio (z) = 0.48135 0.38006
#
# Static dielectric constant tensor:
#      x y z
#    x 3.670140 0.000000 0.000000 
#    y 0.000000 3.251820 0.000000 
#    z 0.000000 0.000000 2.828520 
# 
# 
# High freq. dielectric constant tensor:
#      x y z
#    x 1.692140 0.000000 0.000000 
#    y 0.000000 1.681680 0.000000 
#    z 0.000000 0.000000 1.635480 
# 
# From -- ./inp_files/27724.got.cif
#   From: 2010.06.25/outbox.cif.g09.slc.cpg/sg71_14_cif.got.tgz:27724.got - 2010.06.28 04:59:45.
