data_PCOD8287461
_publ_section_title
;
Structure prediction by ZEFSAII (Michael W. Deem and Ramdas Pophale) SiO2 
 PCOD8287461
Probable space group: I M M M
;
_chemical_formula_sum "Si O2"
_cell_formula_units_Z 120
_cell_length_a 22.648052
_cell_length_b 13.223527
_cell_length_c 24.606395
_cell_angle_alpha 90.000000
_cell_angle_beta 90.000000
_cell_angle_gamma 90.000000
_cell_volume 7369.298547
_symmetry_space_group_name_H-M "I M M M"
_symmetry_group_IT_number 71
_symmetry_cell_setting 'orthorhombic'
loop_
_space_group_symop_operation_xyz
x,y,z
-x,-y,z
x,-y,-z
-x,y,-z
-x,-y,-z
x,y,-z
-x,y,z
x,-y,z
1/2+x,1/2+y,1/2+z
1/2-x,1/2-y,1/2+z
1/2+x,1/2-y,1/2-z
1/2-x,1/2+y,1/2-z
1/2-x,1/2-y,1/2-z
1/2+x,1/2+y,1/2-z
1/2-x,1/2+y,1/2+z
1/2+x,1/2-y,1/2+z
loop_
_atom_site_type_symbol
_atom_site_label
_atom_site_fract_x
_atom_site_fract_y
_atom_site_fract_z
Si Si1 0.754416 0.886290 0.706630
Si Si2 0.068712 0.884762 0.369051
Si Si3 0.331792 0.618310 0.309094
Si Si4 0.229189 0.295662 0.635757
Si Si5 0.645208 0.113181 0.775612
Si Si6 0.068149 0.204539 0.746197
Si Si7 0.128672 0.706434 0.436484
Si Si8 0.066635 0.500000 0.564471
O O1 0.792627 0.845942 0.757615
O O2 0.769714 0.820854 0.654238
O O3 0.685272 0.878217 0.721283
O O4 0.773176 0.000000 0.692526
O O5 0.081320 0.868480 0.304962
O O6 0.103328 0.803666 0.405182
O O7 0.000000 0.868143 0.381353
O O8 0.087726 0.000000 0.383556
O O9 0.337789 0.500000 0.315548
O O10 0.296192 0.659964 0.362086
O O11 0.396487 0.665388 0.299561
O O12 0.185637 0.360996 0.673143
O O13 0.199317 0.300286 0.576081
O O14 0.588022 0.183124 0.770141
O O15 0.621113 0.000000 0.783020
O O16 0.000000 0.205635 0.762581
O O17 0.118384 0.722470 0.500000
O O18 0.098199 0.602824 0.415055
O O19 0.067805 0.500000 0.500000
O O20 0.000000 0.500000 0.587045
#
# Coordination Sequence:
#
# PCOD8287461 Si02
#       8
#    16  16  16  16  16  16  16   8
#     4   9  16  28  50  70  88 118 155 192 229 288
#     4  10  21  36  52  69  95 132 169 203 242 287
#     4  10  18  29  47  69  92 122 156 190 232 284
#     4  11  18  31  49  66  92 121 160 198 243 288
#     4  10  18  30  47  70  94 120 158 195 233 285
#     4  11  20  32  48  71 102 131 160 195 235 286
#     4  11  23  35  51  72  94 121 165 216 251 286
#     4   9  20  38  54  66  88 122 157 201 255 295
#
# _framework density 16.283774000000001
#
# number of rings (size 3 to 8) (size 9 to 14) (size 15 to 20)
#    0.000    1.800    4.000    2.800    1.867    3.733 
#    0.000    0.667    0.000    0.000    0.000    0.000 
#    0.000    0.533    0.000    1.200    0.000    4.267 
#
# Total GULP energy -743782.179981 kJ/mol
# GULP energy per Si atom -12396.369666 kJ/mol
# Density = 1.624671 g / cm^3
# Si number density = 16.283774 Si / 1000 Ang^3
#
#
#
# Elastic Constant Matrix: (Units=GPa)
#
#
# Indices 1 2 3 4 5 6 
#
# 1 97.7937 40.6391 30.2951 0.0000 0.0000 0.0000
# 2 40.6391 106.0932 19.3528 0.0000 0.0000 0.0000
# 3 30.2951 19.3528 28.8159 0.0000 0.0000 0.0000
# 4 0.0000 0.0000 0.0000 12.7605 0.0000 0.0000
# 5 0.0000 0.0000 0.0000 0.0000 20.5165 0.0000
# 6 0.0000 0.0000 0.0000 0.0000 0.0000 24.3091
#
#
#
# Elastic Compliance Matrix: (Units=1/GPa)
#
#
# Indices 1 2 3 4 5 6 
#
# 1 0.016255 -0.003543 -0.014710 0.000000 0.000000 0.000000
# 2 -0.003543 0.011514 -0.004008 0.000000 0.000000 0.000000
# 3 -0.014710 -0.004008 0.052859 0.000000 0.000000 0.000000
# 4 0.000000 0.000000 0.000000 0.078367 0.000000 0.000000
# 5 0.000000 0.000000 0.000000 0.000000 0.048741 0.000000
# 6 0.000000 0.000000 0.000000 0.000000 0.000000 0.041137
#
#
# Mechanical properties :
#
#
# Convention : Reuss Voigt Hill
#
# Bulk Modulus (GPa) = 27.69537 45.91963 36.80750
# Shear Modulus (GPa) = 16.37037 21.01161 18.69099
#
# Velocity S-wave (km/s) = 3.17411 3.59603 3.39164
# Velocity P-wave (km/s) = 5.52071 6.74557 6.16364
#
# Compressibility (1/GPa) = 0.03610712
#
# Stress axis : x y z
#
# Youngs Moduli (GPa) = 61.52001 86.85102 18.91809
#
# Poissons Ratio (x) = 0.30773 0.27828
# Poissons Ratio (y) = 0.21798 0.07582
# Poissons Ratio (z) = 0.90494 0.34807
#
# Static dielectric constant tensor:
#      x y z
#    x 3.200830 0.000000 0.000000 
#    y 0.000000 3.260370 0.000000 
#    z 0.000000 0.000000 2.710670 
# 
# 
# High freq. dielectric constant tensor:
#      x y z
#    x 1.618190 0.000000 0.000000 
#    y 0.000000 1.651380 0.000000 
#    z 0.000000 0.000000 1.561660 
# 
# From -- ./inp_files/66656.got.cif
#   From: 2010.06.25/outbox.cif.g09.slc.cpg/sg71_34_cif.got.tgz:66656.got - 2010.06.28 04:59:45.
