data_PCOD8287840
_publ_section_title
;
Structure prediction by ZEFSAII (Michael W. Deem and Ramdas Pophale) SiO2 
 PCOD8287840
Probable space group: I M M M
;
_chemical_formula_sum "Si O2"
_cell_formula_units_Z 104
_cell_length_a 17.234870
_cell_length_b 28.224865
_cell_length_c 11.702635
_cell_angle_alpha 90.000000
_cell_angle_beta 90.000000
_cell_angle_gamma 90.000000
_cell_volume 5692.768785
_symmetry_space_group_name_H-M "I M M M"
_symmetry_group_IT_number 71
_symmetry_cell_setting 'orthorhombic'
loop_
_space_group_symop_operation_xyz
x,y,z
-x,-y,z
x,-y,-z
-x,y,-z
-x,-y,-z
x,y,-z
-x,y,z
x,-y,z
1/2+x,1/2+y,1/2+z
1/2-x,1/2-y,1/2+z
1/2+x,1/2-y,1/2-z
1/2-x,1/2+y,1/2-z
1/2-x,1/2-y,1/2-z
1/2+x,1/2+y,1/2-z
1/2-x,1/2+y,1/2+z
1/2+x,1/2-y,1/2+z
loop_
_atom_site_type_symbol
_atom_site_label
_atom_site_fract_x
_atom_site_fract_y
_atom_site_fract_z
Si Si1 0.651596 0.605531 0.634663
Si Si2 0.090917 0.849590 0.500000
Si Si3 0.591742 0.782022 0.373858
Si Si4 0.000000 0.947074 0.863751
Si Si5 0.592088 0.691551 0.239575
Si Si6 0.276784 0.945880 0.725872
Si Si7 0.411045 0.887585 0.366348
Si Si8 0.177383 0.947080 0.500000
O O1 0.652157 0.603857 0.500000
O O2 0.577322 0.577277 0.685517
O O3 0.641744 0.659117 0.675471
O O4 0.730986 0.582316 0.676653
O O5 0.119680 0.820275 0.389226
O O6 0.116164 0.904410 0.500000
O O7 0.000000 0.851082 0.500000
O O8 0.623516 0.766850 0.500000
O O9 0.500000 0.785186 0.382728
O O10 0.616144 0.744989 0.274921
O O11 0.621791 0.834542 0.342198
O O12 0.000000 0.000000 0.816098
O O13 0.000000 0.945341 0.000000
O O14 0.500000 0.683320 0.256924
O O15 0.361772 0.923706 0.710034
O O16 0.231092 0.941032 0.608758
O O17 0.286322 0.000000 0.765160
O O18 0.402775 0.899799 0.500000
O O19 0.500000 0.892818 0.327060
O O20 0.138302 0.000000 0.500000
#
# Coordination Sequence:
#
# PCOD8287840 Si02
#       8
#    16   8  16   8  16  16  16   8
#     4  11  21  33  53  78 108 147 188 229 264 309
#     4  10  20  33  50  75 109 154 191 217 253 310
#     4   8  15  29  53  82 107 134 171 221 276 320
#     4   9  18  32  48  71 101 137 185 230 260 288
#     4  10  18  31  52  78 110 145 183 223 263 313
#     4  11  22  36  55  78 110 144 175 220 279 330
#     4   9  18  35  60  87 109 132 173 227 279 334
#     4  10  20  35  51  72 104 147 183 215 269 321
#
# _framework density 18.268791
#
# number of rings (size 3 to 8) (size 9 to 14) (size 15 to 20)
#    0.000    2.231    3.077    1.846    0.000    2.000 
#    0.000    1.538    1.692    0.462    0.000    1.077 
#    0.000    0.000    0.000    0.000    0.000    0.000 
#
# Total GULP energy -644647.142116 kJ/mol
# GULP energy per Si atom -12397.060425 kJ/mol
# Density = 1.822721 g / cm^3
# Si number density = 18.268791 Si / 1000 Ang^3
#
#
#
# Elastic Constant Matrix: (Units=GPa)
#
#
# Indices 1 2 3 4 5 6 
#
# 1 60.7513 28.6200 25.4314 -0.0002 0.0000 0.0000
# 2 28.6200 75.8693 25.5909 -0.0001 -0.0001 0.0000
# 3 25.4314 25.5909 71.2227 -0.0002 -0.0001 -0.0002
# 4 -0.0002 -0.0001 -0.0002 47.8144 0.0004 0.0002
# 5 0.0000 -0.0001 -0.0001 0.0004 21.4539 0.0000
# 6 0.0000 0.0000 -0.0002 0.0002 0.0000 27.2036
#
#
#
# Elastic Compliance Matrix: (Units=1/GPa)
#
#
# Indices 1 2 3 4 5 6 
#
# 1 0.021750 -0.006355 -0.005483 0.000000 0.000000 0.000000
# 2 -0.006355 0.016855 -0.003787 0.000000 0.000000 0.000000
# 3 -0.005483 -0.003787 0.017359 0.000000 0.000000 0.000000
# 4 0.000000 0.000000 0.000000 0.020914 0.000000 0.000000
# 5 0.000000 0.000000 0.000000 0.000000 0.046612 0.000000
# 6 0.000000 0.000000 0.000000 0.000000 0.000000 0.036760
#
#
# Mechanical properties :
#
#
# Convention : Reuss Voigt Hill
#
# Bulk Modulus (GPa) = 40.46283 40.79199 40.62741
# Shear Modulus (GPa) = 25.03290 27.84110 26.43700
#
# Velocity S-wave (km/s) = 3.70571 3.90804 3.80822
# Velocity P-wave (km/s) = 6.36447 6.53766 6.45164
#
# Compressibility (1/GPa) = 0.02471404
#
# Stress axis : x y z
#
# Youngs Moduli (GPa) = 45.97783 59.32847 57.60756
#
# Poissons Ratio (x) = 0.37705 0.31584
# Poissons Ratio (y) = 0.29220 0.21816
# Poissons Ratio (z) = 0.25208 0.22468
#
# Static dielectric constant tensor:
#      x y z
#    x 3.110040 0.000000 0.000000 
#    y 0.000000 3.574360 0.000000 
#    z 0.000000 0.000000 3.370910 
# 
# 
# High freq. dielectric constant tensor:
#      x y z
#    x 1.679070 0.000000 0.000000 
#    y 0.000000 1.715550 0.000000 
#    z 0.000000 0.000000 1.691500 
# 
# From -- ./inp_files/24590.got.cif
#   From: 2010.06.25/outbox.cif.g09.slc.cpg/sg71_13_cif.got.tgz:24590.got - 2010.06.28 04:59:45.
