data_PCOD8287217
_publ_section_title
;
Structure prediction by ZEFSAII (Michael W. Deem and Ramdas Pophale) SiO2 
 PCOD8287217
Probable space group: I M M M
;
_chemical_formula_sum "Si O2"
_cell_formula_units_Z 96
_cell_length_a 14.012779
_cell_length_b 22.643941
_cell_length_c 22.194639
_cell_angle_alpha 90.000000
_cell_angle_beta 90.000000
_cell_angle_gamma 90.000000
_cell_volume 7042.459739
_symmetry_space_group_name_H-M "I M M M"
_symmetry_group_IT_number 71
_symmetry_cell_setting 'orthorhombic'
loop_
_space_group_symop_operation_xyz
x,y,z
-x,-y,z
x,-y,-z
-x,y,-z
-x,-y,-z
x,y,-z
-x,y,z
x,-y,z
1/2+x,1/2+y,1/2+z
1/2-x,1/2-y,1/2+z
1/2+x,1/2-y,1/2-z
1/2-x,1/2+y,1/2-z
1/2-x,1/2-y,1/2-z
1/2+x,1/2+y,1/2-z
1/2-x,1/2+y,1/2+z
1/2+x,1/2-y,1/2+z
loop_
_atom_site_type_symbol
_atom_site_label
_atom_site_fract_x
_atom_site_fract_y
_atom_site_fract_z
Si Si1 0.613475 0.279032 0.066895
Si Si2 0.609514 0.146683 0.070651
Si Si3 0.390657 0.430989 0.269154
Si Si4 0.613497 0.388304 0.141440
Si Si5 0.106439 0.070111 0.000000
Si Si6 0.773164 0.930351 0.113814
Si Si7 0.113879 0.000000 0.431920
O O1 0.500000 0.281124 0.065059
O O2 0.645286 0.213118 0.085427
O O3 0.653882 0.326738 0.114569
O O4 0.652306 0.294533 0.000000
O O5 0.500000 0.138014 0.090173
O O6 0.671345 0.101572 0.110147
O O7 0.621601 0.132983 0.000000
O O8 0.500000 0.415621 0.285659
O O9 0.381677 0.500000 0.254089
O O10 0.354436 0.394842 0.210830
O O11 0.324389 0.412188 0.324448
O O12 0.500000 0.389954 0.138173
O O13 0.654334 0.442148 0.101698
O O14 0.161027 0.092526 0.059200
O O15 0.000000 0.097128 0.000000
O O16 0.100408 0.000000 0.000000
O O17 0.755751 0.000000 0.109806
O O18 0.152777 0.000000 0.500000
O O19 0.000000 0.000000 0.431146
#
# Coordination Sequence:
#
# PCOD8287217 Si02
#       7
#    16  16  16  16   8  16   8
#     4   8  14  24  38  54  74 102 130 157 191 228
#     4   9  17  29  42  56  75  98 128 167 205 236
#     4   9  16  26  38  54  79 109 132 153 185 231
#     4   9  14  22  35  53  77 104 133 155 182 223
#     4   9  16  26  39  57  77  95 120 159 197 230
#     4  10  18  27  40  57  75  98 131 165 201 233
#     4   9  14  18  30  54  80 101 128 161 182 213
#
# _framework density 13.631601
#
# number of rings (size 3 to 8) (size 9 to 14) (size 15 to 20)
#    0.000    3.000    1.667    2.000    0.000    4.333 
#    0.000    1.667    0.000    0.000    0.000    0.000 
#    0.000    0.000    0.000    0.000    0.000    1.833 
#
# Total GULP energy -595001.914128 kJ/mol
# GULP energy per Si atom -12395.873211 kJ/mol
# Density = 1.360057 g / cm^3
# Si number density = 13.631601 Si / 1000 Ang^3
#
#
#
# Elastic Constant Matrix: (Units=GPa)
#
#
# Indices 1 2 3 4 5 6 
#
# 1 48.4773 32.4199 38.6685 0.0000 0.0000 0.0000
# 2 32.4199 66.4896 51.5690 0.0000 0.0000 0.0000
# 3 38.6685 51.5690 109.6592 0.0000 0.0000 0.0000
# 4 0.0000 0.0000 0.0000 18.9175 0.0000 0.0000
# 5 0.0000 0.0000 0.0000 0.0000 8.4503 0.0000
# 6 0.0000 0.0000 0.0000 0.0000 0.0000 9.0910
#
#
#
# Elastic Compliance Matrix: (Units=1/GPa)
#
#
# Indices 1 2 3 4 5 6 
#
# 1 0.033284 -0.011218 -0.006462 0.000000 0.000000 0.000000
# 2 -0.011218 0.027456 -0.008956 0.000000 0.000000 0.000000
# 3 -0.006462 -0.008956 0.015609 0.000000 0.000000 0.000000
# 4 0.000000 0.000000 0.000000 0.052861 0.000000 0.000000
# 5 0.000000 0.000000 0.000000 0.000000 0.118339 0.000000
# 6 0.000000 0.000000 0.000000 0.000000 0.000000 0.109999
#
#
# Mechanical properties :
#
#
# Convention : Reuss Voigt Hill
#
# Bulk Modulus (GPa) = 43.32917 52.21565 47.77241
# Shear Modulus (GPa) = 11.94708 14.08966 13.01837
#
# Velocity S-wave (km/s) = 2.96366 3.21846 3.09368
# Velocity P-wave (km/s) = 6.60045 7.22491 6.91972
#
# Compressibility (1/GPa) = 0.02307914
#
# Stress axis : x y z
#
# Youngs Moduli (GPa) = 30.04418 36.42217 64.06424
#
# Poissons Ratio (x) = 0.40857 0.41395
# Poissons Ratio (y) = 0.33703 0.57375
# Poissons Ratio (z) = 0.19413 0.32619
#
# Static dielectric constant tensor:
#      x y z
#    x 2.333530 0.000000 0.000000 
#    y 0.000000 2.734960 0.000000 
#    z 0.000000 0.000000 2.796820 
# 
# 
# High freq. dielectric constant tensor:
#      x y z
#    x 1.466960 0.000000 0.000000 
#    y 0.000000 1.509870 0.000000 
#    z 0.000000 0.000000 1.521070 
# 
# From -- ./inp_files/52306.got.cif
#   From: 2010.06.25/outbox.cif.g09.slc.cpg/sg71_27_cif.got.tgz:52306.got - 2010.06.28 04:59:45.
