data_PCOD8287709
_publ_section_title
;
Structure prediction by ZEFSAII (Michael W. Deem and Ramdas Pophale) SiO2 
 PCOD8287709
Probable space group: I M M M
;
_chemical_formula_sum "Si O2"
_cell_formula_units_Z 104
_cell_length_a 9.162317
_cell_length_b 29.003426
_cell_length_c 20.722412
_cell_angle_alpha 90.000000
_cell_angle_beta 90.000000
_cell_angle_gamma 90.000000
_cell_volume 5506.744403
_symmetry_space_group_name_H-M "I M M M"
_symmetry_group_IT_number 71
_symmetry_cell_setting 'orthorhombic'
loop_
_space_group_symop_operation_xyz
x,y,z
-x,-y,z
x,-y,-z
-x,y,-z
-x,-y,-z
x,y,-z
-x,y,z
x,-y,z
1/2+x,1/2+y,1/2+z
1/2-x,1/2-y,1/2+z
1/2+x,1/2-y,1/2-z
1/2-x,1/2+y,1/2-z
1/2-x,1/2-y,1/2-z
1/2+x,1/2+y,1/2-z
1/2-x,1/2+y,1/2+z
1/2+x,1/2-y,1/2+z
loop_
_atom_site_type_symbol
_atom_site_label
_atom_site_fract_x
_atom_site_fract_y
_atom_site_fract_z
Si Si1 0.671621 0.552011 0.617624
Si Si2 0.829207 0.293193 0.677124
Si Si3 0.827047 0.946947 0.500000
Si Si4 0.170952 0.698154 0.175927
Si Si5 0.826824 0.949415 0.738092
Si Si6 0.666439 0.864498 0.928749
Si Si7 0.326193 0.387250 0.876946
O O1 0.500000 0.557669 0.610681
O O2 0.718154 0.500000 0.599508
O O3 0.723898 0.564239 0.690259
O O4 0.748069 0.587387 0.569948
O O5 0.798293 0.313277 0.748643
O O6 0.736418 0.248063 0.661755
O O7 0.771233 0.330035 0.625134
O O8 0.000000 0.281522 0.668268
O O9 0.773952 0.917768 0.437900
O O10 0.000000 0.950539 0.500000
O O11 0.764856 0.000000 0.500000
O O12 0.248781 0.662384 0.127061
O O13 0.000000 0.698371 0.160464
O O14 0.767434 0.913294 0.686501
O O15 0.000000 0.951089 0.735023
O O16 0.765407 0.000000 0.720242
O O17 0.500000 0.875783 0.912246
O O18 0.682678 0.842168 0.000000
O O19 0.500000 0.380062 0.878231
#
# Coordination Sequence:
#
# PCOD8287709 Si02
#       7
#    16  16   8  16  16  16  16
#     4   9  18  32  50  74 103 134 169 208 248 293
#     4   9  19  37  57  77 102 132 168 211 258 309
#     4   9  18  32  51  77 107 141 185 227 260 307
#     4  10  20  34  55  80 104 130 164 211 263 311
#     4   8  14  26  47  74 100 128 167 213 254 291
#     4  10  21  36  53  74 100 132 167 204 248 295
#     4  10  18  30  51  77 103 136 174 215 261 307
#
# _framework density 18.885932
#
# number of rings (size 3 to 8) (size 9 to 14) (size 15 to 20)
#    0.000    2.692    0.000    2.769    0.000    4.000 
#    1.385    1.923    0.000    3.231    0.000    0.000 
#    0.000    0.000    0.000    0.000    0.000    0.000 
#
# Total GULP energy -644612.749466 kJ/mol
# GULP energy per Si atom -12396.399028 kJ/mol
# Density = 1.884295 g / cm^3
# Si number density = 18.885932 Si / 1000 Ang^3
#
#
#
# Elastic Constant Matrix: (Units=GPa)
#
#
# Indices 1 2 3 4 5 6 
#
# 1 44.4663 44.8956 28.9344 0.0000 0.0000 0.0000
# 2 44.8956 125.4637 65.0538 0.0000 0.0000 0.0000
# 3 28.9344 65.0538 89.4190 0.0000 0.0000 0.0000
# 4 0.0000 0.0000 0.0000 31.2525 0.0000 0.0000
# 5 0.0000 0.0000 0.0000 0.0000 19.5471 0.0000
# 6 0.0000 0.0000 0.0000 0.0000 0.0000 26.0583
#
#
#
# Elastic Compliance Matrix: (Units=1/GPa)
#
#
# Indices 1 2 3 4 5 6 
#
# 1 0.035937 -0.010967 -0.003650 0.000000 0.000000 0.000000
# 2 -0.010967 0.016145 -0.008197 0.000000 0.000000 0.000000
# 3 -0.003650 -0.008197 0.018328 0.000000 0.000000 0.000000
# 4 0.000000 0.000000 0.000000 0.031997 0.000000 0.000000
# 5 0.000000 0.000000 0.000000 0.000000 0.051159 0.000000
# 6 0.000000 0.000000 0.000000 0.000000 0.000000 0.038375
#
#
# Mechanical properties :
#
#
# Convention : Reuss Voigt Hill
#
# Bulk Modulus (GPa) = 40.35205 59.67962 50.01584
# Shear Modulus (GPa) = 20.33926 23.40259 21.87092
#
# Velocity S-wave (km/s) = 3.28526 3.52398 3.40671
# Velocity P-wave (km/s) = 5.98357 6.94454 6.48189
#
# Compressibility (1/GPa) = 0.02478189
#
# Stress axis : x y z
#
# Youngs Moduli (GPa) = 27.82652 61.93817 54.56192
#
# Poissons Ratio (x) = 0.67929 0.19914
# Poissons Ratio (y) = 0.30518 0.44725
# Poissons Ratio (z) = 0.10156 0.50771
#
# Static dielectric constant tensor:
#      x y z
#    x 3.087930 0.000000 0.000000 
#    y 0.000000 3.515860 0.000000 
#    z 0.000000 0.000000 3.552850 
# 
# 
# High freq. dielectric constant tensor:
#      x y z
#    x 1.700450 0.000000 0.000000 
#    y 0.000000 1.737820 0.000000 
#    z 0.000000 0.000000 1.732180 
# 
# From -- ./inp_files/16943.got.cif
#   From: 2010.06.25/outbox.cif.g09.slc.cpg/sg71_9_cif.got.tgz:16943.got - 2010.06.28 04:59:45.
