data_PCOD8287121
_publ_section_title
;
Structure prediction by ZEFSAII (Michael W. Deem and Ramdas Pophale) SiO2 
 PCOD8287121
Probable space group: I M M M
;
_chemical_formula_sum "Si O2"
_cell_formula_units_Z 72
_cell_length_a 7.690171
_cell_length_b 23.151420
_cell_length_c 21.767253
_cell_angle_alpha 90.000000
_cell_angle_beta 90.000000
_cell_angle_gamma 90.000000
_cell_volume 3875.406433
_symmetry_space_group_name_H-M "I M M M"
_symmetry_group_IT_number 71
_symmetry_cell_setting 'orthorhombic'
loop_
_space_group_symop_operation_xyz
x,y,z
-x,-y,z
x,-y,-z
-x,y,-z
-x,-y,-z
x,y,-z
-x,y,z
x,-y,z
1/2+x,1/2+y,1/2+z
1/2-x,1/2-y,1/2+z
1/2+x,1/2-y,1/2-z
1/2-x,1/2+y,1/2-z
1/2-x,1/2-y,1/2-z
1/2+x,1/2+y,1/2-z
1/2-x,1/2+y,1/2+z
1/2+x,1/2-y,1/2+z
loop_
_atom_site_type_symbol
_atom_site_label
_atom_site_fract_x
_atom_site_fract_y
_atom_site_fract_z
Si Si1 0.000000 0.432604 0.672096
Si Si2 0.206980 0.434590 0.000000
Si Si3 0.000000 0.660593 0.428501
Si Si4 0.303169 0.253195 0.429093
Si Si5 0.297408 0.129500 0.619679
Si Si6 0.694061 0.434424 0.761842
O O1 0.170548 0.414294 0.710213
O O2 0.000000 0.500000 0.655754
O O3 0.000000 0.398857 0.608244
O O4 0.280766 0.403289 0.060528
O O5 0.273906 0.500000 0.000000
O O6 0.000000 0.430193 0.000000
O O7 0.828503 0.696477 0.410246
O O8 0.000000 0.644546 0.500000
O O9 0.277325 0.234830 0.500000
O O10 0.500000 0.275301 0.418048
O O11 0.263469 0.197649 0.387298
O O12 0.500000 0.115352 0.626794
O O13 0.200499 0.107451 0.679870
O O14 0.500000 0.430849 0.733816
O O15 0.738827 0.500000 0.782678
#
# Coordination Sequence:
#
# PCOD8287121 Si02
#       6
#     8   8   8  16  16  16
#     4  10  22  43  64  83 112 142 175 229 291 349
#     4   9  16  24  43  77 111 148 199 246 275 307
#     4  10  22  39  64  92 109 135 180 226 288 354
#     4   9  18  34  55  81 115 153 185 225 276 328
#     4  10  17  30  52  77 112 157 198 235 275 316
#     4  10  21  36  56  80 111 154 195 230 277 331
#
# _framework density 18.578696999999998
#
# number of rings (size 3 to 8) (size 9 to 14) (size 15 to 20)
#    0.000    2.333    2.222    0.667    1.556    2.000 
#    0.000    1.667    0.000    2.000    0.000    6.222 
#    0.000    0.000    0.000    0.000    0.000    0.000 
#
# Total GULP energy -446460.378327 kJ/mol
# GULP energy per Si atom -12401.677176 kJ/mol
# Density = 1.853641 g / cm^3
# Si number density = 18.578697 Si / 1000 Ang^3
#
#
#
# Elastic Constant Matrix: (Units=GPa)
#
#
# Indices 1 2 3 4 5 6 
#
# 1 106.6382 47.6046 45.8205 0.0000 0.0000 0.0000
# 2 47.6046 89.3470 60.9320 0.0000 0.0000 0.0000
# 3 45.8205 60.9320 91.1855 0.0000 0.0000 0.0000
# 4 0.0000 0.0000 0.0000 33.8200 0.0000 0.0000
# 5 0.0000 0.0000 0.0000 0.0000 8.7150 0.0000
# 6 0.0000 0.0000 0.0000 0.0000 0.0000 19.2848
#
#
#
# Elastic Compliance Matrix: (Units=1/GPa)
#
#
# Indices 1 2 3 4 5 6 
#
# 1 0.012873 -0.004497 -0.003464 0.000000 0.000000 0.000000
# 2 -0.004497 0.022134 -0.012531 0.000000 0.000000 0.000000
# 3 -0.003464 -0.012531 0.021081 0.000000 0.000000 0.000000
# 4 0.000000 0.000000 0.000000 0.029568 0.000000 0.000000
# 5 0.000000 0.000000 0.000000 0.000000 0.114745 0.000000
# 6 0.000000 0.000000 0.000000 0.000000 0.000000 0.051854
#
#
# Mechanical properties :
#
#
# Convention : Reuss Voigt Hill
#
# Bulk Modulus (GPa) = 66.20359 66.20941 66.20650
# Shear Modulus (GPa) = 16.76318 21.21819 18.99069
#
# Velocity S-wave (km/s) = 3.00706 3.38312 3.20062
# Velocity P-wave (km/s) = 6.91144 7.13970 7.02650
#
# Compressibility (1/GPa) = 0.01510492
#
# Stress axis : x y z
#
# Youngs Moduli (GPa) = 77.68035 45.18014 47.43695
#
# Poissons Ratio (x) = 0.20315 0.16433
# Poissons Ratio (y) = 0.34929 0.59442
# Poissons Ratio (z) = 0.26909 0.56614
#
# Static dielectric constant tensor:
#      x y z
#    x 3.500540 0.000000 0.000000 
#    y 0.000000 3.182620 0.000000 
#    z 0.000000 0.000000 3.106870 
# 
# 
# High freq. dielectric constant tensor:
#      x y z
#    x 1.726720 0.000000 0.000000 
#    y 0.000000 1.705910 0.000000 
#    z 0.000000 0.000000 1.694710 
# 
# From -- ./inp_files/50247.got.cif
#   From: 2010.06.25/outbox.cif.g09.slc.cpg/sg71_26_cif.got.tgz:50247.got - 2010.06.28 04:59:45.
