data_PCOD8287164
_publ_section_title
;
Structure prediction by ZEFSAII (Michael W. Deem and Ramdas Pophale) SiO2 
 PCOD8287164
Probable space group: I M M M
;
_chemical_formula_sum "Si O2"
_cell_formula_units_Z 104
_cell_length_a 16.759531
_cell_length_b 14.145512
_cell_length_c 29.809541
_cell_angle_alpha 90.000000
_cell_angle_beta 90.000000
_cell_angle_gamma 90.000000
_cell_volume 7067.011882
_symmetry_space_group_name_H-M "I M M M"
_symmetry_group_IT_number 71
_symmetry_cell_setting 'orthorhombic'
loop_
_space_group_symop_operation_xyz
x,y,z
-x,-y,z
x,-y,-z
-x,y,-z
-x,-y,-z
x,y,-z
-x,y,z
x,-y,z
1/2+x,1/2+y,1/2+z
1/2-x,1/2-y,1/2+z
1/2+x,1/2-y,1/2-z
1/2-x,1/2+y,1/2-z
1/2-x,1/2-y,1/2-z
1/2+x,1/2+y,1/2-z
1/2-x,1/2+y,1/2+z
1/2+x,1/2-y,1/2+z
loop_
_atom_site_type_symbol
_atom_site_label
_atom_site_fract_x
_atom_site_fract_y
_atom_site_fract_z
Si Si1 0.594837 0.798358 0.909162
Si Si2 0.190298 0.770101 0.210686
Si Si3 0.093127 0.607925 0.767251
Si Si4 0.679338 0.890413 0.826881
Si Si5 0.593814 0.603529 0.771617
Si Si6 0.405281 0.394842 0.129136
Si Si7 0.905070 0.392841 0.500000
O O1 0.500000 0.805203 0.906351
O O2 0.628494 0.864618 0.870249
O O3 0.623395 0.688532 0.904276
O O4 0.627152 0.837342 0.956449
O O5 0.250000 0.750000 0.250000
O O6 0.144973 0.671956 0.197423
O O7 0.239719 0.825655 0.172397
O O8 0.119843 0.833179 0.230563
O O9 0.106624 0.500000 0.781605
O O10 0.124834 0.627788 0.716934
O O11 0.000000 0.635103 0.768784
O O12 0.704824 0.000000 0.829293
O O13 0.500000 0.601118 0.772518
O O14 0.629709 0.500000 0.762838
O O15 0.624630 0.636220 0.821008
O O16 0.500000 0.401259 0.128927
O O17 0.371798 0.500000 0.115931
O O18 0.871865 0.500000 0.500000
O O19 0.000000 0.394232 0.500000
#
# Coordination Sequence:
#
# PCOD8287164 Si02
#       7
#    16  16  16  16  16  16   8
#     4  10  18  29  44  59  76 101 133 168 206 241
#     4  10  18  26  36  53  78 105 131 163 201 234
#     4   9  17  28  41  57  77 105 141 173 199 230
#     4  10  19  28  39  57  80 105 134 169 205 240
#     4   9  16  26  40  55  73 102 137 166 189 219
#     4   8  14  24  38  56  75  96 126 160 190 224
#     4   9  18  30  43  59  75  93 125 170 212 246
#
# _framework density 14.716263
#
# number of rings (size 3 to 8) (size 9 to 14) (size 15 to 20)
#    0.000    2.692    0.000    4.615    0.000    3.385 
#    0.000    1.154    0.000    2.308    0.000    0.000 
#    0.000    0.000    0.000    2.769    0.000   22.154 
#
# Total GULP energy -644199.656069 kJ/mol
# GULP energy per Si atom -12388.454924 kJ/mol
# Density = 1.468277 g / cm^3
# Si number density = 14.716263 Si / 1000 Ang^3
#
#
#
# Elastic Constant Matrix: (Units=GPa)
#
#
# Indices 1 2 3 4 5 6 
#
# 1 42.3744 34.4874 12.0626 0.0000 0.0000 0.0000
# 2 34.4874 94.4857 29.9874 0.0000 0.0000 0.0000
# 3 12.0626 29.9874 44.1645 0.0000 0.0000 0.0000
# 4 0.0000 0.0000 0.0000 17.3116 0.0000 0.0000
# 5 0.0000 0.0000 0.0000 0.0000 11.9265 0.0000
# 6 0.0000 0.0000 0.0000 0.0000 0.0000 22.2099
#
#
#
# Elastic Compliance Matrix: (Units=1/GPa)
#
#
# Indices 1 2 3 4 5 6 
#
# 1 0.033613 -0.011925 -0.001084 0.000000 0.000000 0.000000
# 2 -0.011925 0.017721 -0.008776 0.000000 0.000000 0.000000
# 3 -0.001084 -0.008776 0.028897 0.000000 0.000000 0.000000
# 4 0.000000 0.000000 0.000000 0.057765 0.000000 0.000000
# 5 0.000000 0.000000 0.000000 0.000000 0.083847 0.000000
# 6 0.000000 0.000000 0.000000 0.000000 0.000000 0.045025
#
#
# Mechanical properties :
#
#
# Convention : Reuss Voigt Hill
#
# Bulk Modulus (GPa) = 27.27543 37.12215 32.19879
# Shear Modulus (GPa) = 15.49628 17.25541 16.37584
#
# Velocity S-wave (km/s) = 3.24852 3.42795 3.33944
# Velocity P-wave (km/s) = 5.71358 6.39905 6.06600
#
# Compressibility (1/GPa) = 0.03666303
#
# Stress axis : x y z
#
# Youngs Moduli (GPa) = 29.75044 56.42903 34.60532
#
# Poissons Ratio (x) = 0.67290 0.03750
# Poissons Ratio (y) = 0.35477 0.30369
# Poissons Ratio (z) = 0.03224 0.49520
#
# Static dielectric constant tensor:
#      x y z
#    x 2.767310 0.000000 0.000000 
#    y 0.000000 3.275330 0.000000 
#    z 0.000000 0.000000 2.538610 
# 
# 
# High freq. dielectric constant tensor:
#      x y z
#    x 1.531490 0.000000 0.000000 
#    y 0.000000 1.593190 0.000000 
#    z 0.000000 0.000000 1.505390 
# 
# From -- ./inp_files/40471.got.cif
#   From: 2010.06.25/outbox.cif.g09.slc.cpg/sg71_21_cif.got.tgz:40471.got - 2010.06.28 04:59:45.
