data_PCOD8287621
_publ_section_title
;
Structure prediction by ZEFSAII (Michael W. Deem and Ramdas Pophale) SiO2 
 PCOD8287621
Probable space group: I M M M
;
_chemical_formula_sum "Si O2"
_cell_formula_units_Z 88
_cell_length_a 17.062200
_cell_length_b 9.467083
_cell_length_c 28.514898
_cell_angle_alpha 90.000000
_cell_angle_beta 90.000000
_cell_angle_gamma 90.000000
_cell_volume 4605.990475
_symmetry_space_group_name_H-M "I M M M"
_symmetry_group_IT_number 71
_symmetry_cell_setting 'orthorhombic'
loop_
_space_group_symop_operation_xyz
x,y,z
-x,-y,z
x,-y,-z
-x,y,-z
-x,-y,-z
x,y,-z
-x,y,z
x,-y,z
1/2+x,1/2+y,1/2+z
1/2-x,1/2-y,1/2+z
1/2+x,1/2-y,1/2-z
1/2-x,1/2+y,1/2-z
1/2-x,1/2-y,1/2-z
1/2+x,1/2+y,1/2-z
1/2-x,1/2+y,1/2+z
1/2+x,1/2-y,1/2+z
loop_
_atom_site_type_symbol
_atom_site_label
_atom_site_fract_x
_atom_site_fract_y
_atom_site_fract_z
Si Si1 0.811319 0.832351 0.052496
Si Si2 0.154883 0.332896 0.396566
Si Si3 0.087963 0.168336 0.138503
Si Si4 0.820172 0.839580 0.771421
Si Si5 0.000000 0.332379 0.551612
Si Si6 0.911657 0.159933 0.680784
O O1 0.728448 0.780170 0.073182
O O2 0.879587 0.780989 0.087785
O O3 0.810567 0.000000 0.049339
O O4 0.824291 0.769411 0.000000
O O5 0.157640 0.500000 0.388451
O O6 0.151933 0.257483 0.346033
O O7 0.077417 0.278737 0.422730
O O8 0.146495 0.223218 0.179432
O O9 0.000000 0.229578 0.144533
O O10 0.085890 0.000000 0.141142
O O11 0.750000 0.750000 0.750000
O O12 0.892904 0.834966 0.735773
O O13 0.790177 0.000000 0.778715
O O14 0.000000 0.500000 0.549095
O O15 0.000000 0.266175 0.500000
O O16 0.000000 0.217792 0.673694
O O17 0.904568 0.000000 0.661948
#
# Coordination Sequence:
#
# PCOD8287621 Si02
#       6
#    16  16  16  16   8  16
#     4   9  17  28  45  71  99 126 161 209 257 297
#     4  10  18  30  48  72 100 131 169 209 248 294
#     4   9  17  30  48  70  98 132 168 203 244 299
#     4  10  20  34  52  75 101 131 165 202 247 297
#     4   9  16  26  43  67  95 129 167 207 250 293
#     4  10  20  33  49  70 100 135 167 201 243 293
#
# _framework density 19.105553
#
# number of rings (size 3 to 8) (size 9 to 14) (size 15 to 20)
#    0.000    2.455    0.909    2.182    0.000    6.909 
#    0.000    1.818    0.000    4.364    0.000    0.000 
#    0.000    0.000    0.000    7.636    0.000    7.273 
#
# Total GULP energy -545445.629699 kJ/mol
# GULP energy per Si atom -12396.491584 kJ/mol
# Density = 1.906207 g / cm^3
# Si number density = 19.105553 Si / 1000 Ang^3
#
#
#
# Elastic Constant Matrix: (Units=GPa)
#
#
# Indices 1 2 3 4 5 6 
#
# 1 131.1495 22.7649 61.2451 0.0000 0.0000 0.0000
# 2 22.7649 28.3506 24.3729 0.0000 0.0000 0.0000
# 3 61.2451 24.3729 148.5372 0.0000 0.0000 0.0000
# 4 0.0000 0.0000 0.0000 19.3214 0.0000 0.0000
# 5 0.0000 0.0000 0.0000 0.0000 30.7444 0.0000
# 6 0.0000 0.0000 0.0000 0.0000 0.0000 16.3743
#
#
#
# Elastic Compliance Matrix: (Units=1/GPa)
#
#
# Indices 1 2 3 4 5 6 
#
# 1 0.010075 -0.005261 -0.003291 0.000000 0.000000 0.000000
# 2 -0.005261 0.043813 -0.005020 0.000000 0.000000 0.000000
# 3 -0.003291 -0.005020 0.008913 0.000000 0.000000 0.000000
# 4 0.000000 0.000000 0.000000 0.051756 0.000000 0.000000
# 5 0.000000 0.000000 0.000000 0.000000 0.032526 0.000000
# 6 0.000000 0.000000 0.000000 0.000000 0.000000 0.061071
#
#
# Mechanical properties :
#
#
# Convention : Reuss Voigt Hill
#
# Bulk Modulus (GPa) = 28.04478 58.31145 43.17811
# Shear Modulus (GPa) = 20.22796 26.59832 23.41314
#
# Velocity S-wave (km/s) = 3.25737 3.73524 3.50446
# Velocity P-wave (km/s) = 5.37197 7.01353 6.24690
#
# Compressibility (1/GPa) = 0.03565726
#
# Stress axis : x y z
#
# Youngs Moduli (GPa) = 99.25726 22.82451 112.19685
#
# Poissons Ratio (x) = 0.12007 0.36922
# Poissons Ratio (y) = 0.52217 0.56322
# Poissons Ratio (z) = 0.32664 0.11458
#
# Static dielectric constant tensor:
#      x y z
#    x 3.575740 0.000000 0.000000 
#    y 0.000000 2.915000 0.000000 
#    z 0.000000 0.000000 3.808940 
# 
# 
# High freq. dielectric constant tensor:
#      x y z
#    x 1.750670 0.000000 0.000000 
#    y 0.000000 1.673890 0.000000 
#    z 0.000000 0.000000 1.759100 
# 
# From -- ./inp_files/32999.got.cif
#   From: 2010.06.25/outbox.cif.g09.slc.cpg/sg71_17_cif.got.tgz:32999.got - 2010.06.28 04:59:45.
