data_PCOD8287694
_publ_section_title
;
Structure prediction by ZEFSAII (Michael W. Deem and Ramdas Pophale) SiO2 
 PCOD8287694
Probable space group: I M M M
;
_chemical_formula_sum "Si O2"
_cell_formula_units_Z 80
_cell_length_a 11.817445
_cell_length_b 23.297106
_cell_length_c 16.919520
_cell_angle_alpha 90.000000
_cell_angle_beta 90.000000
_cell_angle_gamma 90.000000
_cell_volume 4658.151438
_symmetry_space_group_name_H-M "I M M M"
_symmetry_group_IT_number 71
_symmetry_cell_setting 'orthorhombic'
loop_
_space_group_symop_operation_xyz
x,y,z
-x,-y,z
x,-y,-z
-x,y,-z
-x,-y,-z
x,y,-z
-x,y,z
x,-y,z
1/2+x,1/2+y,1/2+z
1/2-x,1/2-y,1/2+z
1/2+x,1/2-y,1/2-z
1/2-x,1/2+y,1/2-z
1/2-x,1/2-y,1/2-z
1/2+x,1/2+y,1/2-z
1/2-x,1/2+y,1/2+z
1/2+x,1/2-y,1/2+z
loop_
_atom_site_type_symbol
_atom_site_label
_atom_site_fract_x
_atom_site_fract_y
_atom_site_fract_z
Si Si1 0.500000 0.625126 0.411209
Si Si2 0.631130 0.066282 0.210477
Si Si3 0.369084 0.237752 0.000000
Si Si4 0.000000 0.065880 0.754898
Si Si5 0.247183 0.851886 0.913425
Si Si6 0.706163 0.433351 0.154577
Si Si7 0.366454 0.372521 0.000000
O O1 0.500000 0.599823 0.500000
O O2 0.500000 0.573308 0.348959
O O3 0.385519 0.661740 0.395141
O O4 0.500000 0.082501 0.208052
O O5 0.698196 0.106679 0.150606
O O6 0.674879 0.076064 0.300149
O O7 0.652573 0.000000 0.185884
O O8 0.312595 0.209353 0.079092
O O9 0.348574 0.304911 0.000000
O O10 0.500000 0.221803 0.000000
O O11 0.888870 0.092016 0.713919
O O12 0.000000 0.000000 0.735712
O O13 0.256060 0.882721 0.000000
O O14 0.687613 0.500000 0.133228
O O15 0.699665 0.397371 0.074832
O O16 0.500000 0.389411 0.000000
#
# Coordination Sequence:
#
# PCOD8287694 Si02
#       7
#     8  16   8   8  16  16   8
#     4  10  18  31  53  79 110 152 171 211 268 318
#     4  10  20  34  54  79 112 147 177 213 261 320
#     4   9  20  36  54  76 104 144 180 225 258 306
#     4  10  18  30  50  82 115 139 168 212 265 322
#     4   9  19  33  54  76 109 143 180 219 260 309
#     4  10  20  34  55  83 112 136 170 223 275 322
#     4  11  21  36  59  82 103 135 183 226 277 325
#
# _framework density 17.174195000000001
#
# number of rings (size 3 to 8) (size 9 to 14) (size 15 to 20)
#    0.600    1.600    3.000    0.900    0.000    1.000 
#    0.000    4.500    4.400    2.400    0.000    0.000 
#    0.000    0.000    0.000    0.000    0.000    0.000 
#
# Total GULP energy -495570.889433 kJ/mol
# GULP energy per Si atom -12389.272236 kJ/mol
# Density = 1.713511 g / cm^3
# Si number density = 17.174195 Si / 1000 Ang^3
#
#
#
# Elastic Constant Matrix: (Units=GPa)
#
#
# Indices 1 2 3 4 5 6 
#
# 1 137.7062 53.8300 52.6853 0.0000 0.0000 0.0000
# 2 53.8300 78.3744 49.8173 0.0000 0.0000 0.0000
# 3 52.6853 49.8173 108.6297 -0.0001 0.0000 0.0000
# 4 0.0000 0.0000 -0.0001 11.2876 0.0000 0.0000
# 5 0.0000 0.0000 0.0000 0.0000 23.7970 0.0000
# 6 0.0000 0.0000 0.0000 0.0000 0.0000 18.8614
#
#
#
# Elastic Compliance Matrix: (Units=1/GPa)
#
#
# Indices 1 2 3 4 5 6 
#
# 1 0.010384 -0.005548 -0.002492 0.000000 0.000000 0.000000
# 2 -0.005548 0.020973 -0.006927 0.000000 0.000000 0.000000
# 3 -0.002492 -0.006927 0.013591 0.000000 0.000000 0.000000
# 4 0.000000 0.000000 0.000000 0.088593 0.000000 0.000000
# 5 0.000000 0.000000 0.000000 0.000000 0.042022 0.000000
# 6 0.000000 0.000000 0.000000 0.000000 0.000000 0.053018
#
#
# Mechanical properties :
#
#
# Convention : Reuss Voigt Hill
#
# Bulk Modulus (GPa) = 66.60722 70.81950 68.71336
# Shear Modulus (GPa) = 18.97383 22.01437 20.49410
#
# Velocity S-wave (km/s) = 3.32744 3.58415 3.45818
# Velocity P-wave (km/s) = 7.32325 7.64550 7.48611
#
# Compressibility (1/GPa) = 0.01501339
#
# Stress axis : x y z
#
# Youngs Moduli (GPa) = 96.30196 47.67989 73.57797
#
# Poissons Ratio (x) = 0.26454 0.18335
# Poissons Ratio (y) = 0.53430 0.50970
# Poissons Ratio (z) = 0.23997 0.33030
#
# Static dielectric constant tensor:
#      x y z
#    x 3.522270 0.000000 0.000000 
#    y 0.000000 2.861470 0.000000 
#    z 0.000000 0.000000 3.113120 
# 
# 
# High freq. dielectric constant tensor:
#      x y z
#    x 1.676570 0.000000 0.000000 
#    y 0.000000 1.625600 0.000000 
#    z 0.000000 0.000000 1.658950 
# 
# From -- ./inp_files/43511.got.cif
#   From: 2010.06.25/outbox.cif.g09.slc.cpg/sg71_22_cif.got.tgz:43511.got - 2010.06.28 04:59:45.
