data_PCOD8287083
_publ_section_title
;
Structure prediction by ZEFSAII (Michael W. Deem and Ramdas Pophale) SiO2 
 PCOD8287083
Probable space group: I M M M
;
_chemical_formula_sum "Si O2"
_cell_formula_units_Z 80
_cell_length_a 23.715628
_cell_length_b 8.576503
_cell_length_c 26.228459
_cell_angle_alpha 90.000000
_cell_angle_beta 90.000000
_cell_angle_gamma 90.000000
_cell_volume 5334.793932
_symmetry_space_group_name_H-M "I M M M"
_symmetry_group_IT_number 71
_symmetry_cell_setting 'orthorhombic'
loop_
_space_group_symop_operation_xyz
x,y,z
-x,-y,z
x,-y,-z
-x,y,-z
-x,-y,-z
x,y,-z
-x,y,z
x,-y,z
1/2+x,1/2+y,1/2+z
1/2-x,1/2-y,1/2+z
1/2+x,1/2-y,1/2-z
1/2-x,1/2+y,1/2-z
1/2-x,1/2-y,1/2-z
1/2+x,1/2+y,1/2-z
1/2-x,1/2+y,1/2+z
1/2+x,1/2-y,1/2+z
loop_
_atom_site_type_symbol
_atom_site_label
_atom_site_fract_x
_atom_site_fract_y
_atom_site_fract_z
Si Si1 0.000000 0.184615 0.215365
Si Si2 0.314835 0.817432 0.647730
Si Si3 0.381833 0.682739 0.441440
Si Si4 0.121150 0.183750 0.243809
Si Si5 0.218022 0.683919 0.298813
Si Si6 0.500000 0.685128 0.398730
O O1 0.055902 0.238964 0.245567
O O2 0.000000 0.255716 0.158337
O O3 0.000000 0.000000 0.209594
O O4 0.335981 0.775788 0.591464
O O5 0.353477 0.730252 0.689124
O O6 0.249514 0.759816 0.652469
O O7 0.318287 0.000000 0.658154
O O8 0.368797 0.719714 0.500000
O O9 0.376580 0.500000 0.429279
O O10 0.444480 0.744479 0.428142
O O11 0.152813 0.264984 0.291780
O O12 0.127129 0.000000 0.250033
O O13 0.222714 0.500000 0.302200
O O14 0.250000 0.750000 0.250000
O O15 0.500000 0.500000 0.397954
#
# Coordination Sequence:
#
# PCOD8287083 Si02
#       6
#     8  16  16  16  16   8
#     4   9  16  25  44  64  85 113 144 177 210 249
#     4  11  20  30  43  60  82 109 139 177 220 259
#     4  10  19  31  47  63  80 108 147 187 222 257
#     4  10  17  29  45  63  84 109 141 174 209 253
#     4  10  18  29  44  62  81 104 135 173 214 258
#     4   9  15  28  45  62  80 108 148 185 219 253
#
# _framework density 14.995893000000001
#
# number of rings (size 3 to 8) (size 9 to 14) (size 15 to 20)
#    0.000    2.000    2.000    6.900    0.000    1.600 
#    0.000    3.500    0.000    1.200    0.000    0.000 
#    0.000    0.000    0.000    0.900    0.000   17.400 
#
# Total GULP energy -495847.853657 kJ/mol
# GULP energy per Si atom -12396.196341 kJ/mol
# Density = 1.496176 g / cm^3
# Si number density = 14.995893 Si / 1000 Ang^3
#
#
#
# Elastic Constant Matrix: (Units=GPa)
#
#
# Indices 1 2 3 4 5 6 
#
# 1 108.3815 25.2811 52.7313 0.0000 0.0000 0.0000
# 2 25.2811 59.8147 20.8002 0.0000 0.0000 0.0000
# 3 52.7313 20.8002 60.6928 0.0000 0.0000 0.0000
# 4 0.0000 0.0000 0.0000 18.1208 0.0000 0.0000
# 5 0.0000 0.0000 0.0000 0.0000 23.3221 0.0000
# 6 0.0000 0.0000 0.0000 0.0000 0.0000 19.8492
#
#
#
# Elastic Compliance Matrix: (Units=1/GPa)
#
#
# Indices 1 2 3 4 5 6 
#
# 1 0.016239 -0.002222 -0.013347 0.000000 0.000000 0.000000
# 2 -0.002222 0.019284 -0.004678 0.000000 0.000000 0.000000
# 3 -0.013347 -0.004678 0.029676 0.000000 0.000000 0.000000
# 4 0.000000 0.000000 0.000000 0.055185 0.000000 0.000000
# 5 0.000000 0.000000 0.000000 0.000000 0.042878 0.000000
# 6 0.000000 0.000000 0.000000 0.000000 0.000000 0.050380
#
#
# Mechanical properties :
#
#
# Convention : Reuss Voigt Hill
#
# Bulk Modulus (GPa) = 40.47922 47.39046 43.93484
# Shear Modulus (GPa) = 19.05691 20.93018 19.99355
#
# Velocity S-wave (km/s) = 3.56871 3.74000 3.65536
# Velocity P-wave (km/s) = 6.63574 7.09373 6.86855
#
# Compressibility (1/GPa) = 0.02470403
#
# Stress axis : x y z
#
# Youngs Moduli (GPa) = 61.58082 51.85551 33.69718
#
# Poissons Ratio (x) = 0.11523 0.44976
# Poissons Ratio (y) = 0.13684 0.15765
# Poissons Ratio (z) = 0.82193 0.24260
#
# Static dielectric constant tensor:
#      x y z
#    x 3.436380 0.000000 0.000000 
#    y 0.000000 2.805910 0.000000 
#    z 0.000000 0.000000 2.762360 
# 
# 
# High freq. dielectric constant tensor:
#      x y z
#    x 1.570940 0.000000 0.000000 
#    y 0.000000 1.573240 0.000000 
#    z 0.000000 0.000000 1.528890 
# 
# From -- ./inp_files/66293.got.cif
#   From: 2010.06.25/outbox.cif.g09.slc.cpg/sg71_34_cif.got.tgz:66293.got - 2010.06.28 04:59:45.
