data_PCOD8287364
_publ_section_title
;
Structure prediction by ZEFSAII (Michael W. Deem and Ramdas Pophale) SiO2 
 PCOD8287364
Probable space group: I M M M
;
_chemical_formula_sum "Si O2"
_cell_formula_units_Z 128
_cell_length_a 18.538873
_cell_length_b 19.914607
_cell_length_c 21.287087
_cell_angle_alpha 90.000000
_cell_angle_beta 90.000000
_cell_angle_gamma 90.000000
_cell_volume 7859.072674
_symmetry_space_group_name_H-M "I M M M"
_symmetry_group_IT_number 71
_symmetry_cell_setting 'orthorhombic'
loop_
_space_group_symop_operation_xyz
x,y,z
-x,-y,z
x,-y,-z
-x,y,-z
-x,-y,-z
x,y,-z
-x,y,z
x,-y,z
1/2+x,1/2+y,1/2+z
1/2-x,1/2-y,1/2+z
1/2+x,1/2-y,1/2-z
1/2-x,1/2+y,1/2-z
1/2-x,1/2-y,1/2-z
1/2+x,1/2+y,1/2-z
1/2-x,1/2+y,1/2+z
1/2+x,1/2-y,1/2+z
loop_
_atom_site_type_symbol
_atom_site_label
_atom_site_fract_x
_atom_site_fract_y
_atom_site_fract_z
Si Si1 0.579925 0.773614 0.351382
Si Si2 0.688363 0.425524 0.237191
Si Si3 0.416948 0.383470 0.664322
Si Si4 0.184538 0.574569 0.663711
Si Si5 0.796075 0.783244 0.308299
Si Si6 0.417121 0.813366 0.214443
Si Si7 0.791752 0.738168 0.069122
Si Si8 0.699516 0.607045 0.568061
O O1 0.500000 0.780618 0.379997
O O2 0.595066 0.696625 0.331176
O O3 0.588583 0.820616 0.290023
O O4 0.636245 0.798471 0.404049
O O5 0.689729 0.500000 0.205092
O O6 0.611089 0.415148 0.270613
O O7 0.752475 0.418336 0.286237
O O8 0.701643 0.364163 0.189779
O O9 0.500000 0.402875 0.653472
O O10 0.368440 0.417481 0.609674
O O11 0.151581 0.500000 0.662511
O O12 0.118912 0.623496 0.680027
O O13 0.222104 0.590868 0.597288
O O14 0.750000 0.750000 0.250000
O O15 0.876756 0.754678 0.305666
O O16 0.768466 0.764613 0.377308
O O17 0.500000 0.807951 0.192818
O O18 0.810823 0.814624 0.058278
O O19 0.770288 0.707310 0.000000
O O20 0.695915 0.571335 0.500000
#
# Coordination Sequence:
#
# PCOD8287364 Si02
#       8
#    16  16  16  16  16  16  16  16
#     4   9  16  27  45  71 102 132 162 197 244 297
#     4  10  19  29  48  74  97 128 166 203 249 302
#     4   9  16  27  42  67 103 135 162 201 248 296
#     4  10  19  32  47  67  96 127 165 215 258 290
#     4  12  17  33  56  72  99 135 166 208 253 299
#     4  11  20  31  52  77  96 126 167 208 253 302
#     4  10  18  28  48  74  98 131 171 208 247 294
#     4   9  17  29  45  67  93 131 178 212 244 295
#
# _framework density 16.286908
#
# number of rings (size 3 to 8) (size 9 to 14) (size 15 to 20)
#    0.000    2.000    5.000    0.750    0.000    1.250 
#    0.000    2.500    0.000    1.875    0.000    4.375 
#    0.000    0.000    0.000   13.000    0.000    0.375 
#
# Total GULP energy -792934.021469 kJ/mol
# GULP energy per Si atom -12389.594085 kJ/mol
# Density = 1.624984 g / cm^3
# Si number density = 16.286908 Si / 1000 Ang^3
#
#
#
# Elastic Constant Matrix: (Units=GPa)
#
#
# Indices 1 2 3 4 5 6 
#
# 1 108.3590 25.6670 39.6484 0.0000 0.0000 0.0000
# 2 25.6670 63.7359 7.8182 0.0000 0.0000 0.0000
# 3 39.6484 7.8182 72.3243 0.0000 0.0000 0.0000
# 4 0.0000 0.0000 0.0000 4.4289 0.0000 0.0000
# 5 0.0000 0.0000 0.0000 0.0000 17.3597 0.0000
# 6 0.0000 0.0000 0.0000 0.0000 0.0000 11.7060
#
#
#
# Elastic Compliance Matrix: (Units=1/GPa)
#
#
# Indices 1 2 3 4 5 6 
#
# 1 0.012602 -0.004284 -0.006445 0.000000 0.000000 0.000000
# 2 -0.004284 0.017357 0.000472 0.000000 0.000000 0.000000
# 3 -0.006445 0.000472 0.017309 0.000000 0.000000 0.000000
# 4 0.000000 0.000000 0.000000 0.225791 0.000000 0.000000
# 5 0.000000 0.000000 0.000000 0.000000 0.057605 0.000000
# 6 0.000000 0.000000 0.000000 0.000000 0.000000 0.085426
#
#
# Mechanical properties :
#
#
# Convention : Reuss Voigt Hill
#
# Bulk Modulus (GPa) = 37.37828 43.40959 40.39394
# Shear Modulus (GPa) = 11.22280 18.11796 14.67038
#
# Velocity S-wave (km/s) = 2.62786 3.33892 3.00450
# Velocity P-wave (km/s) = 5.67514 6.44790 6.07382
#
# Compressibility (1/GPa) = 0.02675350
#
# Stress axis : x y z
#
# Youngs Moduli (GPa) = 79.35475 57.61332 57.77407
#
# Poissons Ratio (x) = 0.24683 0.37236
# Poissons Ratio (y) = 0.33997 -0.02729
# Poissons Ratio (z) = 0.51145 -0.02721
#
# Static dielectric constant tensor:
#      x y z
#    x 3.089060 0.000000 0.000000 
#    y 0.000000 3.034950 0.000000 
#    z 0.000000 0.000000 3.164880 
# 
# 
# High freq. dielectric constant tensor:
#      x y z
#    x 1.622280 0.000000 0.000000 
#    y 0.000000 1.606170 0.000000 
#    z 0.000000 0.000000 1.599200 
# 
# From -- ./inp_files/47747.got.cif
#   From: 2010.06.25/outbox.cif.g09.slc.cpg/sg71_24_cif.got.tgz:47747.got - 2010.06.28 04:59:45.
