data_PCOD8287312
_publ_section_title
;
Structure prediction by ZEFSAII (Michael W. Deem and Ramdas Pophale) SiO2 
 PCOD8287312
Probable space group: I M M M
;
_chemical_formula_sum "Si O2"
_cell_formula_units_Z 120
_cell_length_a 23.426284
_cell_length_b 17.634273
_cell_length_c 18.206402
_cell_angle_alpha 90.000000
_cell_angle_beta 90.000000
_cell_angle_gamma 90.000000
_cell_volume 7521.164573
_symmetry_space_group_name_H-M "I M M M"
_symmetry_group_IT_number 71
_symmetry_cell_setting 'orthorhombic'
loop_
_space_group_symop_operation_xyz
x,y,z
-x,-y,z
x,-y,-z
-x,y,-z
-x,-y,-z
x,y,-z
-x,y,z
x,-y,z
1/2+x,1/2+y,1/2+z
1/2-x,1/2-y,1/2+z
1/2+x,1/2-y,1/2-z
1/2-x,1/2+y,1/2-z
1/2-x,1/2-y,1/2-z
1/2+x,1/2+y,1/2-z
1/2-x,1/2+y,1/2+z
1/2+x,1/2-y,1/2+z
loop_
_atom_site_type_symbol
_atom_site_label
_atom_site_fract_x
_atom_site_fract_y
_atom_site_fract_z
Si Si1 0.344571 0.354879 0.679946
Si Si2 0.067848 0.000000 0.586982
Si Si3 0.272831 0.084903 0.349446
Si Si4 0.319184 0.782942 0.917199
Si Si5 0.145659 0.132363 0.351382
Si Si6 0.561836 0.412156 0.420852
Si Si7 0.779555 0.587358 0.320184
Si Si8 0.309561 0.227252 0.581618
O O1 0.357378 0.349615 0.765440
O O2 0.395765 0.400868 0.645621
O O3 0.286314 0.398112 0.658829
O O4 0.345528 0.271820 0.642768
O O5 0.095566 0.075782 0.622451
O O6 0.079752 0.000000 0.500000
O O7 0.000000 0.000000 0.603684
O O8 0.205985 0.092928 0.368851
O O9 0.285844 0.106688 0.265380
O O10 0.311897 0.138147 0.400047
O O11 0.292054 0.000000 0.366784
O O12 0.360482 0.714362 0.891076
O O13 0.322428 0.858019 0.865859
O O14 0.255575 0.752180 0.912468
O O15 0.336145 0.806262 0.000000
O O16 0.584713 0.380340 0.500000
O O17 0.500000 0.374521 0.403187
O O18 0.552449 0.500000 0.429369
O O19 0.794919 0.500000 0.337833
O O20 0.334123 0.241378 0.500000
#
# Coordination Sequence:
#
# PCOD8287312 Si02
#       8
#    16   8  16  16  16  16  16  16
#     4  10  18  28  45  62  87 118 152 189 228 270
#     4  11  24  38  50  68  93 117 151 201 243 275
#     4   9  16  28  43  63  89 120 153 187 224 270
#     4   9  17  29  43  61  86 118 152 185 226 277
#     4  10  19  32  48  65  84 118 156 190 231 277
#     4   9  18  30  42  58  82 113 147 183 222 263
#     4   9  17  27  42  64  93 120 150 187 226 268
#     4   9  17  27  40  63  89 116 151 188 225 267
#
# _framework density 15.954977
#
# number of rings (size 3 to 8) (size 9 to 14) (size 15 to 20)
#    0.000    2.600    0.667    2.400    1.867    5.333 
#    0.000    0.000    0.000    0.000    0.000    0.000 
#    0.000    1.067    0.000   11.200    0.000    4.800 
#
# Total GULP energy -743585.656112 kJ/mol
# GULP energy per Si atom -12393.094269 kJ/mol
# Density = 1.591866 g / cm^3
# Si number density = 15.954977 Si / 1000 Ang^3
#
#
#
# Elastic Constant Matrix: (Units=GPa)
#
#
# Indices 1 2 3 4 5 6 
#
# 1 39.0622 27.7594 27.4113 0.0000 0.0000 0.0000
# 2 27.7594 102.3283 44.4955 0.0000 0.0000 0.0000
# 3 27.4113 44.4955 83.1359 0.0000 0.0000 0.0000
# 4 0.0000 0.0000 0.0000 28.7071 0.0000 0.0000
# 5 0.0000 0.0000 0.0000 0.0000 7.2341 0.0000
# 6 0.0000 0.0000 0.0000 0.0000 0.0000 16.0937
#
#
#
# Elastic Compliance Matrix: (Units=1/GPa)
#
#
# Indices 1 2 3 4 5 6 
#
# 1 0.035917 -0.005987 -0.008638 0.000000 0.000000 0.000000
# 2 -0.005987 0.013735 -0.005377 0.000000 0.000000 0.000000
# 3 -0.008638 -0.005377 0.017754 0.000000 0.000000 0.000000
# 4 0.000000 0.000000 0.000000 0.034835 0.000000 0.000000
# 5 0.000000 0.000000 0.000000 0.000000 0.138235 0.000000
# 6 0.000000 0.000000 0.000000 0.000000 0.000000 0.062136
#
#
# Mechanical properties :
#
#
# Convention : Reuss Voigt Hill
#
# Bulk Modulus (GPa) = 36.49431 47.09540 41.79485
# Shear Modulus (GPa) = 14.21468 18.73098 16.47283
#
# Velocity S-wave (km/s) = 2.98807 3.43007 3.21667
# Velocity P-wave (km/s) = 5.90150 6.72822 6.32838
#
# Compressibility (1/GPa) = 0.02740153
#
# Stress axis : x y z
#
# Youngs Moduli (GPa) = 27.84230 72.80792 56.32446
#
# Poissons Ratio (x) = 0.43593 0.48651
# Poissons Ratio (y) = 0.16670 0.30285
# Poissons Ratio (z) = 0.24049 0.39148
#
# Static dielectric constant tensor:
#      x y z
#    x 2.673910 0.000000 0.000000 
#    y 0.000000 3.123950 0.000000 
#    z 0.000000 0.000000 3.169280 
# 
# 
# High freq. dielectric constant tensor:
#      x y z
#    x 1.552650 0.000000 0.000000 
#    y 0.000000 1.611950 0.000000 
#    z 0.000000 0.000000 1.627660 
# 
# From -- ./inp_files/47576.got.cif
#   From: 2010.06.25/outbox.cif.g09.slc.cpg/sg71_24_cif.got.tgz:47576.got - 2010.06.28 04:59:45.
