data_PCOD8287084
_publ_section_title
;
Structure prediction by ZEFSAII (Michael W. Deem and Ramdas Pophale) SiO2 
 PCOD8287084
Probable space group: I M M M
;
_chemical_formula_sum "Si O2"
_cell_formula_units_Z 96
_cell_length_a 25.803598
_cell_length_b 20.574855
_cell_length_c 11.410200
_cell_angle_alpha 90.000000
_cell_angle_beta 90.000000
_cell_angle_gamma 90.000000
_cell_volume 6057.735509
_symmetry_space_group_name_H-M "I M M M"
_symmetry_group_IT_number 71
_symmetry_cell_setting 'orthorhombic'
loop_
_space_group_symop_operation_xyz
x,y,z
-x,-y,z
x,-y,-z
-x,y,-z
-x,-y,-z
x,y,-z
-x,y,z
x,-y,z
1/2+x,1/2+y,1/2+z
1/2-x,1/2-y,1/2+z
1/2+x,1/2-y,1/2-z
1/2-x,1/2+y,1/2-z
1/2-x,1/2-y,1/2-z
1/2+x,1/2+y,1/2-z
1/2-x,1/2+y,1/2+z
1/2+x,1/2-y,1/2+z
loop_
_atom_site_type_symbol
_atom_site_label
_atom_site_fract_x
_atom_site_fract_y
_atom_site_fract_z
Si Si1 0.294655 0.663962 0.211351
Si Si2 0.500000 0.163288 0.368373
Si Si3 0.888748 0.189102 0.865800
Si Si4 0.720973 0.573268 0.000000
Si Si5 0.000000 0.815589 0.128432
Si Si6 0.611863 0.836883 0.695298
Si Si7 0.156791 0.426444 0.000000
Si Si8 0.198192 0.310196 0.635032
O O1 0.344078 0.653953 0.294305
O O2 0.299700 0.607974 0.116058
O O3 0.242817 0.655482 0.288435
O O4 0.295565 0.732884 0.145796
O O5 0.500000 0.130996 0.500000
O O6 0.500000 0.239078 0.388834
O O7 0.551085 0.143668 0.293325
O O8 0.881510 0.266748 0.864720
O O9 0.944991 0.167005 0.809511
O O10 0.885438 0.166245 0.000000
O O11 0.782124 0.575432 0.000000
O O12 0.699579 0.500000 0.000000
O O13 0.000000 0.848218 0.000000
O O14 0.638003 0.891043 0.616086
O O15 0.641712 0.834432 0.819905
O O16 0.135596 0.500000 0.000000
O O17 0.203910 0.330776 0.500000
#
# Coordination Sequence:
#
# PCOD8287084 Si02
#       8
#    16   8  16   8   8  16   8  16
#     4  10  19  29  48  72  94 122 160 190 244 280
#     4   9  14  24  45  65  93 126 159 200 237 285
#     4   9  15  25  47  72 100 123 149 197 237 291
#     4  11  22  36  49  67 101 131 162 195 235 293
#     4   7  12  22  38  68  98 127 147 173 245 287
#     4  10  17  29  45  67  97 128 160 196 248 280
#     4  11  20  31  48  67  95 130 169 203 241 286
#     4  10  19  29  47  71 100 119 151 206 238 293
#
# _framework density 15.847505999999999
#
# number of rings (size 3 to 8) (size 9 to 14) (size 15 to 20)
#    0.000    2.333    4.167    1.500    0.000    0.000 
#    0.000    1.250    0.000    4.000    0.000    1.167 
#    0.000    3.333    0.000    0.000    0.000    0.000 
#
# Total GULP energy -594785.441026 kJ/mol
# GULP energy per Si atom -12391.363355 kJ/mol
# Density = 1.581144 g / cm^3
# Si number density = 15.847506 Si / 1000 Ang^3
#
#
#
# Elastic Constant Matrix: (Units=GPa)
#
#
# Indices 1 2 3 4 5 6 
#
# 1 128.4152 30.5033 53.2953 0.0000 0.0000 0.0000
# 2 30.5033 58.4740 35.8121 0.0000 0.0000 0.0000
# 3 53.2953 35.8121 100.8931 0.0000 0.0000 0.0000
# 4 0.0000 0.0000 0.0000 12.8824 0.0000 0.0000
# 5 0.0000 0.0000 0.0000 0.0000 23.6313 0.0000
# 6 0.0000 0.0000 0.0000 0.0000 0.0000 10.6228
#
#
#
# Elastic Compliance Matrix: (Units=1/GPa)
#
#
# Indices 1 2 3 4 5 6 
#
# 1 0.010274 -0.002601 -0.004504 0.000000 0.000000 0.000000
# 2 -0.002601 0.022511 -0.006616 0.000000 0.000000 0.000000
# 3 -0.004504 -0.006616 0.014639 0.000000 0.000000 0.000000
# 4 0.000000 0.000000 0.000000 0.077625 0.000000 0.000000
# 5 0.000000 0.000000 0.000000 0.000000 0.042317 0.000000
# 6 0.000000 0.000000 0.000000 0.000000 0.000000 0.094137
#
#
# Mechanical properties :
#
#
# Convention : Reuss Voigt Hill
#
# Bulk Modulus (GPa) = 50.04661 58.55595 54.30128
# Shear Modulus (GPa) = 16.91441 20.63875 18.77658
#
# Velocity S-wave (km/s) = 3.27054 3.61270 3.44587
# Velocity P-wave (km/s) = 6.77573 7.37780 7.08317
#
# Compressibility (1/GPa) = 0.01998137
#
# Stress axis : x y z
#
# Youngs Moduli (GPa) = 97.32938 44.42359 68.31061
#
# Poissons Ratio (x) = 0.11556 0.30767
# Poissons Ratio (y) = 0.25318 0.45195
# Poissons Ratio (z) = 0.43837 0.29391
#
# Static dielectric constant tensor:
#      x y z
#    x 3.492980 0.000000 0.000000 
#    y 0.000000 2.669690 0.000000 
#    z 0.000000 0.000000 2.830810 
# 
# 
# High freq. dielectric constant tensor:
#      x y z
#    x 1.625570 0.000000 0.000000 
#    y 0.000000 1.556370 0.000000 
#    z 0.000000 0.000000 1.588700 
# 
# From -- ./inp_files/27632.got.cif
#   From: 2010.06.25/outbox.cif.g09.slc.cpg/sg71_14_cif.got.tgz:27632.got - 2010.06.28 04:59:45.
