data_PCOD8287216
_publ_section_title
;
Structure prediction by ZEFSAII (Michael W. Deem and Ramdas Pophale) SiO2 
 PCOD8287216
Probable space group: I M M M
;
_chemical_formula_sum "Si O2"
_cell_formula_units_Z 80
_cell_length_a 28.497368
_cell_length_b 22.669506
_cell_length_c 9.143854
_cell_angle_alpha 90.000000
_cell_angle_beta 90.000000
_cell_angle_gamma 90.000000
_cell_volume 5907.124035
_symmetry_space_group_name_H-M "I M M M"
_symmetry_group_IT_number 71
_symmetry_cell_setting 'orthorhombic'
loop_
_space_group_symop_operation_xyz
x,y,z
-x,-y,z
x,-y,-z
-x,y,-z
-x,-y,-z
x,y,-z
-x,y,z
x,-y,z
1/2+x,1/2+y,1/2+z
1/2-x,1/2-y,1/2+z
1/2+x,1/2-y,1/2-z
1/2-x,1/2+y,1/2-z
1/2-x,1/2-y,1/2-z
1/2+x,1/2+y,1/2-z
1/2-x,1/2+y,1/2+z
1/2+x,1/2-y,1/2+z
loop_
_atom_site_type_symbol
_atom_site_label
_atom_site_fract_x
_atom_site_fract_y
_atom_site_fract_z
Si Si1 0.868296 0.362879 0.828824
Si Si2 0.724987 0.067673 0.329549
Si Si3 0.054214 0.432249 0.332677
Si Si4 0.774519 0.165195 0.164952
Si Si5 0.678747 0.237596 0.834737
O O1 0.826473 0.407997 0.790781
O O2 0.916556 0.390679 0.773920
O O3 0.860398 0.300575 0.748668
O O4 0.871632 0.350314 0.000000
O O5 0.735663 0.075880 0.500000
O O6 0.765033 0.102495 0.241405
O O7 0.726921 0.000000 0.280448
O O8 0.069926 0.421923 0.500000
O O9 0.062758 0.500000 0.288255
O O10 0.000000 0.415557 0.312565
O O11 0.727450 0.203099 0.166851
O O12 0.814987 0.199967 0.252679
O O13 0.791937 0.154317 0.000000
O O14 0.661901 0.249544 0.000000
#
# Coordination Sequence:
#
# PCOD8287216 Si02
#       5
#    16  16  16  16  16
#     4  10  18  27  40  57  74  92 120 158 193 223
#     4   9  17  27  37  51  73  99 124 151 185 223
#     4   9  18  31  43  54  71  96 124 154 190 231
#     4   9  16  25  37  53  71  91 118 151 183 215
#     4   9  16  26  39  53  70  93 118 146 183 223
#
# _framework density 13.54297
#
# number of rings (size 3 to 8) (size 9 to 14) (size 15 to 20)
#    0.000    2.800    0.000    3.000    0.000    7.600 
#    0.000    1.000    0.000    0.000    0.000    0.000 
#    0.000    0.000    0.000    0.000    0.000    1.000 
#
# Total GULP energy -496006.085433 kJ/mol
# GULP energy per Si atom -12400.152136 kJ/mol
# Density = 1.351215 g / cm^3
# Si number density = 13.542970 Si / 1000 Ang^3
#
#
#
# Elastic Constant Matrix: (Units=GPa)
#
#
# Indices 1 2 3 4 5 6 
#
# 1 43.6067 36.5979 35.7251 0.0000 0.0000 0.0000
# 2 36.5979 78.2104 48.6767 0.0000 0.0000 0.0000
# 3 35.7251 48.6767 93.6376 0.0000 0.0000 0.0000
# 4 0.0000 0.0000 0.0000 24.7196 0.0000 0.0000
# 5 0.0000 0.0000 0.0000 0.0000 20.0716 0.0000
# 6 0.0000 0.0000 0.0000 0.0000 0.0000 23.6029
#
#
#
# Elastic Compliance Matrix: (Units=1/GPa)
#
#
# Indices 1 2 3 4 5 6 
#
# 1 0.041956 -0.014295 -0.008576 0.000000 0.000000 0.000000
# 2 -0.014295 0.023772 -0.006904 0.000000 0.000000 0.000000
# 3 -0.008576 -0.006904 0.017540 0.000000 0.000000 0.000000
# 4 0.000000 0.000000 0.000000 0.040454 0.000000 0.000000
# 5 0.000000 0.000000 0.000000 0.000000 0.049822 0.000000
# 6 0.000000 0.000000 0.000000 0.000000 0.000000 0.042368
#
#
# Mechanical properties :
#
#
# Convention : Reuss Voigt Hill
#
# Bulk Modulus (GPa) = 42.16163 50.82825 46.49494
# Shear Modulus (GPa) = 17.64494 19.97581 18.81037
#
# Velocity S-wave (km/s) = 3.61347 3.84473 3.73089
# Velocity P-wave (km/s) = 6.97200 7.57112 7.27773
#
# Compressibility (1/GPa) = 0.02371825
#
# Stress axis : x y z
#
# Youngs Moduli (GPa) = 23.83459 42.06591 57.01190
#
# Poissons Ratio (x) = 0.60135 0.48892
# Poissons Ratio (y) = 0.34073 0.39359
# Poissons Ratio (z) = 0.20440 0.29041
#
# Static dielectric constant tensor:
#      x y z
#    x 2.345890 0.000000 0.000000 
#    y 0.000000 2.658430 0.000000 
#    z 0.000000 0.000000 2.817620 
# 
# 
# High freq. dielectric constant tensor:
#      x y z
#    x 1.465730 0.000000 0.000000 
#    y 0.000000 1.502110 0.000000 
#    z 0.000000 0.000000 1.532130 
# 
# From -- ./inp_files/8615.got.cif
#   From: 2010.06.25/outbox.cif.g09.slc.cpg/sg71_5_cif.got.tgz:8615.got - 2010.06.28 04:59:45.
