data_PCOD8287668
_publ_section_title
;
Structure prediction by ZEFSAII (Michael W. Deem and Ramdas Pophale) SiO2 
 PCOD8287668
Probable space group: I M M M
;
_chemical_formula_sum "Si O2"
_cell_formula_units_Z 104
_cell_length_a 13.899162
_cell_length_b 19.354528
_cell_length_c 23.384373
_cell_angle_alpha 90.000000
_cell_angle_beta 90.000000
_cell_angle_gamma 90.000000
_cell_volume 6290.670404
_symmetry_space_group_name_H-M "I M M M"
_symmetry_group_IT_number 71
_symmetry_cell_setting 'orthorhombic'
loop_
_space_group_symop_operation_xyz
x,y,z
-x,-y,z
x,-y,-z
-x,y,-z
-x,-y,-z
x,y,-z
-x,y,z
x,-y,z
1/2+x,1/2+y,1/2+z
1/2-x,1/2-y,1/2+z
1/2+x,1/2-y,1/2-z
1/2-x,1/2+y,1/2-z
1/2-x,1/2-y,1/2-z
1/2+x,1/2+y,1/2-z
1/2-x,1/2+y,1/2+z
1/2+x,1/2-y,1/2+z
loop_
_atom_site_type_symbol
_atom_site_label
_atom_site_fract_x
_atom_site_fract_y
_atom_site_fract_z
Si Si1 0.385448 0.672420 0.061813
Si Si2 0.772409 0.082217 0.889193
Si Si3 0.607847 0.784509 0.764184
Si Si4 0.892581 0.081694 0.000000
Si Si5 0.107156 0.686468 0.393914
Si Si6 0.201176 0.142590 0.766858
Si Si7 0.889658 0.078338 0.338414
O O1 0.500000 0.669189 0.066534
O O2 0.351951 0.752356 0.066116
O O3 0.341366 0.624872 0.111820
O O4 0.350704 0.644428 0.000000
O O5 0.669262 0.117399 0.899092
O O6 0.815323 0.109933 0.829501
O O7 0.758450 0.000000 0.886773
O O8 0.839672 0.105739 0.941911
O O9 0.500000 0.804875 0.742330
O O10 0.607108 0.776607 0.832244
O O11 0.686686 0.843583 0.750735
O O12 0.639250 0.712697 0.735439
O O13 0.000000 0.113492 0.000000
O O14 0.897882 0.000000 0.000000
O O15 0.000000 0.663563 0.411593
O O16 0.165458 0.087502 0.720991
O O17 0.000000 0.099436 0.327835
O O18 0.880233 0.000000 0.358934
#
# Coordination Sequence:
#
# PCOD8287668 Si02
#       7
#    16  16  16   8  16  16  16
#     4   9  17  29  46  68  97 130 157 182 222 281
#     4  10  21  34  49  70  93 123 163 200 240 289
#     4   9  17  30  48  71  98 127 160 195 240 289
#     4   9  20  38  51  61  89 127 159 198 244 284
#     4   9  17  31  50  71  98 128 156 191 235 283
#     4  10  18  30  50  71  96 126 158 201 245 280
#     4  10  19  30  47  72 101 128 155 192 234 281
#
# _framework density 16.532419000000001
#
# number of rings (size 3 to 8) (size 9 to 14) (size 15 to 20)
#    0.000    2.538    1.538    0.923    1.077    1.846 
#    0.000    3.077    0.000    2.769    0.000    0.000 
#    0.000    0.000    0.000    1.385    0.000    0.154 
#
# Total GULP energy -644489.172609 kJ/mol
# GULP energy per Si atom -12394.022550 kJ/mol
# Density = 1.649479 g / cm^3
# Si number density = 16.532419 Si / 1000 Ang^3
#
#
#
# Elastic Constant Matrix: (Units=GPa)
#
#
# Indices 1 2 3 4 5 6 
#
# 1 90.5013 40.2844 45.6695 0.0000 0.0000 0.0000
# 2 40.2844 77.0061 52.6149 0.0000 0.0000 0.0000
# 3 45.6695 52.6149 114.7969 0.0000 0.0000 0.0000
# 4 0.0000 0.0000 0.0000 23.1328 0.0000 0.0000
# 5 0.0000 0.0000 0.0000 0.0000 17.8752 0.0000
# 6 0.0000 0.0000 0.0000 0.0000 0.0000 18.4468
#
#
#
# Elastic Compliance Matrix: (Units=1/GPa)
#
#
# Indices 1 2 3 4 5 6 
#
# 1 0.015325 -0.005607 -0.003527 0.000000 0.000000 0.000000
# 2 -0.005607 0.020959 -0.007375 0.000000 0.000000 0.000000
# 3 -0.003527 -0.007375 0.013494 0.000000 0.000000 0.000000
# 4 0.000000 0.000000 0.000000 0.043229 0.000000 0.000000
# 5 0.000000 0.000000 0.000000 0.000000 0.055943 0.000000
# 6 0.000000 0.000000 0.000000 0.000000 0.000000 0.054210
#
#
# Mechanical properties :
#
#
# Convention : Reuss Voigt Hill
#
# Bulk Modulus (GPa) = 59.66789 62.16022 60.91405
# Shear Modulus (GPa) = 20.68121 21.47333 21.07727
#
# Velocity S-wave (km/s) = 3.54071 3.60788 3.57446
# Velocity P-wave (km/s) = 7.27223 7.41865 7.34580
#
# Compressibility (1/GPa) = 0.01675943
#
# Stress axis : x y z
#
# Youngs Moduli (GPa) = 65.25156 47.71320 74.10522
#
# Poissons Ratio (x) = 0.26755 0.26135
# Poissons Ratio (y) = 0.36590 0.54654
# Poissons Ratio (z) = 0.23013 0.35189
#
# Static dielectric constant tensor:
#      x y z
#    x 3.131170 0.000000 0.000000 
#    y 0.000000 2.963910 0.000000 
#    z 0.000000 0.000000 3.237140 
# 
# 
# High freq. dielectric constant tensor:
#      x y z
#    x 1.611740 0.000000 0.000000 
#    y 0.000000 1.626860 0.000000 
#    z 0.000000 0.000000 1.640370 
# 
# From -- ./inp_files/60080.got.cif
#   From: 2010.06.25/outbox.cif.g09.slc.cpg/sg71_31_cif.got.tgz:60080.got - 2010.06.28 04:59:45.
