data_PCOD8287905
_publ_section_title
;
Structure prediction by ZEFSAII (Michael W. Deem and Ramdas Pophale) SiO2 
 PCOD8287905
Probable space group: I M M M
;
_chemical_formula_sum "Si O2"
_cell_formula_units_Z 80
_cell_length_a 11.627861
_cell_length_b 18.057868
_cell_length_c 22.907378
_cell_angle_alpha 90.000000
_cell_angle_beta 90.000000
_cell_angle_gamma 90.000000
_cell_volume 4809.962471
_symmetry_space_group_name_H-M "I M M M"
_symmetry_group_IT_number 71
_symmetry_cell_setting 'orthorhombic'
loop_
_space_group_symop_operation_xyz
x,y,z
-x,-y,z
x,-y,-z
-x,y,-z
-x,-y,-z
x,y,-z
-x,y,z
x,-y,z
1/2+x,1/2+y,1/2+z
1/2-x,1/2-y,1/2+z
1/2+x,1/2-y,1/2-z
1/2-x,1/2+y,1/2-z
1/2-x,1/2-y,1/2-z
1/2+x,1/2+y,1/2-z
1/2-x,1/2+y,1/2+z
1/2+x,1/2-y,1/2+z
loop_
_atom_site_type_symbol
_atom_site_label
_atom_site_fract_x
_atom_site_fract_y
_atom_site_fract_z
Si Si1 0.750476 0.913117 0.860994
Si Si2 0.370465 0.833650 0.240985
Si Si3 0.000000 0.087645 0.697001
Si Si4 0.500000 0.587278 0.329214
Si Si5 0.135805 0.291895 0.567341
Si Si6 0.189386 0.806590 0.331453
O O1 0.699090 0.893282 0.797600
O O2 0.682722 0.871775 0.912476
O O3 0.884382 0.886844 0.862492
O O4 0.737619 0.000000 0.872153
O O5 0.500000 0.861966 0.249576
O O6 0.313779 0.826929 0.305086
O O7 0.371604 0.754424 0.209372
O O8 0.112837 0.119632 0.665410
O O9 0.000000 0.117409 0.763376
O O10 0.000000 0.000000 0.690509
O O11 0.500000 0.500000 0.324408
O O12 0.165066 0.279770 0.500000
O O13 0.200370 0.227331 0.603567
O O14 0.000000 0.289019 0.579802
#
# Coordination Sequence:
#
# PCOD8287905 Si02
#       6
#    16  16   8   8  16  16
#     4  10  19  32  50  75 106 137 170 204 244 298
#     4  10  19  29  48  74 101 135 164 200 252 301
#     4  11  18  30  53  79 102 129 162 200 256 310
#     4   9  18  30  47  75 109 136 158 199 252 294
#     4  10  21  36  53  70  94 135 174 212 254 287
#     4  10  18  32  49  70 101 128 165 206 251 304
#
# _framework density 16.632145999999999
#
# number of rings (size 3 to 8) (size 9 to 14) (size 15 to 20)
#    0.000    2.000    4.000    1.800    0.000    2.000 
#    0.000    1.500    0.000    3.000    0.000    0.000 
#    0.000    0.000    0.000    3.600    0.000    0.000 
#
# Total GULP energy -495949.660659 kJ/mol
# GULP energy per Si atom -12398.741516 kJ/mol
# Density = 1.659429 g / cm^3
# Si number density = 16.632146 Si / 1000 Ang^3
#
#
#
# Elastic Constant Matrix: (Units=GPa)
#
#
# Indices 1 2 3 4 5 6 
#
# 1 101.5098 15.2652 48.6754 0.0000 0.0000 0.0000
# 2 15.2652 65.7462 33.3653 0.0000 0.0000 0.0000
# 3 48.6754 33.3653 114.3686 0.0000 0.0000 0.0000
# 4 0.0000 0.0000 0.0000 16.1777 0.0000 0.0000
# 5 0.0000 0.0000 0.0000 0.0000 22.7917 0.0000
# 6 0.0000 0.0000 0.0000 0.0000 0.0000 22.0965
#
#
#
# Elastic Compliance Matrix: (Units=1/GPa)
#
#
# Indices 1 2 3 4 5 6 
#
# 1 0.012380 -0.000235 -0.005200 0.000000 0.000000 0.000000
# 2 -0.000235 0.017858 -0.005110 0.000000 0.000000 0.000000
# 3 -0.005200 -0.005110 0.012448 0.000000 0.000000 0.000000
# 4 0.000000 0.000000 0.000000 0.061813 0.000000 0.000000
# 5 0.000000 0.000000 0.000000 0.000000 0.043876 0.000000
# 6 0.000000 0.000000 0.000000 0.000000 0.000000 0.045256
#
#
# Mechanical properties :
#
#
# Convention : Reuss Voigt Hill
#
# Bulk Modulus (GPa) = 46.30712 52.91517 49.61115
# Shear Modulus (GPa) = 22.53068 24.50109 23.51588
#
# Velocity S-wave (km/s) = 3.68455 3.84228 3.76424
# Velocity P-wave (km/s) = 6.78259 7.18110 6.98469
#
# Compressibility (1/GPa) = 0.02159495
#
# Stress axis : x y z
#
# Youngs Moduli (GPa) = 80.77322 55.99834 80.33681
#
# Poissons Ratio (x) = 0.01318 0.41779
# Poissons Ratio (y) = 0.01901 0.41048
# Poissons Ratio (z) = 0.42005 0.28613
#
# Static dielectric constant tensor:
#      x y z
#    x 3.318800 0.000000 0.000000 
#    y 0.000000 2.993060 0.000000 
#    z 0.000000 0.000000 2.966340 
# 
# 
# High freq. dielectric constant tensor:
#      x y z
#    x 1.646690 0.000000 0.000000 
#    y 0.000000 1.628460 0.000000 
#    z 0.000000 0.000000 1.607490 
# 
# From -- ./inp_files/58820.got.cif
#   From: 2010.06.25/outbox.cif.g09.slc.cpg/sg71_30_cif.got.tgz:58820.got - 2010.06.28 04:59:45.
