data_PCOD8287096
_publ_section_title
;
Structure prediction by ZEFSAII (Michael W. Deem and Ramdas Pophale) SiO2 
 PCOD8287096
Probable space group: I M M M
;
_chemical_formula_sum "Si O2"
_cell_formula_units_Z 96
_cell_length_a 15.069406
_cell_length_b 13.738205
_cell_length_c 27.257941
_cell_angle_alpha 90.000000
_cell_angle_beta 90.000000
_cell_angle_gamma 90.000000
_cell_volume 5643.118544
_symmetry_space_group_name_H-M "I M M M"
_symmetry_group_IT_number 71
_symmetry_cell_setting 'orthorhombic'
loop_
_space_group_symop_operation_xyz
x,y,z
-x,-y,z
x,-y,-z
-x,y,-z
-x,-y,-z
x,y,-z
-x,y,z
x,-y,z
1/2+x,1/2+y,1/2+z
1/2-x,1/2-y,1/2+z
1/2+x,1/2-y,1/2-z
1/2-x,1/2+y,1/2-z
1/2-x,1/2-y,1/2-z
1/2+x,1/2+y,1/2-z
1/2-x,1/2+y,1/2+z
1/2+x,1/2-y,1/2+z
loop_
_atom_site_type_symbol
_atom_site_label
_atom_site_fract_x
_atom_site_fract_y
_atom_site_fract_z
Si Si1 0.500000 0.111101 0.627750
Si Si2 0.196922 0.230943 0.200356
Si Si3 0.326448 0.278264 0.057605
Si Si4 0.500000 0.890720 0.813588
Si Si5 0.500000 0.390158 0.058210
Si Si6 0.190004 0.613794 0.882929
Si Si7 0.000000 0.738543 0.219813
Si Si8 0.316210 0.110889 0.132311
O O1 0.410433 0.138966 0.598772
O O2 0.500000 0.152534 0.681798
O O3 0.500000 0.000000 0.640101
O O4 0.250000 0.250000 0.250000
O O5 0.209227 0.327857 0.167276
O O6 0.093155 0.202824 0.211580
O O7 0.241453 0.140999 0.171818
O O8 0.415711 0.329690 0.076879
O O9 0.249243 0.353280 0.071602
O O10 0.310158 0.175119 0.083332
O O11 0.327772 0.259439 0.000000
O O12 0.500000 0.807423 0.773298
O O13 0.413838 0.875179 0.846406
O O14 0.500000 0.000000 0.790928
O O15 0.500000 0.500000 0.080438
O O16 0.500000 0.397855 0.000000
O O17 0.204756 0.500000 0.871883
O O18 0.297875 0.000000 0.117053
#
# Coordination Sequence:
#
# PCOD8287096 Si02
#       8
#     8  16  16   8   8  16   8  16
#     4   8  15  28  46  72 102 127 153 192 249 310
#     4  10  19  32  50  75 104 139 168 210 253 307
#     4  10  20  34  52  73  99 135 177 216 259 307
#     4  10  18  29  50  76 100 128 165 211 256 303
#     4   9  17  30  50  74 101 134 169 204 251 316
#     4   9  18  31  50  75 102 128 162 207 257 313
#     4  10  17  29  50  73 102 133 170 200 246 308
#     4  10  21  35  51  75 104 136 177 220 261 301
#
# _framework density 17.011870999999999
#
# number of rings (size 3 to 8) (size 9 to 14) (size 15 to 20)
#    0.000    2.417    1.667    1.250    0.000    2.667 
#    0.000    0.833    0.000    4.500    0.000    0.000 
#    0.000    6.667    0.000    0.000    0.000    0.000 
#
# Total GULP energy -594877.123754 kJ/mol
# GULP energy per Si atom -12393.273412 kJ/mol
# Density = 1.697315 g / cm^3
# Si number density = 17.011871 Si / 1000 Ang^3
#
#
#
# Elastic Constant Matrix: (Units=GPa)
#
#
# Indices 1 2 3 4 5 6 
#
# 1 143.4695 44.9304 46.4441 0.0000 0.0000 0.0000
# 2 44.9304 93.6572 41.0920 0.0000 0.0000 0.0000
# 3 46.4441 41.0920 68.5236 0.0000 0.0000 0.0000
# 4 0.0000 0.0000 0.0000 16.5527 0.0000 0.0000
# 5 0.0000 0.0000 0.0000 0.0000 -7.9842 0.0000
# 6 0.0000 0.0000 0.0000 0.0000 0.0000 19.1802
#
#
#
# Elastic Compliance Matrix: (Units=1/GPa)
#
#
# Indices 1 2 3 4 5 6 
#
# 1 0.009280 -0.002296 -0.004912 0.000000 0.000000 0.000000
# 2 -0.002296 0.015058 -0.007473 0.000000 0.000000 0.000000
# 3 -0.004912 -0.007473 0.022405 0.000000 0.000000 0.000000
# 4 0.000000 0.000000 0.000000 0.060413 0.000000 0.000000
# 5 0.000000 0.000000 0.000000 0.000000 -0.125247 0.000000
# 6 0.000000 0.000000 0.000000 0.000000 0.000000 0.052137
#
#
# Mechanical properties :
#
#
# Convention : Reuss Voigt Hill
#
# Bulk Modulus (GPa) = 57.54510 63.39814 60.47162
# Shear Modulus (GPa) = 72.25220 17.09533 44.67377
#
# Velocity S-wave (km/s) = 6.52410 3.17346 5.13004
# Velocity P-wave (km/s) = 9.52112 7.12571 8.40914
#
# Compressibility (1/GPa) = 0.01737768
#
# Stress axis : x y z
#
# Youngs Moduli (GPa) = 107.76406 66.41064 44.63350
#
# Poissons Ratio (x) = 0.15250 0.21926
# Poissons Ratio (y) = 0.24747 0.33356
# Poissons Ratio (z) = 0.52938 0.49631
#
# Static dielectric constant tensor:
#      x y z
#    x 3.760540 0.000000 0.000000 
#    y 0.000000 3.160900 0.000000 
#    z 0.000000 0.000000 2.914940 
# 
# 
# High freq. dielectric constant tensor:
#      x y z
#    x 1.675990 0.000000 0.000000 
#    y 0.000000 1.644590 0.000000 
#    z 0.000000 0.000000 1.637370 
# 
# From -- ./inp_files/59871.got.cif
#   From: 2010.06.25/outbox.cif.g09.slc.cpg/sg71_30_cif.got.tgz:59871.got - 2010.06.28 04:59:45.
