data_PCOD8287901
_publ_section_title
;
Structure prediction by ZEFSAII (Michael W. Deem and Ramdas Pophale) SiO2 
 PCOD8287901
Probable space group: I M M M
;
_chemical_formula_sum "Si O2"
_cell_formula_units_Z 96
_cell_length_a 23.692047
_cell_length_b 8.856651
_cell_length_c 25.783716
_cell_angle_alpha 90.000000
_cell_angle_beta 90.000000
_cell_angle_gamma 90.000000
_cell_volume 5410.253640
_symmetry_space_group_name_H-M "I M M M"
_symmetry_group_IT_number 71
_symmetry_cell_setting 'orthorhombic'
loop_
_space_group_symop_operation_xyz
x,y,z
-x,-y,z
x,-y,-z
-x,y,-z
-x,-y,-z
x,y,-z
-x,y,z
x,-y,z
1/2+x,1/2+y,1/2+z
1/2-x,1/2-y,1/2+z
1/2+x,1/2-y,1/2-z
1/2-x,1/2+y,1/2-z
1/2-x,1/2-y,1/2-z
1/2+x,1/2+y,1/2-z
1/2-x,1/2+y,1/2+z
1/2+x,1/2-y,1/2+z
loop_
_atom_site_type_symbol
_atom_site_label
_atom_site_fract_x
_atom_site_fract_y
_atom_site_fract_z
Si Si1 0.379779 0.823207 0.657706
Si Si2 0.500000 0.826184 0.699980
Si Si3 0.809444 0.820420 0.557640
Si Si4 0.880819 0.820264 0.347490
Si Si5 0.500000 0.679123 0.188933
Si Si6 0.817152 0.679038 0.943004
Si Si7 0.689076 0.321552 0.251214
O O1 0.445782 0.787580 0.664875
O O2 0.361476 0.766438 0.600422
O O3 0.343808 0.728858 0.698078
O O4 0.366415 0.000000 0.665363
O O5 0.500000 0.728211 0.751566
O O6 0.500000 0.000000 0.717237
O O7 0.827326 0.765429 0.500000
O O8 0.853303 0.753534 0.599808
O O9 0.746098 0.763176 0.570672
O O10 0.810647 0.000000 0.560100
O O11 0.844729 0.762167 0.298827
O O12 0.944770 0.759001 0.341100
O O13 0.880819 0.000000 0.348922
O O14 0.500000 0.500000 0.189632
O O15 0.815942 0.500000 0.945035
O O16 0.835282 0.741113 0.000000
O O17 0.694981 0.500000 0.250735
O O18 0.750000 0.250000 0.250000
#
# Coordination Sequence:
#
# PCOD8287901 Si02
#       7
#    16   8  16  16   8  16  16
#     4  10  19  32  49  71  99 128 165 206 246 294
#     4  10  20  32  47  69  99 131 162 205 252 286
#     4   8  13  23  40  63  91 121 152 190 239 287
#     4   9  17  28  44  66  92 123 158 194 233 282
#     4  10  18  32  49  65  91 129 166 195 230 290
#     4   8  14  26  46  69  94 127 163 200 246 296
#     4  11  21  32  48  71  99 128 160 201 250 298
#
# _framework density 17.744084999999998
#
# number of rings (size 3 to 8) (size 9 to 14) (size 15 to 20)
#    0.000    2.667    1.667    2.500    0.000    2.667 
#    0.000    0.833    0.000    5.500    0.000    0.000 
#    0.000    8.000    0.000    0.000    0.000    0.000 
#
# Total GULP energy -594974.005315 kJ/mol
# GULP energy per Si atom -12395.291777 kJ/mol
# Density = 1.770370 g / cm^3
# Si number density = 17.744085 Si / 1000 Ang^3
#
#
#
# Elastic Constant Matrix: (Units=GPa)
#
#
# Indices 1 2 3 4 5 6 
#
# 1 162.6004 22.6913 92.7650 0.0000 0.0000 0.0000
# 2 22.6913 21.4043 16.1256 0.0000 0.0000 0.0000
# 3 92.7650 16.1256 159.2665 0.0000 0.0000 0.0000
# 4 0.0000 0.0000 0.0000 18.5087 0.0000 0.0000
# 5 0.0000 0.0000 0.0000 0.0000 27.6708 0.0000
# 6 0.0000 0.0000 0.0000 0.0000 0.0000 17.7243
#
#
#
# Elastic Compliance Matrix: (Units=1/GPa)
#
#
# Indices 1 2 3 4 5 6 
#
# 1 0.010038 -0.006752 -0.005163 0.000000 0.000000 0.000000
# 2 -0.006752 0.055119 -0.001648 0.000000 0.000000 0.000000
# 3 -0.005163 -0.001648 0.009453 0.000000 0.000000 0.000000
# 4 0.000000 0.000000 0.000000 0.054029 0.000000 0.000000
# 5 0.000000 0.000000 0.000000 0.000000 0.036139 0.000000
# 6 0.000000 0.000000 0.000000 0.000000 0.000000 0.056420
#
#
# Mechanical properties :
#
#
# Convention : Reuss Voigt Hill
#
# Bulk Modulus (GPa) = 21.05979 67.38168 44.22074
# Shear Modulus (GPa) = 18.92859 26.89337 22.91098
#
# Velocity S-wave (km/s) = 3.26966 3.89733 3.59721
# Velocity P-wave (km/s) = 5.11358 7.63602 6.49836
#
# Compressibility (1/GPa) = 0.04748385
#
# Stress axis : x y z
#
# Youngs Moduli (GPa) = 99.62406 18.14260 105.78882
#
# Poissons Ratio (x) = 0.12249 0.54618
# Poissons Ratio (y) = 0.67263 0.17436
# Poissons Ratio (z) = 0.51435 0.02990
#
# Static dielectric constant tensor:
#      x y z
#    x 3.526650 0.000000 0.000000 
#    y 0.000000 2.839320 0.000000 
#    z 0.000000 0.000000 3.518900 
# 
# 
# High freq. dielectric constant tensor:
#      x y z
#    x 1.692060 0.000000 0.000000 
#    y 0.000000 1.634160 0.000000 
#    z 0.000000 0.000000 1.692620 
# 
# From -- ./inp_files/61561.got.cif
#   From: 2010.06.25/outbox.cif.g09.slc.cpg/sg71_31_cif.got.tgz:61561.got - 2010.06.28 04:59:45.
