data_PCOD8287367
_publ_section_title
;
Structure prediction by ZEFSAII (Michael W. Deem and Ramdas Pophale) SiO2 
 PCOD8287367
Probable space group: I M M M
;
_chemical_formula_sum "Si O2"
_cell_formula_units_Z 104
_cell_length_a 9.080770
_cell_length_b 21.950087
_cell_length_c 27.920326
_cell_angle_alpha 90.000000
_cell_angle_beta 90.000000
_cell_angle_gamma 90.000000
_cell_volume 5565.182447
_symmetry_space_group_name_H-M "I M M M"
_symmetry_group_IT_number 71
_symmetry_cell_setting 'orthorhombic'
loop_
_space_group_symop_operation_xyz
x,y,z
-x,-y,z
x,-y,-z
-x,y,-z
-x,-y,-z
x,y,-z
-x,y,z
x,-y,z
1/2+x,1/2+y,1/2+z
1/2-x,1/2-y,1/2+z
1/2+x,1/2-y,1/2-z
1/2-x,1/2+y,1/2-z
1/2-x,1/2-y,1/2-z
1/2+x,1/2+y,1/2-z
1/2-x,1/2+y,1/2+z
1/2+x,1/2-y,1/2+z
loop_
_atom_site_type_symbol
_atom_site_label
_atom_site_fract_x
_atom_site_fract_y
_atom_site_fract_z
Si Si1 0.168086 0.143231 0.394830
Si Si2 0.832830 0.281042 0.591341
Si Si3 0.161488 0.069282 0.223583
Si Si4 0.668968 0.928115 0.314695
Si Si5 0.824401 0.000000 0.057021
Si Si6 0.170688 0.775731 0.000000
Si Si7 0.329119 0.091171 0.872837
Si Si8 0.834224 0.153815 0.500000
O O1 0.218214 0.214443 0.390121
O O2 0.273344 0.103090 0.362677
O O3 0.185405 0.117799 0.449812
O O4 0.000000 0.135598 0.377361
O O5 0.737604 0.305895 0.547148
O O6 0.814413 0.335203 0.629434
O O7 0.000000 0.274228 0.573808
O O8 0.245299 0.099612 0.268682
O O9 0.259561 0.069688 0.176427
O O10 0.000000 0.100261 0.215811
O O11 0.136473 0.000000 0.238101
O O12 0.500000 0.910538 0.307600
O O13 0.690168 0.000000 0.320462
O O14 0.754977 0.059862 0.082416
O O15 0.000000 0.000000 0.065266
O O16 0.787515 0.000000 0.000000
O O17 0.209916 0.704796 0.000000
O O18 0.000000 0.787779 0.000000
O O19 0.500000 0.071497 0.875316
O O20 0.000000 0.182381 0.500000
#
# Coordination Sequence:
#
# PCOD8287367 Si02
#       8
#    16  16  16  16   8   8  16   8
#     4   9  17  34  57  80 109 143 182 224 269 321
#     4   9  20  36  53  76 108 145 181 223 272 326
#     4  10  20  36  58  81 106 138 179 227 277 327
#     4  10  21  36  56  82 111 140 178 225 272 323
#     4  11  25  41  55  79 119 155 187 234 281 322
#     4  10  18  28  48  76 102 138 184 224 259 309
#     4  11  22  37  59  82 108 144 187 229 277 331
#     4   8  16  32  53  75 107 146 178 215 262 317
#
# _framework density 18.687618000000001
#
# number of rings (size 3 to 8) (size 9 to 14) (size 15 to 20)
#    0.000    2.231    0.769    3.231    1.077    5.846 
#    0.000    1.154    0.000    2.308    0.000    0.000 
#    0.000    0.000    0.000    0.000    0.000    0.000 
#
# Total GULP energy -644337.799020 kJ/mol
# GULP energy per Si atom -12391.111520 kJ/mol
# Density = 1.864508 g / cm^3
# Si number density = 18.687618 Si / 1000 Ang^3
#
#
#
# Elastic Constant Matrix: (Units=GPa)
#
#
# Indices 1 2 3 4 5 6 
#
# 1 118.9199 37.4106 60.9924 0.0000 0.0000 0.0000
# 2 37.4106 43.1503 34.5069 0.0000 0.0000 0.0000
# 3 60.9924 34.5069 129.8173 0.0000 0.0000 0.0000
# 4 0.0000 0.0000 0.0000 18.9487 0.0000 0.0000
# 5 0.0000 0.0000 0.0000 0.0000 26.1459 0.0000
# 6 0.0000 0.0000 0.0000 0.0000 0.0000 22.1347
#
#
#
# Elastic Compliance Matrix: (Units=1/GPa)
#
#
# Indices 1 2 3 4 5 6 
#
# 1 0.012980 -0.008098 -0.003946 0.000000 0.000000 0.000000
# 2 -0.008098 0.034483 -0.005361 0.000000 0.000000 0.000000
# 3 -0.003946 -0.005361 0.010982 0.000000 0.000000 0.000000
# 4 0.000000 0.000000 0.000000 0.052774 0.000000 0.000000
# 5 0.000000 0.000000 0.000000 0.000000 0.038247 0.000000
# 6 0.000000 0.000000 0.000000 0.000000 0.000000 0.045178
#
#
# Mechanical properties :
#
#
# Convention : Reuss Voigt Hill
#
# Bulk Modulus (GPa) = 42.31044 61.96749 52.13896
# Shear Modulus (GPa) = 21.06735 24.04436 22.55585
#
# Velocity S-wave (km/s) = 3.36123 3.59088 3.47795
# Velocity P-wave (km/s) = 6.14442 7.10100 6.63996
#
# Compressibility (1/GPa) = 0.02363483
#
# Stress axis : x y z
#
# Youngs Moduli (GPa) = 77.03867 28.99967 91.05651
#
# Poissons Ratio (x) = 0.23485 0.35931
# Poissons Ratio (y) = 0.62388 0.48817
# Poissons Ratio (z) = 0.30400 0.15547
#
# Static dielectric constant tensor:
#      x y z
#    x 3.558830 0.000000 0.000000 
#    y 0.000000 3.197300 0.000000 
#    z 0.000000 0.000000 3.448230 
# 
# 
# High freq. dielectric constant tensor:
#      x y z
#    x 1.734720 0.000000 0.000000 
#    y 0.000000 1.694650 0.000000 
#    z 0.000000 0.000000 1.726680 
# 
# From -- ./inp_files/63371.got.cif
#   From: 2010.06.25/outbox.cif.g09.slc.cpg/sg71_32_cif.got.tgz:63371.got - 2010.06.28 04:59:45.
