data_PCOD8287571
_publ_section_title
;
Structure prediction by ZEFSAII (Michael W. Deem and Ramdas Pophale) SiO2 
 PCOD8287571
Probable space group: I M M M
;
_chemical_formula_sum "Si O2"
_cell_formula_units_Z 112
_cell_length_a 18.459544
_cell_length_b 28.084132
_cell_length_c 13.689656
_cell_angle_alpha 90.000000
_cell_angle_beta 90.000000
_cell_angle_gamma 90.000000
_cell_volume 7096.995165
_symmetry_space_group_name_H-M "I M M M"
_symmetry_group_IT_number 71
_symmetry_cell_setting 'orthorhombic'
loop_
_space_group_symop_operation_xyz
x,y,z
-x,-y,z
x,-y,-z
-x,y,-z
-x,-y,-z
x,y,-z
-x,y,z
x,-y,z
1/2+x,1/2+y,1/2+z
1/2-x,1/2-y,1/2+z
1/2+x,1/2-y,1/2-z
1/2-x,1/2+y,1/2-z
1/2-x,1/2-y,1/2-z
1/2+x,1/2+y,1/2-z
1/2-x,1/2+y,1/2+z
1/2+x,1/2-y,1/2+z
loop_
_atom_site_type_symbol
_atom_site_label
_atom_site_fract_x
_atom_site_fract_y
_atom_site_fract_z
Si Si1 0.296573 0.104797 0.884659
Si Si2 0.915884 0.555469 0.736573
Si Si3 0.842799 0.050875 0.112872
Si Si4 0.918034 0.636158 0.887722
Si Si5 0.290067 0.208602 0.386226
Si Si6 0.286972 0.687661 0.698414
Si Si7 0.919488 0.858977 0.111846
O O1 0.370673 0.080627 0.849317
O O2 0.229495 0.074258 0.841848
O O3 0.281148 0.158722 0.847617
O O4 0.299824 0.106500 0.000000
O O5 0.893299 0.500000 0.753030
O O6 0.899463 0.586833 0.832688
O O7 0.000000 0.558252 0.706695
O O8 0.913291 0.084004 0.125575
O O9 0.857956 0.000000 0.163919
O O10 0.825623 0.043242 0.000000
O O11 0.863579 0.679303 0.861672
O O12 0.000000 0.653392 0.862608
O O13 0.910556 0.622316 0.000000
O O14 0.268229 0.202339 0.500000
O O15 0.299457 0.263493 0.359470
O O16 0.225862 0.191104 0.314846
O O17 0.364343 0.663116 0.687860
O O18 0.000000 0.841989 0.137283
O O19 0.898856 0.845191 0.000000
#
# Coordination Sequence:
#
# PCOD8287571 Si02
#       7
#    16  16  16  16  16  16  16
#     4  10  18  30  46  66  95 130 163 195 233 278
#     4  10  20  32  46  67  95 128 168 208 245 287
#     4   8  14  24  39  60  87 120 153 184 222 267
#     4   9  18  33  51  72  98 125 158 203 252 294
#     4  10  19  32  52  75  95 122 157 192 236 288
#     4  10  19  32  50  73  97 124 153 194 239 282
#     4   9  17  28  43  66  95 123 154 191 229 274
#
# _framework density 15.781326
#
# number of rings (size 3 to 8) (size 9 to 14) (size 15 to 20)
#    0.000    2.571    1.429    2.571    0.000    2.286 
#    0.000    5.000    0.000    0.429    0.000    0.000 
#    0.000    0.000    0.000    3.714    0.000    0.286 
#
# Total GULP energy -693780.320888 kJ/mol
# GULP energy per Si atom -12388.934302 kJ/mol
# Density = 1.574541 g / cm^3
# Si number density = 15.781326 Si / 1000 Ang^3
#
#
#
# Elastic Constant Matrix: (Units=GPa)
#
#
# Indices 1 2 3 4 5 6 
#
# 1 79.1247 45.6010 41.1721 0.0000 0.0000 0.0000
# 2 45.6010 115.1958 43.2495 0.0000 0.0000 0.0000
# 3 41.1721 43.2495 78.7380 0.0002 0.0001 0.0001
# 4 0.0000 0.0000 0.0002 19.0359 0.0000 0.0000
# 5 0.0000 0.0000 0.0001 0.0000 20.9120 0.0000
# 6 0.0000 0.0000 0.0001 0.0000 0.0000 22.5741
#
#
#
# Elastic Compliance Matrix: (Units=1/GPa)
#
#
# Indices 1 2 3 4 5 6 
#
# 1 0.019298 -0.004851 -0.007426 0.000000 0.000000 0.000000
# 2 -0.004851 0.012156 -0.004140 0.000000 0.000000 0.000000
# 3 -0.007426 -0.004140 0.018858 0.000000 0.000000 0.000000
# 4 0.000000 0.000000 0.000000 0.052532 0.000000 0.000000
# 5 0.000000 0.000000 0.000000 0.000000 0.047819 0.000000
# 6 0.000000 0.000000 0.000000 0.000000 0.000000 0.044298
#
#
# Mechanical properties :
#
#
# Convention : Reuss Voigt Hill
#
# Bulk Modulus (GPa) = 57.22089 59.23375 58.22732
# Shear Modulus (GPa) = 21.40198 22.04014 21.72106
#
# Velocity S-wave (km/s) = 3.68660 3.74116 3.71398
# Velocity P-wave (km/s) = 7.37961 7.50182 7.44097
#
# Compressibility (1/GPa) = 0.01747613
#
# Stress axis : x y z
#
# Youngs Moduli (GPa) = 51.81771 82.26618 53.02842
#
# Poissons Ratio (x) = 0.39909 0.39381
# Poissons Ratio (y) = 0.25138 0.21955
# Poissons Ratio (z) = 0.38482 0.34060
#
# Static dielectric constant tensor:
#      x y z
#    x 2.982260 0.000000 0.000000 
#    y 0.000000 3.301880 0.000000 
#    z 0.000000 0.000000 2.827620 
# 
# 
# High freq. dielectric constant tensor:
#      x y z
#    x 1.597690 0.000000 0.000000 
#    y 0.000000 1.618470 0.000000 
#    z 0.000000 0.000000 1.579400 
# 
# From -- ./inp_files/35404.got.cif
#   From: 2010.06.25/outbox.cif.g09.slc.cpg/sg71_18_cif.got.tgz:35404.got - 2010.06.28 04:59:45.
