data_PCOD8287270
_publ_section_title
;
Structure prediction by ZEFSAII (Michael W. Deem and Ramdas Pophale) SiO2 
 PCOD8287270
Probable space group: I M M M
;
_chemical_formula_sum "Si O2"
_cell_formula_units_Z 96
_cell_length_a 12.522091
_cell_length_b 23.608198
_cell_length_c 22.651557
_cell_angle_alpha 90.000000
_cell_angle_beta 90.000000
_cell_angle_gamma 90.000000
_cell_volume 6696.343970
_symmetry_space_group_name_H-M "I M M M"
_symmetry_group_IT_number 71
_symmetry_cell_setting 'orthorhombic'
loop_
_space_group_symop_operation_xyz
x,y,z
-x,-y,z
x,-y,-z
-x,y,-z
-x,-y,-z
x,y,-z
-x,y,z
x,-y,z
1/2+x,1/2+y,1/2+z
1/2-x,1/2-y,1/2+z
1/2+x,1/2-y,1/2-z
1/2-x,1/2+y,1/2-z
1/2-x,1/2-y,1/2-z
1/2+x,1/2+y,1/2-z
1/2-x,1/2+y,1/2+z
1/2+x,1/2-y,1/2+z
loop_
_atom_site_type_symbol
_atom_site_label
_atom_site_fract_x
_atom_site_fract_y
_atom_site_fract_z
Si Si1 0.208784 0.628097 0.430622
Si Si2 0.626960 0.562947 0.778630
Si Si3 0.372619 0.435943 0.000000
Si Si4 0.627199 0.367106 0.887973
Si Si5 0.000000 0.436022 0.429794
Si Si6 0.624370 0.565684 0.646311
Si Si7 0.122321 0.251813 0.568422
O O1 0.222349 0.617481 0.500000
O O2 0.313670 0.605594 0.398729
O O3 0.196020 0.694584 0.416491
O O4 0.105508 0.594998 0.405791
O O5 0.500000 0.561501 0.781000
O O6 0.670109 0.500000 0.793904
O O7 0.672381 0.607454 0.826541
O O8 0.662850 0.580500 0.712805
O O9 0.327664 0.404398 0.942011
O O10 0.329089 0.500000 0.000000
O O11 0.500000 0.435371 0.000000
O O12 0.500000 0.369332 0.889654
O O13 0.664171 0.301800 0.893831
O O14 0.000000 0.500000 0.405998
O O15 0.000000 0.433300 0.500000
O O16 0.500000 0.579055 0.638293
O O17 0.647823 0.500000 0.632168
O O18 0.130572 0.234819 0.500000
O O19 0.000000 0.267502 0.583719
#
# Coordination Sequence:
#
# PCOD8287270 Si02
#       7
#    16  16   8  16   8  16  16
#     4  10  18  28  42  60  80 106 134 171 208 246
#     4   8  14  25  39  54  76 107 138 166 199 239
#     4   9  14  18  28  54  84 106 133 168 197 229
#     4   9  14  21  35  55  78 109 137 165 194 236
#     4   9  16  26  40  60  80  98 124 165 211 251
#     4   9  18  31  44  58  78 105 138 173 206 245
#     4   9  15  25  38  55  83 111 138 160 195 240
#
# _framework density 14.336181
#
# number of rings (size 3 to 8) (size 9 to 14) (size 15 to 20)
#    0.000    3.000    1.667    2.000    0.000    3.333 
#    0.000    1.667    0.000    0.000    0.000    0.000 
#    0.000    0.000    0.000    0.000    0.000    1.417 
#
# Total GULP energy -594983.601564 kJ/mol
# GULP energy per Si atom -12395.491699 kJ/mol
# Density = 1.430355 g / cm^3
# Si number density = 14.336181 Si / 1000 Ang^3
#
#
#
# Elastic Constant Matrix: (Units=GPa)
#
#
# Indices 1 2 3 4 5 6 
#
# 1 36.5349 36.1303 30.4454 0.0000 0.0000 0.0000
# 2 36.1303 115.8096 61.5753 0.0000 0.0000 0.0000
# 3 30.4454 61.5753 77.7240 0.0000 0.0000 0.0000
# 4 0.0000 0.0000 0.0000 23.3300 0.0000 0.0000
# 5 0.0000 0.0000 0.0000 0.0000 9.1426 0.0000
# 6 0.0000 0.0000 0.0000 0.0000 0.0000 13.4878
#
#
#
# Elastic Compliance Matrix: (Units=1/GPa)
#
#
# Indices 1 2 3 4 5 6 
#
# 1 0.044530 -0.007979 -0.011121 0.000000 0.000000 0.000000
# 2 -0.007979 0.016349 -0.009827 0.000000 0.000000 0.000000
# 3 -0.011121 -0.009827 0.025007 0.000000 0.000000 0.000000
# 4 0.000000 0.000000 0.000000 0.042863 0.000000 0.000000
# 5 0.000000 0.000000 0.000000 0.000000 0.109378 0.000000
# 6 0.000000 0.000000 0.000000 0.000000 0.000000 0.074141
#
#
# Mechanical properties :
#
#
# Convention : Reuss Voigt Hill
#
# Bulk Modulus (GPa) = 35.67411 54.04116 44.85763
# Shear Modulus (GPa) = 13.17641 15.98659 14.58150
#
# Velocity S-wave (km/s) = 3.03496 3.34297 3.19268
# Velocity P-wave (km/s) = 6.10076 7.25796 6.70438
#
# Compressibility (1/GPa) = 0.02803154
#
# Stress axis : x y z
#
# Youngs Moduli (GPa) = 22.45699 61.16599 39.98816
#
# Poissons Ratio (x) = 0.48805 0.44473
# Poissons Ratio (y) = 0.17919 0.39295
# Poissons Ratio (z) = 0.24975 0.60106
#
# Static dielectric constant tensor:
#      x y z
#    x 2.314670 0.000000 0.000000 
#    y 0.000000 2.951440 0.000000 
#    z 0.000000 0.000000 2.817340 
# 
# 
# High freq. dielectric constant tensor:
#      x y z
#    x 1.486000 0.000000 0.000000 
#    y 0.000000 1.557420 0.000000 
#    z 0.000000 0.000000 1.537170 
# 
# From -- ./inp_files/59118.got.cif
#   From: 2010.06.25/outbox.cif.g09.slc.cpg/sg71_30_cif.got.tgz:59118.got - 2010.06.28 04:59:45.
