data_PCOD8287356
_publ_section_title
;
Structure prediction by ZEFSAII (Michael W. Deem and Ramdas Pophale) SiO2 
 PCOD8287356
Probable space group: I M M M
;
_chemical_formula_sum "Si O2"
_cell_formula_units_Z 96
_cell_length_a 13.240176
_cell_length_b 26.556435
_cell_length_c 14.669841
_cell_angle_alpha 90.000000
_cell_angle_beta 90.000000
_cell_angle_gamma 90.000000
_cell_volume 5158.090276
_symmetry_space_group_name_H-M "I M M M"
_symmetry_group_IT_number 71
_symmetry_cell_setting 'orthorhombic'
loop_
_space_group_symop_operation_xyz
x,y,z
-x,-y,z
x,-y,-z
-x,y,-z
-x,-y,-z
x,y,-z
-x,y,z
x,-y,z
1/2+x,1/2+y,1/2+z
1/2-x,1/2-y,1/2+z
1/2+x,1/2-y,1/2-z
1/2-x,1/2+y,1/2-z
1/2-x,1/2-y,1/2-z
1/2+x,1/2+y,1/2-z
1/2-x,1/2+y,1/2+z
1/2+x,1/2-y,1/2+z
loop_
_atom_site_type_symbol
_atom_site_label
_atom_site_fract_x
_atom_site_fract_y
_atom_site_fract_z
Si Si1 0.200121 0.443182 0.214169
Si Si2 0.611515 0.202460 0.163082
Si Si3 0.609781 0.846050 0.641073
Si Si4 0.690654 0.300665 0.098048
Si Si5 0.381179 0.903676 0.897903
Si Si6 0.615229 0.593734 0.107400
O O1 0.163150 0.500000 0.197209
O O2 0.131128 0.405365 0.155688
O O3 0.188923 0.431546 0.322888
O O4 0.315063 0.438427 0.176281
O O5 0.500000 0.220993 0.134498
O O6 0.612412 0.181986 0.263931
O O7 0.684990 0.250770 0.159564
O O8 0.646083 0.155889 0.099631
O O9 0.500000 0.840795 0.594113
O O10 0.694575 0.819284 0.581307
O O11 0.626926 0.347649 0.137437
O O12 0.646313 0.285087 0.000000
O O13 0.500000 0.910643 0.871752
O O14 0.359851 0.925184 0.000000
O O15 0.500000 0.576479 0.122423
O O16 0.645842 0.586893 0.000000
#
# Coordination Sequence:
#
# PCOD8287356 Si02
#       6
#    16  16  16  16  16  16
#     4  10  20  33  51  74  98 127 165 206 249 294
#     4   9  16  28  48  71  95 124 157 192 232 280
#     4   9  19  33  46  65  95 127 158 195 238 284
#     4  10  18  28  47  72  96 124 156 191 234 286
#     4   9  18  32  51  77 106 133 163 201 243 288
#     4   9  19  35  53  75 101 126 159 206 253 296
#
# _framework density 18.611540999999999
#
# number of rings (size 3 to 8) (size 9 to 14) (size 15 to 20)
#    0.000    2.667    0.000    3.000    0.000    4.333 
#    0.000    1.667    0.000    2.000    0.000    9.333 
#    0.000    0.000    0.000    0.000    0.000    0.000 
#
# Total GULP energy -594675.323066 kJ/mol
# GULP energy per Si atom -12389.069231 kJ/mol
# Density = 1.856918 g / cm^3
# Si number density = 18.611541 Si / 1000 Ang^3
#
#
#
# Elastic Constant Matrix: (Units=GPa)
#
#
# Indices 1 2 3 4 5 6 
#
# 1 87.0461 31.6802 36.7716 0.0001 0.0000 0.0000
# 2 31.6802 122.8455 26.4313 -0.0001 0.0000 0.0000
# 3 36.7716 26.4313 76.7689 -0.0002 0.0001 0.0001
# 4 0.0001 -0.0001 -0.0002 7.5808 0.0000 0.0000
# 5 0.0000 0.0000 0.0001 0.0000 26.6862 0.0000
# 6 0.0000 0.0000 0.0001 0.0000 0.0000 11.9926
#
#
#
# Elastic Compliance Matrix: (Units=1/GPa)
#
#
# Indices 1 2 3 4 5 6 
#
# 1 0.015094 -0.002524 -0.006361 0.000000 0.000000 0.000000
# 2 -0.002524 0.009214 -0.001963 0.000000 0.000000 0.000000
# 3 -0.006361 -0.001963 0.016749 0.000000 0.000000 0.000000
# 4 0.000000 0.000000 0.000000 0.131913 0.000000 0.000000
# 5 0.000000 0.000000 0.000000 0.000000 0.037473 0.000000
# 6 0.000000 0.000000 0.000000 0.000000 0.000000 0.083385
#
#
# Mechanical properties :
#
#
# Convention : Reuss Voigt Hill
#
# Bulk Modulus (GPa) = 51.65231 52.93629 52.29430
# Shear Modulus (GPa) = 15.52913 22.03708 18.78310
#
# Velocity S-wave (km/s) = 2.89170 3.44474 3.18027
# Velocity P-wave (km/s) = 6.24198 6.65779 6.45323
#
# Compressibility (1/GPa) = 0.01936022
#
# Stress axis : x y z
#
# Youngs Moduli (GPa) = 66.25249 108.53515 59.70564
#
# Poissons Ratio (x) = 0.27393 0.37978
# Poissons Ratio (y) = 0.16721 0.11722
# Poissons Ratio (z) = 0.42142 0.21309
#
# Static dielectric constant tensor:
#      x y z
#    x 3.553580 0.000000 0.000000 
#    y 0.000000 3.321150 0.000000 
#    z 0.000000 0.000000 3.355780 
# 
# 
# High freq. dielectric constant tensor:
#      x y z
#    x 1.703320 0.000000 0.000000 
#    y 0.000000 1.717780 0.000000 
#    z 0.000000 0.000000 1.713290 
# 
# From -- ./inp_files/43728.got.cif
#   From: 2010.06.25/outbox.cif.g09.slc.cpg/sg71_22_cif.got.tgz:43728.got - 2010.06.28 04:59:45.
