data_PCOD8287884
_publ_section_title
;
Structure prediction by ZEFSAII (Michael W. Deem and Ramdas Pophale) SiO2 
 PCOD8287884
Probable space group: I M M M
;
_chemical_formula_sum "Si O2"
_cell_formula_units_Z 88
_cell_length_a 28.222148
_cell_length_b 14.050175
_cell_length_c 11.010291
_cell_angle_alpha 90.000000
_cell_angle_beta 90.000000
_cell_angle_gamma 90.000000
_cell_volume 4365.867951
_symmetry_space_group_name_H-M "I M M M"
_symmetry_group_IT_number 71
_symmetry_cell_setting 'orthorhombic'
loop_
_space_group_symop_operation_xyz
x,y,z
-x,-y,z
x,-y,-z
-x,y,-z
-x,-y,-z
x,y,-z
-x,y,z
x,-y,z
1/2+x,1/2+y,1/2+z
1/2-x,1/2-y,1/2+z
1/2+x,1/2-y,1/2-z
1/2-x,1/2+y,1/2-z
1/2-x,1/2-y,1/2-z
1/2+x,1/2+y,1/2-z
1/2-x,1/2+y,1/2+z
1/2+x,1/2-y,1/2+z
loop_
_atom_site_type_symbol
_atom_site_label
_atom_site_fract_x
_atom_site_fract_y
_atom_site_fract_z
Si Si1 0.147324 0.605939 0.000000
Si Si2 0.500000 0.607406 0.859212
Si Si3 0.157942 0.106961 0.866594
Si Si4 0.052017 0.306096 0.000000
Si Si5 0.648659 0.888281 0.764978
Si Si6 0.582769 0.273012 0.252987
Si Si7 0.742854 0.818338 0.863557
O O1 0.089935 0.608728 0.000000
O O2 0.164192 0.651622 0.871534
O O3 0.166761 0.500000 0.000000
O O4 0.500000 0.500000 0.798365
O O5 0.546562 0.669365 0.830128
O O6 0.500000 0.590158 0.000000
O O7 0.131285 0.166931 0.764317
O O8 0.214639 0.106564 0.850356
O O9 0.139644 0.000000 0.855630
O O10 0.144867 0.149056 0.000000
O O11 0.057379 0.239788 0.118002
O O12 0.000000 0.352664 0.000000
O O13 0.601532 0.828023 0.804178
O O14 0.692568 0.872422 0.854124
O O15 0.634781 0.000000 0.760866
O O16 0.750000 0.750000 0.750000
O O17 0.744276 0.770713 0.000000
#
# Coordination Sequence:
#
# PCOD8287884 Si02
#       7
#     8   8  16   8  16  16  16
#     4   8  18  33  56  86 120 160 194 239 300 354
#     4  11  26  45  62  82 115 157 199 247 307 370
#     4  10  20  35  58  88 119 151 193 249 306 357
#     4  10  18  31  56  86 116 146 184 244 297 352
#     4  10  21  38  62  92 125 162 204 247 301 366
#     4  11  20  38  62  87 119 155 193 246 304 357
#     4  11  23  38  61  88 123 164 201 251 310 363
#
# _framework density 20.156358000000001
#
# number of rings (size 3 to 8) (size 9 to 14) (size 15 to 20)
#    0.000    1.727    3.636    1.091    1.273    2.000 
#    0.000    0.909    0.000    0.545    0.000    0.000 
#    0.000    0.000    0.000    0.000    0.000    0.000 
#
# Total GULP energy -545097.827833 kJ/mol
# GULP energy per Si atom -12388.586996 kJ/mol
# Density = 2.011048 g / cm^3
# Si number density = 20.156358 Si / 1000 Ang^3
#
#
#
# Elastic Constant Matrix: (Units=GPa)
#
#
# Indices 1 2 3 4 5 6 
#
# 1 119.8808 42.0915 31.0941 0.0000 0.0000 0.0000
# 2 42.0915 94.2642 33.9286 0.0000 0.0000 0.0000
# 3 31.0941 33.9286 83.5990 0.0000 0.0000 0.0000
# 4 0.0000 0.0000 0.0000 23.3500 0.0000 0.0000
# 5 0.0000 0.0000 0.0000 0.0000 30.9787 0.0000
# 6 0.0000 0.0000 0.0000 0.0000 0.0000 26.6837
#
#
#
# Elastic Compliance Matrix: (Units=1/GPa)
#
#
# Indices 1 2 3 4 5 6 
#
# 1 0.010254 -0.003754 -0.002290 0.000000 0.000000 0.000000
# 2 -0.003754 0.013798 -0.004203 0.000000 0.000000 0.000000
# 3 -0.002290 -0.004203 0.014520 0.000000 0.000000 0.000000
# 4 0.000000 0.000000 0.000000 0.042827 0.000000 0.000000
# 5 0.000000 0.000000 0.000000 0.000000 0.032280 0.000000
# 6 0.000000 0.000000 0.000000 0.000000 0.000000 0.037476
#
#
# Mechanical properties :
#
#
# Convention : Reuss Voigt Hill
#
# Bulk Modulus (GPa) = 55.32364 56.88583 56.10474
# Shear Modulus (GPa) = 28.14125 28.91113 28.52619
#
# Velocity S-wave (km/s) = 3.74056 3.79138 3.76606
# Velocity P-wave (km/s) = 6.79430 6.88837 6.84150
#
# Compressibility (1/GPa) = 0.01807546
#
# Stress axis : x y z
#
# Youngs Moduli (GPa) = 97.52476 72.47510 68.87227
#
# Poissons Ratio (x) = 0.27209 0.15773
# Poissons Ratio (y) = 0.36614 0.28950
# Poissons Ratio (z) = 0.22335 0.30465
#
# Static dielectric constant tensor:
#      x y z
#    x 3.676900 0.000000 0.000000 
#    y 0.000000 3.571380 0.000000 
#    z 0.000000 0.000000 3.718460 
# 
# 
# High freq. dielectric constant tensor:
#      x y z
#    x 1.782690 0.000000 0.000000 
#    y 0.000000 1.781770 0.000000 
#    z 0.000000 0.000000 1.769840 
# 
# From -- ./inp_files/28643.got.cif
#   From: 2010.06.25/outbox.cif.g09.slc.cpg/sg71_15_cif.got.tgz:28643.got - 2010.06.28 04:59:45.
