data_PCOD8287498
_publ_section_title
;
Structure prediction by ZEFSAII (Michael W. Deem and Ramdas Pophale) SiO2 
 PCOD8287498
Probable space group: I M M M
;
_chemical_formula_sum "Si O2"
_cell_formula_units_Z 88
_cell_length_a 15.162713
_cell_length_b 28.641123
_cell_length_c 11.523769
_cell_angle_alpha 90.000000
_cell_angle_beta 90.000000
_cell_angle_gamma 90.000000
_cell_volume 5004.509306
_symmetry_space_group_name_H-M "I M M M"
_symmetry_group_IT_number 71
_symmetry_cell_setting 'orthorhombic'
loop_
_space_group_symop_operation_xyz
x,y,z
-x,-y,z
x,-y,-z
-x,y,-z
-x,-y,-z
x,y,-z
-x,y,z
x,-y,z
1/2+x,1/2+y,1/2+z
1/2-x,1/2-y,1/2+z
1/2+x,1/2-y,1/2-z
1/2-x,1/2+y,1/2-z
1/2-x,1/2-y,1/2-z
1/2+x,1/2+y,1/2-z
1/2-x,1/2+y,1/2+z
1/2+x,1/2-y,1/2+z
loop_
_atom_site_type_symbol
_atom_site_label
_atom_site_fract_x
_atom_site_fract_y
_atom_site_fract_z
Si Si1 0.102566 0.691370 0.233033
Si Si2 0.316465 0.947480 0.245150
Si Si3 0.000000 0.554978 0.631464
Si Si4 0.099651 0.790527 0.866728
Si Si5 0.752135 0.359007 0.365188
Si Si6 0.135701 0.550097 0.000000
Si Si7 0.094678 0.349658 0.000000
O O1 0.114669 0.746664 0.217979
O O2 0.161678 0.672309 0.337519
O O3 0.142765 0.665958 0.117765
O O4 0.000000 0.678158 0.255741
O O5 0.413772 0.929565 0.204333
O O6 0.248210 0.909678 0.195949
O O7 0.305262 0.947809 0.384112
O O8 0.297672 0.000000 0.196846
O O9 0.000000 0.500000 0.621220
O O10 0.000000 0.576382 0.500000
O O11 0.164625 0.831465 0.826040
O O12 0.000000 0.809263 0.854469
O O13 0.118960 0.775323 0.000000
O O14 0.752452 0.369171 0.500000
O O15 0.083268 0.500000 0.000000
O O16 0.073775 0.595055 0.000000
O O17 0.000000 0.323008 0.000000
#
# Coordination Sequence:
#
# PCOD8287498 Si02
#       7
#    16  16   8  16  16   8   8
#     4  10  19  33  52  74 103 135 166 204 246 296
#     4  10  21  34  48  70  99 134 172 209 249 298
#     4   9  18  31  45  63  97 142 169 187 237 305
#     4   9  18  35  56  76  99 128 168 215 258 301
#     4  11  22  32  50  78 103 136 170 202 251 307
#     4  10  20  31  46  68  96 129 170 217 249 274
#     4  10  18  29  48  72  96 134 171 198 243 284
#
# _framework density 17.584140999999999
#
# number of rings (size 3 to 8) (size 9 to 14) (size 15 to 20)
#    0.000    2.091    2.727    1.091    2.545    1.636 
#    0.000    0.000    0.000    0.545    0.000    2.545 
#    0.000    2.182    0.000    0.000    0.000    0.000 
#
# Total GULP energy -545312.335583 kJ/mol
# GULP energy per Si atom -12393.462172 kJ/mol
# Density = 1.754412 g / cm^3
# Si number density = 17.584141 Si / 1000 Ang^3
#
#
#
# Elastic Constant Matrix: (Units=GPa)
#
#
# Indices 1 2 3 4 5 6 
#
# 1 68.2724 51.5393 23.1100 -0.0001 0.0000 0.0000
# 2 51.5393 113.6669 32.4489 0.0006 0.0002 0.0001
# 3 23.1100 32.4489 76.0065 -0.0005 0.0005 0.0001
# 4 -0.0001 0.0006 -0.0005 26.4558 0.0003 0.0002
# 5 0.0000 0.0002 0.0005 0.0003 16.0698 0.0000
# 6 0.0000 0.0001 0.0001 0.0002 0.0000 23.2272
#
#
#
# Elastic Compliance Matrix: (Units=1/GPa)
#
#
# Indices 1 2 3 4 5 6 
#
# 1 0.022807 -0.009522 -0.002869 0.000000 0.000000 0.000000
# 2 -0.009522 0.013994 -0.003079 0.000000 0.000000 0.000000
# 3 -0.002869 -0.003079 0.015344 0.000000 0.000000 0.000000
# 4 0.000000 0.000000 0.000000 0.037799 -0.000001 0.000000
# 5 0.000000 0.000000 0.000000 -0.000001 0.062228 0.000000
# 6 0.000000 0.000000 0.000000 0.000000 0.000000 0.043053
#
#
# Mechanical properties :
#
#
# Convention : Reuss Voigt Hill
#
# Bulk Modulus (GPa) = 47.16180 52.46025 49.81102
# Shear Modulus (GPa) = 21.43771 23.20707 22.32239
#
# Velocity S-wave (km/s) = 3.49542 3.63681 3.56682
# Velocity P-wave (km/s) = 6.57035 6.89447 6.73436
#
# Compressibility (1/GPa) = 0.02120360
#
# Stress axis : x y z
#
# Youngs Moduli (GPa) = 43.84685 71.45825 65.17305
#
# Poissons Ratio (x) = 0.68043 0.18700
# Poissons Ratio (y) = 0.41751 0.20068
# Poissons Ratio (z) = 0.12581 0.22004
#
# Static dielectric constant tensor:
#      x y z
#    x 2.958240 0.000000 0.000000 
#    y 0.000000 3.382290 0.000000 
#    z 0.000000 0.000000 3.320010 
# 
# 
# High freq. dielectric constant tensor:
#      x y z
#    x 1.626020 0.000000 0.000000 
#    y 0.000000 1.690260 0.000000 
#    z 0.000000 0.000000 1.679010 
# 
# From -- ./inp_files/22374.got.cif
#   From: 2010.06.25/outbox.cif.g09.slc.cpg/sg71_12_cif.got.tgz:22374.got - 2010.06.28 04:59:45.
