data_PCOD8287597
_publ_section_title
;
Structure prediction by ZEFSAII (Michael W. Deem and Ramdas Pophale) SiO2 
 PCOD8287597
Probable space group: I M M M
;
_chemical_formula_sum "Si O2"
_cell_formula_units_Z 80
_cell_length_a 26.954308
_cell_length_b 9.862169
_cell_length_c 16.697498
_cell_angle_alpha 90.000000
_cell_angle_beta 90.000000
_cell_angle_gamma 90.000000
_cell_volume 4438.661509
_symmetry_space_group_name_H-M "I M M M"
_symmetry_group_IT_number 71
_symmetry_cell_setting 'orthorhombic'
loop_
_space_group_symop_operation_xyz
x,y,z
-x,-y,z
x,-y,-z
-x,y,-z
-x,-y,-z
x,y,-z
-x,y,z
x,-y,z
1/2+x,1/2+y,1/2+z
1/2-x,1/2-y,1/2+z
1/2+x,1/2-y,1/2-z
1/2-x,1/2+y,1/2-z
1/2-x,1/2-y,1/2-z
1/2+x,1/2+y,1/2-z
1/2-x,1/2+y,1/2+z
1/2+x,1/2-y,1/2+z
loop_
_atom_site_type_symbol
_atom_site_label
_atom_site_fract_x
_atom_site_fract_y
_atom_site_fract_z
Si Si1 0.054767 0.741186 0.500000
Si Si2 0.193125 0.156142 0.092090
Si Si3 0.556259 0.152252 0.823521
Si Si4 0.781433 0.841788 0.356020
Si Si5 0.865692 0.846113 0.238791
Si Si6 0.343553 0.349584 0.000000
O O1 0.062896 0.653172 0.419901
O O2 0.096901 0.855156 0.500000
O O3 0.000000 0.808768 0.500000
O O4 0.232778 0.252569 0.134649
O O5 0.141682 0.172786 0.142766
O O6 0.211340 0.000000 0.096763
O O7 0.183502 0.199638 0.000000
O O8 0.500000 0.194832 0.801800
O O9 0.592474 0.250156 0.774941
O O10 0.567477 0.000000 0.794688
O O11 0.810384 0.816629 0.273197
O O12 0.820765 0.782655 0.420985
O O13 0.767029 0.000000 0.365934
O O14 0.881592 0.000000 0.260748
O O15 0.323138 0.500000 0.000000
#
# Coordination Sequence:
#
# PCOD8287597 Si02
#       6
#     8  16  16  16  16   8
#     4  10  19  33  52  75 106 142 176 209 250 298
#     4  10  21  36  53  76 104 134 173 218 260 305
#     4  10  21  36  54  78 107 136 169 210 253 302
#     4  10  19  33  51  73 105 140 173 210 253 301
#     4  10  21  36  54  76 104 137 173 214 257 304
#     4  10  18  30  47  74 110 142 171 209 253 298
#
# _framework density 18.023451999999999
#
# number of rings (size 3 to 8) (size 9 to 14) (size 15 to 20)
#    0.000    2.000    3.000    0.900    0.000    3.400 
#    0.000    2.000    0.000    0.600    0.000    4.200 
#    0.000    0.000    0.000    0.000    0.000    0.000 
#
# Total GULP energy -495585.510322 kJ/mol
# GULP energy per Si atom -12389.637758 kJ/mol
# Density = 1.798243 g / cm^3
# Si number density = 18.023452 Si / 1000 Ang^3
#
#
#
# Elastic Constant Matrix: (Units=GPa)
#
#
# Indices 1 2 3 4 5 6 
#
# 1 98.0583 61.2611 55.4292 0.0000 0.0000 0.0000
# 2 61.2611 91.4680 51.7526 0.0000 0.0000 0.0000
# 3 55.4292 51.7526 96.6767 0.0000 0.0000 0.0000
# 4 0.0000 0.0000 0.0000 12.3062 0.0000 0.0000
# 5 0.0000 0.0000 0.0000 0.0000 20.9054 0.0000
# 6 0.0000 0.0000 0.0000 0.0000 0.0000 30.8910
#
#
#
# Elastic Compliance Matrix: (Units=1/GPa)
#
#
# Indices 1 2 3 4 5 6 
#
# 1 0.019752 -0.009785 -0.006086 0.000000 0.000000 0.000000
# 2 -0.009785 0.020530 -0.005380 0.000000 0.000000 0.000000
# 3 -0.006086 -0.005380 0.016713 0.000000 0.000000 0.000000
# 4 0.000000 0.000000 0.000000 0.081260 0.000000 0.000000
# 5 0.000000 0.000000 0.000000 0.000000 0.047835 0.000000
# 6 0.000000 0.000000 0.000000 0.000000 0.000000 0.032372
#
#
# Mechanical properties :
#
#
# Convention : Reuss Voigt Hill
#
# Bulk Modulus (GPa) = 69.00164 69.23209 69.11686
# Shear Modulus (GPa) = 18.81147 20.67118 19.74132
#
# Velocity S-wave (km/s) = 3.23417 3.39027 3.31314
# Velocity P-wave (km/s) = 7.23284 7.33627 7.28474
#
# Compressibility (1/GPa) = 0.01449241
#
# Stress axis : x y z
#
# Youngs Moduli (GPa) = 50.62887 48.70831 59.83224
#
# Poissons Ratio (x) = 0.47661 0.36416
# Poissons Ratio (y) = 0.49540 0.32190
# Poissons Ratio (z) = 0.30815 0.26205
#
# Static dielectric constant tensor:
#      x y z
#    x 3.113510 0.000000 0.000000 
#    y 0.000000 3.155500 0.000000 
#    z 0.000000 0.000000 3.563820 
# 
# 
# High freq. dielectric constant tensor:
#      x y z
#    x 1.677930 0.000000 0.000000 
#    y 0.000000 1.686890 0.000000 
#    z 0.000000 0.000000 1.701530 
# 
# From -- ./inp_files/48637.got.cif
#   From: 2010.06.25/outbox.cif.g09.slc.cpg/sg71_25_cif.got.tgz:48637.got - 2010.06.28 04:59:45.
