data_PCOD8287039
_publ_section_title
;
Structure prediction by ZEFSAII (Michael W. Deem and Ramdas Pophale) SiO2 
 PCOD8287039
Probable space group: I M M M
;
_chemical_formula_sum "Si O2"
_cell_formula_units_Z 96
_cell_length_a 28.110455
_cell_length_b 8.788969
_cell_length_c 22.778030
_cell_angle_alpha 90.000000
_cell_angle_beta 90.000000
_cell_angle_gamma 90.000000
_cell_volume 5627.583770
_symmetry_space_group_name_H-M "I M M M"
_symmetry_group_IT_number 71
_symmetry_cell_setting 'orthorhombic'
loop_
_space_group_symop_operation_xyz
x,y,z
-x,-y,z
x,-y,-z
-x,y,-z
-x,-y,-z
x,y,-z
-x,y,z
x,-y,z
1/2+x,1/2+y,1/2+z
1/2-x,1/2-y,1/2+z
1/2+x,1/2-y,1/2-z
1/2-x,1/2+y,1/2-z
1/2-x,1/2-y,1/2-z
1/2+x,1/2+y,1/2-z
1/2-x,1/2+y,1/2+z
1/2+x,1/2-y,1/2+z
loop_
_atom_site_type_symbol
_atom_site_label
_atom_site_fract_x
_atom_site_fract_y
_atom_site_fract_z
Si Si1 0.859261 0.328722 0.701217
Si Si2 0.446983 0.180764 0.730051
Si Si3 0.896335 0.822240 0.874753
Si Si4 0.779151 0.318255 0.622981
Si Si5 0.130873 0.179857 0.000000
Si Si6 0.738348 0.680411 0.500000
Si Si7 0.307840 0.173239 0.679666
O O1 0.874456 0.500000 0.687764
O O2 0.908542 0.247953 0.723277
O O3 0.832972 0.265024 0.642454
O O4 0.819489 0.318859 0.751656
O O5 0.500000 0.233719 0.747973
O O6 0.435404 0.235652 0.664184
O O7 0.442527 0.000000 0.728668
O O8 0.843129 0.782911 0.855469
O O9 0.905601 0.000000 0.867297
O O10 0.899532 0.770257 0.942953
O O11 0.774088 0.500000 0.629696
O O12 0.767526 0.262699 0.557095
O O13 0.744512 0.236037 0.668745
O O14 0.184749 0.249363 0.000000
O O15 0.137944 0.000000 0.000000
O O16 0.736160 0.500000 0.500000
O O17 0.313051 0.000000 0.656994
#
# Coordination Sequence:
#
# PCOD8287039 Si02
#       7
#    16  16  16  16   8   8  16
#     4   8  16  28  44  65  85 111 146 179 218 266
#     4   9  18  34  51  67  89 111 137 183 236 277
#     4  10  18  30  48  66  87 117 154 188 215 253
#     4  10  17  28  44  62  87 118 152 183 210 251
#     4   9  16  28  43  63  88 118 155 184 213 246
#     4   9  16  26  42  63  88 120 154 182 209 242
#     4  10  18  28  41  63  93 119 147 179 218 262
#
# _framework density 17.05883
#
# number of rings (size 3 to 8) (size 9 to 14) (size 15 to 20)
#    0.000    2.667    1.667    2.500    0.000    0.333 
#    0.000    6.667    0.000    2.500    0.000    0.583 
#    0.000    4.667    0.000    0.000    0.000    9.500 
#
# Total GULP energy -594631.017511 kJ/mol
# GULP energy per Si atom -12388.146198 kJ/mol
# Density = 1.702000 g / cm^3
# Si number density = 17.058830 Si / 1000 Ang^3
#
#
#
# Elastic Constant Matrix: (Units=GPa)
#
#
# Indices 1 2 3 4 5 6 
#
# 1 125.3854 17.0504 52.2278 0.0000 0.0000 0.0000
# 2 17.0504 14.6837 13.1764 0.0000 0.0000 0.0000
# 3 52.2278 13.1764 54.4565 0.0000 0.0000 0.0000
# 4 0.0000 0.0000 0.0000 14.9422 0.0000 0.0000
# 5 0.0000 0.0000 0.0000 0.0000 16.0535 0.0000
# 6 0.0000 0.0000 0.0000 0.0000 0.0000 15.9787
#
#
#
# Elastic Compliance Matrix: (Units=1/GPa)
#
#
# Indices 1 2 3 4 5 6 
#
# 1 0.013587 -0.005216 -0.011769 0.000000 0.000000 0.000000
# 2 -0.005216 0.088993 -0.016530 0.000000 0.000000 0.000000
# 3 -0.011769 -0.016530 0.033650 0.000000 0.000000 0.000000
# 4 0.000000 0.000000 0.000000 0.066924 0.000000 0.000000
# 5 0.000000 0.000000 0.000000 0.000000 0.062292 0.000000
# 6 0.000000 0.000000 0.000000 0.000000 0.000000 0.062583
#
#
# Mechanical properties :
#
#
# Convention : Reuss Voigt Hill
#
# Bulk Modulus (GPa) = 14.45095 39.93720 27.19407
# Shear Modulus (GPa) = 11.95812 16.86629 14.41221
#
# Velocity S-wave (km/s) = 2.65050 3.14779 2.90979
# Velocity P-wave (km/s) = 4.22569 6.05588 5.22160
#
# Compressibility (1/GPa) = 0.06919963
#
# Stress axis : x y z
#
# Youngs Moduli (GPa) = 73.60093 11.23683 29.71769
#
# Poissons Ratio (x) = 0.05861 0.34974
# Poissons Ratio (y) = 0.38391 0.49125
# Poissons Ratio (z) = 0.86618 0.18575
#
# Static dielectric constant tensor:
#      x y z
#    x 3.253090 0.000000 0.000000 
#    y 0.000000 2.930340 0.000000 
#    z 0.000000 0.000000 3.367020 
# 
# 
# High freq. dielectric constant tensor:
#      x y z
#    x 1.640420 0.000000 0.000000 
#    y 0.000000 1.629360 0.000000 
#    z 0.000000 0.000000 1.644610 
# 
# From -- ./inp_files/61874.got.cif
#   From: 2010.06.25/outbox.cif.g09.slc.cpg/sg71_31_cif.got.tgz:61874.got - 2010.06.28 04:59:45.
