data_PCOD8287280
_publ_section_title
;
Structure prediction by ZEFSAII (Michael W. Deem and Ramdas Pophale) SiO2 
 PCOD8287280
Probable space group: I M M M
;
_chemical_formula_sum "Si O2"
_cell_formula_units_Z 96
_cell_length_a 29.226817
_cell_length_b 28.131925
_cell_length_c 8.574285
_cell_angle_alpha 90.000000
_cell_angle_beta 90.000000
_cell_angle_gamma 90.000000
_cell_volume 7049.833922
_symmetry_space_group_name_H-M "I M M M"
_symmetry_group_IT_number 71
_symmetry_cell_setting 'orthorhombic'
loop_
_space_group_symop_operation_xyz
x,y,z
-x,-y,z
x,-y,-z
-x,y,-z
-x,-y,-z
x,y,-z
-x,y,z
x,-y,z
1/2+x,1/2+y,1/2+z
1/2-x,1/2-y,1/2+z
1/2+x,1/2-y,1/2-z
1/2-x,1/2+y,1/2-z
1/2-x,1/2-y,1/2-z
1/2+x,1/2+y,1/2-z
1/2-x,1/2+y,1/2+z
1/2+x,1/2-y,1/2+z
loop_
_atom_site_type_symbol
_atom_site_label
_atom_site_fract_x
_atom_site_fract_y
_atom_site_fract_z
Si Si1 0.551743 0.910584 0.679786
Si Si2 0.097401 0.500000 0.679500
Si Si3 0.763072 0.183032 0.682632
Si Si4 0.177885 0.734933 0.321782
Si Si5 0.219418 0.401054 0.317226
Si Si6 0.365403 0.847251 0.678942
Si Si7 0.196481 0.500000 0.182930
O O1 0.556145 0.926531 0.500000
O O2 0.500000 0.895991 0.721677
O O3 0.566810 0.954116 0.786843
O O4 0.583305 0.864740 0.714599
O O5 0.112803 0.500000 0.500000
O O6 0.142419 0.500000 0.784772
O O7 0.750811 0.188903 0.500000
O O8 0.812193 0.209028 0.716734
O O9 0.725197 0.207766 0.790377
O O10 0.761225 0.127746 0.733097
O O11 0.163369 0.728693 0.500000
O O12 0.138270 0.709235 0.220041
O O13 0.227775 0.400698 0.500000
O O14 0.170074 0.377968 0.280014
O O15 0.221066 0.454486 0.255977
O O16 0.352139 0.855441 0.500000
O O17 0.204163 0.500000 0.000000
#
# Coordination Sequence:
#
# PCOD8287280 Si02
#       7
#    16   8  16  16  16  16   8
#     4  10  21  35  47  57  73  99 127 158 199 245
#     4  12  23  33  46  61  72  90 122 164 206 241
#     4   9  16  26  39  56  76  99 120 142 178 223
#     4   9  16  25  39  57  77  96 118 147 179 219
#     4  11  20  29  42  59  77  95 120 156 189 223
#     4  10  18  28  43  58  74  97 122 151 190 235
#     4  12  22  33  45  56  74 101 128 156 191 237
#
# _framework density 13.617343
#
# number of rings (size 3 to 8) (size 9 to 14) (size 15 to 20)
#    0.000    1.833    1.667    6.750    0.000    4.000 
#    0.000    0.000    0.000    0.000    0.000    0.000 
#    0.000    0.000    0.000    0.000    0.000    0.000 
#
# Total GULP energy -594881.181352 kJ/mol
# GULP energy per Si atom -12393.357945 kJ/mol
# Density = 1.358635 g / cm^3
# Si number density = 13.617343 Si / 1000 Ang^3
#
#
#
# Elastic Constant Matrix: (Units=GPa)
#
#
# Indices 1 2 3 4 5 6 
#
# 1 46.6051 50.8274 18.1782 0.0000 0.0000 0.0000
# 2 50.8274 98.9200 28.2437 0.0000 0.0000 0.0000
# 3 18.1782 28.2437 60.1279 0.0000 0.0000 0.0000
# 4 0.0000 0.0000 0.0000 22.7334 0.0000 0.0000
# 5 0.0000 0.0000 0.0000 0.0000 11.0301 0.0000
# 6 0.0000 0.0000 0.0000 0.0000 0.0000 7.2063
#
#
#
# Elastic Compliance Matrix: (Units=1/GPa)
#
#
# Indices 1 2 3 4 5 6 
#
# 1 0.049430 -0.024404 -0.003481 0.000000 0.000000 0.000000
# 2 -0.024404 0.023724 -0.003766 0.000000 0.000000 0.000000
# 3 -0.003481 -0.003766 0.019452 0.000000 0.000000 0.000000
# 4 0.000000 0.000000 0.000000 0.043988 0.000000 0.000000
# 5 0.000000 0.000000 0.000000 0.000000 0.090661 0.000000
# 6 0.000000 0.000000 0.000000 0.000000 0.000000 0.138767
#
#
# Mechanical properties :
#
#
# Convention : Reuss Voigt Hill
#
# Bulk Modulus (GPa) = 34.12407 44.46129 39.29268
# Shear Modulus (GPa) = 11.38714 15.42088 13.40401
#
# Velocity S-wave (km/s) = 2.89489 3.36883 3.14081
# Velocity P-wave (km/s) = 6.02391 6.91762 6.48617
#
# Compressibility (1/GPa) = 0.02930483
#
# Stress axis : x y z
#
# Youngs Moduli (GPa) = 20.23073 42.15158 51.40774
#
# Poissons Ratio (x) = 1.02868 0.17892
# Poissons Ratio (y) = 0.49372 0.19359
# Poissons Ratio (z) = 0.07041 0.15873
#
# Static dielectric constant tensor:
#      x y z
#    x 2.539170 0.000000 0.000000 
#    y 0.000000 3.103800 0.000000 
#    z 0.000000 0.000000 2.793430 
# 
# 
# High freq. dielectric constant tensor:
#      x y z
#    x 1.462300 0.000000 0.000000 
#    y 0.000000 1.511770 0.000000 
#    z 0.000000 0.000000 1.537110 
# 
# From -- ./inp_files/17541.got.cif
#   From: 2010.06.25/outbox.cif.g09.slc.cpg/sg71_9_cif.got.tgz:17541.got - 2010.06.28 04:59:45.
