data_PCOD8287735
_publ_section_title
;
Structure prediction by ZEFSAII (Michael W. Deem and Ramdas Pophale) SiO2 
 PCOD8287735
Probable space group: I M M M
;
_chemical_formula_sum "Si O2"
_cell_formula_units_Z 80
_cell_length_a 21.802031
_cell_length_b 8.776201
_cell_length_c 21.738985
_cell_angle_alpha 90.000000
_cell_angle_beta 90.000000
_cell_angle_gamma 90.000000
_cell_volume 4159.515787
_symmetry_space_group_name_H-M "I M M M"
_symmetry_group_IT_number 71
_symmetry_cell_setting 'orthorhombic'
loop_
_space_group_symop_operation_xyz
x,y,z
-x,-y,z
x,-y,-z
-x,y,-z
-x,-y,-z
x,y,-z
-x,y,z
x,-y,z
1/2+x,1/2+y,1/2+z
1/2-x,1/2-y,1/2+z
1/2+x,1/2-y,1/2-z
1/2-x,1/2+y,1/2-z
1/2-x,1/2-y,1/2-z
1/2+x,1/2+y,1/2-z
1/2-x,1/2+y,1/2+z
1/2+x,1/2-y,1/2+z
loop_
_atom_site_type_symbol
_atom_site_label
_atom_site_fract_x
_atom_site_fract_y
_atom_site_fract_z
Si Si1 0.682684 0.318936 0.739002
Si Si2 0.931107 0.817265 0.000000
Si Si3 0.000000 0.679516 0.429105
Si Si4 0.788695 0.331109 0.430696
Si Si5 0.345768 0.322327 0.394595
Si Si6 0.612533 0.324758 0.141559
O O1 0.691641 0.500000 0.738246
O O2 0.750000 0.250000 0.750000
O O3 0.655911 0.254427 0.674471
O O4 0.631060 0.272389 0.789384
O O5 0.898652 0.751715 0.061862
O O6 0.000000 0.756145 0.000000
O O7 0.927279 0.000000 0.000000
O O8 0.058836 0.728197 0.389560
O O9 0.000000 0.500000 0.433910
O O10 0.000000 0.745580 0.500000
O O11 0.812233 0.335012 0.500000
O O12 0.799289 0.500000 0.400970
O O13 0.717801 0.287383 0.428535
O O14 0.825567 0.199918 0.396497
O O15 0.358173 0.500000 0.388587
O O16 0.592386 0.500000 0.139860
#
# Coordination Sequence:
#
# PCOD8287735 Si02
#       6
#    16   8   8  16  16  16
#     4  10  20  34  54  81 114 149 184 226 281 338
#     4   9  16  28  48  78 109 140 183 232 279 319
#     4  11  25  45  65  83 107 150 201 236 280 345
#     4  10  18  30  53  80 107 143 189 235 282 335
#     4   9  16  29  48  74 109 145 179 226 278 323
#     4  11  23  37  55  83 117 150 185 232 292 343
#
# _framework density 19.233007000000001
#
# number of rings (size 3 to 8) (size 9 to 14) (size 15 to 20)
#    0.000    2.000    3.000    1.500    0.000    4.400 
#    1.800    0.000    0.000    0.000    0.000    0.000 
#    0.000    3.200    0.000    0.000    0.000    0.000 
#
# Total GULP energy -495702.128392 kJ/mol
# GULP energy per Si atom -12392.553210 kJ/mol
# Density = 1.918923 g / cm^3
# Si number density = 19.233007 Si / 1000 Ang^3
#
#
#
# Elastic Constant Matrix: (Units=GPa)
#
#
# Indices 1 2 3 4 5 6 
#
# 1 111.8873 23.1770 77.3848 0.0000 0.0000 0.0000
# 2 23.1770 29.6129 25.4009 0.0000 0.0000 0.0000
# 3 77.3848 25.4009 172.7870 0.0000 0.0000 0.0000
# 4 0.0000 0.0000 0.0000 19.4224 0.0000 0.0000
# 5 0.0000 0.0000 0.0000 0.0000 30.7906 0.0000
# 6 0.0000 0.0000 0.0000 0.0000 0.0000 18.9182
#
#
#
# Elastic Compliance Matrix: (Units=1/GPa)
#
#
# Indices 1 2 3 4 5 6 
#
# 1 0.013918 -0.006347 -0.005300 0.000000 0.000000 0.000000
# 2 -0.006347 0.041536 -0.003264 0.000000 0.000000 0.000000
# 3 -0.005300 -0.003264 0.008641 0.000000 0.000000 0.000000
# 4 0.000000 0.000000 0.000000 0.051487 0.000000 0.000000
# 5 0.000000 0.000000 0.000000 0.000000 0.032477 0.000000
# 6 0.000000 0.000000 0.000000 0.000000 0.000000 0.052859
#
#
# Mechanical properties :
#
#
# Convention : Reuss Voigt Hill
#
# Bulk Modulus (GPa) = 29.17699 62.91252 46.04476
# Shear Modulus (GPa) = 20.64710 26.38120 23.51415
#
# Velocity S-wave (km/s) = 3.28002 3.70761 3.50035
# Velocity P-wave (km/s) = 5.43580 7.14914 6.35052
#
# Compressibility (1/GPa) = 0.03427358
#
# Stress axis : x y z
#
# Youngs Moduli (GPa) = 71.84827 24.07561 115.72594
#
# Poissons Ratio (x) = 0.15280 0.61340
# Poissons Ratio (y) = 0.45600 0.37768
# Poissons Ratio (z) = 0.38083 0.07857
#
# Static dielectric constant tensor:
#      x y z
#    x 3.508670 0.000000 0.000000 
#    y 0.000000 3.181960 0.000000 
#    z 0.000000 0.000000 4.042970 
# 
# 
# High freq. dielectric constant tensor:
#      x y z
#    x 1.740690 0.000000 0.000000 
#    y 0.000000 1.706870 0.000000 
#    z 0.000000 0.000000 1.766850 
# 
# From -- ./inp_files/10276.got.cif
#   From: 2010.06.25/outbox.cif.g09.slc.cpg/sg71_6_cif.got.tgz:10276.got - 2010.06.28 04:59:45.
