data_PCOD8287753
_publ_section_title
;
Structure prediction by ZEFSAII (Michael W. Deem and Ramdas Pophale) SiO2 
 PCOD8287753
Probable space group: I M M M
;
_chemical_formula_sum "Si O2"
_cell_formula_units_Z 72
_cell_length_a 8.802236
_cell_length_b 28.038034
_cell_length_c 19.092231
_cell_angle_alpha 90.000000
_cell_angle_beta 90.000000
_cell_angle_gamma 90.000000
_cell_volume 4711.912823
_symmetry_space_group_name_H-M "I M M M"
_symmetry_group_IT_number 71
_symmetry_cell_setting 'orthorhombic'
loop_
_space_group_symop_operation_xyz
x,y,z
-x,-y,z
x,-y,-z
-x,y,-z
-x,-y,-z
x,y,-z
-x,y,z
x,-y,z
1/2+x,1/2+y,1/2+z
1/2-x,1/2-y,1/2+z
1/2+x,1/2-y,1/2-z
1/2-x,1/2+y,1/2-z
1/2-x,1/2-y,1/2-z
1/2+x,1/2+y,1/2-z
1/2-x,1/2+y,1/2+z
1/2+x,1/2-y,1/2+z
loop_
_atom_site_type_symbol
_atom_site_label
_atom_site_fract_x
_atom_site_fract_y
_atom_site_fract_z
Si Si1 0.821425 0.000000 0.079022
Si Si2 0.825495 0.815538 0.783516
Si Si3 0.822382 0.229565 0.641808
Si Si4 0.821860 0.261365 0.000000
Si Si5 0.676395 0.159204 0.000000
Si Si6 0.175615 0.897905 0.120587
O O1 0.771470 0.046795 0.123260
O O2 0.000000 0.000000 0.070573
O O3 0.750469 0.000000 0.000000
O O4 0.776111 0.808026 0.702784
O O5 0.727549 0.782627 0.835375
O O6 0.803821 0.871247 0.804444
O O7 0.000000 0.799375 0.792886
O O8 0.742126 0.213380 0.569997
O O9 0.000000 0.230396 0.627435
O O10 0.776866 0.206297 0.000000
O O11 0.000000 0.266944 0.000000
O O12 0.714750 0.128141 0.932851
O O13 0.500000 0.173510 0.000000
O O14 0.000000 0.894207 0.095609
#
# Coordination Sequence:
#
# PCOD8287753 Si02
#       6
#     8  16  16   8   8  16
#     4   9  16  26  44  68  88 115 154 187 211 246
#     4   9  18  30  45  63  87 119 149 179 217 261
#     4  10  19  30  44  65  88 112 147 185 219 257
#     4  12  22  32  45  63  86 117 150 182 225 271
#     4  12  22  29  41  64  87 116 151 189 224 257
#     4  10  18  31  47  62  86 120 154 185 216 256
#
# _framework density 15.280417999999999
#
# number of rings (size 3 to 8) (size 9 to 14) (size 15 to 20)
#    0.000    1.889    3.333    2.667    0.000    0.889 
#    0.000    1.111    0.000    0.000    0.000    0.000 
#    0.000    0.889    0.000   11.333    0.000    1.111 
#
# Total GULP energy -446232.048644 kJ/mol
# GULP energy per Si atom -12395.334685 kJ/mol
# Density = 1.524564 g / cm^3
# Si number density = 15.280418 Si / 1000 Ang^3
#
#
#
# Elastic Constant Matrix: (Units=GPa)
#
#
# Indices 1 2 3 4 5 6 
#
# 1 60.5111 11.9907 37.3460 0.0000 0.0000 0.0000
# 2 11.9907 92.5057 51.9815 0.0000 0.0000 0.0000
# 3 37.3460 51.9815 120.0155 -0.0003 0.0000 0.0000
# 4 0.0000 0.0000 -0.0003 18.1814 0.0000 0.0000
# 5 0.0000 0.0000 0.0000 0.0000 22.2055 0.0000
# 6 0.0000 0.0000 0.0000 0.0000 0.0000 12.1170
#
#
#
# Elastic Compliance Matrix: (Units=1/GPa)
#
#
# Indices 1 2 3 4 5 6 
#
# 1 0.020559 0.001229 -0.006930 0.000000 0.000000 0.000000
# 2 0.001229 0.014361 -0.006603 0.000000 0.000000 0.000000
# 3 -0.006930 -0.006603 0.013348 0.000000 0.000000 0.000000
# 4 0.000000 0.000000 0.000000 0.055001 0.000000 0.000000
# 5 0.000000 0.000000 0.000000 0.000000 0.045034 0.000000
# 6 0.000000 0.000000 0.000000 0.000000 0.000000 0.082529
#
#
# Mechanical properties :
#
#
# Convention : Reuss Voigt Hill
#
# Bulk Modulus (GPa) = 42.26171 52.85207 47.55689
# Shear Modulus (GPa) = 18.98781 21.94838 20.46810
#
# Velocity S-wave (km/s) = 3.52891 3.79406 3.66389
# Velocity P-wave (km/s) = 6.65746 7.33869 7.00636
#
# Compressibility (1/GPa) = 0.02366208
#
# Stress axis : x y z
#
# Youngs Moduli (GPa) = 48.63966 69.63314 74.91508
#
# Poissons Ratio (x) = -0.08560 0.51916
# Poissons Ratio (y) = -0.05979 0.49463
# Poissons Ratio (z) = 0.33707 0.45976
#
# Static dielectric constant tensor:
#      x y z
#    x 2.893280 0.000000 0.000000 
#    y 0.000000 2.954410 0.000000 
#    z 0.000000 0.000000 3.112210 
# 
# 
# High freq. dielectric constant tensor:
#      x y z
#    x 1.584670 0.000000 0.000000 
#    y 0.000000 1.551900 0.000000 
#    z 0.000000 0.000000 1.576100 
# 
# From -- ./inp_files/31711.got.cif
#   From: 2010.06.25/outbox.cif.g09.slc.cpg/sg71_16_cif.got.tgz:31711.got - 2010.06.28 04:59:45.
