data_PCOD8287836
_publ_section_title
;
Structure prediction by ZEFSAII (Michael W. Deem and Ramdas Pophale) SiO2 
 PCOD8287836
Probable space group: I M M M
;
_chemical_formula_sum "Si O2"
_cell_formula_units_Z 96
_cell_length_a 28.845632
_cell_length_b 19.809861
_cell_length_c 9.181935
_cell_angle_alpha 90.000000
_cell_angle_beta 90.000000
_cell_angle_gamma 90.000000
_cell_volume 5246.814389
_symmetry_space_group_name_H-M "I M M M"
_symmetry_group_IT_number 71
_symmetry_cell_setting 'orthorhombic'
loop_
_space_group_symop_operation_xyz
x,y,z
-x,-y,z
x,-y,-z
-x,y,-z
-x,-y,-z
x,y,-z
-x,y,z
x,-y,z
1/2+x,1/2+y,1/2+z
1/2-x,1/2-y,1/2+z
1/2+x,1/2-y,1/2-z
1/2-x,1/2+y,1/2-z
1/2-x,1/2-y,1/2-z
1/2+x,1/2+y,1/2-z
1/2-x,1/2+y,1/2+z
1/2+x,1/2-y,1/2+z
loop_
_atom_site_type_symbol
_atom_site_label
_atom_site_fract_x
_atom_site_fract_y
_atom_site_fract_z
Si Si1 0.595499 0.207721 0.673870
Si Si2 0.639957 0.578260 0.170520
Si Si3 0.948334 0.572383 0.827350
Si Si4 0.552811 0.332716 0.830902
Si Si5 0.197655 0.303154 0.161076
Si Si6 0.723490 0.349649 0.661801
O O1 0.592841 0.215316 0.500000
O O2 0.579094 0.135681 0.735599
O O3 0.563895 0.265962 0.740316
O O4 0.647806 0.210912 0.733559
O O5 0.639759 0.500000 0.216401
O O6 0.589452 0.608607 0.211650
O O7 0.680129 0.617082 0.256685
O O8 0.650230 0.587023 0.000000
O O9 0.925665 0.500000 0.781737
O O10 0.000000 0.575589 0.764060
O O11 0.949726 0.578107 0.000000
O O12 0.500000 0.356570 0.795082
O O13 0.557674 0.314698 0.000000
O O14 0.228194 0.358341 0.250131
O O15 0.220652 0.230433 0.148502
O O16 0.191545 0.334850 0.000000
O O17 0.726860 0.381783 0.500000
#
# Coordination Sequence:
#
# PCOD8287836 Si02
#       6
#    16  16  16  16  16  16
#     4  10  18  31  52  78 105 136 173 216 260 306
#     4  10  21  37  56  76 103 141 181 222 270 324
#     4   8  14  25  43  69  99 130 164 201 243 292
#     4  10  21  35  52  77 107 137 175 224 273 322
#     4   9  18  31  50  77 106 132 166 209 255 310
#     4  10  19  33  53  77 103 133 168 210 259 311
#
# _framework density 18.296816
#
# number of rings (size 3 to 8) (size 9 to 14) (size 15 to 20)
#    0.000    2.500    1.667    1.500    0.000    3.000 
#    0.000    2.500    0.000    3.500    0.000    4.667 
#    0.000    0.000    0.000    0.000    0.000    0.000 
#
# Total GULP energy -594770.818428 kJ/mol
# GULP energy per Si atom -12391.058717 kJ/mol
# Density = 1.825517 g / cm^3
# Si number density = 18.296816 Si / 1000 Ang^3
#
#
#
# Elastic Constant Matrix: (Units=GPa)
#
#
# Indices 1 2 3 4 5 6 
#
# 1 104.3280 31.5117 41.6198 0.0000 0.0000 0.0000
# 2 31.5117 78.9010 33.3643 0.0000 0.0000 0.0000
# 3 41.6198 33.3643 60.1041 0.0000 0.0000 0.0000
# 4 0.0000 0.0000 0.0000 16.9765 0.0000 0.0000
# 5 0.0000 0.0000 0.0000 0.0000 23.8736 0.0000
# 6 0.0000 0.0000 0.0000 0.0000 0.0000 20.2490
#
#
#
# Elastic Compliance Matrix: (Units=1/GPa)
#
#
# Indices 1 2 3 4 5 6 
#
# 1 0.013452 -0.001873 -0.008275 0.000000 0.000000 0.000000
# 2 -0.001873 0.016823 -0.008041 0.000000 0.000000 0.000000
# 3 -0.008275 -0.008041 0.026832 0.000000 0.000000 0.000000
# 4 0.000000 0.000000 0.000000 0.058905 0.000000 0.000000
# 5 0.000000 0.000000 0.000000 0.000000 0.041887 0.000000
# 6 0.000000 0.000000 0.000000 0.000000 0.000000 0.049385
#
#
# Mechanical properties :
#
#
# Convention : Reuss Voigt Hill
#
# Bulk Modulus (GPa) = 48.24588 50.70276 49.47432
# Shear Modulus (GPa) = 19.95427 21.34228 20.64827
#
# Velocity S-wave (km/s) = 3.30599 3.41903 3.36299
# Velocity P-wave (km/s) = 6.40300 6.58466 6.49447
#
# Compressibility (1/GPa) = 0.02072716
#
# Stress axis : x y z
#
# Youngs Moduli (GPa) = 74.33702 59.44381 37.26916
#
# Poissons Ratio (x) = 0.11136 0.30841
# Poissons Ratio (y) = 0.13926 0.29969
# Poissons Ratio (z) = 0.61516 0.47800
#
# Static dielectric constant tensor:
#      x y z
#    x 3.540740 0.000000 0.000000 
#    y 0.000000 3.358680 0.000000 
#    z 0.000000 0.000000 3.355880 
# 
# 
# High freq. dielectric constant tensor:
#      x y z
#    x 1.716200 0.000000 0.000000 
#    y 0.000000 1.693280 0.000000 
#    z 0.000000 0.000000 1.686810 
# 
# From -- ./inp_files/14810.got.cif
#   From: 2010.06.25/outbox.cif.g09.slc.cpg/sg71_8_cif.got.tgz:14810.got - 2010.06.28 04:59:45.
