data_PCOD8287162
_publ_section_title
;
Structure prediction by ZEFSAII (Michael W. Deem and Ramdas Pophale) SiO2 
 PCOD8287162
Probable space group: I M M M
;
_chemical_formula_sum "Si O2"
_cell_formula_units_Z 72
_cell_length_a 36.491868
_cell_length_b 7.675170
_cell_length_c 21.111462
_cell_angle_alpha 90.000000
_cell_angle_beta 90.000000
_cell_angle_gamma 90.000000
_cell_volume 5912.925522
_symmetry_space_group_name_H-M "I M M M"
_symmetry_group_IT_number 71
_symmetry_cell_setting 'orthorhombic'
loop_
_space_group_symop_operation_xyz
x,y,z
-x,-y,z
x,-y,-z
-x,y,-z
-x,-y,-z
x,y,-z
-x,y,z
x,-y,z
1/2+x,1/2+y,1/2+z
1/2-x,1/2-y,1/2+z
1/2+x,1/2-y,1/2-z
1/2-x,1/2+y,1/2-z
1/2-x,1/2-y,1/2-z
1/2+x,1/2+y,1/2-z
1/2-x,1/2+y,1/2+z
1/2+x,1/2-y,1/2+z
loop_
_atom_site_type_symbol
_atom_site_label
_atom_site_fract_x
_atom_site_fract_y
_atom_site_fract_z
Si Si1 0.907999 0.500000 0.575522
Si Si2 0.757380 0.500000 0.425502
Si Si3 0.166822 0.500000 0.648666
Si Si4 0.307401 0.305468 0.772501
Si Si5 0.540866 0.693692 0.075242
Si Si6 0.768403 0.694540 0.846644
O O1 0.904914 0.500000 0.500000
O O2 0.867679 0.500000 0.603159
O O3 0.929737 0.668814 0.601389
O O4 0.761930 0.500000 0.500000
O O5 0.797398 0.500000 0.394870
O O6 0.734635 0.671093 0.404728
O O7 0.165369 0.671071 0.693066
O O8 0.324286 0.500000 0.775776
O O9 0.268591 0.299769 0.806799
O O10 0.301722 0.249989 0.699416
O O11 0.500000 0.739866 0.100237
O O12 0.552215 0.500000 0.098129
O O13 0.540364 0.701689 0.000000
O O14 0.775473 0.500000 0.873353
#
# Coordination Sequence:
#
# PCOD8287162 Si02
#       6
#     8   8   8  16  16  16
#     4  10  18  26  36  51  74  99 115 138 186 234
#     4  10  19  28  37  52  74  94 111 140 188 235
#     4  10  19  27  36  52  74  94 116 144 179 229
#     4   9  15  25  40  54  63  82 116 148 175 205
#     4   8  14  25  40  54  66  86 120 153 175 203
#     4   9  15  25  41  54  64  81 112 149 177 207
#
# _framework density 12.176714
#
# number of rings (size 3 to 8) (size 9 to 14) (size 15 to 20)
#    0.000    2.889    2.222    1.333    0.000    2.667 
#    0.000    0.000    0.000    4.000    0.000    0.000 
#    0.000    0.000    0.000    0.000    0.000    0.000 
#
# Total GULP energy -446172.999103 kJ/mol
# GULP energy per Si atom -12393.694420 kJ/mol
# Density = 1.214900 g / cm^3
# Si number density = 12.176714 Si / 1000 Ang^3
#
#
#
# Elastic Constant Matrix: (Units=GPa)
#
#
# Indices 1 2 3 4 5 6 
#
# 1 38.5471 34.3681 22.3644 0.0000 0.0000 0.0000
# 2 34.3681 124.3680 34.9132 0.0000 0.0000 0.0000
# 3 22.3644 34.9132 42.2632 0.0000 0.0000 0.0000
# 4 0.0000 0.0000 0.0000 14.5429 0.0000 0.0000
# 5 0.0000 0.0000 0.0000 0.0000 8.8263 0.0000
# 6 0.0000 0.0000 0.0000 0.0000 0.0000 10.0246
#
#
#
# Elastic Compliance Matrix: (Units=1/GPa)
#
#
# Indices 1 2 3 4 5 6 
#
# 1 0.041548 -0.006913 -0.016276 0.000000 0.000000 0.000000
# 2 -0.006913 0.011618 -0.005940 0.000000 0.000000 0.000000
# 3 -0.016276 -0.005940 0.037181 0.000000 0.000000 0.000000
# 4 0.000000 0.000000 0.000000 0.068762 0.000000 0.000000
# 5 0.000000 0.000000 0.000000 0.000000 0.113297 0.000000
# 6 0.000000 0.000000 0.000000 0.000000 0.000000 0.099754
#
#
# Mechanical properties :
#
#
# Convention : Reuss Voigt Hill
#
# Bulk Modulus (GPa) = 31.16131 43.16330 37.16230
# Shear Modulus (GPa) = 11.33492 14.24761 12.79126
#
# Velocity S-wave (km/s) = 3.05432 3.42434 3.24461
# Velocity P-wave (km/s) = 6.17130 7.15256 6.67998
#
# Compressibility (1/GPa) = 0.03209108
#
# Stress axis : x y z
#
# Youngs Moduli (GPa) = 24.06834 86.07081 26.89560
#
# Poissons Ratio (x) = 0.59497 0.43775
# Poissons Ratio (y) = 0.16637 0.15976
# Poissons Ratio (z) = 0.39173 0.51125
#
# Static dielectric constant tensor:
#      x y z
#    x 2.233820 0.000000 0.000000 
#    y 0.000000 2.926120 0.000000 
#    z 0.000000 0.000000 2.211970 
# 
# 
# High freq. dielectric constant tensor:
#      x y z
#    x 1.418510 0.000000 0.000000 
#    y 0.000000 1.486960 0.000000 
#    z 0.000000 0.000000 1.419160 
# 
# From -- ./inp_files/14731.got.cif
#   From: 2010.06.25/outbox.cif.g09.slc.cpg/sg71_8_cif.got.tgz:14731.got - 2010.06.28 04:59:45.
