data_PCOD8287659
_publ_section_title
;
Structure prediction by ZEFSAII (Michael W. Deem and Ramdas Pophale) SiO2 
 PCOD8287659
Probable space group: I M M M
;
_chemical_formula_sum "Si O2"
_cell_formula_units_Z 120
_cell_length_a 14.128985
_cell_length_b 24.463718
_cell_length_c 21.083023
_cell_angle_alpha 90.000000
_cell_angle_beta 90.000000
_cell_angle_gamma 90.000000
_cell_volume 7287.294291
_symmetry_space_group_name_H-M "I M M M"
_symmetry_group_IT_number 71
_symmetry_cell_setting 'orthorhombic'
loop_
_space_group_symop_operation_xyz
x,y,z
-x,-y,z
x,-y,-z
-x,y,-z
-x,-y,-z
x,y,-z
-x,y,z
x,-y,z
1/2+x,1/2+y,1/2+z
1/2-x,1/2-y,1/2+z
1/2+x,1/2-y,1/2-z
1/2-x,1/2+y,1/2-z
1/2-x,1/2-y,1/2-z
1/2+x,1/2+y,1/2-z
1/2-x,1/2+y,1/2+z
1/2+x,1/2-y,1/2+z
loop_
_atom_site_type_symbol
_atom_site_label
_atom_site_fract_x
_atom_site_fract_y
_atom_site_fract_z
Si Si1 0.887962 0.059647 0.000000
Si Si2 0.891966 0.210784 0.426304
Si Si3 0.890915 0.750068 0.805413
Si Si4 0.779359 0.141851 0.787687
Si Si5 0.229958 0.653482 0.144367
Si Si6 0.105283 0.696691 0.328723
Si Si7 0.393815 0.564789 0.364632
Si Si8 0.890228 0.436919 0.926462
O O1 0.860722 0.089535 0.933709
O O2 0.000000 0.051537 0.000000
O O3 0.839249 0.000000 0.000000
O O4 0.873612 0.221152 0.500000
O O5 0.818651 0.165522 0.401434
O O6 0.874061 0.268252 0.391294
O O7 0.000000 0.190681 0.413585
O O8 0.843254 0.808671 0.813980
O O9 0.839030 0.705824 0.850051
O O10 0.878895 0.736080 0.731492
O O11 0.000000 0.752539 0.826374
O O12 0.772070 0.138334 0.712456
O O13 0.676925 0.146378 0.821428
O O14 0.825026 0.085503 0.809917
O O15 0.173020 0.601988 0.117237
O O16 0.000000 0.671871 0.329428
O O17 0.500000 0.584127 0.348596
O O18 0.388299 0.500000 0.367348
O O19 0.863974 0.500000 0.912080
O O20 0.000000 0.426406 0.910248
O O21 0.870637 0.423430 0.000000
#
# Coordination Sequence:
#
# PCOD8287659 Si02
#       8
#     8  16  16  16  16  16  16  16
#     4   7  12  28  50  66  85 117 155 187 221 277
#     4  10  19  31  48  68  94 132 174 206 234 281
#     4  10  18  30  49  73  98 128 156 192 249 305
#     4  11  19  30  48  74 102 127 158 197 250 300
#     4  11  19  32  50  74 101 129 166 207 250 296
#     4   9  17  32  47  64  93 125 162 196 228 282
#     4   9  18  32  50  71  94 124 160 196 237 290
#     4   9  19  36  56  76  99 132 172 211 256 309
#
# _framework density 16.467016999999998
#
# number of rings (size 3 to 8) (size 9 to 14) (size 15 to 20)
#    0.000    2.333    2.667    3.200    0.000    1.600 
#    1.200    0.000    0.000    0.800    0.000    1.867 
#    0.000    1.600    0.000    0.000    0.000    0.000 
#
# Total GULP energy -743737.597697 kJ/mol
# GULP energy per Si atom -12395.626628 kJ/mol
# Density = 1.642954 g / cm^3
# Si number density = 16.467017 Si / 1000 Ang^3
#
#
#
# Elastic Constant Matrix: (Units=GPa)
#
#
# Indices 1 2 3 4 5 6 
#
# 1 99.0424 36.8719 51.9964 0.0000 0.0000 0.0000
# 2 36.8719 54.0267 37.7943 0.0000 0.0000 0.0000
# 3 51.9964 37.7943 84.7050 0.0000 0.0000 0.0000
# 4 0.0000 0.0000 0.0000 18.1969 0.0000 0.0000
# 5 0.0000 0.0000 0.0000 0.0000 23.3260 0.0000
# 6 0.0000 0.0000 0.0000 0.0000 0.0000 28.5602
#
#
#
# Elastic Compliance Matrix: (Units=1/GPa)
#
#
# Indices 1 2 3 4 5 6 
#
# 1 0.016104 -0.005925 -0.007242 0.000000 0.000000 0.000000
# 2 -0.005925 0.029088 -0.009342 0.000000 0.000000 0.000000
# 3 -0.007242 -0.009342 0.020420 0.000000 0.000000 0.000000
# 4 0.000000 0.000000 0.000000 0.054954 0.000000 0.000000
# 5 0.000000 0.000000 0.000000 0.000000 0.042871 0.000000
# 6 0.000000 0.000000 0.000000 0.000000 0.000000 0.035014
#
#
# Mechanical properties :
#
#
# Convention : Reuss Voigt Hill
#
# Bulk Modulus (GPa) = 48.55668 54.56659 51.56163
# Shear Modulus (GPa) = 19.97343 21.42406 20.69874
#
# Velocity S-wave (km/s) = 3.48650 3.61089 3.54924
# Velocity P-wave (km/s) = 6.76453 7.11291 6.94091
#
# Compressibility (1/GPa) = 0.02059449
#
# Stress axis : x y z
#
# Youngs Moduli (GPa) = 62.09468 34.37874 48.97263
#
# Poissons Ratio (x) = 0.20368 0.35467
# Poissons Ratio (y) = 0.36788 0.45749
# Poissons Ratio (z) = 0.44971 0.32116
#
# Static dielectric constant tensor:
#      x y z
#    x 3.273150 0.000000 0.000000 
#    y 0.000000 2.790080 0.000000 
#    z 0.000000 0.000000 3.173000 
# 
# 
# High freq. dielectric constant tensor:
#      x y z
#    x 1.637630 0.000000 0.000000 
#    y 0.000000 1.602760 0.000000 
#    z 0.000000 0.000000 1.635450 
# 
# From -- ./inp_files/53556.got.cif
#   From: 2010.06.25/outbox.cif.g09.slc.cpg/sg71_27_cif.got.tgz:53556.got - 2010.06.28 04:59:45.
