data_PCOD8287211
_publ_section_title
;
Structure prediction by ZEFSAII (Michael W. Deem and Ramdas Pophale) SiO2 
 PCOD8287211
Probable space group: I M M M
;
_chemical_formula_sum "Si O2"
_cell_formula_units_Z 112
_cell_length_a 31.810024
_cell_length_b 9.140808
_cell_length_c 32.164981
_cell_angle_alpha 90.000000
_cell_angle_beta 90.000000
_cell_angle_gamma 90.000000
_cell_volume 9352.589713
_symmetry_space_group_name_H-M "I M M M"
_symmetry_group_IT_number 71
_symmetry_cell_setting 'orthorhombic'
loop_
_space_group_symop_operation_xyz
x,y,z
-x,-y,z
x,-y,-z
-x,y,-z
-x,-y,-z
x,y,-z
-x,y,z
x,-y,z
1/2+x,1/2+y,1/2+z
1/2-x,1/2-y,1/2+z
1/2+x,1/2-y,1/2-z
1/2-x,1/2+y,1/2-z
1/2-x,1/2-y,1/2-z
1/2+x,1/2+y,1/2-z
1/2-x,1/2+y,1/2+z
1/2+x,1/2-y,1/2+z
loop_
_atom_site_type_symbol
_atom_site_label
_atom_site_fract_x
_atom_site_fract_y
_atom_site_fract_z
Si Si1 0.650252 0.662558 0.741906
Si Si2 0.420234 0.167859 0.452516
Si Si3 0.209451 0.834882 0.838075
Si Si4 0.500000 0.326313 0.677314
Si Si5 0.000000 0.827139 0.918221
Si Si6 0.916895 0.329815 0.801837
Si Si7 0.228691 0.828762 0.288410
Si Si8 0.140241 0.331323 0.880280
O O1 0.630532 0.500000 0.744064
O O2 0.681761 0.672229 0.703225
O O3 0.612802 0.779049 0.736497
O O4 0.678050 0.693839 0.783544
O O5 0.406868 0.193710 0.500000
O O6 0.459292 0.268776 0.441602
O O7 0.380046 0.209388 0.424552
O O8 0.433523 0.000000 0.444190
O O9 0.252918 0.744965 0.830460
O O10 0.182598 0.762929 0.875303
O O11 0.221066 0.000000 0.850554
O O12 0.500000 0.500000 0.681439
O O13 0.500000 0.274296 0.629442
O O14 0.459562 0.261439 0.700325
O O15 0.000000 0.000000 0.921238
O O16 0.927052 0.500000 0.796843
O O17 0.894111 0.293149 0.845178
O O18 0.250000 0.750000 0.250000
O O19 0.240316 0.000000 0.287753
O O20 0.153307 0.500000 0.877130
#
# Coordination Sequence:
#
# PCOD8287211 Si02
#       8
#    16  16  16   8   8  16  16  16
#     4   8  15  25  35  49  69  88 104 124 152 185
#     4  10  20  33  46  56  67  84 105 133 171 213
#     4   9  16  24  36  52  69  88 106 126 151 183
#     4  11  21  30  40  51  66  86 106 134 170 206
#     4  11  22  32  43  56  68  82 102 134 172 212
#     4  10  18  27  40  53  64  82 107 135 162 194
#     4   9  15  23  35  51  70  90 108 126 147 178
#     4   9  17  28  40  53  67  83 104 130 160 199
#
# _framework density 11.975293000000001
#
# number of rings (size 3 to 8) (size 9 to 14) (size 15 to 20)
#    0.000    2.571    1.429    2.786    0.000    6.857 
#    0.000    0.000    0.000    0.000    0.000    0.000 
#    0.000    0.000    0.000    0.000    0.000    0.000 
#
# Total GULP energy -694173.636410 kJ/mol
# GULP energy per Si atom -12395.957793 kJ/mol
# Density = 1.194804 g / cm^3
# Si number density = 11.975293 Si / 1000 Ang^3
#
#
#
# Elastic Constant Matrix: (Units=GPa)
#
#
# Indices 1 2 3 4 5 6 
#
# 1 67.1718 42.3250 40.2663 0.0000 0.0000 0.0000
# 2 42.3250 72.7924 26.9751 0.0000 0.0000 0.0000
# 3 40.2663 26.9751 35.7030 0.0000 0.0000 0.0000
# 4 0.0000 0.0000 0.0000 11.8812 0.0000 0.0000
# 5 0.0000 0.0000 0.0000 0.0000 5.4526 0.0000
# 6 0.0000 0.0000 0.0000 0.0000 0.0000 20.0641
#
#
#
# Elastic Compliance Matrix: (Units=1/GPa)
#
#
# Indices 1 2 3 4 5 6 
#
# 1 0.052477 -0.011917 -0.050181 0.000000 0.000000 0.000000
# 2 -0.011917 0.021786 -0.003020 0.000000 0.000000 0.000000
# 3 -0.050181 -0.003020 0.086885 0.000000 0.000000 0.000000
# 4 0.000000 0.000000 0.000000 0.084167 0.000000 0.000000
# 5 0.000000 0.000000 0.000000 0.000000 0.183399 0.000000
# 6 0.000000 0.000000 0.000000 0.000000 0.000000 0.049840
#
#
# Mechanical properties :
#
#
# Convention : Reuss Voigt Hill
#
# Bulk Modulus (GPa) = 32.34906 43.86666 38.10786
# Shear Modulus (GPa) = 8.07632 11.88629 9.98130
#
# Velocity S-wave (km/s) = 2.59977 3.15392 2.89016
# Velocity P-wave (km/s) = 6.00696 7.06919 6.55961
#
# Compressibility (1/GPa) = 0.03091280
#
# Stress axis : x y z
#
# Youngs Moduli (GPa) = 19.05600 45.90121 11.50945
#
# Poissons Ratio (x) = 0.54700 0.57755
# Poissons Ratio (y) = 0.22709 0.03476
# Poissons Ratio (z) = 0.95624 0.13863
#
# Static dielectric constant tensor:
#      x y z
#    x 2.578460 0.000000 0.000000 
#    y 0.000000 2.611890 0.000000 
#    z 0.000000 0.000000 2.314670 
# 
# 
# High freq. dielectric constant tensor:
#      x y z
#    x 1.437620 0.000000 0.000000 
#    y 0.000000 1.469990 0.000000 
#    z 0.000000 0.000000 1.400750 
# 
# From -- ./inp_files/71268.got.cif
#   From: 2010.06.25/outbox.cif.g09.slc.cpg/sg71_36_cif.got.tgz:71268.got - 2010.06.28 04:59:45.
