data_PCOD8287864
_publ_section_title
;
Structure prediction by ZEFSAII (Michael W. Deem and Ramdas Pophale) SiO2 
 PCOD8287864
Probable space group: I M M M
;
_chemical_formula_sum "Si O2"
_cell_formula_units_Z 88
_cell_length_a 16.781070
_cell_length_b 19.336389
_cell_length_c 15.082838
_cell_angle_alpha 90.000000
_cell_angle_beta 90.000000
_cell_angle_gamma 90.000000
_cell_volume 4894.159173
_symmetry_space_group_name_H-M "I M M M"
_symmetry_group_IT_number 71
_symmetry_cell_setting 'orthorhombic'
loop_
_space_group_symop_operation_xyz
x,y,z
-x,-y,z
x,-y,-z
-x,y,-z
-x,-y,-z
x,y,-z
-x,y,z
x,-y,z
1/2+x,1/2+y,1/2+z
1/2-x,1/2-y,1/2+z
1/2+x,1/2-y,1/2-z
1/2-x,1/2+y,1/2-z
1/2-x,1/2-y,1/2-z
1/2+x,1/2+y,1/2-z
1/2-x,1/2+y,1/2+z
1/2+x,1/2-y,1/2+z
loop_
_atom_site_type_symbol
_atom_site_label
_atom_site_fract_x
_atom_site_fract_y
_atom_site_fract_z
Si Si1 0.344757 0.830459 0.101441
Si Si2 0.094628 0.179254 0.346205
Si Si3 0.405477 0.422039 0.000000
Si Si4 0.092634 0.424080 0.750742
Si Si5 0.192919 0.793475 0.812993
Si Si6 0.407000 0.821955 0.399127
O O1 0.376002 0.753036 0.117799
O O2 0.394759 0.884077 0.159244
O O3 0.251104 0.839812 0.126347
O O4 0.357876 0.850920 0.000000
O O5 0.123604 0.119368 0.413099
O O6 0.133924 0.162506 0.250439
O O7 0.000000 0.180809 0.336008
O O8 0.369878 0.500000 0.000000
O O9 0.500000 0.425166 0.000000
O O10 0.133374 0.500000 0.747732
O O11 0.127536 0.381189 0.834102
O O12 0.000000 0.433383 0.766754
O O13 0.250000 0.750000 0.750000
O O14 0.140391 0.747728 0.879190
O O15 0.391789 0.845415 0.500000
O O16 0.500000 0.807661 0.380908
#
# Coordination Sequence:
#
# PCOD8287864 Si02
#       6
#    16  16   8  16  16  16
#     4  11  21  34  54  77 104 138 184 227 272 315
#     4  10  18  31  54  77 102 139 175 211 265 325
#     4   9  18  32  52  82 111 129 160 216 271 326
#     4  10  21  36  53  77 109 143 182 226 269 319
#     4  10  19  32  51  74 104 134 175 221 258 310
#     4  10  19  33  55  80 107 139 177 222 269 320
#
# _framework density 17.980616999999999
#
# number of rings (size 3 to 8) (size 9 to 14) (size 15 to 20)
#    0.000    1.909    4.545    1.636    0.000    1.818 
#    0.000    3.636    0.000    0.000    0.000    0.000 
#    0.000    0.000    0.000   16.364    0.000    0.000 
#
# Total GULP energy -545431.578553 kJ/mol
# GULP energy per Si atom -12396.172240 kJ/mol
# Density = 1.793969 g / cm^3
# Si number density = 17.980617 Si / 1000 Ang^3
#
#
#
# Elastic Constant Matrix: (Units=GPa)
#
#
# Indices 1 2 3 4 5 6 
#
# 1 51.5421 12.0025 23.2074 0.0000 0.0000 0.0000
# 2 12.0025 82.8570 29.6183 0.0000 0.0000 0.0000
# 3 23.2074 29.6183 103.9694 0.0000 0.0000 0.0000
# 4 0.0000 0.0000 0.0000 23.1628 0.0000 0.0000
# 5 0.0000 0.0000 0.0000 0.0000 29.1391 0.0000
# 6 0.0000 0.0000 0.0000 0.0000 0.0000 9.1099
#
#
#
# Elastic Compliance Matrix: (Units=1/GPa)
#
#
# Indices 1 2 3 4 5 6 
#
# 1 0.021753 -0.001576 -0.004407 0.000000 0.000000 0.000000
# 2 -0.001576 0.013552 -0.003509 0.000000 0.000000 0.000000
# 3 -0.004407 -0.003509 0.011601 0.000000 0.000000 0.000000
# 4 0.000000 0.000000 0.000000 0.043173 0.000000 0.000000
# 5 0.000000 0.000000 0.000000 0.000000 0.034318 0.000000
# 6 0.000000 0.000000 0.000000 0.000000 0.000000 0.109770
#
#
# Mechanical properties :
#
#
# Convention : Reuss Voigt Hill
#
# Bulk Modulus (GPa) = 35.81245 40.89163 38.35204
# Shear Modulus (GPa) = 19.05077 23.85174 21.45126
#
# Velocity S-wave (km/s) = 3.25855 3.64610 3.45776
# Velocity P-wave (km/s) = 5.84107 6.36528 6.10880
#
# Compressibility (1/GPa) = 0.02792325
#
# Stress axis : x y z
#
# Youngs Moduli (GPa) = 45.97129 73.79255 86.19674
#
# Poissons Ratio (x) = 0.11629 0.37983
# Poissons Ratio (y) = 0.07244 0.30244
# Poissons Ratio (z) = 0.20258 0.25892
#
# Static dielectric constant tensor:
#      x y z
#    x 3.582380 0.000000 0.000000 
#    y 0.000000 3.326660 0.000000 
#    z 0.000000 0.000000 3.614460 
# 
# 
# High freq. dielectric constant tensor:
#      x y z
#    x 1.692380 0.000000 0.000000 
#    y 0.000000 1.662110 0.000000 
#    z 0.000000 0.000000 1.705890 
# 
# From -- ./inp_files/36367.got.cif
#   From: 2010.06.25/outbox.cif.g09.slc.cpg/sg71_19_cif.got.tgz:36367.got - 2010.06.28 04:59:45.
