data_PCOD8287643
_publ_section_title
;
Structure prediction by ZEFSAII (Michael W. Deem and Ramdas Pophale) SiO2 
 PCOD8287643
Probable space group: I M M M
;
_chemical_formula_sum "Si O2"
_cell_formula_units_Z 88
_cell_length_a 19.800289
_cell_length_b 27.641796
_cell_length_c 9.451918
_cell_angle_alpha 90.000000
_cell_angle_beta 90.000000
_cell_angle_gamma 90.000000
_cell_volume 5173.181692
_symmetry_space_group_name_H-M "I M M M"
_symmetry_group_IT_number 71
_symmetry_cell_setting 'orthorhombic'
loop_
_space_group_symop_operation_xyz
x,y,z
-x,-y,z
x,-y,-z
-x,y,-z
-x,-y,-z
x,y,-z
-x,y,z
x,-y,z
1/2+x,1/2+y,1/2+z
1/2-x,1/2-y,1/2+z
1/2+x,1/2-y,1/2-z
1/2-x,1/2+y,1/2-z
1/2-x,1/2-y,1/2-z
1/2+x,1/2+y,1/2-z
1/2-x,1/2+y,1/2+z
1/2+x,1/2-y,1/2+z
loop_
_atom_site_type_symbol
_atom_site_label
_atom_site_fract_x
_atom_site_fract_y
_atom_site_fract_z
Si Si1 0.704033 0.185781 0.162922
Si Si2 0.167222 0.210296 0.663917
Si Si3 0.575200 0.000000 0.167447
Si Si4 0.178909 0.579604 0.335062
Si Si5 0.074198 0.126757 0.666575
Si Si6 0.688313 0.444780 0.837358
O O1 0.771813 0.185495 0.253168
O O2 0.658555 0.232800 0.202655
O O3 0.662786 0.136394 0.193302
O O4 0.726220 0.188256 0.000000
O O5 0.184963 0.203637 0.500000
O O6 0.099218 0.181292 0.702844
O O7 0.615199 0.951947 0.218142
O O8 0.500000 0.000000 0.235310
O O9 0.568618 0.000000 0.000000
O O10 0.192694 0.569580 0.500000
O O11 0.244726 0.563352 0.251879
O O12 0.068252 0.119327 0.500000
O O13 0.127488 0.087680 0.726277
O O14 0.000000 0.119612 0.735978
O O15 0.664650 0.500000 0.824905
O O16 0.703612 0.430553 0.000000
#
# Coordination Sequence:
#
# PCOD8287643 Si02
#       6
#    16  16   8  16  16  16
#     4   9  17  27  44  70  93 114 149 193 230 266
#     4   9  16  28  45  66  92 120 151 187 229 272
#     4   9  18  32  49  69  94 125 154 182 229 287
#     4  10  18  30  49  71  94 121 153 191 231 274
#     4   9  17  29  45  66  95 128 157 189 232 277
#     4  10  19  30  47  71  94 119 157 197 230 270
#
# _framework density 17.010807
#
# number of rings (size 3 to 8) (size 9 to 14) (size 15 to 20)
#    0.000    2.636    2.727    0.000    0.000    0.364 
#    0.000    2.727    0.000    8.727    0.000    1.273 
#    0.000    4.364    0.000    0.000    0.000    0.000 
#
# Total GULP energy -545329.672917 kJ/mol
# GULP energy per Si atom -12393.856203 kJ/mol
# Density = 1.697209 g / cm^3
# Si number density = 17.010807 Si / 1000 Ang^3
#
#
#
# Elastic Constant Matrix: (Units=GPa)
#
#
# Indices 1 2 3 4 5 6 
#
# 1 143.0834 76.8031 26.6041 0.0000 0.0000 0.0000
# 2 76.8031 141.4296 23.7525 0.0000 0.0000 0.0000
# 3 26.6041 23.7525 26.8510 0.0000 0.0000 0.0000
# 4 0.0000 0.0000 0.0000 17.8515 0.0000 0.0000
# 5 0.0000 0.0000 0.0000 0.0000 16.8916 0.0000
# 6 0.0000 0.0000 0.0000 0.0000 0.0000 24.3383
#
#
#
# Elastic Compliance Matrix: (Units=1/GPa)
#
#
# Indices 1 2 3 4 5 6 
#
# 1 0.010734 -0.004748 -0.006435 0.000000 0.000000 0.000000
# 2 -0.004748 0.010405 -0.004499 0.000000 0.000000 0.000000
# 3 -0.006435 -0.004499 0.047599 0.000000 0.000000 0.000000
# 4 0.000000 0.000000 0.000000 0.056018 0.000000 0.000000
# 5 0.000000 0.000000 0.000000 0.000000 0.059201 0.000000
# 6 0.000000 0.000000 0.000000 0.000000 0.000000 0.041088
#
#
# Mechanical properties :
#
#
# Convention : Reuss Voigt Hill
#
# Bulk Modulus (GPa) = 26.75807 62.85370 44.80588
# Shear Modulus (GPa) = 18.59654 24.09658 21.34656
#
# Velocity S-wave (km/s) = 3.30997 3.76779 3.54627
# Velocity P-wave (km/s) = 5.51109 7.48049 6.57000
#
# Compressibility (1/GPa) = 0.03737190
#
# Stress axis : x y z
#
# Youngs Moduli (GPa) = 93.15946 96.10785 21.00903
#
# Poissons Ratio (x) = 0.45637 0.13519
# Poissons Ratio (y) = 0.44237 0.09453
# Poissons Ratio (z) = 0.59948 0.43243
#
# Static dielectric constant tensor:
#      x y z
#    x 3.227100 0.000000 0.000000 
#    y 0.000000 3.661490 0.000000 
#    z 0.000000 0.000000 2.961890 
# 
# 
# High freq. dielectric constant tensor:
#      x y z
#    x 1.630000 0.000000 0.000000 
#    y 0.000000 1.679210 0.000000 
#    z 0.000000 0.000000 1.624410 
# 
# From -- ./inp_files/8861.got.cif
#   From: 2010.06.25/outbox.cif.g09.slc.cpg/sg71_5_cif.got.tgz:8861.got - 2010.06.28 04:59:45.
