data_PCOD8287333
_publ_section_title
;
Structure prediction by ZEFSAII (Michael W. Deem and Ramdas Pophale) SiO2 
 PCOD8287333
Probable space group: I M M M
;
_chemical_formula_sum "Si O2"
_cell_formula_units_Z 88
_cell_length_a 10.053529
_cell_length_b 18.340164
_cell_length_c 28.477454
_cell_angle_alpha 90.000000
_cell_angle_beta 90.000000
_cell_angle_gamma 90.000000
_cell_volume 5250.768956
_symmetry_space_group_name_H-M "I M M M"
_symmetry_group_IT_number 71
_symmetry_cell_setting 'orthorhombic'
loop_
_space_group_symop_operation_xyz
x,y,z
-x,-y,z
x,-y,-z
-x,y,-z
-x,-y,-z
x,y,-z
-x,y,z
x,-y,z
1/2+x,1/2+y,1/2+z
1/2-x,1/2-y,1/2+z
1/2+x,1/2-y,1/2-z
1/2-x,1/2+y,1/2-z
1/2-x,1/2-y,1/2-z
1/2+x,1/2+y,1/2-z
1/2-x,1/2+y,1/2+z
1/2+x,1/2-y,1/2+z
loop_
_atom_site_type_symbol
_atom_site_label
_atom_site_fract_x
_atom_site_fract_y
_atom_site_fract_z
Si Si1 0.707504 0.839359 0.146258
Si Si2 0.220752 0.584189 0.447414
Si Si3 0.500000 0.712264 0.642921
Si Si4 0.500000 0.820045 0.722466
Si Si5 0.500000 0.649993 0.550284
Si Si6 0.714608 0.082130 0.237981
Si Si7 0.500000 0.582513 0.777794
Si Si8 0.500000 0.733283 0.183527
O O1 0.659479 0.866843 0.094667
O O2 0.865254 0.831364 0.154172
O O3 0.667259 0.899021 0.185172
O O4 0.631004 0.763846 0.157167
O O5 0.169477 0.607457 0.500000
O O6 0.184993 0.500000 0.438545
O O7 0.377963 0.594917 0.443962
O O8 0.500000 0.788355 0.669884
O O9 0.500000 0.718614 0.586080
O O10 0.633590 0.867427 0.726065
O O11 0.500000 0.755998 0.761439
O O12 0.500000 0.689330 0.500000
O O13 0.871596 0.094299 0.245088
O O14 0.672688 0.000000 0.248516
O O15 0.500000 0.500000 0.799645
O O16 0.500000 0.644772 0.818483
#
# Coordination Sequence:
#
# PCOD8287333 Si02
#       8
#    16  16   8   8   8  16   8   8
#     4  10  19  30  46  65  88 120 154 183 216 258
#     4   9  16  27  43  64  91 121 153 187 219 252
#     4  10  18  28  46  67  84 111 152 191 218 252
#     4  10  19  30  45  64  89 120 150 179 219 265
#     4   8  15  26  41  64  91 117 147 186 227 258
#     4  10  19  30  44  64  91 120 150 183 216 257
#     4  10  20  32  47  66  87 113 147 187 224 257
#     4  10  20  33  45  61  89 120 148 182 224 267
#
# _framework density 16.759450000000001
#
# number of rings (size 3 to 8) (size 9 to 14) (size 15 to 20)
#    0.000    2.364    0.000    3.818    0.000    4.000 
#    0.000    4.545    0.000    1.091    0.000    0.000 
#    0.000    2.909    0.000   26.909    0.000   21.273 
#
# Total GULP energy -545151.161479 kJ/mol
# GULP energy per Si atom -12389.799125 kJ/mol
# Density = 1.672130 g / cm^3
# Si number density = 16.759450 Si / 1000 Ang^3
#
#
#
# Elastic Constant Matrix: (Units=GPa)
#
#
# Indices 1 2 3 4 5 6 
#
# 1 68.0470 24.7910 17.7553 0.0000 0.0000 0.0000
# 2 24.7910 106.9246 65.3162 0.0000 0.0000 0.0000
# 3 17.7553 65.3162 98.8723 0.0000 0.0000 0.0000
# 4 0.0000 0.0000 0.0000 25.8225 0.0000 0.0000
# 5 0.0000 0.0000 0.0000 0.0000 13.3644 0.0000
# 6 0.0000 0.0000 0.0000 0.0000 0.0000 16.2471
#
#
#
# Elastic Compliance Matrix: (Units=1/GPa)
#
#
# Indices 1 2 3 4 5 6 
#
# 1 0.016081 -0.003294 -0.000712 0.000000 0.000000 0.000000
# 2 -0.003294 0.016354 -0.010212 0.000000 0.000000 0.000000
# 3 -0.000712 -0.010212 0.016988 0.000000 0.000000 0.000000
# 4 0.000000 0.000000 0.000000 0.038726 0.000000 0.000000
# 5 0.000000 0.000000 0.000000 0.000000 0.074826 0.000000
# 6 0.000000 0.000000 0.000000 0.000000 0.000000 0.061549
#
#
# Mechanical properties :
#
#
# Convention : Reuss Voigt Hill
#
# Bulk Modulus (GPa) = 47.64627 54.39655 51.02141
# Shear Modulus (GPa) = 19.23390 22.15223 20.69306
#
# Velocity S-wave (km/s) = 3.39137 3.63957 3.51766
# Velocity P-wave (km/s) = 6.62015 7.08446 6.85624
#
# Compressibility (1/GPa) = 0.02098800
#
# Stress axis : x y z
#
# Youngs Moduli (GPa) = 62.18341 61.14550 58.86363
#
# Poissons Ratio (x) = 0.20139 0.04192
# Poissons Ratio (y) = 0.20481 0.60114
# Poissons Ratio (z) = 0.04428 0.62445
#
# Static dielectric constant tensor:
#      x y z
#    x 3.302640 0.000000 0.000000 
#    y 0.000000 2.977400 0.000000 
#    z 0.000000 0.000000 3.258880 
# 
# 
# High freq. dielectric constant tensor:
#      x y z
#    x 1.660990 0.000000 0.000000 
#    y 0.000000 1.616680 0.000000 
#    z 0.000000 0.000000 1.627060 
# 
# From -- ./inp_files/64502.got.cif
#   From: 2010.06.25/outbox.cif.g09.slc.cpg/sg71_33_cif.got.tgz:64502.got - 2010.06.28 04:59:45.
