data_PCOD8287617
_publ_section_title
;
Structure prediction by ZEFSAII (Michael W. Deem and Ramdas Pophale) SiO2 
 PCOD8287617
Probable space group: I M M M
;
_chemical_formula_sum "Si O2"
_cell_formula_units_Z 72
_cell_length_a 9.668210
_cell_length_b 27.527107
_cell_length_c 14.707171
_cell_angle_alpha 90.000000
_cell_angle_beta 90.000000
_cell_angle_gamma 90.000000
_cell_volume 3914.134887
_symmetry_space_group_name_H-M "I M M M"
_symmetry_group_IT_number 71
_symmetry_cell_setting 'orthorhombic'
loop_
_space_group_symop_operation_xyz
x,y,z
-x,-y,z
x,-y,-z
-x,y,-z
-x,-y,-z
x,y,-z
-x,y,z
x,-y,z
1/2+x,1/2+y,1/2+z
1/2-x,1/2-y,1/2+z
1/2+x,1/2-y,1/2-z
1/2-x,1/2+y,1/2-z
1/2-x,1/2-y,1/2-z
1/2+x,1/2+y,1/2-z
1/2-x,1/2+y,1/2+z
1/2+x,1/2-y,1/2+z
loop_
_atom_site_type_symbol
_atom_site_label
_atom_site_fract_x
_atom_site_fract_y
_atom_site_fract_z
Si Si1 0.835509 0.500000 0.895820
Si Si2 0.842714 0.265584 0.666966
Si Si3 0.163457 0.594107 0.212192
Si Si4 0.663285 0.131240 0.901002
Si Si5 0.154780 0.837053 0.600609
O O1 0.780259 0.546528 0.839884
O O2 0.000000 0.500000 0.897194
O O3 0.778905 0.500000 0.000000
O O4 0.750000 0.250000 0.750000
O O5 0.782182 0.314563 0.621645
O O6 0.835810 0.221315 0.595879
O O7 0.000000 0.274705 0.700429
O O8 0.203320 0.593464 0.319950
O O9 0.233971 0.641463 0.169902
O O10 0.000000 0.599480 0.198981
O O11 0.500000 0.133548 0.909369
O O12 0.724452 0.114782 0.000000
O O13 0.186991 0.857171 0.500000
O O14 0.000000 0.852827 0.631096
#
# Coordination Sequence:
#
# PCOD8287617 Si02
#       5
#     8  16  16  16  16
#     4   9  18  32  50  74 102 127 155 203 262 301
#     4  10  18  30  48  70  99 132 164 199 240 286
#     4  10  19  33  53  74  96 128 168 206 245 296
#     4   9  17  30  49  72  98 130 165 200 242 290
#     4  10  20  32  48  72 102 133 162 198 247 296
#
# _framework density 18.394870999999998
#
# number of rings (size 3 to 8) (size 9 to 14) (size 15 to 20)
#    0.000    2.333    2.222    1.333    0.000    4.000 
#    0.000    1.111    0.000    9.333    0.000    0.000 
#    0.000    1.778    0.000    0.000    0.000    0.000 
#
# Total GULP energy -446107.446289 kJ/mol
# GULP energy per Si atom -12391.873508 kJ/mol
# Density = 1.835300 g / cm^3
# Si number density = 18.394871 Si / 1000 Ang^3
#
#
#
# Elastic Constant Matrix: (Units=GPa)
#
#
# Indices 1 2 3 4 5 6 
#
# 1 33.3045 10.8161 28.2800 0.0000 0.0000 0.0000
# 2 10.8161 88.7514 57.9648 0.0002 0.0000 0.0000
# 3 28.2800 57.9648 166.1131 -0.0001 0.0000 0.0000
# 4 0.0000 0.0002 -0.0001 30.4952 0.0000 0.0000
# 5 0.0000 0.0000 0.0000 0.0000 18.1453 0.0000
# 6 0.0000 0.0000 0.0000 0.0000 0.0000 17.2902
#
#
#
# Elastic Compliance Matrix: (Units=1/GPa)
#
#
# Indices 1 2 3 4 5 6 
#
# 1 0.035116 -0.000486 -0.005809 0.000000 0.000000 0.000000
# 2 -0.000486 0.014600 -0.005012 0.000000 0.000000 0.000000
# 3 -0.005809 -0.005012 0.008758 0.000000 0.000000 0.000000
# 4 0.000000 0.000000 0.000000 0.032792 0.000000 0.000000
# 5 0.000000 0.000000 0.000000 0.000000 0.055111 0.000000
# 6 0.000000 0.000000 0.000000 0.000000 0.000000 0.057836
#
#
# Mechanical properties :
#
#
# Convention : Reuss Voigt Hill
#
# Bulk Modulus (GPa) = 27.88551 53.58785 40.73668
# Shear Modulus (GPa) = 20.93979 25.92668 23.43324
#
# Velocity S-wave (km/s) = 3.37760 3.75834 3.57305
# Velocity P-wave (km/s) = 5.51391 6.93027 6.26227
#
# Compressibility (1/GPa) = 0.03586092
#
# Stress axis : x y z
#
# Youngs Moduli (GPa) = 28.47688 68.49320 114.18359
#
# Poissons Ratio (x) = 0.03327 0.66328
# Poissons Ratio (y) = 0.01383 0.57228
# Poissons Ratio (z) = 0.16542 0.34328
#
# Static dielectric constant tensor:
#      x y z
#    x 3.006690 0.000000 0.000000 
#    y 0.000000 3.443960 0.000000 
#    z 0.000000 0.000000 3.813560 
# 
# 
# High freq. dielectric constant tensor:
#      x y z
#    x 1.668860 0.000000 0.000000 
#    y 0.000000 1.698840 0.000000 
#    z 0.000000 0.000000 1.725380 
# 
# From -- ./inp_files/6012.got.cif
#   From: 2010.06.25/outbox.cif.g09.slc.cpg/sg71_4_cif.got.tgz:6012.got - 2010.06.28 04:59:45.
