data_PCOD8287043
_publ_section_title
;
Structure prediction by ZEFSAII (Michael W. Deem and Ramdas Pophale) SiO2 
 PCOD8287043
Probable space group: I M M M
;
_chemical_formula_sum "Si O2"
_cell_formula_units_Z 112
_cell_length_a 13.624533
_cell_length_b 17.834622
_cell_length_c 29.732936
_cell_angle_alpha 90.000000
_cell_angle_beta 90.000000
_cell_angle_gamma 90.000000
_cell_volume 7224.758426
_symmetry_space_group_name_H-M "I M M M"
_symmetry_group_IT_number 71
_symmetry_cell_setting 'orthorhombic'
loop_
_space_group_symop_operation_xyz
x,y,z
-x,-y,z
x,-y,-z
-x,y,-z
-x,-y,-z
x,y,-z
-x,y,z
x,-y,z
1/2+x,1/2+y,1/2+z
1/2-x,1/2-y,1/2+z
1/2+x,1/2-y,1/2-z
1/2-x,1/2+y,1/2-z
1/2-x,1/2-y,1/2-z
1/2+x,1/2+y,1/2-z
1/2-x,1/2+y,1/2+z
1/2+x,1/2-y,1/2+z
loop_
_atom_site_type_symbol
_atom_site_label
_atom_site_fract_x
_atom_site_fract_y
_atom_site_fract_z
Si Si1 0.261214 0.688445 0.396340
Si Si2 0.886518 0.916433 0.837226
Si Si3 0.386258 0.691527 0.257799
Si Si4 0.235538 0.699423 0.183230
Si Si5 0.388215 0.199015 0.550980
Si Si6 0.385019 0.085399 0.948212
Si Si7 0.113107 0.413567 0.128582
O O1 0.333651 0.626415 0.377122
O O2 0.230174 0.745219 0.356664
O O3 0.317487 0.733314 0.435156
O O4 0.167596 0.646395 0.416825
O O5 0.868293 0.881059 0.788399
O O6 0.000000 0.914679 0.849831
O O7 0.844244 0.000000 0.834940
O O8 0.500000 0.706345 0.248041
O O9 0.332863 0.677185 0.210442
O O10 0.343425 0.763373 0.283517
O O11 0.183797 0.624745 0.164951
O O12 0.365249 0.176119 0.500000
O O13 0.500000 0.227026 0.557106
O O14 0.369442 0.125004 0.580424
O O15 0.500000 0.097422 0.941144
O O16 0.356000 0.000000 0.934774
O O17 0.355803 0.099585 0.000000
O O18 0.142959 0.500000 0.124156
O O19 0.000000 0.404195 0.143908
#
# Coordination Sequence:
#
# PCOD8287043 Si02
#       7
#    16  16  16  16  16  16  16
#     4  10  17  28  45  63  86 112 139 173 214 249
#     4   9  17  28  43  63  84 108 138 168 202 249
#     4   9  17  30  45  61  85 114 141 173 214 254
#     4   9  18  29  44  66  86 110 144 180 214 256
#     4   9  17  28  43  65  90 114 141 172 209 257
#     4   9  18  31  45  62  85 114 147 179 210 246
#     4   9  17  29  45  64  87 115 144 177 217 257
#
# _framework density 15.502249000000001
#
# number of rings (size 3 to 8) (size 9 to 14) (size 15 to 20)
#    0.000    2.857    0.000    2.143    0.000    4.857 
#    0.000    1.429    0.000    0.000    0.000   20.000 
#    0.000    0.000    0.000   15.143    0.000    0.286 
#
# Total GULP energy -694334.063751 kJ/mol
# GULP energy per Si atom -12398.822567 kJ/mol
# Density = 1.546697 g / cm^3
# Si number density = 15.502249 Si / 1000 Ang^3
#
#
#
# Elastic Constant Matrix: (Units=GPa)
#
#
# Indices 1 2 3 4 5 6 
#
# 1 75.6513 50.3245 53.0008 0.0000 0.0000 0.0000
# 2 50.3245 111.8521 49.4595 0.0000 0.0000 0.0000
# 3 53.0008 49.4595 96.4243 0.0000 0.0000 0.0000
# 4 0.0000 0.0000 0.0000 15.9221 0.0000 0.0000
# 5 0.0000 0.0000 0.0000 0.0000 29.8852 0.0000
# 6 0.0000 0.0000 0.0000 0.0000 0.0000 24.8727
#
#
#
# Elastic Compliance Matrix: (Units=1/GPa)
#
#
# Indices 1 2 3 4 5 6 
#
# 1 0.024797 -0.006634 -0.010227 0.000000 0.000000 0.000000
# 2 -0.006634 0.013338 -0.003195 0.000000 0.000000 0.000000
# 3 -0.010227 -0.003195 0.017631 0.000000 0.000000 0.000000
# 4 0.000000 0.000000 0.000000 0.062806 0.000000 0.000000
# 5 0.000000 0.000000 0.000000 0.000000 0.033461 0.000000
# 6 0.000000 0.000000 0.000000 0.000000 0.000000 0.040205
#
#
# Mechanical properties :
#
#
# Convention : Reuss Voigt Hill
#
# Bulk Modulus (GPa) = 63.88351 65.49969 64.69160
# Shear Modulus (GPa) = 21.04665 22.87886 21.96276
#
# Velocity S-wave (km/s) = 3.68863 3.84584 3.76805
# Velocity P-wave (km/s) = 7.70973 7.87807 7.79436
#
# Compressibility (1/GPa) = 0.01565349
#
# Stress axis : x y z
#
# Youngs Moduli (GPa) = 40.32798 74.97338 56.71868
#
# Poissons Ratio (x) = 0.49740 0.58005
# Poissons Ratio (y) = 0.26755 0.18121
# Poissons Ratio (z) = 0.41243 0.23953
#
# Static dielectric constant tensor:
#      x y z
#    x 2.870070 0.000000 0.000000 
#    y 0.000000 2.979260 0.000000 
#    z 0.000000 0.000000 2.963530 
# 
# 
# High freq. dielectric constant tensor:
#      x y z
#    x 1.582880 0.000000 0.000000 
#    y 0.000000 1.593890 0.000000 
#    z 0.000000 0.000000 1.594840 
# 
# From -- ./inp_files/41113.got.cif
#   From: 2010.06.25/outbox.cif.g09.slc.cpg/sg71_21_cif.got.tgz:41113.got - 2010.06.28 04:59:45.
