data_PCOD8287034
_publ_section_title
;
Structure prediction by ZEFSAII (Michael W. Deem and Ramdas Pophale) SiO2 
 PCOD8287034
Probable space group: I M M M
;
_chemical_formula_sum "Si O2"
_cell_formula_units_Z 88
_cell_length_a 30.748102
_cell_length_b 23.445290
_cell_length_c 9.020595
_cell_angle_alpha 90.000000
_cell_angle_beta 90.000000
_cell_angle_gamma 90.000000
_cell_volume 6502.930413
_symmetry_space_group_name_H-M "I M M M"
_symmetry_group_IT_number 71
_symmetry_cell_setting 'orthorhombic'
loop_
_space_group_symop_operation_xyz
x,y,z
-x,-y,z
x,-y,-z
-x,y,-z
-x,-y,-z
x,y,-z
-x,y,z
x,-y,z
1/2+x,1/2+y,1/2+z
1/2-x,1/2-y,1/2+z
1/2+x,1/2-y,1/2-z
1/2-x,1/2+y,1/2-z
1/2-x,1/2-y,1/2-z
1/2+x,1/2+y,1/2-z
1/2-x,1/2+y,1/2+z
1/2+x,1/2-y,1/2+z
loop_
_atom_site_type_symbol
_atom_site_label
_atom_site_fract_x
_atom_site_fract_y
_atom_site_fract_z
Si Si1 0.754298 0.386462 0.830403
Si Si2 0.291527 0.724969 0.171333
Si Si3 0.839889 0.684213 0.175454
Si Si4 0.908373 0.610737 0.324116
Si Si5 0.000000 0.435176 0.675428
Si Si6 0.238475 0.500000 0.324894
Si Si7 0.859189 0.500000 0.675309
O O1 0.713134 0.343493 0.813231
O O2 0.799770 0.357292 0.775554
O O3 0.740497 0.441892 0.736330
O O4 0.760328 0.404883 0.000000
O O5 0.250000 0.750000 0.250000
O O6 0.333030 0.752517 0.254257
O O7 0.292286 0.743347 0.000000
O O8 0.886124 0.663298 0.239384
O O9 0.842256 0.690062 0.000000
O O10 0.904005 0.619847 0.500000
O O11 0.883444 0.555261 0.264920
O O12 0.958306 0.601809 0.274419
O O13 0.000000 0.500000 0.742229
O O14 0.000000 0.442386 0.500000
O O15 0.242609 0.500000 0.500000
O O16 0.189395 0.500000 0.264114
O O17 0.860270 0.500000 0.500000
#
# Coordination Sequence:
#
# PCOD8287034 Si02
#       7
#    16  16  16  16   8   8   8
#     4   9  18  29  39  54  77 100 123 155 196 234
#     4   9  17  29  43  58  75  97 124 158 197 235
#     4  10  19  29  41  57  75  99 129 163 201 239
#     4  10  17  28  43  58  75  98 131 169 207 245
#     4   9  16  26  43  61  77  99 131 170 209 248
#     4  11  19  25  38  59  77 100 132 161 192 231
#     4   9  16  24  37  56  73  95 129 167 202 236
#
# _framework density 13.532361
#
# number of rings (size 3 to 8) (size 9 to 14) (size 15 to 20)
#    0.000    2.455    2.727    2.455    0.000    3.636 
#    0.000    0.909    0.000    0.545    0.000    0.000 
#    0.000    0.000    0.000    0.000    0.000    0.909 
#
# Total GULP energy -545274.795953 kJ/mol
# GULP energy per Si atom -12392.608999 kJ/mol
# Density = 1.350156 g / cm^3
# Si number density = 13.532361 Si / 1000 Ang^3
#
#
#
# Elastic Constant Matrix: (Units=GPa)
#
#
# Indices 1 2 3 4 5 6 
#
# 1 67.9393 45.5720 27.9997 0.0000 0.0000 0.0000
# 2 45.5720 82.3387 42.9430 0.0000 0.0000 0.0000
# 3 27.9997 42.9430 64.2165 0.0000 0.0000 0.0000
# 4 0.0000 0.0000 0.0000 21.1046 0.0000 0.0000
# 5 0.0000 0.0000 0.0000 0.0000 14.5121 0.0000
# 6 0.0000 0.0000 0.0000 0.0000 0.0000 17.1562
#
#
#
# Elastic Compliance Matrix: (Units=1/GPa)
#
#
# Indices 1 2 3 4 5 6 
#
# 1 0.023647 -0.011840 -0.002393 0.000000 0.000000 0.000000
# 2 -0.011840 0.024577 -0.011273 0.000000 0.000000 0.000000
# 3 -0.002393 -0.011273 0.024154 0.000000 0.000000 0.000000
# 4 0.000000 0.000000 0.000000 0.047383 0.000000 0.000000
# 5 0.000000 0.000000 0.000000 0.000000 0.068908 0.000000
# 6 0.000000 0.000000 0.000000 0.000000 0.000000 0.058288
#
#
# Mechanical properties :
#
#
# Convention : Reuss Voigt Hill
#
# Bulk Modulus (GPa) = 46.80138 49.72486 48.26312
# Shear Modulus (GPa) = 16.38852 17.08658 16.73755
#
# Velocity S-wave (km/s) = 3.48381 3.55723 3.52071
# Velocity P-wave (km/s) = 7.13039 7.32781 7.22977
#
# Compressibility (1/GPa) = 0.02136689
#
# Stress axis : x y z
#
# Youngs Moduli (GPa) = 42.28834 40.68803 41.40077
#
# Poissons Ratio (x) = 0.48174 0.09907
# Poissons Ratio (y) = 0.50069 0.46671
# Poissons Ratio (z) = 0.10120 0.45867
#
# Static dielectric constant tensor:
#      x y z
#    x 2.596550 0.000000 0.000000 
#    y 0.000000 2.843850 0.000000 
#    z 0.000000 0.000000 2.629950 
# 
# 
# High freq. dielectric constant tensor:
#      x y z
#    x 1.473100 0.000000 0.000000 
#    y 0.000000 1.502190 0.000000 
#    z 0.000000 0.000000 1.514670 
# 
# From -- ./inp_files/17190.got.cif
#   From: 2010.06.25/outbox.cif.g09.slc.cpg/sg71_9_cif.got.tgz:17190.got - 2010.06.28 04:59:45.
