data_PCOD8287721
_publ_section_title
;
Structure prediction by ZEFSAII (Michael W. Deem and Ramdas Pophale) SiO2 
 PCOD8287721
Probable space group: I M M M
;
_chemical_formula_sum "Si O2"
_cell_formula_units_Z 104
_cell_length_a 8.963147
_cell_length_b 20.903838
_cell_length_c 29.974005
_cell_angle_alpha 90.000000
_cell_angle_beta 90.000000
_cell_angle_gamma 90.000000
_cell_volume 5616.054654
_symmetry_space_group_name_H-M "I M M M"
_symmetry_group_IT_number 71
_symmetry_cell_setting 'orthorhombic'
loop_
_space_group_symop_operation_xyz
x,y,z
-x,-y,z
x,-y,-z
-x,y,-z
-x,-y,-z
x,y,-z
-x,y,z
x,-y,z
1/2+x,1/2+y,1/2+z
1/2-x,1/2-y,1/2+z
1/2+x,1/2-y,1/2-z
1/2-x,1/2+y,1/2-z
1/2-x,1/2-y,1/2-z
1/2+x,1/2+y,1/2-z
1/2-x,1/2+y,1/2+z
1/2+x,1/2-y,1/2+z
loop_
_atom_site_type_symbol
_atom_site_label
_atom_site_fract_x
_atom_site_fract_y
_atom_site_fract_z
Si Si1 0.325178 0.647793 0.131153
Si Si2 0.173256 0.780327 0.871736
Si Si3 0.322592 0.138921 0.948105
Si Si4 0.174853 0.810948 0.773259
Si Si5 0.174864 0.070811 0.717885
Si Si6 0.675471 0.000000 0.949286
Si Si7 0.323282 0.570720 0.951146
O O1 0.500000 0.665261 0.129603
O O2 0.231904 0.710587 0.140412
O O3 0.290933 0.594443 0.168042
O O4 0.261697 0.620051 0.084860
O O5 0.254276 0.808957 0.915040
O O6 0.205273 0.818847 0.826098
O O7 0.000000 0.778019 0.883281
O O8 0.500000 0.143794 0.945241
O O9 0.266175 0.068335 0.930146
O O10 0.273780 0.150504 0.000000
O O11 0.250000 0.750000 0.750000
O O12 0.240380 0.876556 0.752142
O O13 0.000000 0.803739 0.762934
O O14 0.000000 0.064906 0.725805
O O15 0.247285 0.000000 0.724958
O O16 0.500000 0.000000 0.944638
O O17 0.725090 0.000000 0.000000
O O18 0.500000 0.566025 0.946342
O O19 0.255619 0.500000 0.943467
O O20 0.277728 0.596405 0.000000
#
# Coordination Sequence:
#
# PCOD8287721 Si02
#       7
#    16  16  16  16  16   8  16
#     4  10  18  30  52  76  97 133 180 218 256 310
#     4  11  23  35  49  76 111 144 175 211 260 317
#     4   9  18  35  59  82 104 135 177 220 261 312
#     4  10  20  36  56  77 104 142 180 218 266 319
#     4   9  17  31  54  80 100 126 175 232 274 312
#     4   7  12  28  55  81 101 127 169 219 263 303
#     4   8  14  25  43  71 103 126 154 209 267 304
#
# _framework density 18.518339000000001
#
# number of rings (size 3 to 8) (size 9 to 14) (size 15 to 20)
#    0.000    2.692    1.538    2.308    0.000    3.385 
#    1.385    1.923    0.000    4.615    0.000    1.077 
#    0.000    0.000    0.000    0.000    0.000    0.000 
#
# Total GULP energy -644247.500409 kJ/mol
# GULP energy per Si atom -12389.375008 kJ/mol
# Density = 1.847619 g / cm^3
# Si number density = 18.518339 Si / 1000 Ang^3
#
#
#
# Elastic Constant Matrix: (Units=GPa)
#
#
# Indices 1 2 3 4 5 6 
#
# 1 34.0818 24.7877 31.0313 0.0000 0.0000 0.0000
# 2 24.7877 133.9972 59.4709 0.0000 0.0000 0.0000
# 3 31.0313 59.4709 117.3455 0.0000 0.0000 0.0000
# 4 0.0000 0.0000 0.0000 31.6204 0.0000 0.0000
# 5 0.0000 0.0000 0.0000 0.0000 18.7592 0.0000
# 6 0.0000 0.0000 0.0000 0.0000 0.0000 13.4403
#
#
#
# Elastic Compliance Matrix: (Units=1/GPa)
#
#
# Indices 1 2 3 4 5 6 
#
# 1 0.039864 -0.003478 -0.008779 0.000000 0.000000 0.000000
# 2 -0.003478 0.009932 -0.004114 0.000000 0.000000 0.000000
# 3 -0.008779 -0.004114 0.012928 0.000000 0.000000 0.000000
# 4 0.000000 0.000000 0.000000 0.031625 0.000000 0.000000
# 5 0.000000 0.000000 0.000000 0.000000 0.053307 0.000000
# 6 0.000000 0.000000 0.000000 0.000000 0.000000 0.074403
#
#
# Mechanical properties :
#
#
# Convention : Reuss Voigt Hill
#
# Bulk Modulus (GPa) = 33.35276 57.33382 45.34329
# Shear Modulus (GPa) = 18.88247 24.10628 21.49438
#
# Velocity S-wave (km/s) = 3.19668 3.61189 3.41061
# Velocity P-wave (km/s) = 5.62804 6.95860 6.32839
#
# Compressibility (1/GPa) = 0.02998252
#
# Stress axis : x y z
#
# Youngs Moduli (GPa) = 25.08525 100.68431 77.34937
#
# Poissons Ratio (x) = 0.35017 0.67906
# Poissons Ratio (y) = 0.08724 0.31820
# Poissons Ratio (z) = 0.22023 0.41420
#
# Static dielectric constant tensor:
#      x y z
#    x 2.964930 0.000000 0.000000 
#    y 0.000000 3.767810 0.000000 
#    z 0.000000 0.000000 3.581280 
# 
# 
# High freq. dielectric constant tensor:
#      x y z
#    x 1.668560 0.000000 0.000000 
#    y 0.000000 1.727600 0.000000 
#    z 0.000000 0.000000 1.722180 
# 
# From -- ./inp_files/51165.got.cif
#   From: 2010.06.25/outbox.cif.g09.slc.cpg/sg71_26_cif.got.tgz:51165.got - 2010.06.28 04:59:45.
