data_PCOD8287672
_publ_section_title
;
Structure prediction by ZEFSAII (Michael W. Deem and Ramdas Pophale) SiO2 
 PCOD8287672
Probable space group: I M M M
;
_chemical_formula_sum "Si O2"
_cell_formula_units_Z 96
_cell_length_a 8.756619
_cell_length_b 24.920962
_cell_length_c 25.365152
_cell_angle_alpha 90.000000
_cell_angle_beta 90.000000
_cell_angle_gamma 90.000000
_cell_volume 5535.268933
_symmetry_space_group_name_H-M "I M M M"
_symmetry_group_IT_number 71
_symmetry_cell_setting 'orthorhombic'
loop_
_space_group_symop_operation_xyz
x,y,z
-x,-y,z
x,-y,-z
-x,y,-z
-x,-y,-z
x,y,-z
-x,y,z
x,-y,z
1/2+x,1/2+y,1/2+z
1/2-x,1/2-y,1/2+z
1/2+x,1/2-y,1/2-z
1/2-x,1/2+y,1/2-z
1/2-x,1/2-y,1/2-z
1/2+x,1/2+y,1/2-z
1/2-x,1/2+y,1/2+z
1/2+x,1/2-y,1/2+z
loop_
_atom_site_type_symbol
_atom_site_label
_atom_site_fract_x
_atom_site_fract_y
_atom_site_fract_z
Si Si1 0.826577 0.302581 0.500000
Si Si2 0.331238 0.000000 0.188317
Si Si3 0.333179 0.000000 0.313214
Si Si4 0.821946 0.891020 0.805854
Si Si5 0.322296 0.807826 0.500000
Si Si6 0.176503 0.810687 0.392284
Si Si7 0.682361 0.114874 0.693378
Si Si8 0.328211 0.816002 0.113980
O O1 0.701595 0.255902 0.500000
O O2 0.806159 0.337203 0.553471
O O3 0.000000 0.277050 0.500000
O O4 0.241851 0.053303 0.170419
O O5 0.500000 0.000000 0.162305
O O6 0.347287 0.000000 0.250557
O O7 0.251872 0.943325 0.327938
O O8 0.500000 0.000000 0.339801
O O9 0.743249 0.873057 0.751654
O O10 0.792284 0.844716 0.848564
O O11 0.000000 0.897092 0.795492
O O12 0.500000 0.822230 0.500000
O O13 0.244932 0.832272 0.447477
O O14 0.264794 0.838339 0.344628
O O15 0.202634 0.747448 0.385809
O O16 0.000000 0.826487 0.389690
O O17 0.500000 0.112221 0.696312
O O18 0.500000 0.828621 0.133683
#
# Coordination Sequence:
#
# PCOD8287672 Si02
#       8
#     8   8   8  16   8  16  16  16
#     4   8  16  32  52  71  94 127 168 208 242 284
#     4   9  17  33  53  70  93 128 167 203 241 288
#     4   7  14  29  49  70  91 120 159 199 237 284
#     4  11  21  32  49  75 103 130 163 203 246 292
#     4  10  18  30  50  73  96 127 166 202 242 294
#     4  10  20  34  51  73 101 131 165 206 248 291
#     4  10  19  33  52  73  99 132 167 202 246 297
#     4   9  18  33  51  71  98 132 165 200 246 296
#
# _framework density 17.343330000000002
#
# number of rings (size 3 to 8) (size 9 to 14) (size 15 to 20)
#    0.000    2.500    0.000    5.500    0.000    4.000 
#    0.000    1.250    0.000    1.000    0.000    7.000 
#    0.000    0.000    0.000    0.000    0.000    0.000 
#
# Total GULP energy -594886.994305 kJ/mol
# GULP energy per Si atom -12393.479048 kJ/mol
# Density = 1.730386 g / cm^3
# Si number density = 17.343330 Si / 1000 Ang^3
#
#
#
# Elastic Constant Matrix: (Units=GPa)
#
#
# Indices 1 2 3 4 5 6 
#
# 1 102.3594 32.9534 40.9122 0.0000 0.0000 0.0000
# 2 32.9534 64.1546 46.8003 0.0000 0.0000 0.0000
# 3 40.9122 46.8003 104.3824 0.0001 0.0000 0.0000
# 4 0.0000 0.0000 0.0001 0.6401 0.0000 0.0000
# 5 0.0000 0.0000 0.0000 0.0000 27.1060 0.0000
# 6 0.0000 0.0000 0.0000 0.0000 0.0000 25.0262
#
#
#
# Elastic Compliance Matrix: (Units=1/GPa)
#
#
# Indices 1 2 3 4 5 6 
#
# 1 0.012288 -0.004159 -0.002952 0.000000 0.000000 0.000000
# 2 -0.004159 0.024571 -0.009386 0.000000 0.000000 0.000000
# 3 -0.002952 -0.009386 0.014946 -0.000001 0.000000 0.000000
# 4 0.000000 0.000000 -0.000001 1.562234 0.000000 0.000000
# 5 0.000000 0.000000 0.000000 0.000000 0.036892 0.000000
# 6 0.000000 0.000000 0.000000 0.000000 0.000000 0.039958
#
#
# Mechanical properties :
#
#
# Convention : Reuss Voigt Hill
#
# Bulk Modulus (GPa) = 53.16088 56.91423 55.03756
# Shear Modulus (GPa) = 2.88992 20.56983 11.72987
#
# Velocity S-wave (km/s) = 1.29225 3.44762 2.60346
# Velocity P-wave (km/s) = 5.73979 6.98109 6.39065
#
# Compressibility (1/GPa) = 0.01881082
#
# Stress axis : x y z
#
# Youngs Moduli (GPa) = 81.37970 40.69878 66.90956
#
# Poissons Ratio (x) = 0.16925 0.19750
# Poissons Ratio (y) = 0.33842 0.62805
# Poissons Ratio (z) = 0.24021 0.38202
#
# Static dielectric constant tensor:
#      x y z
#    x 3.209420 0.000000 0.000000 
#    y 0.000000 3.245880 0.000000 
#    z 0.000000 0.000000 3.203800 
# 
# 
# High freq. dielectric constant tensor:
#      x y z
#    x 1.672020 0.000000 0.000000 
#    y 0.000000 1.649370 0.000000 
#    z 0.000000 0.000000 1.657180 
# 
# From -- ./inp_files/57940.got.cif
#   From: 2010.06.25/outbox.cif.g09.slc.cpg/sg71_29_cif.got.tgz:57940.got - 2010.06.28 04:59:45.
