data_PCOD8287491
_publ_section_title
;
Structure prediction by ZEFSAII (Michael W. Deem and Ramdas Pophale) SiO2 
 PCOD8287491
Probable space group: I M M M
;
_chemical_formula_sum "Si O2"
_cell_formula_units_Z 104
_cell_length_a 20.901665
_cell_length_b 9.074900
_cell_length_c 30.374187
_cell_angle_alpha 90.000000
_cell_angle_beta 90.000000
_cell_angle_gamma 90.000000
_cell_volume 5761.391576
_symmetry_space_group_name_H-M "I M M M"
_symmetry_group_IT_number 71
_symmetry_cell_setting 'orthorhombic'
loop_
_space_group_symop_operation_xyz
x,y,z
-x,-y,z
x,-y,-z
-x,y,-z
-x,-y,-z
x,y,-z
-x,y,z
x,-y,z
1/2+x,1/2+y,1/2+z
1/2-x,1/2-y,1/2+z
1/2+x,1/2-y,1/2-z
1/2-x,1/2+y,1/2-z
1/2-x,1/2-y,1/2-z
1/2+x,1/2+y,1/2-z
1/2-x,1/2+y,1/2+z
1/2+x,1/2-y,1/2+z
loop_
_atom_site_type_symbol
_atom_site_label
_atom_site_fract_x
_atom_site_fract_y
_atom_site_fract_z
Si Si1 0.689480 0.672886 0.772530
Si Si2 0.427330 0.327790 0.712765
Si Si3 0.000000 0.840870 0.551574
Si Si4 0.219095 0.826286 0.368610
Si Si5 0.137925 0.324812 0.133393
Si Si6 0.638110 0.323058 0.950258
Si Si7 0.428841 0.174932 0.452323
O O1 0.702246 0.500000 0.767710
O O2 0.750000 0.750000 0.750000
O O3 0.622601 0.721530 0.750510
O O4 0.681528 0.716549 0.823995
O O5 0.500000 0.287750 0.727236
O O6 0.420846 0.500000 0.703082
O O7 0.410199 0.241736 0.668691
O O8 0.067178 0.759058 0.562910
O O9 0.000000 0.869003 0.500000
O O10 0.000000 0.000000 0.575877
O O11 0.290378 0.763634 0.361349
O O12 0.186375 0.760094 0.412917
O O13 0.222646 0.000000 0.375351
O O14 0.134563 0.500000 0.137838
O O15 0.116795 0.265416 0.085688
O O16 0.635215 0.500000 0.949383
O O17 0.658242 0.271763 0.000000
O O18 0.402006 0.226055 0.500000
O O19 0.500000 0.238587 0.445322
O O20 0.431518 0.000000 0.450390
#
# Coordination Sequence:
#
# PCOD8287491 Si02
#       7
#    16  16   8  16  16  16  16
#     4  10  19  34  52  69  95 126 158 194 234 281
#     4  10  21  35  50  69  94 125 160 197 238 283
#     4   7  10  18  32  50  78 120 159 181 211 269
#     4   9  17  27  41  64  89 115 151 190 226 272
#     4  10  18  29  48  71  93 120 157 195 233 280
#     4   8  13  22  36  57  88 122 153 187 228 274
#     4   8  14  24  38  60  90 118 144 180 227 273
#
# _framework density 18.051195
#
# number of rings (size 3 to 8) (size 9 to 14) (size 15 to 20)
#    0.000    3.000    1.538    1.846    0.000    1.538 
#    1.385    3.077    0.000    0.462    0.000    2.154 
#    0.000    0.615    0.000    0.000    0.000   17.308 
#
# Total GULP energy -644192.843234 kJ/mol
# GULP energy per Si atom -12388.323908 kJ/mol
# Density = 1.801011 g / cm^3
# Si number density = 18.051195 Si / 1000 Ang^3
#
#
#
# Elastic Constant Matrix: (Units=GPa)
#
#
# Indices 1 2 3 4 5 6 
#
# 1 137.4071 20.0773 77.5343 0.0000 0.0000 0.0000
# 2 20.0773 12.0243 19.5695 0.0000 0.0000 0.0000
# 3 77.5343 19.5695 148.8175 0.0000 0.0000 0.0000
# 4 0.0000 0.0000 0.0000 14.5677 0.0000 0.0000
# 5 0.0000 0.0000 0.0000 0.0000 38.3607 0.0000
# 6 0.0000 0.0000 0.0000 0.0000 0.0000 14.0449
#
#
#
# Elastic Compliance Matrix: (Units=1/GPa)
#
#
# Indices 1 2 3 4 5 6 
#
# 1 0.011537 -0.012062 -0.004424 0.000000 0.000000 0.000000
# 2 -0.012062 0.118422 -0.009288 0.000000 0.000000 0.000000
# 3 -0.004424 -0.009288 0.010246 0.000000 0.000000 0.000000
# 4 0.000000 0.000000 0.000000 0.068645 0.000000 0.000000
# 5 0.000000 0.000000 0.000000 0.000000 0.026068 0.000000
# 6 0.000000 0.000000 0.000000 0.000000 0.000000 0.071200
#
#
# Mechanical properties :
#
#
# Convention : Reuss Voigt Hill
#
# Bulk Modulus (GPa) = 11.27968 59.17903 35.22936
# Shear Modulus (GPa) = 12.91259 25.46585 19.18922
#
# Velocity S-wave (km/s) = 2.67747 3.76008 3.26397
# Velocity P-wave (km/s) = 3.97753 7.19070 5.81063
#
# Compressibility (1/GPa) = 0.08865497
#
# Stress axis : x y z
#
# Youngs Moduli (GPa) = 86.67976 8.44441 97.59762
#
# Poissons Ratio (x) = 0.10186 0.43182
# Poissons Ratio (y) = 1.04556 0.90648
# Poissons Ratio (z) = 0.38351 0.07843
#
# Static dielectric constant tensor:
#      x y z
#    x 3.706290 0.000000 0.000000 
#    y 0.000000 2.725950 0.000000 
#    z 0.000000 0.000000 3.607390 
# 
# 
# High freq. dielectric constant tensor:
#      x y z
#    x 1.707120 0.000000 0.000000 
#    y 0.000000 1.627360 0.000000 
#    z 0.000000 0.000000 1.704920 
# 
# From -- ./inp_files/70496.got.cif
#   From: 2010.06.25/outbox.cif.g09.slc.cpg/sg71_36_cif.got.tgz:70496.got - 2010.06.28 04:59:45.
