data_PCOD8287400
_publ_section_title
;
Structure prediction by ZEFSAII (Michael W. Deem and Ramdas Pophale) SiO2 
 PCOD8287400
Probable space group: I M M M
;
_chemical_formula_sum "Si O2"
_cell_formula_units_Z 72
_cell_length_a 7.836687
_cell_length_b 36.613614
_cell_length_c 14.626573
_cell_angle_alpha 90.000000
_cell_angle_beta 90.000000
_cell_angle_gamma 90.000000
_cell_volume 4196.794296
_symmetry_space_group_name_H-M "I M M M"
_symmetry_group_IT_number 71
_symmetry_cell_setting 'orthorhombic'
loop_
_space_group_symop_operation_xyz
x,y,z
-x,-y,z
x,-y,-z
-x,y,-z
-x,-y,-z
x,y,-z
-x,y,z
x,-y,z
1/2+x,1/2+y,1/2+z
1/2-x,1/2-y,1/2+z
1/2+x,1/2-y,1/2-z
1/2-x,1/2+y,1/2-z
1/2-x,1/2-y,1/2-z
1/2+x,1/2+y,1/2-z
1/2-x,1/2+y,1/2+z
1/2+x,1/2-y,1/2+z
loop_
_atom_site_type_symbol
_atom_site_label
_atom_site_fract_x
_atom_site_fract_y
_atom_site_fract_z
Si Si1 0.296463 0.160523 0.214132
Si Si2 0.500000 0.040592 0.108144
Si Si3 0.198642 0.269584 0.396029
Si Si4 0.192109 0.908916 0.894746
Si Si5 0.804408 0.690105 0.099754
O O1 0.500000 0.156153 0.204568
O O2 0.232503 0.197301 0.164947
O O3 0.204187 0.126599 0.167977
O O4 0.234046 0.163628 0.320091
O O5 0.328705 0.061361 0.140902
O O6 0.500000 0.000000 0.151699
O O7 0.500000 0.037434 0.000000
O O8 0.242037 0.279856 0.500000
O O9 0.290464 0.232059 0.367687
O O10 0.000000 0.263190 0.380848
O O11 0.000000 0.924969 0.886153
O O12 0.232573 0.898248 0.000000
O O13 0.000000 0.680336 0.087560
O O14 0.712478 0.684145 0.000000
#
# Coordination Sequence:
#
# PCOD8287400 Si02
#       5
#    16   8  16  16  16
#     4  10  18  29  45  62  89 127 160 199 249 290
#     4   9  18  34  54  74 103 137 159 185 228 278
#     4   9  17  27  40  58  81 116 161 204 247 293
#     4  10  20  32  49  75 102 128 161 195 228 276
#     4   9  18  30  42  59  85 119 163 210 249 288
#
# _framework density 17.155951999999999
#
# number of rings (size 3 to 8) (size 9 to 14) (size 15 to 20)
#    0.000    2.556    1.111    1.333    0.000    3.111 
#    0.000    4.444    0.000    0.000    0.000    0.000 
#    0.000    1.778    0.000    2.000    0.000    0.222 
#
# Total GULP energy -446187.421376 kJ/mol
# GULP energy per Si atom -12394.095038 kJ/mol
# Density = 1.711690 g / cm^3
# Si number density = 17.155952 Si / 1000 Ang^3
#
#
#
# Elastic Constant Matrix: (Units=GPa)
#
#
# Indices 1 2 3 4 5 6 
#
# 1 64.5920 34.3185 30.1648 0.0000 0.0000 0.0000
# 2 34.3185 89.5995 58.3848 -0.0001 0.0000 0.0000
# 3 30.1648 58.3848 81.6510 -0.0006 0.0000 -0.0001
# 4 0.0000 -0.0001 -0.0006 12.8117 0.0000 0.0000
# 5 0.0000 0.0000 0.0000 0.0000 12.3409 0.0000
# 6 0.0000 0.0000 -0.0001 0.0000 0.0000 19.2018
#
#
#
# Elastic Compliance Matrix: (Units=1/GPa)
#
#
# Indices 1 2 3 4 5 6 
#
# 1 0.019979 -0.005323 -0.003575 0.000000 0.000000 0.000000
# 2 -0.005323 0.022316 -0.013991 0.000000 0.000000 0.000000
# 3 -0.003575 -0.013991 0.023572 0.000001 0.000000 0.000000
# 4 0.000000 0.000000 0.000001 0.078054 0.000000 0.000000
# 5 0.000000 0.000000 0.000000 0.000000 0.081031 0.000000
# 6 0.000000 0.000000 0.000000 0.000000 0.000000 0.052078
#
#
# Mechanical properties :
#
#
# Convention : Reuss Voigt Hill
#
# Bulk Modulus (GPa) = 49.77504 53.50874 51.64189
# Shear Modulus (GPa) = 15.17426 16.40252 15.78839
#
# Velocity S-wave (km/s) = 2.97726 3.09541 3.03691
# Velocity P-wave (km/s) = 6.39492 6.63572 6.51643
#
# Compressibility (1/GPa) = 0.02009039
#
# Stress axis : x y z
#
# Youngs Moduli (GPa) = 50.05131 44.81025 42.42306
#
# Poissons Ratio (x) = 0.23853 0.15166
# Poissons Ratio (y) = 0.26643 0.59353
# Poissons Ratio (z) = 0.17892 0.62693
#
# Static dielectric constant tensor:
#      x y z
#    x 3.161740 0.000000 0.000000 
#    y 0.000000 3.042030 0.000000 
#    z 0.000000 0.000000 3.436510 
# 
# 
# High freq. dielectric constant tensor:
#      x y z
#    x 1.660670 0.000000 0.000000 
#    y 0.000000 1.621930 0.000000 
#    z 0.000000 0.000000 1.650070 
# 
# From -- ./inp_files/6457.got.cif
#   From: 2010.06.25/outbox.cif.g09.slc.cpg/sg71_4_cif.got.tgz:6457.got - 2010.06.28 04:59:45.
