data_PCOD8287616
_publ_section_title
;
Structure prediction by ZEFSAII (Michael W. Deem and Ramdas Pophale) SiO2 
 PCOD8287616
Probable space group: I M M M
;
_chemical_formula_sum "Si O2"
_cell_formula_units_Z 96
_cell_length_a 26.757905
_cell_length_b 8.999499
_cell_length_c 23.265827
_cell_angle_alpha 90.000000
_cell_angle_beta 90.000000
_cell_angle_gamma 90.000000
_cell_volume 5602.591203
_symmetry_space_group_name_H-M "I M M M"
_symmetry_group_IT_number 71
_symmetry_cell_setting 'orthorhombic'
loop_
_space_group_symop_operation_xyz
x,y,z
-x,-y,z
x,-y,-z
-x,y,-z
-x,-y,-z
x,y,-z
-x,y,z
x,-y,z
1/2+x,1/2+y,1/2+z
1/2-x,1/2-y,1/2+z
1/2+x,1/2-y,1/2-z
1/2-x,1/2+y,1/2-z
1/2-x,1/2-y,1/2-z
1/2+x,1/2+y,1/2-z
1/2-x,1/2+y,1/2+z
1/2+x,1/2-y,1/2+z
loop_
_atom_site_type_symbol
_atom_site_label
_atom_site_fract_x
_atom_site_fract_y
_atom_site_fract_z
Si Si1 0.756517 0.671073 0.500000
Si Si2 0.893237 0.334659 0.882199
Si Si3 0.150059 0.322722 0.000000
Si Si4 0.793660 0.331831 0.808937
Si Si5 0.793448 0.674122 0.623236
Si Si6 0.444376 0.674169 0.714556
Si Si7 0.350961 0.323519 0.787235
O O1 0.739581 0.500000 0.500000
O O2 0.706473 0.766190 0.500000
O O3 0.790672 0.707408 0.555316
O O4 0.914961 0.500000 0.890177
O O5 0.843765 0.338364 0.844932
O O6 0.934614 0.239303 0.848840
O O7 0.880190 0.264279 0.944317
O O8 0.153813 0.500000 0.000000
O O9 0.775421 0.500000 0.794642
O O10 0.754610 0.245314 0.847455
O O11 0.804528 0.239774 0.750543
O O12 0.795367 0.500000 0.636375
O O13 0.843275 0.752700 0.649387
O O14 0.500000 0.720225 0.735078
O O15 0.438954 0.500000 0.707914
O O16 0.404234 0.731211 0.761731
O O17 0.347841 0.500000 0.790049
#
# Coordination Sequence:
#
# PCOD8287616 Si02
#       7
#     8  16   8  16  16  16  16
#     4  10  22  34  48  69  98 137 172 202 234 275
#     4   9  18  30  48  72  97 128 165 204 243 284
#     4  10  18  32  49  69  98 132 171 208 238 278
#     4  10  18  30  48  70  98 131 165 199 237 282
#     4  11  21  33  47  69 100 131 165 198 235 283
#     4   9  19  36  55  73  94 121 157 204 254 299
#     4  10  20  33  50  72  97 125 158 199 247 294
#
# _framework density 17.134929
#
# number of rings (size 3 to 8) (size 9 to 14) (size 15 to 20)
#    0.000    2.167    1.667    2.000    0.000    3.000 
#    0.000    0.417    0.000    2.500    0.000    0.583 
#    0.000    4.667    0.000    0.000    0.000    0.000 
#
# Total GULP energy -595072.057326 kJ/mol
# GULP energy per Si atom -12397.334528 kJ/mol
# Density = 1.709593 g / cm^3
# Si number density = 17.134929 Si / 1000 Ang^3
#
#
#
# Elastic Constant Matrix: (Units=GPa)
#
#
# Indices 1 2 3 4 5 6 
#
# 1 64.6444 34.6425 49.7008 0.0000 0.0000 0.0000
# 2 34.6425 68.4578 47.9641 0.0000 0.0000 0.0000
# 3 49.7008 47.9641 117.1102 0.0000 0.0000 0.0000
# 4 0.0000 0.0000 0.0000 23.3704 0.0000 0.0000
# 5 0.0000 0.0000 0.0000 0.0000 9.7551 0.0000
# 6 0.0000 0.0000 0.0000 0.0000 0.0000 21.2798
#
#
#
# Elastic Compliance Matrix: (Units=1/GPa)
#
#
# Indices 1 2 3 4 5 6 
#
# 1 0.025400 -0.007434 -0.007735 0.000000 0.000000 0.000000
# 2 -0.007434 0.022662 -0.006127 0.000000 0.000000 0.000000
# 3 -0.007735 -0.006127 0.014331 0.000000 0.000000 0.000000
# 4 0.000000 0.000000 0.000000 0.042789 0.000000 0.000000
# 5 0.000000 0.000000 0.000000 0.000000 0.102510 0.000000
# 6 0.000000 0.000000 0.000000 0.000000 0.000000 0.046993
#
#
# Mechanical properties :
#
#
# Convention : Reuss Voigt Hill
#
# Bulk Modulus (GPa) = 50.50057 57.20300 53.85179
# Shear Modulus (GPa) = 16.45403 18.74139 17.59771
#
# Velocity S-wave (km/s) = 3.10217 3.31078 3.20817
# Velocity P-wave (km/s) = 6.50904 6.93335 6.72454
#
# Compressibility (1/GPa) = 0.01980175
#
# Stress axis : x y z
#
# Youngs Moduli (GPa) = 39.37023 44.12673 69.77984
#
# Poissons Ratio (x) = 0.32804 0.53973
# Poissons Ratio (y) = 0.29268 0.42751
# Poissons Ratio (z) = 0.30452 0.27034
#
# Static dielectric constant tensor:
#      x y z
#    x 3.172450 0.000000 0.000000 
#    y 0.000000 3.345870 0.000000 
#    z 0.000000 0.000000 3.509660 
# 
# 
# High freq. dielectric constant tensor:
#      x y z
#    x 1.634180 0.000000 0.000000 
#    y 0.000000 1.667590 0.000000 
#    z 0.000000 0.000000 1.658710 
# 
# From -- ./inp_files/61913.got.cif
#   From: 2010.06.25/outbox.cif.g09.slc.cpg/sg71_31_cif.got.tgz:61913.got - 2010.06.28 04:59:45.
