data_PCOD8287495
_publ_section_title
;
Structure prediction by ZEFSAII (Michael W. Deem and Ramdas Pophale) SiO2 
 PCOD8287495
Probable space group: I M M M
;
_chemical_formula_sum "Si O2"
_cell_formula_units_Z 104
_cell_length_a 8.997392
_cell_length_b 28.033721
_cell_length_c 23.859656
_cell_angle_alpha 90.000000
_cell_angle_beta 90.000000
_cell_angle_gamma 90.000000
_cell_volume 6018.130029
_symmetry_space_group_name_H-M "I M M M"
_symmetry_group_IT_number 71
_symmetry_cell_setting 'orthorhombic'
loop_
_space_group_symop_operation_xyz
x,y,z
-x,-y,z
x,-y,-z
-x,y,-z
-x,-y,-z
x,y,-z
-x,y,z
x,-y,z
1/2+x,1/2+y,1/2+z
1/2-x,1/2-y,1/2+z
1/2+x,1/2-y,1/2-z
1/2-x,1/2+y,1/2-z
1/2-x,1/2-y,1/2-z
1/2+x,1/2+y,1/2-z
1/2-x,1/2+y,1/2+z
1/2+x,1/2-y,1/2+z
loop_
_atom_site_type_symbol
_atom_site_label
_atom_site_fract_x
_atom_site_fract_y
_atom_site_fract_z
Si Si1 0.826391 0.816585 0.564362
Si Si2 0.173047 0.055414 0.854939
Si Si3 0.332560 0.278156 0.566624
Si Si4 0.171370 0.627294 0.433799
Si Si5 0.676560 0.500000 0.062485
Si Si6 0.174799 0.555049 0.759893
Si Si7 0.675552 0.590174 0.867399
O O1 0.783061 0.827688 0.500000
O O2 0.740563 0.770710 0.588508
O O3 0.778733 0.861298 0.601835
O O4 0.000000 0.805762 0.569193
O O5 0.241488 0.083430 0.906972
O O6 0.253195 0.071927 0.798152
O O7 0.000000 0.067106 0.849365
O O8 0.202377 0.000000 0.866748
O O9 0.329297 0.277990 0.500000
O O10 0.500000 0.281789 0.589755
O O11 0.239415 0.323150 0.589092
O O12 0.192213 0.622816 0.500000
O O13 0.000000 0.625468 0.416125
O O14 0.500000 0.500000 0.059171
O O15 0.733871 0.453219 0.094419
O O16 0.744311 0.500000 0.000000
O O17 0.216346 0.500000 0.772293
O O18 0.242078 0.588308 0.808111
O O19 0.000000 0.562863 0.756146
O O20 0.500000 0.586601 0.857387
#
# Coordination Sequence:
#
# PCOD8287495 Si02
#       7
#    16  16  16  16   8  16  16
#     4   9  17  29  46  71 101 132 169 213 259 304
#     4  10  21  36  55  78 104 134 169 207 244 289
#     4   9  17  30  49  72  99 133 171 208 246 294
#     4  10  20  34  54  80 109 138 165 197 242 295
#     4   9  16  26  43  69  99 131 168 211 258 305
#     4  10  20  34  51  70  96 131 173 215 255 300
#     4  10  18  29  48  71  97 131 172 216 257 303
#
# _framework density 17.281116000000001
#
# number of rings (size 3 to 8) (size 9 to 14) (size 15 to 20)
#    0.000    2.385    0.769    2.308    0.000    7.077 
#    0.000    1.538    0.000    2.769    0.000    0.000 
#    0.000    0.000    0.000    0.000    0.000    0.000 
#
# Total GULP energy -644933.865207 kJ/mol
# GULP energy per Si atom -12402.574331 kJ/mol
# Density = 1.724178 g / cm^3
# Si number density = 17.281116 Si / 1000 Ang^3
#
#
#
# Elastic Constant Matrix: (Units=GPa)
#
#
# Indices 1 2 3 4 5 6 
#
# 1 86.4382 58.0257 40.4595 0.0000 0.0000 0.0000
# 2 58.0257 114.5761 51.3336 -0.0001 0.0000 0.0000
# 3 40.4595 51.3336 64.0200 -0.0001 0.0000 0.0000
# 4 0.0000 -0.0001 -0.0001 12.4906 0.0000 0.0000
# 5 0.0000 0.0000 0.0000 0.0000 25.4958 0.0000
# 6 0.0000 0.0000 0.0000 0.0000 0.0000 29.6237
#
#
#
# Elastic Compliance Matrix: (Units=1/GPa)
#
#
# Indices 1 2 3 4 5 6 
#
# 1 0.019248 -0.006708 -0.006786 0.000000 0.000000 0.000000
# 2 -0.006708 0.015959 -0.008557 0.000000 0.000000 0.000000
# 3 -0.006786 -0.008557 0.026770 0.000000 0.000000 0.000000
# 4 0.000000 0.000000 0.000000 0.080060 0.000000 0.000000
# 5 0.000000 0.000000 0.000000 0.000000 0.039222 0.000000
# 6 0.000000 0.000000 0.000000 0.000000 0.000000 0.033757
#
#
# Mechanical properties :
#
#
# Convention : Reuss Voigt Hill
#
# Bulk Modulus (GPa) = 55.94288 62.74131 59.34210
# Shear Modulus (GPa) = 18.86250 21.20306 20.03278
#
# Velocity S-wave (km/s) = 3.30738 3.50658 3.40844
# Velocity P-wave (km/s) = 6.85767 7.26498 7.06426
#
# Compressibility (1/GPa) = 0.01787538
#
# Stress axis : x y z
#
# Youngs Moduli (GPa) = 51.95303 62.66169 37.35491
#
# Poissons Ratio (x) = 0.42031 0.25349
# Poissons Ratio (y) = 0.34848 0.31965
# Poissons Ratio (z) = 0.35256 0.53621
#
# Static dielectric constant tensor:
#      x y z
#    x 3.224500 0.000000 0.000000 
#    y 0.000000 3.248040 0.000000 
#    z 0.000000 0.000000 3.041490 
# 
# 
# High freq. dielectric constant tensor:
#      x y z
#    x 1.669210 0.000000 0.000000 
#    y 0.000000 1.665460 0.000000 
#    z 0.000000 0.000000 1.645270 
# 
# From -- ./inp_files/15527.got.cif
#   From: 2010.06.25/outbox.cif.g09.slc.cpg/sg71_8_cif.got.tgz:15527.got - 2010.06.28 04:59:45.
