data_PCOD8287818
_publ_section_title
;
Structure prediction by ZEFSAII (Michael W. Deem and Ramdas Pophale) SiO2 
 PCOD8287818
Probable space group: I M M M
;
_chemical_formula_sum "Si O2"
_cell_formula_units_Z 104
_cell_length_a 22.515390
_cell_length_b 29.560696
_cell_length_c 9.145158
_cell_angle_alpha 90.000000
_cell_angle_beta 90.000000
_cell_angle_gamma 90.000000
_cell_volume 6086.748289
_symmetry_space_group_name_H-M "I M M M"
_symmetry_group_IT_number 71
_symmetry_cell_setting 'orthorhombic'
loop_
_space_group_symop_operation_xyz
x,y,z
-x,-y,z
x,-y,-z
-x,y,-z
-x,-y,-z
x,y,-z
-x,y,z
x,-y,z
1/2+x,1/2+y,1/2+z
1/2-x,1/2-y,1/2+z
1/2+x,1/2-y,1/2-z
1/2-x,1/2+y,1/2-z
1/2-x,1/2-y,1/2-z
1/2+x,1/2+y,1/2-z
1/2-x,1/2+y,1/2+z
1/2+x,1/2-y,1/2+z
loop_
_atom_site_type_symbol
_atom_site_label
_atom_site_fract_x
_atom_site_fract_y
_atom_site_fract_z
Si Si1 0.565799 0.195007 0.172981
Si Si2 0.429204 0.292827 0.163568
Si Si3 0.500000 0.053273 0.330382
Si Si4 0.429810 0.619882 0.667820
Si Si5 0.608882 0.099916 0.172482
Si Si6 0.270984 0.947766 0.169276
Si Si7 0.347405 0.552681 0.829644
O O1 0.500000 0.186255 0.239400
O O2 0.592206 0.243626 0.226005
O O3 0.607390 0.152962 0.217951
O O4 0.560057 0.198524 0.000000
O O5 0.500000 0.291839 0.159924
O O6 0.405850 0.332455 0.268839
O O7 0.404468 0.301878 0.000000
O O8 0.500000 0.066659 0.500000
O O9 0.558549 0.072783 0.256112
O O10 0.500000 0.000000 0.306859
O O11 0.410511 0.617128 0.500000
O O12 0.500000 0.615744 0.688045
O O13 0.401431 0.578586 0.754885
O O14 0.672702 0.081301 0.220542
O O15 0.597901 0.093324 0.000000
O O16 0.214994 0.931002 0.262634
O O17 0.285745 0.000000 0.200795
O O18 0.256030 0.939604 0.000000
O O19 0.357486 0.500000 0.797284
O O20 0.347010 0.563740 0.000000
#
# Coordination Sequence:
#
# PCOD8287818 Si02
#       7
#    16  16   8  16  16  16  16
#     4   8  13  24  45  72  98 125 161 205 247 289
#     4   8  14  26  46  70  98 131 162 193 235 289
#     4  11  23  33  41  63 101 137 167 209 264 307
#     4  10  20  33  51  77 106 131 156 192 240 287
#     4  10  18  31  52  73  95 127 170 213 251 300
#     4   9  18  32  50  72  96 126 166 208 249 293
#     4  10  21  36  54  74  97 129 165 199 237 287
#
# _framework density 17.086299
#
# number of rings (size 3 to 8) (size 9 to 14) (size 15 to 20)
#    0.000    2.692    0.769    2.538    0.000    4.000 
#    0.000    3.846    0.000    0.923    0.000    0.000 
#    0.000    0.000    0.000    0.000    0.000    0.000 
#
# Total GULP energy -644655.374416 kJ/mol
# GULP energy per Si atom -12397.218739 kJ/mol
# Density = 1.704741 g / cm^3
# Si number density = 17.086299 Si / 1000 Ang^3
#
#
#
# Elastic Constant Matrix: (Units=GPa)
#
#
# Indices 1 2 3 4 5 6 
#
# 1 61.5394 52.4081 40.6516 0.0000 0.0000 0.0000
# 2 52.4081 109.6437 52.7363 0.0000 0.0000 0.0000
# 3 40.6516 52.7363 78.6995 0.0000 0.0000 0.0000
# 4 0.0000 0.0000 0.0000 20.5558 0.0000 0.0000
# 5 0.0000 0.0000 0.0000 0.0000 19.2352 0.0000
# 6 0.0000 0.0000 0.0000 0.0000 0.0000 13.2488
#
#
#
# Elastic Compliance Matrix: (Units=1/GPa)
#
#
# Indices 1 2 3 4 5 6 
#
# 1 0.031234 -0.010579 -0.009045 0.000000 0.000000 0.000000
# 2 -0.010579 0.017041 -0.005955 0.000000 0.000000 0.000000
# 3 -0.009045 -0.005955 0.021369 0.000000 0.000000 0.000000
# 4 0.000000 0.000000 0.000000 0.048648 0.000000 0.000000
# 5 0.000000 0.000000 0.000000 0.000000 0.051988 0.000000
# 6 0.000000 0.000000 0.000000 0.000000 0.000000 0.075478
#
#
# Mechanical properties :
#
#
# Convention : Reuss Voigt Hill
#
# Bulk Modulus (GPa) = 54.09215 60.16385 57.12800
# Shear Modulus (GPa) = 16.49747 17.54708 17.02228
#
# Velocity S-wave (km/s) = 3.11068 3.20811 3.15977
# Velocity P-wave (km/s) = 6.68047 7.00077 6.84250
#
# Compressibility (1/GPa) = 0.01848697
#
# Stress axis : x y z
#
# Youngs Moduli (GPa) = 32.01671 58.68146 46.79736
#
# Poissons Ratio (x) = 0.62079 0.42326
# Poissons Ratio (y) = 0.33870 0.27867
# Poissons Ratio (z) = 0.28958 0.34943
#
# Static dielectric constant tensor:
#      x y z
#    x 2.992290 0.000000 0.000000 
#    y 0.000000 3.533800 0.000000 
#    z 0.000000 0.000000 3.138750 
# 
# 
# High freq. dielectric constant tensor:
#      x y z
#    x 1.628610 0.000000 0.000000 
#    y 0.000000 1.670540 0.000000 
#    z 0.000000 0.000000 1.647430 
# 
# From -- ./inp_files/13620.got.cif
#   From: 2010.06.25/outbox.cif.g09.slc.cpg/sg71_7_cif.got.tgz:13620.got - 2010.06.28 04:59:45.
