data_PCOD8287010
_publ_section_title
;
Structure prediction by ZEFSAII (Michael W. Deem and Ramdas Pophale) SiO2 
 PCOD8287010
Probable space group: I M M M
;
_chemical_formula_sum "Si O2"
_cell_formula_units_Z 112
_cell_length_a 14.179623
_cell_length_b 14.839571
_cell_length_c 35.905334
_cell_angle_alpha 90.000000
_cell_angle_beta 90.000000
_cell_angle_gamma 90.000000
_cell_volume 7555.183227
_symmetry_space_group_name_H-M "I M M M"
_symmetry_group_IT_number 71
_symmetry_cell_setting 'orthorhombic'
loop_
_space_group_symop_operation_xyz
x,y,z
-x,-y,z
x,-y,-z
-x,y,-z
-x,-y,-z
x,y,-z
-x,y,z
x,-y,z
1/2+x,1/2+y,1/2+z
1/2-x,1/2-y,1/2+z
1/2+x,1/2-y,1/2-z
1/2-x,1/2+y,1/2-z
1/2-x,1/2-y,1/2-z
1/2+x,1/2+y,1/2-z
1/2-x,1/2+y,1/2+z
1/2+x,1/2-y,1/2+z
loop_
_atom_site_type_symbol
_atom_site_label
_atom_site_fract_x
_atom_site_fract_y
_atom_site_fract_z
Si Si1 0.391530 0.601407 0.822986
Si Si2 0.732831 0.392538 0.608814
Si Si3 0.395041 0.393218 0.458633
Si Si4 0.604596 0.393838 0.677599
Si Si5 0.896469 0.598166 0.710880
Si Si6 0.891948 0.282429 0.359459
Si Si7 0.220018 0.148344 0.750389
O O1 0.500000 0.615546 0.810184
O O2 0.376776 0.500000 0.839044
O O3 0.367469 0.675782 0.854858
O O4 0.324568 0.614036 0.787676
O O5 0.753930 0.500000 0.608727
O O6 0.679696 0.359196 0.571658
O O7 0.670651 0.361341 0.643979
O O8 0.828527 0.333530 0.609978
O O9 0.363469 0.361491 0.500000
O O10 0.500000 0.355519 0.449590
O O11 0.399576 0.500000 0.456840
O O12 0.500000 0.351915 0.672737
O O13 0.597826 0.500000 0.675998
O O14 0.644863 0.364457 0.717042
O O15 0.896557 0.500000 0.691013
O O16 0.871524 0.673236 0.680651
O O17 0.817115 0.594387 0.742690
O O18 0.000000 0.617667 0.728515
O O19 0.000000 0.296315 0.371792
O O20 0.250000 0.250000 0.750000
#
# Coordination Sequence:
#
# PCOD8287010 Si02
#       7
#    16  16  16  16  16  16  16
#     4  10  20  33  47  60  78 106 140 182 227 267
#     4  10  17  27  43  64  90 117 143 171 205 243
#     4   8  14  25  42  65  94 126 152 170 194 237
#     4  10  19  28  39  57  79 102 131 171 215 252
#     4  10  19  30  42  55  75 103 135 170 206 249
#     4  10  19  31  44  61  81 106 144 179 210 251
#     4  12  20  29  42  57  79 105 136 178 222 262
#
# _framework density 14.824259
#
# number of rings (size 3 to 8) (size 9 to 14) (size 15 to 20)
#    0.000    2.000    2.857    3.000    0.000    4.286 
#    0.000    0.000    0.000    0.429    0.000    2.000 
#    0.000    0.571    0.000    5.143    0.000    0.143 
#
# Total GULP energy -694031.455631 kJ/mol
# GULP energy per Si atom -12393.418851 kJ/mol
# Density = 1.479052 g / cm^3
# Si number density = 14.824259 Si / 1000 Ang^3
#
#
#
# Elastic Constant Matrix: (Units=GPa)
#
#
# Indices 1 2 3 4 5 6 
#
# 1 104.4479 32.7981 44.8878 0.0000 0.0000 0.0000
# 2 32.7981 63.7206 12.3395 0.0000 0.0000 0.0000
# 3 44.8878 12.3395 58.5825 0.0000 0.0000 0.0000
# 4 0.0000 0.0000 0.0000 10.0906 0.0000 0.0000
# 5 0.0000 0.0000 0.0000 0.0000 12.1480 0.0000
# 6 0.0000 0.0000 0.0000 0.0000 0.0000 13.3704
#
#
#
# Elastic Compliance Matrix: (Units=1/GPa)
#
#
# Indices 1 2 3 4 5 6 
#
# 1 0.016356 -0.006247 -0.011217 0.000000 0.000000 0.000000
# 2 -0.006247 0.018747 0.000838 0.000000 0.000000 0.000000
# 3 -0.011217 0.000838 0.025488 0.000000 0.000000 0.000000
# 4 0.000000 0.000000 0.000000 0.099102 0.000000 0.000000
# 5 0.000000 0.000000 0.000000 0.000000 0.082318 0.000000
# 6 0.000000 0.000000 0.000000 0.000000 0.000000 0.074792
#
#
# Mechanical properties :
#
#
# Convention : Reuss Voigt Hill
#
# Bulk Modulus (GPa) = 36.57736 45.20020 40.88878
# Shear Modulus (GPa) = 13.92105 16.23685 15.07895
#
# Velocity S-wave (km/s) = 3.06775 3.31311 3.19279
# Velocity P-wave (km/s) = 6.10538 6.72253 6.42138
#
# Compressibility (1/GPa) = 0.02733931
#
# Stress axis : x y z
#
# Youngs Moduli (GPa) = 61.13843 53.34313 39.23372
#
# Poissons Ratio (x) = 0.33322 0.44008
# Poissons Ratio (y) = 0.38191 -0.03287
# Poissons Ratio (z) = 0.68579 -0.04469
#
# Static dielectric constant tensor:
#      x y z
#    x 3.456310 0.000000 0.000000 
#    y 0.000000 2.834540 0.000000 
#    z 0.000000 0.000000 2.692110 
# 
# 
# High freq. dielectric constant tensor:
#      x y z
#    x 1.582760 0.000000 0.000000 
#    y 0.000000 1.547860 0.000000 
#    z 0.000000 0.000000 1.521760 
# 
# From -- ./inp_files/70066.got.cif
#   From: 2010.06.25/outbox.cif.g09.slc.cpg/sg71_36_cif.got.tgz:70066.got - 2010.06.28 04:59:45.
