data_PCOD8287221
_publ_section_title
;
Structure prediction by ZEFSAII (Michael W. Deem and Ramdas Pophale) SiO2 
 PCOD8287221
Probable space group: I M M M
;
_chemical_formula_sum "Si O2"
_cell_formula_units_Z 72
_cell_length_a 19.565594
_cell_length_b 13.940947
_cell_length_c 17.966306
_cell_angle_alpha 90.000000
_cell_angle_beta 90.000000
_cell_angle_gamma 90.000000
_cell_volume 4900.541888
_symmetry_space_group_name_H-M "I M M M"
_symmetry_group_IT_number 71
_symmetry_cell_setting 'orthorhombic'
loop_
_space_group_symop_operation_xyz
x,y,z
-x,-y,z
x,-y,-z
-x,y,-z
-x,-y,-z
x,y,-z
-x,y,z
x,-y,z
1/2+x,1/2+y,1/2+z
1/2-x,1/2-y,1/2+z
1/2+x,1/2-y,1/2-z
1/2-x,1/2+y,1/2-z
1/2-x,1/2-y,1/2-z
1/2+x,1/2+y,1/2-z
1/2-x,1/2+y,1/2+z
1/2+x,1/2-y,1/2+z
loop_
_atom_site_type_symbol
_atom_site_label
_atom_site_fract_x
_atom_site_fract_y
_atom_site_fract_z
Si Si1 0.580253 0.226343 0.641025
Si Si2 0.578844 0.111504 0.788648
Si Si3 0.176413 0.386205 0.581816
Si Si4 0.918855 0.606732 0.000000
Si Si5 0.169183 0.889945 0.913277
O O1 0.500000 0.246504 0.634695
O O2 0.599125 0.171814 0.716457
O O3 0.607144 0.161294 0.573160
O O4 0.618895 0.327663 0.637955
O O5 0.500000 0.126038 0.810152
O O6 0.623645 0.152752 0.856792
O O7 0.594463 0.000000 0.772093
O O8 0.156377 0.345316 0.500000
O O9 0.172847 0.500000 0.578489
O O10 0.253421 0.355026 0.602059
O O11 0.887317 0.500000 0.000000
O O12 0.000000 0.600443 0.000000
O O13 0.159552 0.000000 0.889004
O O14 0.150462 0.877319 0.000000
#
# Coordination Sequence:
#
# PCOD8287221 Si02
#       5
#    16  16  16   8  16
#     4  10  18  27  40  60  83 111 144 170 199 241
#     4   9  17  28  42  62  87 109 132 168 207 246
#     4   8  15  28  44  61  82 108 136 166 206 253
#     4   9  16  26  39  55  79 111 141 166 194 234
#     4   9  17  29  43  59  82 110 141 176 206 236
#
# _framework density 14.692252999999999
#
# number of rings (size 3 to 8) (size 9 to 14) (size 15 to 20)
#    0.000    3.000    1.111    2.000    0.000    4.444 
#    0.000    3.333    0.000    0.000    0.000    0.000 
#    0.000    0.000    0.000    4.889    0.000    0.222 
#
# Total GULP energy -446310.169453 kJ/mol
# GULP energy per Si atom -12397.504707 kJ/mol
# Density = 1.465881 g / cm^3
# Si number density = 14.692253 Si / 1000 Ang^3
#
#
#
# Elastic Constant Matrix: (Units=GPa)
#
#
# Indices 1 2 3 4 5 6 
#
# 1 66.2707 40.9828 62.3367 0.0000 0.0000 0.0000
# 2 40.9828 67.5507 48.1085 0.0000 0.0000 0.0000
# 3 62.3367 48.1085 115.1782 0.0000 0.0000 0.0000
# 4 0.0000 0.0000 0.0000 14.4019 0.0000 0.0000
# 5 0.0000 0.0000 0.0000 0.0000 23.8191 0.0000
# 6 0.0000 0.0000 0.0000 0.0000 0.0000 16.8251
#
#
#
# Elastic Compliance Matrix: (Units=1/GPa)
#
#
# Indices 1 2 3 4 5 6 
#
# 1 0.035938 -0.011318 -0.014723 0.000000 0.000000 0.000000
# 2 -0.011318 0.024636 -0.004165 0.000000 0.000000 0.000000
# 3 -0.014723 -0.004165 0.018390 0.000000 0.000000 0.000000
# 4 0.000000 0.000000 0.000000 0.069435 0.000000 0.000000
# 5 0.000000 0.000000 0.000000 0.000000 0.041983 0.000000
# 6 0.000000 0.000000 0.000000 0.000000 0.000000 0.059435
#
#
# Mechanical properties :
#
#
# Convention : Reuss Voigt Hill
#
# Bulk Modulus (GPa) = 53.89972 61.31730 57.60851
# Shear Modulus (GPa) = 15.80214 17.51399 16.65807
#
# Velocity S-wave (km/s) = 3.28310 3.45636 3.37085
# Velocity P-wave (km/s) = 7.15102 7.59958 7.37871
#
# Compressibility (1/GPa) = 0.01855297
#
# Stress axis : x y z
#
# Youngs Moduli (GPa) = 27.82604 40.59047 54.37715
#
# Poissons Ratio (x) = 0.45940 0.80058
# Poissons Ratio (y) = 0.31493 0.22647
# Poissons Ratio (z) = 0.40968 0.16905
#
# Static dielectric constant tensor:
#      x y z
#    x 2.793670 0.000000 0.000000 
#    y 0.000000 2.657200 0.000000 
#    z 0.000000 0.000000 3.030140 
# 
# 
# High freq. dielectric constant tensor:
#      x y z
#    x 1.549970 0.000000 0.000000 
#    y 0.000000 1.535750 0.000000 
#    z 0.000000 0.000000 1.559150 
# 
# From -- ./inp_files/23705.got.cif
#   From: 2010.06.25/outbox.cif.g09.slc.cpg/sg71_12_cif.got.tgz:23705.got - 2010.06.28 04:59:45.
