data_PCOD8287688
_publ_section_title
;
Structure prediction by ZEFSAII (Michael W. Deem and Ramdas Pophale) SiO2 
 PCOD8287688
Probable space group: I M M M
;
_chemical_formula_sum "Si O2"
_cell_formula_units_Z 104
_cell_length_a 22.280733
_cell_length_b 9.230025
_cell_length_c 26.396000
_cell_angle_alpha 90.000000
_cell_angle_beta 90.000000
_cell_angle_gamma 90.000000
_cell_volume 5428.382870
_symmetry_space_group_name_H-M "I M M M"
_symmetry_group_IT_number 71
_symmetry_cell_setting 'orthorhombic'
loop_
_space_group_symop_operation_xyz
x,y,z
-x,-y,z
x,-y,-z
-x,y,-z
-x,-y,-z
x,y,-z
-x,y,z
x,-y,z
1/2+x,1/2+y,1/2+z
1/2-x,1/2-y,1/2+z
1/2+x,1/2-y,1/2-z
1/2-x,1/2+y,1/2-z
1/2-x,1/2-y,1/2-z
1/2+x,1/2+y,1/2-z
1/2-x,1/2+y,1/2+z
1/2+x,1/2-y,1/2+z
loop_
_atom_site_type_symbol
_atom_site_label
_atom_site_fract_x
_atom_site_fract_y
_atom_site_fract_z
Si Si1 0.600759 0.832102 0.057940
Si Si2 0.844343 0.332323 0.915815
Si Si3 0.174864 0.670841 0.699996
Si Si4 0.232633 0.344656 0.441708
Si Si5 0.566660 0.666069 0.149875
Si Si6 0.793159 0.332069 0.186392
Si Si7 0.067139 0.326810 0.000000
O O1 0.667691 0.809715 0.082450
O O2 0.560191 0.731440 0.093294
O O3 0.581582 0.000000 0.062310
O O4 0.594122 0.778716 0.000000
O O5 0.846598 0.500000 0.927174
O O6 0.780193 0.280874 0.935374
O O7 0.845530 0.298428 0.855465
O O8 0.898774 0.265698 0.949360
O O9 0.172993 0.500000 0.689607
O O10 0.112810 0.742034 0.683364
O O11 0.180157 0.709004 0.759501
O O12 0.233997 0.737283 0.672513
O O13 0.216063 0.363748 0.500000
O O14 0.257423 0.500000 0.420903
O O15 0.500000 0.676073 0.174380
O O16 0.588438 0.500000 0.147300
O O17 0.773932 0.500000 0.183943
O O18 0.063992 0.500000 0.000000
O O19 0.000000 0.261786 0.000000
#
# Coordination Sequence:
#
# PCOD8287688 Si02
#       7
#    16  16  16  16  16  16   8
#     4   9  19  35  54  78 107 138 175 218 264 317
#     4  10  18  30  50  76 102 133 174 212 255 313
#     4  10  20  36  57  81 108 139 176 219 272 329
#     4   9  17  29  46  72 105 135 164 204 253 301
#     4  11  24  39  54  74 104 144 185 224 266 312
#     4   9  19  34  55  84 112 133 165 221 279 329
#     4   9  18  32  49  71 103 141 176 211 254 309
#
# _framework density 19.158560000000001
#
# number of rings (size 3 to 8) (size 9 to 14) (size 15 to 20)
#    0.000    2.385    0.769    2.769    0.000    6.154 
#    0.000    3.846    0.000    3.692    0.000    0.000 
#    0.000    0.000    0.000    0.000    0.000    0.000 
#
# Total GULP energy -644436.222428 kJ/mol
# GULP energy per Si atom -12393.004277 kJ/mol
# Density = 1.911495 g / cm^3
# Si number density = 19.158560 Si / 1000 Ang^3
#
#
#
# Elastic Constant Matrix: (Units=GPa)
#
#
# Indices 1 2 3 4 5 6 
#
# 1 108.7426 40.7347 54.7503 0.0000 0.0000 0.0000
# 2 40.7347 65.1412 38.7630 0.0000 0.0000 0.0000
# 3 54.7503 38.7630 77.3943 0.0000 0.0000 0.0000
# 4 0.0000 0.0000 0.0000 24.7242 0.0000 0.0000
# 5 0.0000 0.0000 0.0000 0.0000 23.1681 0.0000
# 6 0.0000 0.0000 0.0000 0.0000 0.0000 22.2561
#
#
#
# Elastic Compliance Matrix: (Units=1/GPa)
#
#
# Indices 1 2 3 4 5 6 
#
# 1 0.015121 -0.004402 -0.008492 0.000000 0.000000 0.000000
# 2 -0.004402 0.023151 -0.008481 0.000000 0.000000 0.000000
# 3 -0.008492 -0.008481 0.023176 0.000000 0.000000 0.000000
# 4 0.000000 0.000000 0.000000 0.040446 0.000000 0.000000
# 5 0.000000 0.000000 0.000000 0.000000 0.043163 0.000000
# 6 0.000000 0.000000 0.000000 0.000000 0.000000 0.044932
#
#
# Mechanical properties :
#
#
# Convention : Reuss Voigt Hill
#
# Bulk Modulus (GPa) = 53.48334 57.75266 55.61800
# Shear Modulus (GPa) = 20.92317 21.83169 21.37743
#
# Velocity S-wave (km/s) = 3.30829 3.37935 3.34401
# Velocity P-wave (km/s) = 6.52455 6.74067 6.63349
#
# Compressibility (1/GPa) = 0.01869741
#
# Stress axis : x y z
#
# Youngs Moduli (GPa) = 66.13516 43.19523 43.14864
#
# Poissons Ratio (x) = 0.19015 0.36641
# Poissons Ratio (y) = 0.29114 0.36594
# Poissons Ratio (z) = 0.56160 0.36633
#
# Static dielectric constant tensor:
#      x y z
#    x 3.390180 0.000000 0.000000 
#    y 0.000000 3.389560 0.000000 
#    z 0.000000 0.000000 3.736070 
# 
# 
# High freq. dielectric constant tensor:
#      x y z
#    x 1.726010 0.000000 0.000000 
#    y 0.000000 1.733350 0.000000 
#    z 0.000000 0.000000 1.753600 
# 
# From -- ./inp_files/70983.got.cif
#   From: 2010.06.25/outbox.cif.g09.slc.cpg/sg71_36_cif.got.tgz:70983.got - 2010.06.28 04:59:45.
