data_PCOD8287313
_publ_section_title
;
Structure prediction by ZEFSAII (Michael W. Deem and Ramdas Pophale) SiO2 
 PCOD8287313
Probable space group: I M M M
;
_chemical_formula_sum "Si O2"
_cell_formula_units_Z 96
_cell_length_a 22.289543
_cell_length_b 13.240039
_cell_length_c 21.556651
_cell_angle_alpha 90.000000
_cell_angle_beta 90.000000
_cell_angle_gamma 90.000000
_cell_volume 6361.678527
_symmetry_space_group_name_H-M "I M M M"
_symmetry_group_IT_number 71
_symmetry_cell_setting 'orthorhombic'
loop_
_space_group_symop_operation_xyz
x,y,z
-x,-y,z
x,-y,-z
-x,y,-z
-x,-y,-z
x,y,-z
-x,y,z
x,-y,z
1/2+x,1/2+y,1/2+z
1/2-x,1/2-y,1/2+z
1/2+x,1/2-y,1/2-z
1/2-x,1/2+y,1/2-z
1/2-x,1/2-y,1/2-z
1/2+x,1/2+y,1/2-z
1/2-x,1/2+y,1/2+z
1/2+x,1/2-y,1/2+z
loop_
_atom_site_type_symbol
_atom_site_label
_atom_site_fract_x
_atom_site_fract_y
_atom_site_fract_z
Si Si1 0.931216 0.621099 0.000000
Si Si2 0.870360 0.620360 0.430714
Si Si3 0.322509 0.798527 0.812632
Si Si4 0.931994 0.616057 0.249842
Si Si5 0.757942 0.382802 0.198445
Si Si6 0.873553 0.382985 0.125039
Si Si7 0.000000 0.390589 0.426967
O O1 0.896068 0.665664 0.939712
O O2 0.931662 0.500000 0.000000
O O3 0.000000 0.660192 0.000000
O O4 0.853413 0.657611 0.500000
O O5 0.872813 0.500000 0.428782
O O6 0.820412 0.661461 0.383315
O O7 0.936732 0.663813 0.410101
O O8 0.390450 0.807563 0.788026
O O9 0.301979 0.681872 0.813092
O O10 0.279452 0.866207 0.769288
O O11 0.912711 0.500000 0.264016
O O12 0.924855 0.636356 0.176423
O O13 0.000000 0.636782 0.270170
O O14 0.742672 0.500000 0.188195
O O15 0.809640 0.342238 0.151057
O O16 0.864244 0.500000 0.112714
O O17 0.000000 0.500000 0.393254
O O18 0.000000 0.408050 0.500000
#
# Coordination Sequence:
#
# PCOD8287313 Si02
#       7
#     8  16  16  16  16  16   8
#     4   9  14  20  36  60  84 110 134 157 198 250
#     4   9  16  26  40  62  90 112 134 167 212 259
#     4  10  18  28  45  64  81 110 149 174 214 259
#     4   9  16  25  40  64  90 108 129 169 215 260
#     4   9  18  32  45  58  82 113 148 184 210 244
#     4   8  14  25  38  56  81 109 138 165 200 244
#     4   7  12  22  36  56  85 113 127 152 205 264
#
# _framework density 15.090356
#
# number of rings (size 3 to 8) (size 9 to 14) (size 15 to 20)
#    0.000    3.167    0.000    4.000    1.167    2.000 
#    1.500    0.000    0.000    0.500    0.000    0.000 
#    0.000    2.000    0.000    0.000    0.000   67.667 
#
# Total GULP energy -594648.233170 kJ/mol
# GULP energy per Si atom -12388.504858 kJ/mol
# Density = 1.505601 g / cm^3
# Si number density = 15.090356 Si / 1000 Ang^3
#
#
#
# Elastic Constant Matrix: (Units=GPa)
#
#
# Indices 1 2 3 4 5 6 
#
# 1 87.3593 41.4836 47.5341 0.0000 0.0000 0.0000
# 2 41.4836 47.7105 27.7868 0.0000 0.0000 0.0000
# 3 47.5341 27.7868 106.9828 0.0000 0.0000 0.0000
# 4 0.0000 0.0000 0.0000 11.7116 0.0000 0.0000
# 5 0.0000 0.0000 0.0000 0.0000 20.2010 0.0000
# 6 0.0000 0.0000 0.0000 0.0000 0.0000 20.9525
#
#
#
# Elastic Compliance Matrix: (Units=1/GPa)
#
#
# Indices 1 2 3 4 5 6 
#
# 1 0.022088 -0.015894 -0.005686 0.000000 0.000000 0.000000
# 2 -0.015894 0.036132 -0.002323 0.000000 0.000000 0.000000
# 3 -0.005686 -0.002323 0.012477 0.000000 0.000000 0.000000
# 4 0.000000 0.000000 0.000000 0.085385 0.000000 0.000000
# 5 0.000000 0.000000 0.000000 0.000000 0.049502 0.000000
# 6 0.000000 0.000000 0.000000 0.000000 0.000000 0.047727
#
#
# Mechanical properties :
#
#
# Convention : Reuss Voigt Hill
#
# Bulk Modulus (GPa) = 43.68340 52.85130 48.26735
# Shear Modulus (GPa) = 16.19446 18.92290 17.55868
#
# Velocity S-wave (km/s) = 3.27948 3.54499 3.41481
# Velocity P-wave (km/s) = 6.58412 7.20106 6.89949
#
# Compressibility (1/GPa) = 0.02289199
#
# Stress axis : x y z
#
# Youngs Moduli (GPa) = 45.27302 27.67634 80.14769
#
# Poissons Ratio (x) = 0.43988 0.45572
# Poissons Ratio (y) = 0.71956 0.18616
# Poissons Ratio (z) = 0.25742 0.06429
#
# Static dielectric constant tensor:
#      x y z
#    x 3.010980 0.000000 0.000000 
#    y 0.000000 2.413670 0.000000 
#    z 0.000000 0.000000 3.208780 
# 
# 
# High freq. dielectric constant tensor:
#      x y z
#    x 1.570880 0.000000 0.000000 
#    y 0.000000 1.505420 0.000000 
#    z 0.000000 0.000000 1.594860 
# 
# From -- ./inp_files/61256.got.cif
#   From: 2010.06.25/outbox.cif.g09.slc.cpg/sg71_31_cif.got.tgz:61256.got - 2010.06.28 04:59:45.
