data_PCOD8287579
_publ_section_title
;
Structure prediction by ZEFSAII (Michael W. Deem and Ramdas Pophale) SiO2 
 PCOD8287579
Probable space group: I M M M
;
_chemical_formula_sum "Si O2"
_cell_formula_units_Z 104
_cell_length_a 26.608831
_cell_length_b 16.509922
_cell_length_c 15.843741
_cell_angle_alpha 90.000000
_cell_angle_beta 90.000000
_cell_angle_gamma 90.000000
_cell_volume 6960.309491
_symmetry_space_group_name_H-M "I M M M"
_symmetry_group_IT_number 71
_symmetry_cell_setting 'orthorhombic'
loop_
_space_group_symop_operation_xyz
x,y,z
-x,-y,z
x,-y,-z
-x,y,-z
-x,-y,-z
x,y,-z
-x,y,z
x,-y,z
1/2+x,1/2+y,1/2+z
1/2-x,1/2-y,1/2+z
1/2+x,1/2-y,1/2-z
1/2-x,1/2+y,1/2-z
1/2-x,1/2-y,1/2-z
1/2+x,1/2+y,1/2-z
1/2-x,1/2+y,1/2+z
1/2+x,1/2-y,1/2+z
loop_
_atom_site_type_symbol
_atom_site_label
_atom_site_fract_x
_atom_site_fract_y
_atom_site_fract_z
Si Si1 0.557922 0.169157 0.333547
Si Si2 0.940876 0.500000 0.906695
Si Si3 0.787433 0.775359 0.595377
Si Si4 0.057042 0.772898 0.000000
Si Si5 0.735821 0.907231 0.294826
Si Si6 0.347399 0.784513 0.246143
Si Si7 0.704195 0.653345 0.644830
Si Si8 0.861629 0.910378 0.000000
O O1 0.500000 0.175454 0.304292
O O2 0.575075 0.078045 0.353595
O O3 0.568134 0.219734 0.417934
O O4 0.592980 0.199703 0.256625
O O5 0.000000 0.500000 0.920785
O O6 0.915424 0.500000 0.000000
O O7 0.806219 0.790241 0.500000
O O8 0.767298 0.859957 0.633418
O O9 0.833768 0.738718 0.649763
O O10 0.742757 0.710436 0.594835
O O11 0.092106 0.850093 0.000000
O O12 0.000000 0.804006 0.000000
O O13 0.682787 0.863233 0.278619
O O14 0.766660 0.906289 0.207773
O O15 0.726819 0.000000 0.323452
O O16 0.333997 0.708534 0.303510
O O17 0.672986 0.598912 0.581511
O O18 0.884697 0.000000 0.000000
#
# Coordination Sequence:
#
# PCOD8287579 Si02
#       8
#    16   8  16   8  16  16  16   8
#     4  10  18  30  47  66  93 125 154 185 225 273
#     4   9  16  26  42  68  93 117 151 185 218 264
#     4   9  17  31  50  64  89 122 151 189 227 275
#     4  10  20  32  46  62  91 127 152 187 229 271
#     4   9  18  30  44  68  97 118 146 186 229 271
#     4   9  18  30  47  65  87 125 155 184 225 270
#     4   9  17  31  45  63  90 121 153 182 219 271
#     4  12  20  27  47  67  88 120 158 195 218 258
#
# _framework density 14.941864000000001
#
# number of rings (size 3 to 8) (size 9 to 14) (size 15 to 20)
#    0.000    2.538    3.077    2.308    1.077    0.462 
#    0.000    0.000    0.000    0.462    0.000    0.000 
#    0.000    1.846    0.000    4.000    0.000    0.000 
#
# Total GULP energy -644588.716282 kJ/mol
# GULP energy per Si atom -12395.936852 kJ/mol
# Density = 1.490786 g / cm^3
# Si number density = 14.941864 Si / 1000 Ang^3
#
#
#
# Elastic Constant Matrix: (Units=GPa)
#
#
# Indices 1 2 3 4 5 6 
#
# 1 80.3150 30.0179 36.5224 0.0000 0.0000 0.0000
# 2 30.0179 92.3330 25.7233 0.0000 0.0000 0.0000
# 3 36.5224 25.7233 89.2417 0.0000 0.0000 0.0000
# 4 0.0000 0.0000 0.0000 15.2928 0.0000 0.0000
# 5 0.0000 0.0000 0.0000 0.0000 9.8714 0.0000
# 6 0.0000 0.0000 0.0000 0.0000 0.0000 18.6783
#
#
#
# Elastic Compliance Matrix: (Units=1/GPa)
#
#
# Indices 1 2 3 4 5 6 
#
# 1 0.016422 -0.003769 -0.005634 0.000000 0.000000 0.000000
# 2 -0.003769 0.012641 -0.002101 0.000000 0.000000 0.000000
# 3 -0.005634 -0.002101 0.014117 0.000000 0.000000 0.000000
# 4 0.000000 0.000000 0.000000 0.065390 0.000000 0.000000
# 5 0.000000 0.000000 0.000000 0.000000 0.101303 0.000000
# 6 0.000000 0.000000 0.000000 0.000000 0.000000 0.053538
#
#
# Mechanical properties :
#
#
# Convention : Reuss Voigt Hill
#
# Bulk Modulus (GPa) = 49.57665 49.60188 49.58927
# Shear Modulus (GPa) = 17.05648 20.07691 18.56670
#
# Velocity S-wave (km/s) = 3.38231 3.66959 3.52887
# Velocity P-wave (km/s) = 6.96456 7.15703 7.06145
#
# Compressibility (1/GPa) = 0.02017079
#
# Stress axis : x y z
#
# Youngs Moduli (GPa) = 60.89462 79.10703 70.83658
#
# Poissons Ratio (x) = 0.29817 0.39911
# Poissons Ratio (y) = 0.22952 0.14884
# Poissons Ratio (z) = 0.34309 0.16622
#
# Static dielectric constant tensor:
#      x y z
#    x 2.731790 0.000000 0.000000 
#    y 0.000000 2.865440 0.000000 
#    z 0.000000 0.000000 2.766940 
# 
# 
# High freq. dielectric constant tensor:
#      x y z
#    x 1.553030 0.000000 0.000000 
#    y 0.000000 1.573160 0.000000 
#    z 0.000000 0.000000 1.555780 
# 
# From -- ./inp_files/49019.got.cif
#   From: 2010.06.25/outbox.cif.g09.slc.cpg/sg71_25_cif.got.tgz:49019.got - 2010.06.28 04:59:45.
