data_PCOD8287233
_publ_section_title
;
Structure prediction by ZEFSAII (Michael W. Deem and Ramdas Pophale) SiO2 
 PCOD8287233
Probable space group: I M M M
;
_chemical_formula_sum "Si O2"
_cell_formula_units_Z 72
_cell_length_a 8.901029
_cell_length_b 27.812803
_cell_length_c 18.860525
_cell_angle_alpha 90.000000
_cell_angle_beta 90.000000
_cell_angle_gamma 90.000000
_cell_volume 4669.159967
_symmetry_space_group_name_H-M "I M M M"
_symmetry_group_IT_number 71
_symmetry_cell_setting 'orthorhombic'
loop_
_space_group_symop_operation_xyz
x,y,z
-x,-y,z
x,-y,-z
-x,y,-z
-x,-y,-z
x,y,-z
-x,y,z
x,-y,z
1/2+x,1/2+y,1/2+z
1/2-x,1/2-y,1/2+z
1/2+x,1/2-y,1/2-z
1/2-x,1/2+y,1/2-z
1/2-x,1/2-y,1/2-z
1/2+x,1/2+y,1/2-z
1/2-x,1/2+y,1/2+z
1/2+x,1/2-y,1/2+z
loop_
_atom_site_type_symbol
_atom_site_label
_atom_site_fract_x
_atom_site_fract_y
_atom_site_fract_z
Si Si1 0.324692 0.268831 0.642230
Si Si2 0.830701 0.337622 0.000000
Si Si3 0.676072 0.238062 0.000000
Si Si4 0.826970 0.399717 0.138450
Si Si5 0.679025 0.000000 0.580276
Si Si6 0.824926 0.819771 0.284998
O O1 0.500000 0.262980 0.627949
O O2 0.245237 0.286665 0.570264
O O3 0.263984 0.216464 0.663929
O O4 0.289694 0.307725 0.703105
O O5 0.802213 0.370706 0.933085
O O6 0.713094 0.294494 0.000000
O O7 0.000000 0.316445 0.000000
O O8 0.500000 0.229630 0.000000
O O9 0.765824 0.453492 0.124305
O O10 0.730648 0.374077 0.200385
O O11 0.000000 0.400619 0.162278
O O12 0.500000 0.000000 0.574105
O O13 0.745217 0.000000 0.500000
O O14 0.000000 0.814132 0.301850
#
# Coordination Sequence:
#
# PCOD8287233 Si02
#       6
#    16   8   8  16   8  16
#     4  10  20  33  47  63  88 121 153 185 226 276
#     4  10  18  27  42  64  88 123 158 187 226 267
#     4  12  22  30  45  69  93 116 150 194 228 269
#     4  10  18  29  47  65  89 122 158 196 229 267
#     4   9  16  28  45  67  89 118 161 196 223 263
#     4  10  20  32  46  65  89 118 154 192 228 269
#
# _framework density 15.420332999999999
#
# number of rings (size 3 to 8) (size 9 to 14) (size 15 to 20)
#    0.000    1.889    3.333    2.333    0.000    2.667 
#    0.000    0.556    0.000    0.667    0.000    0.000 
#    0.000    0.889    0.000   10.000    0.000    4.444 
#
# Total GULP energy -446405.455468 kJ/mol
# GULP energy per Si atom -12400.151541 kJ/mol
# Density = 1.538524 g / cm^3
# Si number density = 15.420333 Si / 1000 Ang^3
#
#
#
# Elastic Constant Matrix: (Units=GPa)
#
#
# Indices 1 2 3 4 5 6 
#
# 1 80.2235 29.5360 50.3342 0.0000 0.0000 0.0000
# 2 29.5360 92.4792 47.6054 0.0000 0.0000 0.0000
# 3 50.3342 47.6054 106.8379 -0.0001 0.0000 0.0000
# 4 0.0000 0.0000 -0.0001 -11.5085 0.0000 0.0000
# 5 0.0000 0.0000 0.0000 0.0000 24.1587 0.0000
# 6 0.0000 0.0000 0.0000 0.0000 0.0000 18.6959
#
#
#
# Elastic Compliance Matrix: (Units=1/GPa)
#
#
# Indices 1 2 3 4 5 6 
#
# 1 0.017921 -0.001787 -0.007647 0.000000 0.000000 0.000000
# 2 -0.001787 0.014210 -0.005490 0.000000 0.000000 0.000000
# 3 -0.007647 -0.005490 0.015409 0.000000 0.000000 0.000000
# 4 0.000000 0.000000 0.000000 -0.086893 0.000000 0.000000
# 5 0.000000 0.000000 0.000000 0.000000 0.041393 0.000000
# 6 0.000000 0.000000 0.000000 0.000000 0.000000 0.053488
#
#
# Mechanical properties :
#
#
# Convention : Reuss Voigt Hill
#
# Bulk Modulus (GPa) = 56.52197 59.38798 57.95498
# Shear Modulus (GPa) = 54.78126 16.40691 35.59408
#
# Velocity S-wave (km/s) = 5.96678 3.26541 4.80964
# Velocity P-wave (km/s) = 9.17626 7.26729 8.27699
#
# Compressibility (1/GPa) = 0.01769223
#
# Stress axis : x y z
#
# Youngs Moduli (GPa) = 55.80076 70.37288 64.89871
#
# Poissons Ratio (x) = 0.12578 0.49626
# Poissons Ratio (y) = 0.09973 0.35628
# Poissons Ratio (z) = 0.42669 0.38633
#
# Static dielectric constant tensor:
#      x y z
#    x 2.898610 0.000000 0.000000 
#    y 0.000000 2.895360 0.000000 
#    z 0.000000 0.000000 3.071250 
# 
# 
# High freq. dielectric constant tensor:
#      x y z
#    x 1.590040 0.000000 0.000000 
#    y 0.000000 1.559100 0.000000 
#    z 0.000000 0.000000 1.584540 
# 
# From -- ./inp_files/14716.got.cif
#   From: 2010.06.25/outbox.cif.g09.slc.cpg/sg71_8_cif.got.tgz:14716.got - 2010.06.28 04:59:45.
