data_PCOD8287725
_publ_section_title
;
Structure prediction by ZEFSAII (Michael W. Deem and Ramdas Pophale) SiO2 
 PCOD8287725
Probable space group: I M M M
;
_chemical_formula_sum "Si O2"
_cell_formula_units_Z 104
_cell_length_a 26.651965
_cell_length_b 18.571031
_cell_length_c 11.628509
_cell_angle_alpha 90.000000
_cell_angle_beta 90.000000
_cell_angle_gamma 90.000000
_cell_volume 5755.582488
_symmetry_space_group_name_H-M "I M M M"
_symmetry_group_IT_number 71
_symmetry_cell_setting 'orthorhombic'
loop_
_space_group_symop_operation_xyz
x,y,z
-x,-y,z
x,-y,-z
-x,y,-z
-x,-y,-z
x,y,-z
-x,y,z
x,-y,z
1/2+x,1/2+y,1/2+z
1/2-x,1/2-y,1/2+z
1/2+x,1/2-y,1/2-z
1/2-x,1/2+y,1/2-z
1/2-x,1/2-y,1/2-z
1/2+x,1/2+y,1/2-z
1/2-x,1/2+y,1/2+z
1/2+x,1/2-y,1/2+z
loop_
_atom_site_type_symbol
_atom_site_label
_atom_site_fract_x
_atom_site_fract_y
_atom_site_fract_z
Si Si1 0.116593 0.920042 0.000000
Si Si2 0.441213 0.728065 0.500000
Si Si3 0.097458 0.162308 0.634879
Si Si4 0.441073 0.793280 0.259130
Si Si5 0.109105 0.416109 0.365819
Si Si6 0.778351 0.414795 0.373350
Si Si7 0.000000 0.080914 0.637204
Si Si8 0.678337 0.581709 0.269023
O O1 0.077958 0.854002 0.000000
O O2 0.151865 0.913095 0.890929
O O3 0.090293 0.000000 0.000000
O O4 0.500000 0.720410 0.500000
O O5 0.423650 0.773763 0.388658
O O6 0.097739 0.156112 0.500000
O O7 0.090697 0.244378 0.671700
O O8 0.050105 0.118079 0.687384
O O9 0.150115 0.131586 0.678165
O O10 0.500000 0.780353 0.242633
O O11 0.427674 0.874413 0.221650
O O12 0.098927 0.397163 0.500000
O O13 0.099004 0.500000 0.344960
O O14 0.165988 0.394707 0.330257
O O15 0.769669 0.380679 0.500000
O O16 0.773377 0.500000 0.385293
O O17 0.735369 0.388315 0.284495
O O18 0.000000 0.084646 0.500000
O O19 0.000000 0.000000 0.683408
O O20 0.678083 0.500000 0.221869
#
# Coordination Sequence:
#
# PCOD8287725 Si02
#       8
#     8   8  16  16  16  16   8  16
#     4  10  18  31  54  81 103 140 193 235 263 296
#     4  10  22  39  55  76 108 149 183 217 269 326
#     4  11  21  32  49  74 108 149 185 221 267 325
#     4  11  22  38  58  78 108 145 177 218 276 332
#     4   9  19  36  61  90 111 132 172 225 276 331
#     4   8  14  29  54  81 107 136 174 221 273 321
#     4   9  18  32  46  65  98 144 189 219 251 304
#     4  10  18  30  52  78 107 143 185 229 266 308
#
# _framework density 18.069413000000001
#
# number of rings (size 3 to 8) (size 9 to 14) (size 15 to 20)
#    0.000    2.231    3.077    1.846    0.000    2.308 
#    0.000    1.923    1.692    1.385    0.000    0.000 
#    0.000    0.000    0.000    0.000    0.000    0.000 
#
# Total GULP energy -644591.903034 kJ/mol
# GULP energy per Si atom -12395.998135 kJ/mol
# Density = 1.802829 g / cm^3
# Si number density = 18.069413 Si / 1000 Ang^3
#
#
#
# Elastic Constant Matrix: (Units=GPa)
#
#
# Indices 1 2 3 4 5 6 
#
# 1 61.1745 32.0383 36.5599 0.0000 0.0000 0.0000
# 2 32.0383 85.9746 42.0788 0.0000 0.0000 0.0000
# 3 36.5599 42.0788 76.2560 0.0000 0.0000 0.0000
# 4 0.0000 0.0000 0.0000 1098.7187 0.0000 0.0000
# 5 0.0000 0.0000 0.0000 0.0000 7.0469 0.0000
# 6 0.0000 0.0000 0.0000 0.0000 0.0000 22.0809
#
#
#
# Elastic Compliance Matrix: (Units=1/GPa)
#
#
# Indices 1 2 3 4 5 6 
#
# 1 0.024153 -0.004566 -0.009060 0.000000 0.000000 0.000000
# 2 -0.004566 0.016798 -0.007080 0.000000 0.000000 0.000000
# 3 -0.009060 -0.007080 0.021364 0.000000 0.000000 0.000000
# 4 0.000000 0.000000 0.000000 0.000910 0.000000 0.000000
# 5 0.000000 0.000000 0.000000 0.000000 0.141906 0.000000
# 6 0.000000 0.000000 0.000000 0.000000 0.000000 0.045288
#
#
# Mechanical properties :
#
#
# Convention : Reuss Voigt Hill
#
# Bulk Modulus (GPa) = 47.84140 49.41768 48.62954
# Shear Modulus (GPa) = 16.73364 233.08451 124.90907
#
# Velocity S-wave (km/s) = 3.04645 11.36987 8.32331
# Velocity P-wave (km/s) = 6.23766 14.13413 10.92433
#
# Compressibility (1/GPa) = 0.02090240
#
# Stress axis : x y z
#
# Youngs Moduli (GPa) = 41.40334 59.53014 46.80696
#
# Poissons Ratio (x) = 0.27183 0.42407
# Poissons Ratio (y) = 0.18906 0.33140
# Poissons Ratio (z) = 0.37511 0.42149
#
# Static dielectric constant tensor:
#      x y z
#    x 3.514420 0.000000 0.000000 
#    y 0.000000 3.186600 0.000000 
#    z 0.000000 0.000000 3.305520 
# 
# 
# High freq. dielectric constant tensor:
#      x y z
#    x 1.697780 0.000000 0.000000 
#    y 0.000000 1.681950 0.000000 
#    z 0.000000 0.000000 1.683010 
# 
# From -- ./inp_files/28939.got.cif
#   From: 2010.06.25/outbox.cif.g09.slc.cpg/sg71_15_cif.got.tgz:28939.got - 2010.06.28 04:59:45.
