data_PCOD8287256
_publ_section_title
;
Structure prediction by ZEFSAII (Michael W. Deem and Ramdas Pophale) SiO2 
 PCOD8287256
Probable space group: I M M M
;
_chemical_formula_sum "Si O2"
_cell_formula_units_Z 112
_cell_length_a 23.670169
_cell_length_b 16.702643
_cell_length_c 19.941831
_cell_angle_alpha 90.000000
_cell_angle_beta 90.000000
_cell_angle_gamma 90.000000
_cell_volume 7884.090282
_symmetry_space_group_name_H-M "I M M M"
_symmetry_group_IT_number 71
_symmetry_cell_setting 'orthorhombic'
loop_
_space_group_symop_operation_xyz
x,y,z
-x,-y,z
x,-y,-z
-x,y,-z
-x,-y,-z
x,y,-z
-x,y,z
x,-y,z
1/2+x,1/2+y,1/2+z
1/2-x,1/2-y,1/2+z
1/2+x,1/2-y,1/2-z
1/2-x,1/2+y,1/2-z
1/2-x,1/2-y,1/2-z
1/2+x,1/2+y,1/2-z
1/2-x,1/2+y,1/2+z
1/2+x,1/2-y,1/2+z
loop_
_atom_site_type_symbol
_atom_site_label
_atom_site_fract_x
_atom_site_fract_y
_atom_site_fract_z
Si Si1 0.751638 0.593863 0.500000
Si Si2 0.725521 0.593245 0.769489
Si Si3 0.064620 0.676568 0.629002
Si Si4 0.063528 0.593159 0.769305
Si Si5 0.667585 0.179821 0.690082
Si Si6 0.615608 0.906374 0.000000
Si Si7 0.835787 0.770345 0.328606
Si Si8 0.270853 0.315783 0.369901
O O1 0.740230 0.500000 0.500000
O O2 0.818176 0.612858 0.500000
O O3 0.720765 0.631206 0.435647
O O4 0.712164 0.500000 0.769050
O O5 0.785389 0.610043 0.805903
O O6 0.676837 0.636076 0.814674
O O7 0.726023 0.625258 0.693593
O O8 0.072724 0.618103 0.692278
O O9 0.085755 0.629326 0.564862
O O10 0.102079 0.756966 0.639803
O O11 0.000000 0.703872 0.620035
O O12 0.076942 0.500000 0.774615
O O13 0.105769 0.640544 0.819118
O O14 0.000000 0.613131 0.792846
O O15 0.671268 0.227178 0.758522
O O16 0.681136 0.245739 0.632729
O O17 0.603935 0.000000 0.000000
O O18 0.789202 0.729487 0.376294
#
# Coordination Sequence:
#
# PCOD8287256 Si02
#       8
#     8  16  16  16  16   8  16  16
#     4  11  20  27  40  61  87 116 139 165 200 235
#     4   9  15  24  42  61  78 101 133 174 213 249
#     4  10  18  28  39  53  81 119 151 171 192 232
#     4   9  16  25  39  62  89 111 133 166 203 238
#     4   8  15  25  40  57  80 110 136 164 199 246
#     4  11  21  28  37  56  84 119 151 173 191 222
#     4   8  15  27  38  55  78 105 139 174 209 237
#     4   9  16  28  39  56  84 109 137 166 199 243
#
# _framework density 14.205824
#
# number of rings (size 3 to 8) (size 9 to 14) (size 15 to 20)
#    0.000    2.857    1.429    3.214    0.000    1.143 
#    0.000    0.000    0.000    0.429    0.000   17.500 
#    0.000    4.571    0.000    0.000    0.000    0.286 
#
# Total GULP energy -693967.199856 kJ/mol
# GULP energy per Si atom -12392.271426 kJ/mol
# Density = 1.417349 g / cm^3
# Si number density = 14.205824 Si / 1000 Ang^3
#
#
#
# Elastic Constant Matrix: (Units=GPa)
#
#
# Indices 1 2 3 4 5 6 
#
# 1 103.1557 60.8839 37.3456 0.0000 0.0000 0.0000
# 2 60.8839 110.1798 39.5150 0.0000 0.0000 0.0000
# 3 37.3456 39.5150 55.9115 0.0000 0.0000 0.0000
# 4 0.0000 0.0000 0.0000 20.9315 0.0000 0.0000
# 5 0.0000 0.0000 0.0000 0.0000 50.6161 0.0000
# 6 0.0000 0.0000 0.0000 0.0000 0.0000 22.6469
#
#
#
# Elastic Compliance Matrix: (Units=1/GPa)
#
#
# Indices 1 2 3 4 5 6 
#
# 1 0.015687 -0.006578 -0.005829 0.000000 0.000000 0.000000
# 2 -0.006578 0.014916 -0.006148 0.000000 0.000000 0.000000
# 3 -0.005829 -0.006148 0.026124 0.000000 0.000000 0.000000
# 4 0.000000 0.000000 0.000000 0.047775 0.000000 0.000000
# 5 0.000000 0.000000 0.000000 0.000000 0.019757 0.000000
# 6 0.000000 0.000000 0.000000 0.000000 0.000000 0.044156
#
#
# Mechanical properties :
#
#
# Convention : Reuss Voigt Hill
#
# Bulk Modulus (GPa) = 50.97683 60.52623 55.75153
# Shear Modulus (GPa) = 23.57797 27.60574 25.59185
#
# Velocity S-wave (km/s) = 4.07841 4.41304 4.24902
# Velocity P-wave (km/s) = 7.62498 8.28647 7.96260
#
# Compressibility (1/GPa) = 0.01961676
#
# Stress axis : x y z
#
# Youngs Moduli (GPa) = 63.74859 67.04304 38.27909
#
# Poissons Ratio (x) = 0.44099 0.22313
# Poissons Ratio (y) = 0.41932 0.23534
# Poissons Ratio (z) = 0.37159 0.41219
#
# Static dielectric constant tensor:
#      x y z
#    x 2.985520 0.000000 0.000000 
#    y 0.000000 2.799120 0.000000 
#    z 0.000000 0.000000 2.569150 
# 
# 
# High freq. dielectric constant tensor:
#      x y z
#    x 1.533000 0.000000 0.000000 
#    y 0.000000 1.533160 0.000000 
#    z 0.000000 0.000000 1.512020 
# 
# From -- ./inp_files/55230.got.cif
#   From: 2010.06.25/outbox.cif.g09.slc.cpg/sg71_28_cif.got.tgz:55230.got - 2010.06.28 04:59:45.
