data_PCOD8287648
_publ_section_title
;
Structure prediction by ZEFSAII (Michael W. Deem and Ramdas Pophale) SiO2 
 PCOD8287648
Probable space group: I M M M
;
_chemical_formula_sum "Si O2"
_cell_formula_units_Z 84
_cell_length_a 29.688465
_cell_length_b 12.032138
_cell_length_c 14.105743
_cell_angle_alpha 90.000000
_cell_angle_beta 90.000000
_cell_angle_gamma 90.000000
_cell_volume 5038.792971
_symmetry_space_group_name_H-M "I M M M"
_symmetry_group_IT_number 71
_symmetry_cell_setting 'orthorhombic'
loop_
_space_group_symop_operation_xyz
x,y,z
-x,-y,z
x,-y,-z
-x,y,-z
-x,-y,-z
x,y,-z
-x,y,z
x,-y,z
1/2+x,1/2+y,1/2+z
1/2-x,1/2-y,1/2+z
1/2+x,1/2-y,1/2-z
1/2-x,1/2+y,1/2-z
1/2-x,1/2-y,1/2-z
1/2+x,1/2+y,1/2-z
1/2-x,1/2+y,1/2+z
1/2+x,1/2-y,1/2+z
loop_
_atom_site_type_symbol
_atom_site_label
_atom_site_fract_x
_atom_site_fract_y
_atom_site_fract_z
Si Si1 0.094242 0.000000 0.392147
Si Si2 0.684276 0.124678 0.000000
Si Si3 0.201666 0.762441 0.797455
Si Si4 0.841128 0.000000 0.791189
Si Si5 0.720651 0.717667 0.500000
Si Si6 0.870767 0.628751 0.686645
Si Si7 0.551321 0.736308 0.891550
Si Si8 0.662925 0.500000 0.500000
O O1 0.063075 0.107082 0.381690
O O2 0.116632 0.000000 0.500000
O O3 0.127949 0.000000 0.302510
O O4 0.653100 0.148822 0.087953
O O5 0.725448 0.208475 0.000000
O O6 0.703333 0.000000 0.000000
O O7 0.250000 0.750000 0.750000
O O8 0.206057 0.719198 0.905284
O O9 0.161607 0.684657 0.762582
O O10 0.190004 0.891781 0.785628
O O11 0.865115 0.000000 0.898295
O O12 0.696805 0.600522 0.500000
O O13 0.878326 0.500000 0.711877
O O14 0.918849 0.689971 0.680332
O O15 0.500000 0.753348 0.859458
O O16 0.558073 0.776412 0.000000
#
# Coordination Sequence:
#
# PCOD8287648 Si02
#       8
#     8   8  16   8   8  16  16   4
#     4  10  19  34  56  84 114 144 174 212 276 333
#     4  10  18  30  49  72 103 136 181 221 257 300
#     4  11  22  34  53  76 107 140 181 222 264 315
#     4  10  20  35  54  77 107 140 184 224 264 322
#     4  10  18  32  51  75 101 141 177 218 261 311
#     4  11  22  34  52  76 106 144 182 223 262 307
#     4  10  20  35  54  80 112 143 175 214 269 331
#     4   8  18  30  52  76  97 138 185 222 262 296
#
# _framework density 16.670659000000001
#
# number of rings (size 3 to 8) (size 9 to 14) (size 15 to 20)
#    0.000    1.714    5.238    0.286    1.333    1.524 
#    1.714    1.429    0.000    0.000    0.000    3.333 
#    0.000    1.524    0.000    0.000    0.000    0.000 
#
# Total GULP energy -520381.557172 kJ/mol
# GULP energy per Si atom -12390.037076 kJ/mol
# Density = 1.663272 g / cm^3
# Si number density = 16.670659 Si / 1000 Ang^3
#
#
#
# Elastic Constant Matrix: (Units=GPa)
#
#
# Indices 1 2 3 4 5 6 
#
# 1 122.3198 52.7521 62.6762 0.0000 0.0000 0.0000
# 2 52.7521 102.3190 40.2154 0.0000 0.0000 0.0000
# 3 62.6762 40.2154 130.0971 0.0000 0.0000 0.0000
# 4 0.0000 0.0000 0.0000 15.6101 0.0000 0.0000
# 5 0.0000 0.0000 0.0000 0.0000 30.8907 0.0000
# 6 0.0000 0.0000 0.0000 0.0000 0.0000 -223.8742
#
#
#
# Elastic Compliance Matrix: (Units=1/GPa)
#
#
# Indices 1 2 3 4 5 6 
#
# 1 0.012542 -0.004657 -0.004603 0.000000 0.000000 0.000000
# 2 -0.004657 0.012854 -0.001730 0.000000 0.000000 0.000000
# 3 -0.004603 -0.001730 0.010439 0.000000 0.000000 0.000000
# 4 0.000000 0.000000 0.000000 0.064061 0.000000 0.000000
# 5 0.000000 0.000000 0.000000 0.000000 0.032372 0.000000
# 6 0.000000 0.000000 0.000000 0.000000 0.000000 -0.004467
#
#
# Mechanical properties :
#
#
# Convention : Reuss Voigt Hill
#
# Bulk Modulus (GPa) = 72.17273 74.00258 73.08765
# Shear Modulus (GPa) = 32.38341 -22.20186 5.09077
#
# Velocity S-wave (km/s) = 4.41221 -3.65333 1.74939
# Velocity P-wave (km/s) = 8.32730 5.16638 6.92948
#
# Compressibility (1/GPa) = 0.01385565
#
# Stress axis : x y z
#
# Youngs Moduli (GPa) = 79.73061 77.79459 95.79706
#
# Poissons Ratio (x) = 0.36231 0.44093
# Poissons Ratio (y) = 0.37133 0.16571
# Poissons Ratio (z) = 0.36698 0.13457
#
# Static dielectric constant tensor:
#      x y z
#    x 3.013140 0.000000 0.000000 
#    y 0.000000 3.133700 0.000000 
#    z 0.000000 0.000000 3.548610 
# 
# 
# High freq. dielectric constant tensor:
#      x y z
#    x 1.627760 0.000000 0.000000 
#    y 0.000000 1.641920 0.000000 
#    z 0.000000 0.000000 1.638590 
# 
# From -- ./inp_files/22569.got.cif
#   From: 2010.06.25/outbox.cif.g09.slc.cpg/sg71_12_cif.got.tgz:22569.got - 2010.06.28 04:59:45.
