data_PCOD8287573
_publ_section_title
;
Structure prediction by ZEFSAII (Michael W. Deem and Ramdas Pophale) SiO2 
 PCOD8287573
Probable space group: I M M M
;
_chemical_formula_sum "Si O2"
_cell_formula_units_Z 72
_cell_length_a 14.303836
_cell_length_b 12.483321
_cell_length_c 23.641010
_cell_angle_alpha 90.000000
_cell_angle_beta 90.000000
_cell_angle_gamma 90.000000
_cell_volume 4221.324001
_symmetry_space_group_name_H-M "I M M M"
_symmetry_group_IT_number 71
_symmetry_cell_setting 'orthorhombic'
loop_
_space_group_symop_operation_xyz
x,y,z
-x,-y,z
x,-y,-z
-x,y,-z
-x,-y,-z
x,y,-z
-x,y,z
x,-y,z
1/2+x,1/2+y,1/2+z
1/2-x,1/2-y,1/2+z
1/2+x,1/2-y,1/2-z
1/2-x,1/2+y,1/2-z
1/2-x,1/2-y,1/2-z
1/2+x,1/2+y,1/2-z
1/2-x,1/2+y,1/2+z
1/2+x,1/2-y,1/2+z
loop_
_atom_site_type_symbol
_atom_site_label
_atom_site_fract_x
_atom_site_fract_y
_atom_site_fract_z
Si Si1 0.500000 0.114516 0.935010
Si Si2 0.500000 0.373124 0.180590
Si Si3 0.174834 0.876421 0.119523
Si Si4 0.000000 0.126643 0.191815
Si Si5 0.255483 0.375794 0.000000
Si Si6 0.389611 0.695133 0.500000
Si Si7 0.654862 0.731713 0.894476
O O1 0.406628 0.176007 0.920991
O O2 0.500000 0.000000 0.902603
O O3 0.500000 0.090557 0.000000
O O4 0.500000 0.500000 0.178489
O O5 0.500000 0.328333 0.244464
O O6 0.595266 0.332607 0.151707
O O7 0.258016 0.793607 0.133544
O O8 0.091644 0.833144 0.159118
O O9 0.202264 0.000000 0.133194
O O10 0.143485 0.871676 0.054282
O O11 0.000000 0.000000 0.191906
O O12 0.314996 0.349414 0.943946
O O13 0.230032 0.500000 0.000000
O O14 0.158232 0.311685 0.000000
O O15 0.500000 0.711548 0.500000
#
# Coordination Sequence:
#
# PCOD8287573 Si02
#       7
#     8   8  16   8   8   8  16
#     4  10  18  30  46  71 107 134 158 199 250 306
#     4  10  21  36  53  71  95 132 180 221 246 281
#     4  10  19  32  52  79 109 131 158 201 252 311
#     4   9  19  34  52  75  99 130 169 210 253 292
#     4  10  20  33  48  71 101 131 167 210 247 289
#     4  10  19  31  51  79 103 133 165 196 247 309
#     4  10  20  33  50  75  99 135 171 201 252 305
#
# _framework density 17.056260999999999
#
# number of rings (size 3 to 8) (size 9 to 14) (size 15 to 20)
#    0.000    2.111    2.222    1.667    0.000    1.556 
#    0.000    1.667    0.000    0.000    0.000   21.778 
#    0.000    0.000    0.000    0.000    0.000    0.000 
#
# Total GULP energy -446337.857230 kJ/mol
# GULP energy per Si atom -12398.273812 kJ/mol
# Density = 1.701744 g / cm^3
# Si number density = 17.056261 Si / 1000 Ang^3
#
#
#
# Elastic Constant Matrix: (Units=GPa)
#
#
# Indices 1 2 3 4 5 6 
#
# 1 123.0115 38.9423 46.6441 0.0000 0.0000 0.0000
# 2 38.9423 94.7459 27.8620 0.0000 0.0000 0.0000
# 3 46.6441 27.8620 100.3200 0.0000 0.0000 0.0000
# 4 0.0000 0.0000 0.0000 19.1638 0.0000 0.0000
# 5 0.0000 0.0000 0.0000 0.0000 1253.9448 0.0000
# 6 0.0000 0.0000 0.0000 0.0000 0.0000 24.1111
#
#
#
# Elastic Compliance Matrix: (Units=1/GPa)
#
#
# Indices 1 2 3 4 5 6 
#
# 1 0.010688 -0.003192 -0.004083 0.000000 0.000000 0.000000
# 2 -0.003192 0.012447 -0.001973 0.000000 0.000000 0.000000
# 3 -0.004083 -0.001973 0.012414 0.000000 0.000000 0.000000
# 4 0.000000 0.000000 0.000000 0.052182 0.000000 0.000000
# 5 0.000000 0.000000 0.000000 0.000000 0.000797 0.000000
# 6 0.000000 0.000000 0.000000 0.000000 0.000000 0.041475
#
#
# Mechanical properties :
#
#
# Convention : Reuss Voigt Hill
#
# Bulk Modulus (GPa) = 58.63866 60.55269 59.59567
# Shear Modulus (GPa) = 32.42900 273.08588 152.75744
#
# Velocity S-wave (km/s) = 4.36512 12.66714 9.47393
# Velocity P-wave (km/s) = 7.73691 15.79623 12.43746
#
# Compressibility (1/GPa) = 0.01705360
#
# Stress axis : x y z
#
# Youngs Moduli (GPa) = 93.56211 80.34235 80.55243
#
# Poissons Ratio (x) = 0.25648 0.32888
# Poissons Ratio (y) = 0.29868 0.15889
# Poissons Ratio (z) = 0.38200 0.15848
#
# Static dielectric constant tensor:
#      x y z
#    x 3.405030 0.000000 0.000000 
#    y 0.000000 3.083830 0.000000 
#    z 0.000000 0.000000 3.228150 
# 
# 
# High freq. dielectric constant tensor:
#      x y z
#    x 1.669570 0.000000 0.000000 
#    y 0.000000 1.651380 0.000000 
#    z 0.000000 0.000000 1.647660 
# 
# From -- ./inp_files/59602.got.cif
#   From: 2010.06.25/outbox.cif.g09.slc.cpg/sg71_30_cif.got.tgz:59602.got - 2010.06.28 04:59:45.
