data_PCOD8287953
_publ_section_title
;
Structure prediction by ZEFSAII (Michael W. Deem and Ramdas Pophale) SiO2 
 PCOD8287953
Probable space group: I M M M
;
_chemical_formula_sum "Si O2"
_cell_formula_units_Z 104
_cell_length_a 17.291052
_cell_length_b 14.264777
_cell_length_c 21.744657
_cell_angle_alpha 90.000000
_cell_angle_beta 90.000000
_cell_angle_gamma 90.000000
_cell_volume 5363.384902
_symmetry_space_group_name_H-M "I M M M"
_symmetry_group_IT_number 71
_symmetry_cell_setting 'orthorhombic'
loop_
_space_group_symop_operation_xyz
x,y,z
-x,-y,z
x,-y,-z
-x,y,-z
-x,-y,-z
x,y,-z
-x,y,z
x,-y,z
1/2+x,1/2+y,1/2+z
1/2-x,1/2-y,1/2+z
1/2+x,1/2-y,1/2-z
1/2-x,1/2+y,1/2-z
1/2-x,1/2-y,1/2-z
1/2+x,1/2+y,1/2-z
1/2-x,1/2+y,1/2+z
1/2+x,1/2-y,1/2+z
loop_
_atom_site_type_symbol
_atom_site_label
_atom_site_fract_x
_atom_site_fract_y
_atom_site_fract_z
Si Si1 0.339321 0.773151 0.750897
Si Si2 0.408276 0.789707 0.122319
Si Si3 0.091563 0.101052 0.431799
Si Si4 0.090593 0.778537 0.932616
Si Si5 0.091827 0.394304 0.500000
Si Si6 0.589781 0.892845 0.647265
Si Si7 0.408250 0.605815 0.317883
O O1 0.250000 0.750000 0.750000
O O2 0.364880 0.819334 0.815726
O O3 0.358276 0.854482 0.702541
O O4 0.383801 0.675437 0.737075
O O5 0.500000 0.802786 0.130610
O O6 0.381249 0.682143 0.113526
O O7 0.377662 0.846263 0.062683
O O8 0.126368 0.116759 0.500000
O O9 0.000000 0.105085 0.437664
O O10 0.118522 0.000000 0.405463
O O11 0.106753 0.671094 0.912438
O O12 0.124546 0.851657 0.882363
O O13 0.000000 0.796374 0.937476
O O14 0.128743 0.795179 0.000000
O O15 0.122086 0.500000 0.500000
O O16 0.000000 0.387250 0.500000
O O17 0.500000 0.883989 0.666707
O O18 0.612232 0.000000 0.632017
O O19 0.500000 0.603409 0.319008
O O20 0.375584 0.500000 0.308448
#
# Coordination Sequence:
#
# PCOD8287953 Si02
#       7
#    16  16  16  16   8  16  16
#     4  11  23  36  52  75 108 150 184 223 269 328
#     4  10  18  32  54  78 103 135 177 224 274 323
#     4   8  13  23  43  73 103 125 150 194 252 309
#     4   8  14  26  48  80 109 131 164 214 272 324
#     4   9  18  32  53  83 109 129 169 232 286 326
#     4   9  18  34  55  78 104 136 180 231 276 320
#     4   9  18  34  55  79 108 139 177 226 271 316
#
# _framework density 19.390739
#
# number of rings (size 3 to 8) (size 9 to 14) (size 15 to 20)
#    0.000    2.846    0.769    2.769    0.000    2.462 
#    0.000    6.154    6.769    0.000    0.000    0.000 
#    0.000    0.000    0.000    0.000    0.000    0.000 
#
# Total GULP energy -644381.959183 kJ/mol
# GULP energy per Si atom -12391.960754 kJ/mol
# Density = 1.934660 g / cm^3
# Si number density = 19.390739 Si / 1000 Ang^3
#
#
#
# Elastic Constant Matrix: (Units=GPa)
#
#
# Indices 1 2 3 4 5 6 
#
# 1 34.8496 11.7623 21.0432 0.0000 0.0000 0.0000
# 2 11.7623 112.3718 31.7457 0.0000 0.0000 0.0000
# 3 21.0432 31.7457 123.5215 0.0000 0.0000 0.0000
# 4 0.0000 0.0000 0.0000 17.7195 0.0000 0.0000
# 5 0.0000 0.0000 0.0000 0.0000 3.7631 0.0000
# 6 0.0000 0.0000 0.0000 0.0000 0.0000 12.1071
#
#
#
# Elastic Compliance Matrix: (Units=1/GPa)
#
#
# Indices 1 2 3 4 5 6 
#
# 1 0.032386 -0.001975 -0.005010 0.000000 0.000000 0.000000
# 2 -0.001975 0.009716 -0.002161 0.000000 0.000000 0.000000
# 3 -0.005010 -0.002161 0.009505 0.000000 0.000000 0.000000
# 4 0.000000 0.000000 0.000000 0.056435 0.000000 0.000000
# 5 0.000000 0.000000 0.000000 0.000000 0.265738 0.000000
# 6 0.000000 0.000000 0.000000 0.000000 0.000000 0.082596
#
#
# Mechanical properties :
#
#
# Convention : Reuss Voigt Hill
#
# Bulk Modulus (GPa) = 30.01512 44.42727 37.22119
# Shear Modulus (GPa) = 10.29289 20.46405 15.37847
#
# Velocity S-wave (km/s) = 2.30644 3.25214 2.81923
# Velocity P-wave (km/s) = 4.75453 6.08796 5.46209
#
# Compressibility (1/GPa) = 0.03331654
#
# Stress axis : x y z
#
# Youngs Moduli (GPa) = 30.87725 102.92158 105.21274
#
# Poissons Ratio (x) = 0.20324 0.52710
# Poissons Ratio (y) = 0.06097 0.22733
# Poissons Ratio (z) = 0.15469 0.22238
#
# Static dielectric constant tensor:
#      x y z
#    x 2.951110 0.000000 0.000000 
#    y 0.000000 3.935310 0.000000 
#    z 0.000000 0.000000 3.714140 
# 
# 
# High freq. dielectric constant tensor:
#      x y z
#    x 1.693540 0.000000 0.000000 
#    y 0.000000 1.759650 0.000000 
#    z 0.000000 0.000000 1.757490 
# 
# From -- ./inp_files/54128.got.cif
#   From: 2010.06.25/outbox.cif.g09.slc.cpg/sg71_28_cif.got.tgz:54128.got - 2010.06.28 04:59:45.
