data_PCOD8287029
_publ_section_title
;
Structure prediction by ZEFSAII (Michael W. Deem and Ramdas Pophale) SiO2 
 PCOD8287029
Probable space group: I M M M
;
_chemical_formula_sum "Si O2"
_cell_formula_units_Z 96
_cell_length_a 25.098015
_cell_length_b 11.957043
_cell_length_c 18.940916
_cell_angle_alpha 90.000000
_cell_angle_beta 90.000000
_cell_angle_gamma 90.000000
_cell_volume 5684.131854
_symmetry_space_group_name_H-M "I M M M"
_symmetry_group_IT_number 71
_symmetry_cell_setting 'orthorhombic'
loop_
_space_group_symop_operation_xyz
x,y,z
-x,-y,z
x,-y,-z
-x,y,-z
-x,-y,-z
x,y,-z
-x,y,z
x,-y,z
1/2+x,1/2+y,1/2+z
1/2-x,1/2-y,1/2+z
1/2+x,1/2-y,1/2-z
1/2-x,1/2+y,1/2-z
1/2-x,1/2-y,1/2-z
1/2+x,1/2+y,1/2-z
1/2-x,1/2+y,1/2+z
1/2+x,1/2-y,1/2+z
loop_
_atom_site_type_symbol
_atom_site_label
_atom_site_fract_x
_atom_site_fract_y
_atom_site_fract_z
Si Si1 0.851932 0.256468 0.583732
Si Si2 0.825910 0.500000 0.583537
Si Si3 0.151255 0.777700 0.083395
Si Si4 0.252923 0.874007 0.416136
Si Si5 0.438328 0.371416 0.668790
Si Si6 0.708858 0.500000 0.583585
Si Si7 0.439469 0.371492 0.831223
O O1 0.856200 0.242991 0.500000
O O2 0.855210 0.386474 0.607498
O O3 0.796785 0.200229 0.611221
O O4 0.902379 0.199400 0.618268
O O5 0.819914 0.500000 0.500000
O O6 0.767297 0.500000 0.617704
O O7 0.190100 0.677078 0.108126
O O8 0.094555 0.779953 0.123194
O O9 0.178986 0.890669 0.109724
O O10 0.140765 0.773617 0.000000
O O11 0.251533 0.873897 0.500000
O O12 0.248111 0.000000 0.386036
O O13 0.500000 0.343269 0.656577
O O14 0.427109 0.500000 0.645207
O O15 0.422546 0.355307 0.750210
O O16 0.713192 0.500000 0.500000
O O17 0.500000 0.331079 0.842581
O O18 0.433652 0.500000 0.853337
#
# Coordination Sequence:
#
# PCOD8287029 Si02
#       7
#    16   8  16  16  16   8  16
#     4  10  18  30  51  75  97 123 156 194 233 278
#     4   9  16  28  47  73 103 127 147 181 238 292
#     4  10  17  27  48  74  99 125 157 194 231 279
#     4   9  17  28  45  71 101 129 155 189 234 279
#     4   9  18  32  49  69  95 126 157 195 244 286
#     4   9  14  24  43  71  99 125 151 179 228 286
#     4   9  19  35  51  67  92 127 161 195 239 282
#
# _framework density 16.889122
#
# number of rings (size 3 to 8) (size 9 to 14) (size 15 to 20)
#    0.000    2.667    2.500    1.500    0.000    1.667 
#    0.000    2.917    1.833    2.000    0.000    2.333 
#    0.000    0.000    0.000    0.000    0.000    0.000 
#
# Total GULP energy -594932.706455 kJ/mol
# GULP energy per Si atom -12394.431384 kJ/mol
# Density = 1.685068 g / cm^3
# Si number density = 16.889122 Si / 1000 Ang^3
#
#
#
# Elastic Constant Matrix: (Units=GPa)
#
#
# Indices 1 2 3 4 5 6 
#
# 1 106.6967 55.7347 40.8880 0.0000 0.0000 0.0000
# 2 55.7347 112.6079 31.3618 0.0000 0.0000 0.0000
# 3 40.8880 31.3618 35.7074 0.0000 0.0000 0.0000
# 4 0.0000 0.0000 0.0000 16.5568 0.0000 0.0000
# 5 0.0000 0.0000 0.0000 0.0000 5.5780 0.0000
# 6 0.0000 0.0000 0.0000 0.0000 0.0000 28.6671
#
#
#
# Elastic Compliance Matrix: (Units=1/GPa)
#
#
# Indices 1 2 3 4 5 6 
#
# 1 0.018097 -0.004217 -0.017019 0.000000 0.000000 0.000000
# 2 -0.004217 0.012739 -0.006359 0.000000 0.000000 0.000000
# 3 -0.017019 -0.006359 0.053079 0.000000 0.000000 0.000000
# 4 0.000000 0.000000 0.000000 0.060398 0.000000 0.000000
# 5 0.000000 0.000000 0.000000 0.000000 0.179274 0.000000
# 6 0.000000 0.000000 0.000000 0.000000 0.000000 0.034883
#
#
# Mechanical properties :
#
#
# Convention : Reuss Voigt Hill
#
# Bulk Modulus (GPa) = 34.81410 56.77568 45.79489
# Shear Modulus (GPa) = 11.81373 18.62890 15.22132
#
# Velocity S-wave (km/s) = 2.64765 3.32476 3.00534
# Velocity P-wave (km/s) = 5.47767 6.95905 6.26232
#
# Compressibility (1/GPa) = 0.02872399
#
# Stress axis : x y z
#
# Youngs Moduli (GPa) = 55.25692 78.50025 18.83987
#
# Poissons Ratio (x) = 0.33106 0.32063
# Poissons Ratio (y) = 0.23304 0.11981
# Poissons Ratio (z) = 0.94041 0.49921
#
# Static dielectric constant tensor:
#      x y z
#    x 3.175510 0.000000 0.000000 
#    y 0.000000 3.279220 0.000000 
#    z 0.000000 0.000000 2.776170 
# 
# 
# High freq. dielectric constant tensor:
#      x y z
#    x 1.654680 0.000000 0.000000 
#    y 0.000000 1.642310 0.000000 
#    z 0.000000 0.000000 1.611940 
# 
# From -- ./inp_files/54913.got.cif
#   From: 2010.06.25/outbox.cif.g09.slc.cpg/sg71_28_cif.got.tgz:54913.got - 2010.06.28 04:59:45.
