data_PCOD8287827
_publ_section_title
;
Structure prediction by ZEFSAII (Michael W. Deem and Ramdas Pophale) SiO2 
 PCOD8287827
Probable space group: I M M M
;
_chemical_formula_sum "Si O2"
_cell_formula_units_Z 104
_cell_length_a 9.357743
_cell_length_b 22.559765
_cell_length_c 26.252875
_cell_angle_alpha 90.000000
_cell_angle_beta 90.000000
_cell_angle_gamma 90.000000
_cell_volume 5542.204616
_symmetry_space_group_name_H-M "I M M M"
_symmetry_group_IT_number 71
_symmetry_cell_setting 'orthorhombic'
loop_
_space_group_symop_operation_xyz
x,y,z
-x,-y,z
x,-y,-z
-x,y,-z
-x,-y,-z
x,y,-z
-x,y,z
x,-y,z
1/2+x,1/2+y,1/2+z
1/2-x,1/2-y,1/2+z
1/2+x,1/2-y,1/2-z
1/2-x,1/2+y,1/2-z
1/2-x,1/2-y,1/2-z
1/2+x,1/2+y,1/2-z
1/2-x,1/2+y,1/2+z
1/2+x,1/2-y,1/2+z
loop_
_atom_site_type_symbol
_atom_site_label
_atom_site_fract_x
_atom_site_fract_y
_atom_site_fract_z
Si Si1 0.344403 0.727084 0.057828
Si Si2 0.335424 0.339437 0.580054
Si Si3 0.837903 0.380202 0.057087
Si Si4 0.168265 0.934507 0.000000
Si Si5 0.836537 0.566075 0.840660
Si Si6 0.168227 0.824589 0.298033
Si Si7 0.663451 0.289153 0.314930
O O1 0.500000 0.732826 0.084936
O O2 0.259883 0.787819 0.057756
O O3 0.254849 0.673155 0.081892
O O4 0.367630 0.708426 0.000000
O O5 0.500000 0.326907 0.565805
O O6 0.284993 0.399870 0.551874
O O7 0.314326 0.339526 0.641450
O O8 0.821018 0.433151 0.097608
O O9 0.000000 0.356886 0.055002
O O10 0.790530 0.400631 0.000000
O O11 0.000000 0.942347 0.000000
O O12 0.240294 0.000000 0.000000
O O13 0.793762 0.500000 0.822625
O O14 0.732962 0.612831 0.814183
O O15 0.000000 0.580551 0.825229
O O16 0.237939 0.768241 0.327602
O O17 0.206269 0.818295 0.238368
O O18 0.000000 0.824740 0.308530
O O19 0.500000 0.266733 0.314033
#
# Coordination Sequence:
#
# PCOD8287827 Si02
#       7
#    16  16  16   8  16  16  16
#     4  10  19  29  44  71 105 134 162 200 247 297
#     4  10  18  31  52  75  99 130 169 208 250 304
#     4   9  18  32  50  72  99 131 169 211 253 295
#     4   9  18  32  51  75 101 131 168 209 252 301
#     4  10  21  36  53  73 100 137 176 212 252 300
#     4  10  20  35  54  78 106 135 170 212 261 311
#     4   9  19  34  54  80 106 131 164 212 266 312
#
# _framework density 18.765096
#
# number of rings (size 3 to 8) (size 9 to 14) (size 15 to 20)
#    0.000    2.385    0.769    1.846    0.000    6.769 
#    0.000    2.308    0.000    3.692    0.000    3.231 
#    0.000    0.000    0.000    0.000    0.000    0.000 
#
# Total GULP energy -644442.312240 kJ/mol
# GULP energy per Si atom -12393.121389 kJ/mol
# Density = 1.872239 g / cm^3
# Si number density = 18.765096 Si / 1000 Ang^3
#
#
#
# Elastic Constant Matrix: (Units=GPa)
#
#
# Indices 1 2 3 4 5 6 
#
# 1 81.2010 47.2783 27.5725 0.0000 0.0000 0.0000
# 2 47.2783 123.4392 51.5069 0.0000 0.0000 0.0000
# 3 27.5725 51.5069 83.4846 0.0000 0.0000 0.0000
# 4 0.0000 0.0000 0.0000 23.5804 0.0000 0.0000
# 5 0.0000 0.0000 0.0000 0.0000 20.5317 0.0000
# 6 0.0000 0.0000 0.0000 0.0000 0.0000 17.8324
#
#
#
# Elastic Compliance Matrix: (Units=1/GPa)
#
#
# Indices 1 2 3 4 5 6 
#
# 1 0.016103 -0.005317 -0.002038 0.000000 0.000000 0.000000
# 2 -0.005317 0.012666 -0.006058 0.000000 0.000000 0.000000
# 3 -0.002038 -0.006058 0.016389 0.000000 0.000000 0.000000
# 4 0.000000 0.000000 0.000000 0.042408 0.000000 0.000000
# 5 0.000000 0.000000 0.000000 0.000000 0.048705 0.000000
# 6 0.000000 0.000000 0.000000 0.000000 0.000000 0.056078
#
#
# Mechanical properties :
#
#
# Convention : Reuss Voigt Hill
#
# Bulk Modulus (GPa) = 54.55177 60.09334 57.32256
# Shear Modulus (GPa) = 22.19412 23.17337 22.68374
#
# Velocity S-wave (km/s) = 3.44282 3.51795 3.48059
# Velocity P-wave (km/s) = 6.70358 6.97100 6.83860
#
# Compressibility (1/GPa) = 0.01833121
#
# Stress axis : x y z
#
# Youngs Moduli (GPa) = 62.10018 78.95438 61.01715
#
# Poissons Ratio (x) = 0.41983 0.12434
# Poissons Ratio (y) = 0.33021 0.36964
# Poissons Ratio (z) = 0.12654 0.47831
#
# Static dielectric constant tensor:
#      x y z
#    x 3.555980 0.000000 0.000000 
#    y 0.000000 3.301030 0.000000 
#    z 0.000000 0.000000 3.639630 
# 
# 
# High freq. dielectric constant tensor:
#      x y z
#    x 1.721370 0.000000 0.000000 
#    y 0.000000 1.700590 0.000000 
#    z 0.000000 0.000000 1.737410 
# 
# From -- ./inp_files/63523.got.cif
#   From: 2010.06.25/outbox.cif.g09.slc.cpg/sg71_32_cif.got.tgz:63523.got - 2010.06.28 04:59:45.
