data_PCOD8287005
_publ_section_title
;
Structure prediction by ZEFSAII (Michael W. Deem and Ramdas Pophale) SiO2 
 PCOD8287005
Probable space group: I M M M
;
_chemical_formula_sum "Si O2"
_cell_formula_units_Z 96
_cell_length_a 9.088428
_cell_length_b 29.376050
_cell_length_c 23.721657
_cell_angle_alpha 90.000000
_cell_angle_beta 90.000000
_cell_angle_gamma 90.000000
_cell_volume 6333.258165
_symmetry_space_group_name_H-M "I M M M"
_symmetry_group_IT_number 71
_symmetry_cell_setting 'orthorhombic'
loop_
_space_group_symop_operation_xyz
x,y,z
-x,-y,z
x,-y,-z
-x,y,-z
-x,-y,-z
x,y,-z
-x,y,z
x,-y,z
1/2+x,1/2+y,1/2+z
1/2-x,1/2-y,1/2+z
1/2+x,1/2-y,1/2-z
1/2-x,1/2+y,1/2-z
1/2-x,1/2-y,1/2-z
1/2+x,1/2+y,1/2-z
1/2-x,1/2+y,1/2+z
1/2+x,1/2-y,1/2+z
loop_
_atom_site_type_symbol
_atom_site_label
_atom_site_fract_x
_atom_site_fract_y
_atom_site_fract_z
Si Si1 0.673894 0.318780 0.437941
Si Si2 0.171185 0.090067 0.249782
Si Si3 0.670148 0.179180 0.733401
Si Si4 0.169901 0.232300 0.830258
Si Si5 0.165390 0.500000 0.616319
Si Si6 0.666972 0.000000 0.250475
Si Si7 0.170810 0.911021 0.117530
O O1 0.741385 0.308668 0.500000
O O2 0.500000 0.322350 0.442277
O O3 0.717047 0.278318 0.394725
O O4 0.733683 0.366973 0.414764
O O5 0.240930 0.133509 0.281352
O O6 0.200197 0.096308 0.183544
O O7 0.000000 0.086737 0.264359
O O8 0.249571 0.044697 0.273181
O O9 0.500000 0.166839 0.742537
O O10 0.728983 0.202322 0.790027
O O11 0.692105 0.214116 0.681318
O O12 0.000000 0.217790 0.819387
O O13 0.172017 0.500000 0.683429
O O14 0.245247 0.545049 0.593353
O O15 0.000000 0.500000 0.593431
O O16 0.500000 0.000000 0.273021
O O17 0.000000 0.919104 0.105689
#
# Coordination Sequence:
#
# PCOD8287005 Si02
#       7
#    16  16  16  16   8   8  16
#     4   9  16  28  46  63  78 101 136 177 214 248
#     4  10  17  27  42  60  84 111 140 171 205 246
#     4  10  18  26  42  63  85 109 134 169 211 249
#     4   9  17  30  43  61  83 105 136 173 211 253
#     4   9  17  27  40  56  75 100 130 168 210 250
#     4   9  17  27  39  60  86 109 139 168 204 251
#     4   9  16  27  42  58  75  99 133 171 208 246
#
# _framework density 15.158075
#
# number of rings (size 3 to 8) (size 9 to 14) (size 15 to 20)
#    0.000    2.667    1.667    1.500    0.000    3.333 
#    0.000    0.417    0.000    4.500    0.000    0.000 
#    0.000    0.000    0.000    0.750    0.000   17.667 
#
# Total GULP energy -595076.325443 kJ/mol
# GULP energy per Si atom -12397.423447 kJ/mol
# Density = 1.512357 g / cm^3
# Si number density = 15.158075 Si / 1000 Ang^3
#
#
#
# Elastic Constant Matrix: (Units=GPa)
#
#
# Indices 1 2 3 4 5 6 
#
# 1 80.2894 57.5553 22.7562 0.0000 0.0000 0.0000
# 2 57.5553 129.3273 48.3977 0.0000 0.0000 0.0000
# 3 22.7562 48.3977 56.7126 0.0000 0.0000 0.0000
# 4 0.0000 0.0000 0.0000 16.1162 0.0000 0.0000
# 5 0.0000 0.0000 0.0000 0.0000 8.7970 0.0000
# 6 0.0000 0.0000 0.0000 0.0000 0.0000 27.6281
#
#
#
# Elastic Compliance Matrix: (Units=1/GPa)
#
#
# Indices 1 2 3 4 5 6 
#
# 1 0.018303 -0.007929 -0.000577 0.000000 0.000000 0.000000
# 2 -0.007929 0.014796 -0.009445 0.000000 0.000000 0.000000
# 3 -0.000577 -0.009445 0.025924 0.000000 0.000000 0.000000
# 4 0.000000 0.000000 0.000000 0.062049 0.000000 0.000000
# 5 0.000000 0.000000 0.000000 0.000000 0.113676 0.000000
# 6 0.000000 0.000000 0.000000 0.000000 0.000000 0.036195
#
#
# Mechanical properties :
#
#
# Convention : Reuss Voigt Hill
#
# Bulk Modulus (GPa) = 43.25244 58.19419 50.72331
# Shear Modulus (GPa) = 15.89563 19.68293 17.78928
#
# Velocity S-wave (km/s) = 3.24181 3.60740 3.42948
# Velocity P-wave (km/s) = 6.52753 7.47168 7.01550
#
# Compressibility (1/GPa) = 0.02312008
#
# Stress axis : x y z
#
# Youngs Moduli (GPa) = 54.63681 67.58772 38.57379
#
# Poissons Ratio (x) = 0.53592 0.02227
# Poissons Ratio (y) = 0.43323 0.36432
# Poissons Ratio (z) = 0.03154 0.63834
#
# Static dielectric constant tensor:
#      x y z
#    x 2.906430 0.000000 0.000000 
#    y 0.000000 3.104870 0.000000 
#    z 0.000000 0.000000 2.676630 
# 
# 
# High freq. dielectric constant tensor:
#      x y z
#    x 1.578260 0.000000 0.000000 
#    y 0.000000 1.587650 0.000000 
#    z 0.000000 0.000000 1.520340 
# 
# From -- ./inp_files/57932.got.cif
#   From: 2010.06.25/outbox.cif.g09.slc.cpg/sg71_29_cif.got.tgz:57932.got - 2010.06.28 04:59:45.
