data_PCOD8287994
_publ_section_title
;
Structure prediction by ZEFSAII (Michael W. Deem and Ramdas Pophale) SiO2 
 PCOD8287994
Probable space group: I M M M
;
_chemical_formula_sum "Si O2"
_cell_formula_units_Z 88
_cell_length_a 22.107156
_cell_length_b 8.900185
_cell_length_c 22.507859
_cell_angle_alpha 90.000000
_cell_angle_beta 90.000000
_cell_angle_gamma 90.000000
_cell_volume 4428.596329
_symmetry_space_group_name_H-M "I M M M"
_symmetry_group_IT_number 71
_symmetry_cell_setting 'orthorhombic'
loop_
_space_group_symop_operation_xyz
x,y,z
-x,-y,z
x,-y,-z
-x,y,-z
-x,-y,-z
x,y,-z
-x,y,z
x,-y,z
1/2+x,1/2+y,1/2+z
1/2-x,1/2-y,1/2+z
1/2+x,1/2-y,1/2-z
1/2-x,1/2+y,1/2-z
1/2-x,1/2-y,1/2-z
1/2+x,1/2+y,1/2-z
1/2-x,1/2+y,1/2+z
1/2+x,1/2-y,1/2+z
loop_
_atom_site_type_symbol
_atom_site_label
_atom_site_fract_x
_atom_site_fract_y
_atom_site_fract_z
Si Si1 0.500000 0.177028 0.433095
Si Si2 0.227966 0.166141 0.000000
Si Si3 0.709691 0.669387 0.627936
Si Si4 0.094735 0.676187 0.835504
Si Si5 0.567639 0.328767 0.784667
Si Si6 0.150590 0.676579 0.379503
Si Si7 0.348764 0.325371 0.000000
O O1 0.500000 0.249242 0.500000
O O2 0.559732 0.225473 0.395764
O O3 0.500000 0.000000 0.440394
O O4 0.187902 0.178681 0.059044
O O5 0.277084 0.297916 0.000000
O O6 0.260907 0.000000 0.000000
O O7 0.701940 0.500000 0.652666
O O8 0.665863 0.781466 0.662866
O O9 0.779424 0.721436 0.632651
O O10 0.088057 0.500000 0.823815
O O11 0.064960 0.764525 0.781536
O O12 0.500000 0.319780 0.811269
O O13 0.590902 0.500000 0.783700
O O14 0.612307 0.230068 0.823863
O O15 0.144156 0.500000 0.387048
O O16 0.124599 0.752618 0.439650
O O17 0.364466 0.500000 0.000000
#
# Coordination Sequence:
#
# PCOD8287994 Si02
#       7
#     8   8  16  16  16  16   8
#     4   9  20  38  57  83 121 158 199 250 291 335
#     4   8  16  32  52  76 116 160 195 234 287 348
#     4   9  19  35  55  84 118 152 191 242 295 343
#     4  11  22  37  60  85 116 157 200 244 294 352
#     4  11  24  42  63  85 114 151 194 245 299 353
#     4  10  21  39  63  88 120 158 195 238 291 352
#     4  10  18  32  57  89 123 153 188 234 285 340
#
# _framework density 19.870856
#
# number of rings (size 3 to 8) (size 9 to 14) (size 15 to 20)
#    0.000    2.091    0.909    3.545    1.273    5.455 
#    0.000    0.455    0.000    4.909    0.000    0.000 
#    0.000    0.000    0.000    0.000    0.000    0.000 
#
# Total GULP energy -545407.135956 kJ/mol
# GULP energy per Si atom -12395.616726 kJ/mol
# Density = 1.982563 g / cm^3
# Si number density = 19.870856 Si / 1000 Ang^3
#
#
#
# Elastic Constant Matrix: (Units=GPa)
#
#
# Indices 1 2 3 4 5 6 
#
# 1 88.6856 35.9919 43.0685 0.0000 0.0000 0.0000
# 2 35.9919 85.6788 32.2391 0.0000 0.0000 0.0000
# 3 43.0685 32.2391 101.7409 0.0000 0.0000 0.0000
# 4 0.0000 0.0000 0.0000 33.4248 0.0000 0.0000
# 5 0.0000 0.0000 0.0000 0.0000 27.7861 0.0000
# 6 0.0000 0.0000 0.0000 0.0000 0.0000 22.8096
#
#
#
# Elastic Compliance Matrix: (Units=1/GPa)
#
#
# Indices 1 2 3 4 5 6 
#
# 1 0.015665 -0.004638 -0.005161 0.000000 0.000000 0.000000
# 2 -0.004638 0.014625 -0.002671 0.000000 0.000000 0.000000
# 3 -0.005161 -0.002671 0.012860 0.000000 0.000000 0.000000
# 4 0.000000 0.000000 0.000000 0.029918 0.000000 0.000000
# 5 0.000000 0.000000 0.000000 0.000000 0.035989 0.000000
# 6 0.000000 0.000000 0.000000 0.000000 0.000000 0.043841
#
#
# Mechanical properties :
#
#
# Convention : Reuss Voigt Hill
#
# Bulk Modulus (GPa) = 54.91855 55.41159 55.16507
# Shear Modulus (GPa) = 27.18745 27.79117 27.48931
#
# Velocity S-wave (km/s) = 3.70294 3.74383 3.72344
# Velocity P-wave (km/s) = 6.78086 6.82896 6.80496
#
# Compressibility (1/GPa) = 0.01820878
#
# Stress axis : x y z
#
# Youngs Moduli (GPa) = 63.83785 68.37646 77.76014
#
# Poissons Ratio (x) = 0.31715 0.40135
# Poissons Ratio (y) = 0.29610 0.20768
# Poissons Ratio (z) = 0.32949 0.18262
#
# Static dielectric constant tensor:
#      x y z
#    x 3.414410 0.000000 0.000000 
#    y 0.000000 3.502640 0.000000 
#    z 0.000000 0.000000 3.773880 
# 
# 
# High freq. dielectric constant tensor:
#      x y z
#    x 1.755280 0.000000 0.000000 
#    y 0.000000 1.770800 0.000000 
#    z 0.000000 0.000000 1.779120 
# 
# From -- ./inp_files/55598.got.cif
#   From: 2010.06.25/outbox.cif.g09.slc.cpg/sg71_28_cif.got.tgz:55598.got - 2010.06.28 04:59:45.
