data_PCOD8287572
_publ_section_title
;
Structure prediction by ZEFSAII (Michael W. Deem and Ramdas Pophale) SiO2 
 PCOD8287572
Probable space group: I M M M
;
_chemical_formula_sum "Si O2"
_cell_formula_units_Z 120
_cell_length_a 13.465558
_cell_length_b 22.881196
_cell_length_c 22.904066
_cell_angle_alpha 90.000000
_cell_angle_beta 90.000000
_cell_angle_gamma 90.000000
_cell_volume 7056.927613
_symmetry_space_group_name_H-M "I M M M"
_symmetry_group_IT_number 71
_symmetry_cell_setting 'orthorhombic'
loop_
_space_group_symop_operation_xyz
x,y,z
-x,-y,z
x,-y,-z
-x,y,-z
-x,-y,-z
x,y,-z
-x,y,z
x,-y,z
1/2+x,1/2+y,1/2+z
1/2-x,1/2-y,1/2+z
1/2+x,1/2-y,1/2-z
1/2-x,1/2+y,1/2-z
1/2-x,1/2-y,1/2-z
1/2+x,1/2+y,1/2-z
1/2-x,1/2+y,1/2+z
1/2+x,1/2-y,1/2+z
loop_
_atom_site_type_symbol
_atom_site_label
_atom_site_fract_x
_atom_site_fract_y
_atom_site_fract_z
Si Si1 0.116468 0.062081 0.106055
Si Si2 0.384851 0.431572 0.166248
Si Si3 0.118653 0.500000 0.566002
Si Si4 0.108013 0.815194 0.066110
Si Si5 0.268372 0.433573 0.280097
Si Si6 0.614781 0.112011 0.861310
Si Si7 0.116438 0.150982 0.435623
Si Si8 0.686087 0.777721 0.069429
O O1 0.150559 0.118423 0.069614
O O2 0.142705 0.070539 0.173630
O O3 0.000000 0.057023 0.100586
O O4 0.163163 0.000000 0.082429
O O5 0.500000 0.415926 0.179507
O O6 0.373380 0.500000 0.153516
O O7 0.315304 0.411139 0.219597
O O8 0.343487 0.396852 0.109891
O O9 0.159227 0.500000 0.500000
O O10 0.156955 0.441614 0.599107
O O11 0.000000 0.500000 0.565852
O O12 0.197860 0.775525 0.090157
O O13 0.000000 0.807059 0.098750
O O14 0.089394 0.798371 0.000000
O O15 0.229047 0.500000 0.273277
O O16 0.177834 0.391458 0.301022
O O17 0.500000 0.103520 0.845403
O O18 0.627394 0.172673 0.895348
O O19 0.164666 0.140592 0.500000
O O20 0.140581 0.215854 0.412866
O O21 0.000000 0.144042 0.441157
O O22 0.675875 0.790284 0.000000
#
# Coordination Sequence:
#
# PCOD8287572 Si02
#       8
#    16  16   8  16  16  16  16  16
#     4   9  16  26  41  60  84 117 159 207 252 289
#     4   9  18  33  55  81 104 125 154 193 240 301
#     4   9  18  30  42  60  87 123 176 229 257 275
#     4   9  17  28  42  62  89 123 165 209 248 285
#     4  10  18  30  46  67  94 127 165 202 243 288
#     4  11  20  30  44  65  94 134 178 217 253 284
#     4   9  18  33  54  80 106 129 153 187 240 304
#     4  10  19  32  49  69  96 133 170 206 252 300
#
# _framework density 17.004567000000002
#
# number of rings (size 3 to 8) (size 9 to 14) (size 15 to 20)
#    0.000    2.467    2.000    1.200    0.000    3.467 
#    0.000    3.333    0.000    0.800    0.000    0.000 
#    0.000    0.000    0.000    8.133    0.000    0.267 
#
# Total GULP energy -743499.048630 kJ/mol
# GULP energy per Si atom -12391.650810 kJ/mol
# Density = 1.696586 g / cm^3
# Si number density = 17.004567 Si / 1000 Ang^3
#
#
#
# Elastic Constant Matrix: (Units=GPa)
#
#
# Indices 1 2 3 4 5 6 
#
# 1 30.3242 22.1538 35.8216 0.0000 0.0000 0.0000
# 2 22.1538 66.1213 46.1067 0.0000 0.0000 0.0000
# 3 35.8216 46.1067 80.1280 0.0000 0.0000 0.0000
# 4 0.0000 0.0000 0.0000 23.4990 0.0000 0.0000
# 5 0.0000 0.0000 0.0000 0.0000 20.3656 0.0000
# 6 0.0000 0.0000 0.0000 0.0000 0.0000 19.8459
#
#
#
# Elastic Compliance Matrix: (Units=1/GPa)
#
#
# Indices 1 2 3 4 5 6 
#
# 1 0.070176 -0.002732 -0.029800 0.000000 0.000000 0.000000
# 2 -0.002732 0.025365 -0.013374 0.000000 0.000000 0.000000
# 3 -0.029800 -0.013374 0.033498 0.000000 0.000000 0.000000
# 4 0.000000 0.000000 0.000000 0.042555 0.000000 0.000000
# 5 0.000000 0.000000 0.000000 0.000000 0.049102 0.000000
# 6 0.000000 0.000000 0.000000 0.000000 0.000000 0.050388
#
#
# Mechanical properties :
#
#
# Convention : Reuss Voigt Hill
#
# Bulk Modulus (GPa) = 26.86309 42.74863 34.80586
# Shear Modulus (GPa) = 13.32249 17.57487 15.44868
#
# Velocity S-wave (km/s) = 2.80208 3.21836 3.01741
# Velocity P-wave (km/s) = 5.12843 6.24536 5.71425
#
# Compressibility (1/GPa) = 0.03722579
#
# Stress axis : x y z
#
# Youngs Moduli (GPa) = 14.24989 39.42489 29.85276
#
# Poissons Ratio (x) = 0.10773 0.88962
# Poissons Ratio (y) = 0.03894 0.39924
# Poissons Ratio (z) = 0.42465 0.52725
#
# Static dielectric constant tensor:
#      x y z
#    x 3.344450 0.000000 0.000000 
#    y 0.000000 2.082950 0.000000 
#    z 0.000000 0.000000 3.111360 
# 
# 
# High freq. dielectric constant tensor:
#      x y z
#    x 1.657800 0.000000 0.000000 
#    y 0.000000 1.636010 0.000000 
#    z 0.000000 0.000000 1.625600 
# 
# From -- ./inp_files/39660.got.cif
#   From: 2010.06.25/outbox.cif.g09.slc.cpg/sg71_20_cif.got.tgz:39660.got - 2010.06.28 04:59:45.
