data_PCOD8287676
_publ_section_title
;
Structure prediction by ZEFSAII (Michael W. Deem and Ramdas Pophale) SiO2 
 PCOD8287676
Probable space group: I M M M
;
_chemical_formula_sum "Si O2"
_cell_formula_units_Z 80
_cell_length_a 24.953921
_cell_length_b 9.124435
_cell_length_c 18.730683
_cell_angle_alpha 90.000000
_cell_angle_beta 90.000000
_cell_angle_gamma 90.000000
_cell_volume 4264.797269
_symmetry_space_group_name_H-M "I M M M"
_symmetry_group_IT_number 71
_symmetry_cell_setting 'orthorhombic'
loop_
_space_group_symop_operation_xyz
x,y,z
-x,-y,z
x,-y,-z
-x,y,-z
-x,-y,-z
x,y,-z
-x,y,z
x,-y,z
1/2+x,1/2+y,1/2+z
1/2-x,1/2-y,1/2+z
1/2+x,1/2-y,1/2-z
1/2-x,1/2+y,1/2-z
1/2-x,1/2-y,1/2-z
1/2+x,1/2+y,1/2-z
1/2-x,1/2+y,1/2+z
1/2+x,1/2-y,1/2+z
loop_
_atom_site_type_symbol
_atom_site_label
_atom_site_fract_x
_atom_site_fract_y
_atom_site_fract_z
Si Si1 0.096341 0.673290 0.172325
Si Si2 0.903545 0.826384 0.682517
Si Si3 0.306775 0.171093 0.579270
Si Si4 0.718652 0.670476 0.813950
Si Si5 0.000000 0.825998 0.418860
Si Si6 0.000000 0.326846 0.922879
O O1 0.097695 0.500000 0.187101
O O2 0.079067 0.753664 0.244027
O O3 0.151612 0.733478 0.138011
O O4 0.052678 0.725405 0.116401
O O5 0.841908 0.774498 0.670637
O O6 0.945403 0.772156 0.621358
O O7 0.906991 0.000000 0.689166
O O8 0.311549 0.243345 0.500000
O O9 0.247943 0.200692 0.610732
O O10 0.319065 0.000000 0.571124
O O11 0.719456 0.500000 0.793677
O O12 0.750000 0.750000 0.750000
O O13 0.000000 0.763069 0.500000
O O14 0.000000 0.000000 0.421296
O O15 0.000000 0.500000 0.929686
O O16 0.000000 0.251564 0.000000
#
# Coordination Sequence:
#
# PCOD8287676 Si02
#       6
#    16  16  16  16   8   8
#     4  10  18  30  50  73  99 132 166 204 250 300
#     4  10  20  33  53  77 101 133 170 211 258 306
#     4   9  17  29  47  72  99 127 163 207 251 295
#     4  10  19  32  51  75 102 133 169 212 258 307
#     4   9  19  36  55  77 106 137 174 222 268 305
#     4   9  17  28  45  71  98 125 164 208 244 283
#
# _framework density 18.758219
#
# number of rings (size 3 to 8) (size 9 to 14) (size 15 to 20)
#    0.000    2.400    2.000    1.200    0.000    3.200 
#    0.000    4.000    0.000    6.000    0.000    2.800 
#    0.000    0.000    0.000    0.000    0.000    0.000 
#
# Total GULP energy -495666.404853 kJ/mol
# GULP energy per Si atom -12391.660121 kJ/mol
# Density = 1.871552 g / cm^3
# Si number density = 18.758219 Si / 1000 Ang^3
#
#
#
# Elastic Constant Matrix: (Units=GPa)
#
#
# Indices 1 2 3 4 5 6 
#
# 1 155.1551 18.3115 75.7529 0.0000 0.0000 0.0000
# 2 18.3115 12.3042 19.4675 0.0000 0.0000 0.0000
# 3 75.7529 19.4675 162.9369 0.0000 0.0000 0.0000
# 4 0.0000 0.0000 0.0000 22.5415 0.0000 0.0000
# 5 0.0000 0.0000 0.0000 0.0000 33.4183 0.0000
# 6 0.0000 0.0000 0.0000 0.0000 0.0000 -58.1068
#
#
#
# Elastic Compliance Matrix: (Units=1/GPa)
#
#
# Indices 1 2 3 4 5 6 
#
# 1 0.008981 -0.008335 -0.003180 0.000000 0.000000 0.000000
# 2 -0.008335 0.107954 -0.009023 0.000000 0.000000 0.000000
# 3 -0.003180 -0.009023 0.008694 0.000000 0.000000 0.000000
# 4 0.000000 0.000000 0.000000 0.044363 0.000000 0.000000
# 5 0.000000 0.000000 0.000000 0.000000 0.029924 0.000000
# 6 0.000000 0.000000 0.000000 0.000000 0.000000 -0.017210
#
#
# Mechanical properties :
#
#
# Convention : Reuss Voigt Hill
#
# Bulk Modulus (GPa) = 11.82688 61.93999 36.88344
# Shear Modulus (GPa) = 19.84388 14.02822 16.93605
#
# Velocity S-wave (km/s) = 3.25603 2.73764 3.00802
# Velocity P-wave (km/s) = 4.52264 6.56390 5.63644
#
# Compressibility (1/GPa) = 0.08455317
#
# Stress axis : x y z
#
# Youngs Moduli (GPa) = 111.34135 9.26318 115.02559
#
# Poissons Ratio (x) = 0.07721 0.36575
# Poissons Ratio (y) = 0.92809 1.03787
# Poissons Ratio (z) = 0.35403 0.08358
#
# Static dielectric constant tensor:
#      x y z
#    x 3.774010 0.000000 0.000000 
#    y 0.000000 2.964360 0.000000 
#    z 0.000000 0.000000 3.662560 
# 
# 
# High freq. dielectric constant tensor:
#      x y z
#    x 1.747890 0.000000 0.000000 
#    y 0.000000 1.671190 0.000000 
#    z 0.000000 0.000000 1.734580 
# 
# From -- ./inp_files/48018.got.cif
#   From: 2010.06.25/outbox.cif.g09.slc.cpg/sg71_25_cif.got.tgz:48018.got - 2010.06.28 04:59:45.
