data_PCOD8287855
_publ_section_title
;
Structure prediction by ZEFSAII (Michael W. Deem and Ramdas Pophale) SiO2 
 PCOD8287855
Probable space group: I M M M
;
_chemical_formula_sum "Si O2"
_cell_formula_units_Z 80
_cell_length_a 17.842768
_cell_length_b 13.591029
_cell_length_c 18.985283
_cell_angle_alpha 90.000000
_cell_angle_beta 90.000000
_cell_angle_gamma 90.000000
_cell_volume 4603.961074
_symmetry_space_group_name_H-M "I M M M"
_symmetry_group_IT_number 71
_symmetry_cell_setting 'orthorhombic'
loop_
_space_group_symop_operation_xyz
x,y,z
-x,-y,z
x,-y,-z
-x,y,-z
-x,-y,-z
x,y,-z
-x,y,z
x,-y,z
1/2+x,1/2+y,1/2+z
1/2-x,1/2-y,1/2+z
1/2+x,1/2-y,1/2-z
1/2-x,1/2+y,1/2-z
1/2-x,1/2-y,1/2-z
1/2+x,1/2+y,1/2-z
1/2-x,1/2+y,1/2+z
1/2+x,1/2-y,1/2+z
loop_
_atom_site_type_symbol
_atom_site_label
_atom_site_fract_x
_atom_site_fract_y
_atom_site_fract_z
Si Si1 0.415996 0.613570 0.365039
Si Si2 0.084461 0.794036 0.711845
Si Si3 0.682360 0.888246 0.201712
Si Si4 0.725299 0.388223 0.841613
Si Si5 0.225800 0.206247 0.079801
O O1 0.500000 0.623817 0.395698
O O2 0.391746 0.500000 0.359475
O O3 0.411209 0.659928 0.288444
O O4 0.360109 0.670529 0.416818
O O5 0.110716 0.680576 0.714911
O O6 0.138056 0.856274 0.659897
O O7 0.000000 0.798454 0.681925
O O8 0.742721 0.871792 0.263342
O O9 0.722347 0.861957 0.128490
O O10 0.653405 0.000000 0.199588
O O11 0.733372 0.500000 0.867477
O O12 0.770180 0.320081 0.896216
O O13 0.254522 0.196924 0.000000
#
# Coordination Sequence:
#
# PCOD8287855 Si02
#       5
#    16  16  16  16  16
#     4  10  19  31  49  76 109 140 170 205 249 304
#     4  10  18  31  53  80 106 132 167 213 263 305
#     4  10  19  34  54  76 102 135 176 217 255 299
#     4  10  19  35  56  76 100 134 177 220 257 297
#     4  11  21  34  52  76 107 140 174 211 254 305
#
# _framework density 17.376341
#
# number of rings (size 3 to 8) (size 9 to 14) (size 15 to 20)
#    0.000    1.800    4.000    2.400    0.000    4.000 
#    0.000    1.000    0.000   10.200    0.000   12.600 
#    0.000    0.000    0.000    0.000    0.000    0.000 
#
# Total GULP energy -496036.927686 kJ/mol
# GULP energy per Si atom -12400.923192 kJ/mol
# Density = 1.733679 g / cm^3
# Si number density = 17.376341 Si / 1000 Ang^3
#
#
#
# Elastic Constant Matrix: (Units=GPa)
#
#
# Indices 1 2 3 4 5 6 
#
# 1 92.2073 58.5706 45.5649 0.0000 0.0000 0.0000
# 2 58.5706 138.9680 36.3082 0.0000 0.0000 0.0000
# 3 45.5649 36.3082 73.3319 0.0000 0.0000 0.0000
# 4 0.0000 0.0000 0.0000 7.9349 0.0000 0.0000
# 5 0.0000 0.0000 0.0000 0.0000 15.0061 0.0000
# 6 0.0000 0.0000 0.0000 0.0000 0.0000 25.1858
#
#
#
# Elastic Compliance Matrix: (Units=1/GPa)
#
#
# Indices 1 2 3 4 5 6 
#
# 1 0.018805 -0.005597 -0.008913 0.000000 0.000000 0.000000
# 2 -0.005597 0.009931 -0.001439 0.000000 0.000000 0.000000
# 3 -0.008913 -0.001439 0.019888 0.000000 0.000000 0.000000
# 4 0.000000 0.000000 0.000000 0.126025 0.000000 0.000000
# 5 0.000000 0.000000 0.000000 0.000000 0.066639 0.000000
# 6 0.000000 0.000000 0.000000 0.000000 0.000000 0.039705
#
#
# Mechanical properties :
#
#
# Convention : Reuss Voigt Hill
#
# Bulk Modulus (GPa) = 59.79343 65.04384 62.41863
# Shear Modulus (GPa) = 15.70023 20.56295 18.13159
#
# Velocity S-wave (km/s) = 3.00916 3.44377 3.23377
# Velocity P-wave (km/s) = 6.82341 7.30250 7.06701
#
# Compressibility (1/GPa) = 0.01672425
#
# Stress axis : x y z
#
# Youngs Moduli (GPa) = 53.17776 100.69624 50.28263
#
# Poissons Ratio (x) = 0.56358 0.44818
# Poissons Ratio (y) = 0.29763 0.07237
# Poissons Ratio (z) = 0.47399 0.14494
#
# Static dielectric constant tensor:
#      x y z
#    x 3.440750 0.000000 0.000000 
#    y 0.000000 3.437330 0.000000 
#    z 0.000000 0.000000 2.889370 
# 
# 
# High freq. dielectric constant tensor:
#      x y z
#    x 1.665500 0.000000 0.000000 
#    y 0.000000 1.685000 0.000000 
#    z 0.000000 0.000000 1.639450 
# 
# From -- ./inp_files/36226.got.cif
#   From: 2010.06.25/outbox.cif.g09.slc.cpg/sg71_19_cif.got.tgz:36226.got - 2010.06.28 04:59:45.
