data_PCOD8287101
_publ_section_title
;
Structure prediction by ZEFSAII (Michael W. Deem and Ramdas Pophale) SiO2 
 PCOD8287101
Probable space group: I M M M
;
_chemical_formula_sum "Si O2"
_cell_formula_units_Z 120
_cell_length_a 8.946883
_cell_length_b 25.283457
_cell_length_c 29.361467
_cell_angle_alpha 90.000000
_cell_angle_beta 90.000000
_cell_angle_gamma 90.000000
_cell_volume 6641.802592
_symmetry_space_group_name_H-M "I M M M"
_symmetry_group_IT_number 71
_symmetry_cell_setting 'orthorhombic'
loop_
_space_group_symop_operation_xyz
x,y,z
-x,-y,z
x,-y,-z
-x,y,-z
-x,-y,-z
x,y,-z
-x,y,z
x,-y,z
1/2+x,1/2+y,1/2+z
1/2-x,1/2-y,1/2+z
1/2+x,1/2-y,1/2-z
1/2-x,1/2+y,1/2-z
1/2-x,1/2-y,1/2-z
1/2+x,1/2+y,1/2-z
1/2-x,1/2+y,1/2+z
1/2+x,1/2-y,1/2+z
loop_
_atom_site_type_symbol
_atom_site_label
_atom_site_fract_x
_atom_site_fract_y
_atom_site_fract_z
Si Si1 0.674658 0.155840 0.122503
Si Si2 0.822763 0.742216 0.448695
Si Si3 0.175788 0.059444 0.909526
Si Si4 0.321815 0.342185 0.890071
Si Si5 0.666140 0.693508 0.292149
Si Si6 0.677317 0.559089 0.051112
Si Si7 0.835030 0.437561 0.500000
Si Si8 0.667127 0.182067 0.294851
O O1 0.500000 0.144496 0.119599
O O2 0.730532 0.190741 0.079496
O O3 0.762378 0.100186 0.127419
O O4 0.713949 0.186438 0.168053
O O5 0.755890 0.739972 0.500000
O O6 0.767103 0.794991 0.423130
O O7 0.000000 0.743477 0.450875
O O8 0.245602 0.081297 0.956212
O O9 0.000000 0.061400 0.913677
O O10 0.229783 0.000000 0.897782
O O11 0.500000 0.340822 0.883072
O O12 0.265482 0.397048 0.913032
O O13 0.243682 0.335828 0.841566
O O14 0.500000 0.670301 0.302632
O O15 0.652353 0.755824 0.287398
O O16 0.729269 0.663377 0.247315
O O17 0.500000 0.561373 0.049744
O O18 0.730151 0.500000 0.066167
O O19 0.737599 0.571527 0.000000
O O20 0.848786 0.500000 0.500000
O O21 0.000000 0.411199 0.500000
O O22 0.500000 0.157143 0.292723
#
# Coordination Sequence:
#
# PCOD8287101 Si02
#       8
#    16  16  16  16  16  16   8  16
#     4  11  21  33  53  77 105 135 171 215 258 310
#     4   9  18  30  45  71 105 139 173 207 247 302
#     4  10  21  36  52  71  98 133 172 213 257 304
#     4  10  17  29  51  76 105 140 176 214 260 311
#     4  10  20  35  54  75 102 133 169 212 262 318
#     4   8  14  25  45  76 109 141 182 227 261 293
#     4   9  17  31  51  73  95 123 167 217 258 295
#     4  10  20  33  52  76 104 133 168 213 262 314
#
# _framework density 18.067385000000002
#
# number of rings (size 3 to 8) (size 9 to 14) (size 15 to 20)
#    0.000    2.333    1.333    2.600    0.933    4.267 
#    0.000    0.000    0.000    4.400    0.000    2.800 
#    0.000    0.000    0.000    0.000    0.000    0.000 
#
# Total GULP energy -743658.809436 kJ/mol
# GULP energy per Si atom -12394.313491 kJ/mol
# Density = 1.802626 g / cm^3
# Si number density = 18.067385 Si / 1000 Ang^3
#
#
#
# Elastic Constant Matrix: (Units=GPa)
#
#
# Indices 1 2 3 4 5 6 
#
# 1 62.1510 31.3175 30.2232 0.0000 0.0000 0.0000
# 2 31.3175 84.0189 36.3335 0.0000 0.0000 0.0000
# 3 30.2232 36.3335 116.6952 0.0000 0.0000 0.0000
# 4 0.0000 0.0000 0.0000 21.6826 0.0000 0.0000
# 5 0.0000 0.0000 0.0000 0.0000 23.6625 0.0000
# 6 0.0000 0.0000 0.0000 0.0000 0.0000 18.1502
#
#
#
# Elastic Compliance Matrix: (Units=1/GPa)
#
#
# Indices 1 2 3 4 5 6 
#
# 1 0.020954 -0.006314 -0.003461 0.000000 0.000000 0.000000
# 2 -0.006314 0.015656 -0.003239 0.000000 0.000000 0.000000
# 3 -0.003461 -0.003239 0.010474 0.000000 0.000000 0.000000
# 4 0.000000 0.000000 0.000000 0.046120 0.000000 0.000000
# 5 0.000000 0.000000 0.000000 0.000000 0.042261 0.000000
# 6 0.000000 0.000000 0.000000 0.000000 0.000000 0.055096
#
#
# Mechanical properties :
#
#
# Convention : Reuss Voigt Hill
#
# Bulk Modulus (GPa) = 47.49187 50.95707 49.22447
# Shear Modulus (GPa) = 22.36037 23.69845 23.02941
#
# Velocity S-wave (km/s) = 3.52178 3.62563 3.57408
# Velocity P-wave (km/s) = 6.54831 6.76698 6.65854
#
# Compressibility (1/GPa) = 0.02105624
#
# Stress axis : x y z
#
# Youngs Moduli (GPa) = 47.72245 63.87156 95.47108
#
# Poissons Ratio (x) = 0.40328 0.33044
# Poissons Ratio (y) = 0.30131 0.30927
# Poissons Ratio (z) = 0.16518 0.20691
#
# Static dielectric constant tensor:
#      x y z
#    x 3.240880 0.000000 0.000000 
#    y 0.000000 3.346520 0.000000 
#    z 0.000000 0.000000 3.404540 
# 
# 
# High freq. dielectric constant tensor:
#      x y z
#    x 1.682350 0.000000 0.000000 
#    y 0.000000 1.681990 0.000000 
#    z 0.000000 0.000000 1.695810 
# 
# From -- ./inp_files/63815.got.cif
#   From: 2010.06.25/outbox.cif.g09.slc.cpg/sg71_32_cif.got.tgz:63815.got - 2010.06.28 04:59:45.
