data_PCOD8287526
_publ_section_title
;
Structure prediction by ZEFSAII (Michael W. Deem and Ramdas Pophale) SiO2 
 PCOD8287526
Probable space group: I M M M
;
_chemical_formula_sum "Si O2"
_cell_formula_units_Z 88
_cell_length_a 8.974765
_cell_length_b 20.405368
_cell_length_c 24.362960
_cell_angle_alpha 90.000000
_cell_angle_beta 90.000000
_cell_angle_gamma 90.000000
_cell_volume 4461.671273
_symmetry_space_group_name_H-M "I M M M"
_symmetry_group_IT_number 71
_symmetry_cell_setting 'orthorhombic'
loop_
_space_group_symop_operation_xyz
x,y,z
-x,-y,z
x,-y,-z
-x,y,-z
-x,-y,-z
x,y,-z
-x,y,z
x,-y,z
1/2+x,1/2+y,1/2+z
1/2-x,1/2-y,1/2+z
1/2+x,1/2-y,1/2-z
1/2-x,1/2+y,1/2-z
1/2-x,1/2-y,1/2-z
1/2+x,1/2+y,1/2-z
1/2-x,1/2+y,1/2+z
1/2+x,1/2-y,1/2+z
loop_
_atom_site_type_symbol
_atom_site_label
_atom_site_fract_x
_atom_site_fract_y
_atom_site_fract_z
Si Si1 0.756101 0.500000 0.261902
Si Si2 0.828590 0.748914 0.937034
Si Si3 0.166438 0.000000 0.119460
Si Si4 0.322231 0.133983 0.356818
Si Si5 0.839238 0.640857 0.738020
Si Si6 0.678142 0.865724 0.881087
Si Si7 0.665850 0.500000 0.856626
O O1 0.650353 0.500000 0.314909
O O2 0.863658 0.437501 0.261747
O O3 0.649909 0.500000 0.209035
O O4 0.773478 0.687892 0.900811
O O5 0.727984 0.811881 0.924729
O O6 0.000000 0.766160 0.923970
O O7 0.806497 0.728779 0.000000
O O8 0.254337 0.064822 0.099720
O O9 0.000000 0.000000 0.094042
O O10 0.500000 0.125160 0.353156
O O11 0.258913 0.158084 0.296281
O O12 0.252559 0.065158 0.376283
O O13 0.758641 0.657245 0.679774
O O14 0.000000 0.675832 0.737824
O O15 0.500000 0.872169 0.879093
O O16 0.500000 0.500000 0.882136
#
# Coordination Sequence:
#
# PCOD8287526 Si02
#       7
#     8  16   8  16  16  16   8
#     4   8  14  24  42  72 109 144 170 199 248 306
#     4  10  22  40  58  75  99 136 182 226 265 308
#     4  10  18  31  53  80 110 142 175 210 251 305
#     4   9  18  34  55  77 105 142 178 212 256 311
#     4   8  14  26  47  76 107 137 169 206 252 308
#     4  10  20  34  54  81 111 140 171 211 261 315
#     4  10  18  29  49  80 112 137 170 216 260 306
#
# _framework density 19.723549999999999
#
# number of rings (size 3 to 8) (size 9 to 14) (size 15 to 20)
#    0.000    2.727    0.000    1.636    0.000    6.182 
#    0.000    1.818    0.000    5.455    0.000    0.000 
#    0.000    0.000    0.000    0.000    0.000    0.000 
#
# Total GULP energy -545076.402921 kJ/mol
# GULP energy per Si atom -12388.100066 kJ/mol
# Density = 1.967866 g / cm^3
# Si number density = 19.723550 Si / 1000 Ang^3
#
#
#
# Elastic Constant Matrix: (Units=GPa)
#
#
# Indices 1 2 3 4 5 6 
#
# 1 74.4877 29.9735 10.8100 0.0000 0.0000 0.0000
# 2 29.9735 87.8013 20.9969 0.0000 0.0000 0.0000
# 3 10.8100 20.9969 60.2623 0.0000 0.0000 0.0000
# 4 0.0000 0.0000 0.0000 10.4587 0.0000 0.0000
# 5 0.0000 0.0000 0.0000 0.0000 16.6903 0.0000
# 6 0.0000 0.0000 0.0000 0.0000 0.0000 24.0000
#
#
#
# Elastic Compliance Matrix: (Units=1/GPa)
#
#
# Indices 1 2 3 4 5 6 
#
# 1 0.015621 -0.005086 -0.001030 0.000000 0.000000 0.000000
# 2 -0.005086 0.014081 -0.003994 0.000000 0.000000 0.000000
# 3 -0.001030 -0.003994 0.018170 0.000000 0.000000 0.000000
# 4 0.000000 0.000000 0.000000 0.095614 0.000000 0.000000
# 5 0.000000 0.000000 0.000000 0.000000 0.059915 0.000000
# 6 0.000000 0.000000 0.000000 0.000000 0.000000 0.041667
#
#
# Mechanical properties :
#
#
# Convention : Reuss Voigt Hill
#
# Bulk Modulus (GPa) = 36.16337 38.45690 37.31013
# Shear Modulus (GPa) = 18.21454 20.94785 19.58120
#
# Velocity S-wave (km/s) = 3.04220 3.26248 3.15426
# Velocity P-wave (km/s) = 5.54210 5.80793 5.67657
#
# Compressibility (1/GPa) = 0.02765229
#
# Stress axis : x y z
#
# Youngs Moduli (GPa) = 64.01529 71.01854 55.03466
#
# Poissons Ratio (x) = 0.36123 0.05668
# Poissons Ratio (y) = 0.32561 0.21979
# Poissons Ratio (z) = 0.06593 0.28363
#
# Static dielectric constant tensor:
#      x y z
#    x 3.227140 0.000000 0.000000 
#    y 0.000000 3.454830 0.000000 
#    z 0.000000 0.000000 3.554390 
# 
# 
# High freq. dielectric constant tensor:
#      x y z
#    x 1.744620 0.000000 0.000000 
#    y 0.000000 1.760060 0.000000 
#    z 0.000000 0.000000 1.750050 
# 
# From -- ./inp_files/57600.got.cif
#   From: 2010.06.25/outbox.cif.g09.slc.cpg/sg71_29_cif.got.tgz:57600.got - 2010.06.28 04:59:45.
