data_PCOD8287244
_publ_section_title
;
Structure prediction by ZEFSAII (Michael W. Deem and Ramdas Pophale) SiO2 
 PCOD8287244
Probable space group: I M M M
;
_chemical_formula_sum "Si O2"
_cell_formula_units_Z 72
_cell_length_a 7.694904
_cell_length_b 14.487721
_cell_length_c 37.280209
_cell_angle_alpha 90.000000
_cell_angle_beta 90.000000
_cell_angle_gamma 90.000000
_cell_volume 4156.058178
_symmetry_space_group_name_H-M "I M M M"
_symmetry_group_IT_number 71
_symmetry_cell_setting 'orthorhombic'
loop_
_space_group_symop_operation_xyz
x,y,z
-x,-y,z
x,-y,-z
-x,y,-z
-x,-y,-z
x,y,-z
-x,y,z
x,-y,z
1/2+x,1/2+y,1/2+z
1/2-x,1/2-y,1/2+z
1/2+x,1/2-y,1/2-z
1/2-x,1/2+y,1/2-z
1/2-x,1/2-y,1/2-z
1/2+x,1/2+y,1/2-z
1/2-x,1/2+y,1/2+z
1/2+x,1/2-y,1/2+z
loop_
_atom_site_type_symbol
_atom_site_label
_atom_site_fract_x
_atom_site_fract_y
_atom_site_fract_z
Si Si1 0.205899 0.396290 0.229203
Si Si2 0.000000 0.891155 0.460288
Si Si3 0.798703 0.391829 0.092924
Si Si4 0.800442 0.287831 0.162620
Si Si5 0.794196 0.602692 0.308746
O O1 0.261631 0.500000 0.219299
O O2 0.288313 0.329791 0.198706
O O3 0.277591 0.371149 0.268921
O O4 0.000000 0.387323 0.230167
O O5 0.176606 0.860742 0.440024
O O6 0.000000 0.845849 0.500000
O O7 0.000000 0.000000 0.463926
O O8 0.777460 0.500000 0.101780
O O9 0.724447 0.333837 0.126746
O O10 0.000000 0.368443 0.083599
O O11 0.775513 0.177169 0.162625
O O12 0.000000 0.316060 0.162972
O O13 0.727776 0.500000 0.319492
O O14 0.000000 0.603386 0.308813
#
# Coordination Sequence:
#
# PCOD8287244 Si02
#       5
#    16   8  16  16  16
#     4   8  14  26  42  59  82 114 152 190 232 281
#     4   9  18  32  50  72  99 131 159 183 220 272
#     4   9  18  31  47  71 100 126 155 189 226 272
#     4  10  18  27  44  65  85 116 152 191 238 276
#     4   9  18  30  42  57  81 117 157 196 237 278
#
# _framework density 17.324107000000001
#
# number of rings (size 3 to 8) (size 9 to 14) (size 15 to 20)
#    0.000    3.000    0.000    2.667    1.556    3.556 
#    0.000    2.222    0.000    1.333    0.000    0.000 
#    0.000    1.778    0.000    4.889    0.000    0.222 
#
# Total GULP energy -446122.833434 kJ/mol
# GULP energy per Si atom -12392.300929 kJ/mol
# Density = 1.728468 g / cm^3
# Si number density = 17.324107 Si / 1000 Ang^3
#
#
#
# Elastic Constant Matrix: (Units=GPa)
#
#
# Indices 1 2 3 4 5 6 
#
# 1 48.9171 16.2581 35.9789 0.0000 0.0000 0.0000
# 2 16.2581 84.6704 60.9247 0.0000 0.0000 0.0000
# 3 35.9789 60.9247 118.9232 0.0000 0.0000 0.0000
# 4 0.0000 0.0000 0.0000 16.4666 0.0000 0.0000
# 5 0.0000 0.0000 0.0000 0.0000 11.8828 0.0000
# 6 0.0000 0.0000 0.0000 0.0000 0.0000 17.1437
#
#
#
# Elastic Compliance Matrix: (Units=1/GPa)
#
#
# Indices 1 2 3 4 5 6 
#
# 1 0.026355 0.001072 -0.008522 0.000000 0.000000 0.000000
# 2 0.001072 0.018750 -0.009930 0.000000 0.000000 0.000000
# 3 -0.008522 -0.009930 0.016074 0.000000 0.000000 0.000000
# 4 0.000000 0.000000 0.000000 0.060729 0.000000 0.000000
# 5 0.000000 0.000000 0.000000 0.000000 0.084155 0.000000
# 6 0.000000 0.000000 0.000000 0.000000 0.000000 0.058330
#
#
# Mechanical properties :
#
#
# Convention : Reuss Voigt Hill
#
# Bulk Modulus (GPa) = 37.85319 53.20380 45.52849
# Shear Modulus (GPa) = 16.23586 18.38855 17.31221
#
# Velocity S-wave (km/s) = 3.06467 3.26151 3.16462
# Velocity P-wave (km/s) = 5.86689 6.70528 6.30005
#
# Compressibility (1/GPa) = 0.02641785
#
# Stress axis : x y z
#
# Youngs Moduli (GPa) = 37.94371 53.33430 62.21152
#
# Poissons Ratio (x) = -0.05716 0.53019
# Poissons Ratio (y) = -0.04067 0.61774
# Poissons Ratio (z) = 0.32337 0.52960
#
# Static dielectric constant tensor:
#      x y z
#    x 3.021410 0.000000 0.000000 
#    y 0.000000 3.243550 0.000000 
#    z 0.000000 0.000000 3.341810 
# 
# 
# High freq. dielectric constant tensor:
#      x y z
#    x 1.659300 0.000000 0.000000 
#    y 0.000000 1.649740 0.000000 
#    z 0.000000 0.000000 1.634490 
# 
# From -- ./inp_files/6426.got.cif
#   From: 2010.06.25/outbox.cif.g09.slc.cpg/sg71_4_cif.got.tgz:6426.got - 2010.06.28 04:59:45.
