data_PCOD8287355
_publ_section_title
;
Structure prediction by ZEFSAII (Michael W. Deem and Ramdas Pophale) SiO2 
 PCOD8287355
Probable space group: I M M M
;
_chemical_formula_sum "Si O2"
_cell_formula_units_Z 72
_cell_length_a 28.959471
_cell_length_b 9.200963
_cell_length_c 15.555441
_cell_angle_alpha 90.000000
_cell_angle_beta 90.000000
_cell_angle_gamma 90.000000
_cell_volume 4144.825361
_symmetry_space_group_name_H-M "I M M M"
_symmetry_group_IT_number 71
_symmetry_cell_setting 'orthorhombic'
loop_
_space_group_symop_operation_xyz
x,y,z
-x,-y,z
x,-y,-z
-x,y,-z
-x,-y,-z
x,y,-z
-x,y,z
x,-y,z
1/2+x,1/2+y,1/2+z
1/2-x,1/2-y,1/2+z
1/2+x,1/2-y,1/2-z
1/2-x,1/2+y,1/2-z
1/2-x,1/2-y,1/2-z
1/2+x,1/2+y,1/2-z
1/2-x,1/2+y,1/2+z
1/2+x,1/2-y,1/2+z
loop_
_atom_site_type_symbol
_atom_site_label
_atom_site_fract_x
_atom_site_fract_y
_atom_site_fract_z
Si Si1 0.387823 0.828743 0.330783
Si Si2 0.445083 0.664115 0.000000
Si Si3 0.553450 0.830873 0.167093
Si Si4 0.708581 0.165015 0.500000
Si Si5 0.884584 0.172534 0.000000
Si Si6 0.281715 0.164374 0.314269
O O1 0.418417 0.779524 0.250255
O O2 0.407029 0.742000 0.413949
O O3 0.334867 0.783728 0.311544
O O4 0.392181 0.000000 0.348941
O O5 0.426655 0.744418 0.914855
O O6 0.426332 0.500000 0.000000
O O7 0.500000 0.670169 0.000000
O O8 0.500000 0.794640 0.183994
O O9 0.560967 0.000000 0.147946
O O10 0.669078 0.285509 0.500000
O O11 0.737922 0.184059 0.587755
O O12 0.686774 0.000000 0.500000
O O13 0.891479 0.000000 0.000000
O O14 0.250000 0.250000 0.250000
O O15 0.278672 0.000000 0.283292
#
# Coordination Sequence:
#
# PCOD8287355 Si02
#       6
#    16   8  16   8   8  16
#     4   9  18  33  50  68  94 125 154 190 236 276
#     4   9  17  29  46  69  98 128 153 185 234 281
#     4   9  17  31  52  73  91 119 161 198 225 267
#     4   8  16  32  49  64  89 125 156 184 228 278
#     4  10  18  28  47  72  93 119 157 193 226 275
#     4   9  17  30  48  68  91 120 152 187 227 271
#
# _framework density 17.371057
#
# number of rings (size 3 to 8) (size 9 to 14) (size 15 to 20)
#    0.000    3.000    0.000    2.667    0.000    5.778 
#    0.000    1.667    0.000    7.333    0.000    0.000 
#    0.000    0.000    0.000    0.000    0.000    0.000 
#
# Total GULP energy -446178.720734 kJ/mol
# GULP energy per Si atom -12393.853354 kJ/mol
# Density = 1.733152 g / cm^3
# Si number density = 17.371057 Si / 1000 Ang^3
#
#
#
# Elastic Constant Matrix: (Units=GPa)
#
#
# Indices 1 2 3 4 5 6 
#
# 1 48.0797 30.4216 62.0079 0.0000 0.0000 0.0000
# 2 30.4216 81.3808 78.3105 0.0000 0.0000 0.0000
# 3 62.0079 78.3105 196.7500 0.0000 0.0000 0.0000
# 4 0.0000 0.0000 0.0000 31.5007 0.0000 0.0000
# 5 0.0000 0.0000 0.0000 0.0000 32.9735 0.0000
# 6 0.0000 0.0000 0.0000 0.0000 0.0000 18.6400
#
#
#
# Elastic Compliance Matrix: (Units=1/GPa)
#
#
# Indices 1 2 3 4 5 6 
#
# 1 0.035867 -0.004101 -0.009672 0.000000 0.000000 0.000000
# 2 -0.004101 0.020385 -0.006821 0.000000 0.000000 0.000000
# 3 -0.009672 -0.006821 0.010846 0.000000 0.000000 0.000000
# 4 0.000000 0.000000 0.000000 0.031745 0.000000 0.000000
# 5 0.000000 0.000000 0.000000 0.000000 0.030327 0.000000
# 6 0.000000 0.000000 0.000000 0.000000 0.000000 0.053648
#
#
# Mechanical properties :
#
#
# Convention : Reuss Voigt Hill
#
# Bulk Modulus (GPa) = 38.59522 74.18782 56.39152
# Shear Modulus (GPa) = 21.49229 26.98757 24.23993
#
# Velocity S-wave (km/s) = 3.52127 3.94584 3.73959
# Velocity P-wave (km/s) = 6.22887 7.97245 7.15398
#
# Compressibility (1/GPa) = 0.02590995
#
# Stress axis : x y z
#
# Youngs Moduli (GPa) = 27.88083 49.05664 92.20345
#
# Poissons Ratio (x) = 0.20118 0.89175
# Poissons Ratio (y) = 0.11434 0.62892
# Poissons Ratio (z) = 0.26965 0.33462
#
# Static dielectric constant tensor:
#      x y z
#    x 2.856340 0.000000 0.000000 
#    y 0.000000 3.152630 0.000000 
#    z 0.000000 0.000000 3.612320 
# 
# 
# High freq. dielectric constant tensor:
#      x y z
#    x 1.621490 0.000000 0.000000 
#    y 0.000000 1.664700 0.000000 
#    z 0.000000 0.000000 1.692490 
# 
# From -- ./inp_files/31698.got.cif
#   From: 2010.06.25/outbox.cif.g09.slc.cpg/sg71_16_cif.got.tgz:31698.got - 2010.06.28 04:59:45.
