data_PCOD8287411
_publ_section_title
;
Structure prediction by ZEFSAII (Michael W. Deem and Ramdas Pophale) SiO2 
 PCOD8287411
Probable space group: I M M M
;
_chemical_formula_sum "Si O2"
_cell_formula_units_Z 96
_cell_length_a 9.156441
_cell_length_b 28.471541
_cell_length_c 20.860722
_cell_angle_alpha 90.000000
_cell_angle_beta 90.000000
_cell_angle_gamma 90.000000
_cell_volume 5438.348198
_symmetry_space_group_name_H-M "I M M M"
_symmetry_group_IT_number 71
_symmetry_cell_setting 'orthorhombic'
loop_
_space_group_symop_operation_xyz
x,y,z
-x,-y,z
x,-y,-z
-x,y,-z
-x,-y,-z
x,y,-z
-x,y,z
x,-y,z
1/2+x,1/2+y,1/2+z
1/2-x,1/2-y,1/2+z
1/2+x,1/2-y,1/2-z
1/2-x,1/2+y,1/2-z
1/2-x,1/2-y,1/2-z
1/2+x,1/2+y,1/2-z
1/2-x,1/2+y,1/2+z
1/2+x,1/2-y,1/2+z
loop_
_atom_site_type_symbol
_atom_site_label
_atom_site_fract_x
_atom_site_fract_y
_atom_site_fract_z
Si Si1 0.673300 0.299016 0.071352
Si Si2 0.670991 0.194816 0.074548
Si Si3 0.325960 0.446610 0.250677
Si Si4 0.673879 0.394450 0.125302
Si Si5 0.173652 0.052344 0.000000
Si Si6 0.826695 0.892162 0.123746
Si Si7 0.174046 0.052735 0.500000
O O1 0.500000 0.299800 0.066420
O O2 0.722125 0.247357 0.095046
O O3 0.726767 0.339990 0.119905
O O4 0.736037 0.308983 0.000000
O O5 0.500000 0.187640 0.086095
O O6 0.758192 0.159589 0.120503
O O7 0.710465 0.186183 0.000000
O O8 0.500000 0.447756 0.249443
O O9 0.265658 0.500000 0.250964
O O10 0.262597 0.418778 0.189140
O O11 0.270277 0.419210 0.313393
O O12 0.500000 0.397115 0.127155
O O13 0.734425 0.421853 0.063394
O O14 0.231107 0.078678 0.062889
O O15 0.000000 0.050494 0.000000
O O16 0.238969 0.000000 0.000000
O O17 0.000000 0.887078 0.123814
O O18 0.000000 0.053775 0.500000
O O19 0.234263 0.000000 0.500000
#
# Coordination Sequence:
#
# PCOD8287411 Si02
#       7
#    16  16  16  16   8  16   8
#     4   8  13  23  39  59  82 112 147 179 216 262
#     4   9  17  29  46  66  88 113 145 187 228 261
#     4   9  17  27  39  58  86 118 148 180 220 263
#     4   9  14  22  36  56  83 114 148 181 213 257
#     4   9  16  26  42  61  79 105 145 185 214 251
#     4  10  18  29  45  65  88 116 150 183 219 265
#     4   9  14  18  29  52  82 114 145 177 214 257
#
# _framework density 17.652418999999998
#
# number of rings (size 3 to 8) (size 9 to 14) (size 15 to 20)
#    0.000    3.000    1.667    2.000    0.000    4.000 
#    0.000    0.833    0.000    2.500    0.000    0.000 
#    0.000    0.000    0.000    0.167    0.000    4.750 
#
# Total GULP energy -594918.545043 kJ/mol
# GULP energy per Si atom -12394.136355 kJ/mol
# Density = 1.761224 g / cm^3
# Si number density = 17.652419 Si / 1000 Ang^3
#
#
#
# Elastic Constant Matrix: (Units=GPa)
#
#
# Indices 1 2 3 4 5 6 
#
# 1 9.1635 18.5154 13.1890 0.0000 0.0000 0.0000
# 2 18.5154 191.9901 94.2471 0.0000 0.0000 0.0000
# 3 13.1890 94.2471 148.1401 -0.0002 0.0000 0.0000
# 4 0.0000 0.0000 -0.0002 36.1204 0.0000 0.0000
# 5 0.0000 0.0000 0.0000 0.0000 7.1233 0.0000
# 6 0.0000 0.0000 0.0000 0.0000 0.0000 17.1634
#
#
#
# Elastic Compliance Matrix: (Units=1/GPa)
#
#
# Indices 1 2 3 4 5 6 
#
# 1 0.138641 -0.010631 -0.005579 0.000000 0.000000 0.000000
# 2 -0.010631 0.008389 -0.004391 0.000000 0.000000 0.000000
# 3 -0.005579 -0.004391 0.010041 0.000000 0.000000 0.000000
# 4 0.000000 0.000000 0.000000 0.027685 0.000000 0.000000
# 5 0.000000 0.000000 0.000000 0.000000 0.140384 0.000000
# 6 0.000000 0.000000 0.000000 0.000000 0.000000 0.058263
#
#
# Mechanical properties :
#
#
# Convention : Reuss Voigt Hill
#
# Bulk Modulus (GPa) = 8.63057 66.79962 37.71510
# Shear Modulus (GPa) = 10.79380 26.97091 18.88235
#
# Velocity S-wave (km/s) = 2.47546 3.91306 3.27414
# Velocity P-wave (km/s) = 3.61529 7.63805 5.97537
#
# Compressibility (1/GPa) = 0.11586718
#
# Stress axis : x y z
#
# Youngs Moduli (GPa) = 7.21289 119.19935 99.59633
#
# Poissons Ratio (x) = 1.26726 0.55569
# Poissons Ratio (y) = 0.07668 0.43731
# Poissons Ratio (z) = 0.04024 0.52338
#
# Static dielectric constant tensor:
#      x y z
#    x 2.515470 0.000000 0.000000 
#    y 0.000000 3.650970 0.000000 
#    z 0.000000 0.000000 3.338230 
# 
# 
# High freq. dielectric constant tensor:
#      x y z
#    x 1.600460 0.000000 0.000000 
#    y 0.000000 1.704650 0.000000 
#    z 0.000000 0.000000 1.672940 
# 
# From -- ./inp_files/52305.got.cif
#   From: 2010.06.25/outbox.cif.g09.slc.cpg/sg71_27_cif.got.tgz:52305.got - 2010.06.28 04:59:45.
