data_PCOD8287661
_publ_section_title
;
Structure prediction by ZEFSAII (Michael W. Deem and Ramdas Pophale) SiO2 
 PCOD8287661
Probable space group: I M M M
;
_chemical_formula_sum "Si O2"
_cell_formula_units_Z 96
_cell_length_a 9.938704
_cell_length_b 20.019071
_cell_length_c 28.506663
_cell_angle_alpha 90.000000
_cell_angle_beta 90.000000
_cell_angle_gamma 90.000000
_cell_volume 5671.788894
_symmetry_space_group_name_H-M "I M M M"
_symmetry_group_IT_number 71
_symmetry_cell_setting 'orthorhombic'
loop_
_space_group_symop_operation_xyz
x,y,z
-x,-y,z
x,-y,-z
-x,y,-z
-x,-y,-z
x,y,-z
-x,y,z
x,-y,z
1/2+x,1/2+y,1/2+z
1/2-x,1/2-y,1/2+z
1/2+x,1/2-y,1/2-z
1/2-x,1/2+y,1/2-z
1/2-x,1/2-y,1/2-z
1/2+x,1/2+y,1/2-z
1/2-x,1/2+y,1/2+z
1/2+x,1/2-y,1/2+z
loop_
_atom_site_type_symbol
_atom_site_label
_atom_site_fract_x
_atom_site_fract_y
_atom_site_fract_z
Si Si1 0.343817 0.681554 0.092964
Si Si2 0.151695 0.188772 0.700728
Si Si3 0.352631 0.073590 0.555106
Si Si4 0.345347 0.842963 0.779148
Si Si5 0.839905 0.677082 0.446856
Si Si6 0.839881 0.575444 0.369341
O O1 0.500000 0.674417 0.079969
O O2 0.317895 0.670073 0.147606
O O3 0.263695 0.624383 0.067306
O O4 0.289625 0.753166 0.075150
O O5 0.253089 0.146573 0.733328
O O6 0.172902 0.267753 0.703650
O O7 0.000000 0.169629 0.715444
O O8 0.360756 0.068752 0.500000
O O9 0.500000 0.096518 0.574395
O O10 0.317778 0.000000 0.575608
O O11 0.500000 0.858768 0.765992
O O12 0.292653 0.891188 0.820533
O O13 0.784477 0.668405 0.500000
O O14 0.784009 0.617193 0.413967
O O15 0.000000 0.675440 0.446911
O O16 0.783400 0.500000 0.372305
O O17 0.000000 0.576139 0.370661
#
# Coordination Sequence:
#
# PCOD8287661 Si02
#       6
#    16  16  16  16  16  16
#     4  10  18  30  49  74 100 127 160 200 242 287
#     4   9  17  29  47  69  95 122 153 197 243 282
#     4   9  19  35  51  68  95 129 161 196 240 289
#     4   9  16  29  47  68  93 122 159 197 234 282
#     4   9  16  26  42  67  98 128 160 200 242 282
#     4   9  16  27  44  66  95 130 164 199 240 286
#
# _framework density 16.925877
#
# number of rings (size 3 to 8) (size 9 to 14) (size 15 to 20)
#    0.000    2.833    1.667    1.000    0.000    2.333 
#    0.000    3.333    0.000    3.500    0.000    0.000 
#    0.000    0.000    0.000    5.000    0.000    5.000 
#
# Total GULP energy -594974.331580 kJ/mol
# GULP energy per Si atom -12395.298575 kJ/mol
# Density = 1.688735 g / cm^3
# Si number density = 16.925877 Si / 1000 Ang^3
#
#
#
# Elastic Constant Matrix: (Units=GPa)
#
#
# Indices 1 2 3 4 5 6 
#
# 1 46.4801 38.5547 44.9805 0.0000 0.0000 0.0000
# 2 38.5547 109.8496 68.8224 0.0000 0.0000 0.0000
# 3 44.9805 68.8224 97.1126 0.0000 0.0000 0.0000
# 4 0.0000 0.0000 0.0000 27.1956 0.0000 0.0000
# 5 0.0000 0.0000 0.0000 0.0000 24.5549 0.0000
# 6 0.0000 0.0000 0.0000 0.0000 0.0000 13.7056
#
#
#
# Elastic Compliance Matrix: (Units=1/GPa)
#
#
# Indices 1 2 3 4 5 6 
#
# 1 0.040135 -0.004388 -0.015480 0.000000 0.000000 0.000000
# 2 -0.004388 0.016853 -0.009911 0.000000 0.000000 0.000000
# 3 -0.015480 -0.009911 0.024491 0.000000 0.000000 0.000000
# 4 0.000000 0.000000 0.000000 0.036771 0.000000 0.000000
# 5 0.000000 0.000000 0.000000 0.000000 0.040725 0.000000
# 6 0.000000 0.000000 0.000000 0.000000 0.000000 0.072963
#
#
# Mechanical properties :
#
#
# Convention : Reuss Voigt Hill
#
# Bulk Modulus (GPa) = 45.61830 62.01750 53.81790
# Shear Modulus (GPa) = 16.73349 19.83019 18.28184
#
# Velocity S-wave (km/s) = 3.14767 3.42656 3.29007
# Velocity P-wave (km/s) = 6.34198 7.23708 6.80426
#
# Compressibility (1/GPa) = 0.02192103
#
# Stress axis : x y z
#
# Youngs Moduli (GPa) = 24.91595 59.33738 40.83138
#
# Poissons Ratio (x) = 0.26038 0.63206
# Poissons Ratio (y) = 0.10933 0.40467
# Poissons Ratio (z) = 0.38570 0.58808
#
# Static dielectric constant tensor:
#      x y z
#    x 2.929050 0.000000 0.000000 
#    y 0.000000 3.226190 0.000000 
#    z 0.000000 0.000000 3.287630 
# 
# 
# High freq. dielectric constant tensor:
#      x y z
#    x 1.613890 0.000000 0.000000 
#    y 0.000000 1.644410 0.000000 
#    z 0.000000 0.000000 1.657430 
# 
# From -- ./inp_files/14823.got.cif
#   From: 2010.06.25/outbox.cif.g09.slc.cpg/sg71_8_cif.got.tgz:14823.got - 2010.06.28 04:59:45.
