data_PCOD8287135
_publ_section_title
;
Structure prediction by ZEFSAII (Michael W. Deem and Ramdas Pophale) SiO2 
 PCOD8287135
Probable space group: I M M M
;
_chemical_formula_sum "Si O2"
_cell_formula_units_Z 128
_cell_length_a 23.917543
_cell_length_b 17.528007
_cell_length_c 19.018149
_cell_angle_alpha 90.000000
_cell_angle_beta 90.000000
_cell_angle_gamma 90.000000
_cell_volume 7972.918910
_symmetry_space_group_name_H-M "I M M M"
_symmetry_group_IT_number 71
_symmetry_cell_setting 'orthorhombic'
loop_
_space_group_symop_operation_xyz
x,y,z
-x,-y,z
x,-y,-z
-x,y,-z
-x,-y,-z
x,y,-z
-x,y,z
x,-y,z
1/2+x,1/2+y,1/2+z
1/2-x,1/2-y,1/2+z
1/2+x,1/2-y,1/2-z
1/2-x,1/2+y,1/2-z
1/2-x,1/2-y,1/2-z
1/2+x,1/2+y,1/2-z
1/2-x,1/2+y,1/2+z
1/2+x,1/2-y,1/2+z
loop_
_atom_site_type_symbol
_atom_site_label
_atom_site_fract_x
_atom_site_fract_y
_atom_site_fract_z
Si Si1 0.224083 0.088722 0.684944
Si Si2 0.772138 0.672443 0.578926
Si Si3 0.657176 0.675813 0.922565
Si Si4 0.151208 0.644281 0.807243
Si Si5 0.063579 0.410280 0.919868
Si Si6 0.702673 0.705844 0.293543
Si Si7 0.630114 0.088087 0.846482
Si Si8 0.936043 0.715796 0.582179
O O1 0.183121 0.105936 0.620074
O O2 0.286646 0.118866 0.668761
O O3 0.193117 0.127771 0.751394
O O4 0.226922 0.000000 0.700207
O O5 0.756057 0.645391 0.500000
O O6 0.800158 0.754454 0.576499
O O7 0.717509 0.682339 0.626807
O O8 0.812275 0.610349 0.615249
O O9 0.599404 0.710804 0.891075
O O10 0.646401 0.642968 0.000000
O O11 0.106841 0.630070 0.868320
O O12 0.150198 0.736131 0.794346
O O13 0.134729 0.599570 0.737007
O O14 0.071193 0.500000 0.911731
O O15 0.000000 0.386894 0.900157
O O16 0.076746 0.385470 0.000000
O O17 0.750000 0.750000 0.250000
O O18 0.579608 0.138926 0.876322
O O19 0.616588 0.000000 0.861974
O O20 0.922469 0.701200 0.500000
O O21 0.000000 0.735304 0.596155
#
# Coordination Sequence:
#
# PCOD8287135 Si02
#       8
#    16  16  16  16  16  16  16  16
#     4  11  20  31  49  73 100 129 158 201 254 300
#     4  10  18  30  46  64  92 129 164 197 239 287
#     4   9  17  31  49  70  95 122 157 200 245 297
#     4  11  20  32  52  71  97 133 173 201 237 291
#     4   9  19  35  51  71 104 138 165 201 249 296
#     4  10  17  32  48  67  95 128 162 203 242 286
#     4  11  20  30  45  70 101 131 165 206 243 283
#     4   9  19  35  52  68  91 129 171 207 245 289
#
# _framework density 16.054345999999999
#
# number of rings (size 3 to 8) (size 9 to 14) (size 15 to 20)
#    0.000    2.000    5.000    3.375    0.000    3.000 
#    0.000    0.625    0.000    0.375    0.000    1.750 
#    0.000    0.000    0.000    1.375    0.000    0.000 
#
# Total GULP energy -793242.336190 kJ/mol
# GULP energy per Si atom -12394.411503 kJ/mol
# Density = 1.601781 g / cm^3
# Si number density = 16.054346 Si / 1000 Ang^3
#
#
#
# Elastic Constant Matrix: (Units=GPa)
#
#
# Indices 1 2 3 4 5 6 
#
# 1 65.1808 38.4308 36.9003 0.0000 0.0000 0.0000
# 2 38.4308 75.4397 31.2675 0.0000 0.0000 0.0000
# 3 36.9003 31.2675 99.3302 0.0000 0.0000 0.0000
# 4 0.0000 0.0000 0.0000 21.0567 0.0000 0.0000
# 5 0.0000 0.0000 0.0000 0.0000 24.6900 0.0000
# 6 0.0000 0.0000 0.0000 0.0000 0.0000 16.9612
#
#
#
# Elastic Compliance Matrix: (Units=1/GPa)
#
#
# Indices 1 2 3 4 5 6 
#
# 1 0.024685 -0.010091 -0.005994 0.000000 0.000000 0.000000
# 2 -0.010091 0.019369 -0.002349 0.000000 0.000000 0.000000
# 3 -0.005994 -0.002349 0.013033 0.000000 0.000000 0.000000
# 4 0.000000 0.000000 0.000000 0.047491 0.000000 0.000000
# 5 0.000000 0.000000 0.000000 0.000000 0.040502 0.000000
# 6 0.000000 0.000000 0.000000 0.000000 0.000000 0.058958
#
#
# Mechanical properties :
#
#
# Convention : Reuss Voigt Hill
#
# Bulk Modulus (GPa) = 49.45256 50.34977 49.90117
# Shear Modulus (GPa) = 20.19016 21.43171 20.81093
#
# Velocity S-wave (km/s) = 3.55013 3.65766 3.60430
# Velocity P-wave (km/s) = 6.90469 7.01912 6.96214
#
# Compressibility (1/GPa) = 0.02022140
#
# Stress axis : x y z
#
# Youngs Moduli (GPa) = 40.51099 51.62762 76.72620
#
# Poissons Ratio (x) = 0.52096 0.45988
# Poissons Ratio (y) = 0.40879 0.18020
# Poissons Ratio (z) = 0.24281 0.12125
#
# Static dielectric constant tensor:
#      x y z
#    x 2.936380 0.000000 0.000000 
#    y 0.000000 3.029200 0.000000 
#    z 0.000000 0.000000 3.340500 
# 
# 
# High freq. dielectric constant tensor:
#      x y z
#    x 1.585730 0.000000 0.000000 
#    y 0.000000 1.598570 0.000000 
#    z 0.000000 0.000000 1.626610 
# 
# From -- ./inp_files/48423.got.cif
#   From: 2010.06.25/outbox.cif.g09.slc.cpg/sg71_25_cif.got.tgz:48423.got - 2010.06.28 04:59:45.
