data_PCOD8287558
_publ_section_title
;
Structure prediction by ZEFSAII (Michael W. Deem and Ramdas Pophale) SiO2 
 PCOD8287558
Probable space group: I M M M
;
_chemical_formula_sum "Si O2"
_cell_formula_units_Z 80
_cell_length_a 18.960153
_cell_length_b 9.100691
_cell_length_c 32.558392
_cell_angle_alpha 90.000000
_cell_angle_beta 90.000000
_cell_angle_gamma 90.000000
_cell_volume 5617.966616
_symmetry_space_group_name_H-M "I M M M"
_symmetry_group_IT_number 71
_symmetry_cell_setting 'orthorhombic'
loop_
_space_group_symop_operation_xyz
x,y,z
-x,-y,z
x,-y,-z
-x,y,-z
-x,-y,-z
x,y,-z
-x,y,z
x,-y,z
1/2+x,1/2+y,1/2+z
1/2-x,1/2-y,1/2+z
1/2+x,1/2-y,1/2-z
1/2-x,1/2+y,1/2-z
1/2-x,1/2-y,1/2-z
1/2+x,1/2+y,1/2-z
1/2-x,1/2+y,1/2+z
1/2+x,1/2-y,1/2+z
loop_
_atom_site_type_symbol
_atom_site_label
_atom_site_fract_x
_atom_site_fract_y
_atom_site_fract_z
Si Si1 0.500000 0.333405 0.249915
Si Si2 0.000000 0.673072 0.666342
Si Si3 0.360960 0.174400 0.121078
Si Si4 0.772153 0.828786 0.313951
Si Si5 0.580859 0.329599 0.046988
Si Si6 0.653750 0.667834 0.270231
O O1 0.500000 0.500000 0.232482
O O2 0.500000 0.221284 0.212958
O O3 0.429843 0.306842 0.277010
O O4 0.931028 0.733546 0.643660
O O5 0.000000 0.500000 0.664940
O O6 0.294792 0.243064 0.145044
O O7 0.365717 0.233985 0.074611
O O8 0.353353 0.000000 0.120725
O O9 0.694329 0.773758 0.301469
O O10 0.826333 0.793128 0.276899
O O11 0.768740 0.000000 0.324080
O O12 0.500000 0.278709 0.053926
O O13 0.588919 0.500000 0.058484
O O14 0.602789 0.301912 0.000000
O O15 0.675751 0.500000 0.279475
#
# Coordination Sequence:
#
# PCOD8287558 Si02
#       6
#     8   8  16  16  16  16
#     4  10  18  30  46  61  79 108 143 178 216 254
#     4  10  20  28  37  59  84 107 140 179 215 248
#     4  11  20  30  43  61  84 110 142 180 217 252
#     4  10  19  30  44  60  81 110 141 174 213 254
#     4   9  18  31  45  61  82 109 141 176 213 253
#     4   9  18  30  43  60  82 107 138 176 215 253
#
# _framework density 14.240028000000001
#
# number of rings (size 3 to 8) (size 9 to 14) (size 15 to 20)
#    0.000    2.200    3.000    1.800    0.000    2.800 
#    0.000    1.000    0.000    0.000    0.000    0.000 
#    0.000    0.000    0.000    0.900    0.000   17.400 
#
# Total GULP energy -496028.755885 kJ/mol
# GULP energy per Si atom -12400.718897 kJ/mol
# Density = 1.420762 g / cm^3
# Si number density = 14.240028 Si / 1000 Ang^3
#
#
#
# Elastic Constant Matrix: (Units=GPa)
#
#
# Indices 1 2 3 4 5 6 
#
# 1 76.9145 30.6063 33.7269 0.0000 0.0000 0.0000
# 2 30.6063 60.9938 41.7606 0.0000 0.0000 0.0000
# 3 33.7269 41.7606 76.6102 0.0000 0.0000 0.0000
# 4 0.0000 0.0000 0.0000 25.1436 0.0000 0.0000
# 5 0.0000 0.0000 0.0000 0.0000 23.9465 0.0000
# 6 0.0000 0.0000 0.0000 0.0000 0.0000 19.8199
#
#
#
# Elastic Compliance Matrix: (Units=1/GPa)
#
#
# Indices 1 2 3 4 5 6 
#
# 1 0.017194 -0.005497 -0.004573 0.000000 0.000000 0.000000
# 2 -0.005497 0.027915 -0.012797 0.000000 0.000000 0.000000
# 3 -0.004573 -0.012797 0.022042 0.000000 0.000000 0.000000
# 4 0.000000 0.000000 0.000000 0.039772 0.000000 0.000000
# 5 0.000000 0.000000 0.000000 0.000000 0.041760 0.000000
# 6 0.000000 0.000000 0.000000 0.000000 0.000000 0.050454
#
#
# Mechanical properties :
#
#
# Convention : Reuss Voigt Hill
#
# Bulk Modulus (GPa) = 46.69048 47.41178 47.05113
# Shear Modulus (GPa) = 19.84060 21.01033 20.42546
#
# Velocity S-wave (km/s) = 3.73674 3.84531 3.79142
# Velocity P-wave (km/s) = 7.17475 7.28576 7.23047
#
# Compressibility (1/GPa) = 0.02141764
#
# Stress axis : x y z
#
# Youngs Moduli (GPa) = 58.15945 35.82336 45.36816
#
# Poissons Ratio (x) = 0.19691 0.20748
# Poissons Ratio (y) = 0.31969 0.58056
# Poissons Ratio (z) = 0.26598 0.45842
#
# Static dielectric constant tensor:
#      x y z
#    x 2.694400 0.000000 0.000000 
#    y 0.000000 2.770580 0.000000 
#    z 0.000000 0.000000 2.575130 
# 
# 
# High freq. dielectric constant tensor:
#      x y z
#    x 1.518430 0.000000 0.000000 
#    y 0.000000 1.553420 0.000000 
#    z 0.000000 0.000000 1.514420 
# 
# From -- ./inp_files/8670.got.cif
#   From: 2010.06.25/outbox.cif.g09.slc.cpg/sg71_5_cif.got.tgz:8670.got - 2010.06.28 04:59:45.
