data_PCOD8287407
_publ_section_title
;
Structure prediction by ZEFSAII (Michael W. Deem and Ramdas Pophale) SiO2 
 PCOD8287407
Probable space group: I M M M
;
_chemical_formula_sum "Si O2"
_cell_formula_units_Z 80
_cell_length_a 23.480982
_cell_length_b 8.659814
_cell_length_c 26.067167
_cell_angle_alpha 90.000000
_cell_angle_beta 90.000000
_cell_angle_gamma 90.000000
_cell_volume 5300.522154
_symmetry_space_group_name_H-M "I M M M"
_symmetry_group_IT_number 71
_symmetry_cell_setting 'orthorhombic'
loop_
_space_group_symop_operation_xyz
x,y,z
-x,-y,z
x,-y,-z
-x,y,-z
-x,-y,-z
x,y,-z
-x,y,z
x,-y,z
1/2+x,1/2+y,1/2+z
1/2-x,1/2-y,1/2+z
1/2+x,1/2-y,1/2-z
1/2-x,1/2+y,1/2-z
1/2-x,1/2-y,1/2-z
1/2+x,1/2+y,1/2-z
1/2-x,1/2+y,1/2+z
1/2+x,1/2-y,1/2+z
loop_
_atom_site_type_symbol
_atom_site_label
_atom_site_fract_x
_atom_site_fract_y
_atom_site_fract_z
Si Si1 0.000000 0.676245 0.293415
Si Si2 0.500000 0.318939 0.902458
Si Si3 0.784456 0.817243 0.202181
Si Si4 0.811020 0.182217 0.355558
Si Si5 0.377272 0.179316 0.760773
Si Si6 0.383883 0.822672 0.059526
O O1 0.000000 0.788404 0.341890
O O2 0.944957 0.707287 0.258012
O O3 0.000000 0.500000 0.313934
O O4 0.500000 0.500000 0.912171
O O5 0.445269 0.247278 0.929246
O O6 0.750000 0.750000 0.250000
O O7 0.752692 0.753181 0.151529
O O8 0.849088 0.755567 0.209726
O O9 0.784180 0.000000 0.201744
O O10 0.854390 0.243258 0.312629
O O11 0.834464 0.231567 0.410741
O O12 0.807125 0.000000 0.351430
O O13 0.361091 0.000000 0.762487
O O14 0.383964 0.000000 0.077504
O O15 0.369518 0.805949 0.000000
#
# Coordination Sequence:
#
# PCOD8287407 Si02
#       6
#     8   8  16  16  16  16
#     4  10  20  31  47  64  90 123 151 183 224 267
#     4  12  23  33  48  65  86 114 152 195 231 267
#     4  10  18  29  45  64  86 112 142 179 221 267
#     4  11  20  31  47  66  86 110 144 187 228 268
#     4  10  18  30  46  65  88 116 148 181 220 267
#     4  11  23  37  50  63  84 116 152 190 233 275
#
# _framework density 15.092852000000001
#
# number of rings (size 3 to 8) (size 9 to 14) (size 15 to 20)
#    0.000    1.400    2.000    8.400    0.000    3.600 
#    0.000    0.000    0.000    0.000    0.000    0.000 
#    0.000    0.000    0.000    0.900    0.000   17.400 
#
# Total GULP energy -495977.711985 kJ/mol
# GULP energy per Si atom -12399.442800 kJ/mol
# Density = 1.505850 g / cm^3
# Si number density = 15.092852 Si / 1000 Ang^3
#
#
#
# Elastic Constant Matrix: (Units=GPa)
#
#
# Indices 1 2 3 4 5 6 
#
# 1 96.7608 49.6299 46.6199 0.0000 0.0000 0.0000
# 2 49.6299 139.0515 35.0706 0.0000 0.0000 0.0000
# 3 46.6199 35.0706 53.6040 0.0000 0.0000 0.0000
# 4 0.0000 0.0000 0.0000 20.6599 0.0000 0.0000
# 5 0.0000 0.0000 0.0000 0.0000 16.4444 0.0000
# 6 0.0000 0.0000 0.0000 0.0000 0.0000 24.5697
#
#
#
# Elastic Compliance Matrix: (Units=1/GPa)
#
#
# Indices 1 2 3 4 5 6 
#
# 1 0.018845 -0.003105 -0.014359 0.000000 0.000000 0.000000
# 2 -0.003105 0.009124 -0.003269 0.000000 0.000000 0.000000
# 3 -0.014359 -0.003269 0.033282 0.000000 0.000000 0.000000
# 4 0.000000 0.000000 0.000000 0.048403 0.000000 0.000000
# 5 0.000000 0.000000 0.000000 0.000000 0.060811 0.000000
# 6 0.000000 0.000000 0.000000 0.000000 0.000000 0.040701
#
#
# Mechanical properties :
#
#
# Convention : Reuss Voigt Hill
#
# Bulk Modulus (GPa) = 50.54015 61.33965 55.93990
# Shear Modulus (GPa) = 19.28811 22.87453 21.08132
#
# Velocity S-wave (km/s) = 3.57874 3.89728 3.74140
# Velocity P-wave (km/s) = 7.11585 7.80906 7.47050
#
# Compressibility (1/GPa) = 0.01978625
#
# Stress axis : x y z
#
# Youngs Moduli (GPa) = 53.06360 109.59738 30.04615
#
# Poissons Ratio (x) = 0.34028 0.43142
# Poissons Ratio (y) = 0.16475 0.09823
# Poissons Ratio (z) = 0.76192 0.35831
#
# Static dielectric constant tensor:
#      x y z
#    x 3.308120 0.000000 0.000000 
#    y 0.000000 3.109910 0.000000 
#    z 0.000000 0.000000 2.789070 
# 
# 
# High freq. dielectric constant tensor:
#      x y z
#    x 1.572370 0.000000 0.000000 
#    y 0.000000 1.602790 0.000000 
#    z 0.000000 0.000000 1.532230 
# 
# From -- ./inp_files/61516.got.cif
#   From: 2010.06.25/outbox.cif.g09.slc.cpg/sg71_31_cif.got.tgz:61516.got - 2010.06.28 04:59:45.
