data_PCOD8287288
_publ_section_title
;
Structure prediction by ZEFSAII (Michael W. Deem and Ramdas Pophale) SiO2 
 PCOD8287288
Probable space group: I M M M
;
_chemical_formula_sum "Si O2"
_cell_formula_units_Z 96
_cell_length_a 23.376505
_cell_length_b 29.215558
_cell_length_c 9.047461
_cell_angle_alpha 90.000000
_cell_angle_beta 90.000000
_cell_angle_gamma 90.000000
_cell_volume 6179.032591
_symmetry_space_group_name_H-M "I M M M"
_symmetry_group_IT_number 71
_symmetry_cell_setting 'orthorhombic'
loop_
_space_group_symop_operation_xyz
x,y,z
-x,-y,z
x,-y,-z
-x,y,-z
-x,-y,-z
x,y,-z
-x,y,z
x,-y,z
1/2+x,1/2+y,1/2+z
1/2-x,1/2-y,1/2+z
1/2+x,1/2-y,1/2-z
1/2-x,1/2+y,1/2-z
1/2-x,1/2-y,1/2-z
1/2+x,1/2+y,1/2-z
1/2-x,1/2+y,1/2+z
1/2+x,1/2-y,1/2+z
loop_
_atom_site_type_symbol
_atom_site_label
_atom_site_fract_x
_atom_site_fract_y
_atom_site_fract_z
Si Si1 0.745162 0.408906 0.173533
Si Si2 0.275436 0.180860 0.827876
Si Si3 0.934935 0.176478 0.831097
Si Si4 0.889627 0.000000 0.166513
Si Si5 0.253566 0.500000 0.667538
Si Si6 0.612101 0.409671 0.172527
Si Si7 0.165950 0.759121 0.829342
O O1 0.780117 0.366689 0.240975
O O2 0.769175 0.455109 0.248075
O O3 0.678473 0.402095 0.211336
O O4 0.756238 0.411890 0.000000
O O5 0.214196 0.203357 0.793089
O O6 0.325465 0.214286 0.770526
O O7 0.284282 0.171321 0.000000
O O8 0.923728 0.133464 0.727106
O O9 0.894979 0.219120 0.786226
O O10 0.000000 0.192874 0.811245
O O11 0.921567 0.161936 0.000000
O O12 0.821592 0.000000 0.171115
O O13 0.912633 0.045182 0.248174
O O14 0.913224 0.000000 0.000000
O O15 0.230398 0.500000 0.500000
O O16 0.602493 0.416272 0.000000
O O17 0.169134 0.744254 0.000000
#
# Coordination Sequence:
#
# PCOD8287288 Si02
#       7
#    16  16  16   8   8  16  16
#     4  10  18  28  43  64  90 118 146 179 219 263
#     4  10  18  28  46  67  88 114 144 180 220 261
#     4  10  20  34  50  65  84 113 147 182 223 270
#     4   9  17  29  46  62  81 109 143 183 225 267
#     4   9  17  27  41  62  88 117 148 178 214 261
#     4  10  19  30  45  64  86 110 142 183 227 268
#     4   9  18  31  45  64  88 112 142 181 222 264
#
# _framework density 15.536412
#
# number of rings (size 3 to 8) (size 9 to 14) (size 15 to 20)
#    0.000    2.333    1.667    2.000    0.000    5.000 
#    0.000    0.417    0.000    2.500    0.000    0.000 
#    0.000    0.000    0.000    0.750    0.000   15.500 
#
# Total GULP energy -595322.944957 kJ/mol
# GULP energy per Si atom -12402.561353 kJ/mol
# Density = 1.550105 g / cm^3
# Si number density = 15.536412 Si / 1000 Ang^3
#
#
#
# Elastic Constant Matrix: (Units=GPa)
#
#
# Indices 1 2 3 4 5 6 
#
# 1 49.1137 43.5058 28.5329 0.0000 0.0000 0.0000
# 2 43.5058 123.8149 62.5182 0.0000 0.0000 0.0000
# 3 28.5329 62.5182 89.3922 0.0000 0.0000 0.0000
# 4 0.0000 0.0000 0.0000 34.0494 0.0000 0.0000
# 5 0.0000 0.0000 0.0000 0.0000 13.9703 0.0000
# 6 0.0000 0.0000 0.0000 0.0000 0.0000 15.4106
#
#
#
# Elastic Compliance Matrix: (Units=1/GPa)
#
#
# Indices 1 2 3 4 5 6 
#
# 1 0.030229 -0.008889 -0.003432 0.000000 0.000000 0.000000
# 2 -0.008889 0.015099 -0.007723 0.000000 0.000000 0.000000
# 3 -0.003432 -0.007723 0.017683 0.000000 0.000000 0.000000
# 4 0.000000 0.000000 0.000000 0.029369 0.000000 0.000000
# 5 0.000000 0.000000 0.000000 0.000000 0.071580 0.000000
# 6 0.000000 0.000000 0.000000 0.000000 0.000000 0.064890
#
#
# Mechanical properties :
#
#
# Convention : Reuss Voigt Hill
#
# Bulk Modulus (GPa) = 43.62260 59.04828 51.33544
# Shear Modulus (GPa) = 18.07797 21.20367 19.64082
#
# Velocity S-wave (km/s) = 3.41484 3.69829 3.55939
# Velocity P-wave (km/s) = 6.60960 7.50502 7.07150
#
# Compressibility (1/GPa) = 0.02292390
#
# Stress axis : x y z
#
# Youngs Moduli (GPa) = 33.08133 66.22777 56.55041
#
# Poissons Ratio (x) = 0.58867 0.19409
# Poissons Ratio (y) = 0.29405 0.43674
# Poissons Ratio (z) = 0.11354 0.51147
#
# Static dielectric constant tensor:
#      x y z
#    x 2.576220 0.000000 0.000000 
#    y 0.000000 3.000710 0.000000 
#    z 0.000000 0.000000 3.055110 
# 
# 
# High freq. dielectric constant tensor:
#      x y z
#    x 1.535550 0.000000 0.000000 
#    y 0.000000 1.597620 0.000000 
#    z 0.000000 0.000000 1.610750 
# 
# From -- ./inp_files/13202.got.cif
#   From: 2010.06.25/outbox.cif.g09.slc.cpg/sg71_7_cif.got.tgz:13202.got - 2010.06.28 04:59:45.
