data_PCOD8287834
_publ_section_title
;
Structure prediction by ZEFSAII (Michael W. Deem and Ramdas Pophale) SiO2 
 PCOD8287834
Probable space group: I M M M
;
_chemical_formula_sum "Si O2"
_cell_formula_units_Z 104
_cell_length_a 27.264357
_cell_length_b 9.476742
_cell_length_c 21.324066
_cell_angle_alpha 90.000000
_cell_angle_beta 90.000000
_cell_angle_gamma 90.000000
_cell_volume 5509.654109
_symmetry_space_group_name_H-M "I M M M"
_symmetry_group_IT_number 71
_symmetry_cell_setting 'orthorhombic'
loop_
_space_group_symop_operation_xyz
x,y,z
-x,-y,z
x,-y,-z
-x,y,-z
-x,-y,-z
x,y,-z
-x,y,z
x,-y,z
1/2+x,1/2+y,1/2+z
1/2-x,1/2-y,1/2+z
1/2+x,1/2-y,1/2-z
1/2-x,1/2+y,1/2-z
1/2-x,1/2-y,1/2-z
1/2+x,1/2+y,1/2-z
1/2-x,1/2+y,1/2+z
1/2+x,1/2-y,1/2+z
loop_
_atom_site_type_symbol
_atom_site_label
_atom_site_fract_x
_atom_site_fract_y
_atom_site_fract_z
Si Si1 0.215868 0.162814 0.072297
Si Si2 0.121390 0.667150 0.110789
Si Si3 0.553414 0.166529 0.500000
Si Si4 0.885169 0.662335 0.337781
Si Si5 0.722893 0.164426 0.805435
Si Si6 0.054060 0.336088 0.781078
Si Si7 0.054704 0.840811 0.426452
O O1 0.171765 0.257937 0.095923
O O2 0.258142 0.193039 0.123519
O O3 0.199878 0.000000 0.074506
O O4 0.231549 0.202173 0.000000
O O5 0.131623 0.500000 0.110840
O O6 0.082199 0.717439 0.060306
O O7 0.097329 0.724755 0.175049
O O8 0.500000 0.238275 0.500000
O O9 0.548044 0.000000 0.500000
O O10 0.879839 0.500000 0.357717
O O11 0.833865 0.712939 0.307391
O O12 0.929500 0.687764 0.289730
O O13 0.901034 0.749242 0.398450
O O14 0.750000 0.250000 0.750000
O O15 0.728093 0.000000 0.787637
O O16 0.049486 0.500000 0.797970
O O17 0.000000 0.266261 0.791145
O O18 0.062568 0.837092 0.500000
O O19 0.000000 0.782737 0.409788
O O20 0.059588 0.000000 0.401075
#
# Coordination Sequence:
#
# PCOD8287834 Si02
#       7
#    16  16   8  16  16  16  16
#     4  10  21  37  55  75 106 146 181 218 272 328
#     4  10  18  31  52  77 103 134 177 220 255 301
#     4   9  16  26  45  75 105 131 167 217 264 301
#     4  10  20  34  54  80 107 137 179 226 271 323
#     4  10  22  39  58  82 110 143 184 231 282 332
#     4   9  17  29  48  76 108 137 165 208 265 316
#     4   9  19  36  56  79 110 145 177 213 266 332
#
# _framework density 18.875958000000001
#
# number of rings (size 3 to 8) (size 9 to 14) (size 15 to 20)
#    0.000    2.385    0.769    2.308    0.000    6.154 
#    0.000    3.077    0.000    3.231    0.000    0.000 
#    0.000    0.000    0.000    0.000    0.000    0.000 
#
# Total GULP energy -644436.683622 kJ/mol
# GULP energy per Si atom -12393.013147 kJ/mol
# Density = 1.883300 g / cm^3
# Si number density = 18.875958 Si / 1000 Ang^3
#
#
#
# Elastic Constant Matrix: (Units=GPa)
#
#
# Indices 1 2 3 4 5 6 
#
# 1 110.1509 43.1844 47.1632 0.0000 0.0000 0.0000
# 2 43.1844 49.6542 37.3500 0.0000 0.0000 0.0000
# 3 47.1632 37.3500 93.1532 0.0000 0.0000 0.0000
# 4 0.0000 0.0000 0.0000 36.5876 0.0000 0.0000
# 5 0.0000 0.0000 0.0000 0.0000 34.9685 0.0000
# 6 0.0000 0.0000 0.0000 0.0000 0.0000 26.6834
#
#
#
# Elastic Compliance Matrix: (Units=1/GPa)
#
#
# Indices 1 2 3 4 5 6 
#
# 1 0.014434 -0.010103 -0.003257 0.000000 0.000000 0.000000
# 2 -0.010103 0.035908 -0.009282 0.000000 0.000000 0.000000
# 3 -0.003257 -0.009282 0.016106 0.000000 0.000000 0.000000
# 4 0.000000 0.000000 0.000000 0.027332 0.000000 0.000000
# 5 0.000000 0.000000 0.000000 0.000000 0.028597 0.000000
# 6 0.000000 0.000000 0.000000 0.000000 0.000000 0.037476
#
#
# Mechanical properties :
#
#
# Convention : Reuss Voigt Hill
#
# Bulk Modulus (GPa) = 47.25236 56.48372 51.86804
# Shear Modulus (GPa) = 23.56351 27.99863 25.78107
#
# Velocity S-wave (km/s) = 3.53701 3.85554 3.69970
# Velocity P-wave (km/s) = 6.46282 7.05754 6.76671
#
# Compressibility (1/GPa) = 0.02116296
#
# Stress axis : x y z
#
# Youngs Moduli (GPa) = 69.28101 27.84872 62.08998
#
# Poissons Ratio (x) = 0.28137 0.20222
# Poissons Ratio (y) = 0.69998 0.57633
# Poissons Ratio (z) = 0.22564 0.25850
#
# Static dielectric constant tensor:
#      x y z
#    x 3.701640 0.000000 0.000000 
#    y 0.000000 3.190360 0.000000 
#    z 0.000000 0.000000 3.583570 
# 
# 
# High freq. dielectric constant tensor:
#      x y z
#    x 1.741440 0.000000 0.000000 
#    y 0.000000 1.694990 0.000000 
#    z 0.000000 0.000000 1.745140 
# 
# From -- ./inp_files/56656.got.cif
#   From: 2010.06.25/outbox.cif.g09.slc.cpg/sg71_29_cif.got.tgz:56656.got - 2010.06.28 04:59:45.
