data_PCOD8287804
_publ_section_title
;
Structure prediction by ZEFSAII (Michael W. Deem and Ramdas Pophale) SiO2 
 PCOD8287804
Probable space group: I M M M
;
_chemical_formula_sum "Si O2"
_cell_formula_units_Z 80
_cell_length_a 15.967156
_cell_length_b 9.661165
_cell_length_c 27.921858
_cell_angle_alpha 90.000000
_cell_angle_beta 90.000000
_cell_angle_gamma 90.000000
_cell_volume 4307.262915
_symmetry_space_group_name_H-M "I M M M"
_symmetry_group_IT_number 71
_symmetry_cell_setting 'orthorhombic'
loop_
_space_group_symop_operation_xyz
x,y,z
-x,-y,z
x,-y,-z
-x,y,-z
-x,-y,-z
x,y,-z
-x,y,z
x,-y,z
1/2+x,1/2+y,1/2+z
1/2-x,1/2-y,1/2+z
1/2+x,1/2-y,1/2-z
1/2-x,1/2+y,1/2-z
1/2-x,1/2-y,1/2-z
1/2+x,1/2+y,1/2-z
1/2-x,1/2+y,1/2+z
1/2+x,1/2-y,1/2+z
loop_
_atom_site_type_symbol
_atom_site_label
_atom_site_fract_x
_atom_site_fract_y
_atom_site_fract_z
Si Si1 0.341007 0.839481 0.111721
Si Si2 0.000000 0.335195 0.446864
Si Si3 0.814444 0.842426 0.779495
Si Si4 0.593293 0.655281 0.188585
Si Si5 0.843398 0.160638 0.114445
Si Si6 0.000000 0.165634 0.054592
O O1 0.414718 0.780368 0.077930
O O2 0.342906 0.759743 0.162381
O O3 0.248018 0.815683 0.089456
O O4 0.356383 0.000000 0.122416
O O5 0.000000 0.500000 0.448056
O O6 0.000000 0.273174 0.500000
O O7 0.750000 0.750000 0.750000
O O8 0.896566 0.842294 0.745948
O O9 0.839941 0.778789 0.831280
O O10 0.779572 0.000000 0.786041
O O11 0.500000 0.704517 0.175970
O O12 0.609856 0.500000 0.169249
O O13 0.917390 0.225857 0.081957
O O14 0.864336 0.000000 0.118873
O O15 0.000000 0.000000 0.053686
O O16 0.000000 0.221771 0.000000
#
# Coordination Sequence:
#
# PCOD8287804 Si02
#       6
#    16   8  16  16  16   8
#     4  10  18  31  51  73  98 133 168 202 249 301
#     4   9  18  30  46  71  99 123 155 203 254 299
#     4  10  19  31  48  72 103 135 166 203 249 300
#     4  10  20  31  46  71 103 137 168 199 241 300
#     4   9  18  30  47  71 100 133 170 210 253 301
#     4   9  18  32  49  72 103 137 173 219 270 311
#
# _framework density 18.57328
#
# number of rings (size 3 to 8) (size 9 to 14) (size 15 to 20)
#    0.000    2.400    3.000    0.000    1.400    0.800 
#    0.000    4.000    0.000    1.200    0.000    2.100 
#    0.000    4.000    0.000    0.000    0.000    0.000 
#
# Total GULP energy -495619.102964 kJ/mol
# GULP energy per Si atom -12390.477574 kJ/mol
# Density = 1.853101 g / cm^3
# Si number density = 18.573280 Si / 1000 Ang^3
#
#
#
# Elastic Constant Matrix: (Units=GPa)
#
#
# Indices 1 2 3 4 5 6 
#
# 1 140.8502 25.2180 73.5342 0.0000 0.0000 0.0000
# 2 25.2180 32.0029 19.0933 0.0000 0.0000 0.0000
# 3 73.5342 19.0933 138.4060 0.0000 0.0000 0.0000
# 4 0.0000 0.0000 0.0000 16.9100 0.0000 0.0000
# 5 0.0000 0.0000 0.0000 0.0000 29.7561 0.0000
# 6 0.0000 0.0000 0.0000 0.0000 0.0000 14.3900
#
#
#
# Elastic Compliance Matrix: (Units=1/GPa)
#
#
# Indices 1 2 3 4 5 6 
#
# 1 0.010633 -0.005458 -0.004896 0.000000 0.000000 0.000000
# 2 -0.005458 0.036851 -0.002184 0.000000 0.000000 0.000000
# 3 -0.004896 -0.002184 0.010128 0.000000 0.000000 0.000000
# 4 0.000000 0.000000 0.000000 0.059137 0.000000 0.000000
# 5 0.000000 0.000000 0.000000 0.000000 0.033607 0.000000
# 6 0.000000 0.000000 0.000000 0.000000 0.000000 0.069493
#
#
# Mechanical properties :
#
#
# Convention : Reuss Voigt Hill
#
# Bulk Modulus (GPa) = 30.73553 60.77223 45.75388
# Shear Modulus (GPa) = 19.54889 25.10547 22.32718
#
# Velocity S-wave (km/s) = 3.24779 3.68053 3.47091
# Velocity P-wave (km/s) = 5.53609 7.13113 6.38363
#
# Compressibility (1/GPa) = 0.03253564
#
# Stress axis : x y z
#
# Youngs Moduli (GPa) = 94.04526 27.13650 98.73745
#
# Poissons Ratio (x) = 0.14810 0.48346
# Poissons Ratio (y) = 0.51326 0.21565
# Poissons Ratio (z) = 0.46049 0.05927
#
# Static dielectric constant tensor:
#      x y z
#    x 3.642760 0.000000 0.000000 
#    y 0.000000 2.947290 0.000000 
#    z 0.000000 0.000000 3.604560 
# 
# 
# High freq. dielectric constant tensor:
#      x y z
#    x 1.732590 0.000000 0.000000 
#    y 0.000000 1.663930 0.000000 
#    z 0.000000 0.000000 1.715370 
# 
# From -- ./inp_files/65289.got.cif
#   From: 2010.06.25/outbox.cif.g09.slc.cpg/sg71_33_cif.got.tgz:65289.got - 2010.06.28 04:59:45.
