data_PCOD8287777
_publ_section_title
;
Structure prediction by ZEFSAII (Michael W. Deem and Ramdas Pophale) SiO2 
 PCOD8287777
Probable space group: I M M M
;
_chemical_formula_sum "Si O2"
_cell_formula_units_Z 112
_cell_length_a 17.662687
_cell_length_b 25.387737
_cell_length_c 14.309845
_cell_angle_alpha 90.000000
_cell_angle_beta 90.000000
_cell_angle_gamma 90.000000
_cell_volume 6416.758480
_symmetry_space_group_name_H-M "I M M M"
_symmetry_group_IT_number 71
_symmetry_cell_setting 'orthorhombic'
loop_
_space_group_symop_operation_xyz
x,y,z
-x,-y,z
x,-y,-z
-x,y,-z
-x,-y,-z
x,y,-z
-x,y,z
x,-y,z
1/2+x,1/2+y,1/2+z
1/2-x,1/2-y,1/2+z
1/2+x,1/2-y,1/2-z
1/2-x,1/2+y,1/2-z
1/2-x,1/2-y,1/2-z
1/2+x,1/2+y,1/2-z
1/2-x,1/2+y,1/2+z
1/2+x,1/2-y,1/2+z
loop_
_atom_site_type_symbol
_atom_site_label
_atom_site_fract_x
_atom_site_fract_y
_atom_site_fract_z
Si Si1 0.082955 0.154770 0.393648
Si Si2 0.230761 0.211857 0.609781
Si Si3 0.913405 0.438263 0.894869
Si Si4 0.137614 0.940368 0.717487
Si Si5 0.290551 0.117080 0.280761
Si Si6 0.086381 0.110091 0.894580
Si Si7 0.265044 0.670590 0.392842
O O1 0.099201 0.139184 0.500000
O O2 0.144303 0.197855 0.360421
O O3 0.084726 0.100239 0.337408
O O4 0.000000 0.180320 0.380380
O O5 0.244179 0.207118 0.500000
O O6 0.284689 0.170467 0.660038
O O7 0.251173 0.270349 0.643595
O O8 0.904902 0.500000 0.878796
O O9 0.868591 0.409239 0.811988
O O10 0.000000 0.420581 0.884829
O O11 0.884286 0.423737 0.000000
O O12 0.224175 0.924522 0.697403
O O13 0.113108 0.936734 0.826329
O O14 0.124690 0.000000 0.682991
O O15 0.286375 0.131631 0.170462
O O16 0.145096 0.158683 0.879894
O O17 0.000000 0.129058 0.873647
O O18 0.092525 0.088201 0.000000
O O19 0.239011 0.662985 0.500000
#
# Coordination Sequence:
#
# PCOD8287777 Si02
#       7
#    16  16  16  16  16  16  16
#     4   9  18  31  45  63  90 122 153 187 229 276
#     4   9  17  30  48  69  93 123 159 199 241 285
#     4   9  18  33  53  76 101 127 153 187 238 295
#     4  10  20  31  45  67  92 120 156 193 227 269
#     4  10  18  31  50  71  95 124 158 195 235 282
#     4   9  18  32  48  66  91 123 157 194 236 279
#     4   9  18  32  49  69  95 127 162 199 239 283
#
# _framework density 17.454297
#
# number of rings (size 3 to 8) (size 9 to 14) (size 15 to 20)
#    0.000    2.714    0.000    2.143    0.000    2.286 
#    0.000    2.857    0.000    5.143    0.000    1.000 
#    0.000    0.000    0.000    0.000    0.000    0.000 
#
# Total GULP energy -694090.979627 kJ/mol
# GULP energy per Si atom -12394.481779 kJ/mol
# Density = 1.741457 g / cm^3
# Si number density = 17.454297 Si / 1000 Ang^3
#
#
#
# Elastic Constant Matrix: (Units=GPa)
#
#
# Indices 1 2 3 4 5 6 
#
# 1 91.2479 41.4030 36.6645 0.0000 0.0000 0.0000
# 2 41.4030 73.4498 22.3888 0.0001 0.0000 0.0000
# 3 36.6645 22.3888 57.7062 0.0003 0.0001 0.0000
# 4 0.0000 0.0001 0.0003 24.6307 0.0001 0.0000
# 5 0.0000 0.0000 0.0001 0.0001 25.7338 0.0000
# 6 0.0000 0.0000 0.0000 0.0000 0.0000 18.2266
#
#
#
# Elastic Compliance Matrix: (Units=1/GPa)
#
#
# Indices 1 2 3 4 5 6 
#
# 1 0.017684 -0.007421 -0.008357 0.000000 0.000000 0.000000
# 2 -0.007421 0.018555 -0.002484 0.000000 0.000000 0.000000
# 3 -0.008357 -0.002484 0.023602 0.000000 0.000000 0.000000
# 4 0.000000 0.000000 0.000000 0.040600 0.000000 0.000000
# 5 0.000000 0.000000 0.000000 0.000000 0.038859 0.000000
# 6 0.000000 0.000000 0.000000 0.000000 0.000000 0.054865
#
#
# Mechanical properties :
#
#
# Convention : Reuss Voigt Hill
#
# Bulk Modulus (GPa) = 42.88470 47.03516 44.95993
# Shear Modulus (GPa) = 20.96769 21.84805 21.40787
#
# Velocity S-wave (km/s) = 3.46972 3.54182 3.50596
# Velocity P-wave (km/s) = 6.37770 6.61302 6.49643
#
# Compressibility (1/GPa) = 0.02331834
#
# Stress axis : x y z
#
# Youngs Moduli (GPa) = 56.54731 53.89346 42.36856
#
# Poissons Ratio (x) = 0.39996 0.35406
# Poissons Ratio (y) = 0.41965 0.10524
# Poissons Ratio (z) = 0.47255 0.13386
#
# Static dielectric constant tensor:
#      x y z
#    x 3.240310 0.000000 0.000000 
#    y 0.000000 3.077440 0.000000 
#    z 0.000000 0.000000 3.408390 
# 
# 
# High freq. dielectric constant tensor:
#      x y z
#    x 1.663740 0.000000 0.000000 
#    y 0.000000 1.654070 0.000000 
#    z 0.000000 0.000000 1.684160 
# 
# From -- ./inp_files/34906.got.cif
#   From: 2010.06.25/outbox.cif.g09.slc.cpg/sg71_18_cif.got.tgz:34906.got - 2010.06.28 04:59:45.
