data_PCOD8287712
_publ_section_title
;
Structure prediction by ZEFSAII (Michael W. Deem and Ramdas Pophale) SiO2 
 PCOD8287712
Probable space group: I M M M
;
_chemical_formula_sum "Si O2"
_cell_formula_units_Z 80
_cell_length_a 25.700748
_cell_length_b 8.942434
_cell_length_c 18.939311
_cell_angle_alpha 90.000000
_cell_angle_beta 90.000000
_cell_angle_gamma 90.000000
_cell_volume 4352.769627
_symmetry_space_group_name_H-M "I M M M"
_symmetry_group_IT_number 71
_symmetry_cell_setting 'orthorhombic'
loop_
_space_group_symop_operation_xyz
x,y,z
-x,-y,z
x,-y,-z
-x,y,-z
-x,-y,-z
x,y,-z
-x,y,z
x,-y,z
1/2+x,1/2+y,1/2+z
1/2-x,1/2-y,1/2+z
1/2+x,1/2-y,1/2-z
1/2-x,1/2+y,1/2-z
1/2-x,1/2-y,1/2-z
1/2+x,1/2+y,1/2-z
1/2-x,1/2+y,1/2+z
1/2+x,1/2-y,1/2+z
loop_
_atom_site_type_symbol
_atom_site_label
_atom_site_fract_x
_atom_site_fract_y
_atom_site_fract_z
Si Si1 0.301981 0.173177 0.919068
Si Si2 0.500000 0.174967 0.671514
Si Si3 0.604540 0.326507 0.666195
Si Si4 0.196095 0.673593 0.917623
Si Si5 0.112564 0.831660 0.332219
Si Si6 0.000000 0.830482 0.684540
O O1 0.252428 0.267473 0.893481
O O2 0.351376 0.214739 0.871934
O O3 0.288885 0.000000 0.908371
O O4 0.315682 0.210345 0.000000
O O5 0.552137 0.246351 0.638109
O O6 0.500000 0.207049 0.754699
O O7 0.500000 0.000000 0.655997
O O8 0.599460 0.500000 0.648745
O O9 0.653181 0.261297 0.625314
O O10 0.613132 0.297596 0.749072
O O11 0.192531 0.500000 0.898990
O O12 0.187433 0.705436 0.000000
O O13 0.052940 0.811280 0.360784
O O14 0.132198 0.000000 0.347713
O O15 0.000000 0.000000 0.718371
#
# Coordination Sequence:
#
# PCOD8287712 Si02
#       6
#    16   8  16  16  16   8
#     4  10  21  36  53  74 102 137 174 212 258 310
#     4  10  18  30  51  78 107 138 171 208 253 302
#     4  10  20  35  55  79 107 137 171 211 255 305
#     4  10  21  37  56  77 102 134 172 213 258 308
#     4   9  18  33  54  78 103 134 172 213 254 300
#     4   8  16  32  51  74 105 137 171 210 255 307
#
# _framework density 18.379102
#
# number of rings (size 3 to 8) (size 9 to 14) (size 15 to 20)
#    0.000    2.400    0.000    3.900    0.000    7.200 
#    0.000    1.000    0.000    6.000    0.000    0.000 
#    0.000    0.000    0.000    0.000    0.000    0.000 
#
# Total GULP energy -495967.742655 kJ/mol
# GULP energy per Si atom -12399.193566 kJ/mol
# Density = 1.833727 g / cm^3
# Si number density = 18.379102 Si / 1000 Ang^3
#
#
#
# Elastic Constant Matrix: (Units=GPa)
#
#
# Indices 1 2 3 4 5 6 
#
# 1 151.4283 67.7987 51.7971 0.0000 0.0000 0.0000
# 2 67.7987 114.9522 38.8374 0.0000 0.0000 0.0000
# 3 51.7971 38.8374 41.3037 0.0000 0.0000 0.0000
# 4 0.0000 0.0000 0.0000 27.0277 0.0000 0.0000
# 5 0.0000 0.0000 0.0000 0.0000 -172.8108 0.0000
# 6 0.0000 0.0000 0.0000 0.0000 0.0000 39.7766
#
#
#
# Elastic Compliance Matrix: (Units=1/GPa)
#
#
# Indices 1 2 3 4 5 6 
#
# 1 0.012221 -0.002975 -0.012529 0.000000 0.000000 0.000000
# 2 -0.002975 0.013474 -0.008938 0.000000 0.000000 0.000000
# 3 -0.012529 -0.008938 0.048327 0.000000 0.000000 0.000000
# 4 0.000000 0.000000 0.000000 0.036999 0.000000 0.000000
# 5 0.000000 0.000000 0.000000 0.000000 -0.005787 0.000000
# 6 0.000000 0.000000 0.000000 0.000000 0.000000 0.025140
#
#
# Mechanical properties :
#
#
# Convention : Reuss Voigt Hill
#
# Bulk Modulus (GPa) = 39.78037 69.39452 54.58744
# Shear Modulus (GPa) = 26.64689 -11.25123 7.69783
#
# Velocity S-wave (km/s) = 3.81182 -2.47690 2.04877
# Velocity P-wave (km/s) = 6.40817 5.44603 5.94659
#
# Compressibility (1/GPa) = 0.02513803
#
# Stress axis : x y z
#
# Youngs Moduli (GPa) = 81.82345 74.21746 20.69229
#
# Poissons Ratio (x) = 0.22082 0.25925
# Poissons Ratio (y) = 0.24345 0.18495
# Poissons Ratio (z) = 1.02515 0.66337
#
# Static dielectric constant tensor:
#      x y z
#    x 3.633450 0.000000 0.000000 
#    y 0.000000 3.407880 0.000000 
#    z 0.000000 0.000000 3.047310 
# 
# 
# High freq. dielectric constant tensor:
#      x y z
#    x 1.731920 0.000000 0.000000 
#    y 0.000000 1.723080 0.000000 
#    z 0.000000 0.000000 1.674360 
# 
# From -- ./inp_files/10225.got.cif
#   From: 2010.06.25/outbox.cif.g09.slc.cpg/sg71_6_cif.got.tgz:10225.got - 2010.06.28 04:59:45.
