data_PCOD8287503
_publ_section_title
;
Structure prediction by ZEFSAII (Michael W. Deem and Ramdas Pophale) SiO2 
 PCOD8287503
Probable space group: I M M M
;
_chemical_formula_sum "Si O2"
_cell_formula_units_Z 120
_cell_length_a 12.840768
_cell_length_b 20.595893
_cell_length_c 26.948822
_cell_angle_alpha 90.000000
_cell_angle_beta 90.000000
_cell_angle_gamma 90.000000
_cell_volume 7127.076365
_symmetry_space_group_name_H-M "I M M M"
_symmetry_group_IT_number 71
_symmetry_cell_setting 'orthorhombic'
loop_
_space_group_symop_operation_xyz
x,y,z
-x,-y,z
x,-y,-z
-x,y,-z
-x,-y,-z
x,y,-z
-x,y,z
x,-y,z
1/2+x,1/2+y,1/2+z
1/2-x,1/2-y,1/2+z
1/2+x,1/2-y,1/2-z
1/2-x,1/2+y,1/2-z
1/2-x,1/2-y,1/2-z
1/2+x,1/2+y,1/2-z
1/2-x,1/2+y,1/2+z
1/2+x,1/2-y,1/2+z
loop_
_atom_site_type_symbol
_atom_site_label
_atom_site_fract_x
_atom_site_fract_y
_atom_site_fract_z
Si Si1 0.117352 0.701540 0.602182
Si Si2 0.825668 0.323772 0.710097
Si Si3 0.114596 0.233569 0.800817
Si Si4 0.876502 0.570648 0.443372
Si Si5 0.122524 0.429142 0.779207
Si Si6 0.380624 0.152821 0.627975
Si Si7 0.193823 0.164564 0.559090
Si Si8 0.000000 0.074813 0.558730
O O1 0.115200 0.701128 0.661607
O O2 0.170503 0.633087 0.585390
O O3 0.176107 0.763254 0.579930
O O4 0.000000 0.706001 0.581792
O O5 0.868644 0.280509 0.754492
O O6 0.701710 0.321497 0.700806
O O7 0.848812 0.397276 0.726174
O O8 0.124034 0.273293 0.852241
O O9 0.000000 0.201625 0.797203
O O10 0.841749 0.577794 0.500000
O O11 0.836073 0.500000 0.423031
O O12 0.000000 0.571645 0.438078
O O13 0.173769 0.500000 0.779237
O O14 0.164451 0.391378 0.827392
O O15 0.000000 0.432534 0.783889
O O16 0.500000 0.134986 0.612904
O O17 0.304800 0.141360 0.581142
O O18 0.202183 0.166727 0.500000
O O19 0.102665 0.114702 0.576442
O O20 0.000000 0.071647 0.500000
O O21 0.000000 0.000000 0.579561
#
# Coordination Sequence:
#
# PCOD8287503 Si02
#       8
#    16  16  16  16  16  16  16   8
#     4  11  19  28  45  74 105 132 167 208 250 299
#     4  10  18  29  48  73  97 126 159 196 236 292
#     4   9  17  31  49  68  94 126 158 192 239 297
#     4   8  15  27  41  59  91 134 166 190 233 293
#     4   9  18  33  52  74 101 131 162 199 250 312
#     4   9  18  34  53  73  97 130 168 209 263 310
#     4  11  21  33  51  75 101 133 175 221 264 307
#     4   9  20  38  54  68  95 137 175 209 258 316
#
# _framework density 16.837198999999998
#
# number of rings (size 3 to 8) (size 9 to 14) (size 15 to 20)
#    0.000    2.467    2.000    2.800    0.000    1.867 
#    0.000    1.333    0.000    0.400    0.000    3.733 
#    0.000    0.533    0.000    4.533    0.000    0.533 
#
# Total GULP energy -743481.294101 kJ/mol
# GULP energy per Si atom -12391.354902 kJ/mol
# Density = 1.679888 g / cm^3
# Si number density = 16.837199 Si / 1000 Ang^3
#
#
#
# Elastic Constant Matrix: (Units=GPa)
#
#
# Indices 1 2 3 4 5 6 
#
# 1 72.4451 21.5568 26.5444 0.0000 0.0000 0.0000
# 2 21.5568 98.0782 29.0462 0.0000 0.0000 0.0000
# 3 26.5444 29.0462 75.3323 0.0000 0.0000 0.0000
# 4 0.0000 0.0000 0.0000 14.1041 0.0000 0.0000
# 5 0.0000 0.0000 0.0000 0.0000 24.9135 0.0000
# 6 0.0000 0.0000 0.0000 0.0000 0.0000 12.7011
#
#
#
# Elastic Compliance Matrix: (Units=1/GPa)
#
#
# Indices 1 2 3 4 5 6 
#
# 1 0.016229 -0.002115 -0.004903 0.000000 0.000000 0.000000
# 2 -0.002115 0.011786 -0.003799 0.000000 0.000000 0.000000
# 3 -0.004903 -0.003799 0.016467 0.000000 0.000000 0.000000
# 4 0.000000 0.000000 0.000000 0.070901 0.000000 0.000000
# 5 0.000000 0.000000 0.000000 0.000000 0.040139 0.000000
# 6 0.000000 0.000000 0.000000 0.000000 0.000000 0.078733
#
#
# Mechanical properties :
#
#
# Convention : Reuss Voigt Hill
#
# Bulk Modulus (GPa) = 43.76778 44.46115 44.11447
# Shear Modulus (GPa) = 18.97485 21.59094 20.28290
#
# Velocity S-wave (km/s) = 3.36066 3.58486 3.47457
# Velocity P-wave (km/s) = 6.41170 6.60294 6.50802
#
# Compressibility (1/GPa) = 0.02284786
#
# Stress axis : x y z
#
# Youngs Moduli (GPa) = 61.61636 84.84696 60.72730
#
# Poissons Ratio (x) = 0.17945 0.29776
# Poissons Ratio (y) = 0.13032 0.23071
# Poissons Ratio (z) = 0.30212 0.32234
#
# Static dielectric constant tensor:
#      x y z
#    x 3.038070 0.000000 0.000000 
#    y 0.000000 3.574750 0.000000 
#    z 0.000000 0.000000 3.082250 
# 
# 
# High freq. dielectric constant tensor:
#      x y z
#    x 1.623170 0.000000 0.000000 
#    y 0.000000 1.641620 0.000000 
#    z 0.000000 0.000000 1.639550 
# 
# From -- ./inp_files/60217.got.cif
#   From: 2010.06.25/outbox.cif.g09.slc.cpg/sg71_31_cif.got.tgz:60217.got - 2010.06.28 04:59:45.
