data_PCOD8287695
_publ_section_title
;
Structure prediction by ZEFSAII (Michael W. Deem and Ramdas Pophale) SiO2 
 PCOD8287695
Probable space group: I M M M
;
_chemical_formula_sum "Si O2"
_cell_formula_units_Z 112
_cell_length_a 17.086501
_cell_length_b 13.738572
_cell_length_c 27.569153
_cell_angle_alpha 90.000000
_cell_angle_beta 90.000000
_cell_angle_gamma 90.000000
_cell_volume 6471.696676
_symmetry_space_group_name_H-M "I M M M"
_symmetry_group_IT_number 71
_symmetry_cell_setting 'orthorhombic'
loop_
_space_group_symop_operation_xyz
x,y,z
-x,-y,z
x,-y,-z
-x,y,-z
-x,-y,-z
x,y,-z
-x,y,z
x,-y,z
1/2+x,1/2+y,1/2+z
1/2-x,1/2-y,1/2+z
1/2+x,1/2-y,1/2-z
1/2-x,1/2+y,1/2-z
1/2-x,1/2-y,1/2-z
1/2+x,1/2+y,1/2-z
1/2-x,1/2+y,1/2+z
1/2+x,1/2-y,1/2+z
loop_
_atom_site_type_symbol
_atom_site_label
_atom_site_fract_x
_atom_site_fract_y
_atom_site_fract_z
Si Si1 0.086731 0.766213 0.944506
Si Si2 0.218531 0.737689 0.640186
Si Si3 0.913016 0.216089 0.712726
Si Si4 0.709344 0.388048 0.723411
Si Si5 0.656275 0.889195 0.378241
Si Si6 0.263168 0.613698 0.555958
Si Si7 0.871815 0.607367 0.769929
O O1 0.101366 0.667100 0.915504
O O2 0.148573 0.850850 0.931841
O O3 0.000000 0.806592 0.932365
O O4 0.094033 0.735565 0.000000
O O5 0.134866 0.763502 0.663422
O O6 0.276425 0.678769 0.676418
O O7 0.258935 0.838388 0.624708
O O8 0.204604 0.671476 0.592039
O O9 0.869626 0.140644 0.748373
O O10 0.924820 0.317489 0.740957
O O11 0.000000 0.176496 0.699909
O O12 0.703434 0.500000 0.706809
O O13 0.779947 0.369572 0.760994
O O14 0.612013 0.885923 0.326841
O O15 0.669113 0.000000 0.395538
O O16 0.240778 0.636118 0.500000
O O17 0.257720 0.500000 0.567061
O O18 0.892589 0.500000 0.750206
#
# Coordination Sequence:
#
# PCOD8287695 Si02
#       7
#    16  16  16  16  16  16  16
#     4   9  19  33  47  69 102 131 158 200 250 293
#     4  10  18  35  53  72  98 132 167 208 248 295
#     4  11  21  32  48  74 102 127 159 204 251 298
#     4  10  18  32  52  72  95 131 168 199 243 294
#     4  10  18  30  51  69  88 128 174 204 233 285
#     4   9  18  33  55  79  99 128 171 210 245 291
#     4   9  17  32  50  66  90 126 164 197 231 282
#
# _framework density 17.306127
#
# number of rings (size 3 to 8) (size 9 to 14) (size 15 to 20)
#    0.000    2.286    2.857    1.286    0.000    2.571 
#    0.000    3.571    0.000    2.143    0.000    1.000 
#    0.000    0.000    0.000    8.429    0.000    0.000 
#
# Total GULP energy -694294.380555 kJ/mol
# GULP energy per Si atom -12398.113938 kJ/mol
# Density = 1.726674 g / cm^3
# Si number density = 17.306127 Si / 1000 Ang^3
#
#
#
# Elastic Constant Matrix: (Units=GPa)
#
#
# Indices 1 2 3 4 5 6 
#
# 1 79.2963 3.5821 20.0442 0.0000 0.0000 0.0000
# 2 3.5821 55.1679 9.8762 0.0000 0.0000 0.0000
# 3 20.0442 9.8762 63.4169 0.0000 0.0000 0.0000
# 4 0.0000 0.0000 0.0000 28.0112 0.0000 0.0000
# 5 0.0000 0.0000 0.0000 0.0000 19.0595 0.0000
# 6 0.0000 0.0000 0.0000 0.0000 0.0000 13.8368
#
#
#
# Elastic Compliance Matrix: (Units=1/GPa)
#
#
# Indices 1 2 3 4 5 6 
#
# 1 0.013707 -0.000118 -0.004314 0.000000 0.000000 0.000000
# 2 -0.000118 0.018647 -0.002867 0.000000 0.000000 0.000000
# 3 -0.004314 -0.002867 0.017579 0.000000 0.000000 0.000000
# 4 0.000000 0.000000 0.000000 0.035700 0.000000 0.000000
# 5 0.000000 0.000000 0.000000 0.000000 0.052467 0.000000
# 6 0.000000 0.000000 0.000000 0.000000 0.000000 0.072271
#
#
# Mechanical properties :
#
#
# Convention : Reuss Voigt Hill
#
# Bulk Modulus (GPa) = 28.29998 29.43180 28.86589
# Shear Modulus (GPa) = 21.11962 23.14007 22.12985
#
# Velocity S-wave (km/s) = 3.49715 3.66061 3.57981
# Velocity P-wave (km/s) = 5.71794 5.90849 5.81399
#
# Compressibility (1/GPa) = 0.03533571
#
# Stress axis : x y z
#
# Youngs Moduli (GPa) = 72.95691 53.62695 56.88717
#
# Poissons Ratio (x) = 0.00631 0.24541
# Poissons Ratio (y) = 0.00859 0.16309
# Poissons Ratio (z) = 0.31473 0.15374
#
# Static dielectric constant tensor:
#      x y z
#    x 2.959400 0.000000 0.000000 
#    y 0.000000 3.300260 0.000000 
#    z 0.000000 0.000000 3.261000 
# 
# 
# High freq. dielectric constant tensor:
#      x y z
#    x 1.635130 0.000000 0.000000 
#    y 0.000000 1.675590 0.000000 
#    z 0.000000 0.000000 1.662170 
# 
# From -- ./inp_files/70057.got.cif
#   From: 2010.06.25/outbox.cif.g09.slc.cpg/sg71_36_cif.got.tgz:70057.got - 2010.06.28 04:59:45.
