data_PCOD8287742
_publ_section_title
;
Structure prediction by ZEFSAII (Michael W. Deem and Ramdas Pophale) SiO2 
 PCOD8287742
Probable space group: I M M M
;
_chemical_formula_sum "Si O2"
_cell_formula_units_Z 92
_cell_length_a 16.171531
_cell_length_b 26.426026
_cell_length_c 11.935349
_cell_angle_alpha 90.000000
_cell_angle_beta 90.000000
_cell_angle_gamma 90.000000
_cell_volume 5100.563024
_symmetry_space_group_name_H-M "I M M M"
_symmetry_group_IT_number 71
_symmetry_cell_setting 'orthorhombic'
loop_
_space_group_symop_operation_xyz
x,y,z
-x,-y,z
x,-y,-z
-x,y,-z
-x,-y,-z
x,y,-z
-x,y,z
x,-y,z
1/2+x,1/2+y,1/2+z
1/2-x,1/2-y,1/2+z
1/2+x,1/2-y,1/2-z
1/2-x,1/2+y,1/2-z
1/2-x,1/2-y,1/2-z
1/2+x,1/2+y,1/2-z
1/2-x,1/2+y,1/2+z
1/2+x,1/2-y,1/2+z
loop_
_atom_site_type_symbol
_atom_site_label
_atom_site_fract_x
_atom_site_fract_y
_atom_site_fract_z
Si Si1 0.407541 0.292930 0.500000
Si Si2 0.744949 0.809242 0.275968
Si Si3 0.172105 0.056276 0.128426
Si Si4 0.154582 0.316787 0.000000
Si Si5 0.906959 0.147392 0.223388
Si Si6 0.000000 0.438539 0.243373
Si Si7 0.000000 0.390260 0.000000
Si Si8 0.342115 0.890613 0.869609
O O1 0.500000 0.272890 0.500000
O O2 0.354087 0.243298 0.500000
O O3 0.387557 0.326974 0.394782
O O4 0.750000 0.750000 0.250000
O O5 0.702664 0.828345 0.387875
O O6 0.838582 0.827763 0.302105
O O7 0.693525 0.837004 0.176701
O O8 0.110603 0.088202 0.207081
O O9 0.268249 0.069521 0.143245
O O10 0.159736 0.000000 0.171799
O O11 0.144665 0.062639 0.000000
O O12 0.075909 0.352229 0.000000
O O13 0.000000 0.156858 0.267869
O O14 0.079970 0.412855 0.301367
O O15 0.000000 0.500000 0.259315
O O16 0.000000 0.425693 0.110635
O O17 0.367201 0.882997 0.000000
#
# Coordination Sequence:
#
# PCOD8287742 Si02
#       8
#     8  16  16   8  16   8   4  16
#     4  10  18  30  54  83 111 148 184 229 290 353
#     4  11  23  37  60  86 117 158 200 245 300 355
#     4   9  17  30  50  79 114 150 184 227 285 347
#     4  12  22  39  63  83 115 160 201 243 298 358
#     4  10  20  34  51  80 114 145 189 237 285 347
#     4  12  24  42  65  89 124 166 208 258 315 368
#     4  12  25  44  58  98 124 156 215 268 294 362
#     4  10  22  38  59  88 124 157 200 247 300 372
#
# _framework density 18.037223999999998
#
# number of rings (size 3 to 8) (size 9 to 14) (size 15 to 20)
#    0.000    1.565    4.783    0.913    2.435    1.739 
#    1.565    1.304    0.000    0.000    0.000    0.000 
#    0.000    3.130    0.000    0.000    0.000    0.000 
#
# Total GULP energy -570014.024807 kJ/mol
# GULP energy per Si atom -12391.609235 kJ/mol
# Density = 1.799617 g / cm^3
# Si number density = 18.037224 Si / 1000 Ang^3
#
#
#
# Elastic Constant Matrix: (Units=GPa)
#
#
# Indices 1 2 3 4 5 6 
#
# 1 123.0606 55.3897 44.7543 -0.0001 0.0001 0.0000
# 2 55.3897 132.5732 28.5851 0.0004 0.0000 0.0000
# 3 44.7543 28.5851 90.8454 0.0006 0.0013 0.0000
# 4 -0.0001 0.0004 0.0006 28.5041 0.0004 0.0000
# 5 0.0001 0.0000 0.0013 0.0004 17.1410 0.0000
# 6 0.0000 0.0000 0.0000 0.0000 0.0000 23.6617
#
#
#
# Elastic Compliance Matrix: (Units=1/GPa)
#
#
# Indices 1 2 3 4 5 6 
#
# 1 0.011467 -0.003833 -0.004443 0.000000 0.000000 0.000000
# 2 -0.003833 0.009373 -0.001061 0.000000 0.000000 0.000000
# 3 -0.004443 -0.001061 0.013530 0.000000 -0.000001 0.000000
# 4 0.000000 0.000000 0.000000 0.035083 -0.000001 0.000000
# 5 0.000000 0.000000 -0.000001 -0.000001 0.058340 0.000000
# 6 0.000000 0.000000 0.000000 0.000000 0.000000 0.042262
#
#
# Mechanical properties :
#
#
# Convention : Reuss Voigt Hill
#
# Bulk Modulus (GPa) = 63.70860 67.10417 65.40638
# Shear Modulus (GPa) = 25.77821 28.37803 27.07812
#
# Velocity S-wave (km/s) = 3.78453 3.97079 3.87878
# Velocity P-wave (km/s) = 7.38202 7.63589 7.51003
#
# Compressibility (1/GPa) = 0.01569647
#
# Stress axis : x y z
#
# Youngs Moduli (GPa) = 87.20530 106.68675 73.90737
#
# Poissons Ratio (x) = 0.40893 0.32838
# Poissons Ratio (y) = 0.33426 0.07842
# Poissons Ratio (z) = 0.38747 0.11320
#
# Static dielectric constant tensor:
#      x y z
#    x 3.438650 0.000000 0.000000 
#    y 0.000000 3.430960 0.000000 
#    z 0.000000 0.000000 3.523730 
# 
# 
# High freq. dielectric constant tensor:
#      x y z
#    x 1.708540 0.000000 0.000000 
#    y 0.000000 1.708480 0.000000 
#    z 0.000000 0.000000 1.675760 
# 
# From -- ./inp_files/24518.got.cif
#   From: 2010.06.25/outbox.cif.g09.slc.cpg/sg71_13_cif.got.tgz:24518.got - 2010.06.28 04:59:45.
