data_PCOD8287991
_publ_section_title
;
Structure prediction by ZEFSAII (Michael W. Deem and Ramdas Pophale) SiO2 
 PCOD8287991
Probable space group: I M M M
;
_chemical_formula_sum "Si O2"
_cell_formula_units_Z 104
_cell_length_a 18.046184
_cell_length_b 17.519998
_cell_length_c 18.015274
_cell_angle_alpha 90.000000
_cell_angle_beta 90.000000
_cell_angle_gamma 90.000000
_cell_volume 5695.873104
_symmetry_space_group_name_H-M "I M M M"
_symmetry_group_IT_number 71
_symmetry_cell_setting 'orthorhombic'
loop_
_space_group_symop_operation_xyz
x,y,z
-x,-y,z
x,-y,-z
-x,y,-z
-x,-y,-z
x,y,-z
-x,y,z
x,-y,z
1/2+x,1/2+y,1/2+z
1/2-x,1/2-y,1/2+z
1/2+x,1/2-y,1/2-z
1/2-x,1/2+y,1/2-z
1/2-x,1/2-y,1/2-z
1/2+x,1/2+y,1/2-z
1/2-x,1/2+y,1/2+z
1/2+x,1/2-y,1/2+z
loop_
_atom_site_type_symbol
_atom_site_label
_atom_site_fract_x
_atom_site_fract_y
_atom_site_fract_z
Si Si1 0.141212 0.270540 0.146716
Si Si2 0.081052 0.761246 0.698819
Si Si3 0.586023 0.305825 0.500000
Si Si4 0.797098 0.416209 0.797789
Si Si5 0.728235 0.408217 0.500000
Si Si6 0.285551 0.169512 0.853289
Si Si7 0.418405 0.589521 0.000000
Si Si8 0.370426 0.584012 0.843424
O O1 0.086732 0.264456 0.216128
O O2 0.100398 0.246561 0.071642
O O3 0.163773 0.359723 0.143434
O O4 0.213933 0.220491 0.163930
O O5 0.142877 0.725359 0.643671
O O6 0.086115 0.853327 0.703983
O O7 0.000000 0.736861 0.669213
O O8 0.500000 0.334092 0.500000
O O9 0.643028 0.377415 0.500000
O O10 0.834389 0.500000 0.803739
O O11 0.801876 0.388699 0.712966
O O12 0.712442 0.422193 0.818010
O O13 0.725348 0.500000 0.500000
O O14 0.773438 0.377577 0.571069
O O15 0.372595 0.614546 0.928025
O O16 0.428548 0.500000 0.000000
O O17 0.500000 0.628399 0.000000
O O18 0.408371 0.500000 0.834758
#
# Coordination Sequence:
#
# PCOD8287991 Si02
#       8
#    16  16   8  16   8  16   8  16
#     4  10  19  37  56  78 109 151 188 225 276 336
#     4  11  20  33  55  80 110 146 186 231 277 329
#     4  10  22  38  60  87 117 145 175 223 280 336
#     4  10  18  32  57  81 105 138 186 239 270 315
#     4  10  22  38  64  87 111 148 182 222 277 335
#     4  10  19  37  55  80 111 147 190 229 273 332
#     4   9  18  30  40  58 100 144 168 196 249 322
#     4  10  19  31  49  75 108 144 179 220 276 325
#
# _framework density 18.258835000000001
#
# number of rings (size 3 to 8) (size 9 to 14) (size 15 to 20)
#    0.000    1.923    3.077    2.308    0.000    2.308 
#    0.000    2.308    0.000   18.462    0.000    0.000 
#    0.000    0.000    0.000    0.000    0.000    0.000 
#
# Total GULP energy -644456.777923 kJ/mol
# GULP energy per Si atom -12393.399575 kJ/mol
# Density = 1.821728 g / cm^3
# Si number density = 18.258835 Si / 1000 Ang^3
#
#
#
# Elastic Constant Matrix: (Units=GPa)
#
#
# Indices 1 2 3 4 5 6 
#
# 1 96.2086 34.2897 21.9133 0.0000 0.0000 0.0000
# 2 34.2897 119.9486 31.0000 0.0000 0.0000 0.0000
# 3 21.9133 31.0000 74.1621 0.0000 0.0000 0.0000
# 4 0.0000 0.0000 0.0000 23.6816 0.0000 0.0000
# 5 0.0000 0.0000 0.0000 0.0000 177.7173 0.0000
# 6 0.0000 0.0000 0.0000 0.0000 0.0000 21.7281
#
#
#
# Elastic Compliance Matrix: (Units=1/GPa)
#
#
# Indices 1 2 3 4 5 6 
#
# 1 0.011929 -0.002802 -0.002354 0.000000 0.000000 0.000000
# 2 -0.002802 0.010005 -0.003354 0.000000 0.000000 0.000000
# 3 -0.002354 -0.003354 0.015581 0.000000 0.000000 0.000000
# 4 0.000000 0.000000 0.000000 0.042227 0.000000 0.000000
# 5 0.000000 0.000000 0.000000 0.000000 0.005627 0.000000
# 6 0.000000 0.000000 0.000000 0.000000 0.000000 0.046023
#
#
# Mechanical properties :
#
#
# Convention : Reuss Voigt Hill
#
# Bulk Modulus (GPa) = 48.79012 51.63615 50.21313
# Shear Modulus (GPa) = 32.20757 58.16647 45.18702
#
# Velocity S-wave (km/s) = 4.20449 5.65029 4.98014
# Velocity P-wave (km/s) = 7.09575 8.42076 7.78649
#
# Compressibility (1/GPa) = 0.02049595
#
# Stress axis : x y z
#
# Youngs Moduli (GPa) = 83.83117 99.95293 64.17899
#
# Poissons Ratio (x) = 0.28005 0.15105
# Poissons Ratio (y) = 0.23488 0.21526
# Poissons Ratio (z) = 0.19730 0.33525
#
# Static dielectric constant tensor:
#      x y z
#    x 3.248900 0.000000 0.000000 
#    y 0.000000 3.861100 0.000000 
#    z 0.000000 0.000000 3.151170 
# 
# 
# High freq. dielectric constant tensor:
#      x y z
#    x 1.693450 0.000000 0.000000 
#    y 0.000000 1.706240 0.000000 
#    z 0.000000 0.000000 1.705340 
# 
# From -- ./inp_files/46191.got.cif
#   From: 2010.06.25/outbox.cif.g09.slc.cpg/sg71_24_cif.got.tgz:46191.got - 2010.06.28 04:59:45.
