data_PCOD8287805
_publ_section_title
;
Structure prediction by ZEFSAII (Michael W. Deem and Ramdas Pophale) SiO2 
 PCOD8287805
Probable space group: I M M M
;
_chemical_formula_sum "Si O2"
_cell_formula_units_Z 88
_cell_length_a 17.018747
_cell_length_b 28.801334
_cell_length_c 9.329975
_cell_angle_alpha 90.000000
_cell_angle_beta 90.000000
_cell_angle_gamma 90.000000
_cell_volume 4573.204959
_symmetry_space_group_name_H-M "I M M M"
_symmetry_group_IT_number 71
_symmetry_cell_setting 'orthorhombic'
loop_
_space_group_symop_operation_xyz
x,y,z
-x,-y,z
x,-y,-z
-x,y,-z
-x,-y,-z
x,y,-z
-x,y,z
x,-y,z
1/2+x,1/2+y,1/2+z
1/2-x,1/2-y,1/2+z
1/2+x,1/2-y,1/2-z
1/2-x,1/2+y,1/2-z
1/2-x,1/2-y,1/2-z
1/2+x,1/2+y,1/2-z
1/2-x,1/2+y,1/2+z
1/2+x,1/2-y,1/2+z
loop_
_atom_site_type_symbol
_atom_site_label
_atom_site_fract_x
_atom_site_fract_y
_atom_site_fract_z
Si Si1 0.911716 0.637613 0.169692
Si Si2 0.500000 0.550493 0.668945
Si Si3 0.585157 0.684294 0.665464
Si Si4 0.837906 0.904462 0.168352
Si Si5 0.306539 0.052986 0.667760
Si Si6 0.821168 0.272781 0.165252
O O1 0.877536 0.587214 0.213531
O O2 0.852925 0.678020 0.228133
O O3 0.000000 0.642024 0.234424
O O4 0.916638 0.643255 0.000000
O O5 0.500000 0.500000 0.741455
O O6 0.500000 0.546044 0.500000
O O7 0.578229 0.576240 0.718543
O O8 0.575008 0.670907 0.500000
O O9 0.500000 0.676148 0.740596
O O10 0.655188 0.649778 0.719237
O O11 0.606336 0.737831 0.684385
O O12 0.771478 0.931784 0.251731
O O13 0.820432 0.910781 0.000000
O O14 0.289727 0.057472 0.500000
O O15 0.329168 0.000000 0.709040
O O16 0.750000 0.250000 0.250000
O O17 0.795251 0.277829 0.000000
#
# Coordination Sequence:
#
# PCOD8287805 Si02
#       6
#    16   8  16  16  16  16
#     4   9  18  34  55  77 100 132 176 217 251 296
#     4   9  16  26  43  67  93 125 167 207 236 276
#     4   9  16  28  48  74  99 125 162 204 240 280
#     4  10  18  31  51  74 100 131 169 209 249 300
#     4  10  21  35  51  73 101 131 166 214 266 308
#     4  10  19  31  51  77 104 132 162 200 248 300
#
# _framework density 19.242522999999998
#
# number of rings (size 3 to 8) (size 9 to 14) (size 15 to 20)
#    0.000    2.455    0.909    2.182    0.000    3.636 
#    0.000    2.273    0.000    6.545    0.000    1.273 
#    0.000    0.000    0.000    0.000    0.000    0.000 
#
# Total GULP energy -545201.367755 kJ/mol
# GULP energy per Si atom -12390.940176 kJ/mol
# Density = 1.919873 g / cm^3
# Si number density = 19.242523 Si / 1000 Ang^3
#
#
#
# Elastic Constant Matrix: (Units=GPa)
#
#
# Indices 1 2 3 4 5 6 
#
# 1 133.0879 63.1146 31.3355 0.0000 0.0009 0.0022
# 2 63.1146 162.3990 27.9100 -0.0002 0.0015 0.0028
# 3 31.3355 27.9100 26.6461 -0.0054 0.0057 0.0173
# 4 0.0000 -0.0002 -0.0054 18.4503 0.0028 0.0052
# 5 0.0009 0.0015 0.0057 0.0028 18.1790 0.0019
# 6 0.0022 0.0028 0.0173 0.0052 0.0019 15.0546
#
#
#
# Elastic Compliance Matrix: (Units=1/GPa)
#
#
# Indices 1 2 3 4 5 6 
#
# 1 0.011192 -0.002546 -0.010495 -0.000003 0.000003 0.000011
# 2 -0.002546 0.008089 -0.005478 -0.000002 0.000001 0.000005
# 3 -0.010495 -0.005478 0.055609 0.000016 -0.000017 -0.000061
# 4 -0.000003 -0.000002 0.000016 0.054200 -0.000008 -0.000019
# 5 0.000003 0.000001 -0.000017 -0.000008 0.055008 -0.000007
# 6 0.000011 0.000005 -0.000061 -0.000019 -0.000007 0.066425
#
#
# Mechanical properties :
#
#
# Convention : Reuss Voigt Hill
#
# Bulk Modulus (GPa) = 26.41916 62.98370 44.70143
# Shear Modulus (GPa) = 16.65669 23.65497 20.15583
#
# Velocity S-wave (km/s) = 2.94533 3.50995 3.23996
# Velocity P-wave (km/s) = 5.03250 7.01633 6.10553
#
# Compressibility (1/GPa) = 0.03785132
#
# Stress axis : x y z
#
# Youngs Moduli (GPa) = 89.34661 123.62978 17.98259
#
# Poissons Ratio (x) = 0.31477 0.18873
# Poissons Ratio (y) = 0.22748 0.09851
# Poissons Ratio (z) = 0.93772 0.67727
#
# Static dielectric constant tensor:
#      x y z
#    x 3.692580 -0.000020 -0.000020 
#    y -0.000020 4.011610 -0.000010 
#    z -0.000020 -0.000010 2.998420 
# 
# 
# High freq. dielectric constant tensor:
#      x y z
#    x 1.752160 0.000000 0.000000 
#    y 0.000000 1.774050 0.000000 
#    z 0.000000 0.000000 1.682360 
# 
# From -- ./inp_files/8730.got.cif
#   From: 2010.06.25/outbox.cif.g09.slc.cpg/sg71_5_cif.got.tgz:8730.got - 2010.06.28 04:59:45.
