data_PCOD8287667
_publ_section_title
;
Structure prediction by ZEFSAII (Michael W. Deem and Ramdas Pophale) SiO2 
 PCOD8287667
Probable space group: I M M M
;
_chemical_formula_sum "Si O2"
_cell_formula_units_Z 96
_cell_length_a 14.470671
_cell_length_b 36.415518
_cell_length_c 10.071570
_cell_angle_alpha 90.000000
_cell_angle_beta 90.000000
_cell_angle_gamma 90.000000
_cell_volume 5307.284114
_symmetry_space_group_name_H-M "I M M M"
_symmetry_group_IT_number 71
_symmetry_cell_setting 'orthorhombic'
loop_
_space_group_symop_operation_xyz
x,y,z
-x,-y,z
x,-y,-z
-x,y,-z
-x,-y,-z
x,y,-z
-x,y,z
x,-y,z
1/2+x,1/2+y,1/2+z
1/2-x,1/2-y,1/2+z
1/2+x,1/2-y,1/2-z
1/2-x,1/2+y,1/2-z
1/2-x,1/2-y,1/2-z
1/2+x,1/2+y,1/2-z
1/2-x,1/2+y,1/2+z
1/2+x,1/2-y,1/2+z
loop_
_atom_site_type_symbol
_atom_site_label
_atom_site_fract_x
_atom_site_fract_y
_atom_site_fract_z
Si Si1 0.822311 0.847265 0.658829
Si Si2 0.655885 0.834817 0.157681
Si Si3 0.000000 0.721020 0.344061
Si Si4 0.294719 0.427897 0.148382
Si Si5 0.000000 0.197685 0.343632
Si Si6 0.604614 0.086255 0.752399
Si Si7 0.607291 0.500000 0.841433
Si Si8 0.390683 0.959797 0.000000
O O1 0.800302 0.844751 0.500000
O O2 0.743473 0.828970 0.748267
O O3 0.834987 0.889658 0.706489
O O4 0.911831 0.825084 0.702346
O O5 0.591006 0.800988 0.198227
O O6 0.603450 0.871982 0.198618
O O7 0.679751 0.835267 0.000000
O O8 0.000000 0.725315 0.500000
O O9 0.000000 0.761620 0.278023
O O10 0.182185 0.423811 0.143707
O O11 0.338806 0.464039 0.218741
O O12 0.330511 0.431016 0.000000
O O13 0.000000 0.201700 0.500000
O O14 0.500000 0.076177 0.704204
O O15 0.642501 0.061546 0.871634
O O16 0.500000 0.500000 0.794954
O O17 0.614011 0.500000 0.000000
O O18 0.500000 0.961998 0.000000
O O19 0.345453 0.000000 0.000000
#
# Coordination Sequence:
#
# PCOD8287667 Si02
#       8
#    16  16   8  16   8  16   8   8
#     4   9  19  34  53  74 103 134 169 209 257 306
#     4  10  18  32  53  77 101 134 172 211 247 300
#     4   9  18  30  53  79 102 133 171 205 249 303
#     4   9  19  32  47  73  99 126 160 202 249 298
#     4   9  18  34  53  76 101 132 168 211 257 309
#     4  10  18  30  50  70  98 130 164 200 240 291
#     4   9  18  32  51  72  97 126 169 212 245 285
#     4   9  18  28  42  66  92 124 162 196 228 268
#
# _framework density 18.088346999999999
#
# number of rings (size 3 to 8) (size 9 to 14) (size 15 to 20)
#    0.000    2.667    1.667    0.000    2.333    1.000 
#    0.000    0.833    0.000    2.500    0.000    1.167 
#    0.000    0.000    0.000    0.000    0.000    0.000 
#
# Total GULP energy -594639.561119 kJ/mol
# GULP energy per Si atom -12388.324190 kJ/mol
# Density = 1.804718 g / cm^3
# Si number density = 18.088347 Si / 1000 Ang^3
#
#
#
# Elastic Constant Matrix: (Units=GPa)
#
#
# Indices 1 2 3 4 5 6 
#
# 1 134.9002 84.5776 27.5684 -0.0021 0.0171 0.0010
# 2 84.5776 157.6212 17.7191 -0.0071 -0.0370 0.0020
# 3 27.5684 17.7191 32.9206 -0.0302 0.2913 0.0107
# 4 -0.0021 -0.0071 -0.0302 19.8560 -0.1101 0.0014
# 5 0.0171 -0.0370 0.2913 -0.1101 -217.3648 0.0896
# 6 0.0010 0.0020 0.0107 0.0014 0.0896 20.6760
#
#
#
# Elastic Compliance Matrix: (Units=1/GPa)
#
#
# Indices 1 2 3 4 5 6 
#
# 1 0.012663 -0.005964 -0.007394 -0.000012 -0.000008 0.000004
# 2 -0.005964 0.009561 -0.000152 0.000003 -0.000002 -0.000001
# 3 -0.007394 -0.000152 0.036650 0.000055 0.000049 -0.000019
# 4 -0.000012 0.000003 0.000055 0.050362 -0.000025 -0.000003
# 5 -0.000008 -0.000002 0.000049 -0.000025 -0.004600 0.000020
# 6 0.000004 -0.000001 -0.000019 -0.000003 0.000020 0.048365
#
#
# Mechanical properties :
#
#
# Convention : Reuss Voigt Hill
#
# Bulk Modulus (GPa) = 31.39334 65.01911 48.20623
# Shear Modulus (GPa) = 26.22749 -22.32809 1.94970
#
# Velocity S-wave (km/s) = 3.81197 -3.51720 1.03933
# Velocity P-wave (km/s) = 6.06367 4.41917 5.30552
#
# Compressibility (1/GPa) = 0.03185389
#
# Stress axis : x y z
#
# Youngs Moduli (GPa) = 78.97074 104.58720 27.28521
#
# Poissons Ratio (x) = 0.62371 0.20176
# Poissons Ratio (y) = 0.47094 0.00416
# Poissons Ratio (z) = 0.58394 0.01593
#
# Static dielectric constant tensor:
#      x y z
#    x 3.300680 0.000000 0.000010 
#    y 0.000000 3.827480 0.000010 
#    z 0.000010 0.000010 2.979260 
# 
# 
# High freq. dielectric constant tensor:
#      x y z
#    x 1.695720 0.000000 0.000000 
#    y 0.000000 1.714830 0.000000 
#    z 0.000000 0.000000 1.655770 
# 
# From -- ./inp_files/22647.got.cif
#   From: 2010.06.25/outbox.cif.g09.slc.cpg/sg71_12_cif.got.tgz:22647.got - 2010.06.28 04:59:45.
