data_PCOD8287354
_publ_section_title
;
Structure prediction by ZEFSAII (Michael W. Deem and Ramdas Pophale) SiO2 
 PCOD8287354
Probable space group: I M M M
;
_chemical_formula_sum "Si O2"
_cell_formula_units_Z 88
_cell_length_a 9.265157
_cell_length_b 26.963485
_cell_length_c 20.122071
_cell_angle_alpha 90.000000
_cell_angle_beta 90.000000
_cell_angle_gamma 90.000000
_cell_volume 5026.914326
_symmetry_space_group_name_H-M "I M M M"
_symmetry_group_IT_number 71
_symmetry_cell_setting 'orthorhombic'
loop_
_space_group_symop_operation_xyz
x,y,z
-x,-y,z
x,-y,-z
-x,y,-z
-x,-y,-z
x,y,-z
-x,y,z
x,-y,z
1/2+x,1/2+y,1/2+z
1/2-x,1/2-y,1/2+z
1/2+x,1/2-y,1/2-z
1/2-x,1/2+y,1/2-z
1/2-x,1/2-y,1/2-z
1/2+x,1/2+y,1/2-z
1/2-x,1/2+y,1/2+z
1/2+x,1/2-y,1/2+z
loop_
_atom_site_type_symbol
_atom_site_label
_atom_site_fract_x
_atom_site_fract_y
_atom_site_fract_z
Si Si1 0.337793 0.216058 0.356860
Si Si2 0.168663 0.056710 0.629014
Si Si3 0.668821 0.359612 0.228506
Si Si4 0.335869 0.227540 0.500000
Si Si5 0.162399 0.558954 0.000000
Si Si6 0.832489 0.832127 0.871350
Si Si7 0.671297 0.172447 0.000000
O O1 0.500000 0.206351 0.332335
O O2 0.234097 0.188296 0.306896
O O3 0.316165 0.195360 0.432804
O O4 0.302112 0.274289 0.357306
O O5 0.215117 0.089470 0.692484
O O6 0.255065 0.077494 0.565621
O O7 0.000000 0.061892 0.612738
O O8 0.209678 0.000000 0.645659
O O9 0.500000 0.350843 0.224331
O O10 0.716567 0.362291 0.305543
O O11 0.500000 0.250829 0.500000
O O12 0.216906 0.270347 0.500000
O O13 0.161666 0.500000 0.000000
O O14 0.000000 0.580510 0.000000
O O15 0.737675 0.852264 0.933174
O O16 0.000000 0.841141 0.888103
O O17 0.500000 0.166308 0.000000
#
# Coordination Sequence:
#
# PCOD8287354 Si02
#       7
#    16  16  16   8   8  16   8
#     4   9  17  29  45  64  91 124 153 186 224 261
#     4   9  18  33  50  68  92 120 151 190 231 265
#     4  10  20  31  46  68  91 119 153 185 223 272
#     4   8  16  31  45  60  88 127 160 184 222 265
#     4   9  17  30  49  70  90 118 157 194 227 266
#     4   9  18  33  48  64  91 123 150 179 222 271
#     4  10  18  28  47  71  89 112 150 189 220 258
#
# _framework density 17.505769000000001
#
# number of rings (size 3 to 8) (size 9 to 14) (size 15 to 20)
#    0.000    2.818    0.000    2.727    0.000    6.182 
#    0.000    1.818    0.000    0.000    0.000    0.636 
#    0.000    5.091    0.000    0.000    0.000    0.000 
#
# Total GULP energy -545379.275323 kJ/mol
# GULP energy per Si atom -12394.983530 kJ/mol
# Density = 1.746593 g / cm^3
# Si number density = 17.505769 Si / 1000 Ang^3
#
#
#
# Elastic Constant Matrix: (Units=GPa)
#
#
# Indices 1 2 3 4 5 6 
#
# 1 71.0366 27.2651 70.5582 0.0000 0.0000 0.0000
# 2 27.2651 41.9745 48.3638 0.0000 0.0000 0.0000
# 3 70.5582 48.3638 176.1470 0.0000 0.0000 0.0000
# 4 0.0000 0.0000 0.0000 14.0221 0.0000 0.0000
# 5 0.0000 0.0000 0.0000 0.0000 24.9911 0.0000
# 6 0.0000 0.0000 0.0000 0.0000 0.0000 13.7160
#
#
#
# Elastic Compliance Matrix: (Units=1/GPa)
#
#
# Indices 1 2 3 4 5 6 
#
# 1 0.024629 -0.006774 -0.008006 0.000000 0.000000 0.000000
# 2 -0.006774 0.036712 -0.007366 0.000000 0.000000 0.000000
# 3 -0.008006 -0.007366 0.010906 0.000000 0.000000 0.000000
# 4 0.000000 0.000000 0.000000 0.071316 0.000000 0.000000
# 5 0.000000 0.000000 0.000000 0.000000 0.040014 0.000000
# 6 0.000000 0.000000 0.000000 0.000000 0.000000 0.072908
#
#
# Mechanical properties :
#
#
# Convention : Reuss Voigt Hill
#
# Bulk Modulus (GPa) = 35.77135 64.61471 50.19303
# Shear Modulus (GPa) = 16.12411 20.07724 18.10067
#
# Velocity S-wave (km/s) = 3.03821 3.39025 3.21905
# Velocity P-wave (km/s) = 5.72591 7.23296 6.52310
#
# Compressibility (1/GPa) = 0.02795533
#
# Stress axis : x y z
#
# Youngs Moduli (GPa) = 40.60284 27.23927 91.68936
#
# Poissons Ratio (x) = 0.18451 0.73403
# Poissons Ratio (y) = 0.27504 0.67542
# Poissons Ratio (z) = 0.32505 0.20066
#
# Static dielectric constant tensor:
#      x y z
#    x 3.182980 0.000000 0.000000 
#    y 0.000000 2.895940 0.000000 
#    z 0.000000 0.000000 3.727380 
# 
# 
# High freq. dielectric constant tensor:
#      x y z
#    x 1.670930 0.000000 0.000000 
#    y 0.000000 1.625270 0.000000 
#    z 0.000000 0.000000 1.690130 
# 
# From -- ./inp_files/51094.got.cif
#   From: 2010.06.25/outbox.cif.g09.slc.cpg/sg71_26_cif.got.tgz:51094.got - 2010.06.28 04:59:45.
