data_PCOD8287966
_publ_section_title
;
Structure prediction by ZEFSAII (Michael W. Deem and Ramdas Pophale) SiO2 
 PCOD8287966
Probable space group: I M M M
;
_chemical_formula_sum "Si O2"
_cell_formula_units_Z 120
_cell_length_a 32.916760
_cell_length_b 14.886757
_cell_length_c 13.959441
_cell_angle_alpha 90.000000
_cell_angle_beta 90.000000
_cell_angle_gamma 90.000000
_cell_volume 6840.458427
_symmetry_space_group_name_H-M "I M M M"
_symmetry_group_IT_number 71
_symmetry_cell_setting 'orthorhombic'
loop_
_space_group_symop_operation_xyz
x,y,z
-x,-y,z
x,-y,-z
-x,y,-z
-x,-y,-z
x,y,-z
-x,y,z
x,-y,z
1/2+x,1/2+y,1/2+z
1/2-x,1/2-y,1/2+z
1/2+x,1/2-y,1/2-z
1/2-x,1/2+y,1/2-z
1/2-x,1/2-y,1/2-z
1/2+x,1/2+y,1/2-z
1/2-x,1/2+y,1/2+z
1/2+x,1/2-y,1/2+z
loop_
_atom_site_type_symbol
_atom_site_label
_atom_site_fract_x
_atom_site_fract_y
_atom_site_fract_z
Si Si1 0.383270 0.393571 0.107024
Si Si2 0.046216 0.896163 0.747339
Si Si3 0.805275 0.104928 0.723324
Si Si4 0.045326 0.399395 0.782178
Si Si5 0.675896 0.272809 0.391451
Si Si6 0.223947 0.399892 0.888837
Si Si7 0.500000 0.106150 0.894828
Si Si8 0.418656 0.261018 0.609933
O O1 0.380894 0.500000 0.099779
O O2 0.424127 0.363756 0.162340
O O3 0.343722 0.357634 0.163202
O O4 0.384295 0.352013 0.000000
O O5 0.054483 0.839013 0.842629
O O6 0.000000 0.880023 0.712913
O O7 0.053973 0.000000 0.773502
O O8 0.801822 0.155993 0.823997
O O9 0.764784 0.126884 0.665661
O O10 0.810445 0.000000 0.745008
O O11 0.063531 0.500000 0.789740
O O12 0.040073 0.369291 0.669396
O O13 0.075056 0.333714 0.837793
O O14 0.000000 0.397158 0.828778
O O15 0.689542 0.293696 0.500000
O O16 0.688679 0.171072 0.363378
O O17 0.628137 0.285671 0.379760
O O18 0.208995 0.500000 0.859072
O O19 0.235203 0.397729 0.000000
O O20 0.500000 0.000000 0.908026
O O21 0.500000 0.153301 0.000000
O O22 0.432118 0.252571 0.500000
#
# Coordination Sequence:
#
# PCOD8287966 Si02
#       8
#    16  16  16  16  16  16   8  16
#     4   9  17  31  52  76 100 129 165 209 262 311
#     4  10  21  36  52  71 100 136 176 221 263 311
#     4  10  18  32  55  78 104 135 167 207 250 302
#     4   8  17  32  51  75  98 124 167 218 263 310
#     4  10  21  34  50  74 105 138 171 211 252 298
#     4   9  18  33  54  81 107 132 166 205 250 304
#     4   7  12  28  53  75  96 121 153 205 267 315
#     4  11  22  35  51  70 102 142 176 216 260 303
#
# _framework density 17.542684000000001
#
# number of rings (size 3 to 8) (size 9 to 14) (size 15 to 20)
#    0.400    2.200    1.333    1.200    0.000    4.267 
#    0.000    6.000    0.000    0.000    0.000    0.000 
#    0.000    0.000    0.000    0.000    0.000    0.000 
#
# Total GULP energy -743702.171038 kJ/mol
# GULP energy per Si atom -12395.036184 kJ/mol
# Density = 1.750276 g / cm^3
# Si number density = 17.542684 Si / 1000 Ang^3
#
#
#
# Elastic Constant Matrix: (Units=GPa)
#
#
# Indices 1 2 3 4 5 6 
#
# 1 52.5848 17.6001 21.0854 0.0000 0.0000 0.0000
# 2 17.6001 62.0651 39.8110 0.0000 0.0000 0.0000
# 3 21.0854 39.8110 104.3838 0.0000 0.0000 0.0000
# 4 0.0000 0.0000 0.0000 25.8674 0.0000 0.0000
# 5 0.0000 0.0000 0.0000 0.0000 26.1902 0.0000
# 6 0.0000 0.0000 0.0000 0.0000 0.0000 25.5892
#
#
#
# Elastic Compliance Matrix: (Units=1/GPa)
#
#
# Indices 1 2 3 4 5 6 
#
# 1 0.021562 -0.004396 -0.002679 0.000000 0.000000 0.000000
# 2 -0.004396 0.022227 -0.007589 0.000000 0.000000 0.000000
# 3 -0.002679 -0.007589 0.013016 0.000000 0.000000 0.000000
# 4 0.000000 0.000000 0.000000 0.038659 0.000000 0.000000
# 5 0.000000 0.000000 0.000000 0.000000 0.038182 0.000000
# 6 0.000000 0.000000 0.000000 0.000000 0.000000 0.039079
#
#
# Mechanical properties :
#
#
# Convention : Reuss Voigt Hill
#
# Bulk Modulus (GPa) = 36.39487 41.78075 39.08781
# Shear Modulus (GPa) = 23.67292 24.89849 24.28571
#
# Velocity S-wave (km/s) = 3.67747 3.77146 3.72476
# Velocity P-wave (km/s) = 6.23083 6.54473 6.38971
#
# Compressibility (1/GPa) = 0.02747640
#
# Stress axis : x y z
#
# Youngs Moduli (GPa) = 46.37682 44.99104 76.83121
#
# Poissons Ratio (x) = 0.19779 0.20582
# Poissons Ratio (y) = 0.20388 0.58307
# Poissons Ratio (z) = 0.12424 0.34144
#
# Static dielectric constant tensor:
#      x y z
#    x 3.129190 0.000000 0.000000 
#    y 0.000000 3.134190 0.000000 
#    z 0.000000 0.000000 3.440570 
# 
# 
# High freq. dielectric constant tensor:
#      x y z
#    x 1.666180 0.000000 0.000000 
#    y 0.000000 1.665840 0.000000 
#    z 0.000000 0.000000 1.676580 
# 
# From -- ./inp_files/41169.got.cif
#   From: 2010.06.25/outbox.cif.g09.slc.cpg/sg71_21_cif.got.tgz:41169.got - 2010.06.28 04:59:45.
