data_PCOD8287732
_publ_section_title
;
Structure prediction by ZEFSAII (Michael W. Deem and Ramdas Pophale) SiO2 
 PCOD8287732
Probable space group: I M M M
;
_chemical_formula_sum "Si O2"
_cell_formula_units_Z 80
_cell_length_a 23.462395
_cell_length_b 7.643295
_cell_length_c 23.444100
_cell_angle_alpha 90.000000
_cell_angle_beta 90.000000
_cell_angle_gamma 90.000000
_cell_volume 4204.230603
_symmetry_space_group_name_H-M "I M M M"
_symmetry_group_IT_number 71
_symmetry_cell_setting 'orthorhombic'
loop_
_space_group_symop_operation_xyz
x,y,z
-x,-y,z
x,-y,-z
-x,y,-z
-x,-y,-z
x,y,-z
-x,y,z
x,-y,z
1/2+x,1/2+y,1/2+z
1/2-x,1/2-y,1/2+z
1/2+x,1/2-y,1/2-z
1/2-x,1/2+y,1/2-z
1/2-x,1/2-y,1/2-z
1/2+x,1/2+y,1/2-z
1/2-x,1/2+y,1/2+z
1/2+x,1/2-y,1/2+z
loop_
_atom_site_type_symbol
_atom_site_label
_atom_site_fract_x
_atom_site_fract_y
_atom_site_fract_z
Si Si1 0.434595 0.000000 0.158876
Si Si2 0.840196 0.500000 0.565544
Si Si3 0.436260 0.792227 0.436522
Si Si4 0.874133 0.194336 0.282923
Si Si5 0.220627 0.798284 0.627716
Si Si6 0.848693 0.706261 0.157241
O O1 0.398426 0.000000 0.101151
O O2 0.422092 0.170366 0.197109
O O3 0.500000 0.000000 0.140728
O O4 0.857788 0.500000 0.500000
O O5 0.803798 0.325570 0.578283
O O6 0.420704 0.722958 0.500000
O O7 0.500000 0.729445 0.419800
O O8 0.391212 0.718160 0.391024
O O9 0.433664 0.000000 0.436616
O O10 0.814384 0.236352 0.314197
O O11 0.864259 0.201046 0.215809
O O12 0.895304 0.000000 0.299318
O O13 0.285193 0.742466 0.639274
O O14 0.216235 0.000000 0.607520
O O15 0.855262 0.500000 0.165586
#
# Coordination Sequence:
#
# PCOD8287732 Si02
#       6
#     8   8  16  16  16  16
#     4  10  22  41  60  82 115 149 187 235 284 342
#     4  10  22  39  60  86 113 147 189 235 290 338
#     4   8  15  28  45  67  98 136 179 225 266 309
#     4  10  20  35  55  82 115 147 179 227 284 336
#     4   9  20  35  54  82 116 148 180 227 281 338
#     4  10  18  30  52  83 107 146 192 221 273 334
#
# _framework density 19.028452999999999
#
# number of rings (size 3 to 8) (size 9 to 14) (size 15 to 20)
#    0.000    2.600    1.000    1.200    1.400    2.600 
#    0.000    2.000    0.000    0.000    0.000    7.000 
#    0.000    0.000    0.000    0.000    0.000    0.000 
#
# Total GULP energy -496007.322105 kJ/mol
# GULP energy per Si atom -12400.183053 kJ/mol
# Density = 1.898514 g / cm^3
# Si number density = 19.028453 Si / 1000 Ang^3
#
#
#
# Elastic Constant Matrix: (Units=GPa)
#
#
# Indices 1 2 3 4 5 6 
#
# 1 122.1842 37.7512 75.7100 0.0000 0.0000 0.0000
# 2 37.7512 81.9871 44.9684 0.0000 0.0000 0.0000
# 3 75.7100 44.9684 124.2775 0.0000 0.0000 0.0000
# 4 0.0000 0.0000 0.0000 10.2464 0.0000 0.0000
# 5 0.0000 0.0000 0.0000 0.0000 23.3366 0.0000
# 6 0.0000 0.0000 0.0000 0.0000 0.0000 9.4634
#
#
#
# Elastic Compliance Matrix: (Units=1/GPa)
#
#
# Indices 1 2 3 4 5 6 
#
# 1 0.013436 -0.002117 -0.007419 0.000000 0.000000 0.000000
# 2 -0.002117 0.015551 -0.004337 0.000000 0.000000 0.000000
# 3 -0.007419 -0.004337 0.014135 0.000000 0.000000 0.000000
# 4 0.000000 0.000000 0.000000 0.097595 0.000000 0.000000
# 5 0.000000 0.000000 0.000000 0.000000 0.042851 0.000000
# 6 0.000000 0.000000 0.000000 0.000000 0.000000 0.105670
#
#
# Mechanical properties :
#
#
# Convention : Reuss Voigt Hill
#
# Bulk Modulus (GPa) = 65.03912 71.70087 68.36999
# Shear Modulus (GPa) = 15.52268 19.94392 17.73330
#
# Velocity S-wave (km/s) = 2.85925 3.24097 3.05607
# Velocity P-wave (km/s) = 6.71971 7.19499 6.96141
#
# Compressibility (1/GPa) = 0.01537536
#
# Stress axis : x y z
#
# Youngs Moduli (GPa) = 74.42955 64.30571 70.74478
#
# Poissons Ratio (x) = 0.13616 0.52484
# Poissons Ratio (y) = 0.15759 0.30682
# Poissons Ratio (z) = 0.55218 0.27889
#
# Static dielectric constant tensor:
#      x y z
#    x 3.477250 0.000000 0.000000 
#    y 0.000000 3.464820 0.000000 
#    z 0.000000 0.000000 3.428580 
# 
# 
# High freq. dielectric constant tensor:
#      x y z
#    x 1.731750 0.000000 0.000000 
#    y 0.000000 1.739320 0.000000 
#    z 0.000000 0.000000 1.730500 
# 
# From -- ./inp_files/10218.got.cif
#   From: 2010.06.25/outbox.cif.g09.slc.cpg/sg71_6_cif.got.tgz:10218.got - 2010.06.28 04:59:45.
