data_PCOD8287693
_publ_section_title
;
Structure prediction by ZEFSAII (Michael W. Deem and Ramdas Pophale) SiO2 
 PCOD8287693
Probable space group: I M M M
;
_chemical_formula_sum "Si O2"
_cell_formula_units_Z 104
_cell_length_a 9.474616
_cell_length_b 28.049020
_cell_length_c 22.509555
_cell_angle_alpha 90.000000
_cell_angle_beta 90.000000
_cell_angle_gamma 90.000000
_cell_volume 5981.997384
_symmetry_space_group_name_H-M "I M M M"
_symmetry_group_IT_number 71
_symmetry_cell_setting 'orthorhombic'
loop_
_space_group_symop_operation_xyz
x,y,z
-x,-y,z
x,-y,-z
-x,y,-z
-x,-y,-z
x,y,-z
-x,y,z
x,-y,z
1/2+x,1/2+y,1/2+z
1/2-x,1/2-y,1/2+z
1/2+x,1/2-y,1/2-z
1/2-x,1/2+y,1/2-z
1/2-x,1/2-y,1/2-z
1/2+x,1/2+y,1/2-z
1/2-x,1/2+y,1/2+z
1/2+x,1/2-y,1/2+z
loop_
_atom_site_type_symbol
_atom_site_label
_atom_site_fract_x
_atom_site_fract_y
_atom_site_fract_z
Si Si1 0.831723 0.604435 0.889352
Si Si2 0.169831 0.942675 0.500000
Si Si3 0.667475 0.053348 0.270976
Si Si4 0.659369 0.447042 0.568096
Si Si5 0.658035 0.210331 0.191222
Si Si6 0.159236 0.606358 0.657110
Si Si7 0.335014 0.202938 0.672932
O O1 0.740066 0.584527 0.944043
O O2 0.781761 0.572288 0.834362
O O3 0.792371 0.658926 0.870244
O O4 0.000000 0.600106 0.903048
O O5 0.000000 0.935178 0.500000
O O6 0.204608 0.000000 0.500000
O O7 0.500000 0.056255 0.270405
O O8 0.728643 0.085811 0.217759
O O9 0.724419 0.000000 0.262277
O O10 0.703375 0.447468 0.500000
O O11 0.500000 0.429441 0.576359
O O12 0.678030 0.500000 0.594887
O O13 0.759655 0.410549 0.599962
O O14 0.500000 0.231133 0.194071
O O15 0.665906 0.162941 0.152825
O O16 0.706904 0.195063 0.257814
O O17 0.753429 0.248646 0.156043
O O18 0.000000 0.587321 0.653246
O O19 0.500000 0.211880 0.666037
#
# Coordination Sequence:
#
# PCOD8287693 Si02
#       7
#    16   8  16  16  16  16  16
#     4  10  19  35  58  80 102 136 183 224 259 311
#     4  11  25  41  55  77 111 145 179 225 278 329
#     4   9  16  27  47  76 106 132 162 207 259 304
#     4   9  19  35  51  68  97 137 175 209 248 298
#     4   9  17  30  49  77 111 138 163 202 257 312
#     4  10  18  30  50  78 106 132 166 211 256 301
#     4   9  17  31  52  78 105 133 169 211 251 303
#
# _framework density 17.385497000000001
#
# number of rings (size 3 to 8) (size 9 to 14) (size 15 to 20)
#    0.000    2.538    1.538    1.615    0.000    3.692 
#    0.000    1.538    1.692    2.769    0.000    0.000 
#    0.000    0.000    0.000    0.000    0.000    0.000 
#
# Total GULP energy -644391.755437 kJ/mol
# GULP energy per Si atom -12392.149143 kJ/mol
# Density = 1.734593 g / cm^3
# Si number density = 17.385497 Si / 1000 Ang^3
#
#
#
# Elastic Constant Matrix: (Units=GPa)
#
#
# Indices 1 2 3 4 5 6 
#
# 1 60.0134 51.6981 49.4813 0.0000 0.0000 0.0000
# 2 51.6981 113.9577 57.0202 0.0001 0.0000 0.0000
# 3 49.4813 57.0202 73.5141 0.0003 0.0000 0.0000
# 4 0.0000 0.0001 0.0003 31.0643 0.0000 0.0000
# 5 0.0000 0.0000 0.0000 0.0000 19.8728 0.0000
# 6 0.0000 0.0000 0.0000 0.0000 0.0000 30.2955
#
#
#
# Elastic Compliance Matrix: (Units=1/GPa)
#
#
# Indices 1 2 3 4 5 6 
#
# 1 0.041383 -0.007904 -0.021724 0.000000 0.000000 0.000000
# 2 -0.007904 0.015851 -0.006974 0.000000 0.000000 0.000000
# 3 -0.021724 -0.006974 0.033634 0.000000 0.000000 0.000000
# 4 0.000000 0.000000 0.000000 0.032191 0.000000 0.000000
# 5 0.000000 0.000000 0.000000 0.000000 0.050320 0.000000
# 6 0.000000 0.000000 0.000000 0.000000 0.000000 0.033008
#
#
# Mechanical properties :
#
#
# Convention : Reuss Voigt Hill
#
# Bulk Modulus (GPa) = 56.61242 62.65384 59.63313
# Shear Modulus (GPa) = 17.51439 22.19888 19.85664
#
# Velocity S-wave (km/s) = 3.17742 3.57720 3.38322
# Velocity P-wave (km/s) = 6.78933 7.29233 7.04532
#
# Compressibility (1/GPa) = 0.01766397
#
# Stress axis : x y z
#
# Youngs Moduli (GPa) = 24.16432 63.08915 29.73174
#
# Poissons Ratio (x) = 0.49867 0.64588
# Poissons Ratio (y) = 0.19100 0.20735
# Poissons Ratio (z) = 0.52494 0.43999
#
# Static dielectric constant tensor:
#      x y z
#    x 3.080080 0.000000 0.000000 
#    y 0.000000 3.815580 0.000000 
#    z 0.000000 0.000000 3.096090 
# 
# 
# High freq. dielectric constant tensor:
#      x y z
#    x 1.650320 0.000000 0.000000 
#    y 0.000000 1.678390 0.000000 
#    z 0.000000 0.000000 1.656010 
# 
# From -- ./inp_files/11487.got.cif
#   From: 2010.06.25/outbox.cif.g09.slc.cpg/sg71_6_cif.got.tgz:11487.got - 2010.06.28 04:59:45.
