data_PCOD8287767
_publ_section_title
;
Structure prediction by ZEFSAII (Michael W. Deem and Ramdas Pophale) SiO2 
 PCOD8287767
Probable space group: I M M M
;
_chemical_formula_sum "Si O2"
_cell_formula_units_Z 120
_cell_length_a 24.595871
_cell_length_b 26.169387
_cell_length_c 10.337638
_cell_angle_alpha 90.000000
_cell_angle_beta 90.000000
_cell_angle_gamma 90.000000
_cell_volume 6653.912360
_symmetry_space_group_name_H-M "I M M M"
_symmetry_group_IT_number 71
_symmetry_cell_setting 'orthorhombic'
loop_
_space_group_symop_operation_xyz
x,y,z
-x,-y,z
x,-y,-z
-x,y,-z
-x,-y,-z
x,y,-z
-x,y,z
x,-y,z
1/2+x,1/2+y,1/2+z
1/2-x,1/2-y,1/2+z
1/2+x,1/2-y,1/2-z
1/2-x,1/2+y,1/2-z
1/2-x,1/2-y,1/2-z
1/2+x,1/2+y,1/2-z
1/2-x,1/2+y,1/2+z
1/2+x,1/2-y,1/2+z
loop_
_atom_site_type_symbol
_atom_site_label
_atom_site_fract_x
_atom_site_fract_y
_atom_site_fract_z
Si Si1 0.436256 0.359153 0.650832
Si Si2 0.818672 0.694361 0.352189
Si Si3 0.273278 0.631443 0.220254
Si Si4 0.132139 0.799892 0.352656
Si Si5 0.189196 0.555790 0.138102
Si Si6 0.000000 0.442916 0.347761
Si Si7 0.647884 0.556648 0.350243
Si Si8 0.885865 0.403539 0.351430
O O1 0.424134 0.344232 0.500000
O O2 0.500000 0.366135 0.674515
O O3 0.414180 0.315529 0.749008
O O4 0.406992 0.412529 0.687879
O O5 0.802705 0.701963 0.500000
O O6 0.763332 0.675425 0.285963
O O7 0.841177 0.747800 0.297440
O O8 0.868341 0.654918 0.333677
O O9 0.320837 0.657670 0.139095
O O10 0.235462 0.598464 0.127422
O O11 0.299332 0.591261 0.320895
O O12 0.108710 0.793466 0.500000
O O13 0.216525 0.500000 0.151006
O O14 0.150427 0.561179 0.260710
O O15 0.157275 0.559702 0.000000
O O16 0.052312 0.410439 0.304227
O O17 0.000000 0.500000 0.285741
O O18 0.000000 0.449066 0.500000
O O19 0.648515 0.546445 0.500000
O O20 0.648555 0.500000 0.282232
O O21 0.877740 0.421542 0.500000
#
# Coordination Sequence:
#
# PCOD8287767 Si02
#       8
#    16  16  16  16  16   8  16  16
#     4   9  19  36  55  75 102 135 171 212 259 309
#     4   9  18  32  49  74 103 130 165 208 252 296
#     4  10  18  31  49  71 101 138 166 201 244 300
#     4  10  20  34  52  76 101 130 171 212 252 299
#     4  10  20  32  46  68  99 132 164 197 239 291
#     4   9  16  28  49  73  93 117 153 195 240 289
#     4   9  17  29  49  79 108 133 166 208 253 300
#     4   9  18  33  51  71  95 123 160 204 246 293
#
# _framework density 18.034503000000001
#
# number of rings (size 3 to 8) (size 9 to 14) (size 15 to 20)
#    0.000    2.600    0.000    2.000    0.000    2.400 
#    1.200    5.000    0.000    4.800    0.000    3.733 
#    0.000    0.000    0.000    0.000    0.000    0.000 
#
# Total GULP energy -743441.646601 kJ/mol
# GULP energy per Si atom -12390.694110 kJ/mol
# Density = 1.799346 g / cm^3
# Si number density = 18.034503 Si / 1000 Ang^3
#
#
#
# Elastic Constant Matrix: (Units=GPa)
#
#
# Indices 1 2 3 4 5 6 
#
# 1 102.4321 38.9058 36.7349 0.0000 0.0000 0.0000
# 2 38.9058 105.3390 37.9421 0.0000 0.0000 0.0000
# 3 36.7349 37.9421 69.1228 0.0000 0.0000 0.0000
# 4 0.0000 0.0000 0.0000 18.8695 0.0000 0.0000
# 5 0.0000 0.0000 0.0000 0.0000 18.1292 0.0000
# 6 0.0000 0.0000 0.0000 0.0000 0.0000 7.0206
#
#
#
# Elastic Compliance Matrix: (Units=1/GPa)
#
#
# Indices 1 2 3 4 5 6 
#
# 1 0.012698 -0.002816 -0.005203 0.000000 0.000000 0.000000
# 2 -0.002816 0.012457 -0.005341 0.000000 0.000000 0.000000
# 3 -0.005203 -0.005341 0.020164 0.000000 0.000000 0.000000
# 4 0.000000 0.000000 0.000000 0.052996 0.000000 0.000000
# 5 0.000000 0.000000 0.000000 0.000000 0.055160 0.000000
# 6 0.000000 0.000000 0.000000 0.000000 0.000000 0.142439
#
#
# Mechanical properties :
#
#
# Convention : Reuss Voigt Hill
#
# Bulk Modulus (GPa) = 53.76572 56.00661 54.88617
# Shear Modulus (GPa) = 15.20534 19.69125 17.44829
#
# Velocity S-wave (km/s) = 2.90681 3.30792 3.11383
# Velocity P-wave (km/s) = 6.41432 6.76110 6.58999
#
# Compressibility (1/GPa) = 0.01859921
#
# Stress axis : x y z
#
# Youngs Moduli (GPa) = 78.75329 80.27568 49.59392
#
# Poissons Ratio (x) = 0.22605 0.25801
# Poissons Ratio (y) = 0.22176 0.26490
# Poissons Ratio (z) = 0.40972 0.42878
#
# Static dielectric constant tensor:
#      x y z
#    x 3.349990 0.000000 0.000000 
#    y 0.000000 3.550530 0.000000 
#    z 0.000000 0.000000 3.201860 
# 
# 
# High freq. dielectric constant tensor:
#      x y z
#    x 1.686190 0.000000 0.000000 
#    y 0.000000 1.706260 0.000000 
#    z 0.000000 0.000000 1.683380 
# 
# From -- ./inp_files/15607.got.cif
#   From: 2010.06.25/outbox.cif.g09.slc.cpg/sg71_8_cif.got.tgz:15607.got - 2010.06.28 04:59:45.
