data_PCOD8287752
_publ_section_title
;
Structure prediction by ZEFSAII (Michael W. Deem and Ramdas Pophale) SiO2 
 PCOD8287752
Probable space group: I M M M
;
_chemical_formula_sum "Si O2"
_cell_formula_units_Z 72
_cell_length_a 18.785421
_cell_length_b 27.786869
_cell_length_c 9.198374
_cell_angle_alpha 90.000000
_cell_angle_beta 90.000000
_cell_angle_gamma 90.000000
_cell_volume 4801.441146
_symmetry_space_group_name_H-M "I M M M"
_symmetry_group_IT_number 71
_symmetry_cell_setting 'orthorhombic'
loop_
_space_group_symop_operation_xyz
x,y,z
-x,-y,z
x,-y,-z
-x,y,-z
-x,-y,-z
x,y,-z
-x,y,z
x,-y,z
1/2+x,1/2+y,1/2+z
1/2-x,1/2-y,1/2+z
1/2+x,1/2-y,1/2-z
1/2-x,1/2+y,1/2-z
1/2-x,1/2-y,1/2-z
1/2+x,1/2+y,1/2-z
1/2-x,1/2+y,1/2+z
1/2+x,1/2-y,1/2+z
loop_
_atom_site_type_symbol
_atom_site_label
_atom_site_fract_x
_atom_site_fract_y
_atom_site_fract_z
Si Si1 0.266833 0.818767 0.333940
Si Si2 0.642840 0.726011 0.330405
Si Si3 0.000000 0.235177 0.334408
Si Si4 0.874922 0.602735 0.831875
Si Si5 0.000000 0.348750 0.663708
Si Si6 0.080617 0.500000 0.828376
O O1 0.241118 0.811672 0.500000
O O2 0.328450 0.779772 0.298428
O O3 0.200531 0.812453 0.226892
O O4 0.297964 0.872503 0.308921
O O5 0.629846 0.717314 0.500000
O O6 0.569748 0.715783 0.246883
O O7 0.000000 0.292018 0.329664
O O8 0.000000 0.216089 0.500000
O O9 0.875760 0.547289 0.776957
O O10 0.930440 0.632823 0.741602
O O11 0.897820 0.605670 0.000000
O O12 0.000000 0.368109 0.500000
O O13 0.000000 0.500000 0.763166
O O14 0.074694 0.500000 0.000000
#
# Coordination Sequence:
#
# PCOD8287752 Si02
#       6
#    16  16   8  16   8   8
#     4   9  18  30  44  62  87 117 148 183 223 262
#     4  10  19  30  46  65  86 113 149 184 220 265
#     4  11  21  31  44  64  91 117 149 186 222 263
#     4  10  18  31  47  62  85 119 156 189 221 260
#     4  11  21  28  40  63  88 118 151 187 224 261
#     4   9  16  26  46  68  86 113 154 195 220 248
#
# _framework density 14.995497
#
# number of rings (size 3 to 8) (size 9 to 14) (size 15 to 20)
#    0.000    2.111    3.333    1.333    0.000    2.667 
#    0.000    1.111    0.000    0.000    0.000    0.000 
#    0.000    0.889    0.000   10.444    0.000    2.000 
#
# Total GULP energy -446329.589439 kJ/mol
# GULP energy per Si atom -12398.044151 kJ/mol
# Density = 1.496137 g / cm^3
# Si number density = 14.995497 Si / 1000 Ang^3
#
#
#
# Elastic Constant Matrix: (Units=GPa)
#
#
# Indices 1 2 3 4 5 6 
#
# 1 99.8650 39.4615 56.2344 0.0000 0.0000 0.0000
# 2 39.4615 75.4119 26.3118 0.0000 0.0000 0.0000
# 3 56.2344 26.3118 82.6900 0.0000 0.0001 0.0000
# 4 0.0000 0.0000 0.0000 13.5651 0.0000 0.0000
# 5 0.0000 0.0000 0.0001 0.0000 26.7442 0.0000
# 6 0.0000 0.0000 0.0000 0.0000 0.0000 28.3347
#
#
#
# Elastic Compliance Matrix: (Units=1/GPa)
#
#
# Indices 1 2 3 4 5 6 
#
# 1 0.018287 -0.005883 -0.010564 0.000000 0.000000 0.000000
# 2 -0.005883 0.016809 -0.001348 0.000000 0.000000 0.000000
# 3 -0.010564 -0.001348 0.019707 0.000000 0.000000 0.000000
# 4 0.000000 0.000000 0.000000 0.073719 0.000000 0.000000
# 5 0.000000 0.000000 0.000000 0.000000 0.037391 0.000000
# 6 0.000000 0.000000 0.000000 0.000000 0.000000 0.035292
#
#
# Mechanical properties :
#
#
# Convention : Reuss Voigt Hill
#
# Bulk Modulus (GPa) = 52.04966 55.77579 53.91273
# Shear Modulus (GPa) = 20.55919 22.79274 21.67597
#
# Velocity S-wave (km/s) = 3.70675 3.90291 3.80610
# Velocity P-wave (km/s) = 7.28736 7.58855 7.43948
#
# Compressibility (1/GPa) = 0.01921242
#
# Stress axis : x y z
#
# Youngs Moduli (GPa) = 54.68335 59.49073 50.74443
#
# Poissons Ratio (x) = 0.35000 0.53608
# Poissons Ratio (y) = 0.32172 0.06839
# Poissons Ratio (z) = 0.57769 0.08018
#
# Static dielectric constant tensor:
#      x y z
#    x 2.800880 0.000000 0.000000 
#    y 0.000000 2.916740 0.000000 
#    z 0.000000 0.000000 2.949270 
# 
# 
# High freq. dielectric constant tensor:
#      x y z
#    x 1.558770 0.000000 0.000000 
#    y 0.000000 1.544820 0.000000 
#    z 0.000000 0.000000 1.576320 
# 
# From -- ./inp_files/8238.got.cif
#   From: 2010.06.25/outbox.cif.g09.slc.cpg/sg71_5_cif.got.tgz:8238.got - 2010.06.28 04:59:45.
