data_PCOD8287585
_publ_section_title
;
Structure prediction by ZEFSAII (Michael W. Deem and Ramdas Pophale) SiO2 
 PCOD8287585
Probable space group: I M M M
;
_chemical_formula_sum "Si O2"
_cell_formula_units_Z 88
_cell_length_a 19.143215
_cell_length_b 28.067413
_cell_length_c 9.413544
_cell_angle_alpha 90.000000
_cell_angle_beta 90.000000
_cell_angle_gamma 90.000000
_cell_volume 5057.902101
_symmetry_space_group_name_H-M "I M M M"
_symmetry_group_IT_number 71
_symmetry_cell_setting 'orthorhombic'
loop_
_space_group_symop_operation_xyz
x,y,z
-x,-y,z
x,-y,-z
-x,y,-z
-x,-y,-z
x,y,-z
-x,y,z
x,-y,z
1/2+x,1/2+y,1/2+z
1/2-x,1/2-y,1/2+z
1/2+x,1/2-y,1/2-z
1/2-x,1/2+y,1/2-z
1/2-x,1/2-y,1/2-z
1/2+x,1/2+y,1/2-z
1/2-x,1/2+y,1/2+z
1/2+x,1/2-y,1/2+z
loop_
_atom_site_type_symbol
_atom_site_label
_atom_site_fract_x
_atom_site_fract_y
_atom_site_fract_z
Si Si1 0.373352 0.554595 0.836894
Si Si2 0.000000 0.302403 0.661043
Si Si3 0.500000 0.295952 0.286272
Si Si4 0.274175 0.637677 0.836357
Si Si5 0.865343 0.680635 0.834271
Si Si6 0.000000 0.902590 0.827185
Si Si7 0.346398 0.285149 0.348072
O O1 0.352609 0.500000 0.812339
O O2 0.303582 0.585102 0.804373
O O3 0.432624 0.568433 0.724346
O O4 0.398909 0.562983 0.000000
O O5 0.066787 0.325620 0.738024
O O6 0.000000 0.319995 0.500000
O O7 0.000000 0.244242 0.661153
O O8 0.500000 0.351916 0.243941
O O9 0.430004 0.286570 0.374571
O O10 0.192967 0.641368 0.788895
O O11 0.323936 0.676398 0.765124
O O12 0.278719 0.651010 0.000000
O O13 0.827422 0.731372 0.801812
O O14 0.886650 0.676608 0.000000
O O15 0.000000 0.897096 0.000000
O O16 0.311154 0.297216 0.500000
#
# Coordination Sequence:
#
# PCOD8287585 Si02
#       7
#    16   8   8  16  16   8  16
#     4  10  22  38  53  72 101 134 171 218 264 299
#     4  10  21  34  52  77 103 131 167 202 238 296
#     4  10  20  31  45  69 101 136 170 203 246 289
#     4  10  20  33  50  71  96 130 169 204 251 305
#     4   9  19  34  50  71 101 133 161 199 248 299
#     4  12  22  35  54  73  98 133 180 222 255 294
#     4  10  18  30  47  68  98 131 165 207 250 289
#
# _framework density 17.398516999999998
#
# number of rings (size 3 to 8) (size 9 to 14) (size 15 to 20)
#    0.000    2.000    1.818    2.182    0.000    8.727 
#    0.000    0.000    0.000    0.000    0.000    0.636 
#    0.000    5.091    0.000    0.000    0.000    0.000 
#
# Total GULP energy -545245.347238 kJ/mol
# GULP energy per Si atom -12391.939710 kJ/mol
# Density = 1.735892 g / cm^3
# Si number density = 17.398517 Si / 1000 Ang^3
#
#
#
# Elastic Constant Matrix: (Units=GPa)
#
#
# Indices 1 2 3 4 5 6 
#
# 1 116.3163 63.0195 56.2645 0.0000 0.0000 0.0000
# 2 63.0195 91.9369 33.6193 0.0000 0.0000 0.0000
# 3 56.2645 33.6193 74.5290 0.0000 0.0001 0.0000
# 4 0.0000 0.0000 0.0000 14.9819 0.0000 0.0000
# 5 0.0000 0.0000 0.0001 0.0000 13.9075 0.0000
# 6 0.0000 0.0000 0.0000 0.0000 0.0000 21.9204
#
#
#
# Elastic Compliance Matrix: (Units=1/GPa)
#
#
# Indices 1 2 3 4 5 6 
#
# 1 0.018055 -0.008852 -0.009637 0.000000 0.000000 0.000000
# 2 -0.008852 0.017366 -0.001151 0.000000 0.000000 0.000000
# 3 -0.009637 -0.001151 0.021212 0.000000 0.000000 0.000000
# 4 0.000000 0.000000 0.000000 0.066747 0.000000 0.000000
# 5 0.000000 0.000000 0.000000 0.000000 0.071903 0.000000
# 6 0.000000 0.000000 0.000000 0.000000 0.000000 0.045620
#
#
# Mechanical properties :
#
#
# Convention : Reuss Voigt Hill
#
# Bulk Modulus (GPa) = 57.62792 65.39875 61.51334
# Shear Modulus (GPa) = 17.48455 18.82057 18.15256
#
# Velocity S-wave (km/s) = 3.17353 3.29254 3.23358
# Velocity P-wave (km/s) = 6.82807 7.21975 7.02664
#
# Compressibility (1/GPa) = 0.01735270
#
# Stress axis : x y z
#
# Youngs Moduli (GPa) = 55.38682 57.58544 47.14269
#
# Poissons Ratio (x) = 0.50974 0.45432
# Poissons Ratio (y) = 0.49028 0.05425
# Poissons Ratio (z) = 0.53378 0.06627
#
# Static dielectric constant tensor:
#      x y z
#    x 3.334990 0.000000 0.000000 
#    y 0.000000 3.207280 0.000000 
#    z 0.000000 0.000000 3.112460 
# 
# 
# High freq. dielectric constant tensor:
#      x y z
#    x 1.669290 0.000000 0.000000 
#    y 0.000000 1.643570 0.000000 
#    z 0.000000 0.000000 1.666720 
# 
# From -- ./inp_files/8938.got.cif
#   From: 2010.06.25/outbox.cif.g09.slc.cpg/sg71_5_cif.got.tgz:8938.got - 2010.06.28 04:59:45.
