data_PCOD8287554
_publ_section_title
;
Structure prediction by ZEFSAII (Michael W. Deem and Ramdas Pophale) SiO2 
 PCOD8287554
Probable space group: I M M M
;
_chemical_formula_sum "Si O2"
_cell_formula_units_Z 104
_cell_length_a 17.597721
_cell_length_b 27.614673
_cell_length_c 13.054768
_cell_angle_alpha 90.000000
_cell_angle_beta 90.000000
_cell_angle_gamma 90.000000
_cell_volume 6344.033843
_symmetry_space_group_name_H-M "I M M M"
_symmetry_group_IT_number 71
_symmetry_cell_setting 'orthorhombic'
loop_
_space_group_symop_operation_xyz
x,y,z
-x,-y,z
x,-y,-z
-x,y,-z
-x,-y,-z
x,y,-z
-x,y,z
x,-y,z
1/2+x,1/2+y,1/2+z
1/2-x,1/2-y,1/2+z
1/2+x,1/2-y,1/2-z
1/2-x,1/2+y,1/2-z
1/2-x,1/2-y,1/2-z
1/2+x,1/2+y,1/2-z
1/2-x,1/2+y,1/2+z
1/2+x,1/2-y,1/2+z
loop_
_atom_site_type_symbol
_atom_site_label
_atom_site_fract_x
_atom_site_fract_y
_atom_site_fract_z
Si Si1 0.717878 0.634610 0.263540
Si Si2 0.500000 0.442877 0.111270
Si Si3 0.259438 0.787424 0.613258
Si Si4 0.333956 0.556234 0.121328
Si Si5 0.416198 0.773949 0.701801
Si Si6 0.671488 0.808810 0.883031
Si Si7 0.083892 0.169059 0.882441
O O1 0.708700 0.680867 0.189113
O O2 0.724121 0.586840 0.192010
O O3 0.793855 0.641858 0.333177
O O4 0.645015 0.631261 0.338213
O O5 0.500000 0.500000 0.096661
O O6 0.580796 0.428547 0.162352
O O7 0.500000 0.418117 0.000000
O O8 0.239408 0.805079 0.500000
O O9 0.349165 0.796651 0.632915
O O10 0.239347 0.730783 0.627307
O O11 0.317280 0.500000 0.141815
O O12 0.324408 0.567535 0.000000
O O13 0.500000 0.794139 0.670759
O O14 0.400939 0.788861 0.820415
O O15 0.415537 0.716574 0.687649
O O16 0.646798 0.817956 0.000000
O O17 0.000000 0.145025 0.877296
O O18 0.104585 0.182600 0.000000
#
# Coordination Sequence:
#
# PCOD8287554 Si02
#       7
#    16   8  16  16  16  16  16
#     4  11  18  29  47  66  86 121 159 189 226 278
#     4   7  12  26  44  60  83 115 145 179 230 276
#     4  10  18  30  45  65  92 121 151 186 227 270
#     4   9  18  31  46  66  91 117 149 192 237 275
#     4  10  18  30  46  64  87 121 158 189 223 264
#     4  10  19  32  46  64  93 123 151 187 231 272
#     4  10  19  29  42  63  91 121 157 198 232 264
#
# _framework density 16.393355
#
# number of rings (size 3 to 8) (size 9 to 14) (size 15 to 20)
#    0.000    2.231    3.077    3.231    1.077    1.231 
#    0.000    0.000    0.000    1.846    0.000    1.077 
#    0.000    9.846    0.000   39.385    0.000    0.000 
#
# Total GULP energy -644195.792682 kJ/mol
# GULP energy per Si atom -12388.380628 kJ/mol
# Density = 1.635604 g / cm^3
# Si number density = 16.393355 Si / 1000 Ang^3
#
#
#
# Elastic Constant Matrix: (Units=GPa)
#
#
# Indices 1 2 3 4 5 6 
#
# 1 61.7188 12.9763 15.1635 0.0000 0.0000 0.0000
# 2 12.9763 44.6325 26.5149 0.0000 0.0000 0.0000
# 3 15.1635 26.5149 73.1860 -0.0001 -0.0001 -0.0001
# 4 0.0000 0.0000 -0.0001 24.0966 0.0000 0.0000
# 5 0.0000 0.0000 -0.0001 0.0000 20.8952 0.0000
# 6 0.0000 0.0000 -0.0001 0.0000 0.0000 14.8767
#
#
#
# Elastic Compliance Matrix: (Units=1/GPa)
#
#
# Indices 1 2 3 4 5 6 
#
# 1 0.017550 -0.003749 -0.002278 0.000000 0.000000 0.000000
# 2 -0.003749 0.029351 -0.009857 0.000000 0.000000 0.000000
# 3 -0.002278 -0.009857 0.017707 0.000000 0.000000 0.000000
# 4 0.000000 0.000000 0.000000 0.041500 0.000000 0.000000
# 5 0.000000 0.000000 0.000000 0.000000 0.047858 0.000000
# 6 0.000000 0.000000 0.000000 0.000000 0.000000 0.067219
#
#
# Mechanical properties :
#
#
# Convention : Reuss Voigt Hill
#
# Bulk Modulus (GPa) = 30.45062 32.09408 31.27235
# Shear Modulus (GPa) = 18.94656 20.29920 19.62288
#
# Velocity S-wave (km/s) = 3.40332 3.52271 3.46353
# Velocity P-wave (km/s) = 5.83598 6.01381 5.92557
#
# Compressibility (1/GPa) = 0.03284005
#
# Stress axis : x y z
#
# Youngs Moduli (GPa) = 56.97858 34.07041 56.47524
#
# Poissons Ratio (x) = 0.12774 0.12865
# Poissons Ratio (y) = 0.21363 0.55667
# Poissons Ratio (z) = 0.12979 0.33583
#
# Static dielectric constant tensor:
#      x y z
#    x 3.131980 0.000000 0.000000 
#    y 0.000000 2.636160 0.000000 
#    z 0.000000 0.000000 3.213400 
# 
# 
# High freq. dielectric constant tensor:
#      x y z
#    x 1.616770 0.000000 0.000000 
#    y 0.000000 1.571330 0.000000 
#    z 0.000000 0.000000 1.638950 
# 
# From -- ./inp_files/37089.got.cif
#   From: 2010.06.25/outbox.cif.g09.slc.cpg/sg71_19_cif.got.tgz:37089.got - 2010.06.28 04:59:45.
