data_PCOD8287665
_publ_section_title
;
Structure prediction by ZEFSAII (Michael W. Deem and Ramdas Pophale) SiO2 
 PCOD8287665
Probable space group: I M M M
;
_chemical_formula_sum "Si O2"
_cell_formula_units_Z 72
_cell_length_a 12.544005
_cell_length_b 10.681802
_cell_length_c 29.674364
_cell_angle_alpha 90.000000
_cell_angle_beta 90.000000
_cell_angle_gamma 90.000000
_cell_volume 3976.144524
_symmetry_space_group_name_H-M "I M M M"
_symmetry_group_IT_number 71
_symmetry_cell_setting 'orthorhombic'
loop_
_space_group_symop_operation_xyz
x,y,z
-x,-y,z
x,-y,-z
-x,y,-z
-x,-y,-z
x,y,-z
-x,y,z
x,-y,z
1/2+x,1/2+y,1/2+z
1/2-x,1/2-y,1/2+z
1/2+x,1/2-y,1/2-z
1/2-x,1/2+y,1/2-z
1/2-x,1/2-y,1/2-z
1/2+x,1/2+y,1/2-z
1/2-x,1/2+y,1/2+z
1/2+x,1/2-y,1/2+z
loop_
_atom_site_type_symbol
_atom_site_label
_atom_site_fract_x
_atom_site_fract_y
_atom_site_fract_z
Si Si1 0.222212 0.500000 0.804763
Si Si2 0.615595 0.857099 0.000000
Si Si3 0.111604 0.642250 0.000000
Si Si4 0.377924 0.500000 0.886899
Si Si5 0.121261 0.000000 0.221721
Si Si6 0.622978 0.253171 0.337693
Si Si7 0.261732 0.726811 0.075700
O O1 0.312384 0.500000 0.841671
O O2 0.284209 0.500000 0.757802
O O3 0.150798 0.625518 0.810349
O O4 0.680988 0.832042 0.954119
O O5 0.500000 0.786666 0.000000
O O6 0.590463 0.000000 0.000000
O O7 0.170728 0.667546 0.045948
O O8 0.082468 0.500000 0.000000
O O9 0.000000 0.719162 0.000000
O O10 0.500000 0.500000 0.873379
O O11 0.351394 0.376668 0.915166
O O12 0.137877 0.874352 0.193154
O O13 0.000000 0.000000 0.241863
O O14 0.500000 0.243065 0.354205
O O15 0.704402 0.276031 0.379145
#
# Coordination Sequence:
#
# PCOD8287665 Si02
#       7
#     8   8   8   8   8  16  16
#     4  10  20  36  57  83 108 144 177 224 273 328
#     4  10  22  37  54  74 105 147 187 223 261 315
#     4  10  18  30  49  75 108 135 168 217 267 319
#     4  10  19  32  52  79 104 131 172 223 271 322
#     4  10  21  37  57  82 111 145 180 224 272 328
#     4  10  21  36  58  83 112 144 182 224 273 327
#     4  10  20  34  53  78 105 141 177 220 271 318
#
# _framework density 18.107994000000001
#
# number of rings (size 3 to 8) (size 9 to 14) (size 15 to 20)
#    0.000    2.000    1.111    2.667    1.556    0.000 
#    0.000    1.667    0.000    6.000    0.000    0.000 
#    0.000    0.000    0.000    0.000    0.000    0.000 
#
# Total GULP energy -446089.395644 kJ/mol
# GULP energy per Si atom -12391.372101 kJ/mol
# Density = 1.806678 g / cm^3
# Si number density = 18.107994 Si / 1000 Ang^3
#
#
#
# Elastic Constant Matrix: (Units=GPa)
#
#
# Indices 1 2 3 4 5 6 
#
# 1 114.0965 42.7370 35.3636 0.0000 0.0000 0.0000
# 2 42.7370 107.3806 39.7096 0.0000 0.0000 0.0000
# 3 35.3636 39.7096 84.1709 0.0000 0.0000 0.0000
# 4 0.0000 0.0000 0.0000 5.6962 0.0000 0.0000
# 5 0.0000 0.0000 0.0000 0.0000 -87.4066 0.0000
# 6 0.0000 0.0000 0.0000 0.0000 0.0000 27.6669
#
#
#
# Elastic Compliance Matrix: (Units=1/GPa)
#
#
# Indices 1 2 3 4 5 6 
#
# 1 0.010919 -0.003209 -0.003074 0.000000 0.000000 0.000000
# 2 -0.003209 0.012224 -0.004419 0.000000 0.000000 0.000000
# 3 -0.003074 -0.004419 0.015257 0.000000 0.000000 0.000000
# 4 0.000000 0.000000 0.000000 0.175556 0.000000 0.000000
# 5 0.000000 0.000000 0.000000 0.000000 -0.011441 0.000000
# 6 0.000000 0.000000 0.000000 0.000000 0.000000 0.036144
#
#
# Mechanical properties :
#
#
# Convention : Reuss Voigt Hill
#
# Bulk Modulus (GPa) = 58.83435 60.14093 59.48764
# Shear Modulus (GPa) = 18.81624 1.71381 10.26503
#
# Velocity S-wave (km/s) = 3.22702 0.97391 2.38350
# Velocity P-wave (km/s) = 6.81515 5.87785 6.36378
#
# Compressibility (1/GPa) = 0.01699687
#
# Stress axis : x y z
#
# Youngs Moduli (GPa) = 91.58165 81.80680 65.54572
#
# Poissons Ratio (x) = 0.26253 0.20146
# Poissons Ratio (y) = 0.29390 0.28962
# Poissons Ratio (z) = 0.28149 0.36147
#
# Static dielectric constant tensor:
#      x y z
#    x 3.621150 0.000000 0.000000 
#    y 0.000000 3.349670 0.000000 
#    z 0.000000 0.000000 3.352240 
# 
# 
# High freq. dielectric constant tensor:
#      x y z
#    x 1.719440 0.000000 0.000000 
#    y 0.000000 1.697710 0.000000 
#    z 0.000000 0.000000 1.699490 
# 
# From -- ./inp_files/28407.got.cif
#   From: 2010.06.25/outbox.cif.g09.slc.cpg/sg71_15_cif.got.tgz:28407.got - 2010.06.28 04:59:45.
