data_PCOD8287173
_publ_section_title
;
Structure prediction by ZEFSAII (Michael W. Deem and Ramdas Pophale) SiO2 
 PCOD8287173
Probable space group: I M M M
;
_chemical_formula_sum "Si O2"
_cell_formula_units_Z 104
_cell_length_a 13.589944
_cell_length_b 16.669747
_cell_length_c 32.736756
_cell_angle_alpha 90.000000
_cell_angle_beta 90.000000
_cell_angle_gamma 90.000000
_cell_volume 7416.215091
_symmetry_space_group_name_H-M "I M M M"
_symmetry_group_IT_number 71
_symmetry_cell_setting 'orthorhombic'
loop_
_space_group_symop_operation_xyz
x,y,z
-x,-y,z
x,-y,-z
-x,y,-z
-x,-y,-z
x,y,-z
-x,y,z
x,-y,z
1/2+x,1/2+y,1/2+z
1/2-x,1/2-y,1/2+z
1/2+x,1/2-y,1/2-z
1/2-x,1/2+y,1/2-z
1/2-x,1/2-y,1/2-z
1/2+x,1/2+y,1/2-z
1/2-x,1/2+y,1/2+z
1/2+x,1/2-y,1/2+z
loop_
_atom_site_type_symbol
_atom_site_label
_atom_site_fract_x
_atom_site_fract_y
_atom_site_fract_z
Si Si1 0.500000 0.404717 0.045972
Si Si2 0.710213 0.679621 0.823152
Si Si3 0.195894 0.904530 0.592402
Si Si4 0.106885 0.766151 0.199866
Si Si5 0.609580 0.904750 0.546254
Si Si6 0.709257 0.407807 0.262551
Si Si7 0.607215 0.821671 0.785757
O O1 0.500000 0.500000 0.045966
O O2 0.600331 0.373834 0.067446
O O3 0.500000 0.370871 0.000000
O O4 0.682502 0.628155 0.862187
O O5 0.819911 0.715654 0.828609
O O6 0.701897 0.622028 0.783986
O O7 0.639166 0.756822 0.819776
O O8 0.298770 0.871445 0.573089
O O9 0.198125 0.000000 0.594113
O O10 0.138142 0.858196 0.207343
O O11 0.106528 0.725667 0.243715
O O12 0.000000 0.764248 0.178886
O O13 0.624217 0.873643 0.500000
O O14 0.500000 0.877297 0.562213
O O15 0.613807 0.000000 0.546818
O O16 0.678321 0.500000 0.264487
O O17 0.819087 0.396269 0.280736
O O18 0.500000 0.856066 0.797086
#
# Coordination Sequence:
#
# PCOD8287173 Si02
#       7
#     8  16  16  16  16  16  16
#     4   9  18  30  40  52  76 108 135 161 197 241
#     4   9  17  26  38  54  75  99 123 163 203 229
#     4  10  18  26  38  57  77  98 129 167 204 232
#     4   8  15  28  40  51  70 100 129 149 188 246
#     4   8  14  25  39  52  68  93 124 156 189 227
#     4   9  16  26  39  56  74  93 126 167 199 227
#     4   8  15  27  40  50  68 100 129 152 188 238
#
# _framework density 14.023326000000001
#
# number of rings (size 3 to 8) (size 9 to 14) (size 15 to 20)
#    0.000    3.308    0.000    3.231    1.077    3.077 
#    0.000    0.000    0.000    2.769    0.000    0.000 
#    0.000    0.000    0.000    0.000    0.000   61.538 
#
# Total GULP energy -644237.510818 kJ/mol
# GULP energy per Si atom -12389.182900 kJ/mol
# Density = 1.399141 g / cm^3
# Si number density = 14.023326 Si / 1000 Ang^3
#
#
#
# Elastic Constant Matrix: (Units=GPa)
#
#
# Indices 1 2 3 4 5 6 
#
# 1 93.1819 1.3704 25.7087 0.0000 0.0000 0.0000
# 2 1.3704 38.4058 5.8497 0.0000 0.0000 0.0000
# 3 25.7087 5.8497 48.4551 0.0000 0.0000 0.0000
# 4 0.0000 0.0000 0.0000 12.8419 0.0000 0.0000
# 5 0.0000 0.0000 0.0000 0.0000 13.0877 0.0000
# 6 0.0000 0.0000 0.0000 0.0000 0.0000 -3.3573
#
#
#
# Elastic Compliance Matrix: (Units=1/GPa)
#
#
# Indices 1 2 3 4 5 6 
#
# 1 0.012585 0.000579 -0.006747 0.000000 0.000000 0.000000
# 2 0.000579 0.026552 -0.003512 0.000000 0.000000 0.000000
# 3 -0.006747 -0.003512 0.024641 0.000000 0.000000 0.000000
# 4 0.000000 0.000000 0.000000 0.077870 0.000000 0.000000
# 5 0.000000 0.000000 0.000000 0.000000 0.076407 0.000000
# 6 0.000000 0.000000 0.000000 0.000000 0.000000 -0.297862
#
#
# Mechanical properties :
#
#
# Convention : Reuss Voigt Hill
#
# Bulk Modulus (GPa) = 22.51409 27.32227 24.91818
# Shear Modulus (GPa) = -109.55521 14.32207 -47.61657
#
# Velocity S-wave (km/s) = -8.84834 3.19925 -5.83344
# Velocity P-wave (km/s) = 9.39688 5.75957 5.25017
#
# Compressibility (1/GPa) = 0.04441663
#
# Stress axis : x y z
#
# Youngs Moduli (GPa) = 79.46202 37.66180 40.58214
#
# Poissons Ratio (x) = -0.02179 0.27380
# Poissons Ratio (y) = -0.04598 0.14254
# Poissons Ratio (z) = 0.53612 0.13229
#
# Static dielectric constant tensor:
#      x y z
#    x 3.398050 0.000000 0.000000 
#    y 0.000000 2.377940 0.000000 
#    z 0.000000 0.000000 2.501940 
# 
# 
# High freq. dielectric constant tensor:
#      x y z
#    x 1.556760 0.000000 0.000000 
#    y 0.000000 1.489450 0.000000 
#    z 0.000000 0.000000 1.501410 
# 
# From -- ./inp_files/65642.got.cif
#   From: 2010.06.25/outbox.cif.g09.slc.cpg/sg71_33_cif.got.tgz:65642.got - 2010.06.28 04:59:45.
