data_PCOD8287947
_publ_section_title
;
Structure prediction by ZEFSAII (Michael W. Deem and Ramdas Pophale) SiO2 
 PCOD8287947
Probable space group: I M M M
;
_chemical_formula_sum "Si O2"
_cell_formula_units_Z 92
_cell_length_a 22.772380
_cell_length_b 12.845547
_cell_length_c 19.117102
_cell_angle_alpha 90.000000
_cell_angle_beta 90.000000
_cell_angle_gamma 90.000000
_cell_volume 5592.204982
_symmetry_space_group_name_H-M "I M M M"
_symmetry_group_IT_number 71
_symmetry_cell_setting 'orthorhombic'
loop_
_space_group_symop_operation_xyz
x,y,z
-x,-y,z
x,-y,-z
-x,y,-z
-x,-y,-z
x,y,-z
-x,y,z
x,-y,z
1/2+x,1/2+y,1/2+z
1/2-x,1/2-y,1/2+z
1/2+x,1/2-y,1/2-z
1/2-x,1/2+y,1/2-z
1/2-x,1/2-y,1/2-z
1/2+x,1/2+y,1/2-z
1/2-x,1/2+y,1/2+z
1/2+x,1/2-y,1/2+z
loop_
_atom_site_type_symbol
_atom_site_label
_atom_site_fract_x
_atom_site_fract_y
_atom_site_fract_z
Si Si1 0.435160 0.000000 0.621216
Si Si2 0.184373 0.377023 0.261179
Si Si3 0.933740 0.810386 0.000000
Si Si4 0.343224 0.000000 0.500000
Si Si5 0.936590 0.683907 0.228756
Si Si6 0.906382 0.115550 0.150391
Si Si7 0.190731 0.717575 0.000000
Si Si8 0.716600 0.289090 0.350941
O O1 0.383599 0.000000 0.567161
O O2 0.426911 0.895546 0.665437
O O3 0.500000 0.000000 0.586626
O O4 0.185372 0.500000 0.246853
O O5 0.118267 0.336571 0.280529
O O6 0.224473 0.347187 0.326955
O O7 0.207032 0.318554 0.191373
O O8 0.925890 0.879411 0.930615
O O9 0.881181 0.725736 0.000000
O O10 0.000000 0.760452 0.000000
O O11 0.298015 0.904726 0.500000
O O12 0.939706 0.800009 0.197476
O O13 0.000000 0.662971 0.265743
O O14 0.837110 0.132599 0.160688
O O15 0.922117 0.000000 0.177630
O O16 0.221912 0.767530 0.933134
#
# Coordination Sequence:
#
# PCOD8287947 Si02
#       8
#     8  16   8   4  16  16   8  16
#     4  10  19  30  42  66 102 131 168 206 235 279
#     4  10  18  32  54  70  93 128 167 203 251 304
#     4  10  19  30  41  58  89 131 170 199 227 273
#     4  12  19  26  46  68  92 142 167 192 242 286
#     4  10  20  31  46  69  96 124 160 209 248 292
#     4  10  19  30  43  62  92 128 167 203 239 279
#     4  10  22  33  47  69 101 127 168 212 247 296
#     4   9  20  34  48  72  96 127 166 212 248 290
#
# _framework density 16.451471999999999
#
# number of rings (size 3 to 8) (size 9 to 14) (size 15 to 20)
#    0.000    2.087    0.870    4.565    1.217    3.826 
#    0.000    1.304    0.000    0.000    0.000    0.609 
#    0.000    1.391    0.000    0.783    0.000    0.000 
#
# Total GULP energy -570132.401502 kJ/mol
# GULP energy per Si atom -12394.182641 kJ/mol
# Density = 1.641403 g / cm^3
# Si number density = 16.451472 Si / 1000 Ang^3
#
#
#
# Elastic Constant Matrix: (Units=GPa)
#
#
# Indices 1 2 3 4 5 6 
#
# 1 117.0424 22.3935 40.7355 0.0000 0.0000 0.0000
# 2 22.3935 116.5066 18.1432 0.0000 0.0000 0.0000
# 3 40.7355 18.1432 57.2023 0.0000 0.0000 0.0000
# 4 0.0000 0.0000 0.0000 15.0999 0.0000 0.0000
# 5 0.0000 0.0000 0.0000 0.0000 42.8525 0.0000
# 6 0.0000 0.0000 0.0000 0.0000 0.0000 10.1709
#
#
#
# Elastic Compliance Matrix: (Units=1/GPa)
#
#
# Indices 1 2 3 4 5 6 
#
# 1 0.011465 -0.000981 -0.007853 0.000000 0.000000 0.000000
# 2 -0.000981 0.009113 -0.002192 0.000000 0.000000 0.000000
# 3 -0.007853 -0.002192 0.023770 0.000000 0.000000 0.000000
# 4 0.000000 0.000000 0.000000 0.066226 0.000000 0.000000
# 5 0.000000 0.000000 0.000000 0.000000 0.023336 0.000000
# 6 0.000000 0.000000 0.000000 0.000000 0.000000 0.098320
#
#
# Mechanical properties :
#
#
# Convention : Reuss Voigt Hill
#
# Bulk Modulus (GPa) = 44.85243 50.36619 47.60931
# Shear Modulus (GPa) = 19.10487 27.58991 23.34739
#
# Velocity S-wave (km/s) = 3.41146 4.09962 3.77127
# Velocity P-wave (km/s) = 6.54523 7.28633 6.92570
#
# Compressibility (1/GPa) = 0.02229534
#
# Stress axis : x y z
#
# Youngs Moduli (GPa) = 87.22302 109.73260 42.07020
#
# Poissons Ratio (x) = 0.10761 0.33040
# Poissons Ratio (y) = 0.08554 0.09222
# Poissons Ratio (z) = 0.68500 0.24054
#
# Static dielectric constant tensor:
#      x y z
#    x 3.321400 0.000000 0.000000 
#    y 0.000000 3.185590 0.000000 
#    z 0.000000 0.000000 2.802280 
# 
# 
# High freq. dielectric constant tensor:
#      x y z
#    x 1.631380 0.000000 0.000000 
#    y 0.000000 1.647580 0.000000 
#    z 0.000000 0.000000 1.581380 
# 
# From -- ./inp_files/48121.got.cif
#   From: 2010.06.25/outbox.cif.g09.slc.cpg/sg71_25_cif.got.tgz:48121.got - 2010.06.28 04:59:45.
