data_PCOD8287929
_publ_section_title
;
Structure prediction by ZEFSAII (Michael W. Deem and Ramdas Pophale) SiO2 
 PCOD8287929
Probable space group: I M M M
;
_chemical_formula_sum "Si O2"
_cell_formula_units_Z 88
_cell_length_a 28.899768
_cell_length_b 9.133468
_cell_length_c 18.244517
_cell_angle_alpha 90.000000
_cell_angle_beta 90.000000
_cell_angle_gamma 90.000000
_cell_volume 4815.733423
_symmetry_space_group_name_H-M "I M M M"
_symmetry_group_IT_number 71
_symmetry_cell_setting 'orthorhombic'
loop_
_space_group_symop_operation_xyz
x,y,z
-x,-y,z
x,-y,-z
-x,y,-z
-x,-y,-z
x,y,-z
-x,y,z
x,-y,z
1/2+x,1/2+y,1/2+z
1/2-x,1/2-y,1/2+z
1/2+x,1/2-y,1/2-z
1/2-x,1/2+y,1/2-z
1/2-x,1/2-y,1/2-z
1/2+x,1/2+y,1/2-z
1/2-x,1/2+y,1/2+z
1/2+x,1/2-y,1/2+z
loop_
_atom_site_type_symbol
_atom_site_label
_atom_site_fract_x
_atom_site_fract_y
_atom_site_fract_z
Si Si1 0.448547 0.825824 0.500000
Si Si2 0.807418 0.831592 0.818860
Si Si3 0.052425 0.674520 0.289213
Si Si4 0.295729 0.832023 0.169764
Si Si5 0.383498 0.172341 0.080885
Si Si6 0.895825 0.673626 0.142929
O O1 0.500000 0.760752 0.500000
O O2 0.423496 0.767978 0.427273
O O3 0.449828 0.000000 0.500000
O O4 0.757142 0.810557 0.856942
O O5 0.806394 0.775343 0.736068
O O6 0.844740 0.740383 0.864330
O O7 0.822281 0.000000 0.817848
O O8 0.052114 0.500000 0.289418
O O9 0.079940 0.736562 0.360130
O O10 0.078197 0.730313 0.216018
O O11 0.000000 0.735395 0.290776
O O12 0.330767 0.791763 0.104374
O O13 0.303871 0.000000 0.196045
O O14 0.390873 0.000000 0.076689
O O15 0.392174 0.241172 0.000000
O O16 0.891557 0.500000 0.143288
#
# Coordination Sequence:
#
# PCOD8287929 Si02
#       6
#     8  16  16  16  16  16
#     4   9  18  32  53  79 101 129 173 219 258 299
#     4  10  19  30  50  76  99 128 166 206 245 295
#     4   9  16  26  45  72  97 123 157 199 244 287
#     4   9  17  32  50  72  98 130 167 204 246 289
#     4   9  16  27  45  70 100 129 158 197 242 287
#     4  10  18  32  52  73 101 131 162 205 252 300
#
# _framework density 18.273437000000001
#
# number of rings (size 3 to 8) (size 9 to 14) (size 15 to 20)
#    0.000    2.636    1.818    1.091    0.000    3.273 
#    1.636    2.273    0.000    3.273    0.000    0.000 
#    0.000    1.455    0.000    0.000    0.000    0.000 
#
# Total GULP energy -545453.528810 kJ/mol
# GULP energy per Si atom -12396.671109 kJ/mol
# Density = 1.823185 g / cm^3
# Si number density = 18.273437 Si / 1000 Ang^3
#
#
#
# Elastic Constant Matrix: (Units=GPa)
#
#
# Indices 1 2 3 4 5 6 
#
# 1 159.6231 26.6316 77.1730 0.0000 0.0000 0.0000
# 2 26.6316 23.3542 16.7336 0.0000 0.0000 0.0000
# 3 77.1730 16.7336 141.1929 0.0000 0.0000 0.0000
# 4 0.0000 0.0000 0.0000 9.3279 0.0000 0.0000
# 5 0.0000 0.0000 0.0000 0.0000 29.6584 0.0000
# 6 0.0000 0.0000 0.0000 0.0000 0.0000 23.0076
#
#
#
# Elastic Compliance Matrix: (Units=1/GPa)
#
#
# Indices 1 2 3 4 5 6 
#
# 1 0.009696 -0.007933 -0.004359 0.000000 0.000000 0.000000
# 2 -0.007933 0.053283 -0.001979 0.000000 0.000000 0.000000
# 3 -0.004359 -0.001979 0.009700 0.000000 0.000000 0.000000
# 4 0.000000 0.000000 0.000000 0.107206 0.000000 0.000000
# 5 0.000000 0.000000 0.000000 0.000000 0.033717 0.000000
# 6 0.000000 0.000000 0.000000 0.000000 0.000000 0.043464
#
#
# Mechanical properties :
#
#
# Convention : Reuss Voigt Hill
#
# Bulk Modulus (GPa) = 22.65717 62.80516 42.73117
# Shear Modulus (GPa) = 16.64891 25.97426 21.31159
#
# Velocity S-wave (km/s) = 3.02172 3.77426 3.41876
# Velocity P-wave (km/s) = 4.95986 7.31011 6.24652
#
# Compressibility (1/GPa) = 0.04413613
#
# Stress axis : x y z
#
# Youngs Moduli (GPa) = 103.13588 18.76773 103.09503
#
# Poissons Ratio (x) = 0.14889 0.44943
# Poissons Ratio (y) = 0.81818 0.20401
# Poissons Ratio (z) = 0.44961 0.03714
#
# Static dielectric constant tensor:
#      x y z
#    x 3.707830 0.000000 0.000000 
#    y 0.000000 2.889640 0.000000 
#    z 0.000000 0.000000 3.443270 
# 
# 
# High freq. dielectric constant tensor:
#      x y z
#    x 1.726210 0.000000 0.000000 
#    y 0.000000 1.652080 0.000000 
#    z 0.000000 0.000000 1.697700 
# 
# From -- ./inp_files/16622.got.cif
#   From: 2010.06.25/outbox.cif.g09.slc.cpg/sg71_9_cif.got.tgz:16622.got - 2010.06.28 04:59:45.
