data_PCOD8287007
_publ_section_title
;
Structure prediction by ZEFSAII (Michael W. Deem and Ramdas Pophale) SiO2 
 PCOD8287007
Probable space group: I M M M
;
_chemical_formula_sum "Si O2"
_cell_formula_units_Z 104
_cell_length_a 15.494695
_cell_length_b 16.256800
_cell_length_c 25.919319
_cell_angle_alpha 90.000000
_cell_angle_beta 90.000000
_cell_angle_gamma 90.000000
_cell_volume 6528.925027
_symmetry_space_group_name_H-M "I M M M"
_symmetry_group_IT_number 71
_symmetry_cell_setting 'orthorhombic'
loop_
_space_group_symop_operation_xyz
x,y,z
-x,-y,z
x,-y,-z
-x,y,-z
-x,-y,-z
x,y,-z
-x,y,z
x,-y,z
1/2+x,1/2+y,1/2+z
1/2-x,1/2-y,1/2+z
1/2+x,1/2-y,1/2-z
1/2-x,1/2+y,1/2-z
1/2-x,1/2-y,1/2-z
1/2+x,1/2+y,1/2-z
1/2-x,1/2+y,1/2+z
1/2+x,1/2-y,1/2+z
loop_
_atom_site_type_symbol
_atom_site_label
_atom_site_fract_x
_atom_site_fract_y
_atom_site_fract_z
Si Si1 0.904952 0.096393 0.246754
Si Si2 0.691004 0.164237 0.647239
Si Si3 0.898769 0.592229 0.056786
Si Si4 0.399197 0.902236 0.250567
Si Si5 0.369020 0.593623 0.858842
Si Si6 0.249810 0.188140 0.203154
Si Si7 0.000000 0.902065 0.441939
O O1 0.896336 0.135911 0.304321
O O2 0.833010 0.129405 0.207883
O O3 0.000000 0.118236 0.224851
O O4 0.889844 0.000000 0.250792
O O5 0.633116 0.161838 0.596231
O O6 0.633062 0.137199 0.695924
O O7 0.766597 0.099261 0.636465
O O8 0.734491 0.255239 0.652587
O O9 0.873811 0.500000 0.075728
O O10 0.000000 0.600281 0.053115
O O11 0.858586 0.608272 0.000000
O O12 0.500000 0.879707 0.241525
O O13 0.339523 0.864205 0.204299
O O14 0.386325 0.000000 0.252194
O O15 0.399264 0.500000 0.856050
O O16 0.417046 0.630961 0.909203
O O17 0.250000 0.250000 0.250000
O O18 0.000000 0.863635 0.500000
O O19 0.000000 0.000000 0.447703
#
# Coordination Sequence:
#
# PCOD8287007 Si02
#       7
#    16  16  16  16  16  16   8
#     4  10  18  30  47  62  84 122 160 188 223 274
#     4  11  20  30  43  70  92 119 154 192 236 275
#     4   9  18  32  49  68  91 123 162 197 227 266
#     4  10  19  31  47  65  91 127 160 194 233 273
#     4  10  17  27  43  59  81 117 155 189 225 265
#     4  10  20  30  41  67  95 119 154 195 230 280
#     4   9  18  30  42  62  86 112 157 203 230 255
#
# _framework density 15.929116
#
# number of rings (size 3 to 8) (size 9 to 14) (size 15 to 20)
#    0.000    2.077    3.846    2.769    0.000    4.923 
#    1.385    1.538    0.000    0.000    0.000    0.000 
#    0.000    2.462    0.000   10.154    0.000    0.000 
#
# Total GULP energy -644245.992109 kJ/mol
# GULP energy per Si atom -12389.346002 kJ/mol
# Density = 1.589286 g / cm^3
# Si number density = 15.929116 Si / 1000 Ang^3
#
#
#
# Elastic Constant Matrix: (Units=GPa)
#
#
# Indices 1 2 3 4 5 6 
#
# 1 109.7033 36.1586 35.3592 0.0000 0.0000 0.0000
# 2 36.1586 49.3293 30.8199 0.0000 0.0000 0.0000
# 3 35.3592 30.8199 74.0781 0.0000 0.0000 0.0000
# 4 0.0000 0.0000 0.0000 19.3944 0.0000 0.0000
# 5 0.0000 0.0000 0.0000 0.0000 20.7979 0.0000
# 6 0.0000 0.0000 0.0000 0.0000 0.0000 19.9045
#
#
#
# Elastic Compliance Matrix: (Units=1/GPa)
#
#
# Indices 1 2 3 4 5 6 
#
# 1 0.012465 -0.007323 -0.002903 0.000000 0.000000 0.000000
# 2 -0.007323 0.031694 -0.009691 0.000000 0.000000 0.000000
# 3 -0.002903 -0.009691 0.018917 0.000000 0.000000 0.000000
# 4 0.000000 0.000000 0.000000 0.051561 0.000000 0.000000
# 5 0.000000 0.000000 0.000000 0.000000 0.048082 0.000000
# 6 0.000000 0.000000 0.000000 0.000000 0.000000 0.050240
#
#
# Mechanical properties :
#
#
# Convention : Reuss Voigt Hill
#
# Bulk Modulus (GPa) = 43.02529 48.64291 45.83410
# Shear Modulus (GPa) = 19.19089 20.73757 19.96423
#
# Velocity S-wave (km/s) = 3.47474 3.61205 3.54406
# Velocity P-wave (km/s) = 6.57020 6.92815 6.75155
#
# Compressibility (1/GPa) = 0.02324215
#
# Stress axis : x y z
#
# Youngs Moduli (GPa) = 80.22528 31.55136 52.86301
#
# Poissons Ratio (x) = 0.23105 0.15347
# Poissons Ratio (y) = 0.58749 0.51229
# Poissons Ratio (z) = 0.23290 0.30576
#
# Static dielectric constant tensor:
#      x y z
#    x 3.263070 0.000000 0.000000 
#    y 0.000000 3.272420 0.000000 
#    z 0.000000 0.000000 3.161850 
# 
# 
# High freq. dielectric constant tensor:
#      x y z
#    x 1.631240 0.000000 0.000000 
#    y 0.000000 1.578160 0.000000 
#    z 0.000000 0.000000 1.571570 
# 
# From -- ./inp_files/60072.got.cif
#   From: 2010.06.25/outbox.cif.g09.slc.cpg/sg71_31_cif.got.tgz:60072.got - 2010.06.28 04:59:45.
