data_PCOD8287297
_publ_section_title
;
Structure prediction by ZEFSAII (Michael W. Deem and Ramdas Pophale) SiO2 
 PCOD8287297
Probable space group: I M M M
;
_chemical_formula_sum "Si O2"
_cell_formula_units_Z 128
_cell_length_a 20.310561
_cell_length_b 17.713463
_cell_length_c 23.243159
_cell_angle_alpha 90.000000
_cell_angle_beta 90.000000
_cell_angle_gamma 90.000000
_cell_volume 8362.199932
_symmetry_space_group_name_H-M "I M M M"
_symmetry_group_IT_number 71
_symmetry_cell_setting 'orthorhombic'
loop_
_space_group_symop_operation_xyz
x,y,z
-x,-y,z
x,-y,-z
-x,y,-z
-x,-y,-z
x,y,-z
-x,y,z
x,-y,z
1/2+x,1/2+y,1/2+z
1/2-x,1/2-y,1/2+z
1/2+x,1/2-y,1/2-z
1/2-x,1/2+y,1/2-z
1/2-x,1/2-y,1/2-z
1/2+x,1/2+y,1/2-z
1/2-x,1/2+y,1/2+z
1/2+x,1/2-y,1/2+z
loop_
_atom_site_type_symbol
_atom_site_label
_atom_site_fract_x
_atom_site_fract_y
_atom_site_fract_z
Si Si1 0.806214 0.411010 0.864759
Si Si2 0.728987 0.303179 0.063143
Si Si3 0.157372 0.341439 0.567599
Si Si4 0.925254 0.341616 0.067316
Si Si5 0.573945 0.911525 0.842447
Si Si6 0.855113 0.197439 0.063263
Si Si7 0.223676 0.912188 0.868684
Si Si8 0.190892 0.410833 0.735777
O O1 0.795610 0.500000 0.866370
O O2 0.742530 0.373396 0.894948
O O3 0.875617 0.391809 0.894856
O O4 0.804818 0.377611 0.799874
O O5 0.671377 0.246488 0.084278
O O6 0.794120 0.253568 0.059780
O O7 0.711882 0.335678 0.000000
O O8 0.148213 0.350804 0.500000
O O9 0.090632 0.367295 0.598759
O O10 0.217199 0.395672 0.587048
O O11 0.916351 0.251643 0.080010
O O12 0.000000 0.364046 0.083544
O O13 0.910917 0.357993 0.000000
O O14 0.500000 0.892209 0.823335
O O15 0.622695 0.882345 0.792511
O O16 0.583539 0.000000 0.854258
O O17 0.841732 0.133569 0.111592
O O18 0.866061 0.159926 0.000000
O O19 0.247225 0.886496 0.804569
O O20 0.205779 0.000000 0.870065
O O21 0.188812 0.500000 0.739700
#
# Coordination Sequence:
#
# PCOD8287297 Si02
#       8
#    16  16  16  16  16  16  16  16
#     4  10  18  28  44  62  78  99 131 167 199 238
#     4   8  15  27  40  56  80 103 122 155 204 247
#     4   9  16  26  39  56  81 108 131 158 197 241
#     4   9  18  31  43  56  79 108 132 158 197 240
#     4   9  17  28  40  55  80 113 144 170 191 215
#     4   8  14  25  40  57  77 103 132 159 194 237
#     4   9  15  24  39  58  79 102 131 164 194 227
#     4   8  16  28  39  55  81 109 131 158 202 241
#
# _framework density 15.306977
#
# number of rings (size 3 to 8) (size 9 to 14) (size 15 to 20)
#    0.000    3.250    0.000    3.375    0.000    3.750 
#    0.000   12.500    0.000    0.375    0.000    1.750 
#    0.000    0.500    0.000    6.125    0.000    1.875 
#
# Total GULP energy -793006.366842 kJ/mol
# GULP energy per Si atom -12390.724482 kJ/mol
# Density = 1.527214 g / cm^3
# Si number density = 15.306977 Si / 1000 Ang^3
#
#
#
# Elastic Constant Matrix: (Units=GPa)
#
#
# Indices 1 2 3 4 5 6 
#
# 1 26.1547 21.1610 23.8188 0.0000 0.0000 0.0000
# 2 21.1610 60.6254 42.3632 0.0000 0.0000 0.0000
# 3 23.8188 42.3632 102.8588 0.0000 0.0000 0.0000
# 4 0.0000 0.0000 0.0000 15.4423 0.0000 0.0000
# 5 0.0000 0.0000 0.0000 0.0000 15.1759 0.0000
# 6 0.0000 0.0000 0.0000 0.0000 0.0000 20.6670
#
#
#
# Elastic Compliance Matrix: (Units=1/GPa)
#
#
# Indices 1 2 3 4 5 6 
#
# 1 0.056641 -0.014890 -0.006984 0.000000 0.000000 0.000000
# 2 -0.014890 0.027075 -0.007703 0.000000 0.000000 0.000000
# 3 -0.006984 -0.007703 0.014512 0.000000 0.000000 0.000000
# 4 0.000000 0.000000 0.000000 0.064757 0.000000 0.000000
# 5 0.000000 0.000000 0.000000 0.000000 0.065894 0.000000
# 6 0.000000 0.000000 0.000000 0.000000 0.000000 0.048386
#
#
# Mechanical properties :
#
#
# Convention : Reuss Voigt Hill
#
# Bulk Modulus (GPa) = 25.59241 40.48055 33.03648
# Shear Modulus (GPa) = 14.30848 17.07677 15.69263
#
# Velocity S-wave (km/s) = 3.06072 3.34371 3.20534
# Velocity P-wave (km/s) = 5.40799 6.43510 5.94377
#
# Compressibility (1/GPa) = 0.03907408
#
# Stress axis : x y z
#
# Youngs Moduli (GPa) = 17.65495 36.93504 68.91011
#
# Poissons Ratio (x) = 0.54998 0.48124
# Poissons Ratio (y) = 0.26289 0.53079
# Poissons Ratio (z) = 0.12330 0.28450
#
# Static dielectric constant tensor:
#      x y z
#    x 2.879130 0.000000 0.000000 
#    y 0.000000 2.912020 0.000000 
#    z 0.000000 0.000000 3.179260 
# 
# 
# High freq. dielectric constant tensor:
#      x y z
#    x 1.549990 0.000000 0.000000 
#    y 0.000000 1.565630 0.000000 
#    z 0.000000 0.000000 1.588360 
# 
# From -- ./inp_files/54468.got.cif
#   From: 2010.06.25/outbox.cif.g09.slc.cpg/sg71_28_cif.got.tgz:54468.got - 2010.06.28 04:59:45.
