data_PCOD8287128
_publ_section_title
;
Structure prediction by ZEFSAII (Michael W. Deem and Ramdas Pophale) SiO2 
 PCOD8287128
Probable space group: I M M M
;
_chemical_formula_sum "Si O2"
_cell_formula_units_Z 72
_cell_length_a 23.652835
_cell_length_b 17.717198
_cell_length_c 8.706190
_cell_angle_alpha 90.000000
_cell_angle_beta 90.000000
_cell_angle_gamma 90.000000
_cell_volume 3648.433054
_symmetry_space_group_name_H-M "I M M M"
_symmetry_group_IT_number 71
_symmetry_cell_setting 'orthorhombic'
loop_
_space_group_symop_operation_xyz
x,y,z
-x,-y,z
x,-y,-z
-x,y,-z
-x,-y,-z
x,y,-z
-x,y,z
x,-y,z
1/2+x,1/2+y,1/2+z
1/2-x,1/2-y,1/2+z
1/2+x,1/2-y,1/2-z
1/2-x,1/2+y,1/2-z
1/2-x,1/2-y,1/2-z
1/2+x,1/2+y,1/2-z
1/2-x,1/2+y,1/2+z
1/2+x,1/2-y,1/2+z
loop_
_atom_site_type_symbol
_atom_site_label
_atom_site_fract_x
_atom_site_fract_y
_atom_site_fract_z
Si Si1 0.111490 0.147497 0.326272
Si Si2 0.000000 0.386190 0.175160
Si Si3 0.500000 0.740554 0.164210
Si Si4 0.123491 0.416696 0.818233
Si Si5 0.810209 0.730886 0.819072
Si Si6 0.565290 0.500000 0.682219
O O1 0.135279 0.136867 0.500000
O O2 0.152400 0.197902 0.224332
O O3 0.052183 0.186769 0.327863
O O4 0.102313 0.068693 0.243741
O O5 0.000000 0.296008 0.191297
O O6 0.940943 0.414971 0.250706
O O7 0.000000 0.411668 0.000000
O O8 0.500000 0.785180 0.000000
O O9 0.149177 0.500000 0.777749
O O10 0.162566 0.348200 0.752456
O O11 0.119120 0.405151 0.000000
O O12 0.750000 0.750000 0.750000
O O13 0.804359 0.723614 0.000000
O O14 0.500000 0.500000 0.743313
O O15 0.564674 0.500000 0.500000
#
# Coordination Sequence:
#
# PCOD8287128 Si02
#       6
#    16   8   8  16  16   8
#     4  11  22  39  61  86 119 160 202 246 301 364
#     4  10  17  30  57  89 117 146 184 233 290 357
#     4  10  20  32  54  85 120 156 191 234 291 360
#     4   9  18  33  57  89 118 146 187 238 291 347
#     4  11  23  41  63  85 115 157 206 255 301 354
#     4  11  23  37  59  93 129 159 195 246 303 366
#
# _framework density 19.734499
#
# number of rings (size 3 to 8) (size 9 to 14) (size 15 to 20)
#    0.000    1.667    3.333    2.000    0.000    2.667 
#    2.000    0.000    0.000    6.000    0.000    0.000 
#    0.000    0.000    0.000    0.000    0.000    0.000 
#
# Total GULP energy -446041.777042 kJ/mol
# GULP energy per Si atom -12390.049362 kJ/mol
# Density = 1.968958 g / cm^3
# Si number density = 19.734499 Si / 1000 Ang^3
#
#
#
# Elastic Constant Matrix: (Units=GPa)
#
#
# Indices 1 2 3 4 5 6 
#
# 1 133.2871 68.3675 24.7975 0.0000 0.0000 0.0000
# 2 68.3675 171.5514 30.4513 0.0000 0.0000 0.0000
# 3 24.7975 30.4513 50.5911 0.0000 0.0000 0.0000
# 4 0.0000 0.0000 0.0000 22.0992 0.0000 0.0000
# 5 0.0000 0.0000 0.0000 0.0000 28.4994 0.0000
# 6 0.0000 0.0000 0.0000 0.0000 0.0000 14.6807
#
#
#
# Elastic Compliance Matrix: (Units=1/GPa)
#
#
# Indices 1 2 3 4 5 6 
#
# 1 0.009757 -0.003403 -0.002734 0.000000 0.000000 0.000000
# 2 -0.003403 0.007713 -0.002975 0.000000 0.000000 0.000000
# 3 -0.002734 -0.002975 0.022897 0.000000 0.000000 0.000000
# 4 0.000000 0.000000 0.000000 0.045250 0.000000 0.000000
# 5 0.000000 0.000000 0.000000 0.000000 0.035088 0.000000
# 6 0.000000 0.000000 0.000000 0.000000 0.000000 0.068117
#
#
# Mechanical properties :
#
#
# Convention : Reuss Voigt Hill
#
# Bulk Modulus (GPa) = 45.15996 66.96248 56.06122
# Shear Modulus (GPa) = 23.31789 28.51008 25.91399
#
# Velocity S-wave (km/s) = 3.44114 3.80502 3.62765
# Velocity P-wave (km/s) = 6.22270 7.30134 6.78350
#
# Compressibility (1/GPa) = 0.02214351
#
# Stress axis : x y z
#
# Youngs Moduli (GPa) = 102.49288 129.64487 43.67393
#
# Poissons Ratio (x) = 0.44118 0.11941
# Poissons Ratio (y) = 0.34878 0.12992
# Poissons Ratio (z) = 0.28022 0.38566
#
# Static dielectric constant tensor:
#      x y z
#    x 3.562420 0.000000 0.000000 
#    y 0.000000 3.714130 0.000000 
#    z 0.000000 0.000000 3.714000 
# 
# 
# High freq. dielectric constant tensor:
#      x y z
#    x 1.763260 0.000000 0.000000 
#    y 0.000000 1.782020 0.000000 
#    z 0.000000 0.000000 1.745060 
# 
# From -- ./inp_files/8012.got.cif
#   From: 2010.06.25/outbox.cif.g09.slc.cpg/sg71_5_cif.got.tgz:8012.got - 2010.06.28 04:59:45.
