data_PCOD8287977
_publ_section_title
;
Structure prediction by ZEFSAII (Michael W. Deem and Ramdas Pophale) SiO2 
 PCOD8287977
Probable space group: I M M M
;
_chemical_formula_sum "Si O2"
_cell_formula_units_Z 96
_cell_length_a 11.825662
_cell_length_b 17.924247
_cell_length_c 24.539053
_cell_angle_alpha 90.000000
_cell_angle_beta 90.000000
_cell_angle_gamma 90.000000
_cell_volume 5201.447034
_symmetry_space_group_name_H-M "I M M M"
_symmetry_group_IT_number 71
_symmetry_cell_setting 'orthorhombic'
loop_
_space_group_symop_operation_xyz
x,y,z
-x,-y,z
x,-y,-z
-x,y,-z
-x,-y,-z
x,y,-z
-x,y,z
x,-y,z
1/2+x,1/2+y,1/2+z
1/2-x,1/2-y,1/2+z
1/2+x,1/2-y,1/2-z
1/2-x,1/2+y,1/2-z
1/2-x,1/2-y,1/2-z
1/2+x,1/2+y,1/2-z
1/2-x,1/2+y,1/2+z
1/2+x,1/2-y,1/2+z
loop_
_atom_site_type_symbol
_atom_site_label
_atom_site_fract_x
_atom_site_fract_y
_atom_site_fract_z
Si Si1 0.133282 0.920438 0.500000
Si Si2 0.133764 0.819901 0.597038
Si Si3 0.633860 0.412552 0.500000
Si Si4 0.866921 0.917207 0.302722
Si Si5 0.500000 0.914186 0.775668
Si Si6 0.725436 0.163443 0.093354
Si Si7 0.500000 0.917939 0.095700
Si Si8 0.730049 0.831952 0.223188
O O1 0.171803 0.880329 0.553990
O O2 0.000000 0.929128 0.500000
O O3 0.194023 0.000000 0.500000
O O4 0.172115 0.854411 0.654386
O O5 0.208500 0.749818 0.580153
O O6 0.000000 0.799941 0.596685
O O7 0.668913 0.500000 0.500000
O O8 0.500000 0.403830 0.500000
O O9 0.677166 0.372400 0.555675
O O10 0.823331 0.889689 0.244613
O O11 0.000000 0.921789 0.301411
O O12 0.819057 0.000000 0.316540
O O13 0.500000 0.921455 0.839805
O O14 0.391663 0.864732 0.757890
O O15 0.500000 0.000000 0.751411
O O16 0.611415 0.122672 0.074906
O O17 0.747638 0.161898 0.158258
O O18 0.500000 0.000000 0.070051
O O19 0.750000 0.750000 0.250000
#
# Coordination Sequence:
#
# PCOD8287977 Si02
#       8
#     8  16   8  16   8  16   8  16
#     4   9  17  28  46  74 108 145 175 203 262 349
#     4  10  18  32  55  83 117 145 177 230 295 347
#     4  11  27  47  61  79 117 163 208 256 297 345
#     4  10  21  35  55  85 122 156 192 238 292 358
#     4   9  20  36  55  80 119 158 190 237 303 361
#     4  11  21  38  61  85 113 152 191 245 304 353
#     4   9  18  33  58  89 111 137 182 238 295 355
#     4  11  22  36  60  87 119 155 198 251 304 365
#
# _framework density 18.456403000000002
#
# number of rings (size 3 to 8) (size 9 to 14) (size 15 to 20)
#    0.000    1.833    2.500    2.000    1.167    5.000 
#    0.000    2.500    0.000    0.000    0.000    0.000 
#    0.000    2.000    0.000    0.000    0.000    0.000 
#
# Total GULP energy -594765.299120 kJ/mol
# GULP energy per Si atom -12390.943732 kJ/mol
# Density = 1.841439 g / cm^3
# Si number density = 18.456403 Si / 1000 Ang^3
#
#
#
# Elastic Constant Matrix: (Units=GPa)
#
#
# Indices 1 2 3 4 5 6 
#
# 1 48.6794 58.1427 37.1650 0.0000 0.0000 0.0000
# 2 58.1427 170.6137 54.2317 0.0000 0.0000 0.0000
# 3 37.1650 54.2317 102.6170 0.0000 0.0000 0.0000
# 4 0.0000 0.0000 0.0000 11.2773 0.0000 0.0000
# 5 0.0000 0.0000 0.0000 0.0000 29.3550 0.0000
# 6 0.0000 0.0000 0.0000 0.0000 0.0000 29.4784
#
#
#
# Elastic Compliance Matrix: (Units=1/GPa)
#
#
# Indices 1 2 3 4 5 6 
#
# 1 0.040361 -0.010947 -0.008832 0.000000 0.000000 0.000000
# 2 -0.010947 0.010014 -0.001327 0.000000 0.000000 0.000000
# 3 -0.008832 -0.001327 0.013645 0.000000 0.000000 0.000000
# 4 0.000000 0.000000 0.000000 0.088674 0.000000 0.000000
# 5 0.000000 0.000000 0.000000 0.000000 0.034066 0.000000
# 6 0.000000 0.000000 0.000000 0.000000 0.000000 0.033923
#
#
# Mechanical properties :
#
#
# Convention : Reuss Voigt Hill
#
# Bulk Modulus (GPa) = 45.85782 68.99876 57.42829
# Shear Modulus (GPa) = 18.50726 25.51352 22.01039
#
# Velocity S-wave (km/s) = 3.17007 3.72205 3.45709
# Velocity P-wave (km/s) = 6.18867 7.47914 6.86429
#
# Compressibility (1/GPa) = 0.02180653
#
# Stress axis : x y z
#
# Youngs Moduli (GPa) = 24.77661 99.86342 73.28538
#
# Poissons Ratio (x) = 1.09319 0.64727
# Poissons Ratio (y) = 0.27123 0.09728
# Poissons Ratio (z) = 0.21883 0.13256
#
# Static dielectric constant tensor:
#      x y z
#    x 3.237420 0.000000 0.000000 
#    y 0.000000 3.846370 0.000000 
#    z 0.000000 0.000000 3.380760 
# 
# 
# High freq. dielectric constant tensor:
#      x y z
#    x 1.681650 0.000000 0.000000 
#    y 0.000000 1.743070 0.000000 
#    z 0.000000 0.000000 1.713380 
# 
# From -- ./inp_files/58922.got.cif
#   From: 2010.06.25/outbox.cif.g09.slc.cpg/sg71_30_cif.got.tgz:58922.got - 2010.06.28 04:59:45.
