data_PCOD8287434
_publ_section_title
;
Structure prediction by ZEFSAII (Michael W. Deem and Ramdas Pophale) SiO2 
 PCOD8287434
Probable space group: I M M M
;
_chemical_formula_sum "Si O2"
_cell_formula_units_Z 96
_cell_length_a 21.457584
_cell_length_b 16.311454
_cell_length_c 17.923825
_cell_angle_alpha 90.000000
_cell_angle_beta 90.000000
_cell_angle_gamma 90.000000
_cell_volume 6273.417514
_symmetry_space_group_name_H-M "I M M M"
_symmetry_group_IT_number 71
_symmetry_cell_setting 'orthorhombic'
loop_
_space_group_symop_operation_xyz
x,y,z
-x,-y,z
x,-y,-z
-x,y,-z
-x,-y,-z
x,y,-z
-x,y,z
x,-y,z
1/2+x,1/2+y,1/2+z
1/2-x,1/2-y,1/2+z
1/2+x,1/2-y,1/2-z
1/2-x,1/2+y,1/2-z
1/2-x,1/2-y,1/2-z
1/2+x,1/2+y,1/2-z
1/2-x,1/2+y,1/2+z
1/2+x,1/2-y,1/2+z
loop_
_atom_site_type_symbol
_atom_site_label
_atom_site_fract_x
_atom_site_fract_y
_atom_site_fract_z
Si Si1 0.756809 0.180805 0.086833
Si Si2 0.367090 0.910587 0.912269
Si Si3 0.822970 0.092295 0.791366
Si Si4 0.309800 0.662890 0.861424
Si Si5 0.429827 0.750614 0.912215
Si Si6 0.427212 0.500000 0.230528
Si Si7 0.146805 0.000000 0.582511
O O1 0.698777 0.126046 0.114300
O O2 0.815438 0.145637 0.133384
O O3 0.741387 0.275454 0.104704
O O4 0.772506 0.171120 0.000000
O O5 0.421763 0.846888 0.891010
O O6 0.379240 0.000000 0.875089
O O7 0.363990 0.921303 0.000000
O O8 0.791300 0.143510 0.724071
O O9 0.793401 0.000000 0.798518
O O10 0.896432 0.080382 0.770251
O O11 0.380452 0.697714 0.866304
O O12 0.308514 0.578656 0.907931
O O13 0.500000 0.723188 0.891673
O O14 0.415850 0.738101 0.000000
O O15 0.500000 0.500000 0.242634
O O16 0.409108 0.500000 0.142843
O O17 0.116629 0.000000 0.500000
#
# Coordination Sequence:
#
# PCOD8287434 Si02
#       7
#    16  16  16  16  16   8   8
#     4  10  18  29  48  69  89 116 154 196 230 274
#     4   8  14  24  39  60  85 112 141 179 221 258
#     4   9  19  32  47  66  90 122 150 185 231 282
#     4  10  18  31  43  64  94 122 155 188 230 271
#     4   9  17  27  39  59  87 118 152 185 217 260
#     4   8  18  33  45  64  92 121 156 192 229 273
#     4  10  18  29  46  67  95 128 159 187 221 271
#
# _framework density 15.302664
#
# number of rings (size 3 to 8) (size 9 to 14) (size 15 to 20)
#    0.500    2.333    0.833    3.500    0.000    4.167 
#    0.000    1.667    0.000    1.000    0.000    0.000 
#    0.000    0.000    0.000    0.083    0.000    3.750 
#
# Total GULP energy -594639.864468 kJ/mol
# GULP energy per Si atom -12388.330510 kJ/mol
# Density = 1.526783 g / cm^3
# Si number density = 15.302664 Si / 1000 Ang^3
#
#
#
# Elastic Constant Matrix: (Units=GPa)
#
#
# Indices 1 2 3 4 5 6 
#
# 1 51.1401 25.1628 39.7257 0.0000 0.0000 0.0000
# 2 25.1628 106.7009 35.5794 0.0000 0.0000 0.0000
# 3 39.7257 35.5794 89.2207 0.0000 0.0000 0.0000
# 4 0.0000 0.0000 0.0000 20.7029 0.0000 0.0000
# 5 0.0000 0.0000 0.0000 0.0000 11.8995 0.0000
# 6 0.0000 0.0000 0.0000 0.0000 0.0000 15.5901
#
#
#
# Elastic Compliance Matrix: (Units=1/GPa)
#
#
# Indices 1 2 3 4 5 6 
#
# 1 0.030757 -0.003099 -0.012459 0.000000 0.000000 0.000000
# 2 -0.003099 0.011122 -0.003055 0.000000 0.000000 0.000000
# 3 -0.012459 -0.003055 0.017974 0.000000 0.000000 0.000000
# 4 0.000000 0.000000 0.000000 0.048302 0.000000 0.000000
# 5 0.000000 0.000000 0.000000 0.000000 0.084037 0.000000
# 6 0.000000 0.000000 0.000000 0.000000 0.000000 0.064143
#
#
# Mechanical properties :
#
#
# Convention : Reuss Voigt Hill
#
# Bulk Modulus (GPa) = 44.19613 49.77748 46.98680
# Shear Modulus (GPa) = 16.60562 19.41143 18.00852
#
# Velocity S-wave (km/s) = 3.29773 3.56546 3.43421
# Velocity P-wave (km/s) = 6.59121 7.03913 6.81885
#
# Compressibility (1/GPa) = 0.02262641
#
# Stress axis : x y z
#
# Youngs Moduli (GPa) = 32.51308 89.91534 55.63640
#
# Poissons Ratio (x) = 0.27864 0.69316
# Poissons Ratio (y) = 0.10075 0.16998
# Poissons Ratio (z) = 0.40507 0.27472
#
# Static dielectric constant tensor:
#      x y z
#    x 2.579710 0.000000 0.000000 
#    y 0.000000 3.266280 0.000000 
#    z 0.000000 0.000000 2.733650 
# 
# 
# High freq. dielectric constant tensor:
#      x y z
#    x 1.540740 0.000000 0.000000 
#    y 0.000000 1.604680 0.000000 
#    z 0.000000 0.000000 1.562040 
# 
# From -- ./inp_files/47452.got.cif
#   From: 2010.06.25/outbox.cif.g09.slc.cpg/sg71_24_cif.got.tgz:47452.got - 2010.06.28 04:59:45.
