data_PCOD8287560
_publ_section_title
;
Structure prediction by ZEFSAII (Michael W. Deem and Ramdas Pophale) SiO2 
 PCOD8287560
Probable space group: I M M M
;
_chemical_formula_sum "Si O2"
_cell_formula_units_Z 104
_cell_length_a 23.047024
_cell_length_b 29.864271
_cell_length_c 9.399847
_cell_angle_alpha 90.000000
_cell_angle_beta 90.000000
_cell_angle_gamma 90.000000
_cell_volume 6469.750855
_symmetry_space_group_name_H-M "I M M M"
_symmetry_group_IT_number 71
_symmetry_cell_setting 'orthorhombic'
loop_
_space_group_symop_operation_xyz
x,y,z
-x,-y,z
x,-y,-z
-x,y,-z
-x,-y,-z
x,y,-z
-x,y,z
x,-y,z
1/2+x,1/2+y,1/2+z
1/2-x,1/2-y,1/2+z
1/2+x,1/2-y,1/2-z
1/2-x,1/2+y,1/2-z
1/2-x,1/2-y,1/2-z
1/2+x,1/2+y,1/2-z
1/2-x,1/2+y,1/2+z
1/2+x,1/2-y,1/2+z
loop_
_atom_site_type_symbol
_atom_site_label
_atom_site_fract_x
_atom_site_fract_y
_atom_site_fract_z
Si Si1 0.897030 0.400007 0.831847
Si Si2 0.930972 0.779951 0.657776
Si Si3 0.933047 0.697627 0.163714
Si Si4 0.655790 0.449583 0.169258
Si Si5 0.215813 0.549657 0.168524
Si Si6 0.000000 0.552985 0.333630
Si Si7 0.564916 0.621691 0.829946
O O1 0.899215 0.347487 0.795377
O O2 0.833535 0.416052 0.780760
O O3 0.943593 0.427232 0.741972
O O4 0.908525 0.408319 0.000000
O O5 0.905180 0.773752 0.500000
O O6 0.905630 0.739681 0.752716
O O7 0.913828 0.828853 0.720110
O O8 0.000000 0.777344 0.653947
O O9 0.000000 0.689543 0.203867
O O10 0.925772 0.709579 0.000000
O O11 0.641166 0.500000 0.220881
O O12 0.720257 0.435518 0.222971
O O13 0.608724 0.415269 0.234266
O O14 0.653102 0.447597 0.000000
O O15 0.201149 0.500000 0.227293
O O16 0.217283 0.547901 0.000000
O O17 0.000000 0.500000 0.312716
O O18 0.000000 0.566189 0.500000
O O19 0.500000 0.611264 0.772986
O O20 0.564222 0.621144 0.000000
#
# Coordination Sequence:
#
# PCOD8287560 Si02
#       7
#    16  16  16  16  16   8  16
#     4  10  18  30  46  62  81 109 144 181 218 256
#     4   8  14  24  38  56  79 110 141 166 199 249
#     4   9  16  26  39  58  80 100 132 177 216 250
#     4   8  13  21  34  56  85 111 138 175 212 245
#     4   8  14  24  39  58  77 102 139 177 211 250
#     4  11  23  33  41  61  91 115 137 173 220 263
#     4   8  13  21  34  55  84 115 143 168 201 253
#
# _framework density 16.074807
#
# number of rings (size 3 to 8) (size 9 to 14) (size 15 to 20)
#    0.000    3.308    0.769    2.538    0.000    2.154 
#    0.000    1.538    0.000    0.923    0.000    1.077 
#    0.000    1.846    0.000    6.000    0.000    6.154 
#
# Total GULP energy -644368.673747 kJ/mol
# GULP energy per Si atom -12391.705264 kJ/mol
# Density = 1.603822 g / cm^3
# Si number density = 16.074807 Si / 1000 Ang^3
#
#
#
# Elastic Constant Matrix: (Units=GPa)
#
#
# Indices 1 2 3 4 5 6 
#
# 1 103.9691 86.1514 25.5222 0.0000 0.0000 0.0000
# 2 86.1514 154.0840 38.5000 0.0000 0.0000 0.0000
# 3 25.5222 38.5000 31.9072 0.0000 0.0000 0.0000
# 4 0.0000 0.0000 0.0000 17.5864 0.0000 0.0000
# 5 0.0000 0.0000 0.0000 0.0000 5.1205 0.0000
# 6 0.0000 0.0000 0.0000 0.0000 0.0000 18.0400
#
#
#
# Elastic Compliance Matrix: (Units=1/GPa)
#
#
# Indices 1 2 3 4 5 6 
#
# 1 0.018154 -0.009337 -0.003255 0.000000 0.000000 0.000000
# 2 -0.009337 0.014093 -0.009537 0.000000 0.000000 0.000000
# 3 -0.003255 -0.009537 0.045452 0.000000 0.000000 0.000000
# 4 0.000000 0.000000 0.000000 0.056862 0.000000 0.000000
# 5 0.000000 0.000000 0.000000 0.000000 0.195293 0.000000
# 6 0.000000 0.000000 0.000000 0.000000 0.000000 0.055432
#
#
# Mechanical properties :
#
#
# Convention : Reuss Voigt Hill
#
# Bulk Modulus (GPa) = 29.90278 65.58972 47.74625
# Shear Modulus (GPa) = 11.34580 17.46850 14.40715
#
# Velocity S-wave (km/s) = 2.65960 3.30009 2.99700
# Velocity P-wave (km/s) = 5.29848 7.44394 6.46089
#
# Compressibility (1/GPa) = 0.03344170
#
# Stress axis : x y z
#
# Youngs Moduli (GPa) = 55.08375 70.95519 22.00127
#
# Poissons Ratio (x) = 0.66251 0.07161
# Poissons Ratio (y) = 0.51432 0.20982
# Poissons Ratio (z) = 0.17930 0.67669
#
# Static dielectric constant tensor:
#      x y z
#    x 3.153780 0.000000 0.000000 
#    y 0.000000 3.359930 0.000000 
#    z 0.000000 0.000000 2.698260 
# 
# 
# High freq. dielectric constant tensor:
#      x y z
#    x 1.594070 0.000000 0.000000 
#    y 0.000000 1.628410 0.000000 
#    z 0.000000 0.000000 1.567540 
# 
# From -- ./inp_files/13599.got.cif
#   From: 2010.06.25/outbox.cif.g09.slc.cpg/sg71_7_cif.got.tgz:13599.got - 2010.06.28 04:59:45.
