data_PCOD8287995
_publ_section_title
;
Structure prediction by ZEFSAII (Michael W. Deem and Ramdas Pophale) SiO2 
 PCOD8287995
Probable space group: I M M M
;
_chemical_formula_sum "Si O2"
_cell_formula_units_Z 88
_cell_length_a 19.032124
_cell_length_b 7.999193
_cell_length_c 28.593996
_cell_angle_alpha 90.000000
_cell_angle_beta 90.000000
_cell_angle_gamma 90.000000
_cell_volume 4353.196647
_symmetry_space_group_name_H-M "I M M M"
_symmetry_group_IT_number 71
_symmetry_cell_setting 'orthorhombic'
loop_
_space_group_symop_operation_xyz
x,y,z
-x,-y,z
x,-y,-z
-x,y,-z
-x,-y,-z
x,y,-z
-x,y,z
x,-y,z
1/2+x,1/2+y,1/2+z
1/2-x,1/2-y,1/2+z
1/2+x,1/2-y,1/2-z
1/2-x,1/2+y,1/2-z
1/2-x,1/2-y,1/2-z
1/2+x,1/2+y,1/2-z
1/2-x,1/2+y,1/2+z
1/2+x,1/2-y,1/2+z
loop_
_atom_site_type_symbol
_atom_site_label
_atom_site_fract_x
_atom_site_fract_y
_atom_site_fract_z
Si Si1 0.800205 0.307677 0.053426
Si Si2 0.331102 0.305021 0.293938
Si Si3 0.920525 0.803576 0.118276
Si Si4 0.659632 0.184891 0.906193
Si Si5 0.578188 0.500000 0.054971
Si Si6 0.820862 0.811507 0.690873
O O1 0.776868 0.500000 0.054955
O O2 0.874904 0.286273 0.078612
O O3 0.741708 0.201040 0.080550
O O4 0.806717 0.245233 0.000000
O O5 0.310310 0.500000 0.296709
O O6 0.393080 0.258888 0.329709
O O7 0.263393 0.196738 0.306648
O O8 0.355022 0.260427 0.240832
O O9 0.000000 0.736970 0.114283
O O10 0.916598 0.000000 0.109423
O O11 0.615937 0.329500 0.930632
O O12 0.650312 0.193801 0.850136
O O13 0.633641 0.000000 0.921956
O O14 0.500000 0.500000 0.076595
O O15 0.575520 0.500000 0.000000
O O16 0.841765 0.000000 0.677274
#
# Coordination Sequence:
#
# PCOD8287995 Si02
#       6
#    16  16  16  16   8  16
#     4  11  23  39  60  88 121 159 212 267 311 368
#     4   9  18  32  53  84 121 161 207 257 315 373
#     4  10  21  37  56  83 122 166 214 265 317 376
#     4  12  23  40  68  99 129 163 208 261 312 368
#     4  11  26  48  70  96 131 165 203 251 315 393
#     4  10  18  32  57  89 125 156 203 261 310 365
#
# _framework density 20.215029999999999
#
# number of rings (size 3 to 8) (size 9 to 14) (size 15 to 20)
#    0.000    1.545    3.636    1.636    0.000    4.364 
#    0.000    3.636    0.000    0.000    0.000    0.000 
#    0.000    0.000    0.000    0.000    0.000    0.000 
#
# Total GULP energy -545619.938674 kJ/mol
# GULP energy per Si atom -12400.453152 kJ/mol
# Density = 2.016902 g / cm^3
# Si number density = 20.215030 Si / 1000 Ang^3
#
#
#
# Elastic Constant Matrix: (Units=GPa)
#
#
# Indices 1 2 3 4 5 6 
#
# 1 88.9417 30.9384 34.6788 0.0000 0.0000 0.0000
# 2 30.9384 98.2107 32.2223 0.0000 0.0000 0.0000
# 3 34.6788 32.2223 127.0902 0.0000 0.0000 0.0000
# 4 0.0000 0.0000 0.0000 25.1648 0.0000 0.0000
# 5 0.0000 0.0000 0.0000 0.0000 27.4413 0.0000
# 6 0.0000 0.0000 0.0000 0.0000 0.0000 15.1051
#
#
#
# Elastic Compliance Matrix: (Units=1/GPa)
#
#
# Indices 1 2 3 4 5 6 
#
# 1 0.013508 -0.003322 -0.002843 0.000000 0.000000 0.000000
# 2 -0.003322 0.011923 -0.002116 0.000000 0.000000 0.000000
# 3 -0.002843 -0.002116 0.009181 0.000000 0.000000 0.000000
# 4 0.000000 0.000000 0.000000 0.039738 0.000000 0.000000
# 5 0.000000 0.000000 0.000000 0.000000 0.036441 0.000000
# 6 0.000000 0.000000 0.000000 0.000000 0.000000 0.066203
#
#
# Mechanical properties :
#
#
# Convention : Reuss Voigt Hill
#
# Bulk Modulus (GPa) = 55.40976 56.65796 56.03386
# Shear Modulus (GPa) = 25.05332 27.96909 26.51121
#
# Velocity S-wave (km/s) = 3.52425 3.72368 3.62534
# Velocity P-wave (km/s) = 6.63552 6.82468 6.73076
#
# Compressibility (1/GPa) = 0.01804736
#
# Stress axis : x y z
#
# Youngs Moduli (GPa) = 74.03205 83.87034 108.92149
#
# Poissons Ratio (x) = 0.27864 0.30972
# Poissons Ratio (y) = 0.24595 0.23053
# Poissons Ratio (z) = 0.21051 0.17751
#
# Static dielectric constant tensor:
#      x y z
#    x 3.500510 0.000000 0.000000 
#    y 0.000000 3.524120 0.000000 
#    z 0.000000 0.000000 3.938630 
# 
# 
# High freq. dielectric constant tensor:
#      x y z
#    x 1.753370 0.000000 0.000000 
#    y 0.000000 1.789150 0.000000 
#    z 0.000000 0.000000 1.806200 
# 
# From -- ./inp_files/70346.got.cif
#   From: 2010.06.25/outbox.cif.g09.slc.cpg/sg71_36_cif.got.tgz:70346.got - 2010.06.28 04:59:45.
