data_PCOD8287475
_publ_section_title
;
Structure prediction by ZEFSAII (Michael W. Deem and Ramdas Pophale) SiO2 
 PCOD8287475
Probable space group: I M M M
;
_chemical_formula_sum "Si O2"
_cell_formula_units_Z 80
_cell_length_a 15.468727
_cell_length_b 14.016992
_cell_length_c 23.126783
_cell_angle_alpha 90.000000
_cell_angle_beta 90.000000
_cell_angle_gamma 90.000000
_cell_volume 5014.465247
_symmetry_space_group_name_H-M "I M M M"
_symmetry_group_IT_number 71
_symmetry_cell_setting 'orthorhombic'
loop_
_space_group_symop_operation_xyz
x,y,z
-x,-y,z
x,-y,-z
-x,y,-z
-x,-y,-z
x,y,-z
-x,y,z
x,-y,z
1/2+x,1/2+y,1/2+z
1/2-x,1/2-y,1/2+z
1/2+x,1/2-y,1/2-z
1/2-x,1/2+y,1/2-z
1/2-x,1/2-y,1/2-z
1/2+x,1/2+y,1/2-z
1/2-x,1/2+y,1/2+z
1/2+x,1/2-y,1/2+z
loop_
_atom_site_type_symbol
_atom_site_label
_atom_site_fract_x
_atom_site_fract_y
_atom_site_fract_z
Si Si1 0.404997 0.887376 0.246205
Si Si2 0.897854 0.390947 0.125079
Si Si3 0.500000 0.606451 0.431369
Si Si4 0.170084 0.785866 0.932235
Si Si5 0.000000 0.387099 0.435617
Si Si6 0.327447 0.112828 0.128760
O O1 0.500000 0.842724 0.233265
O O2 0.373113 0.856513 0.309895
O O3 0.336897 0.858458 0.196443
O O4 0.416613 0.000000 0.245865
O O5 0.869552 0.500000 0.114262
O O6 0.843506 0.326067 0.080803
O O7 0.000000 0.379641 0.114194
O O8 0.500000 0.500000 0.405631
O O9 0.500000 0.604734 0.500000
O O10 0.414877 0.659906 0.409129
O O11 0.249848 0.827636 0.897425
O O12 0.186309 0.801507 0.000000
O O13 0.085413 0.352668 0.402694
O O14 0.000000 0.500000 0.438128
O O15 0.000000 0.343201 0.500000
O O16 0.310689 0.000000 0.120110
#
# Coordination Sequence:
#
# PCOD8287475 Si02
#       6
#    16  16   8  16   8  16
#     4   8  14  28  49  71  94 120 154 196 243 286
#     4   9  18  33  52  70  90 119 159 211 254 278
#     4   9  18  32  44  57  89 131 161 186 219 269
#     4  11  21  31  45  69  96 128 166 194 230 288
#     4   9  16  26  41  64  95 127 153 182 224 268
#     4  10  18  29  47  71  99 128 156 190 231 284
#
# _framework density 15.953844999999999
#
# number of rings (size 3 to 8) (size 9 to 14) (size 15 to 20)
#    0.000    2.600    2.000    2.400    0.000    3.200 
#    0.000    1.000    0.000    0.000    0.000    0.700 
#    0.000    2.400    0.000    0.000    0.000    0.000 
#
# Total GULP energy -495811.508751 kJ/mol
# GULP energy per Si atom -12395.287719 kJ/mol
# Density = 1.591753 g / cm^3
# Si number density = 15.953845 Si / 1000 Ang^3
#
#
#
# Elastic Constant Matrix: (Units=GPa)
#
#
# Indices 1 2 3 4 5 6 
#
# 1 91.1918 35.7284 19.8570 0.0000 0.0000 0.0000
# 2 35.7284 66.8185 17.1507 0.0000 0.0000 0.0000
# 3 19.8570 17.1507 40.7407 0.0000 0.0000 0.0000
# 4 0.0000 0.0000 0.0000 20.9997 0.0000 0.0000
# 5 0.0000 0.0000 0.0000 0.0000 17.9576 0.0000
# 6 0.0000 0.0000 0.0000 0.0000 0.0000 18.6962
#
#
#
# Elastic Compliance Matrix: (Units=1/GPa)
#
#
# Indices 1 2 3 4 5 6 
#
# 1 0.014504 -0.006661 -0.004265 0.000000 0.000000 0.000000
# 2 -0.006661 0.019838 -0.005105 0.000000 0.000000 0.000000
# 3 -0.004265 -0.005105 0.028773 0.000000 0.000000 0.000000
# 4 0.000000 0.000000 0.000000 0.047620 0.000000 0.000000
# 5 0.000000 0.000000 0.000000 0.000000 0.055687 0.000000
# 6 0.000000 0.000000 0.000000 0.000000 0.000000 0.053487
#
#
# Mechanical properties :
#
#
# Convention : Reuss Voigt Hill
#
# Bulk Modulus (GPa) = 32.20227 38.24702 35.22464
# Shear Modulus (GPa) = 19.06058 19.93170 19.49614
#
# Velocity S-wave (km/s) = 3.46024 3.53843 3.49955
# Velocity P-wave (km/s) = 6.01605 6.38119 6.20130
#
# Compressibility (1/GPa) = 0.03105371
#
# Stress axis : x y z
#
# Youngs Moduli (GPa) = 68.94491 50.40904 34.75440
#
# Poissons Ratio (x) = 0.33576 0.14824
# Poissons Ratio (y) = 0.45923 0.17741
# Poissons Ratio (z) = 0.29408 0.25732
#
# Static dielectric constant tensor:
#      x y z
#    x 2.981980 0.000000 0.000000 
#    y 0.000000 2.761830 0.000000 
#    z 0.000000 0.000000 3.295430 
# 
# 
# High freq. dielectric constant tensor:
#      x y z
#    x 1.600170 0.000000 0.000000 
#    y 0.000000 1.577090 0.000000 
#    z 0.000000 0.000000 1.617240 
# 
# From -- ./inp_files/65288.got.cif
#   From: 2010.06.25/outbox.cif.g09.slc.cpg/sg71_33_cif.got.tgz:65288.got - 2010.06.28 04:59:45.
