data_PCOD8287982
_publ_section_title
;
Structure prediction by ZEFSAII (Michael W. Deem and Ramdas Pophale) SiO2 
 PCOD8287982
Probable space group: I M M M
;
_chemical_formula_sum "Si O2"
_cell_formula_units_Z 96
_cell_length_a 23.461699
_cell_length_b 25.465593
_cell_length_c 8.788926
_cell_angle_alpha 90.000000
_cell_angle_beta 90.000000
_cell_angle_gamma 90.000000
_cell_volume 5251.085145
_symmetry_space_group_name_H-M "I M M M"
_symmetry_group_IT_number 71
_symmetry_cell_setting 'orthorhombic'
loop_
_space_group_symop_operation_xyz
x,y,z
-x,-y,z
x,-y,-z
-x,y,-z
-x,-y,-z
x,y,-z
-x,y,z
x,-y,z
1/2+x,1/2+y,1/2+z
1/2-x,1/2-y,1/2+z
1/2+x,1/2-y,1/2-z
1/2-x,1/2+y,1/2-z
1/2-x,1/2-y,1/2-z
1/2+x,1/2+y,1/2-z
1/2-x,1/2+y,1/2+z
1/2+x,1/2-y,1/2+z
loop_
_atom_site_type_symbol
_atom_site_label
_atom_site_fract_x
_atom_site_fract_y
_atom_site_fract_z
Si Si1 0.749509 0.941093 0.819869
Si Si2 0.436408 0.500000 0.680611
Si Si3 0.065100 0.803117 0.322352
Si Si4 0.067304 0.500000 0.171972
Si Si5 0.130804 0.101972 0.180324
Si Si6 0.065214 0.307241 0.178766
Si Si7 0.627857 0.096987 0.819891
O O1 0.803779 0.906704 0.769325
O O2 0.692473 0.912253 0.762452
O O3 0.752492 0.000000 0.750202
O O4 0.749433 0.946402 0.000000
O O5 0.500000 0.500000 0.748597
O O6 0.437239 0.500000 0.500000
O O7 0.404290 0.448354 0.738596
O O8 0.073543 0.792601 0.500000
O O9 0.107718 0.847744 0.267329
O O10 0.081747 0.750741 0.232458
O O11 0.000000 0.819672 0.285200
O O12 0.087834 0.551717 0.256511
O O13 0.000000 0.500000 0.173992
O O14 0.090699 0.500000 0.000000
O O15 0.124228 0.110188 0.000000
O O16 0.107399 0.347045 0.260957
O O17 0.000000 0.320250 0.224129
O O18 0.074345 0.311758 0.000000
O O19 0.624139 0.095667 0.000000
#
# Coordination Sequence:
#
# PCOD8287982 Si02
#       7
#    16   8  16   8  16  16  16
#     4   9  17  33  55  80 109 145 185 225 269 317
#     4   9  16  25  45  79 109 133 170 219 264 312
#     4  10  21  37  56  80 112 146 180 223 276 330
#     4  11  23  36  51  77 113 147 182 227 274 323
#     4  10  18  32  56  81 108 143 185 227 268 319
#     4  10  21  38  59  82 109 141 180 227 277 330
#     4  11  21  35  57  82 110 144 184 226 276 332
#
# _framework density 18.281935000000001
#
# number of rings (size 3 to 8) (size 9 to 14) (size 15 to 20)
#    0.000    2.000    1.667    2.750    0.000    5.333 
#    0.000    2.917    0.000    1.500    0.000    0.000 
#    0.000    0.000    0.000    0.000    0.000    0.000 
#
# Total GULP energy -595295.923480 kJ/mol
# GULP energy per Si atom -12401.998406 kJ/mol
# Density = 1.824032 g / cm^3
# Si number density = 18.281935 Si / 1000 Ang^3
#
#
#
# Elastic Constant Matrix: (Units=GPa)
#
#
# Indices 1 2 3 4 5 6 
#
# 1 127.2595 69.5036 31.8649 0.0000 0.0000 0.0000
# 2 69.5036 115.7475 28.5950 0.0000 0.0000 0.0000
# 3 31.8649 28.5950 51.4808 0.0000 0.0000 0.0000
# 4 0.0000 0.0000 0.0000 42.9990 0.0000 0.0000
# 5 0.0000 0.0000 0.0000 0.0000 19.9742 0.0000
# 6 0.0000 0.0000 0.0000 0.0000 0.0000 17.7453
#
#
#
# Elastic Compliance Matrix: (Units=1/GPa)
#
#
# Indices 1 2 3 4 5 6 
#
# 1 0.012397 -0.006431 -0.004101 0.000000 0.000000 0.000000
# 2 -0.006431 0.013350 -0.003434 0.000000 0.000000 0.000000
# 3 -0.004101 -0.003434 0.023871 0.000000 0.000000 0.000000
# 4 0.000000 0.000000 0.000000 0.023256 0.000000 0.000000
# 5 0.000000 0.000000 0.000000 0.000000 0.050065 0.000000
# 6 0.000000 0.000000 0.000000 0.000000 0.000000 0.056353
#
#
# Mechanical properties :
#
#
# Convention : Reuss Voigt Hill
#
# Bulk Modulus (GPa) = 46.11660 61.60164 53.85912
# Shear Modulus (GPa) = 23.31507 27.11199 25.21353
#
# Velocity S-wave (km/s) = 3.57502 3.85514 3.71772
# Velocity P-wave (km/s) = 6.50546 7.32016 6.92480
#
# Compressibility (1/GPa) = 0.02168416
#
# Stress axis : x y z
#
# Youngs Moduli (GPa) = 80.66307 74.90841 41.89185
#
# Poissons Ratio (x) = 0.48174 0.17181
# Poissons Ratio (y) = 0.51875 0.14388
# Poissons Ratio (z) = 0.33083 0.25727
#
# Static dielectric constant tensor:
#      x y z
#    x 3.586620 0.000000 0.000000 
#    y 0.000000 3.370790 0.000000 
#    z 0.000000 0.000000 3.216020 
# 
# 
# High freq. dielectric constant tensor:
#      x y z
#    x 1.712100 0.000000 0.000000 
#    y 0.000000 1.713200 0.000000 
#    z 0.000000 0.000000 1.692580 
# 
# From -- ./inp_files/12912.got.cif
#   From: 2010.06.25/outbox.cif.g09.slc.cpg/sg71_7_cif.got.tgz:12912.got - 2010.06.28 04:59:45.
