data_PCOD8287450
_publ_section_title
;
Structure prediction by ZEFSAII (Michael W. Deem and Ramdas Pophale) SiO2 
 PCOD8287450
Probable space group: I M M M
;
_chemical_formula_sum "Si O2"
_cell_formula_units_Z 72
_cell_length_a 32.174976
_cell_length_b 13.214874
_cell_length_c 10.175485
_cell_angle_alpha 90.000000
_cell_angle_beta 90.000000
_cell_angle_gamma 90.000000
_cell_volume 4326.496699
_symmetry_space_group_name_H-M "I M M M"
_symmetry_group_IT_number 71
_symmetry_cell_setting 'orthorhombic'
loop_
_space_group_symop_operation_xyz
x,y,z
-x,-y,z
x,-y,-z
-x,y,-z
-x,-y,-z
x,y,-z
-x,y,z
x,-y,z
1/2+x,1/2+y,1/2+z
1/2-x,1/2-y,1/2+z
1/2+x,1/2-y,1/2-z
1/2-x,1/2+y,1/2-z
1/2-x,1/2-y,1/2-z
1/2+x,1/2+y,1/2-z
1/2-x,1/2+y,1/2+z
1/2+x,1/2-y,1/2+z
loop_
_atom_site_type_symbol
_atom_site_label
_atom_site_fract_x
_atom_site_fract_y
_atom_site_fract_z
Si Si1 0.086848 0.804206 0.155748
Si Si2 0.000000 0.115560 0.156847
Si Si3 0.138961 0.000000 0.844899
Si Si4 0.362452 0.113223 0.343846
Si Si5 0.709427 0.500000 0.861577
Si Si6 0.728345 0.180731 0.645663
O O1 0.105244 0.698043 0.211768
O O2 0.040269 0.823531 0.209534
O O3 0.114505 0.899702 0.199437
O O4 0.086080 0.798979 0.000000
O O5 0.000000 0.000000 0.210238
O O6 0.000000 0.111267 0.000000
O O7 0.182000 0.000000 0.768268
O O8 0.148154 0.000000 0.000000
O O9 0.364599 0.110300 0.500000
O O10 0.316291 0.144797 0.299288
O O11 0.373190 0.000000 0.289170
O O12 0.740088 0.591668 0.865146
O O13 0.683155 0.500000 0.000000
O O14 0.722539 0.231362 0.500000
O O15 0.750000 0.250000 0.750000
#
# Coordination Sequence:
#
# PCOD8287450 Si02
#       6
#    16   8   8  16   8  16
#     4   9  16  25  42  66  90 117 150 191 236 278
#     4   9  14  24  39  61  95 119 138 184 246 288
#     4  10  18  29  46  72  96 118 159 203 231 270
#     4   9  16  28  43  59  84 122 160 187 222 281
#     4  10  20  32  45  65  95 127 156 190 240 282
#     4  10  19  32  48  66  90 123 160 197 235 274
#
# _framework density 16.641639999999999
#
# number of rings (size 3 to 8) (size 9 to 14) (size 15 to 20)
#    0.000    2.556    2.222    1.333    0.000    2.667 
#    0.000    0.556    0.000    3.333    0.000    1.556 
#    0.000    0.000    0.000    0.000    0.000   15.444 
#
# Total GULP energy -445973.898725 kJ/mol
# GULP energy per Si atom -12388.163853 kJ/mol
# Density = 1.660376 g / cm^3
# Si number density = 16.641640 Si / 1000 Ang^3
#
#
#
# Elastic Constant Matrix: (Units=GPa)
#
#
# Indices 1 2 3 4 5 6 
#
# 1 131.4862 66.9765 25.1418 0.0000 0.0000 0.0000
# 2 66.9765 145.7502 27.1959 0.0000 0.0000 0.0000
# 3 25.1418 27.1959 33.5304 0.0000 0.0000 0.0000
# 4 0.0000 0.0000 0.0000 30.0858 0.0000 0.0000
# 5 0.0000 0.0000 0.0000 0.0000 14.1326 0.0000
# 6 0.0000 0.0000 0.0000 0.0000 0.0000 26.0669
#
#
#
# Elastic Compliance Matrix: (Units=1/GPa)
#
#
# Indices 1 2 3 4 5 6 
#
# 1 0.010516 -0.003961 -0.004673 0.000000 0.000000 0.000000
# 2 -0.003961 0.009576 -0.004797 0.000000 0.000000 0.000000
# 3 -0.004673 -0.004797 0.037219 0.000000 0.000000 0.000000
# 4 0.000000 0.000000 0.000000 0.033238 0.000000 0.000000
# 5 0.000000 0.000000 0.000000 0.000000 0.070759 0.000000
# 6 0.000000 0.000000 0.000000 0.000000 0.000000 0.038363
#
#
# Mechanical properties :
#
#
# Convention : Reuss Voigt Hill
#
# Bulk Modulus (GPa) = 32.84150 61.04391 46.94271
# Shear Modulus (GPa) = 21.12534 26.82057 23.97296
#
# Velocity S-wave (km/s) = 3.56677 4.01890 3.79956
# Velocity P-wave (km/s) = 6.06134 7.63521 6.89334
#
# Compressibility (1/GPa) = 0.03044928
#
# Stress axis : x y z
#
# Youngs Moduli (GPa) = 95.08997 104.42515 26.86828
#
# Poissons Ratio (x) = 0.41359 0.12555
# Poissons Ratio (y) = 0.37662 0.12890
# Poissons Ratio (z) = 0.44435 0.50097
#
# Static dielectric constant tensor:
#      x y z
#    x 3.337150 0.000000 0.000000 
#    y 0.000000 3.590380 0.000000 
#    z 0.000000 0.000000 22.310800 
# 
# 
# High freq. dielectric constant tensor:
#      x y z
#    x 1.643100 0.000000 0.000000 
#    y 0.000000 1.652100 0.000000 
#    z 0.000000 0.000000 1.576560 
# 
# From -- ./inp_files/6528.got.cif
#   From: 2010.06.25/outbox.cif.g09.slc.cpg/sg71_4_cif.got.tgz:6528.got - 2010.06.28 04:59:45.
