data_PCOD8287020
_publ_section_title
;
Structure prediction by ZEFSAII (Michael W. Deem and Ramdas Pophale) SiO2 
 PCOD8287020
Probable space group: I M M M
;
_chemical_formula_sum "Si O2"
_cell_formula_units_Z 104
_cell_length_a 19.867751
_cell_length_b 14.304477
_cell_length_c 19.530773
_cell_angle_alpha 90.000000
_cell_angle_beta 90.000000
_cell_angle_gamma 90.000000
_cell_volume 5550.602469
_symmetry_space_group_name_H-M "I M M M"
_symmetry_group_IT_number 71
_symmetry_cell_setting 'orthorhombic'
loop_
_space_group_symop_operation_xyz
x,y,z
-x,-y,z
x,-y,-z
-x,y,-z
-x,-y,-z
x,y,-z
-x,y,z
x,-y,z
1/2+x,1/2+y,1/2+z
1/2-x,1/2-y,1/2+z
1/2+x,1/2-y,1/2-z
1/2-x,1/2+y,1/2-z
1/2-x,1/2-y,1/2-z
1/2+x,1/2+y,1/2-z
1/2-x,1/2+y,1/2+z
1/2+x,1/2-y,1/2+z
loop_
_atom_site_type_symbol
_atom_site_label
_atom_site_fract_x
_atom_site_fract_y
_atom_site_fract_z
Si Si1 0.920844 0.103529 0.363671
Si Si2 0.186835 0.890194 0.078257
Si Si3 0.178315 0.603650 0.358492
Si Si4 0.077477 0.271374 0.273245
Si Si5 0.922472 0.254211 0.885066
Si Si6 0.395254 0.099796 0.000000
Si Si7 0.573789 0.692932 0.000000
Si Si8 0.920426 0.395749 0.000000
O O1 0.905336 0.165326 0.296487
O O2 0.889312 0.155323 0.431130
O O3 0.000000 0.094387 0.372993
O O4 0.888689 0.000000 0.355086
O O5 0.245761 0.856853 0.131025
O O6 0.118546 0.838768 0.098926
O O7 0.173928 0.000000 0.086398
O O8 0.206174 0.865405 0.000000
O O9 0.180621 0.500000 0.326440
O O10 0.130860 0.662722 0.309628
O O11 0.151230 0.600214 0.434602
O O12 0.087512 0.284244 0.193066
O O13 0.000000 0.296737 0.294579
O O14 0.896762 0.339906 0.932237
O O15 0.000000 0.230486 0.900961
O O16 0.437807 0.194964 0.000000
O O17 0.436935 0.000000 0.000000
O O18 0.500000 0.648021 0.000000
O O19 0.888047 0.500000 0.000000
O O20 0.000000 0.405550 0.000000
#
# Coordination Sequence:
#
# PCOD8287020 Si02
#       8
#    16  16  16  16  16   8   8   8
#     4   9  17  29  45  67  98 139 184 228 275 325
#     4  10  20  36  60  86 112 147 188 234 289 343
#     4  10  20  35  55  81 114 151 189 227 278 343
#     4  10  21  35  53  81 116 151 188 235 285 337
#     4  10  21  37  59  88 114 143 188 235 289 351
#     4  10  18  29  48  73 101 140 187 229 268 318
#     4  10  17  27  45  69  95 134 188 235 273 321
#     4   9  18  35  59  84 111 143 181 228 282 342
#
# _framework density 18.736705000000001
#
# number of rings (size 3 to 8) (size 9 to 14) (size 15 to 20)
#    0.000    2.231    3.077    0.231    0.000    3.538 
#    0.000    5.385    0.000    0.923    0.000    0.000 
#    0.000    0.000    0.000    0.000    0.000    0.000 
#
# Total GULP energy -644317.085286 kJ/mol
# GULP energy per Si atom -12390.713179 kJ/mol
# Density = 1.869406 g / cm^3
# Si number density = 18.736705 Si / 1000 Ang^3
#
#
#
# Elastic Constant Matrix: (Units=GPa)
#
#
# Indices 1 2 3 4 5 6 
#
# 1 83.4922 54.8110 41.0995 0.0000 0.0000 0.0000
# 2 54.8110 128.0430 63.2468 0.0000 0.0000 0.0000
# 3 41.0995 63.2468 120.5158 0.0000 0.0000 0.0000
# 4 0.0000 0.0000 0.0000 27.3913 0.0000 0.0000
# 5 0.0000 0.0000 0.0000 0.0000 18.5707 0.0000
# 6 0.0000 0.0000 0.0000 0.0000 0.0000 23.4962
#
#
#
# Elastic Compliance Matrix: (Units=1/GPa)
#
#
# Indices 1 2 3 4 5 6 
#
# 1 0.017293 -0.006061 -0.002717 0.000000 0.000000 0.000000
# 2 -0.006061 0.012667 -0.004581 0.000000 0.000000 0.000000
# 3 -0.002717 -0.004581 0.011628 0.000000 0.000000 0.000000
# 4 0.000000 0.000000 0.000000 0.036508 0.000000 0.000000
# 5 0.000000 0.000000 0.000000 0.000000 0.053848 0.000000
# 6 0.000000 0.000000 0.000000 0.000000 0.000000 0.042560
#
#
# Mechanical properties :
#
#
# Convention : Reuss Voigt Hill
#
# Bulk Modulus (GPa) = 67.24139 72.26282 69.75211
# Shear Modulus (GPa) = 24.25083 25.41788 24.83436
#
# Velocity S-wave (km/s) = 3.60153 3.68718 3.64461
# Velocity P-wave (km/s) = 7.29796 7.53514 7.41749
#
# Compressibility (1/GPa) = 0.01487179
#
# Stress axis : x y z
#
# Youngs Moduli (GPa) = 57.82588 78.94587 85.99807
#
# Poissons Ratio (x) = 0.47847 0.23365
# Poissons Ratio (y) = 0.35046 0.39393
# Poissons Ratio (z) = 0.15711 0.36163
#
# Static dielectric constant tensor:
#      x y z
#    x 3.191870 0.000000 0.000000 
#    y 0.000000 3.703340 0.000000 
#    z 0.000000 0.000000 3.640170 
# 
# 
# High freq. dielectric constant tensor:
#      x y z
#    x 1.691070 0.000000 0.000000 
#    y 0.000000 1.728540 0.000000 
#    z 0.000000 0.000000 1.728640 
# 
# From -- ./inp_files/47355.got.cif
#   From: 2010.06.25/outbox.cif.g09.slc.cpg/sg71_24_cif.got.tgz:47355.got - 2010.06.28 04:59:45.
