data_PCOD8287061
_publ_section_title
;
Structure prediction by ZEFSAII (Michael W. Deem and Ramdas Pophale) SiO2 
 PCOD8287061
Probable space group: I M M M
;
_chemical_formula_sum "Si O2"
_cell_formula_units_Z 104
_cell_length_a 28.622256
_cell_length_b 24.496749
_cell_length_c 9.090510
_cell_angle_alpha 90.000000
_cell_angle_beta 90.000000
_cell_angle_gamma 90.000000
_cell_volume 6373.831277
_symmetry_space_group_name_H-M "I M M M"
_symmetry_group_IT_number 71
_symmetry_cell_setting 'orthorhombic'
loop_
_space_group_symop_operation_xyz
x,y,z
-x,-y,z
x,-y,-z
-x,y,-z
-x,-y,-z
x,y,-z
-x,y,z
x,-y,z
1/2+x,1/2+y,1/2+z
1/2-x,1/2-y,1/2+z
1/2+x,1/2-y,1/2-z
1/2-x,1/2+y,1/2-z
1/2-x,1/2-y,1/2-z
1/2+x,1/2+y,1/2-z
1/2-x,1/2+y,1/2+z
1/2+x,1/2-y,1/2+z
loop_
_atom_site_type_symbol
_atom_site_label
_atom_site_fract_x
_atom_site_fract_y
_atom_site_fract_z
Si Si1 0.322742 0.560818 0.324923
Si Si2 0.948130 0.236055 0.825955
Si Si3 0.447344 0.143969 0.675069
Si Si4 0.500000 0.435619 0.171656
Si Si5 0.913692 0.877756 0.824891
Si Si6 0.221206 0.435052 0.336487
Si Si7 0.369860 0.937892 0.673968
O O1 0.322079 0.558063 0.500000
O O2 0.331853 0.500000 0.261383
O O3 0.363775 0.600263 0.268617
O O4 0.271939 0.583894 0.273169
O O5 0.930952 0.295632 0.769738
O O6 0.915182 0.186043 0.776195
O O7 0.000000 0.224300 0.763727
O O8 0.950571 0.238448 0.000000
O O9 0.446689 0.141336 0.500000
O O10 0.500000 0.131637 0.731448
O O11 0.411855 0.098882 0.739269
O O12 0.500000 0.500000 0.197509
O O13 0.454165 0.411448 0.247147
O O14 0.500000 0.420505 0.000000
O O15 0.919934 0.884538 0.000000
O O16 0.212782 0.411378 0.500000
O O17 0.222333 0.500000 0.341999
O O18 0.179258 0.414393 0.233427
O O19 0.367774 0.934382 0.500000
O O20 0.378487 0.000000 0.726981
#
# Coordination Sequence:
#
# PCOD8287061 Si02
#       7
#    16  16  16   8  16  16  16
#     4   8  14  24  40  63  84 101 131 176 217 246
#     4   8  13  23  40  63  83 101 135 177 213 246
#     4   8  14  24  39  61  89 113 132 168 214 249
#     4  11  23  33  39  57  93 125 140 161 212 270
#     4  10  17  28  48  67  80 103 145 189 212 237
#     4   8  14  26  42  58  80 110 137 164 206 254
#     4   9  16  25  40  64  87 108 139 172 203 246
#
# _framework density 16.316717000000001
#
# number of rings (size 3 to 8) (size 9 to 14) (size 15 to 20)
#    0.000    3.308    0.769    2.538    0.000    1.538 
#    0.000    2.308    0.000    5.077    0.000    2.154 
#    0.000    0.000    0.000    0.000    0.000    0.000 
#
# Total GULP energy -644263.516842 kJ/mol
# GULP energy per Si atom -12389.683016 kJ/mol
# Density = 1.627958 g / cm^3
# Si number density = 16.316717 Si / 1000 Ang^3
#
#
#
# Elastic Constant Matrix: (Units=GPa)
#
#
# Indices 1 2 3 4 5 6 
#
# 1 156.8353 84.3465 23.3894 0.0000 0.0000 0.0000
# 2 84.3465 105.7648 19.0631 0.0000 0.0000 0.0000
# 3 23.3894 19.0631 20.1137 0.0000 0.0000 0.0000
# 4 0.0000 0.0000 0.0000 8.3185 0.0000 0.0000
# 5 0.0000 0.0000 0.0000 0.0000 19.0696 0.0000
# 6 0.0000 0.0000 0.0000 0.0000 0.0000 12.6646
#
#
#
# Elastic Compliance Matrix: (Units=1/GPa)
#
#
# Indices 1 2 3 4 5 6 
#
# 1 0.011689 -0.008288 -0.005738 0.000000 0.000000 0.000000
# 2 -0.008288 0.017279 -0.006739 0.000000 0.000000 0.000000
# 3 -0.005738 -0.006739 0.062777 0.000000 0.000000 0.000000
# 4 0.000000 0.000000 0.000000 0.120213 0.000000 0.000000
# 5 0.000000 0.000000 0.000000 0.000000 0.052440 0.000000
# 6 0.000000 0.000000 0.000000 0.000000 0.000000 0.078960
#
#
# Mechanical properties :
#
#
# Convention : Reuss Voigt Hill
#
# Bulk Modulus (GPa) = 19.91419 59.59020 39.75220
# Shear Modulus (GPa) = 12.44944 18.40488 15.42716
#
# Velocity S-wave (km/s) = 2.76522 3.36218 3.07820
# Velocity P-wave (km/s) = 4.73566 7.18836 6.08683
#
# Compressibility (1/GPa) = 0.05021544
#
# Stress axis : x y z
#
# Youngs Moduli (GPa) = 85.55107 57.87417 15.92952
#
# Poissons Ratio (x) = 0.47964 0.09140
# Poissons Ratio (y) = 0.70901 0.10735
# Poissons Ratio (z) = 0.49088 0.39001
#
# Static dielectric constant tensor:
#      x y z
#    x 3.449520 0.000000 0.000000 
#    y 0.000000 3.277680 0.000000 
#    z 0.000000 0.000000 2.684510 
# 
# 
# High freq. dielectric constant tensor:
#      x y z
#    x 1.630370 0.000000 0.000000 
#    y 0.000000 1.612600 0.000000 
#    z 0.000000 0.000000 1.579100 
# 
# From -- ./inp_files/15513.got.cif
#   From: 2010.06.25/outbox.cif.g09.slc.cpg/sg71_8_cif.got.tgz:15513.got - 2010.06.28 04:59:45.
