data_PCOD8287507
_publ_section_title
;
Structure prediction by ZEFSAII (Michael W. Deem and Ramdas Pophale) SiO2 
 PCOD8287507
Probable space group: I M M M
;
_chemical_formula_sum "Si O2"
_cell_formula_units_Z 96
_cell_length_a 27.560987
_cell_length_b 23.849094
_cell_length_c 9.394173
_cell_angle_alpha 90.000000
_cell_angle_beta 90.000000
_cell_angle_gamma 90.000000
_cell_volume 6174.832841
_symmetry_space_group_name_H-M "I M M M"
_symmetry_group_IT_number 71
_symmetry_cell_setting 'orthorhombic'
loop_
_space_group_symop_operation_xyz
x,y,z
-x,-y,z
x,-y,-z
-x,y,-z
-x,-y,-z
x,y,-z
-x,y,z
x,-y,z
1/2+x,1/2+y,1/2+z
1/2-x,1/2-y,1/2+z
1/2+x,1/2-y,1/2-z
1/2-x,1/2+y,1/2-z
1/2-x,1/2-y,1/2-z
1/2+x,1/2+y,1/2-z
1/2-x,1/2+y,1/2+z
1/2+x,1/2-y,1/2+z
loop_
_atom_site_type_symbol
_atom_site_label
_atom_site_fract_x
_atom_site_fract_y
_atom_site_fract_z
Si Si1 0.604857 0.085224 0.654893
Si Si2 0.907099 0.286786 0.836504
Si Si3 0.823601 0.233873 0.663899
Si Si4 0.692779 0.061365 0.161345
Si Si5 0.751360 0.834300 0.836915
Si Si6 0.500000 0.937210 0.764686
Si Si7 0.500000 0.186701 0.158631
O O1 0.620573 0.063635 0.500000
O O2 0.614718 0.151238 0.664882
O O3 0.640025 0.056808 0.767677
O O4 0.548753 0.067693 0.672020
O O5 0.871380 0.243896 0.757539
O O6 0.955633 0.288526 0.745708
O O7 0.916332 0.267198 0.000000
O O8 0.836949 0.219931 0.500000
O O9 0.795825 0.181334 0.734198
O O10 0.790574 0.288530 0.672364
O O11 0.729577 0.107379 0.224947
O O12 0.717460 0.000000 0.172273
O O13 0.682045 0.079230 0.000000
O O14 0.769898 0.840107 0.000000
O O15 0.500000 0.881514 0.863068
O O16 0.500000 0.000000 0.838821
O O17 0.500000 0.211987 0.000000
#
# Coordination Sequence:
#
# PCOD8287507 Si02
#       7
#    16  16  16  16  16   8   8
#     4  10  20  32  46  61  80 109 148 190 233 277
#     4  10  19  32  48  66  89 116 145 182 229 275
#     4  10  18  29  49  70  88 112 145 186 227 268
#     4  10  20  33  47  63  87 117 148 184 227 273
#     4   9  18  31  45  65  90 115 145 183 227 270
#     4  10  21  33  43  59  81 109 147 194 239 275
#     4  10  21  34  48  64  86 114 149 187 225 270
#
# _framework density 15.54698
#
# number of rings (size 3 to 8) (size 9 to 14) (size 15 to 20)
#    0.000    2.167    1.667    2.000    0.000    7.833 
#    0.000    0.000    0.000    0.000    0.000    0.000 
#    0.000    0.000    0.000    0.750    0.000   15.500 
#
# Total GULP energy -594831.050284 kJ/mol
# GULP energy per Si atom -12392.313548 kJ/mol
# Density = 1.551159 g / cm^3
# Si number density = 15.546980 Si / 1000 Ang^3
#
#
#
# Elastic Constant Matrix: (Units=GPa)
#
#
# Indices 1 2 3 4 5 6 
#
# 1 87.7133 49.5645 55.6764 0.0000 0.0000 0.0000
# 2 49.5645 68.6364 33.3147 0.0000 0.0000 0.0000
# 3 55.6764 33.3147 113.9606 0.0000 0.0000 0.0000
# 4 0.0000 0.0000 0.0000 11.6716 0.0000 0.0000
# 5 0.0000 0.0000 0.0000 0.0000 20.7327 0.0000
# 6 0.0000 0.0000 0.0000 0.0000 0.0000 15.4149
#
#
#
# Elastic Compliance Matrix: (Units=1/GPa)
#
#
# Indices 1 2 3 4 5 6 
#
# 1 0.023982 -0.013554 -0.007754 0.000000 0.000000 0.000000
# 2 -0.013554 0.024640 -0.000581 0.000000 0.000000 0.000000
# 3 -0.007754 -0.000581 0.012733 0.000000 0.000000 0.000000
# 4 0.000000 0.000000 0.000000 0.085678 0.000000 0.000000
# 5 0.000000 0.000000 0.000000 0.000000 0.048233 0.000000
# 6 0.000000 0.000000 0.000000 0.000000 0.000000 0.064872
#
#
# Mechanical properties :
#
#
# Convention : Reuss Voigt Hill
#
# Bulk Modulus (GPa) = 56.89665 60.82461 58.86063
# Shear Modulus (GPa) = 16.14072 18.34749 17.24411
#
# Velocity S-wave (km/s) = 3.22559 3.43903 3.33402
# Velocity P-wave (km/s) = 7.10976 7.41467 7.26381
#
# Compressibility (1/GPa) = 0.01757573
#
# Stress axis : x y z
#
# Youngs Moduli (GPa) = 41.69781 40.58514 78.53515
#
# Poissons Ratio (x) = 0.55011 0.60898
# Poissons Ratio (y) = 0.56519 0.04562
# Poissons Ratio (z) = 0.32333 0.02357
#
# Static dielectric constant tensor:
#      x y z
#    x 2.835680 0.000000 0.000000 
#    y 0.000000 2.868760 0.000000 
#    z 0.000000 0.000000 3.066980 
# 
# 
# High freq. dielectric constant tensor:
#      x y z
#    x 1.575500 0.000000 0.000000 
#    y 0.000000 1.563410 0.000000 
#    z 0.000000 0.000000 1.606620 
# 
# From -- ./inp_files/13213.got.cif
#   From: 2010.06.25/outbox.cif.g09.slc.cpg/sg71_7_cif.got.tgz:13213.got - 2010.06.28 04:59:45.
