data_PCOD8287885
_publ_section_title
;
Structure prediction by ZEFSAII (Michael W. Deem and Ramdas Pophale) SiO2 
 PCOD8287885
Probable space group: I M M M
;
_chemical_formula_sum "Si O2"
_cell_formula_units_Z 64
_cell_length_a 7.507920
_cell_length_b 29.323800
_cell_length_c 15.100827
_cell_angle_alpha 90.000000
_cell_angle_beta 90.000000
_cell_angle_gamma 90.000000
_cell_volume 3324.609315
_symmetry_space_group_name_H-M "I M M M"
_symmetry_group_IT_number 71
_symmetry_cell_setting 'orthorhombic'
loop_
_space_group_symop_operation_xyz
x,y,z
-x,-y,z
x,-y,-z
-x,y,-z
-x,-y,-z
x,y,-z
-x,y,z
x,-y,z
1/2+x,1/2+y,1/2+z
1/2-x,1/2-y,1/2+z
1/2+x,1/2-y,1/2-z
1/2-x,1/2+y,1/2-z
1/2-x,1/2-y,1/2-z
1/2+x,1/2+y,1/2-z
1/2-x,1/2+y,1/2+z
1/2+x,1/2-y,1/2+z
loop_
_atom_site_type_symbol
_atom_site_label
_atom_site_fract_x
_atom_site_fract_y
_atom_site_fract_z
Si Si1 0.207700 0.122531 0.172795
Si Si2 0.000000 0.419077 0.095028
Si Si3 0.801027 0.171315 0.000000
Si Si4 0.295588 0.651443 0.135780
Si Si5 0.794585 0.227026 0.500000
Si Si6 0.000000 0.448888 0.714703
O O1 0.286027 0.150821 0.089281
O O2 0.235962 0.154993 0.258525
O O3 0.322245 0.076498 0.181541
O O4 0.000000 0.108775 0.163778
O O5 0.176185 0.388345 0.096520
O O6 0.000000 0.452915 0.178253
O O7 0.000000 0.445335 0.000000
O O8 0.808850 0.225729 0.000000
O O9 0.000000 0.152867 0.000000
O O10 0.500000 0.639420 0.113082
O O11 0.242591 0.698895 0.088487
O O12 0.000000 0.240161 0.500000
O O13 0.000000 0.500000 0.675748
#
# Coordination Sequence:
#
# PCOD8287885 Si02
#       6
#    16   8   8  16   8   8
#     4   9  20  39  57  76 110 146 176 225 281 323
#     4  10  18  31  57  81 112 148 173 219 273 319
#     4  10  22  36  54  79 106 143 188 232 273 312
#     4   9  18  33  51  76 110 149 185 211 261 322
#     4  10  20  30  50  80 109 144 191 223 251 320
#     4  10  22  38  60  86 105 139 186 225 279 342
#
# _framework density 19.250381000000001
#
# number of rings (size 3 to 8) (size 9 to 14) (size 15 to 20)
#    0.000    2.500    1.250    0.000    3.500    1.750 
#    0.000    1.250    0.000    2.250    0.000    7.000 
#    0.000    0.000    0.000    0.000    0.000    0.000 
#
# Total GULP energy -396598.797748 kJ/mol
# GULP energy per Si atom -12393.712430 kJ/mol
# Density = 1.920657 g / cm^3
# Si number density = 19.250381 Si / 1000 Ang^3
#
#
#
# Elastic Constant Matrix: (Units=GPa)
#
#
# Indices 1 2 3 4 5 6 
#
# 1 75.4046 35.6822 31.7291 0.0001 0.0000 0.0000
# 2 35.6822 122.6866 61.4055 0.0003 0.0000 0.0000
# 3 31.7291 61.4055 146.1616 0.0009 0.0000 0.0000
# 4 0.0001 0.0003 0.0009 16.4631 0.0000 0.0000
# 5 0.0000 0.0000 0.0000 0.0000 15.6150 0.0000
# 6 0.0000 0.0000 0.0000 0.0000 0.0000 20.0593
#
#
#
# Elastic Compliance Matrix: (Units=1/GPa)
#
#
# Indices 1 2 3 4 5 6 
#
# 1 0.015783 -0.003641 -0.001896 0.000000 0.000000 0.000000
# 2 -0.003641 0.011161 -0.003899 0.000000 0.000000 0.000000
# 3 -0.001896 -0.003899 0.008891 0.000000 0.000000 0.000000
# 4 0.000000 0.000000 0.000000 0.060742 0.000000 0.000000
# 5 0.000000 0.000000 0.000000 0.000000 0.064041 0.000000
# 6 0.000000 0.000000 0.000000 0.000000 0.000000 0.049852
#
#
# Mechanical properties :
#
#
# Convention : Reuss Voigt Hill
#
# Bulk Modulus (GPa) = 58.95213 66.87628 62.91420
# Shear Modulus (GPa) = 21.27686 24.78986 23.03336
#
# Velocity S-wave (km/s) = 3.32817 3.59243 3.46282
# Velocity P-wave (km/s) = 6.74235 7.21270 6.98149
#
# Compressibility (1/GPa) = 0.01696292
#
# Stress axis : x y z
#
# Youngs Moduli (GPa) = 63.36013 89.59696 112.46931
#
# Poissons Ratio (x) = 0.32623 0.21330
# Poissons Ratio (y) = 0.23070 0.43847
# Poissons Ratio (z) = 0.12016 0.34930
#
# Static dielectric constant tensor:
#      x y z
#    x 3.554480 0.000000 0.000000 
#    y 0.000000 3.029500 0.000000 
#    z 0.000000 0.000000 3.940230 
# 
# 
# High freq. dielectric constant tensor:
#      x y z
#    x 1.757830 0.000000 0.000000 
#    y 0.000000 1.707150 0.000000 
#    z 0.000000 0.000000 1.764120 
# 
# From -- ./inp_files/5946.got.cif
#   From: 2010.06.25/outbox.cif.g09.slc.cpg/sg71_3_cif.got.tgz:5946.got - 2010.06.28 04:59:45.
