data_PCOD8287670
_publ_section_title
;
Structure prediction by ZEFSAII (Michael W. Deem and Ramdas Pophale) SiO2 
 PCOD8287670
Probable space group: I M M M
;
_chemical_formula_sum "Si O2"
_cell_formula_units_Z 80
_cell_length_a 18.203090
_cell_length_b 27.837685
_cell_length_c 8.614836
_cell_angle_alpha 90.000000
_cell_angle_beta 90.000000
_cell_angle_gamma 90.000000
_cell_volume 4365.412089
_symmetry_space_group_name_H-M "I M M M"
_symmetry_group_IT_number 71
_symmetry_cell_setting 'orthorhombic'
loop_
_space_group_symop_operation_xyz
x,y,z
-x,-y,z
x,-y,-z
-x,y,-z
-x,-y,-z
x,y,-z
-x,y,z
x,-y,z
1/2+x,1/2+y,1/2+z
1/2-x,1/2-y,1/2+z
1/2+x,1/2-y,1/2-z
1/2-x,1/2+y,1/2-z
1/2-x,1/2-y,1/2-z
1/2+x,1/2+y,1/2-z
1/2-x,1/2+y,1/2+z
1/2+x,1/2-y,1/2+z
loop_
_atom_site_type_symbol
_atom_site_label
_atom_site_fract_x
_atom_site_fract_y
_atom_site_fract_z
Si Si1 0.582224 0.398261 0.679459
Si Si2 0.348730 0.308424 0.182637
Si Si3 0.710086 0.857082 0.182583
Si Si4 0.081961 0.290229 0.684201
Si Si5 0.716973 0.446070 0.180182
O O1 0.595842 0.385685 0.500000
O O2 0.500000 0.417939 0.707732
O O3 0.593136 0.350163 0.779621
O O4 0.640039 0.438681 0.731109
O O5 0.272443 0.319160 0.268988
O O6 0.381432 0.258651 0.247722
O O7 0.333738 0.306316 0.000000
O O8 0.631465 0.835687 0.235001
O O9 0.721237 0.908691 0.263170
O O10 0.713767 0.864928 0.000000
O O11 0.077924 0.286615 0.500000
O O12 0.000000 0.296622 0.753870
O O13 0.745293 0.500000 0.213067
O O14 0.702045 0.437092 0.000000
#
# Coordination Sequence:
#
# PCOD8287670 Si02
#       5
#    16  16  16  16  16
#     4  10  20  32  47  71 103 133 162 199 238 277
#     4  10  18  30  50  72 100 137 169 195 227 276
#     4  10  19  32  52  74  98 127 160 202 243 282
#     4   9  18  31  48  73 102 131 163 198 237 281
#     4  10  21  36  53  71  92 122 161 203 245 293
#
# _framework density 18.325875
#
# number of rings (size 3 to 8) (size 9 to 14) (size 15 to 20)
#    0.000    2.200    0.000    6.000    0.000    4.400 
#    0.000    5.000    0.000    7.800    0.000    4.200 
#    0.000    0.000    0.000    0.000    0.000    0.000 
#
# Total GULP energy -495965.917764 kJ/mol
# GULP energy per Si atom -12399.147944 kJ/mol
# Density = 1.828416 g / cm^3
# Si number density = 18.325875 Si / 1000 Ang^3
#
#
#
# Elastic Constant Matrix: (Units=GPa)
#
#
# Indices 1 2 3 4 5 6 
#
# 1 115.5910 70.7030 17.1878 0.0000 0.0000 0.0000
# 2 70.7030 129.7549 22.9537 0.0000 0.0000 0.0000
# 3 17.1878 22.9537 41.8251 0.0001 0.0002 0.0000
# 4 0.0000 0.0000 0.0001 24.7169 0.0000 0.0000
# 5 0.0000 0.0000 0.0002 0.0000 18.5071 0.0000
# 6 0.0000 0.0000 0.0000 0.0000 0.0000 14.0344
#
#
#
# Elastic Compliance Matrix: (Units=1/GPa)
#
#
# Indices 1 2 3 4 5 6 
#
# 1 0.013074 -0.006838 -0.001620 0.000000 0.000000 0.000000
# 2 -0.006838 0.012111 -0.003837 0.000000 0.000000 0.000000
# 3 -0.001620 -0.003837 0.026681 0.000000 0.000000 0.000000
# 4 0.000000 0.000000 0.000000 0.040458 0.000000 0.000000
# 5 0.000000 0.000000 0.000000 0.000000 0.054033 0.000000
# 6 0.000000 0.000000 0.000000 0.000000 0.000000 0.071254
#
#
# Mechanical properties :
#
#
# Convention : Reuss Voigt Hill
#
# Bulk Modulus (GPa) = 36.66121 56.54000 46.60061
# Shear Modulus (GPa) = 19.89705 23.20677 21.55191
#
# Velocity S-wave (km/s) = 3.29862 3.56243 3.43306
# Velocity P-wave (km/s) = 5.87848 6.91670 6.41861
#
# Compressibility (1/GPa) = 0.02727679
#
# Stress axis : x y z
#
# Youngs Moduli (GPa) = 76.48509 82.56713 37.48032
#
# Poissons Ratio (x) = 0.56456 0.06073
# Poissons Ratio (y) = 0.52297 0.14381
# Poissons Ratio (z) = 0.12393 0.31680
#
# Static dielectric constant tensor:
#      x y z
#    x 3.459930 0.000000 0.000000 
#    y 0.000000 3.367600 0.000000 
#    z 0.000000 0.000000 3.317000 
# 
# 
# High freq. dielectric constant tensor:
#      x y z
#    x 1.697760 0.000000 0.000000 
#    y 0.000000 1.701550 0.000000 
#    z 0.000000 0.000000 1.707550 
# 
# From -- ./inp_files/8292.got.cif
#   From: 2010.06.25/outbox.cif.g09.slc.cpg/sg71_5_cif.got.tgz:8292.got - 2010.06.28 04:59:45.
