data_PCOD8287577
_publ_section_title
;
Structure prediction by ZEFSAII (Michael W. Deem and Ramdas Pophale) SiO2 
 PCOD8287577
Probable space group: I M M M
;
_chemical_formula_sum "Si O2"
_cell_formula_units_Z 72
_cell_length_a 8.432948
_cell_length_b 19.407999
_cell_length_c 27.786481
_cell_angle_alpha 90.000000
_cell_angle_beta 90.000000
_cell_angle_gamma 90.000000
_cell_volume 4547.720159
_symmetry_space_group_name_H-M "I M M M"
_symmetry_group_IT_number 71
_symmetry_cell_setting 'orthorhombic'
loop_
_space_group_symop_operation_xyz
x,y,z
-x,-y,z
x,-y,-z
-x,y,-z
-x,-y,-z
x,y,-z
-x,y,z
x,-y,z
1/2+x,1/2+y,1/2+z
1/2-x,1/2-y,1/2+z
1/2+x,1/2-y,1/2-z
1/2-x,1/2+y,1/2-z
1/2-x,1/2-y,1/2-z
1/2+x,1/2+y,1/2-z
1/2-x,1/2+y,1/2+z
1/2+x,1/2-y,1/2+z
loop_
_atom_site_type_symbol
_atom_site_label
_atom_site_fract_x
_atom_site_fract_y
_atom_site_fract_z
Si Si1 0.315221 0.377277 0.397204
Si Si2 0.311454 0.648993 0.230790
Si Si3 0.818261 0.000000 0.263802
Si Si4 0.186738 0.077566 0.000000
Si Si5 0.180936 0.500000 0.661802
Si Si6 0.814997 0.718678 0.324447
O O1 0.500000 0.395420 0.392386
O O2 0.260324 0.379145 0.452975
O O3 0.210996 0.432985 0.369764
O O4 0.278045 0.303146 0.372982
O O5 0.500000 0.650042 0.240140
O O6 0.248811 0.572378 0.215255
O O7 0.227108 0.667829 0.280716
O O8 0.263705 0.703275 0.189344
O O9 0.799008 0.000000 0.206580
O O10 0.000000 0.000000 0.277648
O O11 0.000000 0.069200 0.000000
O O12 0.260932 0.000000 0.000000
O O13 0.000000 0.500000 0.680013
O O14 0.000000 0.714321 0.335036
#
# Coordination Sequence:
#
# PCOD8287577 Si02
#       6
#    16  16   8   8   8  16
#     4  11  20  33  49  62  83 118 154 187 221 263
#     4   9  18  30  45  63  87 118 150 182 216 260
#     4  10  18  30  47  65  84 117 158 184 211 257
#     4   9  18  32  48  64  82 111 154 191 215 252
#     4  12  22  29  41  66  91 116 147 187 226 261
#     4  10  19  30  43  64  91 116 145 183 224 261
#
# _framework density 15.832108
#
# number of rings (size 3 to 8) (size 9 to 14) (size 15 to 20)
#    0.000    1.889    3.333    2.333    0.000    0.889 
#    0.000    2.778    0.000    0.000    0.000    0.000 
#    0.000    0.889    0.000   11.111    0.000    0.889 
#
# Total GULP energy -446173.914244 kJ/mol
# GULP energy per Si atom -12393.719840 kJ/mol
# Density = 1.579607 g / cm^3
# Si number density = 15.832108 Si / 1000 Ang^3
#
#
#
# Elastic Constant Matrix: (Units=GPa)
#
#
# Indices 1 2 3 4 5 6 
#
# 1 27.8243 11.2922 9.6006 0.0000 0.0000 0.0000
# 2 11.2922 137.4631 54.4781 0.0000 0.0000 0.0000
# 3 9.6006 54.4781 91.7642 0.0000 0.0000 0.0000
# 4 0.0000 0.0000 0.0000 23.6868 0.0000 0.0000
# 5 0.0000 0.0000 0.0000 0.0000 16.3176 0.0000
# 6 0.0000 0.0000 0.0000 0.0000 0.0000 19.5556
#
#
#
# Elastic Compliance Matrix: (Units=1/GPa)
#
#
# Indices 1 2 3 4 5 6 
#
# 1 0.037704 -0.002006 -0.002754 0.000000 0.000000 0.000000
# 2 -0.002006 0.009620 -0.005501 0.000000 0.000000 0.000000
# 3 -0.002754 -0.005501 0.014451 0.000000 0.000000 0.000000
# 4 0.000000 0.000000 0.000000 0.042218 0.000000 0.000000
# 5 0.000000 0.000000 0.000000 0.000000 0.061283 0.000000
# 6 0.000000 0.000000 0.000000 0.000000 0.000000 0.051136
#
#
# Mechanical properties :
#
#
# Convention : Reuss Voigt Hill
#
# Bulk Modulus (GPa) = 24.24037 45.31040 34.77538
# Shear Modulus (GPa) = 19.94533 24.02404 21.98469
#
# Velocity S-wave (km/s) = 3.55322 3.89964 3.73045
# Velocity P-wave (km/s) = 5.67256 6.99698 6.36929
#
# Compressibility (1/GPa) = 0.04125350
#
# Stress axis : x y z
#
# Youngs Moduli (GPa) = 26.52235 103.95460 69.19725
#
# Poissons Ratio (x) = 0.20853 0.19056
# Poissons Ratio (y) = 0.05320 0.38066
# Poissons Ratio (z) = 0.07304 0.57186
#
# Static dielectric constant tensor:
#      x y z
#    x 2.918920 0.000000 0.000000 
#    y 0.000000 3.464480 0.000000 
#    z 0.000000 0.000000 2.956140 
# 
# 
# High freq. dielectric constant tensor:
#      x y z
#    x 1.604620 0.000000 0.000000 
#    y 0.000000 1.603890 0.000000 
#    z 0.000000 0.000000 1.569310 
# 
# From -- ./inp_files/10697.got.cif
#   From: 2010.06.25/outbox.cif.g09.slc.cpg/sg71_6_cif.got.tgz:10697.got - 2010.06.28 04:59:45.
