data_PCOD8287520
_publ_section_title
;
Structure prediction by ZEFSAII (Michael W. Deem and Ramdas Pophale) SiO2 
 PCOD8287520
Probable space group: I M M M
;
_chemical_formula_sum "Si O2"
_cell_formula_units_Z 120
_cell_length_a 13.461675
_cell_length_b 22.537329
_cell_length_c 24.074825
_cell_angle_alpha 90.000000
_cell_angle_beta 90.000000
_cell_angle_gamma 90.000000
_cell_volume 7304.065932
_symmetry_space_group_name_H-M "I M M M"
_symmetry_group_IT_number 71
_symmetry_cell_setting 'orthorhombic'
loop_
_space_group_symop_operation_xyz
x,y,z
-x,-y,z
x,-y,-z
-x,y,-z
-x,-y,-z
x,y,-z
-x,y,z
x,-y,z
1/2+x,1/2+y,1/2+z
1/2-x,1/2-y,1/2+z
1/2+x,1/2-y,1/2-z
1/2-x,1/2+y,1/2-z
1/2-x,1/2-y,1/2-z
1/2+x,1/2+y,1/2-z
1/2-x,1/2+y,1/2+z
1/2+x,1/2-y,1/2+z
loop_
_atom_site_type_symbol
_atom_site_label
_atom_site_fract_x
_atom_site_fract_y
_atom_site_fract_z
Si Si1 0.886110 0.747146 0.254130
Si Si2 0.885370 0.732170 0.937378
Si Si3 0.617118 0.843360 0.335879
Si Si4 0.300835 0.931634 0.741273
Si Si5 0.885523 0.127195 0.220255
Si Si6 0.806128 0.144856 0.100047
Si Si7 0.387275 0.147350 0.163636
Si Si8 0.115165 0.070137 0.000000
O O1 0.840432 0.708522 0.204180
O O2 0.841912 0.813574 0.251080
O O3 0.869891 0.714325 0.312866
O O4 0.000000 0.756137 0.239625
O O5 0.857032 0.676204 0.898640
O O6 0.820578 0.789660 0.923969
O O7 0.000000 0.750138 0.928189
O O8 0.864451 0.711385 0.000000
O O9 0.500000 0.853456 0.327122
O O10 0.674144 0.903913 0.319361
O O11 0.184111 0.925221 0.756645
O O12 0.369581 0.899217 0.786818
O O13 0.329493 0.000000 0.740036
O O14 0.873776 0.134655 0.154174
O O15 0.000000 0.112532 0.234433
O O16 0.689253 0.136512 0.113733
O O17 0.833679 0.095809 0.054839
O O18 0.500000 0.140023 0.141746
O O19 0.000000 0.088779 0.000000
O O20 0.129498 0.000000 0.000000
#
# Coordination Sequence:
#
# PCOD8287520 Si02
#       8
#    16  16  16  16  16  16  16   8
#     4   8  14  27  46  72  99 126 153 187 242 296
#     4  10  18  29  49  76 103 123 154 200 249 297
#     4   9  17  29  48  72  97 126 160 198 239 286
#     4  10  21  32  47  70  97 135 171 193 230 289
#     4  10  19  30  49  74 104 129 154 197 247 296
#     4  11  20  31  53  73  96 130 164 200 249 288
#     4   9  20  34  50  73 101 129 164 203 240 285
#     4  11  24  40  53  69  97 131 171 211 245 290
#
# _framework density 16.429205
#
# number of rings (size 3 to 8) (size 9 to 14) (size 15 to 20)
#    0.000    2.333    2.000    2.400    1.867    5.067 
#    0.000    0.333    0.000    0.800    0.000    1.867 
#    0.000    0.000    0.000    1.200    0.000    0.000 
#
# Total GULP energy -743781.281209 kJ/mol
# GULP energy per Si atom -12396.354687 kJ/mol
# Density = 1.639181 g / cm^3
# Si number density = 16.429205 Si / 1000 Ang^3
#
#
#
# Elastic Constant Matrix: (Units=GPa)
#
#
# Indices 1 2 3 4 5 6 
#
# 1 94.9768 19.4861 37.9715 0.0000 0.0000 0.0000
# 2 19.4861 72.7132 35.1433 0.0000 0.0000 0.0000
# 3 37.9715 35.1433 88.0997 0.0000 0.0000 0.0000
# 4 0.0000 0.0000 0.0000 19.1703 0.0000 0.0000
# 5 0.0000 0.0000 0.0000 0.0000 23.3354 0.0000
# 6 0.0000 0.0000 0.0000 0.0000 0.0000 19.4024
#
#
#
# Elastic Compliance Matrix: (Units=1/GPa)
#
#
# Indices 1 2 3 4 5 6 
#
# 1 0.012773 -0.000944 -0.005129 0.000000 0.000000 0.000000
# 2 -0.000944 0.017107 -0.006417 0.000000 0.000000 0.000000
# 3 -0.005129 -0.006417 0.016121 0.000000 0.000000 0.000000
# 4 0.000000 0.000000 0.000000 0.052164 0.000000 0.000000
# 5 0.000000 0.000000 0.000000 0.000000 0.042853 0.000000
# 6 0.000000 0.000000 0.000000 0.000000 0.000000 0.051540
#
#
# Mechanical properties :
#
#
# Convention : Reuss Voigt Hill
#
# Bulk Modulus (GPa) = 47.57080 48.99904 48.28492
# Shear Modulus (GPa) = 22.26717 23.26086 22.76402
#
# Velocity S-wave (km/s) = 3.68549 3.76683 3.72638
# Velocity P-wave (km/s) = 6.86501 6.98625 6.92590
#
# Compressibility (1/GPa) = 0.02102130
#
# Stress axis : x y z
#
# Youngs Moduli (GPa) = 78.29002 58.45486 62.03065
#
# Poissons Ratio (x) = 0.05520 0.31813
# Poissons Ratio (y) = 0.07393 0.39806
# Poissons Ratio (z) = 0.40152 0.37511
#
# Static dielectric constant tensor:
#      x y z
#    x 3.071820 0.000000 0.000000 
#    y 0.000000 2.994410 0.000000 
#    z 0.000000 0.000000 3.001560 
# 
# 
# High freq. dielectric constant tensor:
#      x y z
#    x 1.633370 0.000000 0.000000 
#    y 0.000000 1.615630 0.000000 
#    z 0.000000 0.000000 1.607730 
# 
# From -- ./inp_files/38532.got.cif
#   From: 2010.06.25/outbox.cif.g09.slc.cpg/sg71_20_cif.got.tgz:38532.got - 2010.06.28 04:59:45.
