data_PCOD8287441
_publ_section_title
;
Structure prediction by ZEFSAII (Michael W. Deem and Ramdas Pophale) SiO2 
 PCOD8287441
Probable space group: I M M M
;
_chemical_formula_sum "Si O2"
_cell_formula_units_Z 104
_cell_length_a 29.333690
_cell_length_b 22.126684
_cell_length_c 9.769587
_cell_angle_alpha 90.000000
_cell_angle_beta 90.000000
_cell_angle_gamma 90.000000
_cell_volume 6341.021655
_symmetry_space_group_name_H-M "I M M M"
_symmetry_group_IT_number 71
_symmetry_cell_setting 'orthorhombic'
loop_
_space_group_symop_operation_xyz
x,y,z
-x,-y,z
x,-y,-z
-x,y,-z
-x,-y,-z
x,y,-z
-x,y,z
x,-y,z
1/2+x,1/2+y,1/2+z
1/2-x,1/2-y,1/2+z
1/2+x,1/2-y,1/2-z
1/2-x,1/2+y,1/2-z
1/2-x,1/2-y,1/2-z
1/2+x,1/2+y,1/2-z
1/2-x,1/2+y,1/2+z
1/2+x,1/2-y,1/2+z
loop_
_atom_site_type_symbol
_atom_site_label
_atom_site_fract_x
_atom_site_fract_y
_atom_site_fract_z
Si Si1 0.447787 0.211454 0.157401
Si Si2 0.382181 0.569480 0.660642
Si Si3 0.280541 0.571848 0.348376
Si Si4 0.102829 0.381684 0.839800
Si Si5 0.552512 0.351918 0.844337
Si Si6 0.051298 0.500000 0.162666
Si Si7 0.700753 0.069761 0.656774
O O1 0.500000 0.195098 0.193730
O O2 0.413795 0.175931 0.256089
O O3 0.438629 0.281673 0.183829
O O4 0.437606 0.194684 0.000000
O O5 0.391179 0.577291 0.500000
O O6 0.388714 0.500000 0.704410
O O7 0.331084 0.592310 0.697644
O O8 0.417640 0.609483 0.741891
O O9 0.269545 0.596913 0.500000
O O10 0.279809 0.500000 0.350503
O O11 0.242292 0.596809 0.245355
O O12 0.076477 0.440415 0.782845
O O13 0.156356 0.390437 0.812591
O O14 0.092714 0.371360 0.000000
O O15 0.500000 0.367987 0.817287
O O16 0.565784 0.368078 0.000000
O O17 0.000000 0.500000 0.219493
O O18 0.052988 0.500000 0.000000
O O19 0.715696 0.075392 0.500000
O O20 0.689892 0.000000 0.693247
#
# Coordination Sequence:
#
# PCOD8287441 Si02
#       7
#    16  16  16  16  16   8  16
#     4   9  19  35  50  65  90 124 161 200 238 276
#     4   9  18  32  50  75 104 127 150 187 233 277
#     4   8  15  28  45  66  94 126 155 184 225 279
#     4  10  18  29  46  69  94 122 159 200 239 283
#     4   9  19  35  52  70  95 127 160 193 230 276
#     4   9  16  26  41  63  93 125 153 189 240 287
#     4   9  16  27  43  66  96 124 154 195 238 278
#
# _framework density 16.401142
#
# number of rings (size 3 to 8) (size 9 to 14) (size 15 to 20)
#    0.000    3.000    0.769    2.308    0.000    3.692 
#    0.000    5.000    0.000    2.308    0.000    0.000 
#    0.000    0.000    0.000    0.000    0.000    0.000 
#
# Total GULP energy -644688.607613 kJ/mol
# GULP energy per Si atom -12397.857839 kJ/mol
# Density = 1.636381 g / cm^3
# Si number density = 16.401142 Si / 1000 Ang^3
#
#
#
# Elastic Constant Matrix: (Units=GPa)
#
#
# Indices 1 2 3 4 5 6 
#
# 1 118.1063 54.4907 71.2912 0.0000 0.0000 0.0000
# 2 54.4907 60.3967 48.4448 0.0000 0.0000 0.0000
# 3 71.2912 48.4448 79.6577 0.0000 0.0000 0.0000
# 4 0.0000 0.0000 0.0000 28.0958 0.0000 0.0000
# 5 0.0000 0.0000 0.0000 0.0000 35.2896 0.0000
# 6 0.0000 0.0000 0.0000 0.0000 0.0000 17.2736
#
#
#
# Elastic Compliance Matrix: (Units=1/GPa)
#
#
# Indices 1 2 3 4 5 6 
#
# 1 0.019883 -0.007156 -0.013442 0.000000 0.000000 0.000000
# 2 -0.007156 0.034902 -0.014822 0.000000 0.000000 0.000000
# 3 -0.013442 -0.014822 0.033598 0.000000 0.000000 0.000000
# 4 0.000000 0.000000 0.000000 0.035592 0.000000 0.000000
# 5 0.000000 0.000000 0.000000 0.000000 0.028337 0.000000
# 6 0.000000 0.000000 0.000000 0.000000 0.000000 0.057892
#
#
# Mechanical properties :
#
#
# Convention : Reuss Voigt Hill
#
# Bulk Modulus (GPa) = 57.00350 67.40158 62.20254
# Shear Modulus (GPa) = 17.42820 21.72740 19.57780
#
# Velocity S-wave (km/s) = 3.26332 3.64366 3.45872
# Velocity P-wave (km/s) = 7.00216 7.67376 7.34564
#
# Compressibility (1/GPa) = 0.01754278
#
# Stress axis : x y z
#
# Youngs Moduli (GPa) = 50.29540 28.65151 29.76373
#
# Poissons Ratio (x) = 0.20504 0.40009
# Poissons Ratio (y) = 0.35993 0.44115
# Poissons Ratio (z) = 0.67608 0.42466
#
# Static dielectric constant tensor:
#      x y z
#    x 3.184270 0.000000 0.000000 
#    y 0.000000 2.802990 0.000000 
#    z 0.000000 0.000000 3.050690 
# 
# 
# High freq. dielectric constant tensor:
#      x y z
#    x 1.637140 0.000000 0.000000 
#    y 0.000000 1.602120 0.000000 
#    z 0.000000 0.000000 1.625080 
# 
# From -- ./inp_files/17258.got.cif
#   From: 2010.06.25/outbox.cif.g09.slc.cpg/sg71_9_cif.got.tgz:17258.got - 2010.06.28 04:59:45.
