data_PCOD8287150
_publ_section_title
;
Structure prediction by ZEFSAII (Michael W. Deem and Ramdas Pophale) SiO2 
 PCOD8287150
Probable space group: I M M M
;
_chemical_formula_sum "Si O2"
_cell_formula_units_Z 88
_cell_length_a 25.500629
_cell_length_b 9.165621
_cell_length_c 27.608155
_cell_angle_alpha 90.000000
_cell_angle_beta 90.000000
_cell_angle_gamma 90.000000
_cell_volume 6452.829239
_symmetry_space_group_name_H-M "I M M M"
_symmetry_group_IT_number 71
_symmetry_cell_setting 'orthorhombic'
loop_
_space_group_symop_operation_xyz
x,y,z
-x,-y,z
x,-y,-z
-x,y,-z
-x,-y,-z
x,y,-z
-x,y,z
x,-y,z
1/2+x,1/2+y,1/2+z
1/2-x,1/2-y,1/2+z
1/2+x,1/2-y,1/2-z
1/2-x,1/2+y,1/2-z
1/2-x,1/2-y,1/2-z
1/2+x,1/2+y,1/2-z
1/2-x,1/2+y,1/2+z
1/2+x,1/2-y,1/2+z
loop_
_atom_site_type_symbol
_atom_site_label
_atom_site_fract_x
_atom_site_fract_y
_atom_site_fract_z
Si Si1 0.629553 0.826797 0.924079
Si Si2 0.840588 0.337966 0.321242
Si Si3 0.223878 0.161866 0.863573
Si Si4 0.696537 0.329725 0.262001
Si Si5 0.938042 0.832074 0.500000
Si Si6 0.735876 0.333761 0.945863
O O1 0.622525 0.792454 0.866608
O O2 0.684078 0.764136 0.943901
O O3 0.629099 0.000000 0.933709
O O4 0.582382 0.748968 0.952011
O O5 0.854810 0.500000 0.303461
O O6 0.781747 0.332273 0.341215
O O7 0.848044 0.232369 0.274572
O O8 0.183700 0.199299 0.819162
O O9 0.220069 0.274796 0.908176
O O10 0.212011 0.000000 0.883675
O O11 0.703703 0.500000 0.252066
O O12 0.750000 0.250000 0.250000
O O13 0.000000 0.821814 0.500000
O O14 0.918735 0.000000 0.500000
O O15 0.721737 0.500000 0.932101
O O16 0.759468 0.324631 0.000000
#
# Coordination Sequence:
#
# PCOD8287150 Si02
#       6
#    16  16  16  16   8  16
#     4  10  19  30  43  55  67  84 106 131 164 208
#     4   8  15  25  36  51  66  81 102 127 156 194
#     4   8  15  24  32  45  65  87 111 133 159 196
#     4   9  15  22  32  47  65  85 106 128 156 192
#     4  11  23  35  45  57  71  85 105 137 175 213
#     4  10  18  25  35  51  68  86 112 143 172 200
#
# _framework density 13.63743
#
# number of rings (size 3 to 8) (size 9 to 14) (size 15 to 20)
#    0.000    2.818    0.909    4.091    0.000    9.818 
#    0.000    0.000    0.000    0.000    0.000    0.000 
#    0.000    0.000    0.000    0.000    0.000    0.000 
#
# Total GULP energy -545098.171852 kJ/mol
# GULP energy per Si atom -12388.594815 kJ/mol
# Density = 1.360639 g / cm^3
# Si number density = 13.637430 Si / 1000 Ang^3
#
#
#
# Elastic Constant Matrix: (Units=GPa)
#
#
# Indices 1 2 3 4 5 6 
#
# 1 16.8703 20.2289 28.1306 0.0000 0.0000 0.0000
# 2 20.2289 104.7409 69.4253 0.0000 0.0000 0.0000
# 3 28.1306 69.4253 113.5318 0.0000 0.0000 0.0000
# 4 0.0000 0.0000 0.0000 28.3748 0.0000 0.0000
# 5 0.0000 0.0000 0.0000 0.0000 10.3478 0.0000
# 6 0.0000 0.0000 0.0000 0.0000 0.0000 9.9446
#
#
#
# Elastic Compliance Matrix: (Units=1/GPa)
#
#
# Indices 1 2 3 4 5 6 
#
# 1 0.102532 -0.004983 -0.022358 0.000000 0.000000 0.000000
# 2 -0.004983 0.016297 -0.008731 0.000000 0.000000 0.000000
# 3 -0.022358 -0.008731 0.019687 0.000000 0.000000 0.000000
# 4 0.000000 0.000000 0.000000 0.035243 0.000000 0.000000
# 5 0.000000 0.000000 0.000000 0.000000 0.096639 0.000000
# 6 0.000000 0.000000 0.000000 0.000000 0.000000 0.100557
#
#
# Mechanical properties :
#
#
# Convention : Reuss Voigt Hill
#
# Bulk Modulus (GPa) = 15.06655 52.30138 33.68396
# Shear Modulus (GPa) = 10.74756 17.55732 14.15244
#
# Velocity S-wave (km/s) = 2.81034 3.59198 3.22493
# Velocity P-wave (km/s) = 4.64786 7.45907 6.21451
#
# Compressibility (1/GPa) = 0.06637220
#
# Stress axis : x y z
#
# Youngs Moduli (GPa) = 9.75306 61.36157 50.79501
#
# Poissons Ratio (x) = 0.30574 1.13568
# Poissons Ratio (y) = 0.04860 0.44349
# Poissons Ratio (z) = 0.21806 0.53575
#
# Static dielectric constant tensor:
#      x y z
#    x 2.142720 0.000000 0.000000 
#    y 0.000000 2.965410 0.000000 
#    z 0.000000 0.000000 3.591860 
# 
# 
# High freq. dielectric constant tensor:
#      x y z
#    x 1.421660 0.000000 0.000000 
#    y 0.000000 1.538160 0.000000 
#    z 0.000000 0.000000 1.536130 
# 
# From -- ./inp_files/13496.got.cif
#   From: 2010.06.25/outbox.cif.g09.slc.cpg/sg71_7_cif.got.tgz:13496.got - 2010.06.28 04:59:45.
