data_PCOD8287799
_publ_section_title
;
Structure prediction by ZEFSAII (Michael W. Deem and Ramdas Pophale) SiO2 
 PCOD8287799
Probable space group: I M M M
;
_chemical_formula_sum "Si O2"
_cell_formula_units_Z 80
_cell_length_a 20.753966
_cell_length_b 8.709019
_cell_length_c 25.009253
_cell_angle_alpha 90.000000
_cell_angle_beta 90.000000
_cell_angle_gamma 90.000000
_cell_volume 4520.339555
_symmetry_space_group_name_H-M "I M M M"
_symmetry_group_IT_number 71
_symmetry_cell_setting 'orthorhombic'
loop_
_space_group_symop_operation_xyz
x,y,z
-x,-y,z
x,-y,-z
-x,y,-z
-x,-y,-z
x,y,-z
-x,y,z
x,-y,z
1/2+x,1/2+y,1/2+z
1/2-x,1/2-y,1/2+z
1/2+x,1/2-y,1/2-z
1/2-x,1/2+y,1/2-z
1/2-x,1/2-y,1/2-z
1/2+x,1/2+y,1/2-z
1/2-x,1/2+y,1/2+z
1/2+x,1/2-y,1/2+z
loop_
_atom_site_type_symbol
_atom_site_label
_atom_site_fract_x
_atom_site_fract_y
_atom_site_fract_z
Si Si1 0.269026 0.829503 0.500000
Si Si2 0.808065 0.318506 0.215680
Si Si3 0.265305 0.318307 0.389664
Si Si4 0.115842 0.832147 0.500000
Si Si5 0.571806 0.176230 0.214090
Si Si6 0.873973 0.817554 0.386585
O O1 0.291611 0.740785 0.553285
O O2 0.192725 0.841426 0.500000
O O3 0.299578 0.000000 0.500000
O O4 0.798598 0.500000 0.211824
O O5 0.750000 0.250000 0.250000
O O6 0.811369 0.246163 0.156726
O O7 0.876033 0.272002 0.242321
O O8 0.266288 0.500000 0.389725
O O9 0.193992 0.261402 0.374930
O O10 0.096651 0.752479 0.556503
O O11 0.083963 0.000000 0.500000
O O12 0.500000 0.201649 0.237612
O O13 0.577395 0.277651 0.160597
O O14 0.583319 0.000000 0.197830
O O15 0.863070 0.000000 0.391303
#
# Coordination Sequence:
#
# PCOD8287799 Si02
#       6
#     8  16  16   8  16  16
#     4   9  17  31  49  74 107 138 171 212 260 311
#     4  11  21  34  54  78 105 137 176 221 267 317
#     4  11  20  31  50  78 109 139 172 214 263 314
#     4   7  14  27  44  68  95 127 166 211 254 295
#     4  10  22  38  53  72 102 138 176 220 270 320
#     4  10  18  31  51  72  99 135 177 220 263 308
#
# _framework density 17.697785
#
# number of rings (size 3 to 8) (size 9 to 14) (size 15 to 20)
#    0.000    2.000    2.000    4.500    0.000    1.200 
#    0.000    2.000    0.000    3.000    0.000    0.700 
#    0.000    5.600    0.000    0.000    0.000    0.000 
#
# Total GULP energy -495805.710470 kJ/mol
# GULP energy per Si atom -12395.142762 kJ/mol
# Density = 1.765750 g / cm^3
# Si number density = 17.697785 Si / 1000 Ang^3
#
#
#
# Elastic Constant Matrix: (Units=GPa)
#
#
# Indices 1 2 3 4 5 6 
#
# 1 84.1239 32.9292 57.7564 0.0000 0.0000 0.0000
# 2 32.9292 101.0225 51.9578 0.0000 0.0000 0.0000
# 3 57.7564 51.9578 151.7357 0.0000 0.0000 0.0000
# 4 0.0000 0.0000 0.0000 32.4305 0.0000 0.0000
# 5 0.0000 0.0000 0.0000 0.0000 15.6419 0.0000
# 6 0.0000 0.0000 0.0000 0.0000 0.0000 16.2504
#
#
#
# Elastic Compliance Matrix: (Units=1/GPa)
#
#
# Indices 1 2 3 4 5 6 
#
# 1 0.016650 -0.002631 -0.005437 0.000000 0.000000 0.000000
# 2 -0.002631 0.012431 -0.003255 0.000000 0.000000 0.000000
# 3 -0.005437 -0.003255 0.009774 0.000000 0.000000 0.000000
# 4 0.000000 0.000000 0.000000 0.030835 0.000000 0.000000
# 5 0.000000 0.000000 0.000000 0.000000 0.063931 0.000000
# 6 0.000000 0.000000 0.000000 0.000000 0.000000 0.061537
#
#
# Mechanical properties :
#
#
# Convention : Reuss Voigt Hill
#
# Bulk Modulus (GPa) = 61.69283 69.12989 65.41136
# Shear Modulus (GPa) = 22.40087 25.81381 24.10734
#
# Velocity S-wave (km/s) = 3.56159 3.82329 3.69476
# Velocity P-wave (km/s) = 7.20055 7.65743 7.43250
#
# Compressibility (1/GPa) = 0.01620934
#
# Stress axis : x y z
#
# Youngs Moduli (GPa) = 60.06135 80.44727 102.30817
#
# Poissons Ratio (x) = 0.21165 0.55621
# Poissons Ratio (y) = 0.15802 0.33302
# Poissons Ratio (z) = 0.32653 0.26186
#
# Static dielectric constant tensor:
#      x y z
#    x 2.933900 0.000000 0.000000 
#    y 0.000000 3.294250 0.000000 
#    z 0.000000 0.000000 3.103740 
# 
# 
# High freq. dielectric constant tensor:
#      x y z
#    x 1.633270 0.000000 0.000000 
#    y 0.000000 1.686250 0.000000 
#    z 0.000000 0.000000 1.700430 
# 
# From -- ./inp_files/10236.got.cif
#   From: 2010.06.25/outbox.cif.g09.slc.cpg/sg71_6_cif.got.tgz:10236.got - 2010.06.28 04:59:45.
