data_PCOD8287849
_publ_section_title
;
Structure prediction by ZEFSAII (Michael W. Deem and Ramdas Pophale) SiO2 
 PCOD8287849
Probable space group: I M M M
;
_chemical_formula_sum "Si O2"
_cell_formula_units_Z 104
_cell_length_a 18.284425
_cell_length_b 14.334633
_cell_length_c 23.315944
_cell_angle_alpha 90.000000
_cell_angle_beta 90.000000
_cell_angle_gamma 90.000000
_cell_volume 6111.121093
_symmetry_space_group_name_H-M "I M M M"
_symmetry_group_IT_number 71
_symmetry_cell_setting 'orthorhombic'
loop_
_space_group_symop_operation_xyz
x,y,z
-x,-y,z
x,-y,-z
-x,y,-z
-x,-y,-z
x,y,-z
-x,y,z
x,-y,z
1/2+x,1/2+y,1/2+z
1/2-x,1/2-y,1/2+z
1/2+x,1/2-y,1/2-z
1/2-x,1/2+y,1/2-z
1/2-x,1/2-y,1/2-z
1/2+x,1/2+y,1/2-z
1/2-x,1/2+y,1/2+z
1/2+x,1/2-y,1/2+z
loop_
_atom_site_type_symbol
_atom_site_label
_atom_site_fract_x
_atom_site_fract_y
_atom_site_fract_z
Si Si1 0.915485 0.229517 0.936057
Si Si2 0.167038 0.605577 0.112015
Si Si3 0.083272 0.395887 0.772233
Si Si4 0.417634 0.389360 0.000000
Si Si5 0.661767 0.608424 0.114575
Si Si6 0.413247 0.395958 0.667079
Si Si7 0.915421 0.207236 0.282011
O O1 0.872360 0.326659 0.932532
O O2 0.883736 0.156165 0.889816
O O3 0.000000 0.250626 0.923015
O O4 0.905049 0.188053 0.000000
O O5 0.150038 0.500000 0.092727
O O6 0.137581 0.624380 0.175720
O O7 0.252631 0.625615 0.110176
O O8 0.096320 0.500000 0.746840
O O9 0.097183 0.318915 0.723035
O O10 0.000000 0.385344 0.795224
O O11 0.375525 0.354124 0.943579
O O12 0.418735 0.500000 0.000000
O O13 0.500000 0.348923 0.000000
O O14 0.642936 0.500000 0.125882
O O15 0.632075 0.669803 0.166259
O O16 0.500000 0.401056 0.664660
O O17 0.379658 0.500000 0.668461
O O18 0.387560 0.340846 0.723454
O O19 0.000000 0.182711 0.293567
#
# Coordination Sequence:
#
# PCOD8287849 Si02
#       7
#    16  16  16   8  16  16  16
#     4  10  20  33  49  70  96 131 174 209 240 285
#     4  10  20  33  49  69 100 134 164 205 249 293
#     4   9  17  31  51  73 100 133 165 201 244 287
#     4   9  18  34  52  70  98 130 160 195 240 298
#     4  10  21  33  49  75 102 130 159 197 251 301
#     4   9  17  30  48  71  98 127 162 206 248 283
#     4  10  18  31  53  76  97 125 164 205 243 290
#
# _framework density 17.018153999999999
#
# number of rings (size 3 to 8) (size 9 to 14) (size 15 to 20)
#    0.000    2.385    1.538    1.385    1.077    3.692 
#    0.000    2.308    0.000    0.000    0.000    0.538 
#    0.000    3.077    0.000    0.000    0.000    0.000 
#
# Total GULP energy -644773.646867 kJ/mol
# GULP energy per Si atom -12399.493209 kJ/mol
# Density = 1.697942 g / cm^3
# Si number density = 17.018154 Si / 1000 Ang^3
#
#
#
# Elastic Constant Matrix: (Units=GPa)
#
#
# Indices 1 2 3 4 5 6 
#
# 1 65.1501 31.1025 37.8155 0.0000 0.0000 0.0000
# 2 31.1025 101.9981 54.6019 0.0000 0.0000 0.0000
# 3 37.8155 54.6019 118.2281 0.0000 0.0000 0.0000
# 4 0.0000 0.0000 0.0000 25.1977 0.0000 0.0000
# 5 0.0000 0.0000 0.0000 0.0000 17.5081 0.0000
# 6 0.0000 0.0000 0.0000 0.0000 0.0000 18.6931
#
#
#
# Elastic Compliance Matrix: (Units=1/GPa)
#
#
# Indices 1 2 3 4 5 6 
#
# 1 0.019750 -0.003508 -0.004697 0.000000 0.000000 0.000000
# 2 -0.003508 0.013647 -0.005181 0.000000 0.000000 0.000000
# 3 -0.004697 -0.005181 0.012353 0.000000 0.000000 0.000000
# 4 0.000000 0.000000 0.000000 0.039686 0.000000 0.000000
# 5 0.000000 0.000000 0.000000 0.000000 0.057116 0.000000
# 6 0.000000 0.000000 0.000000 0.000000 0.000000 0.053496
#
#
# Mechanical properties :
#
#
# Convention : Reuss Voigt Hill
#
# Bulk Modulus (GPa) = 52.68956 59.15733 55.92344
# Shear Modulus (GPa) = 21.82008 23.07020 22.44514
#
# Velocity S-wave (km/s) = 3.58462 3.68587 3.63560
# Velocity P-wave (km/s) = 6.93979 7.27674 7.11026
#
# Compressibility (1/GPa) = 0.01897909
#
# Stress axis : x y z
#
# Youngs Moduli (GPa) = 50.63231 73.27526 80.95073
#
# Poissons Ratio (x) = 0.25706 0.38023
# Poissons Ratio (y) = 0.17762 0.41938
# Poissons Ratio (z) = 0.23782 0.37962
#
# Static dielectric constant tensor:
#      x y z
#    x 3.061520 0.000000 0.000000 
#    y 0.000000 3.318520 0.000000 
#    z 0.000000 0.000000 3.089140 
# 
# 
# High freq. dielectric constant tensor:
#      x y z
#    x 1.637870 0.000000 0.000000 
#    y 0.000000 1.649440 0.000000 
#    z 0.000000 0.000000 1.646970 
# 
# From -- ./inp_files/36711.got.cif
#   From: 2010.06.25/outbox.cif.g09.slc.cpg/sg71_19_cif.got.tgz:36711.got - 2010.06.28 04:59:45.
