data_PCOD8287891
_publ_section_title
;
Structure prediction by ZEFSAII (Michael W. Deem and Ramdas Pophale) SiO2 
 PCOD8287891
Probable space group: I M M M
;
_chemical_formula_sum "Si O2"
_cell_formula_units_Z 72
_cell_length_a 19.009028
_cell_length_b 27.835571
_cell_length_c 9.416334
_cell_angle_alpha 90.000000
_cell_angle_beta 90.000000
_cell_angle_gamma 90.000000
_cell_volume 4982.437959
_symmetry_space_group_name_H-M "I M M M"
_symmetry_group_IT_number 71
_symmetry_cell_setting 'orthorhombic'
loop_
_space_group_symop_operation_xyz
x,y,z
-x,-y,z
x,-y,-z
-x,y,-z
-x,-y,-z
x,y,-z
-x,y,z
x,-y,z
1/2+x,1/2+y,1/2+z
1/2-x,1/2-y,1/2+z
1/2+x,1/2-y,1/2-z
1/2-x,1/2+y,1/2-z
1/2-x,1/2-y,1/2-z
1/2+x,1/2+y,1/2-z
1/2-x,1/2+y,1/2+z
1/2+x,1/2-y,1/2+z
loop_
_atom_site_type_symbol
_atom_site_label
_atom_site_fract_x
_atom_site_fract_y
_atom_site_fract_z
Si Si1 0.153302 0.275605 0.337936
Si Si2 0.000000 0.249933 0.663052
Si Si3 0.078741 0.000000 0.665969
Si Si4 0.767369 0.179871 0.662588
Si Si5 0.000000 0.845920 0.830326
Si Si6 0.621950 0.396724 0.165454
O O1 0.172599 0.285211 0.500000
O O2 0.177424 0.221759 0.293029
O O3 0.195114 0.315728 0.249535
O O4 0.069850 0.281694 0.311238
O O5 0.000000 0.208346 0.777951
O O6 0.000000 0.229703 0.500000
O O7 0.123711 0.047065 0.708863
O O8 0.066790 0.000000 0.500000
O O9 0.000000 0.000000 0.736256
O O10 0.746095 0.185388 0.500000
O O11 0.802325 0.127891 0.692012
O O12 0.932127 0.871917 0.769814
O O13 0.000000 0.847592 0.000000
O O14 0.599429 0.389569 0.000000
#
# Coordination Sequence:
#
# PCOD8287891 Si02
#       6
#    16   8   8  16   8  16
#     4   9  17  28  44  62  82 108 141 174 207 250
#     4  10  18  32  47  61  82 115 148 178 211 247
#     4   9  16  26  48  68  78 105 152 189 203 234
#     4   9  17  28  43  60  84 113 138 170 210 251
#     4  12  22  27  39  64  87 114 145 181 216 251
#     4  10  18  32  47  60  82 115 150 180 211 249
#
# _framework density 14.450756999999999
#
# number of rings (size 3 to 8) (size 9 to 14) (size 15 to 20)
#    0.000    2.333    3.333    1.000    0.000    1.778 
#    0.000    1.111    0.000    0.000    0.000    0.000 
#    0.000    0.889    0.000   11.111    0.000    0.889 
#
# Total GULP energy -446217.295686 kJ/mol
# GULP energy per Si atom -12394.924880 kJ/mol
# Density = 1.441787 g / cm^3
# Si number density = 14.450757 Si / 1000 Ang^3
#
#
#
# Elastic Constant Matrix: (Units=GPa)
#
#
# Indices 1 2 3 4 5 6 
#
# 1 109.0044 54.0500 47.2773 0.0000 0.0000 0.0000
# 2 54.0500 87.6352 36.8941 0.0000 0.0000 0.0000
# 3 47.2773 36.8941 68.5697 0.0000 0.0000 0.0000
# 4 0.0000 0.0000 0.0000 12.2428 0.0000 0.0000
# 5 0.0000 0.0000 0.0000 0.0000 21.7439 0.0000
# 6 0.0000 0.0000 0.0000 0.0000 0.0000 27.2306
#
#
#
# Elastic Compliance Matrix: (Units=1/GPa)
#
#
# Indices 1 2 3 4 5 6 
#
# 1 0.015545 -0.006562 -0.007187 0.000000 0.000000 0.000000
# 2 -0.006562 0.017522 -0.004904 0.000000 0.000000 0.000000
# 3 -0.007187 -0.004904 0.022178 0.000000 0.000000 0.000000
# 4 0.000000 0.000000 0.000000 0.081681 0.000000 0.000000
# 5 0.000000 0.000000 0.000000 0.000000 0.045990 0.000000
# 6 0.000000 0.000000 0.000000 0.000000 0.000000 0.036723
#
#
# Mechanical properties :
#
#
# Convention : Reuss Voigt Hill
#
# Bulk Modulus (GPa) = 55.74341 60.18357 57.96349
# Shear Modulus (GPa) = 19.01688 20.70932 19.86310
#
# Velocity S-wave (km/s) = 3.63158 3.78973 3.71150
# Velocity P-wave (km/s) = 7.49953 7.80302 7.65278
#
# Compressibility (1/GPa) = 0.01793934
#
# Stress axis : x y z
#
# Youngs Moduli (GPa) = 64.33011 57.06973 45.09021
#
# Poissons Ratio (x) = 0.37447 0.32408
# Poissons Ratio (y) = 0.42211 0.22112
# Poissons Ratio (z) = 0.46236 0.27986
#
# Static dielectric constant tensor:
#      x y z
#    x 2.767800 0.000000 0.000000 
#    y 0.000000 2.816910 0.000000 
#    z 0.000000 0.000000 2.740740 
# 
# 
# High freq. dielectric constant tensor:
#      x y z
#    x 1.538280 0.000000 0.000000 
#    y 0.000000 1.520900 0.000000 
#    z 0.000000 0.000000 1.543960 
# 
# From -- ./inp_files/10698.got.cif
#   From: 2010.06.25/outbox.cif.g09.slc.cpg/sg71_6_cif.got.tgz:10698.got - 2010.06.28 04:59:45.
