data_PCOD8287829
_publ_section_title
;
Structure prediction by ZEFSAII (Michael W. Deem and Ramdas Pophale) SiO2 
 PCOD8287829
Probable space group: I M M M
;
_chemical_formula_sum "Si O2"
_cell_formula_units_Z 104
_cell_length_a 26.574982
_cell_length_b 9.160671
_cell_length_c 24.296946
_cell_angle_alpha 90.000000
_cell_angle_beta 90.000000
_cell_angle_gamma 90.000000
_cell_volume 5914.961926
_symmetry_space_group_name_H-M "I M M M"
_symmetry_group_IT_number 71
_symmetry_cell_setting 'orthorhombic'
loop_
_space_group_symop_operation_xyz
x,y,z
-x,-y,z
x,-y,-z
-x,y,-z
-x,-y,-z
x,y,-z
-x,y,z
x,-y,z
1/2+x,1/2+y,1/2+z
1/2-x,1/2-y,1/2+z
1/2+x,1/2-y,1/2-z
1/2-x,1/2+y,1/2-z
1/2-x,1/2-y,1/2-z
1/2+x,1/2+y,1/2-z
1/2-x,1/2+y,1/2+z
1/2+x,1/2-y,1/2+z
loop_
_atom_site_type_symbol
_atom_site_label
_atom_site_fract_x
_atom_site_fract_y
_atom_site_fract_z
Si Si1 0.000000 0.171510 0.437889
Si Si2 0.702270 0.832047 0.311975
Si Si3 0.943997 0.334623 0.240356
Si Si4 0.441353 0.161573 0.438332
Si Si5 0.685008 0.666839 0.799788
Si Si6 0.579159 0.670324 0.152754
Si Si7 0.883989 0.829131 0.851166
O O1 0.948466 0.216663 0.404677
O O2 0.000000 0.241749 0.500000
O O3 0.000000 0.000000 0.445125
O O4 0.684765 0.773495 0.252272
O O5 0.760673 0.810002 0.327968
O O6 0.671353 0.741468 0.357538
O O7 0.686799 0.000000 0.314263
O O8 0.923189 0.500000 0.242607
O O9 0.946876 0.267231 0.300905
O O10 0.908708 0.234329 0.203762
O O11 0.000000 0.333721 0.214883
O O12 0.420175 0.168233 0.500000
O O13 0.500000 0.193215 0.438129
O O14 0.415490 0.288959 0.404541
O O15 0.430343 0.000000 0.413154
O O16 0.680161 0.500000 0.778315
O O17 0.639945 0.700846 0.843667
O O18 0.568221 0.500000 0.163960
O O19 0.879952 0.000000 0.845254
#
# Coordination Sequence:
#
# PCOD8287829 Si02
#       7
#     8  16  16  16  16  16  16
#     4   9  18  32  53  81 109 139 174 211 258 313
#     4  10  19  31  48  71 103 139 175 215 261 313
#     4  11  22  33  47  72 105 137 170 209 261 318
#     4   9  19  37  58  77 100 134 174 214 259 310
#     4   9  18  31  48  73 103 136 174 216 260 313
#     4  10  18  31  52  76 103 135 169 211 260 312
#     4  12  23  33  49  75 106 139 176 215 258 308
#
# _framework density 17.582530999999999
#
# number of rings (size 3 to 8) (size 9 to 14) (size 15 to 20)
#    0.000    1.923    2.308    3.231    0.000    4.000 
#    0.000    0.769    0.000    1.846    0.000    4.308 
#    0.000    0.000    0.000    0.000    0.000    0.000 
#
# Total GULP energy -644429.855755 kJ/mol
# GULP energy per Si atom -12392.881841 kJ/mol
# Density = 1.754251 g / cm^3
# Si number density = 17.582531 Si / 1000 Ang^3
#
#
#
# Elastic Constant Matrix: (Units=GPa)
#
#
# Indices 1 2 3 4 5 6 
#
# 1 115.0849 50.3998 46.5300 0.0000 0.0000 0.0000
# 2 50.3998 113.5570 34.1701 0.0000 0.0000 0.0000
# 3 46.5300 34.1701 81.1909 0.0000 0.0000 0.0000
# 4 0.0000 0.0000 0.0000 22.6798 0.0000 0.0000
# 5 0.0000 0.0000 0.0000 0.0000 -77.9552 0.0000
# 6 0.0000 0.0000 0.0000 0.0000 0.0000 23.1405
#
#
#
# Elastic Compliance Matrix: (Units=1/GPa)
#
#
# Indices 1 2 3 4 5 6 
#
# 1 0.012683 -0.003941 -0.005610 0.000000 0.000000 0.000000
# 2 -0.003941 0.011308 -0.002500 0.000000 0.000000 0.000000
# 3 -0.005610 -0.002500 0.016584 0.000000 0.000000 0.000000
# 4 0.000000 0.000000 0.000000 0.044092 0.000000 0.000000
# 5 0.000000 0.000000 0.000000 0.000000 -0.012828 0.000000
# 6 0.000000 0.000000 0.000000 0.000000 0.000000 0.043214
#
#
# Mechanical properties :
#
#
# Convention : Reuss Voigt Hill
#
# Bulk Modulus (GPa) = 60.70902 63.55918 62.13410
# Shear Modulus (GPa) = 34.56676 5.48854 20.02765
#
# Velocity S-wave (km/s) = 4.43874 1.76872 3.37867
# Velocity P-wave (km/s) = 7.80211 6.35600 7.11588
#
# Compressibility (1/GPa) = 0.01647202
#
# Stress axis : x y z
#
# Youngs Moduli (GPa) = 78.84295 88.43530 60.29876
#
# Poissons Ratio (x) = 0.34854 0.33828
# Poissons Ratio (y) = 0.31073 0.15077
# Poissons Ratio (z) = 0.44232 0.22112
#
# Static dielectric constant tensor:
#      x y z
#    x 3.638260 0.000000 0.000000 
#    y 0.000000 3.246770 0.000000 
#    z 0.000000 0.000000 3.123000 
# 
# 
# High freq. dielectric constant tensor:
#      x y z
#    x 1.692460 0.000000 0.000000 
#    y 0.000000 1.679120 0.000000 
#    z 0.000000 0.000000 1.638910 
# 
# From -- ./inp_files/61961.got.cif
#   From: 2010.06.25/outbox.cif.g09.slc.cpg/sg71_31_cif.got.tgz:61961.got - 2010.06.28 04:59:45.
