data_PCOD8287896
_publ_section_title
;
Structure prediction by ZEFSAII (Michael W. Deem and Ramdas Pophale) SiO2 
 PCOD8287896
Probable space group: I M M M
;
_chemical_formula_sum "Si O2"
_cell_formula_units_Z 104
_cell_length_a 17.186456
_cell_length_b 17.761422
_cell_length_c 20.091467
_cell_angle_alpha 90.000000
_cell_angle_beta 90.000000
_cell_angle_gamma 90.000000
_cell_volume 6133.038795
_symmetry_space_group_name_H-M "I M M M"
_symmetry_group_IT_number 71
_symmetry_cell_setting 'orthorhombic'
loop_
_space_group_symop_operation_xyz
x,y,z
-x,-y,z
x,-y,-z
-x,y,-z
-x,-y,-z
x,y,-z
-x,y,z
x,-y,z
1/2+x,1/2+y,1/2+z
1/2-x,1/2-y,1/2+z
1/2+x,1/2-y,1/2-z
1/2-x,1/2+y,1/2-z
1/2-x,1/2-y,1/2-z
1/2+x,1/2+y,1/2-z
1/2-x,1/2+y,1/2+z
1/2+x,1/2-y,1/2+z
loop_
_atom_site_type_symbol
_atom_site_label
_atom_site_fract_x
_atom_site_fract_y
_atom_site_fract_z
Si Si1 0.810196 0.785533 0.075801
Si Si2 0.723122 0.914718 0.148859
Si Si3 0.911827 0.911239 0.500000
Si Si4 0.329227 0.681417 0.891881
Si Si5 0.413082 0.809115 0.174093
Si Si6 0.226968 0.416333 0.804250
Si Si7 0.090604 0.686925 0.826441
O O1 0.786063 0.865819 0.107814
O O2 0.736205 0.730535 0.071231
O O3 0.878025 0.749135 0.121398
O O4 0.840604 0.797909 0.000000
O O5 0.638588 0.876542 0.144487
O O6 0.743156 0.916369 0.226196
O O7 0.721038 0.000000 0.119914
O O8 0.865853 0.882554 0.563431
O O9 0.000000 0.880962 0.500000
O O10 0.909843 0.000000 0.500000
O O11 0.398907 0.734243 0.867944
O O12 0.291753 0.640612 0.829244
O O13 0.500000 0.838155 0.164161
O O14 0.397320 0.785348 0.250647
O O15 0.237243 0.500000 0.833499
O O16 0.141365 0.389702 0.829414
O O17 0.000000 0.669839 0.842468
#
# Coordination Sequence:
#
# PCOD8287896 Si02
#       7
#    16  16   8  16  16  16  16
#     4  10  19  32  50  70  93 130 168 200 239 284
#     4   9  18  31  49  74  99 123 160 205 246 294
#     4  11  22  32  44  66  94 124 156 193 234 280
#     4  10  18  32  48  68  92 127 164 200 227 283
#     4   9  17  30  50  73  98 128 158 198 251 294
#     4   9  17  30  50  73  98 128 158 198 251 294
#     4   9  18  31  49  74  99 123 160 205 246 294
#
# _framework density 16.957335
#
# number of rings (size 3 to 8) (size 9 to 14) (size 15 to 20)
#    0.000    2.538    0.769    1.846    0.000    4.923 
#    0.000    3.077    0.000    0.462    0.000    9.692 
#    0.000    0.000    0.000    0.000    0.000    0.000 
#
# Total GULP energy -644476.913179 kJ/mol
# GULP energy per Si atom -12393.786792 kJ/mol
# Density = 1.691874 g / cm^3
# Si number density = 16.957335 Si / 1000 Ang^3
#
#
#
# Elastic Constant Matrix: (Units=GPa)
#
#
# Indices 1 2 3 4 5 6 
#
# 1 49.5893 19.1551 8.5259 0.0000 0.0000 0.0000
# 2 19.1551 100.0271 28.1269 0.0000 0.0000 0.0000
# 3 8.5259 28.1269 54.1551 0.0000 0.0000 0.0000
# 4 0.0000 0.0000 0.0000 22.0766 0.0000 0.0000
# 5 0.0000 0.0000 0.0000 0.0000 19.0352 0.0000
# 6 0.0000 0.0000 0.0000 0.0000 0.0000 20.2200
#
#
#
# Elastic Compliance Matrix: (Units=1/GPa)
#
#
# Indices 1 2 3 4 5 6 
#
# 1 0.021878 -0.003772 -0.001485 0.000000 0.000000 0.000000
# 2 -0.003772 0.012357 -0.005824 0.000000 0.000000 0.000000
# 3 -0.001485 -0.005824 0.021724 0.000000 0.000000 0.000000
# 4 0.000000 0.000000 0.000000 0.045297 0.000000 0.000000
# 5 0.000000 0.000000 0.000000 0.000000 0.052534 0.000000
# 6 0.000000 0.000000 0.000000 0.000000 0.000000 0.049456
#
#
# Mechanical properties :
#
#
# Convention : Reuss Voigt Hill
#
# Bulk Modulus (GPa) = 29.58876 35.04303 32.31590
# Shear Modulus (GPa) = 21.12597 22.13059 21.62828
#
# Velocity S-wave (km/s) = 3.53346 3.61650 3.57522
# Velocity P-wave (km/s) = 5.84243 6.17649 6.01178
#
# Compressibility (1/GPa) = 0.03379661
#
# Stress axis : x y z
#
# Youngs Moduli (GPa) = 45.70798 80.92337 46.03131
#
# Poissons Ratio (x) = 0.30524 0.06837
# Poissons Ratio (y) = 0.17241 0.26810
# Poissons Ratio (z) = 0.06789 0.47132
#
# Static dielectric constant tensor:
#      x y z
#    x 3.108570 0.000000 0.000000 
#    y 0.000000 3.230340 0.000000 
#    z 0.000000 0.000000 3.082770 
# 
# 
# High freq. dielectric constant tensor:
#      x y z
#    x 1.643950 0.000000 0.000000 
#    y 0.000000 1.652070 0.000000 
#    z 0.000000 0.000000 1.648090 
# 
# From -- ./inp_files/36924.got.cif
#   From: 2010.06.25/outbox.cif.g09.slc.cpg/sg71_19_cif.got.tgz:36924.got - 2010.06.28 04:59:45.
