data_PCOD8287913
_publ_section_title
;
Structure prediction by ZEFSAII (Michael W. Deem and Ramdas Pophale) SiO2 
 PCOD8287913
Probable space group: I M M M
;
_chemical_formula_sum "Si O2"
_cell_formula_units_Z 120
_cell_length_a 29.476613
_cell_length_b 8.859024
_cell_length_c 26.589948
_cell_angle_alpha 90.000000
_cell_angle_beta 90.000000
_cell_angle_gamma 90.000000
_cell_volume 6943.540066
_symmetry_space_group_name_H-M "I M M M"
_symmetry_group_IT_number 71
_symmetry_cell_setting 'orthorhombic'
loop_
_space_group_symop_operation_xyz
x,y,z
-x,-y,z
x,-y,-z
-x,y,-z
-x,-y,-z
x,y,-z
-x,y,z
x,-y,z
1/2+x,1/2+y,1/2+z
1/2-x,1/2-y,1/2+z
1/2+x,1/2-y,1/2-z
1/2-x,1/2+y,1/2-z
1/2-x,1/2-y,1/2-z
1/2+x,1/2+y,1/2-z
1/2-x,1/2+y,1/2+z
1/2+x,1/2-y,1/2+z
loop_
_atom_site_type_symbol
_atom_site_label
_atom_site_fract_x
_atom_site_fract_y
_atom_site_fract_z
Si Si1 0.448104 0.177287 0.730141
Si Si2 0.244250 0.677118 0.445072
Si Si3 0.703931 0.820619 0.840963
Si Si4 0.787028 0.330242 0.795387
Si Si5 0.825327 0.333423 0.904600
Si Si6 0.000000 0.831550 0.940889
Si Si7 0.638277 0.320719 0.772518
Si Si8 0.576285 0.820709 0.618725
O O1 0.500000 0.213202 0.745941
O O2 0.413659 0.267240 0.766084
O O3 0.440096 0.234669 0.673351
O O4 0.437666 0.000000 0.734734
O O5 0.223610 0.724344 0.500000
O O6 0.246476 0.500000 0.440190
O O7 0.215180 0.738549 0.397484
O O8 0.295976 0.735079 0.443222
O O9 0.739653 0.767068 0.796278
O O10 0.656152 0.744409 0.826020
O O11 0.700676 0.000000 0.839382
O O12 0.780301 0.500000 0.772887
O O13 0.797658 0.344944 0.853602
O O14 0.829889 0.247079 0.770978
O O15 0.831916 0.500000 0.927930
O O16 0.873893 0.256925 0.893999
O O17 0.044188 0.743408 0.923739
O O18 0.000000 0.000000 0.918193
O O19 0.000000 0.835972 0.000000
O O20 0.640739 0.500000 0.771953
O O21 0.575440 0.000000 0.617479
#
# Coordination Sequence:
#
# PCOD8287913 Si02
#       8
#    16  16  16  16  16   8  16  16
#     4  10  20  37  58  77  99 130 168 211 259 309
#     4   9  19  35  53  73  99 131 167 208 251 292
#     4  10  20  34  51  73 102 135 172 208 250 300
#     4  10  18  32  50  71 102 134 168 206 247 296
#     4   9  18  31  50  73  96 124 162 204 245 295
#     4  11  25  39  49  67  93 121 159 213 270 313
#     4  12  23  33  49  75 106 136 167 203 250 304
#     4  10  19  36  56  72  91 122 165 210 257 308
#
# _framework density 17.282250999999999
#
# number of rings (size 3 to 8) (size 9 to 14) (size 15 to 20)
#    0.000    1.933    2.000    2.600    0.000    3.733 
#    0.000    2.667    0.000    0.000    0.000    0.000 
#    0.000    0.533    0.000    6.133    0.000    1.733 
#
# Total GULP energy -743753.959653 kJ/mol
# GULP energy per Si atom -12395.899328 kJ/mol
# Density = 1.724292 g / cm^3
# Si number density = 17.282251 Si / 1000 Ang^3
#
#
#
# Elastic Constant Matrix: (Units=GPa)
#
#
# Indices 1 2 3 4 5 6 
#
# 1 103.8501 41.8287 45.5756 0.0000 0.0000 0.0000
# 2 41.8287 66.1878 34.7748 0.0000 0.0000 0.0000
# 3 45.5756 34.7748 73.8261 0.0000 0.0000 0.0000
# 4 0.0000 0.0000 0.0000 19.0266 0.0000 0.0000
# 5 0.0000 0.0000 0.0000 0.0000 19.1148 0.0000
# 6 0.0000 0.0000 0.0000 0.0000 0.0000 26.0818
#
#
#
# Elastic Compliance Matrix: (Units=1/GPa)
#
#
# Indices 1 2 3 4 5 6 
#
# 1 0.014839 -0.006066 -0.006303 0.000000 0.000000 0.000000
# 2 -0.006066 0.022557 -0.006880 0.000000 0.000000 0.000000
# 3 -0.006303 -0.006880 0.020677 0.000000 0.000000 0.000000
# 4 0.000000 0.000000 0.000000 0.052558 0.000000 0.000000
# 5 0.000000 0.000000 0.000000 0.000000 0.052316 0.000000
# 6 0.000000 0.000000 0.000000 0.000000 0.000000 0.038341
#
#
# Mechanical properties :
#
#
# Convention : Reuss Voigt Hill
#
# Bulk Modulus (GPa) = 51.08814 54.24689 52.66751
# Shear Modulus (GPa) = 20.29950 20.95696 20.62823
#
# Velocity S-wave (km/s) = 3.43094 3.48606 3.45861
# Velocity P-wave (km/s) = 6.73204 6.90365 6.81839
#
# Compressibility (1/GPa) = 0.01957402
#
# Stress axis : x y z
#
# Youngs Moduli (GPa) = 67.39122 44.33222 48.36177
#
# Poissons Ratio (x) = 0.26892 0.30483
# Poissons Ratio (y) = 0.40879 0.33275
# Poissons Ratio (z) = 0.42478 0.30502
#
# Static dielectric constant tensor:
#      x y z
#    x 3.255590 0.000000 0.000000 
#    y 0.000000 3.332520 0.000000 
#    z 0.000000 0.000000 3.338210 
# 
# 
# High freq. dielectric constant tensor:
#      x y z
#    x 1.652240 0.000000 0.000000 
#    y 0.000000 1.668940 0.000000 
#    z 0.000000 0.000000 1.651960 
# 
# From -- ./inp_files/67193.got.cif
#   From: 2010.06.25/outbox.cif.g09.slc.cpg/sg71_34_cif.got.tgz:67193.got - 2010.06.28 04:59:45.
