data_PCOD8287180
_publ_section_title
;
Structure prediction by ZEFSAII (Michael W. Deem and Ramdas Pophale) SiO2 
 PCOD8287180
Probable space group: I M M M
;
_chemical_formula_sum "Si O2"
_cell_formula_units_Z 128
_cell_length_a 27.157357
_cell_length_b 15.834530
_cell_length_c 19.100224
_cell_angle_alpha 90.000000
_cell_angle_beta 90.000000
_cell_angle_gamma 90.000000
_cell_volume 8213.554422
_symmetry_space_group_name_H-M "I M M M"
_symmetry_group_IT_number 71
_symmetry_cell_setting 'orthorhombic'
loop_
_space_group_symop_operation_xyz
x,y,z
-x,-y,z
x,-y,-z
-x,y,-z
-x,-y,-z
x,y,-z
-x,y,z
x,-y,z
1/2+x,1/2+y,1/2+z
1/2-x,1/2-y,1/2+z
1/2+x,1/2-y,1/2-z
1/2-x,1/2+y,1/2-z
1/2-x,1/2-y,1/2-z
1/2+x,1/2+y,1/2-z
1/2-x,1/2+y,1/2+z
1/2+x,1/2-y,1/2+z
loop_
_atom_site_type_symbol
_atom_site_label
_atom_site_fract_x
_atom_site_fract_y
_atom_site_fract_z
Si Si1 0.215885 0.405485 0.713444
Si Si2 0.760813 0.351566 0.141737
Si Si3 0.897572 0.403053 0.684042
Si Si4 0.659565 0.593832 0.081884
Si Si5 0.733372 0.181759 0.077819
Si Si6 0.620518 0.233714 0.077220
Si Si7 0.860471 0.403207 0.076876
Si Si8 0.945738 0.400322 0.827413
O O1 0.229061 0.500000 0.735928
O O2 0.237985 0.344351 0.773431
O O3 0.157627 0.391350 0.711190
O O4 0.239907 0.390135 0.636766
O O5 0.711448 0.400742 0.121232
O O6 0.764443 0.260953 0.105019
O O7 0.808715 0.401501 0.116732
O O8 0.905341 0.500000 0.656641
O O9 0.909410 0.332983 0.624606
O O10 0.934063 0.380162 0.746750
O O11 0.637026 0.500000 0.096039
O O12 0.621573 0.668558 0.106114
O O13 0.670608 0.607739 0.000000
O O14 0.676724 0.205729 0.073110
O O15 0.751660 0.152828 0.000000
O O16 0.596306 0.230791 0.000000
O O17 0.874764 0.500000 0.067464
O O18 0.904375 0.359028 0.121801
O O19 0.857294 0.359941 0.000000
O O20 0.945260 0.500000 0.837522
O O21 0.000000 0.363512 0.845361
#
# Coordination Sequence:
#
# PCOD8287180 Si02
#       8
#    16  16  16  16  16  16  16  16
#     4  10  18  27  41  58  78 106 141 176 204 237
#     4  11  17  26  40  57  82 108 138 175 205 236
#     4   9  16  27  41  57  77 104 136 169 206 241
#     4   9  16  25  38  56  82 114 139 163 200 240
#     4   9  18  29  39  55  79 108 140 172 206 239
#     4   8  15  26  39  57  79 102 135 171 198 235
#     4  10  18  26  39  58  79 104 134 167 201 239
#     4   9  17  29  42  55  75 102 131 164 203 248
#
# _framework density 15.583995
#
# number of rings (size 3 to 8) (size 9 to 14) (size 15 to 20)
#    0.000    2.625    1.250    3.375    0.000    1.750 
#    0.000    3.750    0.000    0.375    0.000    1.750 
#    0.000    0.500    0.000    3.375    0.000    0.750 
#
# Total GULP energy -792952.913073 kJ/mol
# GULP energy per Si atom -12389.889267 kJ/mol
# Density = 1.554853 g / cm^3
# Si number density = 15.583995 Si / 1000 Ang^3
#
#
#
# Elastic Constant Matrix: (Units=GPa)
#
#
# Indices 1 2 3 4 5 6 
#
# 1 25.1484 12.5390 23.6434 0.0000 0.0000 0.0000
# 2 12.5390 53.0228 28.2871 0.0000 0.0000 0.0000
# 3 23.6434 28.2871 103.7550 0.0000 0.0000 0.0000
# 4 0.0000 0.0000 0.0000 19.2783 0.0000 0.0000
# 5 0.0000 0.0000 0.0000 0.0000 11.7610 0.0000
# 6 0.0000 0.0000 0.0000 0.0000 0.0000 8.3984
#
#
#
# Elastic Compliance Matrix: (Units=1/GPa)
#
#
# Indices 1 2 3 4 5 6 
#
# 1 0.052795 -0.007099 -0.010095 0.000000 0.000000 0.000000
# 2 -0.007099 0.023024 -0.004659 0.000000 0.000000 0.000000
# 3 -0.010095 -0.004659 0.013209 0.000000 0.000000 0.000000
# 4 0.000000 0.000000 0.000000 0.051872 0.000000 0.000000
# 5 0.000000 0.000000 0.000000 0.000000 0.085027 0.000000
# 6 0.000000 0.000000 0.000000 0.000000 0.000000 0.119070
#
#
# Mechanical properties :
#
#
# Convention : Reuss Voigt Hill
#
# Bulk Modulus (GPa) = 22.06525 34.54057 28.30291
# Shear Modulus (GPa) = 12.38200 15.71798 14.04999
#
# Velocity S-wave (km/s) = 2.82180 3.17929 3.00587
# Velocity P-wave (km/s) = 4.98061 5.97406 5.49981
#
# Compressibility (1/GPa) = 0.04532013
#
# Stress axis : x y z
#
# Youngs Moduli (GPa) = 18.94123 43.43206 75.70655
#
# Poissons Ratio (x) = 0.30834 0.76428
# Poissons Ratio (y) = 0.13447 0.35275
# Poissons Ratio (z) = 0.19122 0.20237
#
# Static dielectric constant tensor:
#      x y z
#    x 2.665730 0.000000 0.000000 
#    y 0.000000 2.969160 0.000000 
#    z 0.000000 0.000000 3.291820 
# 
# 
# High freq. dielectric constant tensor:
#      x y z
#    x 1.549180 0.000000 0.000000 
#    y 0.000000 1.570990 0.000000 
#    z 0.000000 0.000000 1.608690 
# 
# From -- ./inp_files/48405.got.cif
#   From: 2010.06.25/outbox.cif.g09.slc.cpg/sg71_25_cif.got.tgz:48405.got - 2010.06.28 04:59:45.
