data_PCOD8287126
_publ_section_title
;
Structure prediction by ZEFSAII (Michael W. Deem and Ramdas Pophale) SiO2 
 PCOD8287126
Probable space group: I M M M
;
_chemical_formula_sum "Si O2"
_cell_formula_units_Z 88
_cell_length_a 27.631709
_cell_length_b 8.909497
_cell_length_c 19.540189
_cell_angle_alpha 90.000000
_cell_angle_beta 90.000000
_cell_angle_gamma 90.000000
_cell_volume 4810.494169
_symmetry_space_group_name_H-M "I M M M"
_symmetry_group_IT_number 71
_symmetry_cell_setting 'orthorhombic'
loop_
_space_group_symop_operation_xyz
x,y,z
-x,-y,z
x,-y,-z
-x,y,-z
-x,-y,-z
x,y,-z
-x,y,z
x,-y,z
1/2+x,1/2+y,1/2+z
1/2-x,1/2-y,1/2+z
1/2+x,1/2-y,1/2-z
1/2-x,1/2+y,1/2-z
1/2-x,1/2-y,1/2-z
1/2+x,1/2+y,1/2-z
1/2-x,1/2+y,1/2+z
1/2+x,1/2-y,1/2+z
loop_
_atom_site_type_symbol
_atom_site_label
_atom_site_fract_x
_atom_site_fract_y
_atom_site_fract_z
Si Si1 0.946575 0.821752 0.319603
Si Si2 0.216002 0.323998 0.341121
Si Si3 0.134964 0.174211 0.578735
Si Si4 0.587388 0.321722 0.671644
Si Si5 0.500000 0.678437 0.422786
Si Si6 0.186656 0.323550 0.189299
O O1 0.910211 0.762872 0.377723
O O2 0.929857 0.763392 0.245626
O O3 0.000000 0.757389 0.335596
O O4 0.948124 0.000000 0.319173
O O5 0.224960 0.500000 0.346333
O O6 0.182372 0.268395 0.402610
O O7 0.190588 0.279564 0.269401
O O8 0.267186 0.242186 0.350088
O O9 0.122077 0.199863 0.500000
O O10 0.144880 0.000000 0.595383
O O11 0.592964 0.500000 0.670024
O O12 0.548258 0.265142 0.616005
O O13 0.639086 0.248354 0.655536
O O14 0.500000 0.500000 0.422875
O O15 0.500000 0.742710 0.500000
O O16 0.185154 0.500000 0.178297
#
# Coordination Sequence:
#
# PCOD8287126 Si02
#       6
#    16  16  16  16   8  16
#     4   9  16  28  49  77 105 136 179 220 256 306
#     4  10  20  34  53  77 104 137 176 220 268 318
#     4  10  20  33  51  76 109 145 177 218 267 311
#     4  10  17  30  54  79 105 140 177 216 261 311
#     4   9  18  32  53  83 112 138 173 216 263 314
#     4  10  20  33  53  80 106 132 172 226 272 313
#
# _framework density 18.293339
#
# number of rings (size 3 to 8) (size 9 to 14) (size 15 to 20)
#    0.000    2.273    2.727    1.091    0.000    2.182 
#    0.000    3.182    0.000    6.000    0.000    1.273 
#    0.000    0.000    0.000    0.000    0.000    0.000 
#
# Total GULP energy -545675.063220 kJ/mol
# GULP energy per Si atom -12401.705982 kJ/mol
# Density = 1.825170 g / cm^3
# Si number density = 18.293339 Si / 1000 Ang^3
#
#
#
# Elastic Constant Matrix: (Units=GPa)
#
#
# Indices 1 2 3 4 5 6 
#
# 1 177.7476 40.7840 70.5013 0.0000 0.0000 0.0000
# 2 40.7840 42.5684 24.9931 0.0000 0.0000 0.0000
# 3 70.5013 24.9931 111.1667 0.0000 0.0000 0.0000
# 4 0.0000 0.0000 0.0000 16.1089 0.0000 0.0000
# 5 0.0000 0.0000 0.0000 0.0000 29.4870 0.0000
# 6 0.0000 0.0000 0.0000 0.0000 0.0000 26.9847
#
#
#
# Elastic Compliance Matrix: (Units=1/GPa)
#
#
# Indices 1 2 3 4 5 6 
#
# 1 0.008605 -0.005807 -0.004152 0.000000 0.000000 0.000000
# 2 -0.005807 0.030983 -0.003283 0.000000 0.000000 0.000000
# 3 -0.004152 -0.003283 0.012367 0.000000 0.000000 0.000000
# 4 0.000000 0.000000 0.000000 0.062077 0.000000 0.000000
# 5 0.000000 0.000000 0.000000 0.000000 0.033913 0.000000
# 6 0.000000 0.000000 0.000000 0.000000 0.000000 0.037058
#
#
# Mechanical properties :
#
#
# Convention : Reuss Voigt Hill
#
# Bulk Modulus (GPa) = 39.26017 67.11549 53.18783
# Shear Modulus (GPa) = 22.72972 27.52975 25.12974
#
# Velocity S-wave (km/s) = 3.52875 3.88352 3.71038
# Velocity P-wave (km/s) = 6.17340 7.54169 6.89159
#
# Compressibility (1/GPa) = 0.02547111
#
# Stress axis : x y z
#
# Youngs Moduli (GPa) = 116.21073 32.27626 80.86261
#
# Poissons Ratio (x) = 0.18742 0.33572
# Poissons Ratio (y) = 0.67480 0.26548
# Poissons Ratio (z) = 0.48248 0.10596
#
# Static dielectric constant tensor:
#      x y z
#    x 3.550510 0.000000 0.000000 
#    y 0.000000 3.013920 0.000000 
#    z 0.000000 0.000000 3.278310 
# 
# 
# High freq. dielectric constant tensor:
#      x y z
#    x 1.724550 0.000000 0.000000 
#    y 0.000000 1.678990 0.000000 
#    z 0.000000 0.000000 1.688210 
# 
# From -- ./inp_files/10467.got.cif
#   From: 2010.06.25/outbox.cif.g09.slc.cpg/sg71_6_cif.got.tgz:10467.got - 2010.06.28 04:59:45.
