data_PCOD8287294
_publ_section_title
;
Structure prediction by ZEFSAII (Michael W. Deem and Ramdas Pophale) SiO2 
 PCOD8287294
Probable space group: I M M M
;
_chemical_formula_sum "Si O2"
_cell_formula_units_Z 104
_cell_length_a 24.259651
_cell_length_b 27.385657
_cell_length_c 9.298820
_cell_angle_alpha 90.000000
_cell_angle_beta 90.000000
_cell_angle_gamma 90.000000
_cell_volume 6177.824323
_symmetry_space_group_name_H-M "I M M M"
_symmetry_group_IT_number 71
_symmetry_cell_setting 'orthorhombic'
loop_
_space_group_symop_operation_xyz
x,y,z
-x,-y,z
x,-y,-z
-x,y,-z
-x,-y,-z
x,y,-z
-x,y,z
x,-y,z
1/2+x,1/2+y,1/2+z
1/2-x,1/2-y,1/2+z
1/2+x,1/2-y,1/2-z
1/2-x,1/2+y,1/2-z
1/2-x,1/2-y,1/2-z
1/2+x,1/2+y,1/2-z
1/2-x,1/2+y,1/2+z
1/2+x,1/2-y,1/2+z
loop_
_atom_site_type_symbol
_atom_site_label
_atom_site_fract_x
_atom_site_fract_y
_atom_site_fract_z
Si Si1 0.108744 0.136676 0.829964
Si Si2 0.195253 0.309188 0.336838
Si Si3 0.000000 0.811293 0.829683
Si Si4 0.000000 0.701794 0.829686
Si Si5 0.417023 0.861071 0.166756
Si Si6 0.500000 0.055134 0.832043
Si Si7 0.695880 0.697168 0.164188
Si Si8 0.562679 0.555800 0.838323
O O1 0.054105 0.162779 0.769470
O O2 0.160516 0.164209 0.768278
O O3 0.105461 0.082071 0.768276
O O4 0.113400 0.135692 0.000000
O O5 0.217732 0.316794 0.500000
O O6 0.148186 0.350833 0.306842
O O7 0.242183 0.313493 0.217413
O O8 0.174643 0.253059 0.322761
O O9 0.000000 0.756589 0.773739
O O10 0.000000 0.813458 0.000000
O O11 0.945233 0.678289 0.767407
O O12 0.000000 0.696743 0.000000
O O13 0.443642 0.914356 0.209942
O O14 0.431299 0.851195 0.000000
O O15 0.500000 0.000000 0.760912
O O16 0.500000 0.047029 0.000000
O O17 0.692005 0.679375 0.000000
O O18 0.500000 0.562027 0.782625
O O19 0.580446 0.500000 0.836227
O O20 0.568020 0.576655 0.000000
#
# Coordination Sequence:
#
# PCOD8287294 Si02
#       8
#    16  16   8   8  16   8  16  16
#     4  11  20  32  48  69  97 127 161 199 242 290
#     4   9  18  33  50  69  93 127 167 204 242 287
#     4   9  19  30  41  64  97 128 155 190 235 283
#     4  10  18  28  43  66  97 129 157 185 229 284
#     4   9  17  30  48  69  95 124 158 196 236 285
#     4   8  14  26  47  75 101 124 151 188 236 286
#     4  10  20  32  48  70  96 126 164 204 246 292
#     4   9  18  33  51  70  93 121 155 196 242 290
#
# _framework density 16.834405
#
# number of rings (size 3 to 8) (size 9 to 14) (size 15 to 20)
#    0.000    2.538    0.769    3.000    0.000    1.538 
#    0.000    3.077    0.000    4.615    0.000    2.154 
#    0.000    0.000    0.000    0.000    0.000    0.000 
#
# Total GULP energy -644294.990579 kJ/mol
# GULP energy per Si atom -12390.288280 kJ/mol
# Density = 1.679609 g / cm^3
# Si number density = 16.834405 Si / 1000 Ang^3
#
#
#
# Elastic Constant Matrix: (Units=GPa)
#
#
# Indices 1 2 3 4 5 6 
#
# 1 73.0194 42.3759 31.6333 0.0000 0.0000 0.0000
# 2 42.3759 93.6212 38.3552 0.0000 0.0000 0.0000
# 3 31.6333 38.3552 79.5335 0.0000 0.0000 0.0000
# 4 0.0000 0.0000 0.0000 23.3952 0.0000 0.0000
# 5 0.0000 0.0000 0.0000 0.0000 23.5104 0.0000
# 6 0.0000 0.0000 0.0000 0.0000 0.0000 20.3037
#
#
#
# Elastic Compliance Matrix: (Units=1/GPa)
#
#
# Indices 1 2 3 4 5 6 
#
# 1 0.019745 -0.007128 -0.004416 0.000000 0.000000 0.000000
# 2 -0.007128 0.015885 -0.004825 0.000000 0.000000 0.000000
# 3 -0.004416 -0.004825 0.016657 0.000000 0.000000 0.000000
# 4 0.000000 0.000000 0.000000 0.042744 0.000000 0.000000
# 5 0.000000 0.000000 0.000000 0.000000 0.042534 0.000000
# 6 0.000000 0.000000 0.000000 0.000000 0.000000 0.049252
#
#
# Mechanical properties :
#
#
# Convention : Reuss Voigt Hill
#
# Bulk Modulus (GPa) = 51.15649 52.32252 51.73951
# Shear Modulus (GPa) = 22.11707 22.36251 22.23979
#
# Velocity S-wave (km/s) = 3.62857 3.64865 3.63863
# Velocity P-wave (km/s) = 6.92888 6.99274 6.96088
#
# Compressibility (1/GPa) = 0.01954786
#
# Stress axis : x y z
#
# Youngs Moduli (GPa) = 50.64683 62.95422 60.03634
#
# Poissons Ratio (x) = 0.44874 0.26510
# Poissons Ratio (y) = 0.36101 0.28969
# Poissons Ratio (z) = 0.22364 0.30377
#
# Static dielectric constant tensor:
#      x y z
#    x 3.067600 0.000000 0.000000 
#    y 0.000000 3.253210 0.000000 
#    z 0.000000 0.000000 3.083690 
# 
# 
# High freq. dielectric constant tensor:
#      x y z
#    x 1.634180 0.000000 0.000000 
#    y 0.000000 1.636530 0.000000 
#    z 0.000000 0.000000 1.645940 
# 
# From -- ./inp_files/13664.got.cif
#   From: 2010.06.25/outbox.cif.g09.slc.cpg/sg71_7_cif.got.tgz:13664.got - 2010.06.28 04:59:45.
