data_PCOD8287261
_publ_section_title
;
Structure prediction by ZEFSAII (Michael W. Deem and Ramdas Pophale) SiO2 
 PCOD8287261
Probable space group: I M M M
;
_chemical_formula_sum "Si O2"
_cell_formula_units_Z 88
_cell_length_a 29.623708
_cell_length_b 23.829195
_cell_length_c 9.141493
_cell_angle_alpha 90.000000
_cell_angle_beta 90.000000
_cell_angle_gamma 90.000000
_cell_volume 6453.063229
_symmetry_space_group_name_H-M "I M M M"
_symmetry_group_IT_number 71
_symmetry_cell_setting 'orthorhombic'
loop_
_space_group_symop_operation_xyz
x,y,z
-x,-y,z
x,-y,-z
-x,y,-z
-x,-y,-z
x,y,-z
-x,y,z
x,-y,z
1/2+x,1/2+y,1/2+z
1/2-x,1/2-y,1/2+z
1/2+x,1/2-y,1/2-z
1/2-x,1/2+y,1/2-z
1/2-x,1/2-y,1/2-z
1/2+x,1/2+y,1/2-z
1/2-x,1/2+y,1/2+z
1/2+x,1/2-y,1/2+z
loop_
_atom_site_type_symbol
_atom_site_label
_atom_site_fract_x
_atom_site_fract_y
_atom_site_fract_z
Si Si1 0.500000 0.934023 0.174386
Si Si2 0.236124 0.500000 0.333864
Si Si3 0.411285 0.893904 0.674199
Si Si4 0.255139 0.622871 0.668231
Si Si5 0.355408 0.000000 0.671432
Si Si6 0.840894 0.674450 0.667691
Si Si7 0.210477 0.781218 0.332170
O O1 0.541691 0.900564 0.243222
O O2 0.500000 0.000000 0.220651
O O3 0.500000 0.927958 0.000000
O O4 0.217932 0.500000 0.500000
O O5 0.264666 0.443312 0.304646
O O6 0.194669 0.500000 0.227109
O O7 0.419004 0.891099 0.500000
O O8 0.383596 0.839625 0.729526
O O9 0.381543 0.945965 0.728281
O O10 0.261325 0.639668 0.500000
O O11 0.204136 0.640044 0.717169
O O12 0.293248 0.656932 0.759688
O O13 0.353370 0.000000 0.500000
O O14 0.852291 0.658955 0.500000
O O15 0.833698 0.741910 0.684061
O O16 0.223788 0.789023 0.500000
O O17 0.250000 0.750000 0.250000
#
# Coordination Sequence:
#
# PCOD8287261 Si02
#       7
#     8   8  16  16   8  16  16
#     4  11  23  35  47  59  75 103 133 162 201 248
#     4  10  18  28  41  57  80 108 135 165 199 240
#     4  11  21  32  45  60  78  99 127 167 209 244
#     4   9  17  27  40  58  79 103 131 163 198 236
#     4  10  20  29  39  58  79 100 128 166 207 243
#     4   9  17  29  43  58  75  99 131 163 197 240
#     4   9  17  28  41  56  76 100 127 162 199 235
#
# _framework density 13.636934999999999
#
# number of rings (size 3 to 8) (size 9 to 14) (size 15 to 20)
#    0.000    2.273    2.727    2.455    0.000    5.455 
#    0.000    0.000    0.000    0.000    0.000    0.000 
#    0.000    0.000    0.000    0.000    0.000    0.909 
#
# Total GULP energy -545316.087547 kJ/mol
# GULP energy per Si atom -12393.547444 kJ/mol
# Density = 1.360590 g / cm^3
# Si number density = 13.636935 Si / 1000 Ang^3
#
#
#
# Elastic Constant Matrix: (Units=GPa)
#
#
# Indices 1 2 3 4 5 6 
#
# 1 47.3370 35.7298 31.5369 0.0000 0.0000 0.0000
# 2 35.7298 89.6093 33.4007 0.0000 0.0000 0.0000
# 3 31.5369 33.4007 56.3842 0.0000 0.0000 0.0000
# 4 0.0000 0.0000 0.0000 21.3003 0.0000 0.0000
# 5 0.0000 0.0000 0.0000 0.0000 20.3642 0.0000
# 6 0.0000 0.0000 0.0000 0.0000 0.0000 56.7234
#
#
#
# Elastic Compliance Matrix: (Units=1/GPa)
#
#
# Indices 1 2 3 4 5 6 
#
# 1 0.039161 -0.009562 -0.016240 0.000000 0.000000 0.000000
# 2 -0.009562 0.016656 -0.004519 0.000000 0.000000 0.000000
# 3 -0.016240 -0.004519 0.029496 0.000000 0.000000 0.000000
# 4 0.000000 0.000000 0.000000 0.046948 0.000000 0.000000
# 5 0.000000 0.000000 0.000000 0.000000 0.049106 0.000000
# 6 0.000000 0.000000 0.000000 0.000000 0.000000 0.017629
#
#
# Mechanical properties :
#
#
# Convention : Reuss Voigt Hill
#
# Bulk Modulus (GPa) = 40.53021 43.85172 42.19096
# Shear Modulus (GPa) = 18.66638 25.85511 22.26075
#
# Velocity S-wave (km/s) = 3.70376 4.35899 4.04466
# Velocity P-wave (km/s) = 6.93368 7.58688 7.26762
#
# Compressibility (1/GPa) = 0.02467295
#
# Stress axis : x y z
#
# Youngs Moduli (GPa) = 25.53530 60.03692 33.90335
#
# Poissons Ratio (x) = 0.57405 0.55058
# Poissons Ratio (y) = 0.24416 0.15320
# Poissons Ratio (z) = 0.41469 0.27130
#
# Static dielectric constant tensor:
#      x y z
#    x 2.432300 0.000000 0.000000 
#    y 0.000000 3.321170 0.000000 
#    z 0.000000 0.000000 2.833100 
# 
# 
# High freq. dielectric constant tensor:
#      x y z
#    x 1.467170 0.000000 0.000000 
#    y 0.000000 1.512990 0.000000 
#    z 0.000000 0.000000 1.532930 
# 
# From -- ./inp_files/13564.got.cif
#   From: 2010.06.25/outbox.cif.g09.slc.cpg/sg71_7_cif.got.tgz:13564.got - 2010.06.28 04:59:45.
