data_PCOD8287186
_publ_section_title
;
Structure prediction by ZEFSAII (Michael W. Deem and Ramdas Pophale) SiO2 
 PCOD8287186
Probable space group: I M M M
;
_chemical_formula_sum "Si O2"
_cell_formula_units_Z 96
_cell_length_a 29.414772
_cell_length_b 23.670187
_cell_length_c 8.995384
_cell_angle_alpha 90.000000
_cell_angle_beta 90.000000
_cell_angle_gamma 90.000000
_cell_volume 6263.064480
_symmetry_space_group_name_H-M "I M M M"
_symmetry_group_IT_number 71
_symmetry_cell_setting 'orthorhombic'
loop_
_space_group_symop_operation_xyz
x,y,z
-x,-y,z
x,-y,-z
-x,y,-z
-x,-y,-z
x,y,-z
-x,y,z
x,-y,z
1/2+x,1/2+y,1/2+z
1/2-x,1/2-y,1/2+z
1/2+x,1/2-y,1/2-z
1/2-x,1/2+y,1/2-z
1/2-x,1/2-y,1/2-z
1/2+x,1/2+y,1/2-z
1/2-x,1/2+y,1/2+z
1/2+x,1/2-y,1/2+z
loop_
_atom_site_type_symbol
_atom_site_label
_atom_site_fract_x
_atom_site_fract_y
_atom_site_fract_z
Si Si1 0.408666 0.246910 0.674014
Si Si2 0.500000 0.127594 0.331132
Si Si3 0.000000 0.742839 0.324836
Si Si4 0.680773 0.937236 0.175490
Si Si5 0.681277 0.724881 0.173483
Si Si6 0.901916 0.614627 0.167518
Si Si7 0.739848 0.834164 0.826177
O O1 0.411567 0.259492 0.500000
O O2 0.454640 0.269740 0.751972
O O3 0.366473 0.280768 0.742912
O O4 0.401877 0.180717 0.708173
O O5 0.500000 0.154551 0.500000
O O6 0.500000 0.176352 0.208745
O O7 0.546205 0.091165 0.312259
O O8 0.000000 0.754007 0.500000
O O9 0.630469 0.920373 0.226063
O O10 0.718529 0.892994 0.232714
O O11 0.692965 0.000000 0.234227
O O12 0.679804 0.935531 0.000000
O O13 0.703118 0.785723 0.208629
O O14 0.714281 0.675940 0.234375
O O15 0.673364 0.715651 0.000000
O O16 0.884606 0.605366 0.000000
O O17 0.751927 0.835596 0.000000
#
# Coordination Sequence:
#
# PCOD8287186 Si02
#       7
#    16   8   8  16  16  16  16
#     4  10  18  29  44  63  89 118 145 177 218 262
#     4   8  16  30  43  59  80 107 140 181 227 269
#     4  10  18  26  40  63  89 116 147 178 212 257
#     4  10  20  33  47  62  83 111 144 182 223 266
#     4  10  18  28  46  68  87 110 142 180 219 261
#     4   9  17  29  45  61  80 106 142 182 222 265
#     4   9  18  31  44  62  87 112 140 178 223 266
#
# _framework density 15.327959999999999
#
# number of rings (size 3 to 8) (size 9 to 14) (size 15 to 20)
#    0.000    2.500    1.667    2.750    0.000    4.333 
#    0.000    0.417    0.000    2.500    0.000    0.000 
#    0.000    0.000    0.000    0.750    0.000   15.500 
#
# Total GULP energy -595057.493220 kJ/mol
# GULP energy per Si atom -12397.031109 kJ/mol
# Density = 1.529307 g / cm^3
# Si number density = 15.327960 Si / 1000 Ang^3
#
#
#
# Elastic Constant Matrix: (Units=GPa)
#
#
# Indices 1 2 3 4 5 6 
#
# 1 136.6287 52.1731 57.9469 0.0000 0.0000 0.0000
# 2 52.1731 57.0575 21.3704 0.0000 0.0000 0.0000
# 3 57.9469 21.3704 66.4524 0.0000 0.0000 0.0000
# 4 0.0000 0.0000 0.0000 13.4427 0.0000 0.0000
# 5 0.0000 0.0000 0.0000 0.0000 31.3897 0.0000
# 6 0.0000 0.0000 0.0000 0.0000 0.0000 14.0539
#
#
#
# Elastic Compliance Matrix: (Units=1/GPa)
#
#
# Indices 1 2 3 4 5 6 
#
# 1 0.015702 -0.010494 -0.010318 0.000000 0.000000 0.000000
# 2 -0.010494 0.026939 0.000487 0.000000 0.000000 0.000000
# 3 -0.010318 0.000487 0.023889 0.000000 0.000000 0.000000
# 4 0.000000 0.000000 0.000000 0.074390 0.000000 0.000000
# 5 0.000000 0.000000 0.000000 0.000000 0.031858 0.000000
# 6 0.000000 0.000000 0.000000 0.000000 0.000000 0.071155
#
#
# Mechanical properties :
#
#
# Convention : Reuss Voigt Hill
#
# Bulk Modulus (GPa) = 38.63739 58.12437 48.38088
# Shear Modulus (GPa) = 17.05276 20.35381 18.70328
#
# Velocity S-wave (km/s) = 3.33907 3.64797 3.49694
# Velocity P-wave (km/s) = 6.33465 7.46635 6.92366
#
# Compressibility (1/GPa) = 0.02588167
#
# Stress axis : x y z
#
# Youngs Moduli (GPa) = 63.68561 37.12097 41.86055
#
# Poissons Ratio (x) = 0.38953 0.43191
# Poissons Ratio (y) = 0.66829 -0.02039
# Poissons Ratio (z) = 0.65709 -0.01808
#
# Static dielectric constant tensor:
#      x y z
#    x 3.130970 0.000000 0.000000 
#    y 0.000000 2.678510 0.000000 
#    z 0.000000 0.000000 2.919030 
# 
# 
# High freq. dielectric constant tensor:
#      x y z
#    x 1.595670 0.000000 0.000000 
#    y 0.000000 1.524350 0.000000 
#    z 0.000000 0.000000 1.594300 
# 
# From -- ./inp_files/15219.got.cif
#   From: 2010.06.25/outbox.cif.g09.slc.cpg/sg71_8_cif.got.tgz:15219.got - 2010.06.28 04:59:45.
