data_PCOD8287037
_publ_section_title
;
Structure prediction by ZEFSAII (Michael W. Deem and Ramdas Pophale) SiO2 
 PCOD8287037
Probable space group: I M M M
;
_chemical_formula_sum "Si O2"
_cell_formula_units_Z 72
_cell_length_a 27.974612
_cell_length_b 8.937826
_cell_length_c 19.331570
_cell_angle_alpha 90.000000
_cell_angle_beta 90.000000
_cell_angle_gamma 90.000000
_cell_volume 4833.515256
_symmetry_space_group_name_H-M "I M M M"
_symmetry_group_IT_number 71
_symmetry_cell_setting 'orthorhombic'
loop_
_space_group_symop_operation_xyz
x,y,z
-x,-y,z
x,-y,-z
-x,y,-z
-x,-y,-z
x,y,-z
-x,y,z
x,-y,z
1/2+x,1/2+y,1/2+z
1/2-x,1/2-y,1/2+z
1/2+x,1/2-y,1/2-z
1/2-x,1/2+y,1/2-z
1/2-x,1/2-y,1/2-z
1/2+x,1/2+y,1/2-z
1/2-x,1/2+y,1/2+z
1/2+x,1/2-y,1/2+z
loop_
_atom_site_type_symbol
_atom_site_label
_atom_site_fract_x
_atom_site_fract_y
_atom_site_fract_z
Si Si1 0.731432 0.175931 0.850362
Si Si2 0.500000 0.322369 0.421125
Si Si3 0.399510 0.322945 0.366098
Si Si4 0.344206 0.322440 0.500000
Si Si5 0.178151 0.323947 0.784648
Si Si6 0.262095 0.823423 0.000000
O O1 0.781504 0.256256 0.834662
O O2 0.690899 0.218746 0.794844
O O3 0.742761 0.000000 0.848224
O O4 0.712975 0.226513 0.927471
O O5 0.500000 0.500000 0.428292
O O6 0.500000 0.257110 0.500000
O O7 0.454115 0.269199 0.376806
O O8 0.396547 0.500000 0.356042
O O9 0.371349 0.263572 0.432804
O O10 0.374138 0.245037 0.300270
O O11 0.344986 0.500000 0.500000
O O12 0.291166 0.255974 0.500000
O O13 0.176699 0.500000 0.795708
O O14 0.258847 0.000000 0.000000
#
# Coordination Sequence:
#
# PCOD8287037 Si02
#       6
#    16   8  16   8  16   8
#     4   9  17  29  44  59  77 105 141 174 201 235
#     4   9  16  26  45  67  79  98 145 192 206 219
#     4  10  17  28  44  60  80 107 140 176 207 234
#     4   9  14  21  40  61  76 102 139 173 200 228
#     4  10  19  28  39  59  85 110 134 163 205 252
#     4   9  14  24  43  62  74  98 142 177 197 224
#
# _framework density 14.895991
#
# number of rings (size 3 to 8) (size 9 to 14) (size 15 to 20)
#    0.000    2.556    3.333    0.667    0.000    0.889 
#    0.000    2.778    0.000    0.667    0.000    0.000 
#    0.000    0.889    0.000   11.111    0.000    0.889 
#
# Total GULP energy -446055.214180 kJ/mol
# GULP energy per Si atom -12390.422616 kJ/mol
# Density = 1.486209 g / cm^3
# Si number density = 14.895991 Si / 1000 Ang^3
#
#
#
# Elastic Constant Matrix: (Units=GPa)
#
#
# Indices 1 2 3 4 5 6 
#
# 1 96.8267 23.0818 59.1648 0.0000 0.0000 0.0000
# 2 23.0818 28.8772 23.9968 0.0000 0.0000 0.0000
# 3 59.1648 23.9968 127.2929 0.0000 0.0000 0.0000
# 4 0.0000 0.0000 0.0000 16.7197 0.0000 0.0000
# 5 0.0000 0.0000 0.0000 0.0000 24.0227 0.0000
# 6 0.0000 0.0000 0.0000 0.0000 0.0000 17.2119
#
#
#
# Elastic Compliance Matrix: (Units=1/GPa)
#
#
# Indices 1 2 3 4 5 6 
#
# 1 0.015752 -0.007715 -0.005867 0.000000 0.000000 0.000000
# 2 -0.007715 0.044841 -0.004867 0.000000 0.000000 0.000000
# 3 -0.005867 -0.004867 0.011500 0.000000 0.000000 0.000000
# 4 0.000000 0.000000 0.000000 0.059810 0.000000 0.000000
# 5 0.000000 0.000000 0.000000 0.000000 0.041627 0.000000
# 6 0.000000 0.000000 0.000000 0.000000 0.000000 0.058099
#
#
# Mechanical properties :
#
#
# Convention : Reuss Voigt Hill
#
# Bulk Modulus (GPa) = 28.41369 51.72041 40.06705
# Shear Modulus (GPa) = 17.84062 21.37442 19.60752
#
# Velocity S-wave (km/s) = 3.46450 3.79213 3.63201
# Velocity P-wave (km/s) = 5.92620 7.34643 6.67420
#
# Compressibility (1/GPa) = 0.03519430
#
# Stress axis : x y z
#
# Youngs Moduli (GPa) = 63.48491 22.30108 86.95398
#
# Poissons Ratio (x) = 0.17206 0.51015
# Poissons Ratio (y) = 0.48980 0.42323
# Poissons Ratio (z) = 0.37246 0.10855
#
# Static dielectric constant tensor:
#      x y z
#    x 2.827170 0.000000 0.000000 
#    y 0.000000 2.614180 0.000000 
#    z 0.000000 0.000000 3.207590 
# 
# 
# High freq. dielectric constant tensor:
#      x y z
#    x 1.539330 0.000000 0.000000 
#    y 0.000000 1.544900 0.000000 
#    z 0.000000 0.000000 1.566860 
# 
# From -- ./inp_files/50713.got.cif
#   From: 2010.06.25/outbox.cif.g09.slc.cpg/sg71_26_cif.got.tgz:50713.got - 2010.06.28 04:59:45.
