data_PCOD8287023
_publ_section_title
;
Structure prediction by ZEFSAII (Michael W. Deem and Ramdas Pophale) SiO2 
 PCOD8287023
Probable space group: I M M M
;
_chemical_formula_sum "Si O2"
_cell_formula_units_Z 104
_cell_length_a 9.432135
_cell_length_b 24.027746
_cell_length_c 27.832424
_cell_angle_alpha 90.000000
_cell_angle_beta 90.000000
_cell_angle_gamma 90.000000
_cell_volume 6307.744190
_symmetry_space_group_name_H-M "I M M M"
_symmetry_group_IT_number 71
_symmetry_cell_setting 'orthorhombic'
loop_
_space_group_symop_operation_xyz
x,y,z
-x,-y,z
x,-y,-z
-x,y,-z
-x,-y,-z
x,y,-z
-x,y,z
x,-y,z
1/2+x,1/2+y,1/2+z
1/2-x,1/2-y,1/2+z
1/2+x,1/2-y,1/2-z
1/2-x,1/2+y,1/2-z
1/2-x,1/2-y,1/2-z
1/2+x,1/2+y,1/2-z
1/2-x,1/2+y,1/2+z
1/2+x,1/2-y,1/2+z
loop_
_atom_site_type_symbol
_atom_site_label
_atom_site_fract_x
_atom_site_fract_y
_atom_site_fract_z
Si Si1 0.837303 0.363595 0.056730
Si Si2 0.656628 0.066010 0.282995
Si Si3 0.668234 0.437554 0.500000
Si Si4 0.667584 0.740433 0.553010
Si Si5 0.662312 0.434087 0.128373
Si Si6 0.667973 0.373448 0.405447
Si Si7 0.833601 0.436042 0.675436
O O1 0.788375 0.301325 0.072648
O O2 0.738239 0.408034 0.082440
O O3 0.000000 0.374680 0.071508
O O4 0.817897 0.370688 0.000000
O O5 0.500000 0.090267 0.294379
O O6 0.766258 0.088698 0.322583
O O7 0.704762 0.083565 0.229528
O O8 0.649133 0.000000 0.284707
O O9 0.730268 0.500000 0.500000
O O10 0.500000 0.438066 0.500000
O O11 0.722316 0.406371 0.452427
O O12 0.734143 0.730248 0.500000
O O13 0.500000 0.738970 0.546942
O O14 0.714721 0.691189 0.588854
O O15 0.500000 0.415124 0.129174
O O16 0.677806 0.500000 0.124034
O O17 0.500000 0.380112 0.398634
O O18 0.744992 0.396647 0.358995
O O19 0.788060 0.500000 0.667015
O O20 0.000000 0.428876 0.665659
#
# Coordination Sequence:
#
# PCOD8287023 Si02
#       7
#    16  16   8  16  16  16  16
#     4   9  18  32  51  72  94 124 161 193 221 266
#     4   8  15  30  50  67  87 121 160 191 223 273
#     4   9  16  24  37  63  95 123 152 187 230 278
#     4   8  14  28  48  68  89 118 160 203 235 263
#     4  10  20  32  48  73 102 125 145 180 233 281
#     4  10  17  27  46  68  91 121 158 200 237 275
#     4   9  18  31  45  65  95 126 155 192 238 282
#
# _framework density 16.487670000000001
#
# number of rings (size 3 to 8) (size 9 to 14) (size 15 to 20)
#    0.000    3.000    0.769    2.769    0.000    3.077 
#    0.000    4.231    0.000    3.231    0.000    0.000 
#    0.000    0.000    0.000    0.000    0.000    0.000 
#
# Total GULP energy -644546.469532 kJ/mol
# GULP energy per Si atom -12395.124414 kJ/mol
# Density = 1.645014 g / cm^3
# Si number density = 16.487670 Si / 1000 Ang^3
#
#
#
# Elastic Constant Matrix: (Units=GPa)
#
#
# Indices 1 2 3 4 5 6 
#
# 1 73.6302 39.3483 57.2395 0.0000 0.0000 0.0000
# 2 39.3483 57.3034 45.5413 0.0000 0.0000 0.0000
# 3 57.2395 45.5413 101.7370 0.0000 0.0000 0.0000
# 4 0.0000 0.0000 0.0000 11.2959 0.0000 0.0000
# 5 0.0000 0.0000 0.0000 0.0000 27.9900 0.0000
# 6 0.0000 0.0000 0.0000 0.0000 0.0000 16.9442
#
#
#
# Elastic Compliance Matrix: (Units=1/GPa)
#
#
# Indices 1 2 3 4 5 6 
#
# 1 0.027531 -0.010236 -0.010908 0.000000 0.000000 0.000000
# 2 -0.010236 0.030893 -0.008070 0.000000 0.000000 0.000000
# 3 -0.010908 -0.008070 0.019579 0.000000 0.000000 0.000000
# 4 0.000000 0.000000 0.000000 0.088527 0.000000 0.000000
# 5 0.000000 0.000000 0.000000 0.000000 0.035727 0.000000
# 6 0.000000 0.000000 0.000000 0.000000 0.000000 0.059017
#
#
# Mechanical properties :
#
#
# Convention : Reuss Voigt Hill
#
# Bulk Modulus (GPa) = 51.08362 57.43653 54.26007
# Shear Modulus (GPa) = 15.32678 17.28213 16.30445
#
# Velocity S-wave (km/s) = 3.05223 3.24108 3.14807
# Velocity P-wave (km/s) = 6.59330 6.99413 6.79667
#
# Compressibility (1/GPa) = 0.01957575
#
# Stress axis : x y z
#
# Youngs Moduli (GPa) = 36.32275 32.36963 51.07635
#
# Poissons Ratio (x) = 0.33133 0.55712
# Poissons Ratio (y) = 0.37180 0.41218
# Poissons Ratio (z) = 0.39619 0.26122
#
# Static dielectric constant tensor:
#      x y z
#    x 2.916340 0.000000 0.000000 
#    y 0.000000 3.160450 0.000000 
#    z 0.000000 0.000000 3.136380 
# 
# 
# High freq. dielectric constant tensor:
#      x y z
#    x 1.610840 0.000000 0.000000 
#    y 0.000000 1.618290 0.000000 
#    z 0.000000 0.000000 1.632870 
# 
# From -- ./inp_files/17274.got.cif
#   From: 2010.06.25/outbox.cif.g09.slc.cpg/sg71_9_cif.got.tgz:17274.got - 2010.06.28 04:59:45.
