data_PCOD8287147
_publ_section_title
;
Structure prediction by ZEFSAII (Michael W. Deem and Ramdas Pophale) SiO2 
 PCOD8287147
Probable space group: I M M M
;
_chemical_formula_sum "Si O2"
_cell_formula_units_Z 48
_cell_length_a 17.405308
_cell_length_b 7.368977
_cell_length_c 21.992028
_cell_angle_alpha 90.000000
_cell_angle_beta 90.000000
_cell_angle_gamma 90.000000
_cell_volume 2820.682432
_symmetry_space_group_name_H-M "I M M M"
_symmetry_group_IT_number 71
_symmetry_cell_setting 'orthorhombic'
loop_
_space_group_symop_operation_xyz
x,y,z
-x,-y,z
x,-y,-z
-x,y,-z
-x,-y,-z
x,y,-z
-x,y,z
x,-y,z
1/2+x,1/2+y,1/2+z
1/2-x,1/2-y,1/2+z
1/2+x,1/2-y,1/2-z
1/2-x,1/2+y,1/2-z
1/2-x,1/2-y,1/2-z
1/2+x,1/2+y,1/2-z
1/2-x,1/2+y,1/2+z
1/2+x,1/2-y,1/2+z
loop_
_atom_site_type_symbol
_atom_site_label
_atom_site_fract_x
_atom_site_fract_y
_atom_site_fract_z
Si Si1 0.080789 0.500000 0.348365
Si Si2 0.269804 0.000000 0.070260
Si Si3 0.645833 0.791681 0.570009
Si Si4 0.000000 0.204834 0.283814
Si Si5 0.000000 0.285918 0.852886
O O1 0.154126 0.500000 0.390054
O O2 0.076199 0.317416 0.306007
O O3 0.000000 0.500000 0.387551
O O4 0.221170 0.822194 0.087007
O O5 0.294415 0.000000 0.000000
O O6 0.622690 0.760261 0.500000
O O7 0.574805 0.723032 0.610016
O O8 0.666022 0.000000 0.583191
O O9 0.000000 0.187063 0.211353
O O10 0.000000 0.000000 0.310770
O O11 0.000000 0.500000 0.843493
#
# Coordination Sequence:
#
# PCOD8287147 Si02
#       5
#     8   8  16   8   8
#     4   8  20  39  55  73 106 128 179 221 261 301
#     4  10  20  36  56  80 107 133 168 218 265 309
#     4   9  19  32  51  81 112 139 170 207 256 313
#     4   9  19  35  56  71  99 135 178 220 251 302
#     4  10  17  33  56  75 110 145 174 209 251 301
#
# _framework density 17.017158999999999
#
# number of rings (size 3 to 8) (size 9 to 14) (size 15 to 20)
#    1.000    1.667    1.667    0.500    2.333    3.667 
#    0.000    4.167    0.000    1.000    0.000    0.000 
#    0.000    0.000    0.000    0.000    0.000    0.000 
#
# Total GULP energy -297373.471115 kJ/mol
# GULP energy per Si atom -12390.561296 kJ/mol
# Density = 1.697843 g / cm^3
# Si number density = 17.017159 Si / 1000 Ang^3
#
#
#
# Elastic Constant Matrix: (Units=GPa)
#
#
# Indices 1 2 3 4 5 6 
#
# 1 138.9035 54.9252 81.3793 0.0000 0.0000 0.0000
# 2 54.9252 120.1301 48.1627 0.0000 0.0000 0.0000
# 3 81.3793 48.1627 91.7535 0.0000 0.0000 0.0000
# 4 0.0000 0.0000 0.0000 17.3024 0.0000 0.0000
# 5 0.0000 0.0000 0.0000 0.0000 26.8177 0.0000
# 6 0.0000 0.0000 0.0000 0.0000 0.0000 -96.6800
#
#
#
# Elastic Compliance Matrix: (Units=1/GPa)
#
#
# Indices 1 2 3 4 5 6 
#
# 1 0.015348 -0.001975 -0.012576 0.000000 0.000000 0.000000
# 2 -0.001975 0.010797 -0.003916 0.000000 0.000000 0.000000
# 3 -0.012576 -0.003916 0.024108 0.000000 0.000000 0.000000
# 4 0.000000 0.000000 0.000000 0.057795 0.000000 0.000000
# 5 0.000000 0.000000 0.000000 0.000000 0.037289 0.000000
# 6 0.000000 0.000000 0.000000 0.000000 0.000000 -0.010343
#
#
# Mechanical properties :
#
#
# Convention : Reuss Voigt Hill
#
# Bulk Modulus (GPa) = 75.07629 79.96905 77.52267
# Shear Modulus (GPa) = 28.34976 0.57601 14.46289
#
# Velocity S-wave (km/s) = 4.08603 0.58243 2.91847
# Velocity P-wave (km/s) = 8.15320 6.89547 7.55057
#
# Compressibility (1/GPa) = 0.01331979
#
# Stress axis : x y z
#
# Youngs Moduli (GPa) = 65.15419 92.61519 41.47984
#
# Poissons Ratio (x) = 0.18296 0.52165
# Poissons Ratio (y) = 0.12871 0.16242
# Poissons Ratio (z) = 0.81937 0.36264
#
# Static dielectric constant tensor:
#      x y z
#    x 2.908330 0.000000 0.000000 
#    y 0.000000 3.387820 0.000000 
#    z 0.000000 0.000000 2.961310 
# 
# 
# High freq. dielectric constant tensor:
#      x y z
#    x 1.632880 0.000000 0.000000 
#    y 0.000000 1.670720 0.000000 
#    z 0.000000 0.000000 1.639810 
# 
# From -- ./inp_files/9429.got.cif
#   From: 2010.06.25/outbox.cif.g09.slc.cpg/sg71_5_cif.got.tgz:9429.got - 2010.06.28 04:59:45.
