data_PCOD8287341
_publ_section_title
;
Structure prediction by ZEFSAII (Michael W. Deem and Ramdas Pophale) SiO2 
 PCOD8287341
Probable space group: I M M M
;
_chemical_formula_sum "Si O2"
_cell_formula_units_Z 112
_cell_length_a 25.826307
_cell_length_b 14.491900
_cell_length_c 16.177681
_cell_angle_alpha 90.000000
_cell_angle_beta 90.000000
_cell_angle_gamma 90.000000
_cell_volume 6054.857204
_symmetry_space_group_name_H-M "I M M M"
_symmetry_group_IT_number 71
_symmetry_cell_setting 'orthorhombic'
loop_
_space_group_symop_operation_xyz
x,y,z
-x,-y,z
x,-y,-z
-x,y,-z
-x,-y,-z
x,y,-z
-x,y,z
x,-y,z
1/2+x,1/2+y,1/2+z
1/2-x,1/2-y,1/2+z
1/2+x,1/2-y,1/2-z
1/2-x,1/2+y,1/2-z
1/2-x,1/2-y,1/2-z
1/2+x,1/2+y,1/2-z
1/2-x,1/2+y,1/2+z
1/2+x,1/2-y,1/2+z
loop_
_atom_site_type_symbol
_atom_site_label
_atom_site_fract_x
_atom_site_fract_y
_atom_site_fract_z
Si Si1 0.442388 0.896399 0.598049
Si Si2 0.809724 0.598794 0.594890
Si Si3 0.798391 0.103578 0.163001
Si Si4 0.943180 0.897004 0.401684
Si Si5 0.755439 0.107378 0.655447
Si Si6 0.150579 0.214810 0.405136
Si Si7 0.844149 0.718489 0.098966
O O1 0.441287 0.898258 0.500000
O O2 0.500000 0.865115 0.628263
O O3 0.398439 0.825566 0.629521
O O4 0.430524 0.000000 0.631075
O O5 0.826129 0.594906 0.500000
O O6 0.824659 0.500000 0.637850
O O7 0.748055 0.612803 0.597555
O O8 0.838339 0.685740 0.638305
O O9 0.772941 0.125998 0.251151
O O10 0.841783 0.178134 0.137390
O O11 0.822596 0.000000 0.161682
O O12 0.937503 0.900199 0.500000
O O13 0.899332 0.831644 0.361435
O O14 0.000000 0.859606 0.376639
O O15 0.935190 0.000000 0.366388
O O16 0.800242 0.147809 0.597534
O O17 0.701950 0.158013 0.636742
O O18 0.748115 0.000000 0.635468
O O19 0.137422 0.233181 0.500000
O O20 0.839890 0.721608 0.000000
#
# Coordination Sequence:
#
# PCOD8287341 Si02
#       7
#    16  16  16  16  16  16  16
#     4   8  15  29  49  74 103 131 159 197 249 304
#     4   9  17  30  47  66  89 121 162 197 226 269
#     4  10  21  35  48  66  97 135 169 197 233 288
#     4   8  14  25  41  62  89 120 153 188 229 282
#     4  11  22  32  45  71 104 132 155 191 247 301
#     4  10  18  28  46  70  94 121 151 193 240 281
#     4  11  20  31  51  76 100 129 167 210 249 292
#
# _framework density 18.497546
#
# number of rings (size 3 to 8) (size 9 to 14) (size 15 to 20)
#    0.000    2.429    1.429    3.000    0.000    3.143 
#    0.000    0.000    0.000    1.714    0.000    7.000 
#    0.000    0.000    0.000    0.000    0.000    0.000 
#
# Total GULP energy -693921.439006 kJ/mol
# GULP energy per Si atom -12391.454268 kJ/mol
# Density = 1.845544 g / cm^3
# Si number density = 18.497546 Si / 1000 Ang^3
#
#
#
# Elastic Constant Matrix: (Units=GPa)
#
#
# Indices 1 2 3 4 5 6 
#
# 1 144.4048 90.7055 11.4940 0.0000 0.0000 0.0000
# 2 90.7055 161.4778 23.0847 0.0000 0.0000 0.0000
# 3 11.4940 23.0847 29.5317 0.0000 0.0000 0.0000
# 4 0.0000 0.0000 0.0000 18.6159 0.0000 0.0000
# 5 0.0000 0.0000 0.0000 0.0000 6.1392 0.0000
# 6 0.0000 0.0000 0.0000 0.0000 0.0000 34.1396
#
#
#
# Elastic Compliance Matrix: (Units=1/GPa)
#
#
# Indices 1 2 3 4 5 6 
#
# 1 0.010710 -0.006102 0.000601 0.000000 0.000000 0.000000
# 2 -0.006102 0.010449 -0.005793 0.000000 0.000000 0.000000
# 3 0.000601 -0.005793 0.038156 0.000000 0.000000 0.000000
# 4 0.000000 0.000000 0.000000 0.053717 0.000000 0.000000
# 5 0.000000 0.000000 0.000000 0.000000 0.162888 0.000000
# 6 0.000000 0.000000 0.000000 0.000000 0.000000 0.029292
#
#
# Mechanical properties :
#
#
# Convention : Reuss Voigt Hill
#
# Bulk Modulus (GPa) = 27.22708 65.10918 46.16813
# Shear Modulus (GPa) = 14.70414 25.78761 20.24588
#
# Velocity S-wave (km/s) = 2.82250 3.73783 3.31194
# Velocity P-wave (km/s) = 5.03719 7.34192 6.29591
#
# Compressibility (1/GPa) = 0.03672814
#
# Stress axis : x y z
#
# Youngs Moduli (GPa) = 93.37091 95.70726 26.20829
#
# Poissons Ratio (x) = 0.58401 -0.01576
# Poissons Ratio (y) = 0.56975 0.15181
# Poissons Ratio (z) = -0.05616 0.55439
#
# Static dielectric constant tensor:
#      x y z
#    x 3.533510 0.000000 0.000000 
#    y 0.000000 3.969660 0.000000 
#    z 0.000000 0.000000 3.029410 
# 
# 
# High freq. dielectric constant tensor:
#      x y z
#    x 1.696970 0.000000 0.000000 
#    y 0.000000 1.731630 0.000000 
#    z 0.000000 0.000000 1.678300 
# 
# From -- ./inp_files/39263.got.cif
#   From: 2010.06.25/outbox.cif.g09.slc.cpg/sg71_20_cif.got.tgz:39263.got - 2010.06.28 04:59:45.
