data_PCOD8287946
_publ_section_title
;
Structure prediction by ZEFSAII (Michael W. Deem and Ramdas Pophale) SiO2 
 PCOD8287946
Probable space group: I M M M
;
_chemical_formula_sum "Si O2"
_cell_formula_units_Z 52
_cell_length_a 7.657945
_cell_length_b 21.021253
_cell_length_c 18.859832
_cell_angle_alpha 90.000000
_cell_angle_beta 90.000000
_cell_angle_gamma 90.000000
_cell_volume 3036.048198
_symmetry_space_group_name_H-M "I M M M"
_symmetry_group_IT_number 71
_symmetry_cell_setting 'orthorhombic'
loop_
_space_group_symop_operation_xyz
x,y,z
-x,-y,z
x,-y,-z
-x,y,-z
-x,-y,-z
x,y,-z
-x,y,z
x,-y,z
1/2+x,1/2+y,1/2+z
1/2-x,1/2-y,1/2+z
1/2+x,1/2-y,1/2-z
1/2-x,1/2+y,1/2-z
1/2-x,1/2-y,1/2-z
1/2+x,1/2+y,1/2-z
1/2-x,1/2+y,1/2+z
1/2+x,1/2-y,1/2+z
loop_
_atom_site_type_symbol
_atom_site_label
_atom_site_fract_x
_atom_site_fract_y
_atom_site_fract_z
Si Si1 0.500000 0.853340 0.000000
Si Si2 0.796602 0.225030 0.351311
Si Si3 0.301336 0.251002 0.500000
Si Si4 0.304658 0.352245 0.281567
Si Si5 0.000000 0.425116 0.647103
O O1 0.675177 0.811782 0.000000
O O2 0.500000 0.896900 0.068831
O O3 0.736719 0.207453 0.430921
O O4 0.694698 0.288220 0.328090
O O5 0.752967 0.166273 0.299457
O O6 0.000000 0.242615 0.348782
O O7 0.500000 0.275441 0.500000
O O8 0.500000 0.381114 0.284308
O O9 0.171783 0.404391 0.310115
O O10 0.000000 0.500000 0.640611
#
# Coordination Sequence:
#
# PCOD8287946 Si02
#       5
#     4  16   8  16   8
#     4  12  23  40  48  80 114 148 195 216 258 328
#     4  10  18  32  53  81 113 138 171 228 288 332
#     4  12  20  29  53  83 116 147 169 219 281 338
#     4  10  20  34  55  79 104 140 185 231 276 322
#     4  12  25  40  56  73 110 159 195 224 258 313
#
# _framework density 17.127528000000002
#
# number of rings (size 3 to 8) (size 9 to 14) (size 15 to 20)
#    0.000    1.231    6.154    1.154    4.308    0.615 
#    0.000    0.000    0.000    2.769    0.000    2.154 
#    0.000    4.923    0.000    0.000    0.000    0.000 
#
# Total GULP energy -322405.733407 kJ/mol
# GULP energy per Si atom -12400.220516 kJ/mol
# Density = 1.708855 g / cm^3
# Si number density = 17.127528 Si / 1000 Ang^3
#
#
#
# Elastic Constant Matrix: (Units=GPa)
#
#
# Indices 1 2 3 4 5 6 
#
# 1 120.4686 47.9907 51.3182 0.0000 0.0000 0.0000
# 2 47.9907 57.9580 45.6392 0.0000 0.0000 0.0000
# 3 51.3182 45.6392 167.2426 0.0000 0.0000 0.0000
# 4 0.0000 0.0000 0.0000 9.9938 0.0000 0.0000
# 5 0.0000 0.0000 0.0000 0.0000 19.6767 0.0000
# 6 0.0000 0.0000 0.0000 0.0000 0.0000 17.1398
#
#
#
# Elastic Compliance Matrix: (Units=1/GPa)
#
#
# Indices 1 2 3 4 5 6 
#
# 1 0.012604 -0.009414 -0.001299 0.000000 0.000000 0.000000
# 2 -0.009414 0.029008 -0.005027 0.000000 0.000000 0.000000
# 3 -0.001299 -0.005027 0.007750 0.000000 0.000000 0.000000
# 4 0.000000 0.000000 0.000000 0.100062 0.000000 0.000000
# 5 0.000000 0.000000 0.000000 0.000000 0.050822 0.000000
# 6 0.000000 0.000000 0.000000 0.000000 0.000000 0.058344
#
#
# Mechanical properties :
#
#
# Convention : Reuss Voigt Hill
#
# Bulk Modulus (GPa) = 55.92275 70.61841 63.27058
# Shear Modulus (GPa) = 16.89017 22.74347 19.81682
#
# Velocity S-wave (km/s) = 3.14370 3.64798 3.40518
# Velocity P-wave (km/s) = 6.77486 7.68532 7.24441
#
# Compressibility (1/GPa) = 0.01788181
#
# Stress axis : x y z
#
# Youngs Moduli (GPa) = 79.33736 34.47350 129.03709
#
# Poissons Ratio (x) = 0.32454 0.16757
# Poissons Ratio (y) = 0.74690 0.64870
# Poissons Ratio (z) = 0.10303 0.17331
#
# Static dielectric constant tensor:
#      x y z
#    x 3.385390 0.000000 0.000000 
#    y 0.000000 2.661120 0.000000 
#    z 0.000000 0.000000 3.797080 
# 
# 
# High freq. dielectric constant tensor:
#      x y z
#    x 1.683620 0.000000 0.000000 
#    y 0.000000 1.589750 0.000000 
#    z 0.000000 0.000000 1.682400 
# 
# From -- ./inp_files/7144.got.cif
#   From: 2010.06.25/outbox.cif.g09.slc.cpg/sg71_4_cif.got.tgz:7144.got - 2010.06.28 04:59:45.
