data_PCOD8287749
_publ_section_title
;
Structure prediction by ZEFSAII (Michael W. Deem and Ramdas Pophale) SiO2 
 PCOD8287749
Probable space group: I M M M
;
_chemical_formula_sum "Si O2"
_cell_formula_units_Z 80
_cell_length_a 24.511866
_cell_length_b 12.736324
_cell_length_c 13.458157
_cell_angle_alpha 90.000000
_cell_angle_beta 90.000000
_cell_angle_gamma 90.000000
_cell_volume 4201.516397
_symmetry_space_group_name_H-M "I M M M"
_symmetry_group_IT_number 71
_symmetry_cell_setting 'orthorhombic'
loop_
_space_group_symop_operation_xyz
x,y,z
-x,-y,z
x,-y,-z
-x,y,-z
-x,-y,-z
x,y,-z
-x,y,z
x,-y,z
1/2+x,1/2+y,1/2+z
1/2-x,1/2-y,1/2+z
1/2+x,1/2-y,1/2-z
1/2-x,1/2+y,1/2-z
1/2-x,1/2-y,1/2-z
1/2+x,1/2+y,1/2-z
1/2-x,1/2+y,1/2+z
1/2+x,1/2-y,1/2+z
loop_
_atom_site_type_symbol
_atom_site_label
_atom_site_fract_x
_atom_site_fract_y
_atom_site_fract_z
Si Si1 0.179296 0.500000 0.118135
Si Si2 0.889964 0.316941 0.210026
Si Si3 0.061221 0.881645 0.882533
Si Si4 0.697619 0.500000 0.882729
Si Si5 0.000000 0.385638 0.716972
Si Si6 0.000000 0.177160 0.386784
Si Si7 0.618848 0.318111 0.118072
O O1 0.152697 0.607002 0.157296
O O2 0.241207 0.500000 0.158928
O O3 0.175987 0.500000 0.000000
O O4 0.895200 0.204012 0.155591
O O5 0.948015 0.374579 0.210814
O O6 0.870307 0.290983 0.323300
O O7 0.000000 0.859453 0.837951
O O8 0.080038 0.000000 0.853551
O O9 0.057872 0.871411 0.000000
O O10 0.665274 0.602355 0.846819
O O11 0.698636 0.500000 0.000000
O O12 0.000000 0.303052 0.627022
O O13 0.000000 0.500000 0.667051
O O14 0.941322 0.136097 0.344615
O O15 0.000000 0.144534 0.500000
O O16 0.618555 0.296351 0.000000
#
# Coordination Sequence:
#
# PCOD8287749 Si02
#       7
#     8  16  16   8   8   8  16
#     4  11  24  39  56  80 107 146 197 239 275 321
#     4  11  20  34  56  82 111 146 186 229 271 335
#     4   9  18  32  50  75 110 148 182 224 282 334
#     4   9  20  39  57  78 110 147 186 233 285 323
#     4  10  18  31  46  75 115 144 173 218 267 319
#     4   8  16  30  50  80 109 138 179 213 264 334
#     4   9  19  35  56  82 113 145 177 223 279 336
#
# _framework density 19.040745000000001
#
# number of rings (size 3 to 8) (size 9 to 14) (size 15 to 20)
#    0.000    2.400    2.000    1.200    1.400    1.400 
#    0.000    3.000    0.000    0.000    0.000    1.400 
#    0.000    0.000    0.000    0.000    0.000    0.000 
#
# Total GULP energy -495604.918468 kJ/mol
# GULP energy per Si atom -12390.122962 kJ/mol
# Density = 1.899741 g / cm^3
# Si number density = 19.040745 Si / 1000 Ang^3
#
#
#
# Elastic Constant Matrix: (Units=GPa)
#
#
# Indices 1 2 3 4 5 6 
#
# 1 145.7035 72.6332 39.9079 0.0000 0.0000 0.0000
# 2 72.6332 134.3630 36.4526 0.0000 0.0000 0.0000
# 3 39.9079 36.4526 50.8640 0.0000 0.0000 0.0000
# 4 0.0000 0.0000 0.0000 25.3550 0.0000 0.0000
# 5 0.0000 0.0000 0.0000 0.0000 20.8221 0.0000
# 6 0.0000 0.0000 0.0000 0.0000 0.0000 21.2724
#
#
#
# Elastic Compliance Matrix: (Units=1/GPa)
#
#
# Indices 1 2 3 4 5 6 
#
# 1 0.010365 -0.004217 -0.005110 0.000000 0.000000 0.000000
# 2 -0.004217 0.010954 -0.004542 0.000000 0.000000 0.000000
# 3 -0.005110 -0.004542 0.026925 0.000000 0.000000 0.000000
# 4 0.000000 0.000000 0.000000 0.039440 0.000000 0.000000
# 5 0.000000 0.000000 0.000000 0.000000 0.048026 0.000000
# 6 0.000000 0.000000 0.000000 0.000000 0.000000 0.047009
#
#
# Mechanical properties :
#
#
# Convention : Reuss Voigt Hill
#
# Bulk Modulus (GPa) = 48.76649 69.87977 59.32313
# Shear Modulus (GPa) = 23.01037 25.61901 24.31469
#
# Velocity S-wave (km/s) = 3.48009 3.67206 3.57737
# Velocity P-wave (km/s) = 6.46648 7.39990 6.94888
#
# Compressibility (1/GPa) = 0.02050588
#
# Stress axis : x y z
#
# Youngs Moduli (GPa) = 96.47879 91.28935 37.13990
#
# Poissons Ratio (x) = 0.38493 0.18980
# Poissons Ratio (y) = 0.40681 0.16870
# Poissons Ratio (z) = 0.49305 0.41465
#
# Static dielectric constant tensor:
#      x y z
#    x 3.637010 0.000000 0.000000 
#    y 0.000000 3.401560 0.000000 
#    z 0.000000 0.000000 3.462430 
# 
# 
# High freq. dielectric constant tensor:
#      x y z
#    x 1.720720 0.000000 0.000000 
#    y 0.000000 1.733110 0.000000 
#    z 0.000000 0.000000 1.737730 
# 
# From -- ./inp_files/38998.got.cif
#   From: 2010.06.25/outbox.cif.g09.slc.cpg/sg71_20_cif.got.tgz:38998.got - 2010.06.28 04:59:45.
