data_PCOD8287166
_publ_section_title
;
Structure prediction by ZEFSAII (Michael W. Deem and Ramdas Pophale) SiO2 
 PCOD8287166
Probable space group: I M M M
;
_chemical_formula_sum "Si O2"
_cell_formula_units_Z 88
_cell_length_a 9.248400
_cell_length_b 23.043570
_cell_length_c 33.491996
_cell_angle_alpha 90.000000
_cell_angle_beta 90.000000
_cell_angle_gamma 90.000000
_cell_volume 7137.685337
_symmetry_space_group_name_H-M "I M M M"
_symmetry_group_IT_number 71
_symmetry_cell_setting 'orthorhombic'
loop_
_space_group_symop_operation_xyz
x,y,z
-x,-y,z
x,-y,-z
-x,y,-z
-x,-y,-z
x,y,-z
-x,y,z
x,-y,z
1/2+x,1/2+y,1/2+z
1/2-x,1/2-y,1/2+z
1/2+x,1/2-y,1/2-z
1/2-x,1/2+y,1/2-z
1/2-x,1/2-y,1/2-z
1/2+x,1/2+y,1/2-z
1/2-x,1/2+y,1/2+z
1/2+x,1/2-y,1/2+z
loop_
_atom_site_type_symbol
_atom_site_label
_atom_site_fract_x
_atom_site_fract_y
_atom_site_fract_z
Si Si1 0.838352 0.267540 0.809498
Si Si2 0.163209 0.569029 0.000000
Si Si3 0.660023 0.827938 0.776007
Si Si4 0.332840 0.566488 0.923369
Si Si5 0.668404 0.933924 0.272153
Si Si6 0.170033 0.128564 0.341371
O O1 0.768631 0.203133 0.806849
O O2 0.841754 0.294760 0.765875
O O3 0.742547 0.308127 0.838128
O O4 0.000000 0.261754 0.827042
O O5 0.242242 0.592229 0.960336
O O6 0.170685 0.500000 0.000000
O O7 0.000000 0.592387 0.000000
O O8 0.500000 0.826735 0.795121
O O9 0.709019 0.894059 0.766273
O O10 0.500000 0.570777 0.935106
O O11 0.289983 0.500000 0.913868
O O12 0.295777 0.605052 0.885177
O O13 0.500000 0.923990 0.283412
O O14 0.763833 0.916889 0.310125
O O15 0.700950 0.000000 0.260252
O O16 0.000000 0.134067 0.332926
#
# Coordination Sequence:
#
# PCOD8287166 Si02
#       6
#    16   8  16  16  16  16
#     4   9  16  25  36  49  64  83 107 135 167 198
#     4   9  17  27  39  53  65  81 107 135 162 195
#     4   8  14  24  36  48  63  84 108 133 162 198
#     4   9  17  28  39  50  66  87 108 132 165 203
#     4   9  17  27  37  50  68  88 109 136 171 205
#     4  10  18  26  37  52  68  86 109 137 169 204
#
# _framework density 12.328925999999999
#
# number of rings (size 3 to 8) (size 9 to 14) (size 15 to 20)
#    0.000    3.000    0.000    3.000    0.000    8.000 
#    0.000    1.818    0.000    0.000    0.000    0.000 
#    0.000    0.000    0.000    0.000    0.000    0.000 
#
# Total GULP energy -545427.343744 kJ/mol
# GULP energy per Si atom -12396.075994 kJ/mol
# Density = 1.230086 g / cm^3
# Si number density = 12.328926 Si / 1000 Ang^3
#
#
#
# Elastic Constant Matrix: (Units=GPa)
#
#
# Indices 1 2 3 4 5 6 
#
# 1 83.2311 47.5233 40.8006 0.0000 0.0000 0.0000
# 2 47.5233 83.9466 41.6725 0.0000 0.0000 0.0000
# 3 40.8006 41.6725 49.4624 0.0000 0.0000 0.0000
# 4 0.0000 0.0000 0.0000 13.0951 0.0000 0.0000
# 5 0.0000 0.0000 0.0000 0.0000 16.3294 0.0000
# 6 0.0000 0.0000 0.0000 0.0000 0.0000 17.2820
#
#
#
# Elastic Compliance Matrix: (Units=1/GPa)
#
#
# Indices 1 2 3 4 5 6 
#
# 1 0.021722 -0.005848 -0.012991 0.000000 0.000000 0.000000
# 2 -0.005848 0.022051 -0.013754 0.000000 0.000000 0.000000
# 3 -0.012991 -0.013754 0.042521 0.000000 0.000000 0.000000
# 4 0.000000 0.000000 0.000000 0.076364 0.000000 0.000000
# 5 0.000000 0.000000 0.000000 0.000000 0.061239 0.000000
# 6 0.000000 0.000000 0.000000 0.000000 0.000000 0.057864
#
#
# Mechanical properties :
#
#
# Convention : Reuss Voigt Hill
#
# Bulk Modulus (GPa) = 47.37567 52.95922 50.16744
# Shear Modulus (GPa) = 14.12494 15.11757 14.62125
#
# Velocity S-wave (km/s) = 3.38845 3.50549 3.44747
# Velocity P-wave (km/s) = 7.33612 7.70929 7.52502
#
# Compressibility (1/GPa) = 0.02110788
#
# Stress axis : x y z
#
# Youngs Moduli (GPa) = 46.03545 45.34991 23.51766
#
# Poissons Ratio (x) = 0.26522 0.30552
# Poissons Ratio (y) = 0.26923 0.32346
# Poissons Ratio (z) = 0.59805 0.62373
#
# Static dielectric constant tensor:
#      x y z
#    x 2.713020 0.000000 0.000000 
#    y 0.000000 2.589300 0.000000 
#    z 0.000000 0.000000 2.266170 
# 
# 
# High freq. dielectric constant tensor:
#      x y z
#    x 1.482390 0.000000 0.000000 
#    y 0.000000 1.448430 0.000000 
#    z 0.000000 0.000000 1.422400 
# 
# From -- ./inp_files/62231.got.cif
#   From: 2010.06.25/outbox.cif.g09.slc.cpg/sg71_32_cif.got.tgz:62231.got - 2010.06.28 04:59:45.
