data_PCOD8287363
_publ_section_title
;
Structure prediction by ZEFSAII (Michael W. Deem and Ramdas Pophale) SiO2 
 PCOD8287363
Probable space group: I M M M
;
_chemical_formula_sum "Si O2"
_cell_formula_units_Z 88
_cell_length_a 21.430046
_cell_length_b 16.457871
_cell_length_c 13.501753
_cell_angle_alpha 90.000000
_cell_angle_beta 90.000000
_cell_angle_gamma 90.000000
_cell_volume 4761.972861
_symmetry_space_group_name_H-M "I M M M"
_symmetry_group_IT_number 71
_symmetry_cell_setting 'orthorhombic'
loop_
_space_group_symop_operation_xyz
x,y,z
-x,-y,z
x,-y,-z
-x,y,-z
-x,-y,-z
x,y,-z
-x,y,z
x,-y,z
1/2+x,1/2+y,1/2+z
1/2-x,1/2-y,1/2+z
1/2+x,1/2-y,1/2-z
1/2-x,1/2+y,1/2-z
1/2-x,1/2-y,1/2-z
1/2+x,1/2+y,1/2-z
1/2-x,1/2+y,1/2+z
1/2+x,1/2-y,1/2+z
loop_
_atom_site_type_symbol
_atom_site_label
_atom_site_fract_x
_atom_site_fract_y
_atom_site_fract_z
Si Si1 0.195409 0.322374 0.112654
Si Si2 0.810732 0.910038 0.302882
Si Si3 0.933137 0.903813 0.387620
Si Si4 0.744063 0.357161 0.612476
Si Si5 0.630567 0.097955 0.209825
Si Si6 0.500000 0.904003 0.888246
O O1 0.258799 0.370346 0.129248
O O2 0.214962 0.230463 0.136571
O O3 0.141346 0.358276 0.183872
O O4 0.171959 0.332235 0.000000
O O5 0.877969 0.866725 0.319244
O O6 0.793021 0.915177 0.187227
O O7 0.817301 0.000000 0.345223
O O8 0.918502 0.878774 0.500000
O O9 0.000000 0.865881 0.354580
O O10 0.938140 0.000000 0.376755
O O11 0.731596 0.383847 0.500000
O O12 0.817951 0.365316 0.634350
O O13 0.562296 0.123611 0.170329
O O14 0.637750 0.000000 0.219460
O O15 0.500000 0.000000 0.896377
O O16 0.500000 0.867329 0.000000
#
# Coordination Sequence:
#
# PCOD8287363 Si02
#       6
#    16  16  16  16  16   8
#     4  10  20  33  50  70  99 134 166 202 248 296
#     4  10  18  28  48  74  96 121 158 204 247 285
#     4   8  14  25  42  66  95 122 146 179 232 290
#     4  10  20  33  50  69  97 134 166 200 246 294
#     4  10  19  32  53  79 103 130 166 208 253 298
#     4   9  18  32  51  77 107 133 159 200 254 304
#
# _framework density 18.479735999999999
#
# number of rings (size 3 to 8) (size 9 to 14) (size 15 to 20)
#    0.000    2.455    0.000    6.000    0.000    4.364 
#    0.000    0.455    8.000    2.182    0.000    2.545 
#    0.000    0.000    0.000    0.000    0.000    0.000 
#
# Total GULP energy -545132.757188 kJ/mol
# GULP energy per Si atom -12389.380845 kJ/mol
# Density = 1.843768 g / cm^3
# Si number density = 18.479736 Si / 1000 Ang^3
#
#
#
# Elastic Constant Matrix: (Units=GPa)
#
#
# Indices 1 2 3 4 5 6 
#
# 1 162.4576 13.8333 64.2957 0.0000 0.0000 0.0000
# 2 13.8333 44.5233 13.7543 0.0000 0.0000 0.0000
# 3 64.2957 13.7543 94.6201 0.0000 0.0000 0.0000
# 4 0.0000 0.0000 0.0000 22.5369 0.0000 0.0000
# 5 0.0000 0.0000 0.0000 0.0000 26.0700 0.0000
# 6 0.0000 0.0000 0.0000 0.0000 0.0000 6.7296
#
#
#
# Elastic Compliance Matrix: (Units=1/GPa)
#
#
# Indices 1 2 3 4 5 6 
#
# 1 0.008453 -0.000892 -0.005615 0.000000 0.000000 0.000000
# 2 -0.000892 0.023610 -0.002826 0.000000 0.000000 0.000000
# 3 -0.005615 -0.002826 0.014795 0.000000 0.000000 0.000000
# 4 0.000000 0.000000 0.000000 0.044372 0.000000 0.000000
# 5 0.000000 0.000000 0.000000 0.000000 0.038358 0.000000
# 6 0.000000 0.000000 0.000000 0.000000 0.000000 0.148597
#
#
# Mechanical properties :
#
#
# Convention : Reuss Voigt Hill
#
# Bulk Modulus (GPa) = 35.46946 53.92973 44.69960
# Shear Modulus (GPa) = 16.32660 25.04847 20.68753
#
# Velocity S-wave (km/s) = 2.97557 3.68565 3.34948
# Velocity P-wave (km/s) = 5.57142 6.88175 6.26096
#
# Compressibility (1/GPa) = 0.02819327
#
# Stress axis : x y z
#
# Youngs Moduli (GPa) = 118.29429 42.35437 67.59230
#
# Poissons Ratio (x) = 0.03778 0.37950
# Poissons Ratio (y) = 0.10552 0.19101
# Poissons Ratio (z) = 0.66418 0.11969
#
# Static dielectric constant tensor:
#      x y z
#    x 3.780240 0.000000 0.000000 
#    y 0.000000 3.312700 0.000000 
#    z 0.000000 0.000000 3.400720 
# 
# 
# High freq. dielectric constant tensor:
#      x y z
#    x 1.713960 0.000000 0.000000 
#    y 0.000000 1.703160 0.000000 
#    z 0.000000 0.000000 1.710010 
# 
# From -- ./inp_files/34373.got.cif
#   From: 2010.06.25/outbox.cif.g09.slc.cpg/sg71_18_cif.got.tgz:34373.got - 2010.06.28 04:59:45.
