data_PCOD8287466
_publ_section_title
;
Structure prediction by ZEFSAII (Michael W. Deem and Ramdas Pophale) SiO2 
 PCOD8287466
Probable space group: I M M M
;
_chemical_formula_sum "Si O2"
_cell_formula_units_Z 128
_cell_length_a 14.953894
_cell_length_b 25.766712
_cell_length_c 18.810453
_cell_angle_alpha 90.000000
_cell_angle_beta 90.000000
_cell_angle_gamma 90.000000
_cell_volume 7247.906057
_symmetry_space_group_name_H-M "I M M M"
_symmetry_group_IT_number 71
_symmetry_cell_setting 'orthorhombic'
loop_
_space_group_symop_operation_xyz
x,y,z
-x,-y,z
x,-y,-z
-x,y,-z
-x,-y,-z
x,y,-z
-x,y,z
x,-y,z
1/2+x,1/2+y,1/2+z
1/2-x,1/2-y,1/2+z
1/2+x,1/2-y,1/2-z
1/2-x,1/2+y,1/2-z
1/2-x,1/2-y,1/2-z
1/2+x,1/2+y,1/2-z
1/2-x,1/2+y,1/2+z
1/2+x,1/2-y,1/2+z
loop_
_atom_site_type_symbol
_atom_site_label
_atom_site_fract_x
_atom_site_fract_y
_atom_site_fract_z
Si Si1 0.597055 0.208692 0.346629
Si Si2 0.660189 0.750707 0.794146
Si Si3 0.232945 0.783197 0.082902
Si Si4 0.895894 0.943875 0.793398
Si Si5 0.401011 0.103026 0.581029
Si Si6 0.784226 0.943070 0.417427
Si Si7 0.398992 0.623781 0.580646
Si Si8 0.394588 0.366935 0.174260
O O1 0.500000 0.226634 0.376102
O O2 0.594344 0.220780 0.261304
O O3 0.674525 0.234310 0.393250
O O4 0.609387 0.147896 0.360220
O O5 0.750000 0.750000 0.750000
O O6 0.677256 0.782874 0.867850
O O7 0.628258 0.693280 0.815547
O O8 0.172793 0.832793 0.100005
O O9 0.259959 0.779549 0.000000
O O10 0.876617 0.927152 0.874139
O O11 0.859592 0.898392 0.743048
O O12 0.000000 0.950055 0.778845
O O13 0.849369 0.000000 0.780010
O O14 0.390785 0.124685 0.500000
O O15 0.500000 0.077146 0.589352
O O16 0.321993 0.062598 0.597464
O O17 0.804260 0.943324 0.500000
O O18 0.841456 0.894333 0.389424
O O19 0.812648 0.000000 0.385816
O O20 0.390774 0.606079 0.500000
O O21 0.500000 0.644297 0.597872
O O22 0.500000 0.372489 0.160386
#
# Coordination Sequence:
#
# PCOD8287466 Si02
#       8
#    16  16  16  16  16  16  16  16
#     4  10  18  29  47  70  95 122 155 196 243 297
#     4  10  20  32  48  69  94 127 163 202 247 294
#     4  10  19  30  45  66  93 124 159 199 243 291
#     4   9  17  29  45  64  88 121 158 194 234 279
#     4   9  18  32  51  77 105 129 157 200 255 310
#     4  10  21  36  53  72  95 127 168 211 254 300
#     4   9  17  28  43  66  94 121 151 189 233 282
#     4  11  22  35  50  69  96 129 167 210 248 285
#
# _framework density 17.660273
#
# number of rings (size 3 to 8) (size 9 to 14) (size 15 to 20)
#    0.000    2.250    0.000    4.500    0.000    5.250 
#    0.000    3.125    0.000    1.125    0.000    0.000 
#    0.000    0.000    0.000    0.000    0.000    0.000 
#
# Total GULP energy -792855.221891 kJ/mol
# GULP energy per Si atom -12388.362842 kJ/mol
# Density = 1.762008 g / cm^3
# Si number density = 17.660273 Si / 1000 Ang^3
#
#
#
# Elastic Constant Matrix: (Units=GPa)
#
#
# Indices 1 2 3 4 5 6 
#
# 1 61.0223 27.6615 24.3376 0.0000 0.0000 0.0000
# 2 27.6615 79.4862 49.5414 0.0001 0.0000 0.0000
# 3 24.3376 49.5414 86.2700 0.0003 0.0000 0.0000
# 4 0.0000 0.0001 0.0003 19.9184 0.0000 0.0000
# 5 0.0000 0.0000 0.0000 0.0000 24.3334 0.0000
# 6 0.0000 0.0000 0.0000 0.0000 0.0000 13.8106
#
#
#
# Elastic Compliance Matrix: (Units=1/GPa)
#
#
# Indices 1 2 3 4 5 6 
#
# 1 0.019807 -0.005311 -0.002538 0.000000 0.000000 0.000000
# 2 -0.005311 0.021018 -0.010571 0.000000 0.000000 0.000000
# 3 -0.002538 -0.010571 0.018378 0.000000 0.000000 0.000000
# 4 0.000000 0.000000 0.000000 0.050205 0.000000 0.000000
# 5 0.000000 0.000000 0.000000 0.000000 0.041096 0.000000
# 6 0.000000 0.000000 0.000000 0.000000 0.000000 0.072408
#
#
# Mechanical properties :
#
#
# Convention : Reuss Voigt Hill
#
# Bulk Modulus (GPa) = 44.71776 47.76217 46.23997
# Shear Modulus (GPa) = 18.71206 19.96167 19.33687
#
# Velocity S-wave (km/s) = 3.25861 3.36566 3.31257
# Velocity P-wave (km/s) = 6.28762 6.49671 6.39302
#
# Compressibility (1/GPa) = 0.02236248
#
# Stress axis : x y z
#
# Youngs Moduli (GPa) = 50.48667 47.57825 54.41238
#
# Poissons Ratio (x) = 0.25270 0.13808
# Poissons Ratio (y) = 0.26815 0.57522
# Poissons Ratio (z) = 0.12812 0.50297
#
# Static dielectric constant tensor:
#      x y z
#    x 3.761150 0.000000 0.000000 
#    y 0.000000 3.432610 0.000000 
#    z 0.000000 0.000000 3.769740 
# 
# 
# High freq. dielectric constant tensor:
#      x y z
#    x 1.661960 0.000000 0.000000 
#    y 0.000000 1.673010 0.000000 
#    z 0.000000 0.000000 1.683330 
# 
# From -- ./inp_files/46663.got.cif
#   From: 2010.06.25/outbox.cif.g09.slc.cpg/sg71_24_cif.got.tgz:46663.got - 2010.06.28 04:59:45.
