data_PCOD8287421
_publ_section_title
;
Structure prediction by ZEFSAII (Michael W. Deem and Ramdas Pophale) SiO2 
 PCOD8287421
Probable space group: I M M M
;
_chemical_formula_sum "Si O2"
_cell_formula_units_Z 128
_cell_length_a 29.712565
_cell_length_b 25.121986
_cell_length_c 9.083609
_cell_angle_alpha 90.000000
_cell_angle_beta 90.000000
_cell_angle_gamma 90.000000
_cell_volume 6780.356766
_symmetry_space_group_name_H-M "I M M M"
_symmetry_group_IT_number 71
_symmetry_cell_setting 'orthorhombic'
loop_
_space_group_symop_operation_xyz
x,y,z
-x,-y,z
x,-y,-z
-x,y,-z
-x,-y,-z
x,y,-z
-x,y,z
x,-y,z
1/2+x,1/2+y,1/2+z
1/2-x,1/2-y,1/2+z
1/2+x,1/2-y,1/2-z
1/2-x,1/2+y,1/2-z
1/2-x,1/2-y,1/2-z
1/2+x,1/2+y,1/2-z
1/2-x,1/2+y,1/2+z
1/2+x,1/2-y,1/2+z
loop_
_atom_site_type_symbol
_atom_site_label
_atom_site_fract_x
_atom_site_fract_y
_atom_site_fract_z
Si Si1 0.626944 0.133133 0.675632
Si Si2 0.549334 0.058982 0.325068
Si Si3 0.304932 0.941137 0.828401
Si Si4 0.790721 0.093780 0.827622
Si Si5 0.382681 0.252219 0.673799
Si Si6 0.387383 0.440480 0.324635
Si Si7 0.284749 0.711501 0.326819
Si Si8 0.051329 0.156668 0.175641
O O1 0.630689 0.132967 0.500000
O O2 0.585862 0.098778 0.739891
O O3 0.672194 0.106392 0.737476
O O4 0.616844 0.192141 0.737229
O O5 0.551930 0.058352 0.500000
O O6 0.500000 0.078219 0.273838
O O7 0.559080 0.000000 0.263562
O O8 0.251636 0.943661 0.790974
O O9 0.324153 0.000000 0.787413
O O10 0.312147 0.928637 0.000000
O O11 0.837465 0.072062 0.758705
O O12 0.776688 0.151951 0.769171
O O13 0.799723 0.098362 0.000000
O O14 0.387804 0.249706 0.500000
O O15 0.335348 0.276101 0.721918
O O16 0.422638 0.290405 0.735195
O O17 0.385921 0.438449 0.500000
O O18 0.401700 0.500000 0.272337
O O19 0.423191 0.396622 0.266430
O O20 0.278002 0.718332 0.500000
O O21 0.250000 0.750000 0.250000
O O22 0.000000 0.157111 0.235561
O O23 0.051546 0.156708 0.000000
#
# Coordination Sequence:
#
# PCOD8287421 Si02
#       8
#    16  16  16  16  16  16  16  16
#     4  10  19  30  47  68  92 123 158 193 234 284
#     4   8  14  25  41  61  83 107 141 185 225 263
#     4  10  20  32  46  67  94 123 158 200 242 282
#     4   9  16  28  44  61  85 121 162 197 232 279
#     4   9  17  29  42  62  91 121 153 192 235 281
#     4   9  15  24  40  61  87 123 165 201 233 279
#     4  10  18  29  46  65  90 123 157 192 232 276
#     4   9  16  26  40  61  93 129 160 195 242 288
#
# _framework density 18.878063999999998
#
# number of rings (size 3 to 8) (size 9 to 14) (size 15 to 20)
#    0.000    2.750    1.250    1.875    0.000    3.000 
#    0.000    3.750    0.000    0.375    0.000    1.750 
#    0.000    1.500    0.000    0.000    0.000    2.500 
#
# Total GULP energy -793063.419762 kJ/mol
# GULP energy per Si atom -12391.615934 kJ/mol
# Density = 1.883510 g / cm^3
# Si number density = 18.878064 Si / 1000 Ang^3
#
#
#
# Elastic Constant Matrix: (Units=GPa)
#
#
# Indices 1 2 3 4 5 6 
#
# 1 125.7205 74.6133 19.4517 0.0000 0.0000 0.0000
# 2 74.6133 153.5872 15.7059 0.0000 0.0000 0.0000
# 3 19.4517 15.7059 11.6836 0.0000 0.0000 0.0000
# 4 0.0000 0.0000 0.0000 13.7461 0.0000 0.0000
# 5 0.0000 0.0000 0.0000 0.0000 13.6613 0.0000
# 6 0.0000 0.0000 0.0000 0.0000 0.0000 32.4556
#
#
#
# Elastic Compliance Matrix: (Units=1/GPa)
#
#
# Indices 1 2 3 4 5 6 
#
# 1 0.013227 -0.004839 -0.015516 0.000000 0.000000 0.000000
# 2 -0.004839 0.009319 -0.004471 0.000000 0.000000 0.000000
# 3 -0.015516 -0.004471 0.117432 0.000000 0.000000 0.000000
# 4 0.000000 0.000000 0.000000 0.072748 0.000000 0.000000
# 5 0.000000 0.000000 0.000000 0.000000 0.073199 0.000000
# 6 0.000000 0.000000 0.000000 0.000000 0.000000 0.030811
#
#
# Mechanical properties :
#
#
# Convention : Reuss Voigt Hill
#
# Bulk Modulus (GPa) = 11.07102 56.72588 33.89845
# Shear Modulus (GPa) = 12.61048 24.05397 18.33222
#
# Velocity S-wave (km/s) = 2.58737 3.57343 3.11961
# Velocity P-wave (km/s) = 3.84749 6.86583 5.56520
#
# Compressibility (1/GPa) = 0.09032589
#
# Stress axis : x y z
#
# Youngs Moduli (GPa) = 75.60540 107.30872 8.51560
#
# Poissons Ratio (x) = 0.51925 0.13213
# Poissons Ratio (y) = 0.36585 0.03807
# Poissons Ratio (z) = 1.17307 0.47978
#
# Static dielectric constant tensor:
#      x y z
#    x 3.642320 0.000000 0.000000 
#    y 0.000000 3.825160 0.000000 
#    z 0.000000 0.000000 2.722570 
# 
# 
# High freq. dielectric constant tensor:
#      x y z
#    x 1.742160 0.000000 0.000000 
#    y 0.000000 1.752460 0.000000 
#    z 0.000000 0.000000 1.647500 
# 
# From -- ./inp_files/29265.got.cif
#   From: 2010.06.25/outbox.cif.g09.slc.cpg/sg71_15_cif.got.tgz:29265.got - 2010.06.28 04:59:45.
