data_PCOD8287798
_publ_section_title
;
Structure prediction by ZEFSAII (Michael W. Deem and Ramdas Pophale) SiO2 
 PCOD8287798
Probable space group: I M M M
;
_chemical_formula_sum "Si O2"
_cell_formula_units_Z 72
_cell_length_a 8.653055
_cell_length_b 28.415035
_cell_length_c 16.256846
_cell_angle_alpha 90.000000
_cell_angle_beta 90.000000
_cell_angle_gamma 90.000000
_cell_volume 3997.182259
_symmetry_space_group_name_H-M "I M M M"
_symmetry_group_IT_number 71
_symmetry_cell_setting 'orthorhombic'
loop_
_space_group_symop_operation_xyz
x,y,z
-x,-y,z
x,-y,-z
-x,y,-z
-x,-y,-z
x,y,-z
-x,y,z
x,-y,z
1/2+x,1/2+y,1/2+z
1/2-x,1/2-y,1/2+z
1/2+x,1/2-y,1/2-z
1/2-x,1/2+y,1/2-z
1/2-x,1/2-y,1/2-z
1/2+x,1/2+y,1/2-z
1/2-x,1/2+y,1/2+z
1/2+x,1/2-y,1/2+z
loop_
_atom_site_type_symbol
_atom_site_label
_atom_site_fract_x
_atom_site_fract_y
_atom_site_fract_z
Si Si1 0.183201 0.723329 0.828215
Si Si2 0.815626 0.446435 0.821984
Si Si3 0.332246 0.944594 0.500000
Si Si4 0.321558 0.805904 0.092602
Si Si5 0.182059 0.859527 0.756460
O O1 0.250000 0.750000 0.750000
O O2 0.250080 0.752865 0.905077
O O3 0.244160 0.669964 0.819910
O O4 0.000000 0.723674 0.831100
O O5 0.769279 0.500000 0.800427
O O6 0.748929 0.431823 0.913367
O O7 0.736302 0.413292 0.754257
O O8 0.000000 0.440598 0.820373
O O9 0.500000 0.919601 0.500000
O O10 0.359210 0.000000 0.500000
O O11 0.500000 0.803340 0.118656
O O12 0.236666 0.841422 0.154455
O O13 0.301164 0.825133 0.000000
O O14 0.000000 0.855181 0.752253
#
# Coordination Sequence:
#
# PCOD8287798 Si02
#       5
#    16  16   8  16  16
#     4  10  18  31  51  72  98 130 166 205 249 298
#     4   9  17  32  54  77 102 134 173 215 258 304
#     4   7  12  26  49  73  95 123 161 205 249 293
#     4  10  20  35  55  77 102 132 169 214 261 307
#     4  11  21  33  51  75 106 140 173 209 253 304
#
# _framework density 18.012689000000002
#
# number of rings (size 3 to 8) (size 9 to 14) (size 15 to 20)
#    0.000    2.333    0.000    8.667    0.000    2.222 
#    2.000    0.556    0.000    2.667    0.000    4.667 
#    0.000    0.000    0.000    0.000    0.000    0.000 
#
# Total GULP energy -446041.394540 kJ/mol
# GULP energy per Si atom -12390.038737 kJ/mol
# Density = 1.797169 g / cm^3
# Si number density = 18.012689 Si / 1000 Ang^3
#
#
#
# Elastic Constant Matrix: (Units=GPa)
#
#
# Indices 1 2 3 4 5 6 
#
# 1 124.3975 47.3221 34.1186 0.0000 0.0000 0.0000
# 2 47.3221 105.4023 47.4961 -0.0001 0.0000 0.0000
# 3 34.1186 47.4961 79.2978 -0.0002 0.0000 0.0000
# 4 0.0000 -0.0001 -0.0002 23.6260 0.0000 0.0000
# 5 0.0000 0.0000 0.0000 0.0000 17.7992 0.0000
# 6 0.0000 0.0000 0.0000 0.0000 0.0000 27.4305
#
#
#
# Elastic Compliance Matrix: (Units=1/GPa)
#
#
# Indices 1 2 3 4 5 6 
#
# 1 0.009968 -0.003483 -0.002203 0.000000 0.000000 0.000000
# 2 -0.003483 0.014211 -0.007014 0.000000 0.000000 0.000000
# 3 -0.002203 -0.007014 0.017759 0.000000 0.000000 0.000000
# 4 0.000000 0.000000 0.000000 0.042326 0.000000 0.000000
# 5 0.000000 0.000000 0.000000 0.000000 0.056182 0.000000
# 6 0.000000 0.000000 0.000000 0.000000 0.000000 0.036456
#
#
# Mechanical properties :
#
#
# Convention : Reuss Voigt Hill
#
# Bulk Modulus (GPa) = 60.45768 62.99681 61.72725
# Shear Modulus (GPa) = 24.05993 25.78187 24.92090
#
# Velocity S-wave (km/s) = 3.65872 3.78738 3.72360
# Velocity P-wave (km/s) = 7.17531 7.36038 7.26843
#
# Compressibility (1/GPa) = 0.01654050
#
# Stress axis : x y z
#
# Youngs Moduli (GPa) = 100.32400 70.36555 56.30819
#
# Poissons Ratio (x) = 0.24505 0.12404
# Poissons Ratio (y) = 0.34938 0.39493
# Poissons Ratio (z) = 0.22099 0.49352
#
# Static dielectric constant tensor:
#      x y z
#    x 3.248510 0.000000 0.000000 
#    y 0.000000 3.541840 0.000000 
#    z 0.000000 0.000000 3.434710 
# 
# 
# High freq. dielectric constant tensor:
#      x y z
#    x 1.695860 0.000000 0.000000 
#    y 0.000000 1.683490 0.000000 
#    z 0.000000 0.000000 1.679960 
# 
# From -- ./inp_files/42176.got.cif
#   From: 2010.06.25/outbox.cif.g09.slc.cpg/sg71_22_cif.got.tgz:42176.got - 2010.06.28 04:59:45.
