data_PCOD8287366
_publ_section_title
;
Structure prediction by ZEFSAII (Michael W. Deem and Ramdas Pophale) SiO2 
 PCOD8287366
Probable space group: I M M M
;
_chemical_formula_sum "Si O2"
_cell_formula_units_Z 96
_cell_length_a 12.857028
_cell_length_b 18.861885
_cell_length_c 21.781982
_cell_angle_alpha 90.000000
_cell_angle_beta 90.000000
_cell_angle_gamma 90.000000
_cell_volume 5282.300177
_symmetry_space_group_name_H-M "I M M M"
_symmetry_group_IT_number 71
_symmetry_cell_setting 'orthorhombic'
loop_
_space_group_symop_operation_xyz
x,y,z
-x,-y,z
x,-y,-z
-x,y,-z
-x,-y,-z
x,y,-z
-x,y,z
x,-y,z
1/2+x,1/2+y,1/2+z
1/2-x,1/2-y,1/2+z
1/2+x,1/2-y,1/2-z
1/2-x,1/2+y,1/2-z
1/2-x,1/2-y,1/2-z
1/2+x,1/2+y,1/2-z
1/2-x,1/2+y,1/2+z
1/2+x,1/2-y,1/2+z
loop_
_atom_site_type_symbol
_atom_site_label
_atom_site_fract_x
_atom_site_fract_y
_atom_site_fract_z
Si Si1 0.382959 0.784258 0.694808
Si Si2 0.614276 0.286560 0.929799
Si Si3 0.680895 0.283393 0.569693
Si Si4 0.305665 0.641396 0.748687
Si Si5 0.880914 0.076726 0.365004
Si Si6 0.879672 0.919980 0.129242
O O1 0.500000 0.811290 0.705409
O O2 0.372059 0.764774 0.622324
O O3 0.362544 0.715968 0.737298
O O4 0.306640 0.846250 0.719044
O O5 0.500000 0.268727 0.900578
O O6 0.693943 0.221748 0.919411
O O7 0.668730 0.356697 0.900803
O O8 0.598476 0.304168 0.000000
O O9 0.652844 0.257345 0.500000
O O10 0.645948 0.365274 0.574485
O O11 0.373522 0.591976 0.792786
O O12 0.300856 0.598787 0.684747
O O13 0.000000 0.072197 0.385094
O O14 0.828099 0.000000 0.380238
O O15 0.000000 0.910281 0.149837
O O16 0.858971 0.000000 0.106197
#
# Coordination Sequence:
#
# PCOD8287366 Si02
#       6
#    16  16  16  16  16  16
#     4  10  20  32  49  75 103 133 171 216 257 300
#     4   9  18  32  49  73 104 135 171 213 256 301
#     4  10  19  34  54  77 106 141 177 214 259 308
#     4  10  18  32  49  72 102 133 164 207 258 313
#     4  10  18  28  48  75  99 127 163 204 254 309
#     4  10  21  36  54  79 109 136 168 216 268 315
#
# _framework density 18.1739
#
# number of rings (size 3 to 8) (size 9 to 14) (size 15 to 20)
#    0.000    2.167    1.667    3.500    0.000    3.333 
#    0.000    2.500    0.000    3.500    0.000    2.333 
#    0.000    2.667    0.000    0.000    0.000    0.000 
#
# Total GULP energy -594702.261400 kJ/mol
# GULP energy per Si atom -12389.630446 kJ/mol
# Density = 1.813254 g / cm^3
# Si number density = 18.173900 Si / 1000 Ang^3
#
#
#
# Elastic Constant Matrix: (Units=GPa)
#
#
# Indices 1 2 3 4 5 6 
#
# 1 87.3022 37.6362 38.2501 0.0000 0.0000 0.0000
# 2 37.6362 84.1987 19.7018 0.0000 0.0000 0.0000
# 3 38.2501 19.7018 60.2251 0.0000 0.0000 0.0000
# 4 0.0000 0.0000 0.0000 14.0705 0.0000 0.0000
# 5 0.0000 0.0000 0.0000 0.0000 22.3177 0.0000
# 6 0.0000 0.0000 0.0000 0.0000 0.0000 22.1902
#
#
#
# Elastic Compliance Matrix: (Units=1/GPa)
#
#
# Indices 1 2 3 4 5 6 
#
# 1 0.018218 -0.005886 -0.009645 0.000000 0.000000 0.000000
# 2 -0.005886 0.014763 -0.001091 0.000000 0.000000 0.000000
# 3 -0.009645 -0.001091 0.023087 0.000000 0.000000 0.000000
# 4 0.000000 0.000000 0.000000 0.071071 0.000000 0.000000
# 5 0.000000 0.000000 0.000000 0.000000 0.044807 0.000000
# 6 0.000000 0.000000 0.000000 0.000000 0.000000 0.045065
#
#
# Mechanical properties :
#
#
# Convention : Reuss Voigt Hill
#
# Bulk Modulus (GPa) = 43.81467 46.98912 45.40189
# Shear Modulus (GPa) = 19.39012 20.79155 20.09083
#
# Velocity S-wave (km/s) = 3.26992 3.38603 3.32848
# Velocity P-wave (km/s) = 6.19818 6.41859 6.30935
#
# Compressibility (1/GPa) = 0.02282341
#
# Stress axis : x y z
#
# Youngs Moduli (GPa) = 54.89118 67.73626 43.31462
#
# Poissons Ratio (x) = 0.39873 0.41776
# Poissons Ratio (y) = 0.32311 0.04725
# Poissons Ratio (z) = 0.52942 0.07390
#
# Static dielectric constant tensor:
#      x y z
#    x 3.412140 0.000000 0.000000 
#    y 0.000000 3.455180 0.000000 
#    z 0.000000 0.000000 3.369200 
# 
# 
# High freq. dielectric constant tensor:
#      x y z
#    x 1.684120 0.000000 0.000000 
#    y 0.000000 1.681560 0.000000 
#    z 0.000000 0.000000 1.707920 
# 
# From -- ./inp_files/27571.got.cif
#   From: 2010.06.25/outbox.cif.g09.slc.cpg/sg71_14_cif.got.tgz:27571.got - 2010.06.28 04:59:45.
