data_PCOD8287933
_publ_section_title
;
Structure prediction by ZEFSAII (Michael W. Deem and Ramdas Pophale) SiO2 
 PCOD8287933
Probable space group: I M M M
;
_chemical_formula_sum "Si O2"
_cell_formula_units_Z 68
_cell_length_a 9.546739
_cell_length_b 22.394668
_cell_length_c 16.900119
_cell_angle_alpha 90.000000
_cell_angle_beta 90.000000
_cell_angle_gamma 90.000000
_cell_volume 3613.178693
_symmetry_space_group_name_H-M "I M M M"
_symmetry_group_IT_number 71
_symmetry_cell_setting 'orthorhombic'
loop_
_space_group_symop_operation_xyz
x,y,z
-x,-y,z
x,-y,-z
-x,y,-z
-x,-y,-z
x,y,-z
-x,y,z
x,-y,z
1/2+x,1/2+y,1/2+z
1/2-x,1/2-y,1/2+z
1/2+x,1/2-y,1/2-z
1/2-x,1/2+y,1/2-z
1/2-x,1/2-y,1/2-z
1/2+x,1/2+y,1/2-z
1/2-x,1/2+y,1/2+z
1/2+x,1/2-y,1/2+z
loop_
_atom_site_type_symbol
_atom_site_label
_atom_site_fract_x
_atom_site_fract_y
_atom_site_fract_z
Si Si1 0.663454 0.827890 0.913155
Si Si2 0.344121 0.629279 0.000000
Si Si3 0.751717 0.000000 0.500000
Si Si4 0.166925 0.800031 0.647167
Si Si5 0.841446 0.500000 0.824153
Si Si6 0.835028 0.380151 0.254361
O O1 0.500000 0.819866 0.925881
O O2 0.718802 0.765502 0.877553
O O3 0.692972 0.880764 0.849577
O O4 0.731483 0.841824 0.000000
O O5 0.348372 0.557886 0.000000
O O6 0.275038 0.655037 0.079082
O O7 0.500000 0.655386 0.000000
O O8 0.660540 0.000000 0.580290
O O9 0.251669 0.822027 0.723755
O O10 0.000000 0.804196 0.662931
O O11 0.772511 0.559408 0.785557
O O12 0.000000 0.500000 0.795043
O O13 0.000000 0.371941 0.235889
#
# Coordination Sequence:
#
# PCOD8287933 Si02
#       6
#    16   8   4  16   8  16
#     4   9  17  31  53  75  97 126 161 202 251 293
#     4  10  19  29  47  74 101 126 162 201 231 283
#     4  12  18  32  48  64 104 134 166 188 242 282
#     4  10  18  32  52  75 101 127 159 200 244 291
#     4  10  21  33  46  68 100 134 163 196 242 290
#     4  10  20  34  50  72 100 130 165 202 240 289
#
# _framework density 18.819994000000001
#
# number of rings (size 3 to 8) (size 9 to 14) (size 15 to 20)
#    0.000    2.118    3.529    1.059    0.000    0.000 
#    0.000    1.765    0.000    5.647    0.000    0.000 
#    0.000    1.882    0.000    0.000    0.000    0.000 
#
# Total GULP energy -421255.739465 kJ/mol
# GULP energy per Si atom -12389.874690 kJ/mol
# Density = 1.877716 g / cm^3
# Si number density = 18.819994 Si / 1000 Ang^3
#
#
#
# Elastic Constant Matrix: (Units=GPa)
#
#
# Indices 1 2 3 4 5 6 
#
# 1 30.3639 6.6393 20.2059 0.0000 0.0000 0.0000
# 2 6.6393 87.9105 60.4296 -0.0001 0.0000 0.0000
# 3 20.2059 60.4296 152.2364 -0.0001 0.0000 0.0000
# 4 0.0000 -0.0001 -0.0001 32.8312 0.0000 0.0000
# 5 0.0000 0.0000 0.0000 0.0000 17.4560 0.0000
# 6 0.0000 0.0000 0.0000 0.0000 0.0000 17.4712
#
#
#
# Elastic Compliance Matrix: (Units=1/GPa)
#
#
# Indices 1 2 3 4 5 6 
#
# 1 0.036164 0.000781 -0.005110 0.000000 0.000000 0.000000
# 2 0.000781 0.015661 -0.006320 0.000000 0.000000 0.000000
# 3 -0.005110 -0.006320 0.009756 0.000000 0.000000 0.000000
# 4 0.000000 0.000000 0.000000 0.030459 0.000000 0.000000
# 5 0.000000 0.000000 0.000000 0.000000 0.057287 0.000000
# 6 0.000000 0.000000 0.000000 0.000000 0.000000 0.057237
#
#
# Mechanical properties :
#
#
# Convention : Reuss Voigt Hill
#
# Bulk Modulus (GPa) = 24.82474 49.45117 37.13796
# Shear Modulus (GPa) = 20.72215 25.76741 23.24478
#
# Velocity S-wave (km/s) = 3.32184 3.70422 3.51823
# Velocity P-wave (km/s) = 5.28508 6.68041 6.02329
#
# Compressibility (1/GPa) = 0.04028239
#
# Stress axis : x y z
#
# Youngs Moduli (GPa) = 27.65217 63.85428 102.50376
#
# Poissons Ratio (x) = -0.04990 0.52380
# Poissons Ratio (y) = -0.02161 0.64784
# Poissons Ratio (z) = 0.14130 0.40357
#
# Static dielectric constant tensor:
#      x y z
#    x 2.902560 0.000000 0.000000 
#    y 0.000000 3.464880 0.000000 
#    z 0.000000 0.000000 3.783390 
# 
# 
# High freq. dielectric constant tensor:
#      x y z
#    x 1.675410 0.000000 0.000000 
#    y 0.000000 1.725220 0.000000 
#    z 0.000000 0.000000 1.747510 
# 
# From -- ./inp_files/8057.got.cif
#   From: 2010.06.25/outbox.cif.g09.slc.cpg/sg71_5_cif.got.tgz:8057.got - 2010.06.28 04:59:45.
