data_PCOD8287782
_publ_section_title
;
Structure prediction by ZEFSAII (Michael W. Deem and Ramdas Pophale) SiO2 
 PCOD8287782
Probable space group: I M M M
;
_chemical_formula_sum "Si O2"
_cell_formula_units_Z 88
_cell_length_a 9.286602
_cell_length_b 18.043391
_cell_length_c 27.558581
_cell_angle_alpha 90.000000
_cell_angle_beta 90.000000
_cell_angle_gamma 90.000000
_cell_volume 4617.765188
_symmetry_space_group_name_H-M "I M M M"
_symmetry_group_IT_number 71
_symmetry_cell_setting 'orthorhombic'
loop_
_space_group_symop_operation_xyz
x,y,z
-x,-y,z
x,-y,-z
-x,y,-z
-x,-y,-z
x,y,-z
-x,y,z
x,-y,z
1/2+x,1/2+y,1/2+z
1/2-x,1/2-y,1/2+z
1/2+x,1/2-y,1/2-z
1/2-x,1/2+y,1/2-z
1/2-x,1/2-y,1/2-z
1/2+x,1/2+y,1/2-z
1/2-x,1/2+y,1/2+z
1/2+x,1/2-y,1/2+z
loop_
_atom_site_type_symbol
_atom_site_label
_atom_site_fract_x
_atom_site_fract_y
_atom_site_fract_z
Si Si1 0.171409 0.582420 0.644868
Si Si2 0.329262 0.670725 0.908153
Si Si3 0.328699 0.418385 0.000000
Si Si4 0.164671 0.584645 0.171912
Si Si5 0.329386 0.828321 0.054377
Si Si6 0.834780 0.677056 0.734221
O O1 0.233723 0.500000 0.654655
O O2 0.219133 0.605759 0.590321
O O3 0.228936 0.642028 0.684317
O O4 0.000000 0.580981 0.648873
O O5 0.500000 0.666987 0.901770
O O6 0.259521 0.640802 0.859286
O O7 0.275234 0.753101 0.920204
O O8 0.271405 0.621049 0.952122
O O9 0.263332 0.500000 0.000000
O O10 0.500000 0.417882 0.000000
O O11 0.221558 0.500000 0.168020
O O12 0.179169 0.611206 0.227043
O O13 0.000000 0.589096 0.154328
O O14 0.500000 0.824624 0.049295
O O15 0.263495 0.838859 0.000000
O O16 0.750000 0.750000 0.750000
O O17 0.000000 0.701514 0.727170
#
# Coordination Sequence:
#
# PCOD8287782 Si02
#       6
#    16  16   8  16  16  16
#     4   9  17  29  47  71  99 132 167 201 244 301
#     4  10  18  31  50  73 100 131 170 212 251 296
#     4   9  16  26  43  67  94 126 164 207 253 295
#     4  10  21  35  50  71 103 138 168 204 251 300
#     4   9  16  27  45  71 100 128 161 206 255 297
#     4  10  20  35  54  76 101 131 168 207 249 298
#
# _framework density 19.056837000000002
#
# number of rings (size 3 to 8) (size 9 to 14) (size 15 to 20)
#    0.000    2.455    0.909    2.182    0.000    5.818 
#    0.000    2.273    0.000    3.273    0.000    0.000 
#    0.000    0.000    0.000    7.636    0.000    7.273 
#
# Total GULP energy -545430.799813 kJ/mol
# GULP energy per Si atom -12396.154541 kJ/mol
# Density = 1.901346 g / cm^3
# Si number density = 19.056837 Si / 1000 Ang^3
#
#
#
# Elastic Constant Matrix: (Units=GPa)
#
#
# Indices 1 2 3 4 5 6 
#
# 1 26.0199 23.4309 24.2954 0.0000 0.0000 0.0000
# 2 23.4309 141.5391 61.6994 0.0000 0.0000 0.0000
# 3 24.2954 61.6994 132.7646 0.0000 0.0000 0.0000
# 4 0.0000 0.0000 0.0000 35.4289 0.0000 0.0000
# 5 0.0000 0.0000 0.0000 0.0000 18.2993 0.0000
# 6 0.0000 0.0000 0.0000 0.0000 0.0000 19.8943
#
#
#
# Elastic Compliance Matrix: (Units=1/GPa)
#
#
# Indices 1 2 3 4 5 6 
#
# 1 0.049338 -0.005307 -0.006562 0.000000 0.000000 0.000000
# 2 -0.005307 0.009431 -0.003412 0.000000 0.000000 0.000000
# 3 -0.006562 -0.003412 0.010319 0.000000 0.000000 0.000000
# 4 0.000000 0.000000 0.000000 0.028226 0.000000 0.000000
# 5 0.000000 0.000000 0.000000 0.000000 0.054647 0.000000
# 6 0.000000 0.000000 0.000000 0.000000 0.000000 0.050266
#
#
# Mechanical properties :
#
#
# Convention : Reuss Voigt Hill
#
# Bulk Modulus (GPa) = 25.95666 57.68611 41.82138
# Shear Modulus (GPa) = 20.35583 27.45105 23.90344
#
# Velocity S-wave (km/s) = 3.27182 3.79949 3.54549
# Velocity P-wave (km/s) = 5.28425 7.04162 6.22526
#
# Compressibility (1/GPa) = 0.03852576
#
# Stress axis : x y z
#
# Youngs Moduli (GPa) = 20.26815 106.03413 96.91313
#
# Poissons Ratio (x) = 0.56272 0.63599
# Poissons Ratio (y) = 0.10756 0.33063
# Poissons Ratio (z) = 0.13301 0.36175
#
# Static dielectric constant tensor:
#      x y z
#    x 2.914500 0.000000 0.000000 
#    y 0.000000 3.647310 0.000000 
#    z 0.000000 0.000000 3.703530 
# 
# 
# High freq. dielectric constant tensor:
#      x y z
#    x 1.671160 0.000000 0.000000 
#    y 0.000000 1.753430 0.000000 
#    z 0.000000 0.000000 1.758740 
# 
# From -- ./inp_files/25676.got.cif
#   From: 2010.06.25/outbox.cif.g09.slc.cpg/sg71_13_cif.got.tgz:25676.got - 2010.06.28 04:59:45.
