data_PCOD8287148
_publ_section_title
;
Structure prediction by ZEFSAII (Michael W. Deem and Ramdas Pophale) SiO2 
 PCOD8287148
Probable space group: I M M M
;
_chemical_formula_sum "Si O2"
_cell_formula_units_Z 72
_cell_length_a 26.265585
_cell_length_b 20.973865
_cell_length_c 7.448985
_cell_angle_alpha 90.000000
_cell_angle_beta 90.000000
_cell_angle_gamma 90.000000
_cell_volume 4103.577559
_symmetry_space_group_name_H-M "I M M M"
_symmetry_group_IT_number 71
_symmetry_cell_setting 'orthorhombic'
loop_
_space_group_symop_operation_xyz
x,y,z
-x,-y,z
x,-y,-z
-x,y,-z
-x,-y,-z
x,y,-z
-x,y,z
x,-y,z
1/2+x,1/2+y,1/2+z
1/2-x,1/2-y,1/2+z
1/2+x,1/2-y,1/2-z
1/2-x,1/2+y,1/2-z
1/2-x,1/2-y,1/2-z
1/2+x,1/2+y,1/2-z
1/2-x,1/2+y,1/2+z
1/2+x,1/2-y,1/2+z
loop_
_atom_site_type_symbol
_atom_site_label
_atom_site_fract_x
_atom_site_fract_y
_atom_site_fract_z
Si Si1 0.058196 0.119851 0.294710
Si Si2 0.708859 0.932458 0.500000
Si Si3 0.261710 0.500000 0.295733
Si Si4 0.058684 0.222857 0.000000
Si Si5 0.875716 0.000000 0.288333
Si Si6 0.557904 0.927516 0.795299
Si Si7 0.885450 0.352304 0.000000
O O1 0.069941 0.138294 0.500000
O O2 0.093135 0.062144 0.227428
O O3 0.000000 0.097479 0.270741
O O4 0.069352 0.181988 0.177224
O O5 0.743531 0.936767 0.682561
O O6 0.675012 0.868368 0.500000
O O7 0.676066 0.000000 0.500000
O O8 0.239467 0.500000 0.500000
O O9 0.322363 0.500000 0.312894
O O10 0.100977 0.278179 0.000000
O O11 0.000000 0.248684 0.000000
O O12 0.866833 0.000000 0.500000
O O13 0.500000 0.920869 0.729520
O O14 0.592734 0.882180 0.679990
O O15 0.576318 0.000000 0.772581
O O16 0.563038 0.905398 0.000000
#
# Coordination Sequence:
#
# PCOD8287148 Si02
#       7
#    16   8   8   8   8  16   8
#     4   9  19  34  53  83 119 144 168 210 255 312
#     4   8  20  36  50  80 103 130 176 242 278 309
#     4   9  19  35  54  82 105 130 160 227 297 324
#     4  10  22  35  48  77 116 152 187 211 240 310
#     4  10  17  33  62  89 107 136 171 208 273 346
#     4   9  18  30  46  74 102 127 173 232 277 320
#     4  12  20  33  53  68 100 153 194 212 265 312
#
# _framework density 17.545666000000001
#
# number of rings (size 3 to 8) (size 9 to 14) (size 15 to 20)
#    0.667    1.778    1.111    3.000    1.556    4.000 
#    0.000    3.889    0.000    1.333    0.000    0.000 
#    0.000    0.000    0.000    0.000    0.000    0.000 
#
# Total GULP energy -446134.877362 kJ/mol
# GULP energy per Si atom -12392.635482 kJ/mol
# Density = 1.750573 g / cm^3
# Si number density = 17.545666 Si / 1000 Ang^3
#
#
#
# Elastic Constant Matrix: (Units=GPa)
#
#
# Indices 1 2 3 4 5 6 
#
# 1 94.3742 56.4485 42.0094 0.0000 0.0000 0.0000
# 2 56.4485 95.9771 40.3191 0.0000 0.0000 0.0000
# 3 42.0094 40.3191 108.2224 0.0000 0.0000 0.0000
# 4 0.0000 0.0000 0.0000 21.7862 0.0000 0.0000
# 5 0.0000 0.0000 0.0000 0.0000 22.4368 0.0000
# 6 0.0000 0.0000 0.0000 0.0000 0.0000 16.3416
#
#
#
# Elastic Compliance Matrix: (Units=1/GPa)
#
#
# Indices 1 2 3 4 5 6 
#
# 1 0.017389 -0.008763 -0.003485 0.000000 0.000000 0.000000
# 2 -0.008763 0.016769 -0.002846 0.000000 0.000000 0.000000
# 3 -0.003485 -0.002846 0.011653 0.000000 0.000000 0.000000
# 4 0.000000 0.000000 0.000000 0.045901 0.000000 0.000000
# 5 0.000000 0.000000 0.000000 0.000000 0.044570 0.000000
# 6 0.000000 0.000000 0.000000 0.000000 0.000000 0.061194
#
#
# Mechanical properties :
#
#
# Convention : Reuss Voigt Hill
#
# Bulk Modulus (GPa) = 64.00868 64.01418 64.01143
# Shear Modulus (GPa) = 21.47115 22.76603 22.11859
#
# Velocity S-wave (km/s) = 3.50198 3.60603 3.55439
# Velocity P-wave (km/s) = 7.27408 7.34176 7.30800
#
# Compressibility (1/GPa) = 0.01562288
#
# Stress axis : x y z
#
# Youngs Moduli (GPa) = 57.50731 59.63531 85.81281
#
# Poissons Ratio (x) = 0.52260 0.29908
# Poissons Ratio (y) = 0.50395 0.24419
# Poissons Ratio (z) = 0.20043 0.16970
#
# Static dielectric constant tensor:
#      x y z
#    x 3.097150 0.000000 0.000000 
#    y 0.000000 2.964370 0.000000 
#    z 0.000000 0.000000 3.367680 
# 
# 
# High freq. dielectric constant tensor:
#      x y z
#    x 1.658520 0.000000 0.000000 
#    y 0.000000 1.641810 0.000000 
#    z 0.000000 0.000000 1.695350 
# 
# From -- ./inp_files/10022.got.cif
#   From: 2010.06.25/outbox.cif.g09.slc.cpg/sg71_6_cif.got.tgz:10022.got - 2010.06.28 04:59:45.
