data_PCOD8287541
_publ_section_title
;
Structure prediction by ZEFSAII (Michael W. Deem and Ramdas Pophale) SiO2 
 PCOD8287541
Probable space group: I M M M
;
_chemical_formula_sum "Si O2"
_cell_formula_units_Z 56
_cell_length_a 24.982509
_cell_length_b 8.691161
_cell_length_c 14.389379
_cell_angle_alpha 90.000000
_cell_angle_beta 90.000000
_cell_angle_gamma 90.000000
_cell_volume 3124.322808
_symmetry_space_group_name_H-M "I M M M"
_symmetry_group_IT_number 71
_symmetry_cell_setting 'orthorhombic'
loop_
_space_group_symop_operation_xyz
x,y,z
-x,-y,z
x,-y,-z
-x,y,-z
-x,-y,-z
x,y,-z
-x,y,z
x,-y,z
1/2+x,1/2+y,1/2+z
1/2-x,1/2-y,1/2+z
1/2+x,1/2-y,1/2-z
1/2-x,1/2+y,1/2-z
1/2-x,1/2-y,1/2-z
1/2+x,1/2+y,1/2-z
1/2-x,1/2+y,1/2+z
1/2+x,1/2-y,1/2+z
loop_
_atom_site_type_symbol
_atom_site_label
_atom_site_fract_x
_atom_site_fract_y
_atom_site_fract_z
Si Si1 0.000000 0.316601 0.394211
Si Si2 0.716160 0.177970 0.500000
Si Si3 0.800906 0.819668 0.195768
Si Si4 0.389166 0.174797 0.815293
Si Si5 0.676982 0.831821 0.000000
O O1 0.051247 0.260597 0.334522
O O2 0.000000 0.500000 0.402145
O O3 0.000000 0.249125 0.500000
O O4 0.693005 0.256799 0.408144
O O5 0.780160 0.195934 0.500000
O O6 0.700618 0.000000 0.500000
O O7 0.750000 0.750000 0.250000
O O8 0.857388 0.781470 0.243638
O O9 0.791246 0.000000 0.193586
O O10 0.390422 0.000000 0.776969
O O11 0.360089 0.183315 0.912497
O O12 0.705953 0.000000 0.000000
#
# Coordination Sequence:
#
# PCOD8287541 Si02
#       5
#     8   8  16  16   8
#     4   9  16  30  55  86 115 150 189 229 276 330
#     4  12  24  38  57  82 112 147 189 233 287 341
#     4  12  24  38  56  81 114 151 190 232 284 337
#     4  10  19  33  55  84 117 152 191 230 275 332
#     4  10  18  29  52  82 117 152 187 225 268 325
#
# _framework density 17.923884000000001
#
# number of rings (size 3 to 8) (size 9 to 14) (size 15 to 20)
#    0.000    1.286    4.286    3.857    0.000    0.000 
#    0.000    0.714    0.000    1.714    0.000    6.000 
#    0.000    0.000    0.000    0.000    0.000    0.000 
#
# Total GULP energy -347146.454411 kJ/mol
# GULP energy per Si atom -12398.087658 kJ/mol
# Density = 1.788309 g / cm^3
# Si number density = 17.923884 Si / 1000 Ang^3
#
#
#
# Elastic Constant Matrix: (Units=GPa)
#
#
# Indices 1 2 3 4 5 6 
#
# 1 129.0966 37.7616 58.5286 0.0000 0.0000 0.0000
# 2 37.7616 113.3607 54.5925 0.0000 0.0000 0.0000
# 3 58.5286 54.5925 131.8171 0.0000 0.0000 0.0000
# 4 0.0000 0.0000 0.0000 27.3541 0.0000 0.0000
# 5 0.0000 0.0000 0.0000 0.0000 234.0259 0.0000
# 6 0.0000 0.0000 0.0000 0.0000 0.0000 23.5074
#
#
#
# Elastic Compliance Matrix: (Units=1/GPa)
#
#
# Indices 1 2 3 4 5 6 
#
# 1 0.009892 -0.001474 -0.003782 0.000000 0.000000 0.000000
# 2 -0.001474 0.011239 -0.004000 0.000000 0.000000 0.000000
# 3 -0.003782 -0.004000 0.010922 0.000000 0.000000 0.000000
# 4 0.000000 0.000000 0.000000 0.036558 0.000000 0.000000
# 5 0.000000 0.000000 0.000000 0.000000 0.004273 0.000000
# 6 0.000000 0.000000 0.000000 0.000000 0.000000 0.042540
#
#
# Mechanical properties :
#
#
# Convention : Reuss Voigt Hill
#
# Bulk Modulus (GPa) = 73.84869 75.11552 74.48211
# Shear Modulus (GPa) = 36.11463 71.87027 53.99245
#
# Velocity S-wave (km/s) = 4.49362 6.33913 5.49441
# Velocity P-wave (km/s) = 8.25919 9.77642 9.04966
#
# Compressibility (1/GPa) = 0.01354120
#
# Stress axis : x y z
#
# Youngs Moduli (GPa) = 101.09436 88.97776 91.55779
#
# Poissons Ratio (x) = 0.13114 0.34624
# Poissons Ratio (y) = 0.14900 0.36625
# Poissons Ratio (z) = 0.38231 0.35593
#
# Static dielectric constant tensor:
#      x y z
#    x 3.485470 0.000000 0.000000 
#    y 0.000000 3.310340 0.000000 
#    z 0.000000 0.000000 3.377830 
# 
# 
# High freq. dielectric constant tensor:
#      x y z
#    x 1.684910 0.000000 0.000000 
#    y 0.000000 1.680790 0.000000 
#    z 0.000000 0.000000 1.692390 
# 
# From -- ./inp_files/3383.got.cif
#   From: 2010.06.25/outbox.cif.g09.slc.cpg/sg71_2_cif.got.tgz:3383.got - 2010.06.28 04:59:45.
