data_PCOD8287845
_publ_section_title
;
Structure prediction by ZEFSAII (Michael W. Deem and Ramdas Pophale) SiO2 
 PCOD8287845
Probable space group: I M M M
;
_chemical_formula_sum "Si O2"
_cell_formula_units_Z 104
_cell_length_a 27.708453
_cell_length_b 18.314883
_cell_length_c 11.677840
_cell_angle_alpha 90.000000
_cell_angle_beta 90.000000
_cell_angle_gamma 90.000000
_cell_volume 5926.236083
_symmetry_space_group_name_H-M "I M M M"
_symmetry_group_IT_number 71
_symmetry_cell_setting 'orthorhombic'
loop_
_space_group_symop_operation_xyz
x,y,z
-x,-y,z
x,-y,-z
-x,y,-z
-x,-y,-z
x,y,-z
-x,y,z
x,-y,z
1/2+x,1/2+y,1/2+z
1/2-x,1/2-y,1/2+z
1/2+x,1/2-y,1/2-z
1/2-x,1/2+y,1/2-z
1/2-x,1/2-y,1/2-z
1/2+x,1/2+y,1/2-z
1/2-x,1/2+y,1/2+z
1/2+x,1/2-y,1/2+z
loop_
_atom_site_type_symbol
_atom_site_label
_atom_site_fract_x
_atom_site_fract_y
_atom_site_fract_z
Si Si1 0.053884 0.260280 0.793005
Si Si2 0.405335 0.649929 0.134477
Si Si3 0.234170 0.585049 0.867978
Si Si4 0.348626 0.188633 0.631819
Si Si5 0.446519 0.500000 0.863501
Si Si6 0.312947 0.334988 0.275867
Si Si7 0.152821 0.083297 0.000000
Si Si8 0.946583 0.150342 0.000000
O O1 0.060376 0.216248 0.674917
O O2 0.098043 0.317812 0.808832
O O3 0.060681 0.200327 0.890038
O O4 0.000000 0.296718 0.797050
O O5 0.421787 0.572257 0.186248
O O6 0.351179 0.658544 0.174673
O O7 0.408140 0.649546 0.000000
O O8 0.237927 0.500000 0.833300
O O9 0.178430 0.611064 0.855995
O O10 0.263839 0.635612 0.780243
O O11 0.251377 0.596097 0.000000
O O12 0.356776 0.210245 0.500000
O O13 0.313508 0.249829 0.688137
O O14 0.500000 0.500000 0.814918
O O15 0.445112 0.500000 0.000000
O O16 0.324702 0.381721 0.387168
O O17 0.094636 0.089308 0.000000
O O18 0.168101 0.000000 0.000000
O O19 0.000000 0.114304 0.000000
#
# Coordination Sequence:
#
# PCOD8287845 Si02
#       8
#    16  16  16  16   8  16   8   8
#     4  10  18  31  53  74  98 130 170 212 253 303
#     4  10  20  30  46  69  98 135 173 213 250 294
#     4  10  22  36  55  80 104 133 169 214 268 315
#     4  10  18  35  56  77 104 135 173 213 253 309
#     4   9  18  30  40  57  89 133 173 204 244 286
#     4  11  20  36  52  74 103 136 174 213 251 308
#     4  12  22  33  50  74 104 140 177 216 258 295
#     4  10  18  33  48  68  98 135 174 209 251 298
#
# _framework density 17.549081999999999
#
# number of rings (size 3 to 8) (size 9 to 14) (size 15 to 20)
#    0.000    1.769    4.615    1.846    2.154    1.077 
#    0.000    0.000    1.692    0.462    0.000    2.154 
#    0.000    0.000    0.000    5.538    0.000    0.000 
#
# Total GULP energy -644435.705154 kJ/mol
# GULP energy per Si atom -12392.994330 kJ/mol
# Density = 1.750914 g / cm^3
# Si number density = 17.549082 Si / 1000 Ang^3
#
#
#
# Elastic Constant Matrix: (Units=GPa)
#
#
# Indices 1 2 3 4 5 6 
#
# 1 103.0290 29.6878 28.6772 0.0000 0.0000 0.0000
# 2 29.6878 43.1052 13.5451 0.0000 0.0000 0.0000
# 3 28.6772 13.5451 62.6823 0.0000 0.0000 0.0000
# 4 0.0000 0.0000 0.0000 17.3192 0.0000 0.0000
# 5 0.0000 0.0000 0.0000 0.0000 33.0120 0.0000
# 6 0.0000 0.0000 0.0000 0.0000 0.0000 13.5233
#
#
#
# Elastic Compliance Matrix: (Units=1/GPa)
#
#
# Indices 1 2 3 4 5 6 
#
# 1 0.013128 -0.007675 -0.004347 0.000000 0.000000 0.000000
# 2 -0.007675 0.029377 -0.002837 0.000000 0.000000 0.000000
# 3 -0.004347 -0.002837 0.018555 0.000000 0.000000 0.000000
# 4 0.000000 0.000000 0.000000 0.057739 0.000000 0.000000
# 5 0.000000 0.000000 0.000000 0.000000 0.030292 0.000000
# 6 0.000000 0.000000 0.000000 0.000000 0.000000 0.073946
#
#
# Mechanical properties :
#
#
# Convention : Reuss Voigt Hill
#
# Bulk Modulus (GPa) = 31.90694 39.18186 35.54440
# Shear Modulus (GPa) = 18.99675 21.89800 20.44737
#
# Velocity S-wave (km/s) = 3.29369 3.53627 3.41714
# Velocity P-wave (km/s) = 5.71713 6.24893 5.98894
#
# Compressibility (1/GPa) = 0.03134114
#
# Stress axis : x y z
#
# Youngs Moduli (GPa) = 76.17482 34.04063 53.89281
#
# Poissons Ratio (x) = 0.26127 0.23429
# Poissons Ratio (y) = 0.58467 0.15287
# Poissons Ratio (z) = 0.33116 0.09656
#
# Static dielectric constant tensor:
#      x y z
#    x 3.392880 0.000000 0.000000 
#    y 0.000000 3.569580 0.000000 
#    z 0.000000 0.000000 4.141410 
# 
# 
# High freq. dielectric constant tensor:
#      x y z
#    x 1.680230 0.000000 0.000000 
#    y 0.000000 1.641910 0.000000 
#    z 0.000000 0.000000 1.682290 
# 
# From -- ./inp_files/30230.got.cif
#   From: 2010.06.25/outbox.cif.g09.slc.cpg/sg71_16_cif.got.tgz:30230.got - 2010.06.28 04:59:45.
