data_PCOD8287178
_publ_section_title
;
Structure prediction by ZEFSAII (Michael W. Deem and Ramdas Pophale) SiO2 
 PCOD8287178
Probable space group: I M M M
;
_chemical_formula_sum "Si O2"
_cell_formula_units_Z 128
_cell_length_a 22.902365
_cell_length_b 19.306859
_cell_length_c 18.222609
_cell_angle_alpha 90.000000
_cell_angle_beta 90.000000
_cell_angle_gamma 90.000000
_cell_volume 8057.540802
_symmetry_space_group_name_H-M "I M M M"
_symmetry_group_IT_number 71
_symmetry_cell_setting 'orthorhombic'
loop_
_space_group_symop_operation_xyz
x,y,z
-x,-y,z
x,-y,-z
-x,y,-z
-x,-y,-z
x,y,-z
-x,y,z
x,-y,z
1/2+x,1/2+y,1/2+z
1/2-x,1/2-y,1/2+z
1/2+x,1/2-y,1/2-z
1/2-x,1/2+y,1/2-z
1/2-x,1/2-y,1/2-z
1/2+x,1/2+y,1/2-z
1/2-x,1/2+y,1/2+z
1/2+x,1/2-y,1/2+z
loop_
_atom_site_type_symbol
_atom_site_label
_atom_site_fract_x
_atom_site_fract_y
_atom_site_fract_z
Si Si1 0.243471 0.423813 0.085008
Si Si2 0.714604 0.281820 0.086017
Si Si3 0.144743 0.344521 0.586150
Si Si4 0.671783 0.293830 0.587522
Si Si5 0.432919 0.920700 0.806016
Si Si6 0.881622 0.421881 0.849833
Si Si7 0.064048 0.710119 0.913860
Si Si8 0.762203 0.076176 0.913362
O O1 0.271568 0.500000 0.098096
O O2 0.290979 0.363888 0.105220
O O3 0.187054 0.413991 0.135443
O O4 0.224064 0.415313 0.000000
O O5 0.660928 0.233992 0.113909
O O6 0.776671 0.255682 0.117639
O O7 0.716345 0.268155 0.000000
O O8 0.130309 0.347255 0.500000
O O9 0.087912 0.370503 0.628859
O O10 0.198950 0.393898 0.607250
O O11 0.669553 0.291116 0.500000
O O12 0.610647 0.265006 0.620238
O O13 0.686199 0.372246 0.614552
O O14 0.500000 0.903306 0.787524
O O15 0.393409 0.905590 0.735171
O O16 0.426219 0.000000 0.831978
O O17 0.902528 0.500000 0.869290
O O18 0.917696 0.368858 0.899246
O O19 0.000000 0.724778 0.879428
O O20 0.061275 0.720674 0.000000
O O21 0.770236 0.000000 0.877200
O O22 0.766642 0.070111 0.000000
#
# Coordination Sequence:
#
# PCOD8287178 Si02
#       8
#    16  16  16  16  16  16  16  16
#     4   9  15  24  43  67  89 117 148 172 199 242
#     4   8  13  24  42  63  87 108 131 171 215 246
#     4   9  17  29  47  67  83 102 136 177 210 253
#     4   8  13  22  35  53  79 103 127 164 208 246
#     4  10  21  34  44  57  84 118 144 172 215 256
#     4  10  19  30  42  57  82 115 146 174 204 240
#     4  10  18  26  39  57  77 106 144 179 204 236
#     4   8  13  22  40  62  78  96 125 165 210 253
#
# _framework density 15.88574
#
# number of rings (size 3 to 8) (size 9 to 14) (size 15 to 20)
#    0.000    3.000    1.250    2.625    0.000    2.500 
#    0.000    1.875    0.000    0.375    0.000    2.625 
#    0.000    0.500    0.000    5.625    0.000    1.125 
#
# Total GULP energy -792914.308985 kJ/mol
# GULP energy per Si atom -12389.286078 kJ/mol
# Density = 1.584958 g / cm^3
# Si number density = 15.885740 Si / 1000 Ang^3
#
#
#
# Elastic Constant Matrix: (Units=GPa)
#
#
# Indices 1 2 3 4 5 6 
#
# 1 42.4220 35.7745 16.0723 0.0000 0.0000 0.0000
# 2 35.7745 120.6090 20.2806 0.0000 0.0000 0.0000
# 3 16.0723 20.2806 25.6003 0.0000 0.0000 0.0000
# 4 0.0000 0.0000 0.0000 9.6690 0.0000 0.0000
# 5 0.0000 0.0000 0.0000 0.0000 12.2031 0.0000
# 6 0.0000 0.0000 0.0000 0.0000 0.0000 25.1074
#
#
#
# Elastic Compliance Matrix: (Units=1/GPa)
#
#
# Indices 1 2 3 4 5 6 
#
# 1 0.036693 -0.008087 -0.016630 0.000000 0.000000 0.000000
# 2 -0.008087 0.011348 -0.003912 0.000000 0.000000 0.000000
# 3 -0.016630 -0.003912 0.052602 0.000000 0.000000 0.000000
# 4 0.000000 0.000000 0.000000 0.103424 0.000000 0.000000
# 5 0.000000 0.000000 0.000000 0.000000 0.081946 0.000000
# 6 0.000000 0.000000 0.000000 0.000000 0.000000 0.039829
#
#
# Mechanical properties :
#
#
# Convention : Reuss Voigt Hill
#
# Bulk Modulus (GPa) = 23.05004 36.98736 30.01870
# Shear Modulus (GPa) = 12.57662 17.16281 14.86971
#
# Velocity S-wave (km/s) = 2.81676 3.29050 3.06280
# Velocity P-wave (km/s) = 5.01201 6.14576 5.60761
#
# Compressibility (1/GPa) = 0.04338387
#
# Stress axis : x y z
#
# Youngs Moduli (GPa) = 27.25286 88.12107 19.01064
#
# Poissons Ratio (x) = 0.71268 0.31614
# Poissons Ratio (y) = 0.22041 0.07438
# Poissons Ratio (z) = 0.45321 0.34477
#
# Static dielectric constant tensor:
#      x y z
#    x 2.954650 0.000000 0.000000 
#    y 0.000000 3.412130 0.000000 
#    z 0.000000 0.000000 2.607800 
# 
# 
# High freq. dielectric constant tensor:
#      x y z
#    x 1.577530 0.000000 0.000000 
#    y 0.000000 1.616700 0.000000 
#    z 0.000000 0.000000 1.567280 
# 
# From -- ./inp_files/55985.got.cif
#   From: 2010.06.25/outbox.cif.g09.slc.cpg/sg71_28_cif.got.tgz:55985.got - 2010.06.28 04:59:45.
