data_PCOD8287458
_publ_section_title
;
Structure prediction by ZEFSAII (Michael W. Deem and Ramdas Pophale) SiO2 
 PCOD8287458
Probable space group: I M M M
;
_chemical_formula_sum "Si O2"
_cell_formula_units_Z 128
_cell_length_a 15.045731
_cell_length_b 22.706374
_cell_length_c 21.521040
_cell_angle_alpha 90.000000
_cell_angle_beta 90.000000
_cell_angle_gamma 90.000000
_cell_volume 7352.318876
_symmetry_space_group_name_H-M "I M M M"
_symmetry_group_IT_number 71
_symmetry_cell_setting 'orthorhombic'
loop_
_space_group_symop_operation_xyz
x,y,z
-x,-y,z
x,-y,-z
-x,y,-z
-x,-y,-z
x,y,-z
-x,y,z
x,-y,z
1/2+x,1/2+y,1/2+z
1/2-x,1/2-y,1/2+z
1/2+x,1/2-y,1/2-z
1/2-x,1/2+y,1/2-z
1/2-x,1/2-y,1/2-z
1/2+x,1/2+y,1/2-z
1/2-x,1/2+y,1/2+z
1/2+x,1/2-y,1/2+z
loop_
_atom_site_type_symbol
_atom_site_label
_atom_site_fract_x
_atom_site_fract_y
_atom_site_fract_z
Si Si1 0.904336 0.932811 0.372224
Si Si2 0.279404 0.930784 0.429465
Si Si3 0.160088 0.366432 0.815513
Si Si4 0.401905 0.067951 0.202415
Si Si5 0.102129 0.764340 0.819473
Si Si6 0.347654 0.373084 0.242716
Si Si7 0.601057 0.349813 0.570420
Si Si8 0.219401 0.068368 0.141300
O O1 0.823562 0.912405 0.416524
O O2 0.916456 0.894585 0.309120
O O3 0.000000 0.926525 0.407297
O O4 0.887135 0.000000 0.351975
O O5 0.302113 0.912767 0.500000
O O6 0.347144 0.895528 0.384157
O O7 0.293885 0.000000 0.418948
O O8 0.091860 0.394935 0.766439
O O9 0.154185 0.296435 0.818677
O O10 0.254809 0.383107 0.789764
O O11 0.500000 0.075043 0.170432
O O12 0.321455 0.089392 0.156791
O O13 0.383351 0.000000 0.219749
O O14 0.134223 0.805963 0.763100
O O15 0.120771 0.794306 0.885642
O O16 0.000000 0.749523 0.809538
O O17 0.348127 0.415356 0.302874
O O18 0.610449 0.327836 0.500000
O O19 0.500000 0.373601 0.582874
O O20 0.677270 0.398951 0.581717
O O21 0.217750 0.000000 0.126364
#
# Coordination Sequence:
#
# PCOD8287458 Si02
#       8
#    16  16  16  16  16  16  16  16
#     4   9  16  26  43  66  91 121 153 182 218 269
#     4   9  18  31  45  63  89 119 151 190 231 267
#     4  10  18  29  47  68  88 117 155 186 220 272
#     4   9  17  30  49  72  97 121 146 184 232 277
#     4  10  19  30  45  65  89 116 147 186 228 268
#     4   9  17  29  43  64  95 120 144 181 227 270
#     4   9  19  34  48  65  93 126 157 191 229 266
#     4   9  17  29  47  70  94 122 154 186 224 273
#
# _framework density 17.409473999999999
#
# number of rings (size 3 to 8) (size 9 to 14) (size 15 to 20)
#    0.000    2.750    0.000    1.875    0.000    4.750 
#    0.000    1.875    0.000    1.500    0.000    6.125 
#    0.000    0.000    0.000    0.000    0.000    0.000 
#
# Total GULP energy -793060.806795 kJ/mol
# GULP energy per Si atom -12391.575106 kJ/mol
# Density = 1.736985 g / cm^3
# Si number density = 17.409474 Si / 1000 Ang^3
#
#
#
# Elastic Constant Matrix: (Units=GPa)
#
#
# Indices 1 2 3 4 5 6 
#
# 1 52.9312 11.9176 6.6043 0.0000 0.0000 0.0000
# 2 11.9176 70.2035 25.0489 0.0000 0.0000 0.0000
# 3 6.6043 25.0489 66.2352 0.0000 0.0000 0.0000
# 4 0.0000 0.0000 0.0000 17.1228 0.0000 0.0000
# 5 0.0000 0.0000 0.0000 0.0000 15.9305 0.0000
# 6 0.0000 0.0000 0.0000 0.0000 0.0000 12.4804
#
#
#
# Elastic Compliance Matrix: (Units=1/GPa)
#
#
# Indices 1 2 3 4 5 6 
#
# 1 0.019681 -0.003053 -0.000808 0.000000 0.000000 0.000000
# 2 -0.003053 0.016940 -0.006102 0.000000 0.000000 0.000000
# 3 -0.000808 -0.006102 0.017486 0.000000 0.000000 0.000000
# 4 0.000000 0.000000 0.000000 0.058402 0.000000 0.000000
# 5 0.000000 0.000000 0.000000 0.000000 0.062773 0.000000
# 6 0.000000 0.000000 0.000000 0.000000 0.000000 0.080126
#
#
# Mechanical properties :
#
#
# Convention : Reuss Voigt Hill
#
# Bulk Modulus (GPa) = 29.25579 30.72349 29.98964
# Shear Modulus (GPa) = 17.43832 18.82667 18.13250
#
# Velocity S-wave (km/s) = 3.16833 3.29204 3.23078
# Velocity P-wave (km/s) = 5.49777 5.66885 5.58396
#
# Compressibility (1/GPa) = 0.03418127
#
# Stress axis : x y z
#
# Youngs Moduli (GPa) = 50.81151 59.03290 57.18895
#
# Poissons Ratio (x) = 0.18021 0.04620
# Poissons Ratio (y) = 0.15511 0.34896
# Poissons Ratio (z) = 0.04105 0.36021
#
# Static dielectric constant tensor:
#      x y z
#    x 3.306850 0.000000 0.000000 
#    y 0.000000 3.108430 0.000000 
#    z 0.000000 0.000000 3.227820 
# 
# 
# High freq. dielectric constant tensor:
#      x y z
#    x 1.673240 0.000000 0.000000 
#    y 0.000000 1.657940 0.000000 
#    z 0.000000 0.000000 1.653050 
# 
# From -- ./inp_files/54478.got.cif
#   From: 2010.06.25/outbox.cif.g09.slc.cpg/sg71_28_cif.got.tgz:54478.got - 2010.06.28 04:59:45.
