data_PCOD8287171
_publ_section_title
;
Structure prediction by ZEFSAII (Michael W. Deem and Ramdas Pophale) SiO2 
 PCOD8287171
Probable space group: I M M M
;
_chemical_formula_sum "Si O2"
_cell_formula_units_Z 72
_cell_length_a 24.031985
_cell_length_b 9.064008
_cell_length_c 22.396690
_cell_angle_alpha 90.000000
_cell_angle_beta 90.000000
_cell_angle_gamma 90.000000
_cell_volume 4878.583732
_symmetry_space_group_name_H-M "I M M M"
_symmetry_group_IT_number 71
_symmetry_cell_setting 'orthorhombic'
loop_
_space_group_symop_operation_xyz
x,y,z
-x,-y,z
x,-y,-z
-x,y,-z
-x,-y,-z
x,y,-z
-x,y,z
x,-y,z
1/2+x,1/2+y,1/2+z
1/2-x,1/2-y,1/2+z
1/2+x,1/2-y,1/2-z
1/2-x,1/2+y,1/2-z
1/2-x,1/2-y,1/2-z
1/2+x,1/2+y,1/2-z
1/2-x,1/2+y,1/2+z
1/2+x,1/2-y,1/2+z
loop_
_atom_site_type_symbol
_atom_site_label
_atom_site_fract_x
_atom_site_fract_y
_atom_site_fract_z
Si Si1 0.565689 0.669993 0.500000
Si Si2 0.860952 0.324866 0.093291
Si Si3 0.203906 0.164833 0.327739
Si Si4 0.328909 0.836118 0.720267
Si Si5 0.247085 0.668730 0.566807
O O1 0.585387 0.500000 0.500000
O O2 0.500000 0.683637 0.500000
O O3 0.587771 0.750576 0.440688
O O4 0.860157 0.500000 0.082287
O O5 0.867325 0.288622 0.164081
O O6 0.804165 0.259135 0.067522
O O7 0.266043 0.167271 0.302964
O O8 0.162751 0.229092 0.276827
O O9 0.201730 0.262103 0.387944
O O10 0.184108 0.000000 0.342927
O O11 0.344504 0.000000 0.741806
O O12 0.222158 0.676782 0.500000
O O13 0.258978 0.500000 0.585852
#
# Coordination Sequence:
#
# PCOD8287171 Si02
#       5
#     8  16  16  16  16
#     4  11  23  35  45  59  79 101 127 163 207 249
#     4  10  19  30  45  59  72  94 126 163 200 237
#     4   9  16  24  36  54  74  98 125 156 189 223
#     4   8  15  26  38  54  73  93 119 154 194 231
#     4  10  18  26  38  55  77 104 131 160 195 232
#
# _framework density 14.758381999999999
#
# number of rings (size 3 to 8) (size 9 to 14) (size 15 to 20)
#    0.000    2.556    1.111    3.667    0.000    8.444 
#    0.000    0.000    0.000    0.000    0.000    0.000 
#    0.000    0.000    0.000    0.000    0.000    1.111 
#
# Total GULP energy -446230.611914 kJ/mol
# GULP energy per Si atom -12395.294775 kJ/mol
# Density = 1.472479 g / cm^3
# Si number density = 14.758382 Si / 1000 Ang^3
#
#
#
# Elastic Constant Matrix: (Units=GPa)
#
#
# Indices 1 2 3 4 5 6 
#
# 1 25.0082 25.7984 31.5093 0.0000 0.0000 0.0000
# 2 25.7984 125.2221 70.9415 0.0000 0.0000 0.0000
# 3 31.5093 70.9415 115.7909 0.0000 0.0000 0.0000
# 4 0.0000 0.0000 0.0000 29.1989 0.0000 0.0000
# 5 0.0000 0.0000 0.0000 0.0000 13.5272 0.0000
# 6 0.0000 0.0000 0.0000 0.0000 0.0000 12.5822
#
#
#
# Elastic Compliance Matrix: (Units=1/GPa)
#
#
# Indices 1 2 3 4 5 6 
#
# 1 0.062822 -0.004990 -0.014038 0.000000 0.000000 0.000000
# 2 -0.004990 0.012627 -0.006379 0.000000 0.000000 0.000000
# 3 -0.014038 -0.006379 0.016364 0.000000 0.000000 0.000000
# 4 0.000000 0.000000 0.000000 0.034248 0.000000 0.000000
# 5 0.000000 0.000000 0.000000 0.000000 0.073925 0.000000
# 6 0.000000 0.000000 0.000000 0.000000 0.000000 0.079477
#
#
# Mechanical properties :
#
#
# Convention : Reuss Voigt Hill
#
# Bulk Modulus (GPa) = 24.38987 58.05775 41.22381
# Shear Modulus (GPa) = 14.53725 20.24646 17.39185
#
# Velocity S-wave (km/s) = 3.14190 3.70788 3.43656
# Velocity P-wave (km/s) = 5.45198 7.59970 6.61360
#
# Compressibility (1/GPa) = 0.04100062
#
# Stress axis : x y z
#
# Youngs Moduli (GPa) = 15.91803 79.19250 61.10821
#
# Poissons Ratio (x) = 0.39514 0.85785
# Poissons Ratio (y) = 0.07942 0.38979
# Poissons Ratio (z) = 0.22346 0.50514
#
# Static dielectric constant tensor:
#      x y z
#    x 2.251070 0.000000 0.000000 
#    y 0.000000 3.120060 0.000000 
#    z 0.000000 0.000000 3.219340 
# 
# 
# High freq. dielectric constant tensor:
#      x y z
#    x 1.473620 0.000000 0.000000 
#    y 0.000000 1.586410 0.000000 
#    z 0.000000 0.000000 1.577480 
# 
# From -- ./inp_files/7905.got.cif
#   From: 2010.06.25/outbox.cif.g09.slc.cpg/sg71_4_cif.got.tgz:7905.got - 2010.06.28 04:59:45.
