data_PCOD8287245
_publ_section_title
;
Structure prediction by ZEFSAII (Michael W. Deem and Ramdas Pophale) SiO2 
 PCOD8287245
Probable space group: I M M M
;
_chemical_formula_sum "Si O2"
_cell_formula_units_Z 72
_cell_length_a 33.123076
_cell_length_b 14.408611
_cell_length_c 9.369229
_cell_angle_alpha 90.000000
_cell_angle_beta 90.000000
_cell_angle_gamma 90.000000
_cell_volume 4471.534971
_symmetry_space_group_name_H-M "I M M M"
_symmetry_group_IT_number 71
_symmetry_cell_setting 'orthorhombic'
loop_
_space_group_symop_operation_xyz
x,y,z
-x,-y,z
x,-y,-z
-x,y,-z
-x,-y,-z
x,y,-z
-x,y,z
x,-y,z
1/2+x,1/2+y,1/2+z
1/2-x,1/2-y,1/2+z
1/2+x,1/2-y,1/2-z
1/2-x,1/2+y,1/2-z
1/2-x,1/2-y,1/2-z
1/2+x,1/2+y,1/2-z
1/2-x,1/2+y,1/2+z
1/2+x,1/2-y,1/2+z
loop_
_atom_site_type_symbol
_atom_site_label
_atom_site_fract_x
_atom_site_fract_y
_atom_site_fract_z
Si Si1 0.682499 0.393334 0.333469
Si Si2 0.845615 0.271965 0.331746
Si Si3 0.226539 0.602367 0.330547
Si Si4 0.000000 0.389779 0.838956
Si Si5 0.422785 0.107411 0.165642
O O1 0.677071 0.372817 0.500000
O O2 0.671763 0.500000 0.299273
O O3 0.652214 0.327728 0.245198
O O4 0.728242 0.370462 0.283058
O O5 0.843179 0.255997 0.500000
O O6 0.806101 0.325116 0.271190
O O7 0.884412 0.332019 0.289597
O O8 0.224225 0.598849 0.500000
O O9 0.215926 0.500000 0.270502
O O10 0.960281 0.354270 0.757164
O O11 0.000000 0.500000 0.837868
O O12 0.000000 0.350479 0.000000
O O13 0.413007 0.000000 0.199601
O O14 0.433723 0.119876 0.000000
#
# Coordination Sequence:
#
# PCOD8287245 Si02
#       5
#    16  16  16   8  16
#     4   9  18  31  44  58  82 119 155 184 219 260
#     4  10  18  27  44  68  88 110 145 187 222 251
#     4   8  14  26  43  62  86 116 148 180 216 260
#     4   9  17  29  45  65  90 119 146 171 203 248
#     4   9  17  29  45  66  92 119 144 171 209 259
#
# _framework density 16.101852999999998
#
# number of rings (size 3 to 8) (size 9 to 14) (size 15 to 20)
#    0.000    3.000    0.000    3.000    0.000    5.333 
#    0.000    0.000    0.000    3.333    0.000    0.778 
#    0.000    6.222    0.000    0.000    0.000    0.000 
#
# Total GULP energy -446301.616771 kJ/mol
# GULP energy per Si atom -12397.267133 kJ/mol
# Density = 1.606520 g / cm^3
# Si number density = 16.101853 Si / 1000 Ang^3
#
#
#
# Elastic Constant Matrix: (Units=GPa)
#
#
# Indices 1 2 3 4 5 6 
#
# 1 97.4195 62.0420 48.7972 0.0000 0.0000 0.0000
# 2 62.0420 93.7284 43.9038 0.0000 0.0000 0.0000
# 3 48.7972 43.9038 51.6870 0.0000 0.0000 0.0000
# 4 0.0000 0.0000 0.0000 25.1464 0.0000 0.0000
# 5 0.0000 0.0000 0.0000 0.0000 20.3705 0.0000
# 6 0.0000 0.0000 0.0000 0.0000 0.0000 18.7247
#
#
#
# Elastic Compliance Matrix: (Units=1/GPa)
#
#
# Indices 1 2 3 4 5 6 
#
# 1 0.022812 -0.008324 -0.014466 0.000000 0.000000 0.000000
# 2 -0.008324 0.020757 -0.009772 0.000000 0.000000 0.000000
# 3 -0.014466 -0.009772 0.041306 0.000000 0.000000 0.000000
# 4 0.000000 0.000000 0.000000 0.039767 0.000000 0.000000
# 5 0.000000 0.000000 0.000000 0.000000 0.049091 0.000000
# 6 0.000000 0.000000 0.000000 0.000000 0.000000 0.053405
#
#
# Mechanical properties :
#
#
# Convention : Reuss Voigt Hill
#
# Bulk Modulus (GPa) = 50.63537 61.36899 56.00218
# Shear Modulus (GPa) = 16.73105 18.72111 17.72608
#
# Velocity S-wave (km/s) = 3.22697 3.41349 3.32154
# Velocity P-wave (km/s) = 6.73792 7.33019 7.04029
#
# Compressibility (1/GPa) = 0.01974904
#
# Stress axis : x y z
#
# Youngs Moduli (GPa) = 43.83634 48.17759 24.20980
#
# Poissons Ratio (x) = 0.40102 0.35023
# Poissons Ratio (y) = 0.36489 0.23659
# Poissons Ratio (z) = 0.63415 0.47081
#
# Static dielectric constant tensor:
#      x y z
#    x 3.024300 0.000000 0.000000 
#    y 0.000000 2.951590 0.000000 
#    z 0.000000 0.000000 2.823620 
# 
# 
# High freq. dielectric constant tensor:
#      x y z
#    x 1.605510 0.000000 0.000000 
#    y 0.000000 1.603080 0.000000 
#    z 0.000000 0.000000 1.599170 
# 
# From -- ./inp_files/6427.got.cif
#   From: 2010.06.25/outbox.cif.g09.slc.cpg/sg71_4_cif.got.tgz:6427.got - 2010.06.28 04:59:45.
