data_PCOD8287920
_publ_section_title
;
Structure prediction by ZEFSAII (Michael W. Deem and Ramdas Pophale) SiO2 
 PCOD8287920
Probable space group: I M M M
;
_chemical_formula_sum "Si O2"
_cell_formula_units_Z 64
_cell_length_a 9.582600
_cell_length_b 13.231223
_cell_length_c 30.941816
_cell_angle_alpha 90.000000
_cell_angle_beta 90.000000
_cell_angle_gamma 90.000000
_cell_volume 3923.097922
_symmetry_space_group_name_H-M "I M M M"
_symmetry_group_IT_number 71
_symmetry_cell_setting 'orthorhombic'
loop_
_space_group_symop_operation_xyz
x,y,z
-x,-y,z
x,-y,-z
-x,y,-z
-x,-y,-z
x,y,-z
-x,y,z
x,-y,z
1/2+x,1/2+y,1/2+z
1/2-x,1/2-y,1/2+z
1/2+x,1/2-y,1/2-z
1/2-x,1/2+y,1/2-z
1/2-x,1/2-y,1/2-z
1/2+x,1/2+y,1/2-z
1/2-x,1/2+y,1/2+z
1/2+x,1/2-y,1/2+z
loop_
_atom_site_type_symbol
_atom_site_label
_atom_site_fract_x
_atom_site_fract_y
_atom_site_fract_z
Si Si1 0.342264 0.880061 0.000000
Si Si2 0.158569 0.884179 0.920292
Si Si3 0.795338 0.217351 0.830876
Si Si4 0.500000 0.215103 0.791903
Si Si5 0.500000 0.387900 0.271770
Si Si6 0.000000 0.381308 0.798738
O O1 0.260835 0.842530 0.957490
O O2 0.500000 0.836514 0.000000
O O3 0.343405 0.000000 0.000000
O O4 0.175339 0.808881 0.880291
O O5 0.000000 0.879287 0.937465
O O6 0.195953 0.000000 0.907188
O O7 0.631766 0.208431 0.823109
O O8 0.862348 0.326884 0.818858
O O9 0.863999 0.133251 0.800349
O O10 0.500000 0.325270 0.771696
O O11 0.500000 0.132112 0.753362
O O12 0.500000 0.500000 0.254910
O O13 0.000000 0.500000 0.810390
#
# Coordination Sequence:
#
# PCOD8287920 Si02
#       6
#     8  16  16   8   8   8
#     4   9  19  31  47  77 107 128 154 191 242 303
#     4  10  18  32  51  71 100 135 164 194 236 291
#     4  10  20  33  49  74  99 129 171 208 240 296
#     4  10  22  32  46  73 101 130 169 210 251 289
#     4  10  18  34  52  66  95 133 171 208 246 293
#     4  10  20  36  52  68  98 134 170 212 251 286
#
# _framework density 16.313637
#
# number of rings (size 3 to 8) (size 9 to 14) (size 15 to 20)
#    0.000    2.375    2.500    4.125    1.750    6.500 
#    0.000    0.000    0.000    0.000    0.000    1.750 
#    0.000    1.000    0.000    0.000    0.000    0.000 
#
# Total GULP energy -396677.367402 kJ/mol
# GULP energy per Si atom -12396.167731 kJ/mol
# Density = 1.627651 g / cm^3
# Si number density = 16.313637 Si / 1000 Ang^3
#
#
#
# Elastic Constant Matrix: (Units=GPa)
#
#
# Indices 1 2 3 4 5 6 
#
# 1 138.4258 19.0333 37.7980 0.0000 0.0000 0.0000
# 2 19.0333 79.5872 21.1671 0.0000 0.0000 0.0000
# 3 37.7980 21.1671 74.3225 0.0000 0.0000 0.0000
# 4 0.0000 0.0000 0.0000 14.4349 0.0000 0.0000
# 5 0.0000 0.0000 0.0000 0.0000 31.2066 0.0000
# 6 0.0000 0.0000 0.0000 0.0000 0.0000 6.0322
#
#
#
# Elastic Compliance Matrix: (Units=1/GPa)
#
#
# Indices 1 2 3 4 5 6 
#
# 1 0.008455 -0.000950 -0.004029 0.000000 0.000000 0.000000
# 2 -0.000950 0.013701 -0.003419 0.000000 0.000000 0.000000
# 3 -0.004029 -0.003419 0.016478 0.000000 0.000000 0.000000
# 4 0.000000 0.000000 0.000000 0.069277 0.000000 0.000000
# 5 0.000000 0.000000 0.000000 0.000000 0.032044 0.000000
# 6 0.000000 0.000000 0.000000 0.000000 0.000000 0.165778
#
#
# Mechanical properties :
#
#
# Convention : Reuss Voigt Hill
#
# Bulk Modulus (GPa) = 45.79354 49.81470 47.80412
# Shear Modulus (GPa) = 15.16031 24.62389 19.89210
#
# Velocity S-wave (km/s) = 3.05175 3.88932 3.49571
# Velocity P-wave (km/s) = 6.36783 7.12538 6.75723
#
# Compressibility (1/GPa) = 0.02183714
#
# Stress axis : x y z
#
# Youngs Moduli (GPa) = 118.27361 72.98524 60.68812
#
# Poissons Ratio (x) = 0.06936 0.24453
# Poissons Ratio (y) = 0.11241 0.20748
# Poissons Ratio (z) = 0.47655 0.24952
#
# Static dielectric constant tensor:
#      x y z
#    x 3.065060 0.000000 0.000000 
#    y 0.000000 2.779500 0.000000 
#    z 0.000000 0.000000 2.985130 
# 
# 
# High freq. dielectric constant tensor:
#      x y z
#    x 1.642330 0.000000 0.000000 
#    y 0.000000 1.588040 0.000000 
#    z 0.000000 0.000000 1.619120 
# 
# From -- ./inp_files/67822.got.cif
#   From: 2010.06.25/outbox.cif.g09.slc.cpg/sg71_34_cif.got.tgz:67822.got - 2010.06.28 04:59:45.
