data_PCOD8287780
_publ_section_title
;
Structure prediction by ZEFSAII (Michael W. Deem and Ramdas Pophale) SiO2 
 PCOD8287780
Probable space group: I M M M
;
_chemical_formula_sum "Si O2"
_cell_formula_units_Z 72
_cell_length_a 12.810753
_cell_length_b 19.813791
_cell_length_c 16.023455
_cell_angle_alpha 90.000000
_cell_angle_beta 90.000000
_cell_angle_gamma 90.000000
_cell_volume 4067.226893
_symmetry_space_group_name_H-M "I M M M"
_symmetry_group_IT_number 71
_symmetry_cell_setting 'orthorhombic'
loop_
_space_group_symop_operation_xyz
x,y,z
-x,-y,z
x,-y,-z
-x,y,-z
-x,-y,-z
x,y,-z
-x,y,z
x,-y,z
1/2+x,1/2+y,1/2+z
1/2-x,1/2-y,1/2+z
1/2+x,1/2-y,1/2-z
1/2-x,1/2+y,1/2-z
1/2-x,1/2-y,1/2-z
1/2+x,1/2+y,1/2-z
1/2-x,1/2+y,1/2+z
1/2+x,1/2-y,1/2+z
loop_
_atom_site_type_symbol
_atom_site_label
_atom_site_fract_x
_atom_site_fract_y
_atom_site_fract_z
Si Si1 0.877530 0.737171 0.093862
Si Si2 0.116371 0.500000 0.094483
Si Si3 0.616104 0.000000 0.182465
Si Si4 0.381681 0.632026 0.689675
Si Si5 0.195831 0.388215 0.805316
Si Si6 0.674783 0.500000 0.403993
O O1 0.836859 0.808224 0.130954
O O2 0.851399 0.682418 0.164875
O O3 0.000000 0.739527 0.082695
O O4 0.829026 0.725159 0.000000
O O5 0.188712 0.564535 0.113601
O O6 0.000000 0.500000 0.140107
O O7 0.087864 0.500000 0.000000
O O8 0.631533 0.930936 0.235771
O O9 0.500000 0.000000 0.144075
O O10 0.700008 0.000000 0.108201
O O11 0.500000 0.647186 0.718523
O O12 0.312982 0.624707 0.773466
O O13 0.378898 0.564261 0.636886
O O14 0.646781 0.500000 0.500000
#
# Coordination Sequence:
#
# PCOD8287780 Si02
#       6
#    16   8   8  16  16   8
#     4  10  19  31  50  75  98 121 154 198 244 283
#     4  10  19  31  51  79 103 122 151 194 243 288
#     4   9  18  31  48  72 100 127 156 189 233 292
#     4  10  21  34  49  70  95 127 165 200 234 276
#     4  10  18  31  50  72  99 128 157 192 235 285
#     4  10  20  33  50  70  93 124 161 202 243 277
#
# _framework density 17.702479
#
# number of rings (size 3 to 8) (size 9 to 14) (size 15 to 20)
#    0.000    2.111    0.000    5.667    0.000    3.778 
#    0.000    0.000    0.000    3.333    0.000    0.000 
#    0.000    0.000    0.000    0.000    0.000    0.000 
#
# Total GULP energy -446008.778686 kJ/mol
# GULP energy per Si atom -12389.132741 kJ/mol
# Density = 1.766219 g / cm^3
# Si number density = 17.702479 Si / 1000 Ang^3
#
#
#
# Elastic Constant Matrix: (Units=GPa)
#
#
# Indices 1 2 3 4 5 6 
#
# 1 76.7429 20.0773 30.7239 0.0000 0.0000 0.0000
# 2 20.0773 136.9229 37.3609 0.0002 0.0000 -0.0001
# 3 30.7239 37.3609 76.7311 0.0004 0.0000 -0.0001
# 4 0.0000 0.0002 0.0004 16.7369 0.0000 -0.0001
# 5 0.0000 0.0000 0.0000 0.0000 17.5917 0.0000
# 6 0.0000 -0.0001 -0.0001 -0.0001 0.0000 35.5964
#
#
#
# Elastic Compliance Matrix: (Units=1/GPa)
#
#
# Indices 1 2 3 4 5 6 
#
# 1 0.015571 -0.000671 -0.005908 0.000000 0.000000 0.000000
# 2 -0.000671 0.008451 -0.003846 0.000000 0.000000 0.000000
# 3 -0.005908 -0.003846 0.017271 0.000000 0.000000 0.000000
# 4 0.000000 0.000000 0.000000 0.059748 0.000000 0.000000
# 5 0.000000 0.000000 0.000000 0.000000 0.056845 0.000000
# 6 0.000000 0.000000 0.000000 0.000000 0.000000 0.028093
#
#
# Mechanical properties :
#
#
# Convention : Reuss Voigt Hill
#
# Bulk Modulus (GPa) = 48.91758 51.85788 50.38773
# Shear Modulus (GPa) = 23.40329 27.46731 25.43530
#
# Velocity S-wave (km/s) = 3.63992 3.94332 3.79465
# Velocity P-wave (km/s) = 6.73488 7.07748 6.90830
#
# Compressibility (1/GPa) = 0.02044255
#
# Stress axis : x y z
#
# Youngs Moduli (GPa) = 64.22019 118.32522 57.90063
#
# Poissons Ratio (x) = 0.07942 0.34209
# Poissons Ratio (y) = 0.04310 0.22270
# Poissons Ratio (z) = 0.37942 0.45511
#
# Static dielectric constant tensor:
#      x y z
#    x 3.142460 0.000000 0.000000 
#    y 0.000000 3.476050 0.000000 
#    z 0.000000 0.000000 3.341400 
# 
# 
# High freq. dielectric constant tensor:
#      x y z
#    x 1.663740 0.000000 0.000000 
#    y 0.000000 1.702340 0.000000 
#    z 0.000000 0.000000 1.672780 
# 
# From -- ./inp_files/43220.got.cif
#   From: 2010.06.25/outbox.cif.g09.slc.cpg/sg71_22_cif.got.tgz:43220.got - 2010.06.28 04:59:45.
