data_PCOD8287680
_publ_section_title
;
Structure prediction by ZEFSAII (Michael W. Deem and Ramdas Pophale) SiO2 
 PCOD8287680
Probable space group: I M M M
;
_chemical_formula_sum "Si O2"
_cell_formula_units_Z 96
_cell_length_a 14.164951
_cell_length_b 12.037523
_cell_length_c 29.456266
_cell_angle_alpha 90.000000
_cell_angle_beta 90.000000
_cell_angle_gamma 90.000000
_cell_volume 5022.615117
_symmetry_space_group_name_H-M "I M M M"
_symmetry_group_IT_number 71
_symmetry_cell_setting 'orthorhombic'
loop_
_space_group_symop_operation_xyz
x,y,z
-x,-y,z
x,-y,-z
-x,y,-z
-x,-y,-z
x,y,-z
-x,y,z
x,-y,z
1/2+x,1/2+y,1/2+z
1/2-x,1/2-y,1/2+z
1/2+x,1/2-y,1/2-z
1/2-x,1/2+y,1/2-z
1/2-x,1/2-y,1/2-z
1/2+x,1/2+y,1/2-z
1/2-x,1/2+y,1/2+z
1/2+x,1/2-y,1/2+z
loop_
_atom_site_type_symbol
_atom_site_label
_atom_site_fract_x
_atom_site_fract_y
_atom_site_fract_z
Si Si1 0.612780 0.000000 0.728267
Si Si2 0.387140 0.241494 0.290740
Si Si3 0.263902 0.871680 0.947951
Si Si4 0.887921 0.500000 0.670645
Si Si5 0.112408 0.124845 0.703250
Si Si6 0.106644 0.873197 0.122913
Si Si7 0.888724 0.720973 0.622417
O O1 0.650112 0.886048 0.705242
O O2 0.500000 0.000000 0.727989
O O3 0.652638 0.000000 0.779015
O O4 0.500000 0.245291 0.288705
O O5 0.347995 0.300753 0.244902
O O6 0.349467 0.302763 0.335571
O O7 0.164285 0.854220 0.923022
O O8 0.338635 0.783312 0.926710
O O9 0.298817 0.000000 0.943734
O O10 0.249711 0.838070 0.000000
O O11 0.850213 0.608689 0.645680
O O12 0.000000 0.500000 0.671853
O O13 0.142712 0.177337 0.654725
O O14 0.000000 0.122161 0.706014
O O15 0.154081 0.000000 0.706507
O O16 0.000000 0.835483 0.112242
O O17 0.110034 0.000000 0.139285
O O18 0.000000 0.721525 0.614532
#
# Coordination Sequence:
#
# PCOD8287680 Si02
#       7
#     8  16  16   8  16  16  16
#     4   9  14  22  42  73 105 136 167 197 237 287
#     4   9  15  25  45  73 103 134 166 201 241 287
#     4  10  21  35  52  75  99 124 161 211 260 302
#     4   9  14  24  43  70 100 135 166 189 232 286
#     4   9  16  26  45  73 104 139 173 199 230 283
#     4   9  18  33  52  73  99 131 164 201 248 297
#     4  10  18  30  50  74 104 136 164 198 242 293
#
# _framework density 19.113548000000002
#
# number of rings (size 3 to 8) (size 9 to 14) (size 15 to 20)
#    0.000    2.667    2.500    0.500    0.000    2.667 
#    0.000    3.333    1.833    0.500    0.000    2.333 
#    0.000    3.333    0.000    0.000    0.000    0.000 
#
# Total GULP energy -595027.056152 kJ/mol
# GULP energy per Si atom -12396.397003 kJ/mol
# Density = 1.907004 g / cm^3
# Si number density = 19.113548 Si / 1000 Ang^3
#
#
#
# Elastic Constant Matrix: (Units=GPa)
#
#
# Indices 1 2 3 4 5 6 
#
# 1 30.2669 27.5514 36.7048 0.0000 0.0000 0.0000
# 2 27.5514 127.2258 68.1390 0.0000 0.0000 0.0000
# 3 36.7048 68.1390 160.8462 0.0000 0.0000 0.0000
# 4 0.0000 0.0000 0.0000 26.3318 0.0000 0.0000
# 5 0.0000 0.0000 0.0000 0.0000 21.4844 0.0000
# 6 0.0000 0.0000 0.0000 0.0000 0.0000 17.0465
#
#
#
# Elastic Compliance Matrix: (Units=1/GPa)
#
#
# Indices 1 2 3 4 5 6 
#
# 1 0.048956 -0.005974 -0.008641 0.000000 0.000000 0.000000
# 2 -0.005974 0.010896 -0.003253 0.000000 0.000000 0.000000
# 3 -0.008641 -0.003253 0.009567 0.000000 0.000000 0.000000
# 4 0.000000 0.000000 0.000000 0.037977 0.000000 0.000000
# 5 0.000000 0.000000 0.000000 0.000000 0.046545 0.000000
# 6 0.000000 0.000000 0.000000 0.000000 0.000000 0.058663
#
#
# Mechanical properties :
#
#
# Convention : Reuss Voigt Hill
#
# Bulk Modulus (GPa) = 29.68765 64.79215 47.23990
# Shear Modulus (GPa) = 19.26286 25.36878 22.31582
#
# Velocity S-wave (km/s) = 3.17805 3.64712 3.42063
# Velocity P-wave (km/s) = 5.38819 7.19079 6.35374
#
# Compressibility (1/GPa) = 0.03368405
#
# Stress axis : x y z
#
# Youngs Moduli (GPa) = 20.42641 91.77973 104.52766
#
# Poissons Ratio (x) = 0.54827 0.90323
# Poissons Ratio (y) = 0.12202 0.33998
# Poissons Ratio (z) = 0.17651 0.29851
#
# Static dielectric constant tensor:
#      x y z
#    x 3.272940 0.000000 0.000000 
#    y 0.000000 3.628700 0.000000 
#    z 0.000000 0.000000 3.385470 
# 
# 
# High freq. dielectric constant tensor:
#      x y z
#    x 1.738360 0.000000 0.000000 
#    y 0.000000 1.727750 0.000000 
#    z 0.000000 0.000000 1.720250 
# 
# From -- ./inp_files/33248.got.cif
#   From: 2010.06.25/outbox.cif.g09.slc.cpg/sg71_17_cif.got.tgz:33248.got - 2010.06.28 04:59:45.
