data_PCOD8287844
_publ_section_title
;
Structure prediction by ZEFSAII (Michael W. Deem and Ramdas Pophale) SiO2 
 PCOD8287844
Probable space group: I M M M
;
_chemical_formula_sum "Si O2"
_cell_formula_units_Z 112
_cell_length_a 27.652082
_cell_length_b 17.895744
_cell_length_c 13.932636
_cell_angle_alpha 90.000000
_cell_angle_beta 90.000000
_cell_angle_gamma 90.000000
_cell_volume 6894.628744
_symmetry_space_group_name_H-M "I M M M"
_symmetry_group_IT_number 71
_symmetry_cell_setting 'orthorhombic'
loop_
_space_group_symop_operation_xyz
x,y,z
-x,-y,z
x,-y,-z
-x,y,-z
-x,-y,-z
x,y,-z
-x,y,z
x,-y,z
1/2+x,1/2+y,1/2+z
1/2-x,1/2-y,1/2+z
1/2+x,1/2-y,1/2-z
1/2-x,1/2+y,1/2-z
1/2-x,1/2-y,1/2-z
1/2+x,1/2+y,1/2-z
1/2-x,1/2+y,1/2+z
1/2+x,1/2-y,1/2+z
loop_
_atom_site_type_symbol
_atom_site_label
_atom_site_fract_x
_atom_site_fract_y
_atom_site_fract_z
Si Si1 0.606464 0.734910 0.609913
Si Si2 0.806889 0.664997 0.892058
Si Si3 0.664849 0.655529 0.767279
Si Si4 0.736742 0.085527 0.218846
Si Si5 0.087951 0.087954 0.394181
Si Si6 0.000000 0.088458 0.268095
Si Si7 0.000000 0.795725 0.890260
Si Si8 0.219294 0.728065 0.390596
O O1 0.612423 0.706556 0.500000
O O2 0.637243 0.811099 0.623862
O O3 0.627958 0.671825 0.680311
O O4 0.549482 0.750487 0.633459
O O5 0.791955 0.600536 0.818224
O O6 0.773466 0.738966 0.876134
O O7 0.799165 0.633882 0.000000
O O8 0.706677 0.600610 0.732098
O O9 0.639203 0.610407 0.851659
O O10 0.684294 0.731947 0.814645
O O11 0.718093 0.140251 0.134706
O O12 0.728040 0.000000 0.187869
O O13 0.082450 0.123368 0.500000
O O14 0.045780 0.118821 0.326700
O O15 0.083770 0.000000 0.401439
O O16 0.000000 0.125938 0.164534
O O17 0.000000 0.000000 0.252785
O O18 0.000000 0.819624 0.000000
O O19 0.201554 0.738853 0.500000
#
# Coordination Sequence:
#
# PCOD8287844 Si02
#       8
#    16  16  16  16  16   8   8  16
#     4  10  18  31  53  73  94 122 162 206 249 292
#     4   9  17  33  53  69  92 129 165 200 246 294
#     4  11  18  33  51  70  94 129 167 203 242 287
#     4  11  21  31  46  73 103 129 161 199 240 294
#     4  10  20  32  46  66  92 125 165 207 249 286
#     4  10  19  31  46  61  89 131 165 198 240 292
#     4  10  20  32  49  76  97 119 161 212 251 293
#     4  10  19  32  49  70  95 130 168 200 238 287
#
# _framework density 16.244530000000001
#
# number of rings (size 3 to 8) (size 9 to 14) (size 15 to 20)
#    0.000    1.857    4.286    1.929    0.000    2.143 
#    0.000    0.000    0.000    1.286    0.000    0.500 
#    0.000    2.857    0.000    1.286    0.000    0.000 
#
# Total GULP energy -694228.242902 kJ/mol
# GULP energy per Si atom -12396.932909 kJ/mol
# Density = 1.620756 g / cm^3
# Si number density = 16.244530 Si / 1000 Ang^3
#
#
#
# Elastic Constant Matrix: (Units=GPa)
#
#
# Indices 1 2 3 4 5 6 
#
# 1 88.2354 -0.6083 33.6551 0.0000 0.0000 0.0000
# 2 -0.6083 40.7795 15.9996 0.0000 0.0000 0.0000
# 3 33.6551 15.9996 73.9016 0.0000 0.0000 0.0000
# 4 0.0000 0.0000 0.0000 21.6728 0.0000 0.0000
# 5 0.0000 0.0000 0.0000 0.0000 13.9758 0.0000
# 6 0.0000 0.0000 0.0000 0.0000 0.0000 14.0315
#
#
#
# Elastic Compliance Matrix: (Units=1/GPa)
#
#
# Indices 1 2 3 4 5 6 
#
# 1 0.014037 0.002970 -0.007036 0.000000 0.000000 0.000000
# 2 0.002970 0.027427 -0.007290 0.000000 0.000000 0.000000
# 3 -0.007036 -0.007290 0.018314 0.000000 0.000000 0.000000
# 4 0.000000 0.000000 0.000000 0.046141 0.000000 0.000000
# 5 0.000000 0.000000 0.000000 0.000000 0.071552 0.000000
# 6 0.000000 0.000000 0.000000 0.000000 0.000000 0.071268
#
#
# Mechanical properties :
#
#
# Convention : Reuss Voigt Hill
#
# Bulk Modulus (GPa) = 26.97912 33.44547 30.21229
# Shear Modulus (GPa) = 17.61763 20.19404 18.90584
#
# Velocity S-wave (km/s) = 3.29679 3.52963 3.41519
# Velocity P-wave (km/s) = 5.57996 6.10283 5.84724
#
# Compressibility (1/GPa) = 0.03706570
#
# Stress axis : x y z
#
# Youngs Moduli (GPa) = 71.23862 36.46079 54.60341
#
# Poissons Ratio (x) = -0.10828 0.38417
# Poissons Ratio (y) = -0.21156 0.39807
# Poissons Ratio (z) = 0.50121 0.26581
#
# Static dielectric constant tensor:
#      x y z
#    x 3.256790 0.000000 0.000000 
#    y 0.000000 2.651590 0.000000 
#    z 0.000000 0.000000 3.282410 
# 
# 
# High freq. dielectric constant tensor:
#      x y z
#    x 1.622810 0.000000 0.000000 
#    y 0.000000 1.578620 0.000000 
#    z 0.000000 0.000000 1.642660 
# 
# From -- ./inp_files/41220.got.cif
#   From: 2010.06.25/outbox.cif.g09.slc.cpg/sg71_21_cif.got.tgz:41220.got - 2010.06.28 04:59:45.
