data_PCOD8287550
_publ_section_title
;
Structure prediction by ZEFSAII (Michael W. Deem and Ramdas Pophale) SiO2 
 PCOD8287550
Probable space group: I M M M
;
_chemical_formula_sum "Si O2"
_cell_formula_units_Z 88
_cell_length_a 21.286228
_cell_length_b 20.175929
_cell_length_c 12.995735
_cell_angle_alpha 90.000000
_cell_angle_beta 90.000000
_cell_angle_gamma 90.000000
_cell_volume 5581.270835
_symmetry_space_group_name_H-M "I M M M"
_symmetry_group_IT_number 71
_symmetry_cell_setting 'orthorhombic'
loop_
_space_group_symop_operation_xyz
x,y,z
-x,-y,z
x,-y,-z
-x,y,-z
-x,-y,-z
x,y,-z
-x,y,z
x,-y,z
1/2+x,1/2+y,1/2+z
1/2-x,1/2-y,1/2+z
1/2+x,1/2-y,1/2-z
1/2-x,1/2+y,1/2-z
1/2-x,1/2-y,1/2-z
1/2+x,1/2+y,1/2-z
1/2-x,1/2+y,1/2+z
1/2+x,1/2-y,1/2+z
loop_
_atom_site_type_symbol
_atom_site_label
_atom_site_fract_x
_atom_site_fract_y
_atom_site_fract_z
Si Si1 0.715535 0.076466 0.381586
Si Si2 0.242817 0.805595 0.114318
Si Si3 0.570332 0.000000 0.878778
Si Si4 0.140405 0.628009 0.698922
Si Si5 0.928496 0.750624 0.381063
Si Si6 0.686573 0.675483 0.177909
O O1 0.696038 0.083490 0.500000
O O2 0.663661 0.116908 0.316031
O O3 0.785446 0.105882 0.361777
O O4 0.717031 0.000000 0.346851
O O5 0.298948 0.858476 0.128260
O O6 0.269746 0.732063 0.128515
O O7 0.188490 0.819797 0.197663
O O8 0.214346 0.813224 0.000000
O O9 0.605435 0.064185 0.840416
O O10 0.500000 0.000000 0.833145
O O11 0.568175 0.000000 0.000000
O O12 0.093542 0.690647 0.692604
O O13 0.921715 0.728409 0.500000
O O14 0.885245 0.815160 0.359059
O O15 0.000000 0.769575 0.354756
#
# Coordination Sequence:
#
# PCOD8287550 Si02
#       6
#    16  16   8  16  16  16
#     4  10  19  31  48  68  92 122 154 191 232 273
#     4   9  16  27  45  67  89 113 144 189 237 272
#     4  11  20  28  41  61  89 125 155 180 214 260
#     4  10  18  30  44  65  91 120 151 188 224 270
#     4  10  19  31  48  69  93 120 151 189 232 276
#     4   9  17  28  46  67  89 116 150 186 230 277
#
# _framework density 15.767018999999999
#
# number of rings (size 3 to 8) (size 9 to 14) (size 15 to 20)
#    0.000    2.273    0.909    6.000    0.000    1.455 
#    0.000    0.000    0.000    4.909    0.000    2.545 
#    0.000    0.000    0.000    4.727    0.000    0.727 
#
# Total GULP energy -545490.266087 kJ/mol
# GULP energy per Si atom -12397.506047 kJ/mol
# Density = 1.573113 g / cm^3
# Si number density = 15.767019 Si / 1000 Ang^3
#
#
#
# Elastic Constant Matrix: (Units=GPa)
#
#
# Indices 1 2 3 4 5 6 
#
# 1 95.8889 36.1723 36.0666 0.0000 0.0000 0.0000
# 2 36.1723 54.1082 30.6091 0.0000 0.0000 0.0000
# 3 36.0666 30.6091 104.2756 0.0000 0.0000 0.0000
# 4 0.0000 0.0000 0.0000 19.3541 0.0000 0.0000
# 5 0.0000 0.0000 0.0000 0.0000 20.1363 0.0000
# 6 0.0000 0.0000 0.0000 0.0000 0.0000 21.3981
#
#
#
# Elastic Compliance Matrix: (Units=1/GPa)
#
#
# Indices 1 2 3 4 5 6 
#
# 1 0.014512 -0.008229 -0.002604 0.000000 0.000000 0.000000
# 2 -0.008229 0.026827 -0.005029 0.000000 0.000000 0.000000
# 3 -0.002604 -0.005029 0.011967 0.000000 0.000000 0.000000
# 4 0.000000 0.000000 0.000000 0.051669 0.000000 0.000000
# 5 0.000000 0.000000 0.000000 0.000000 0.049661 0.000000
# 6 0.000000 0.000000 0.000000 0.000000 0.000000 0.046733
#
#
# Mechanical properties :
#
#
# Convention : Reuss Voigt Hill
#
# Bulk Modulus (GPa) = 46.33177 51.10762 48.71969
# Shear Modulus (GPa) = 20.80847 22.27270 21.54058
#
# Velocity S-wave (km/s) = 3.63677 3.76255 3.70020
# Velocity P-wave (km/s) = 6.86177 7.16661 7.01585
#
# Compressibility (1/GPa) = 0.02158346
#
# Stress axis : x y z
#
# Youngs Moduli (GPa) = 68.90716 37.27555 83.56449
#
# Poissons Ratio (x) = 0.30673 0.21761
# Poissons Ratio (y) = 0.56701 0.42023
# Poissons Ratio (z) = 0.17944 0.18745
#
# Static dielectric constant tensor:
#      x y z
#    x 2.965970 0.000000 0.000000 
#    y 0.000000 3.144560 0.000000 
#    z 0.000000 0.000000 3.094280 
# 
# 
# High freq. dielectric constant tensor:
#      x y z
#    x 1.579120 0.000000 0.000000 
#    y 0.000000 1.595530 0.000000 
#    z 0.000000 0.000000 1.608480 
# 
# From -- ./inp_files/25648.got.cif
#   From: 2010.06.25/outbox.cif.g09.slc.cpg/sg71_13_cif.got.tgz:25648.got - 2010.06.28 04:59:45.
