data_PCOD8287610
_publ_section_title
;
Structure prediction by ZEFSAII (Michael W. Deem and Ramdas Pophale) SiO2 
 PCOD8287610
Probable space group: I M M M
;
_chemical_formula_sum "Si O2"
_cell_formula_units_Z 64
_cell_length_a 8.682232
_cell_length_b 14.491970
_cell_length_c 27.648650
_cell_angle_alpha 90.000000
_cell_angle_beta 90.000000
_cell_angle_gamma 90.000000
_cell_volume 3478.826292
_symmetry_space_group_name_H-M "I M M M"
_symmetry_group_IT_number 71
_symmetry_cell_setting 'orthorhombic'
loop_
_space_group_symop_operation_xyz
x,y,z
-x,-y,z
x,-y,-z
-x,y,-z
-x,-y,-z
x,y,-z
-x,y,z
x,-y,z
1/2+x,1/2+y,1/2+z
1/2-x,1/2-y,1/2+z
1/2+x,1/2-y,1/2-z
1/2-x,1/2+y,1/2-z
1/2-x,1/2-y,1/2-z
1/2+x,1/2+y,1/2-z
1/2-x,1/2+y,1/2+z
1/2+x,1/2-y,1/2+z
loop_
_atom_site_type_symbol
_atom_site_label
_atom_site_fract_x
_atom_site_fract_y
_atom_site_fract_z
Si Si1 0.678462 0.105359 0.444212
Si Si2 0.817417 0.345918 0.767414
Si Si3 0.177213 0.100620 0.825164
Si Si4 0.680256 0.713874 0.860624
O O1 0.710877 0.127906 0.500000
O O2 0.500000 0.120741 0.431704
O O3 0.780470 0.176485 0.413641
O O4 0.726139 0.000000 0.432742
O O5 0.750000 0.250000 0.750000
O O6 0.748003 0.416653 0.728570
O O7 0.759276 0.357420 0.822516
O O8 0.000000 0.351281 0.766304
O O9 0.262721 0.180289 0.855365
O O10 0.000000 0.130982 0.820392
O O11 0.192420 0.000000 0.851184
O O12 0.500000 0.713460 0.851491
#
# Coordination Sequence:
#
# PCOD8287610 Si02
#       4
#    16  16  16  16
#     4   9  19  37  59  80 102 130 166 209 257 308
#     4  10  18  30  48  69  98 133 170 210 249 293
#     4  10  20  34  52  74 103 139 178 217 255 299
#     4  11  21  33  52  77 107 139 171 210 255 306
#
# _framework density 18.397008
#
# number of rings (size 3 to 8) (size 9 to 14) (size 15 to 20)
#    0.000    2.000    0.000    9.000    0.000    4.000 
#    0.000    1.250    0.000    0.750    0.000    5.250 
#    0.000    0.000    0.000    0.000    0.000    0.000 
#
# Total GULP energy -396573.052490 kJ/mol
# GULP energy per Si atom -12392.907890 kJ/mol
# Density = 1.835514 g / cm^3
# Si number density = 18.397008 Si / 1000 Ang^3
#
#
#
# Elastic Constant Matrix: (Units=GPa)
#
#
# Indices 1 2 3 4 5 6 
#
# 1 143.0098 37.9898 41.1239 0.0000 0.0000 0.0000
# 2 37.9898 90.1395 44.4729 0.0000 0.0000 0.0000
# 3 41.1239 44.4729 87.5745 0.0000 0.0000 0.0000
# 4 0.0000 0.0000 0.0000 25.0285 0.0000 0.0000
# 5 0.0000 0.0000 0.0000 0.0000 31.4943 0.0000
# 6 0.0000 0.0000 0.0000 0.0000 0.0000 17.8802
#
#
#
# Elastic Compliance Matrix: (Units=1/GPa)
#
#
# Indices 1 2 3 4 5 6 
#
# 1 0.008378 -0.002121 -0.002857 0.000000 0.000000 0.000000
# 2 -0.002121 0.015340 -0.006794 0.000000 0.000000 0.000000
# 3 -0.002857 -0.006794 0.016210 0.000000 0.000000 0.000000
# 4 0.000000 0.000000 0.000000 0.039954 0.000000 0.000000
# 5 0.000000 0.000000 0.000000 0.000000 0.031752 0.000000
# 6 0.000000 0.000000 0.000000 0.000000 0.000000 0.055928
#
#
# Mechanical properties :
#
#
# Convention : Reuss Voigt Hill
#
# Bulk Modulus (GPa) = 61.03503 63.09966 62.06735
# Shear Modulus (GPa) = 25.43658 28.02308 26.72983
#
# Velocity S-wave (km/s) = 3.72243 3.90711 3.81589
# Velocity P-wave (km/s) = 7.19194 7.39779 7.29559
#
# Compressibility (1/GPa) = 0.01638403
#
# Stress axis : x y z
#
# Youngs Moduli (GPa) = 119.36710 65.18932 61.68847
#
# Poissons Ratio (x) = 0.13829 0.17623
# Poissons Ratio (y) = 0.25322 0.41911
# Poissons Ratio (z) = 0.34100 0.44289
#
# Static dielectric constant tensor:
#      x y z
#    x 3.425870 0.000000 0.000000 
#    y 0.000000 3.509580 0.000000 
#    z 0.000000 0.000000 3.601050 
# 
# 
# High freq. dielectric constant tensor:
#      x y z
#    x 1.725740 0.000000 0.000000 
#    y 0.000000 1.707100 0.000000 
#    z 0.000000 0.000000 1.691310 
# 
# From -- ./inp_files/12115.got.cif
#   From: 2010.06.25/outbox.cif.g09.slc.cpg/sg71_7_cif.got.tgz:12115.got - 2010.06.28 04:59:45.
