data_PCOD8287687
_publ_section_title
;
Structure prediction by ZEFSAII (Michael W. Deem and Ramdas Pophale) SiO2 
 PCOD8287687
Probable space group: I M M M
;
_chemical_formula_sum "Si O2"
_cell_formula_units_Z 104
_cell_length_a 12.719765
_cell_length_b 23.363987
_cell_length_c 21.448490
_cell_angle_alpha 90.000000
_cell_angle_beta 90.000000
_cell_angle_gamma 90.000000
_cell_volume 6374.157149
_symmetry_space_group_name_H-M "I M M M"
_symmetry_group_IT_number 71
_symmetry_cell_setting 'orthorhombic'
loop_
_space_group_symop_operation_xyz
x,y,z
-x,-y,z
x,-y,-z
-x,y,-z
-x,-y,-z
x,y,-z
-x,y,z
x,-y,z
1/2+x,1/2+y,1/2+z
1/2-x,1/2-y,1/2+z
1/2+x,1/2-y,1/2-z
1/2-x,1/2+y,1/2-z
1/2-x,1/2-y,1/2-z
1/2+x,1/2+y,1/2-z
1/2-x,1/2+y,1/2+z
1/2+x,1/2-y,1/2+z
loop_
_atom_site_type_symbol
_atom_site_label
_atom_site_fract_x
_atom_site_fract_y
_atom_site_fract_z
Si Si1 0.764282 0.256425 0.071112
Si Si2 0.376130 0.645469 0.388607
Si Si3 0.624737 0.435339 0.500000
Si Si4 0.379057 0.872644 0.430986
Si Si5 0.121027 0.565717 0.192012
Si Si6 0.623791 0.743025 0.184899
Si Si7 0.255130 0.656573 0.737227
O O1 0.850683 0.207850 0.084072
O O2 0.816010 0.316502 0.088638
O O3 0.662108 0.249260 0.113973
O O4 0.726314 0.253950 0.000000
O O5 0.500000 0.641104 0.376226
O O6 0.336706 0.597680 0.437960
O O7 0.314556 0.635453 0.324524
O O8 0.670650 0.500000 0.500000
O O9 0.500000 0.436435 0.500000
O O10 0.345755 0.894633 0.500000
O O11 0.500000 0.854564 0.430826
O O12 0.355959 0.921998 0.380938
O O13 0.146190 0.500000 0.204916
O O14 0.198393 0.601456 0.235172
O O15 0.000000 0.580484 0.208115
O O16 0.500000 0.745077 0.185865
O O17 0.661154 0.682823 0.214217
O O18 0.667028 0.795469 0.225596
#
# Coordination Sequence:
#
# PCOD8287687 Si02
#       7
#    16  16   8  16  16  16  16
#     4  10  18  30  50  76 102 129 166 204 253 305
#     4  10  19  31  51  76 102 132 167 209 257 308
#     4   9  18  32  48  70 101 133 164 204 254 305
#     4   9  17  29  48  75 103 130 162 206 255 300
#     4  10  20  34  52  74 103 137 171 208 250 301
#     4  10  20  33  50  73 104 134 164 208 257 301
#     4  10  20  34  50  75 101 135 170 208 251 310
#
# _framework density 16.315881999999998
#
# number of rings (size 3 to 8) (size 9 to 14) (size 15 to 20)
#    0.000    2.231    2.308    1.385    0.000    1.846 
#    0.000    1.538    0.000    1.385    0.000    0.000 
#    0.000    7.385    0.000    0.000    0.000    0.000 
#
# Total GULP energy -644794.562506 kJ/mol
# GULP energy per Si atom -12399.895433 kJ/mol
# Density = 1.627875 g / cm^3
# Si number density = 16.315882 Si / 1000 Ang^3
#
#
#
# Elastic Constant Matrix: (Units=GPa)
#
#
# Indices 1 2 3 4 5 6 
#
# 1 88.5976 43.1061 43.7099 0.0000 0.0000 0.0000
# 2 43.1061 92.0273 49.0429 0.0000 0.0000 0.0000
# 3 43.7099 49.0429 100.1719 0.0000 0.0000 0.0000
# 4 0.0000 0.0000 0.0000 25.6678 0.0000 0.0000
# 5 0.0000 0.0000 0.0000 0.0000 21.4061 0.0000
# 6 0.0000 0.0000 0.0000 0.0000 0.0000 21.5321
#
#
#
# Elastic Compliance Matrix: (Units=1/GPa)
#
#
# Indices 1 2 3 4 5 6 
#
# 1 0.015975 -0.005098 -0.004475 0.000000 0.000000 0.000000
# 2 -0.005098 0.016329 -0.005770 0.000000 0.000000 0.000000
# 3 -0.004475 -0.005770 0.014760 0.000000 0.000000 0.000000
# 4 0.000000 0.000000 0.000000 0.038959 0.000000 0.000000
# 5 0.000000 0.000000 0.000000 0.000000 0.046716 0.000000
# 6 0.000000 0.000000 0.000000 0.000000 0.000000 0.046442
#
#
# Mechanical properties :
#
#
# Convention : Reuss Voigt Hill
#
# Bulk Modulus (GPa) = 61.05433 61.39051 61.22242
# Shear Modulus (GPa) = 23.22047 23.38374 23.30210
#
# Velocity S-wave (km/s) = 3.77660 3.78985 3.78323
# Velocity P-wave (km/s) = 7.51787 7.54046 7.52918
#
# Compressibility (1/GPa) = 0.01637885
#
# Stress axis : x y z
#
# Youngs Moduli (GPa) = 62.59770 61.23960 67.74926
#
# Poissons Ratio (x) = 0.31221 0.30316
# Poissons Ratio (y) = 0.31913 0.39092
# Poissons Ratio (z) = 0.28011 0.35336
#
# Static dielectric constant tensor:
#      x y z
#    x 2.823320 0.000000 0.000000 
#    y 0.000000 3.051360 0.000000 
#    z 0.000000 0.000000 3.270070 
# 
# 
# High freq. dielectric constant tensor:
#      x y z
#    x 1.604900 0.000000 0.000000 
#    y 0.000000 1.620190 0.000000 
#    z 0.000000 0.000000 1.642010 
# 
# From -- ./inp_files/26260.got.cif
#   From: 2010.06.25/outbox.cif.g09.slc.cpg/sg71_14_cif.got.tgz:26260.got - 2010.06.28 04:59:45.
