data_PCOD8287926
_publ_section_title
;
Structure prediction by ZEFSAII (Michael W. Deem and Ramdas Pophale) SiO2 
 PCOD8287926
Probable space group: I M M M
;
_chemical_formula_sum "Si O2"
_cell_formula_units_Z 128
_cell_length_a 17.891818
_cell_length_b 19.040646
_cell_length_c 22.164883
_cell_angle_alpha 90.000000
_cell_angle_beta 90.000000
_cell_angle_gamma 90.000000
_cell_volume 7550.949986
_symmetry_space_group_name_H-M "I M M M"
_symmetry_group_IT_number 71
_symmetry_cell_setting 'orthorhombic'
loop_
_space_group_symop_operation_xyz
x,y,z
-x,-y,z
x,-y,-z
-x,y,-z
-x,-y,-z
x,y,-z
-x,y,z
x,-y,z
1/2+x,1/2+y,1/2+z
1/2-x,1/2-y,1/2+z
1/2+x,1/2-y,1/2-z
1/2-x,1/2+y,1/2-z
1/2-x,1/2-y,1/2-z
1/2+x,1/2+y,1/2-z
1/2-x,1/2+y,1/2+z
1/2+x,1/2-y,1/2+z
loop_
_atom_site_type_symbol
_atom_site_label
_atom_site_fract_x
_atom_site_fract_y
_atom_site_fract_z
Si Si1 0.803377 0.919044 0.569364
Si Si2 0.141129 0.578825 0.886215
Si Si3 0.151643 0.281489 0.298718
Si Si4 0.584639 0.782336 0.568789
Si Si5 0.328916 0.420960 0.735904
Si Si6 0.317127 0.285371 0.671135
Si Si7 0.914176 0.853301 0.655211
Si Si8 0.844836 0.577118 0.749771
O O1 0.790297 0.899668 0.500000
O O2 0.728005 0.901613 0.605469
O O3 0.870188 0.871065 0.594207
O O4 0.826138 0.000000 0.577953
O O5 0.125695 0.500000 0.910874
O O6 0.090950 0.633642 0.922876
O O7 0.119384 0.584026 0.815898
O O8 0.228130 0.277685 0.337060
O O9 0.161080 0.260231 0.229037
O O10 0.092862 0.229961 0.330446
O O11 0.123195 0.362704 0.295285
O O12 0.604273 0.762754 0.500000
O O13 0.500000 0.759605 0.584269
O O14 0.641922 0.741830 0.611769
O O15 0.347376 0.500000 0.714110
O O16 0.341359 0.366741 0.680824
O O17 0.382103 0.400991 0.791173
O O18 0.244041 0.413523 0.758304
O O19 0.000000 0.872145 0.645438
O O20 0.863417 0.500000 0.722411
#
# Coordination Sequence:
#
# PCOD8287926 Si02
#       8
#    16  16  16  16  16  16  16  16
#     4  10  20  33  49  68  93 128 167 201 234 277
#     4  10  18  32  52  70  91 123 163 203 235 273
#     4   9  17  31  50  72  95 119 155 199 241 286
#     4  11  23  35  47  66  97 134 168 202 237 280
#     4   9  17  30  49  73  94 114 150 199 247 291
#     4   9  17  31  52  70  90 121 156 197 243 288
#     4  11  21  30  44  67  98 131 159 193 234 280
#     4   9  15  28  52  74  94 119 149 193 243 288
#
# _framework density 16.951509000000001
#
# number of rings (size 3 to 8) (size 9 to 14) (size 15 to 20)
#    0.000    2.250    2.500    2.250    0.000    4.250 
#    0.000    1.250    0.000    0.750    0.000    0.875 
#    0.000    1.500    0.000    1.125    0.000    0.000 
#
# Total GULP energy -793399.868652 kJ/mol
# GULP energy per Si atom -12396.872948 kJ/mol
# Density = 1.691293 g / cm^3
# Si number density = 16.951509 Si / 1000 Ang^3
#
#
#
# Elastic Constant Matrix: (Units=GPa)
#
#
# Indices 1 2 3 4 5 6 
#
# 1 36.5056 14.3577 20.7967 0.0000 0.0000 0.0000
# 2 14.3577 110.4537 32.3594 0.0000 0.0000 0.0000
# 3 20.7967 32.3594 66.0832 0.0000 0.0000 0.0000
# 4 0.0000 0.0000 0.0000 21.9218 0.0000 0.0000
# 5 0.0000 0.0000 0.0000 0.0000 18.5928 0.0000
# 6 0.0000 0.0000 0.0000 0.0000 0.0000 13.0573
#
#
#
# Elastic Compliance Matrix: (Units=1/GPa)
#
#
# Indices 1 2 3 4 5 6 
#
# 1 0.033583 -0.001482 -0.009843 0.000000 0.000000 0.000000
# 2 -0.001482 0.010635 -0.004742 0.000000 0.000000 0.000000
# 3 -0.009843 -0.004742 0.020552 0.000000 0.000000 0.000000
# 4 0.000000 0.000000 0.000000 0.045617 0.000000 0.000000
# 5 0.000000 0.000000 0.000000 0.000000 0.053784 0.000000
# 6 0.000000 0.000000 0.000000 0.000000 0.000000 0.076586
#
#
# Mechanical properties :
#
#
# Convention : Reuss Voigt Hill
#
# Bulk Modulus (GPa) = 30.63950 38.67444 34.65697
# Shear Modulus (GPa) = 17.61993 20.41630 19.01811
#
# Velocity S-wave (km/s) = 3.22752 3.47420 3.35313
# Velocity P-wave (km/s) = 5.65714 6.24161 5.95655
#
# Compressibility (1/GPa) = 0.03263761
#
# Stress axis : x y z
#
# Youngs Moduli (GPa) = 29.77660 94.02656 48.65707
#
# Poissons Ratio (x) = 0.13932 0.47895
# Poissons Ratio (y) = 0.04412 0.23071
# Poissons Ratio (z) = 0.29310 0.44583
#
# Static dielectric constant tensor:
#      x y z
#    x 2.935960 0.000000 0.000000 
#    y 0.000000 3.489880 0.000000 
#    z 0.000000 0.000000 2.866770 
# 
# 
# High freq. dielectric constant tensor:
#      x y z
#    x 1.633160 0.000000 0.000000 
#    y 0.000000 1.659870 0.000000 
#    z 0.000000 0.000000 1.616920 
# 
# From -- ./inp_files/54464.got.cif
#   From: 2010.06.25/outbox.cif.g09.slc.cpg/sg71_28_cif.got.tgz:54464.got - 2010.06.28 04:59:45.
