data_PCOD8287141
_publ_section_title
;
Structure prediction by ZEFSAII (Michael W. Deem and Ramdas Pophale) SiO2 
 PCOD8287141
Probable space group: I M M M
;
_chemical_formula_sum "Si O2"
_cell_formula_units_Z 104
_cell_length_a 8.638395
_cell_length_b 23.764790
_cell_length_c 25.301949
_cell_angle_alpha 90.000000
_cell_angle_beta 90.000000
_cell_angle_gamma 90.000000
_cell_volume 5194.228080
_symmetry_space_group_name_H-M "I M M M"
_symmetry_group_IT_number 71
_symmetry_cell_setting 'orthorhombic'
loop_
_space_group_symop_operation_xyz
x,y,z
-x,-y,z
x,-y,-z
-x,y,-z
-x,-y,-z
x,y,-z
-x,y,z
x,-y,z
1/2+x,1/2+y,1/2+z
1/2-x,1/2-y,1/2+z
1/2+x,1/2-y,1/2-z
1/2-x,1/2+y,1/2-z
1/2-x,1/2-y,1/2-z
1/2+x,1/2+y,1/2-z
1/2-x,1/2+y,1/2+z
1/2+x,1/2-y,1/2+z
loop_
_atom_site_type_symbol
_atom_site_label
_atom_site_fract_x
_atom_site_fract_y
_atom_site_fract_z
Si Si1 0.817490 0.116025 0.753366
Si Si2 0.681937 0.000000 0.722777
Si Si3 0.816111 0.883185 0.558338
Si Si4 0.682647 0.500000 0.107015
Si Si5 0.325983 0.000000 0.937310
Si Si6 0.184049 0.188676 0.345079
Si Si7 0.317671 0.816261 0.151443
Si Si8 0.319075 0.616070 0.561509
O O1 0.744201 0.054564 0.752884
O O2 0.752029 0.153507 0.704793
O O3 0.773886 0.145161 0.807909
O O4 0.000000 0.109787 0.748616
O O5 0.733593 0.000000 0.662602
O O6 0.500000 0.000000 0.726396
O O7 0.749523 0.868964 0.500000
O O8 0.749628 0.838877 0.600953
O O9 0.000000 0.880169 0.557384
O O10 0.763967 0.945831 0.574110
O O11 0.500000 0.500000 0.118202
O O12 0.235527 0.944915 0.917443
O O13 0.500000 0.000000 0.913944
O O14 0.330527 0.000000 0.000000
O O15 0.242354 0.252563 0.341146
O O16 0.000000 0.186639 0.345903
O O17 0.500000 0.821091 0.161128
O O18 0.275137 0.836020 0.092436
O O19 0.279323 0.623926 0.500000
O O20 0.500000 0.622183 0.572716
#
# Coordination Sequence:
#
# PCOD8287141 Si02
#       8
#    16   8  16   8   8  16  16  16
#     4  11  22  41  64  86 114 152 196 242 294 356
#     4  12  24  38  60  91 121 154 192 244 303 356
#     4   9  16  28  53  90 122 152 198 249 290 338
#     4  10  17  32  57  85 119 158 199 243 296 354
#     4   9  17  32  57  86 112 141 179 228 285 337
#     4   9  19  35  57  85 117 154 196 243 293 344
#     4  11  23  38  58  88 119 151 194 245 297 348
#     4  10  21  38  59  84 116 155 195 233 282 348
#
# _framework density 20.022224000000001
#
# number of rings (size 3 to 8) (size 9 to 14) (size 15 to 20)
#    0.000    1.923    1.538    3.000    0.000    4.000 
#    0.000    6.923    0.000    0.923    0.000    0.000 
#    0.000    0.000    0.000    0.000    0.000    0.000 
#
# Total GULP energy -644920.875702 kJ/mol
# GULP energy per Si atom -12402.324533 kJ/mol
# Density = 1.997665 g / cm^3
# Si number density = 20.022224 Si / 1000 Ang^3
#
#
#
# Elastic Constant Matrix: (Units=GPa)
#
#
# Indices 1 2 3 4 5 6 
#
# 1 50.0119 27.5729 17.3664 0.0000 0.0000 0.0000
# 2 27.5729 155.6367 59.4497 0.0000 0.0000 0.0000
# 3 17.3664 59.4497 110.8514 0.0000 0.0000 0.0000
# 4 0.0000 0.0000 0.0000 33.1239 0.0000 0.0000
# 5 0.0000 0.0000 0.0000 0.0000 23.3476 0.0000
# 6 0.0000 0.0000 0.0000 0.0000 0.0000 18.0837
#
#
#
# Elastic Compliance Matrix: (Units=1/GPa)
#
#
# Indices 1 2 3 4 5 6 
#
# 1 0.022423 -0.003308 -0.001739 0.000000 0.000000 0.000000
# 2 -0.003308 0.008569 -0.004077 0.000000 0.000000 0.000000
# 3 -0.001739 -0.004077 0.011480 0.000000 0.000000 0.000000
# 4 0.000000 0.000000 0.000000 0.030190 0.000000 0.000000
# 5 0.000000 0.000000 0.000000 0.000000 0.042831 0.000000
# 6 0.000000 0.000000 0.000000 0.000000 0.000000 0.055298
#
#
# Mechanical properties :
#
#
# Convention : Reuss Voigt Hill
#
# Bulk Modulus (GPa) = 41.28219 58.36423 49.82321
# Shear Modulus (GPa) = 25.36613 29.05178 27.20895
#
# Velocity S-wave (km/s) = 3.56321 3.81330 3.69038
# Velocity P-wave (km/s) = 6.13120 6.97147 6.56479
#
# Compressibility (1/GPa) = 0.02422352
#
# Stress axis : x y z
#
# Youngs Moduli (GPa) = 44.59719 116.70379 87.10792
#
# Poissons Ratio (x) = 0.38610 0.15144
# Poissons Ratio (y) = 0.14754 0.35515
# Poissons Ratio (z) = 0.07754 0.47581
#
# Static dielectric constant tensor:
#      x y z
#    x 3.343350 0.000000 0.000000 
#    y 0.000000 4.032280 0.000000 
#    z 0.000000 0.000000 3.730250 
# 
# 
# High freq. dielectric constant tensor:
#      x y z
#    x 1.753280 0.000000 0.000000 
#    y 0.000000 1.791550 0.000000 
#    z 0.000000 0.000000 1.785660 
# 
# From -- ./inp_files/63392.got.cif
#   From: 2010.06.25/outbox.cif.g09.slc.cpg/sg71_32_cif.got.tgz:63392.got - 2010.06.28 04:59:45.
