data_PCOD8287139
_publ_section_title
;
Structure prediction by ZEFSAII (Michael W. Deem and Ramdas Pophale) SiO2 
 PCOD8287139
Probable space group: I M M M
;
_chemical_formula_sum "Si O2"
_cell_formula_units_Z 36
_cell_length_a 18.486897
_cell_length_b 14.079739
_cell_length_c 9.084377
_cell_angle_alpha 90.000000
_cell_angle_beta 90.000000
_cell_angle_gamma 90.000000
_cell_volume 2364.578709
_symmetry_space_group_name_H-M "I M M M"
_symmetry_group_IT_number 71
_symmetry_cell_setting 'orthorhombic'
loop_
_space_group_symop_operation_xyz
x,y,z
-x,-y,z
x,-y,-z
-x,y,-z
-x,-y,-z
x,y,-z
-x,y,z
x,-y,z
1/2+x,1/2+y,1/2+z
1/2-x,1/2-y,1/2+z
1/2+x,1/2-y,1/2-z
1/2-x,1/2+y,1/2-z
1/2-x,1/2-y,1/2-z
1/2+x,1/2+y,1/2-z
1/2-x,1/2+y,1/2+z
1/2+x,1/2-y,1/2+z
loop_
_atom_site_type_symbol
_atom_site_label
_atom_site_fract_x
_atom_site_fract_y
_atom_site_fract_z
Si Si1 0.084933 0.299629 0.500000
Si Si2 0.297551 0.500000 0.337084
Si Si3 0.842938 0.500000 0.500000
Si Si4 0.693075 0.687555 0.836557
O O1 0.105068 0.409973 0.500000
O O2 0.119056 0.248657 0.355079
O O3 0.000000 0.285813 0.500000
O O4 0.333597 0.500000 0.500000
O O5 0.209689 0.500000 0.355677
O O6 0.324683 0.591770 0.249950
O O7 0.750000 0.750000 0.750000
O O8 0.724487 0.663911 0.000000
#
# Coordination Sequence:
#
# PCOD8287139 Si02
#       4
#     8   8   4  16
#     4  10  21  33  54  83 113 142 176 222 280 329
#     4  10  17  32  54  86 101 138 191 229 265 304
#     4  10  17  32  58  78 107 128 182 224 271 312
#     4  10  18  32  53  80 106 142 183 225 261 323
#
# _framework density 15.224698999999999
#
# number of rings (size 3 to 8) (size 9 to 14) (size 15 to 20)
#    2.000    0.000    4.444    2.333    0.000    0.000 
#    0.000    2.222    0.000    6.667    0.000    3.111 
#    0.000    0.000    0.000    0.000    0.000    0.000 
#
# Total GULP energy -222999.200772 kJ/mol
# GULP energy per Si atom -12388.844487 kJ/mol
# Density = 1.519005 g / cm^3
# Si number density = 15.224699 Si / 1000 Ang^3
#
#
#
# Elastic Constant Matrix: (Units=GPa)
#
#
# Indices 1 2 3 4 5 6 
#
# 1 111.9551 53.8141 32.9881 0.0000 0.0000 0.0000
# 2 53.8141 159.0662 60.7767 0.0000 0.0000 0.0000
# 3 32.9881 60.7767 109.8381 0.0000 0.0000 0.0000
# 4 0.0000 0.0000 0.0000 38.9592 0.0000 0.0000
# 5 0.0000 0.0000 0.0000 0.0000 19.4208 0.0000
# 6 0.0000 0.0000 0.0000 0.0000 0.0000 19.6664
#
#
#
# Elastic Compliance Matrix: (Units=1/GPa)
#
#
# Indices 1 2 3 4 5 6 
#
# 1 0.010874 -0.003083 -0.001560 0.000000 0.000000 0.000000
# 2 -0.003083 0.008846 -0.003969 0.000000 0.000000 0.000000
# 3 -0.001560 -0.003969 0.011769 0.000000 0.000000 0.000000
# 4 0.000000 0.000000 0.000000 0.025668 0.000000 0.000000
# 5 0.000000 0.000000 0.000000 0.000000 0.051491 0.000000
# 6 0.000000 0.000000 0.000000 0.000000 0.000000 0.050848
#
#
# Mechanical properties :
#
#
# Convention : Reuss Voigt Hill
#
# Bulk Modulus (GPa) = 70.09955 75.11303 72.60629
# Shear Modulus (GPa) = 27.55215 31.16132 29.35673
#
# Velocity S-wave (km/s) = 4.25867 4.52902 4.39593
# Velocity P-wave (km/s) = 8.38600 8.76315 8.57665
#
# Compressibility (1/GPa) = 0.01426543
#
# Stress axis : x y z
#
# Youngs Moduli (GPa) = 91.96627 113.04471 84.96909
#
# Poissons Ratio (x) = 0.34847 0.13255
# Poissons Ratio (y) = 0.28350 0.33724
# Poissons Ratio (z) = 0.14347 0.44867
#
# Static dielectric constant tensor:
#      x y z
#    x 2.536980 0.000000 0.000000 
#    y 0.000000 76.909160 0.000000 
#    z 0.000000 0.000000 2.960780 
# 
# 
# High freq. dielectric constant tensor:
#      x y z
#    x 1.544860 0.000000 0.000000 
#    y 0.000000 1.604490 0.000000 
#    z 0.000000 0.000000 1.576020 
# 
# From -- ./inp_files/6761.got.cif
#   From: 2010.06.25/outbox.cif.g09.slc.cpg/sg71_4_cif.got.tgz:6761.got - 2010.06.28 04:59:45.
