data_PCOD8287951
_publ_section_title
;
Structure prediction by ZEFSAII (Michael W. Deem and Ramdas Pophale) SiO2 
 PCOD8287951
Probable space group: I M M M
;
_chemical_formula_sum "Si O2"
_cell_formula_units_Z 96
_cell_length_a 9.519311
_cell_length_b 26.460606
_cell_length_c 22.106663
_cell_angle_alpha 90.000000
_cell_angle_beta 90.000000
_cell_angle_gamma 90.000000
_cell_volume 5568.375226
_symmetry_space_group_name_H-M "I M M M"
_symmetry_group_IT_number 71
_symmetry_cell_setting 'orthorhombic'
loop_
_space_group_symop_operation_xyz
x,y,z
-x,-y,z
x,-y,-z
-x,y,-z
-x,-y,-z
x,y,-z
-x,y,z
x,-y,z
1/2+x,1/2+y,1/2+z
1/2-x,1/2-y,1/2+z
1/2+x,1/2-y,1/2-z
1/2-x,1/2+y,1/2-z
1/2-x,1/2-y,1/2-z
1/2+x,1/2+y,1/2-z
1/2-x,1/2+y,1/2+z
1/2+x,1/2-y,1/2+z
loop_
_atom_site_type_symbol
_atom_site_label
_atom_site_fract_x
_atom_site_fract_y
_atom_site_fract_z
Si Si1 0.159018 0.713956 0.325685
Si Si2 0.841136 0.056910 0.777902
Si Si3 0.833591 0.557195 0.500000
Si Si4 0.837706 0.610153 0.378334
Si Si5 0.164617 0.419025 0.163218
Si Si6 0.335150 0.000000 0.433322
Si Si7 0.161596 0.306433 0.189104
O O1 0.176897 0.670988 0.376984
O O2 0.202232 0.690696 0.260230
O O3 0.252766 0.761935 0.343647
O O4 0.000000 0.733386 0.322988
O O5 0.759308 0.089923 0.825833
O O6 0.759258 0.057445 0.715147
O O7 0.000000 0.077753 0.769518
O O8 0.845249 0.000000 0.802414
O O9 0.772080 0.500000 0.500000
O O10 0.781146 0.587979 0.441511
O O11 0.000000 0.554929 0.500000
O O12 0.000000 0.594361 0.366524
O O13 0.207960 0.448835 0.102315
O O14 0.198105 0.359462 0.156835
O O15 0.000000 0.427239 0.179186
O O16 0.500000 0.000000 0.441756
O O17 0.263235 0.000000 0.500000
O O18 0.000000 0.292887 0.180519
#
# Coordination Sequence:
#
# PCOD8287951 Si02
#       7
#    16  16   8  16  16   8  16
#     4   9  17  29  47  72 100 131 166 208 258 303
#     4  11  22  32  46  75 108 133 165 209 259 310
#     4   9  18  32  53  79 101 131 175 222 261 300
#     4  10  19  34  54  75 100 133 178 218 257 306
#     4  10  18  32  54  76 101 134 171 209 253 304
#     4   9  18  32  55  83 105 130 169 214 259 301
#     4   9  17  29  46  73 103 130 165 205 255 308
#
# _framework density 17.240217999999999
#
# number of rings (size 3 to 8) (size 9 to 14) (size 15 to 20)
#    0.000    2.333    2.500    1.000    0.000    3.000 
#    0.000    0.417    1.833    2.500    0.000    0.000 
#    0.000    0.000    0.000    0.000    0.000    0.000 
#
# Total GULP energy -595070.481710 kJ/mol
# GULP energy per Si atom -12397.301702 kJ/mol
# Density = 1.720098 g / cm^3
# Si number density = 17.240218 Si / 1000 Ang^3
#
#
#
# Elastic Constant Matrix: (Units=GPa)
#
#
# Indices 1 2 3 4 5 6 
#
# 1 62.3983 43.8787 34.1931 0.0000 0.0000 0.0000
# 2 43.8787 136.1128 55.4395 0.0000 0.0000 0.0000
# 3 34.1931 55.4395 99.3040 0.0000 0.0000 0.0000
# 4 0.0000 0.0000 0.0000 25.1549 0.0000 0.0000
# 5 0.0000 0.0000 0.0000 0.0000 1.4540 0.0000
# 6 0.0000 0.0000 0.0000 0.0000 0.0000 27.4820
#
#
#
# Elastic Compliance Matrix: (Units=1/GPa)
#
#
# Indices 1 2 3 4 5 6 
#
# 1 0.022331 -0.005264 -0.004750 0.000000 0.000000 0.000000
# 2 -0.005264 0.010750 -0.004189 0.000000 0.000000 0.000000
# 3 -0.004750 -0.004189 0.014044 0.000000 0.000000 0.000000
# 4 0.000000 0.000000 0.000000 0.039754 0.000000 0.000000
# 5 0.000000 0.000000 0.000000 0.000000 0.687779 0.000000
# 6 0.000000 0.000000 0.000000 0.000000 0.000000 0.036387
#
#
# Mechanical properties :
#
#
# Convention : Reuss Voigt Hill
#
# Bulk Modulus (GPa) = 53.42272 62.75974 58.09123
# Shear Modulus (GPa) = 5.91232 21.77177 13.84204
#
# Velocity S-wave (km/s) = 1.85387 3.55751 2.83661
# Velocity P-wave (km/s) = 5.96967 7.30456 6.67059
#
# Compressibility (1/GPa) = 0.01871863
#
# Stress axis : x y z
#
# Youngs Moduli (GPa) = 44.78114 93.02344 71.20280
#
# Poissons Ratio (x) = 0.48967 0.33824
# Poissons Ratio (y) = 0.23573 0.29827
# Poissons Ratio (z) = 0.21273 0.38967
#
# Static dielectric constant tensor:
#      x y z
#    x 3.113170 0.000000 0.000000 
#    y 0.000000 3.351540 0.000000 
#    z 0.000000 0.000000 3.245680 
# 
# 
# High freq. dielectric constant tensor:
#      x y z
#    x 1.649350 0.000000 0.000000 
#    y 0.000000 1.675610 0.000000 
#    z 0.000000 0.000000 1.633210 
# 
# From -- ./inp_files/57921.got.cif
#   From: 2010.06.25/outbox.cif.g09.slc.cpg/sg71_29_cif.got.tgz:57921.got - 2010.06.28 04:59:45.
