data_PCOD8287769
_publ_section_title
;
Structure prediction by ZEFSAII (Michael W. Deem and Ramdas Pophale) SiO2 
 PCOD8287769
Probable space group: I M M M
;
_chemical_formula_sum "Si O2"
_cell_formula_units_Z 104
_cell_length_a 14.058408
_cell_length_b 14.800735
_cell_length_c 30.337216
_cell_angle_alpha 90.000000
_cell_angle_beta 90.000000
_cell_angle_gamma 90.000000
_cell_volume 6312.409282
_symmetry_space_group_name_H-M "I M M M"
_symmetry_group_IT_number 71
_symmetry_cell_setting 'orthorhombic'
loop_
_space_group_symop_operation_xyz
x,y,z
-x,-y,z
x,-y,-z
-x,y,-z
-x,-y,-z
x,y,-z
-x,y,z
x,-y,z
1/2+x,1/2+y,1/2+z
1/2-x,1/2-y,1/2+z
1/2+x,1/2-y,1/2-z
1/2-x,1/2+y,1/2-z
1/2-x,1/2-y,1/2-z
1/2+x,1/2+y,1/2-z
1/2-x,1/2+y,1/2+z
1/2+x,1/2-y,1/2+z
loop_
_atom_site_type_symbol
_atom_site_label
_atom_site_fract_x
_atom_site_fract_y
_atom_site_fract_z
Si Si1 0.890970 0.216668 0.618666
Si Si2 0.893300 0.606642 0.000000
Si Si3 0.779492 0.352172 0.251055
Si Si4 0.395364 0.106161 0.333698
Si Si5 0.895586 0.901556 0.297585
Si Si6 0.609180 0.898245 0.838151
Si Si7 0.771940 0.392526 0.915941
O O1 0.869939 0.173207 0.666410
O O2 0.868158 0.324021 0.623776
O O3 0.825260 0.166429 0.582562
O O4 0.000000 0.200956 0.604174
O O5 0.835946 0.638108 0.042982
O O6 0.903165 0.500000 0.000000
O O7 0.000000 0.648889 0.000000
O O8 0.750000 0.250000 0.250000
O O9 0.858349 0.368465 0.214174
O O10 0.682195 0.405721 0.241066
O O11 0.820844 0.384803 0.297191
O O12 0.500000 0.149579 0.339953
O O13 0.325816 0.140490 0.371997
O O14 0.403273 0.000000 0.338421
O O15 0.000000 0.881606 0.277096
O O16 0.894936 0.000000 0.321067
O O17 0.500000 0.884470 0.822297
O O18 0.623719 0.000000 0.857080
O O19 0.749755 0.500000 0.916814
#
# Coordination Sequence:
#
# PCOD8287769 Si02
#       7
#    16   8  16  16  16  16  16
#     4  10  19  32  48  68  92 123 162 196 231 279
#     4   9  18  32  51  75 106 137 157 181 225 284
#     4  12  20  29  43  62  90 122 159 204 244 277
#     4  10  19  29  43  63  87 116 153 194 231 269
#     4  10  19  30  43  59  83 118 157 193 230 274
#     4  10  20  33  48  66  92 125 161 204 250 288
#     4  10  18  31  49  72 100 129 157 186 226 279
#
# _framework density 16.475484000000002
#
# number of rings (size 3 to 8) (size 9 to 14) (size 15 to 20)
#    0.000    1.769    3.077    2.769    0.000    4.615 
#    0.000    0.385    0.000    1.385    0.000    0.538 
#    0.000    3.077    0.000    0.000    0.000    0.000 
#
# Total GULP energy -644525.028912 kJ/mol
# GULP energy per Si atom -12394.712094 kJ/mol
# Density = 1.643799 g / cm^3
# Si number density = 16.475484 Si / 1000 Ang^3
#
#
#
# Elastic Constant Matrix: (Units=GPa)
#
#
# Indices 1 2 3 4 5 6 
#
# 1 122.2281 38.9681 39.7702 0.0000 0.0000 0.0000
# 2 38.9681 80.8510 13.2263 0.0000 0.0000 0.0000
# 3 39.7702 13.2263 48.3496 0.0000 0.0000 0.0000
# 4 0.0000 0.0000 0.0000 14.2371 0.0000 0.0000
# 5 0.0000 0.0000 0.0000 0.0000 17.7463 0.0000
# 6 0.0000 0.0000 0.0000 0.0000 0.0000 13.7687
#
#
#
# Elastic Compliance Matrix: (Units=1/GPa)
#
#
# Indices 1 2 3 4 5 6 
#
# 1 0.012610 -0.004586 -0.009118 0.000000 0.000000 0.000000
# 2 -0.004586 0.014616 -0.000226 0.000000 0.000000 0.000000
# 3 -0.009118 -0.000226 0.028245 0.000000 0.000000 0.000000
# 4 0.000000 0.000000 0.000000 0.070239 0.000000 0.000000
# 5 0.000000 0.000000 0.000000 0.000000 0.056350 0.000000
# 6 0.000000 0.000000 0.000000 0.000000 0.000000 0.072629
#
#
# Mechanical properties :
#
#
# Convention : Reuss Voigt Hill
#
# Bulk Modulus (GPa) = 36.21813 48.37310 42.29562
# Shear Modulus (GPa) = 17.13781 19.78134 18.45958
#
# Velocity S-wave (km/s) = 3.22871 3.46880 3.35091
# Velocity P-wave (km/s) = 5.99418 6.74299 6.37958
#
# Compressibility (1/GPa) = 0.02761048
#
# Stress axis : x y z
#
# Youngs Moduli (GPa) = 79.29935 68.41896 35.40491
#
# Poissons Ratio (x) = 0.31379 0.32283
# Poissons Ratio (y) = 0.36369 0.00799
# Poissons Ratio (z) = 0.72307 0.01545
#
# Static dielectric constant tensor:
#      x y z
#    x 3.680200 0.000000 0.000000 
#    y 0.000000 3.129560 0.000000 
#    z 0.000000 0.000000 2.796630 
# 
# 
# High freq. dielectric constant tensor:
#      x y z
#    x 1.654130 0.000000 0.000000 
#    y 0.000000 1.620250 0.000000 
#    z 0.000000 0.000000 1.585320 
# 
# From -- ./inp_files/70070.got.cif
#   From: 2010.06.25/outbox.cif.g09.slc.cpg/sg71_36_cif.got.tgz:70070.got - 2010.06.28 04:59:45.
