data_PCOD8287954
_publ_section_title
;
Structure prediction by ZEFSAII (Michael W. Deem and Ramdas Pophale) SiO2 
 PCOD8287954
Probable space group: I M M M
;
_chemical_formula_sum "Si O2"
_cell_formula_units_Z 72
_cell_length_a 8.707706
_cell_length_b 19.232954
_cell_length_c 22.823532
_cell_angle_alpha 90.000000
_cell_angle_beta 90.000000
_cell_angle_gamma 90.000000
_cell_volume 3822.368943
_symmetry_space_group_name_H-M "I M M M"
_symmetry_group_IT_number 71
_symmetry_cell_setting 'orthorhombic'
loop_
_space_group_symop_operation_xyz
x,y,z
-x,-y,z
x,-y,-z
-x,y,-z
-x,-y,-z
x,y,-z
-x,y,z
x,-y,z
1/2+x,1/2+y,1/2+z
1/2-x,1/2-y,1/2+z
1/2+x,1/2-y,1/2-z
1/2-x,1/2+y,1/2-z
1/2-x,1/2-y,1/2-z
1/2+x,1/2+y,1/2-z
1/2-x,1/2+y,1/2+z
1/2+x,1/2-y,1/2+z
loop_
_atom_site_type_symbol
_atom_site_label
_atom_site_fract_x
_atom_site_fract_y
_atom_site_fract_z
Si Si1 0.682786 0.823604 0.934803
Si Si2 0.682532 0.421842 0.000000
Si Si3 0.317574 0.672854 0.106307
Si Si4 0.818352 0.677020 0.230460
Si Si5 0.817322 0.422254 0.666407
O O1 0.500000 0.823056 0.935536
O O2 0.741092 0.748809 0.912818
O O3 0.746123 0.882825 0.891266
O O4 0.746804 0.838416 0.000000
O O5 0.740500 0.382196 0.941999
O O6 0.749441 0.500000 0.000000
O O7 0.500000 0.422426 0.000000
O O8 0.500000 0.671442 0.113439
O O9 0.240906 0.652562 0.167485
O O10 0.750000 0.750000 0.250000
O O11 0.762170 0.618403 0.275951
O O12 0.000000 0.684166 0.230409
O O13 0.748364 0.500000 0.667511
O O14 0.000000 0.424649 0.664101
#
# Coordination Sequence:
#
# PCOD8287954 Si02
#       5
#    16   8  16  16  16
#     4   9  15  26  48  75  99 129 168 209 251 298
#     4   9  18  32  53  81 112 144 177 220 271 322
#     4  10  18  32  54  78 104 136 178 218 257 308
#     4  11  21  34  54  78 105 138 177 217 264 316
#     4   9  18  31  47  72 105 134 164 209 261 308
#
# _framework density 18.836487000000002
#
# number of rings (size 3 to 8) (size 9 to 14) (size 15 to 20)
#    0.000    2.333    3.333    0.667    0.000    1.333 
#    0.000    2.778    0.000    2.667    0.000    0.000 
#    0.000    1.778    0.000    0.000    0.000    0.000 
#
# Total GULP energy -446371.398284 kJ/mol
# GULP energy per Si atom -12399.205508 kJ/mol
# Density = 1.879361 g / cm^3
# Si number density = 18.836487 Si / 1000 Ang^3
#
#
#
# Elastic Constant Matrix: (Units=GPa)
#
#
# Indices 1 2 3 4 5 6 
#
# 1 23.5437 17.8855 23.1956 0.0000 0.0000 0.0000
# 2 17.8855 187.3428 104.7285 0.0000 0.0000 0.0000
# 3 23.1956 104.7285 210.1985 0.0000 0.0000 0.0000
# 4 0.0000 0.0000 0.0000 37.1181 0.0000 0.0000
# 5 0.0000 0.0000 0.0000 0.0000 26.9501 0.0000
# 6 0.0000 0.0000 0.0000 0.0000 0.0000 11.5974
#
#
#
# Elastic Compliance Matrix: (Units=1/GPa)
#
#
# Indices 1 2 3 4 5 6 
#
# 1 0.048338 -0.002263 -0.004206 0.000000 0.000000 0.000000
# 2 -0.002263 0.007504 -0.003489 0.000000 0.000000 0.000000
# 3 -0.004206 -0.003489 0.006960 0.000000 0.000000 0.000000
# 4 0.000000 0.000000 0.000000 0.026941 0.000000 0.000000
# 5 0.000000 0.000000 0.000000 0.000000 0.037106 0.000000
# 6 0.000000 0.000000 0.000000 0.000000 0.000000 0.086226
#
#
# Mechanical properties :
#
#
# Convention : Reuss Voigt Hill
#
# Bulk Modulus (GPa) = 23.31852 79.18935 51.25393
# Shear Modulus (GPa) = 20.21936 33.48481 26.85209
#
# Velocity S-wave (km/s) = 3.27985 4.22080 3.77972
# Velocity P-wave (km/s) = 5.17200 8.11697 6.80569
#
# Compressibility (1/GPa) = 0.04288436
#
# Stress axis : x y z
#
# Youngs Moduli (GPa) = 20.68774 133.25462 143.67695
#
# Poissons Ratio (x) = 0.30159 0.60438
# Poissons Ratio (y) = 0.04682 0.50132
# Poissons Ratio (z) = 0.08702 0.46496
#
# Static dielectric constant tensor:
#      x y z
#    x 2.887520 0.000000 0.000000 
#    y 0.000000 3.696150 0.000000 
#    z 0.000000 0.000000 3.802250 
# 
# 
# High freq. dielectric constant tensor:
#      x y z
#    x 1.672300 0.000000 0.000000 
#    y 0.000000 1.734140 0.000000 
#    z 0.000000 0.000000 1.752310 
# 
# From -- ./inp_files/7878.got.cif
#   From: 2010.06.25/outbox.cif.g09.slc.cpg/sg71_4_cif.got.tgz:7878.got - 2010.06.28 04:59:45.
