data_PCOD8287119
_publ_section_title
;
Structure prediction by ZEFSAII (Michael W. Deem and Ramdas Pophale) SiO2 
 PCOD8287119
Probable space group: I M M M
;
_chemical_formula_sum "Si O2"
_cell_formula_units_Z 104
_cell_length_a 27.121671
_cell_length_b 23.964976
_cell_length_c 8.876301
_cell_angle_alpha 90.000000
_cell_angle_beta 90.000000
_cell_angle_gamma 90.000000
_cell_volume 5769.331088
_symmetry_space_group_name_H-M "I M M M"
_symmetry_group_IT_number 71
_symmetry_cell_setting 'orthorhombic'
loop_
_space_group_symop_operation_xyz
x,y,z
-x,-y,z
x,-y,-z
-x,y,-z
-x,-y,-z
x,y,-z
-x,y,z
x,-y,z
1/2+x,1/2+y,1/2+z
1/2-x,1/2-y,1/2+z
1/2+x,1/2-y,1/2-z
1/2-x,1/2+y,1/2-z
1/2-x,1/2-y,1/2-z
1/2+x,1/2+y,1/2-z
1/2-x,1/2+y,1/2+z
1/2+x,1/2-y,1/2+z
loop_
_atom_site_type_symbol
_atom_site_label
_atom_site_fract_x
_atom_site_fract_y
_atom_site_fract_z
Si Si1 0.875399 0.640805 0.824395
Si Si2 0.787770 0.314430 0.323896
Si Si3 0.000000 0.935189 0.820917
Si Si4 0.911896 0.854090 0.178146
Si Si5 0.945308 0.565565 0.332534
Si Si6 0.686298 0.310766 0.177911
Si Si7 0.053083 0.734345 0.178284
O O1 0.825711 0.637910 0.727385
O O2 0.907003 0.585897 0.792898
O O3 0.905919 0.693246 0.756975
O O4 0.862985 0.646212 0.000000
O O5 0.776746 0.315181 0.500000
O O6 0.738378 0.332820 0.237981
O O7 0.812091 0.254897 0.273481
O O8 0.949010 0.904095 0.765719
O O9 0.000000 0.000000 0.764269
O O10 0.000000 0.932642 0.000000
O O11 0.857421 0.849378 0.252470
O O12 0.938332 0.797515 0.228593
O O13 0.903958 0.858990 0.000000
O O14 0.931721 0.587814 0.500000
O O15 0.943387 0.500000 0.332143
O O16 0.000000 0.586178 0.287655
O O17 0.682710 0.317289 0.000000
O O18 0.000000 0.715858 0.242201
O O19 0.053796 0.729842 0.000000
#
# Coordination Sequence:
#
# PCOD8287119 Si02
#       7
#    16  16   8  16  16  16  16
#     4  11  20  30  49  76 107 136 171 218 262 311
#     4  10  20  33  50  73 104 139 175 211 260 321
#     4   9  18  32  55  85 109 139 186 227 256 302
#     4  10  17  30  52  74 104 140 172 212 260 311
#     4   9  19  36  54  71  98 139 181 216 254 302
#     4  10  20  33  50  74 105 137 173 215 260 316
#     4   9  16  26  42  69 102 136 168 201 253 311
#
# _framework density 18.026354999999999
#
# number of rings (size 3 to 8) (size 9 to 14) (size 15 to 20)
#    0.000    2.231    2.308    2.308    0.000    2.462 
#    0.000    1.154    0.000    2.769    0.000    2.154 
#    0.000    0.000    0.000    0.000    0.000    0.000 
#
# Total GULP energy -644258.592570 kJ/mol
# GULP energy per Si atom -12389.588319 kJ/mol
# Density = 1.798533 g / cm^3
# Si number density = 18.026355 Si / 1000 Ang^3
#
#
#
# Elastic Constant Matrix: (Units=GPa)
#
#
# Indices 1 2 3 4 5 6 
#
# 1 146.5217 43.0310 37.0407 0.0000 0.0000 0.0000
# 2 43.0310 58.4034 20.4059 0.0000 0.0000 0.0000
# 3 37.0407 20.4059 42.2760 0.0000 0.0000 0.0000
# 4 0.0000 0.0000 0.0000 19.3500 0.0000 0.0000
# 5 0.0000 0.0000 0.0000 0.0000 28.5971 0.0000
# 6 0.0000 0.0000 0.0000 0.0000 0.0000 7.6203
#
#
#
# Elastic Compliance Matrix: (Units=1/GPa)
#
#
# Indices 1 2 3 4 5 6 
#
# 1 0.009897 -0.005127 -0.006197 0.000000 0.000000 0.000000
# 2 -0.005127 0.023252 -0.006731 0.000000 0.000000 0.000000
# 3 -0.006197 -0.006731 0.032333 0.000000 0.000000 0.000000
# 4 0.000000 0.000000 0.000000 0.051680 0.000000 0.000000
# 5 0.000000 0.000000 0.000000 0.000000 0.034969 0.000000
# 6 0.000000 0.000000 0.000000 0.000000 0.000000 0.131228
#
#
# Mechanical properties :
#
#
# Convention : Reuss Voigt Hill
#
# Bulk Modulus (GPa) = 34.04662 49.79513 41.92088
# Shear Modulus (GPa) = 15.18565 20.89506 18.04035
#
# Velocity S-wave (km/s) = 2.90559 3.40831 3.16694
# Velocity P-wave (km/s) = 5.49406 6.57056 6.05628
#
# Compressibility (1/GPa) = 0.02937149
#
# Stress axis : x y z
#
# Youngs Moduli (GPa) = 101.03859 43.00782 30.92862
#
# Poissons Ratio (x) = 0.22050 0.19166
# Poissons Ratio (y) = 0.51802 0.20818
# Poissons Ratio (z) = 0.62612 0.28949
#
# Static dielectric constant tensor:
#      x y z
#    x 3.585910 0.000000 0.000000 
#    y 0.000000 3.157390 0.000000 
#    z 0.000000 0.000000 3.184250 
# 
# 
# High freq. dielectric constant tensor:
#      x y z
#    x 1.711100 0.000000 0.000000 
#    y 0.000000 1.661500 0.000000 
#    z 0.000000 0.000000 1.679180 
# 
# From -- ./inp_files/15255.got.cif
#   From: 2010.06.25/outbox.cif.g09.slc.cpg/sg71_8_cif.got.tgz:15255.got - 2010.06.28 04:59:45.
