data_PCOD8287239
_publ_section_title
;
Structure prediction by ZEFSAII (Michael W. Deem and Ramdas Pophale) SiO2 
 PCOD8287239
Probable space group: I M M M
;
_chemical_formula_sum "Si O2"
_cell_formula_units_Z 88
_cell_length_a 20.004076
_cell_length_b 27.377941
_cell_length_c 9.275741
_cell_angle_alpha 90.000000
_cell_angle_beta 90.000000
_cell_angle_gamma 90.000000
_cell_volume 5080.048900
_symmetry_space_group_name_H-M "I M M M"
_symmetry_group_IT_number 71
_symmetry_cell_setting 'orthorhombic'
loop_
_space_group_symop_operation_xyz
x,y,z
-x,-y,z
x,-y,-z
-x,y,-z
-x,-y,-z
x,y,-z
-x,y,z
x,-y,z
1/2+x,1/2+y,1/2+z
1/2-x,1/2-y,1/2+z
1/2+x,1/2-y,1/2-z
1/2-x,1/2+y,1/2-z
1/2-x,1/2-y,1/2-z
1/2+x,1/2+y,1/2-z
1/2-x,1/2+y,1/2+z
1/2+x,1/2-y,1/2+z
loop_
_atom_site_type_symbol
_atom_site_label
_atom_site_fract_x
_atom_site_fract_y
_atom_site_fract_z
Si Si1 0.500000 0.057980 0.338004
Si Si2 0.233176 0.363240 0.667802
Si Si3 0.629803 0.218253 0.831249
Si Si4 0.500000 0.223624 0.328569
Si Si5 0.355038 0.668882 0.836777
Si Si6 0.000000 0.821818 0.664234
Si Si7 0.870385 0.443849 0.331891
O O1 0.500000 0.079565 0.500000
O O2 0.434120 0.076229 0.255359
O O3 0.500000 0.000000 0.340202
O O4 0.247401 0.363472 0.500000
O O5 0.192329 0.315040 0.714082
O O6 0.305257 0.363265 0.742312
O O7 0.193391 0.411856 0.714513
O O8 0.566317 0.199130 0.739337
O O9 0.646709 0.274145 0.791414
O O10 0.613039 0.212277 0.000000
O O11 0.500000 0.217617 0.500000
O O12 0.500000 0.280039 0.283501
O O13 0.431083 0.647807 0.816049
O O14 0.331034 0.663218 0.000000
O O15 0.000000 0.799206 0.500000
O O16 0.887002 0.437000 0.500000
O O17 0.854034 0.500000 0.294531
#
# Coordination Sequence:
#
# PCOD8287239 Si02
#       7
#     8  16  16   8  16   8  16
#     4   9  17  30  49  70  90 116 153 196 233 262
#     4  10  20  31  46  68  91 118 152 187 224 268
#     4   9  18  32  45  60  90 127 154 180 222 271
#     4  10  18  27  43  66  88 117 158 196 222 249
#     4   9  17  30  48  67  90 119 147 179 220 268
#     4   8  16  32  49  65  89 122 152 177 218 272
#     4   9  18  33  50  67  90 121 154 187 226 271
#
# _framework density 17.322666999999999
#
# number of rings (size 3 to 8) (size 9 to 14) (size 15 to 20)
#    0.000    2.818    0.000    2.727    0.000    6.182 
#    0.000    3.636    0.000    0.000    0.000    0.636 
#    0.000    5.091    0.000    0.000    0.000    0.000 
#
# Total GULP energy -545405.571342 kJ/mol
# GULP energy per Si atom -12395.581167 kJ/mol
# Density = 1.728324 g / cm^3
# Si number density = 17.322667 Si / 1000 Ang^3
#
#
#
# Elastic Constant Matrix: (Units=GPa)
#
#
# Indices 1 2 3 4 5 6 
#
# 1 159.9725 50.8568 61.3871 0.0000 0.0000 0.0000
# 2 50.8568 53.6664 27.3599 0.0000 0.0000 0.0000
# 3 61.3871 27.3599 68.8604 0.0000 0.0000 0.0000
# 4 0.0000 0.0000 0.0000 13.8315 0.0000 0.0000
# 5 0.0000 0.0000 0.0000 0.0000 35.1611 0.0000
# 6 0.0000 0.0000 0.0000 0.0000 0.0000 11.7827
#
#
#
# Elastic Compliance Matrix: (Units=1/GPa)
#
#
# Indices 1 2 3 4 5 6 
#
# 1 0.011251 -0.006958 -0.007265 0.000000 0.000000 0.000000
# 2 -0.006958 0.027670 -0.004791 0.000000 0.000000 0.000000
# 3 -0.007265 -0.004791 0.022903 0.000000 0.000000 0.000000
# 4 0.000000 0.000000 0.000000 0.072299 0.000000 0.000000
# 5 0.000000 0.000000 0.000000 0.000000 0.028440 0.000000
# 6 0.000000 0.000000 0.000000 0.000000 0.000000 0.084871
#
#
# Mechanical properties :
#
#
# Convention : Reuss Voigt Hill
#
# Bulk Modulus (GPa) = 42.02622 62.41190 52.21906
# Shear Modulus (GPa) = 17.04193 21.68143 19.36168
#
# Velocity S-wave (km/s) = 3.13995 3.54166 3.34684
# Velocity P-wave (km/s) = 6.12039 7.26855 6.71904
#
# Compressibility (1/GPa) = 0.02379467
#
# Stress axis : x y z
#
# Youngs Moduli (GPa) = 88.88005 36.14022 43.66299
#
# Poissons Ratio (x) = 0.25147 0.31723
# Poissons Ratio (y) = 0.61843 0.20919
# Poissons Ratio (z) = 0.64575 0.17315
#
# Static dielectric constant tensor:
#      x y z
#    x 3.405800 0.000000 0.000000 
#    y 0.000000 2.900640 0.000000 
#    z 0.000000 0.000000 3.151890 
# 
# 
# High freq. dielectric constant tensor:
#      x y z
#    x 1.675350 0.000000 0.000000 
#    y 0.000000 1.622330 0.000000 
#    z 0.000000 0.000000 1.664350 
# 
# From -- ./inp_files/11425.got.cif
#   From: 2010.06.25/outbox.cif.g09.slc.cpg/sg71_6_cif.got.tgz:11425.got - 2010.06.28 04:59:45.
