data_PCOD8287206
_publ_section_title
;
Structure prediction by ZEFSAII (Michael W. Deem and Ramdas Pophale) SiO2 
 PCOD8287206
Probable space group: I M M M
;
_chemical_formula_sum "Si O2"
_cell_formula_units_Z 88
_cell_length_a 36.846498
_cell_length_b 22.985351
_cell_length_c 8.223504
_cell_angle_alpha 90.000000
_cell_angle_beta 90.000000
_cell_angle_gamma 90.000000
_cell_volume 6964.729691
_symmetry_space_group_name_H-M "I M M M"
_symmetry_group_IT_number 71
_symmetry_cell_setting 'orthorhombic'
loop_
_space_group_symop_operation_xyz
x,y,z
-x,-y,z
x,-y,-z
-x,y,-z
-x,-y,-z
x,y,-z
-x,y,z
x,-y,z
1/2+x,1/2+y,1/2+z
1/2-x,1/2-y,1/2+z
1/2+x,1/2-y,1/2-z
1/2-x,1/2+y,1/2-z
1/2-x,1/2-y,1/2-z
1/2+x,1/2+y,1/2-z
1/2-x,1/2+y,1/2+z
1/2+x,1/2-y,1/2+z
loop_
_atom_site_type_symbol
_atom_site_label
_atom_site_fract_x
_atom_site_fract_y
_atom_site_fract_z
Si Si1 0.805414 0.736648 0.318799
Si Si2 0.459321 0.930993 0.000000
Si Si3 0.085631 0.431886 0.184359
Si Si4 0.232703 0.162662 0.178483
Si Si5 0.724533 0.065586 0.684932
Si Si6 0.655465 0.125556 0.811163
O O1 0.816613 0.753166 0.500000
O O2 0.802419 0.798251 0.225645
O O3 0.767228 0.704222 0.314437
O O4 0.835494 0.691496 0.249294
O O5 0.440514 0.909615 0.830899
O O6 0.500000 0.905384 0.000000
O O7 0.460195 0.000000 0.000000
O O8 0.093173 0.500000 0.207508
O O9 0.123609 0.398643 0.199174
O O10 0.070064 0.420123 0.000000
O O11 0.240012 0.106675 0.291882
O O12 0.225837 0.137724 0.000000
O O13 0.711350 0.069902 0.500000
O O14 0.691248 0.085762 0.797182
O O15 0.735582 0.000000 0.731856
O O16 0.643707 0.124977 0.000000
#
# Coordination Sequence:
#
# PCOD8287206 Si02
#       6
#    16   8  16  16  16  16
#     4   8  15  25  36  49  65  86 110 137 171 212
#     4   9  18  32  46  58  74  96 120 146 175 213
#     4  10  19  29  42  59  77  96 117 145 181 218
#     4   9  16  25  36  48  62  83 111 141 174 211
#     4  10  19  27  35  48  66  89 116 146 181 221
#     4  10  18  27  39  54  72  92 113 141 181 223
#
# _framework density 12.635090999999999
#
# number of rings (size 3 to 8) (size 9 to 14) (size 15 to 20)
#    0.000    2.636    0.909    3.273    0.000    9.091 
#    0.000    1.818    0.000    0.000    0.000    0.000 
#    0.000    0.000    0.000    0.000    0.000    0.000 
#
# Total GULP energy -545118.328355 kJ/mol
# GULP energy per Si atom -12389.052917 kJ/mol
# Density = 1.260633 g / cm^3
# Si number density = 12.635091 Si / 1000 Ang^3
#
#
#
# Elastic Constant Matrix: (Units=GPa)
#
#
# Indices 1 2 3 4 5 6 
#
# 1 43.5074 30.4763 26.1362 0.0000 0.0000 0.0000
# 2 30.4763 55.8305 24.6632 0.0000 0.0000 0.0000
# 3 26.1362 24.6632 69.3760 0.0000 0.0000 0.0000
# 4 0.0000 0.0000 0.0000 16.5761 0.0000 0.0000
# 5 0.0000 0.0000 0.0000 0.0000 13.4262 0.0000
# 6 0.0000 0.0000 0.0000 0.0000 0.0000 9.2563
#
#
#
# Elastic Compliance Matrix: (Units=1/GPa)
#
#
# Indices 1 2 3 4 5 6 
#
# 1 0.041451 -0.018659 -0.008983 0.000000 0.000000 0.000000
# 2 -0.018659 0.029647 -0.003510 0.000000 0.000000 0.000000
# 3 -0.008983 -0.003510 0.019046 0.000000 0.000000 0.000000
# 4 0.000000 0.000000 0.000000 0.060328 0.000000 0.000000
# 5 0.000000 0.000000 0.000000 0.000000 0.074481 0.000000
# 6 0.000000 0.000000 0.000000 0.000000 0.000000 0.108035
#
#
# Mechanical properties :
#
#
# Convention : Reuss Voigt Hill
#
# Bulk Modulus (GPa) = 35.91834 36.80727 36.36280
# Shear Modulus (GPa) = 12.35875 13.68095 13.01985
#
# Velocity S-wave (km/s) = 3.13090 3.29412 3.21355
# Velocity P-wave (km/s) = 6.44664 6.60776 6.52770
#
# Compressibility (1/GPa) = 0.02784093
#
# Stress axis : x y z
#
# Youngs Moduli (GPa) = 24.12492 33.72986 52.50392
#
# Poissons Ratio (x) = 0.62936 0.47163
# Poissons Ratio (y) = 0.45014 0.18430
# Poissons Ratio (z) = 0.21671 0.11840
#
# Static dielectric constant tensor:
#      x y z
#    x 2.328950 0.000000 0.000000 
#    y 0.000000 2.594450 0.000000 
#    z 0.000000 0.000000 2.759400 
# 
# 
# High freq. dielectric constant tensor:
#      x y z
#    x 1.425060 0.000000 0.000000 
#    y 0.000000 1.456450 0.000000 
#    z 0.000000 0.000000 1.497110 
# 
# From -- ./inp_files/17143.got.cif
#   From: 2010.06.25/outbox.cif.g09.slc.cpg/sg71_9_cif.got.tgz:17143.got - 2010.06.28 04:59:45.
