data_PCOD8287305
_publ_section_title
;
Structure prediction by ZEFSAII (Michael W. Deem and Ramdas Pophale) SiO2 
 PCOD8287305
Probable space group: I M M M
;
_chemical_formula_sum "Si O2"
_cell_formula_units_Z 96
_cell_length_a 23.044029
_cell_length_b 8.942189
_cell_length_c 29.356499
_cell_angle_alpha 90.000000
_cell_angle_beta 90.000000
_cell_angle_gamma 90.000000
_cell_volume 6049.319449
_symmetry_space_group_name_H-M "I M M M"
_symmetry_group_IT_number 71
_symmetry_cell_setting 'orthorhombic'
loop_
_space_group_symop_operation_xyz
x,y,z
-x,-y,z
x,-y,-z
-x,y,-z
-x,-y,-z
x,y,-z
-x,y,z
x,-y,z
1/2+x,1/2+y,1/2+z
1/2-x,1/2-y,1/2+z
1/2+x,1/2-y,1/2-z
1/2-x,1/2+y,1/2-z
1/2-x,1/2-y,1/2-z
1/2+x,1/2+y,1/2-z
1/2-x,1/2+y,1/2+z
1/2+x,1/2-y,1/2+z
loop_
_atom_site_type_symbol
_atom_site_label
_atom_site_fract_x
_atom_site_fract_y
_atom_site_fract_z
Si Si1 0.567056 0.672524 0.820283
Si Si2 0.885542 0.168600 0.500000
Si Si3 0.162525 0.326853 0.731719
Si Si4 0.252481 0.169076 0.500000
Si Si5 0.615208 0.826113 0.908884
Si Si6 0.732585 0.173393 0.681010
Si Si7 0.251736 0.673905 0.591193
O O1 0.500000 0.693463 0.808326
O O2 0.584282 0.500000 0.825577
O O3 0.602178 0.744182 0.778174
O O4 0.581433 0.754871 0.867065
O O5 0.816496 0.171772 0.500000
O O6 0.908813 0.251931 0.544859
O O7 0.909524 0.000000 0.500000
O O8 0.156825 0.500000 0.718387
O O9 0.211614 0.258436 0.699727
O O10 0.178508 0.305286 0.784730
O O11 0.275660 0.254716 0.455439
O O12 0.276300 0.000000 0.500000
O O13 0.683422 0.796624 0.903098
O O14 0.600810 0.000000 0.911186
O O15 0.715078 0.245099 0.632750
O O16 0.748574 0.000000 0.675020
O O17 0.267130 0.500000 0.591092
#
# Coordination Sequence:
#
# PCOD8287305 Si02
#       7
#    16   8  16   8  16  16  16
#     4  11  23  36  50  67  88 117 152 191 234 278
#     4   9  17  29  46  64  85 113 145 187 234 275
#     4  10  20  33  48  69  91 117 150 187 230 273
#     4   9  17  27  41  62  90 123 154 182 223 269
#     4  10  19  31  47  66  87 113 149 190 231 275
#     4  10  19  30  48  70  94 119 148 186 227 271
#     4  10  18  28  44  67  93 120 152 187 225 269
#
# _framework density 15.869553
#
# number of rings (size 3 to 8) (size 9 to 14) (size 15 to 20)
#    0.000    2.000    1.667    3.000    0.000    6.667 
#    0.000    0.417    0.000    2.500    0.000    0.000 
#    0.000    0.000    0.000    0.750    0.000   14.000 
#
# Total GULP energy -595313.618739 kJ/mol
# GULP energy per Si atom -12402.367057 kJ/mol
# Density = 1.583343 g / cm^3
# Si number density = 15.869553 Si / 1000 Ang^3
#
#
#
# Elastic Constant Matrix: (Units=GPa)
#
#
# Indices 1 2 3 4 5 6 
#
# 1 42.7619 37.1660 36.3486 0.0000 0.0000 0.0000
# 2 37.1660 128.4812 66.0608 0.0000 0.0000 0.0000
# 3 36.3486 66.0608 123.6981 0.0000 0.0000 0.0000
# 4 0.0000 0.0000 0.0000 34.3016 0.0000 0.0000
# 5 0.0000 0.0000 0.0000 0.0000 10.7017 0.0000
# 6 0.0000 0.0000 0.0000 0.0000 0.0000 18.0393
#
#
#
# Elastic Compliance Matrix: (Units=1/GPa)
#
#
# Indices 1 2 3 4 5 6 
#
# 1 0.034845 -0.006638 -0.006694 0.000000 0.000000 0.000000
# 2 -0.006638 0.011994 -0.004455 0.000000 0.000000 0.000000
# 3 -0.006694 -0.004455 0.012430 0.000000 0.000000 0.000000
# 4 0.000000 0.000000 0.000000 0.029153 0.000000 0.000000
# 5 0.000000 0.000000 0.000000 0.000000 0.093443 0.000000
# 6 0.000000 0.000000 0.000000 0.000000 0.000000 0.055435
#
#
# Mechanical properties :
#
#
# Convention : Reuss Voigt Hill
#
# Bulk Modulus (GPa) = 42.20227 63.78801 52.99514
# Shear Modulus (GPa) = 17.80811 22.96626 20.38718
#
# Velocity S-wave (km/s) = 3.35349 3.80832 3.58812
# Velocity P-wave (km/s) = 6.45333 7.72141 7.11568
#
# Compressibility (1/GPa) = 0.02369541
#
# Stress axis : x y z
#
# Youngs Moduli (GPa) = 28.69890 83.37614 80.44794
#
# Poissons Ratio (x) = 0.55342 0.53854
# Poissons Ratio (y) = 0.19049 0.35838
# Poissons Ratio (z) = 0.19212 0.37143
#
# Static dielectric constant tensor:
#      x y z
#    x 2.589550 0.000000 0.000000 
#    y 0.000000 3.239270 0.000000 
#    z 0.000000 0.000000 3.221800 
# 
# 
# High freq. dielectric constant tensor:
#      x y z
#    x 1.543060 0.000000 0.000000 
#    y 0.000000 1.634940 0.000000 
#    z 0.000000 0.000000 1.617400 
# 
# From -- ./inp_files/57896.got.cif
#   From: 2010.06.25/outbox.cif.g09.slc.cpg/sg71_29_cif.got.tgz:57896.got - 2010.06.28 04:59:45.
