data_PCOD8287814
_publ_section_title
;
Structure prediction by ZEFSAII (Michael W. Deem and Ramdas Pophale) SiO2 
 PCOD8287814
Probable space group: I M M M
;
_chemical_formula_sum "Si O2"
_cell_formula_units_Z 120
_cell_length_a 21.205026
_cell_length_b 21.757646
_cell_length_c 13.614492
_cell_angle_alpha 90.000000
_cell_angle_beta 90.000000
_cell_angle_gamma 90.000000
_cell_volume 6281.337903
_symmetry_space_group_name_H-M "I M M M"
_symmetry_group_IT_number 71
_symmetry_cell_setting 'orthorhombic'
loop_
_space_group_symop_operation_xyz
x,y,z
-x,-y,z
x,-y,-z
-x,y,-z
-x,-y,-z
x,y,-z
-x,y,z
x,-y,z
1/2+x,1/2+y,1/2+z
1/2-x,1/2-y,1/2+z
1/2+x,1/2-y,1/2-z
1/2-x,1/2+y,1/2-z
1/2-x,1/2-y,1/2-z
1/2+x,1/2+y,1/2-z
1/2-x,1/2+y,1/2+z
1/2+x,1/2-y,1/2+z
loop_
_atom_site_type_symbol
_atom_site_label
_atom_site_fract_x
_atom_site_fract_y
_atom_site_fract_z
Si Si1 0.146000 0.068176 0.720561
Si Si2 0.762263 0.652463 0.230429
Si Si3 0.926171 0.895226 0.890865
Si Si4 0.123866 0.635369 0.114714
Si Si5 0.688089 0.246309 0.117189
Si Si6 0.928198 0.172692 0.615831
Si Si7 0.000000 0.430888 0.883194
Si Si8 0.431160 0.738759 0.384838
O O1 0.209484 0.102514 0.754647
O O2 0.107133 0.056370 0.820690
O O3 0.103790 0.108181 0.646229
O O4 0.159569 0.000000 0.675893
O O5 0.815928 0.612804 0.174633
O O6 0.737304 0.702404 0.152654
O O7 0.792544 0.682971 0.328414
O O8 0.911397 0.827549 0.840571
O O9 0.000000 0.907589 0.893971
O O10 0.897622 0.901155 0.000000
O O11 0.119298 0.708608 0.137124
O O12 0.062226 0.602085 0.157465
O O13 0.132151 0.621125 0.000000
O O14 0.616771 0.269175 0.146458
O O15 0.694665 0.237021 0.000000
O O16 0.932330 0.170736 0.500000
O O17 0.000000 0.179965 0.659128
O O18 0.000000 0.500000 0.844462
O O19 0.000000 0.426316 0.000000
O O20 0.437056 0.726111 0.500000
O O21 0.500000 0.759930 0.346083
#
# Coordination Sequence:
#
# PCOD8287814 Si02
#       8
#    16  16  16  16  16  16   8  16
#     4  11  24  39  52  73 109 149 189 226 256 308
#     4  10  22  35  52  80 103 146 187 212 265 326
#     4   9  19  34  53  79 108 138 170 213 270 322
#     4  10  18  31  51  78 109 138 172 218 265 320
#     4   9  19  37  56  79 112 137 170 225 276 327
#     4   9  19  37  59  82 107 138 177 227 283 325
#     4   9  18  32  50  76 111 145 174 212 270 329
#     4   8  14  26  46  74 105 130 155 197 258 318
#
# _framework density 19.104209999999998
#
# number of rings (size 3 to 8) (size 9 to 14) (size 15 to 20)
#    0.000    2.600    0.667    1.600    5.600    3.200 
#    1.200    1.333    0.000    0.000    0.000    0.000 
#    0.000    0.533    0.000    0.000    0.000    0.000 
#
# Total GULP energy -743572.698519 kJ/mol
# GULP energy per Si atom -12392.878309 kJ/mol
# Density = 1.906073 g / cm^3
# Si number density = 19.104210 Si / 1000 Ang^3
#
#
#
# Elastic Constant Matrix: (Units=GPa)
#
#
# Indices 1 2 3 4 5 6 
#
# 1 118.4436 44.9199 34.7824 0.0000 0.0000 0.0000
# 2 44.9199 84.7843 20.3660 0.0000 0.0000 0.0000
# 3 34.7824 20.3660 48.2379 0.0000 0.0000 0.0000
# 4 0.0000 0.0000 0.0000 15.3370 0.0000 0.0000
# 5 0.0000 0.0000 0.0000 0.0000 27.4334 0.0000
# 6 0.0000 0.0000 0.0000 0.0000 0.0000 16.3367
#
#
#
# Elastic Compliance Matrix: (Units=1/GPa)
#
#
# Indices 1 2 3 4 5 6 
#
# 1 0.012290 -0.004877 -0.006803 0.000000 0.000000 0.000000
# 2 -0.004877 0.015061 -0.002842 0.000000 0.000000 0.000000
# 3 -0.006803 -0.002842 0.026836 0.000000 0.000000 0.000000
# 4 0.000000 0.000000 0.000000 0.065202 0.000000 0.000000
# 5 0.000000 0.000000 0.000000 0.000000 0.036452 0.000000
# 6 0.000000 0.000000 0.000000 0.000000 0.000000 0.061212
#
#
# Mechanical properties :
#
#
# Convention : Reuss Voigt Hill
#
# Bulk Modulus (GPa) = 39.77256 50.17804 44.97530
# Shear Modulus (GPa) = 19.64801 21.91458 20.78129
#
# Velocity S-wave (km/s) = 3.21045 3.39057 3.30174
# Velocity P-wave (km/s) = 5.88273 6.45371 6.17483
#
# Compressibility (1/GPa) = 0.02514296
#
# Stress axis : x y z
#
# Youngs Moduli (GPa) = 81.36458 66.39453 37.26377
#
# Poissons Ratio (x) = 0.32384 0.25350
# Poissons Ratio (y) = 0.39686 0.10590
# Poissons Ratio (z) = 0.55351 0.18869
#
# Static dielectric constant tensor:
#      x y z
#    x 3.692480 0.000000 0.000000 
#    y 0.000000 3.334980 0.000000 
#    z 0.000000 0.000000 3.328170 
# 
# 
# High freq. dielectric constant tensor:
#      x y z
#    x 1.749490 0.000000 0.000000 
#    y 0.000000 1.716470 0.000000 
#    z 0.000000 0.000000 1.728170 
# 
# From -- ./inp_files/38448.got.cif
#   From: 2010.06.25/outbox.cif.g09.slc.cpg/sg71_20_cif.got.tgz:38448.got - 2010.06.28 04:59:45.
