data_PCOD8287420
_publ_section_title
;
Structure prediction by ZEFSAII (Michael W. Deem and Ramdas Pophale) SiO2 
 PCOD8287420
Probable space group: I M M M
;
_chemical_formula_sum "Si O2"
_cell_formula_units_Z 80
_cell_length_a 23.999209
_cell_length_b 9.119796
_cell_length_c 23.935538
_cell_angle_alpha 90.000000
_cell_angle_beta 90.000000
_cell_angle_gamma 90.000000
_cell_volume 5238.720704
_symmetry_space_group_name_H-M "I M M M"
_symmetry_group_IT_number 71
_symmetry_cell_setting 'orthorhombic'
loop_
_space_group_symop_operation_xyz
x,y,z
-x,-y,z
x,-y,-z
-x,y,-z
-x,-y,-z
x,y,-z
-x,y,z
x,-y,z
1/2+x,1/2+y,1/2+z
1/2-x,1/2-y,1/2+z
1/2+x,1/2-y,1/2-z
1/2-x,1/2+y,1/2-z
1/2-x,1/2-y,1/2-z
1/2+x,1/2+y,1/2-z
1/2-x,1/2+y,1/2+z
1/2+x,1/2-y,1/2+z
loop_
_atom_site_type_symbol
_atom_site_label
_atom_site_fract_x
_atom_site_fract_y
_atom_site_fract_z
Si Si1 0.166667 0.670270 0.275051
Si Si2 0.062036 0.332240 0.875443
Si Si3 0.237897 0.671012 0.166181
Si Si4 0.169366 0.326561 0.061353
Si Si5 0.062791 0.170433 0.239815
O O1 0.160326 0.500000 0.287915
O O2 0.191954 0.700976 0.213811
O O3 0.206089 0.739446 0.322254
O O4 0.106070 0.744957 0.279610
O O5 0.074011 0.500000 0.855989
O O6 0.106318 0.282290 0.922013
O O7 0.068676 0.228221 0.822738
O O8 0.000000 0.318391 0.901223
O O9 0.253014 0.500000 0.163854
O O10 0.213022 0.730765 0.107659
O O11 0.174122 0.500000 0.058764
O O12 0.182586 0.259116 0.000000
O O13 0.000000 0.197981 0.262191
O O14 0.077998 0.000000 0.239967
#
# Coordination Sequence:
#
# PCOD8287420 Si02
#       5
#    16  16  16  16  16
#     4  10  18  29  46  65  85 112 144 181 220 262
#     4   9  16  27  42  60  84 114 151 190 221 252
#     4   9  17  29  43  63  87 113 145 181 221 261
#     4   9  16  27  43  63  87 114 148 188 224 256
#     4  10  19  29  43  64  89 116 144 177 219 263
#
# _framework density 15.270904
#
# number of rings (size 3 to 8) (size 9 to 14) (size 15 to 20)
#    0.000    2.600    2.000    1.200    0.000    2.400 
#    0.000    2.000    0.000    2.400    0.000    2.800 
#    0.000    0.800    0.000    9.200    0.000    2.600 
#
# Total GULP energy -495887.368743 kJ/mol
# GULP energy per Si atom -12397.184219 kJ/mol
# Density = 1.523615 g / cm^3
# Si number density = 15.270904 Si / 1000 Ang^3
#
#
#
# Elastic Constant Matrix: (Units=GPa)
#
#
# Indices 1 2 3 4 5 6 
#
# 1 119.3367 54.8107 64.8456 0.0000 0.0000 0.0000
# 2 54.8107 66.1532 28.6475 0.0000 0.0000 0.0000
# 3 64.8456 28.6475 83.3978 0.0000 0.0000 0.0000
# 4 0.0000 0.0000 0.0000 12.9371 0.0000 0.0000
# 5 0.0000 0.0000 0.0000 0.0000 20.8355 0.0000
# 6 0.0000 0.0000 0.0000 0.0000 0.0000 23.3179
#
#
#
# Elastic Compliance Matrix: (Units=1/GPa)
#
#
# Indices 1 2 3 4 5 6 
#
# 1 0.019953 -0.011528 -0.011554 0.000000 0.000000 0.000000
# 2 -0.011528 0.024419 0.000576 0.000000 0.000000 0.000000
# 3 -0.011554 0.000576 0.020777 0.000000 0.000000 0.000000
# 4 0.000000 0.000000 0.000000 0.077297 0.000000 0.000000
# 5 0.000000 0.000000 0.000000 0.000000 0.047995 0.000000
# 6 0.000000 0.000000 0.000000 0.000000 0.000000 0.042886
#
#
# Mechanical properties :
#
#
# Convention : Reuss Voigt Hill
#
# Bulk Modulus (GPa) = 49.66457 62.83281 56.24869
# Shear Modulus (GPa) = 17.54070 19.45703 18.49886
#
# Velocity S-wave (km/s) = 3.39283 3.57336 3.48426
# Velocity P-wave (km/s) = 6.92397 7.63282 7.28702
#
# Compressibility (1/GPa) = 0.02013508
#
# Stress axis : x y z
#
# Youngs Moduli (GPa) = 50.11789 40.95215 48.13032
#
# Poissons Ratio (x) = 0.47211 0.55611
# Poissons Ratio (y) = 0.57777 -0.02772
# Poissons Ratio (z) = 0.57908 -0.02358
#
# Static dielectric constant tensor:
#      x y z
#    x 3.108670 0.000000 0.000000 
#    y 0.000000 2.841140 0.000000 
#    z 0.000000 0.000000 2.834420 
# 
# 
# High freq. dielectric constant tensor:
#      x y z
#    x 1.588630 0.000000 0.000000 
#    y 0.000000 1.575570 0.000000 
#    z 0.000000 0.000000 1.541930 
# 
# From -- ./inp_files/8634.got.cif
#   From: 2010.06.25/outbox.cif.g09.slc.cpg/sg71_5_cif.got.tgz:8634.got - 2010.06.28 04:59:45.
