data_PCOD8287153
_publ_section_title
;
Structure prediction by ZEFSAII (Michael W. Deem and Ramdas Pophale) SiO2 
 PCOD8287153
Probable space group: I M M M
;
_chemical_formula_sum "Si O2"
_cell_formula_units_Z 88
_cell_length_a 9.566288
_cell_length_b 23.623859
_cell_length_c 29.767094
_cell_angle_alpha 90.000000
_cell_angle_beta 90.000000
_cell_angle_gamma 90.000000
_cell_volume 6727.144124
_symmetry_space_group_name_H-M "I M M M"
_symmetry_group_IT_number 71
_symmetry_cell_setting 'orthorhombic'
loop_
_space_group_symop_operation_xyz
x,y,z
-x,-y,z
x,-y,-z
-x,y,-z
-x,-y,-z
x,y,-z
-x,y,z
x,-y,z
1/2+x,1/2+y,1/2+z
1/2-x,1/2-y,1/2+z
1/2+x,1/2-y,1/2-z
1/2-x,1/2+y,1/2-z
1/2-x,1/2-y,1/2-z
1/2+x,1/2+y,1/2-z
1/2-x,1/2+y,1/2+z
1/2+x,1/2-y,1/2+z
loop_
_atom_site_type_symbol
_atom_site_label
_atom_site_fract_x
_atom_site_fract_y
_atom_site_fract_z
Si Si1 0.166436 0.435760 0.500000
Si Si2 0.842017 0.175223 0.160753
Si Si3 0.838291 0.717687 0.787138
Si Si4 0.659312 0.500000 0.263194
Si Si5 0.161352 0.388886 0.593702
Si Si6 0.838043 0.123613 0.256791
Si Si7 0.342993 0.000000 0.150108
O O1 0.228057 0.500000 0.500000
O O2 0.216969 0.400075 0.543280
O O3 0.000000 0.441147 0.500000
O O4 0.830445 0.243236 0.168427
O O5 0.746298 0.160860 0.118131
O O6 0.796320 0.140789 0.205680
O O7 0.000000 0.158174 0.148714
O O8 0.750000 0.750000 0.750000
O O9 0.761707 0.656780 0.792305
O O10 0.000000 0.709328 0.772446
O O11 0.500000 0.500000 0.279043
O O12 0.690718 0.556904 0.234812
O O13 0.744676 0.500000 0.308026
O O14 0.187832 0.446223 0.620060
O O15 0.000000 0.370692 0.593514
O O16 0.000000 0.139759 0.265563
O O17 0.500000 0.000000 0.168507
#
# Coordination Sequence:
#
# PCOD8287153 Si02
#       7
#     8  16  16   8  16  16   8
#     4   9  16  28  41  53  73  97 121 154 195 232
#     4   9  17  28  40  53  71  94 120 152 190 226
#     4   9  17  28  40  53  71  94 119 151 188 222
#     4  10  18  28  39  53  77 104 122 147 191 230
#     4  10  18  27  41  56  70  93 125 159 193 228
#     4   9  17  27  39  55  74  97 122 149 184 223
#     4  10  18  25  36  56  72  90 126 162 189 223
#
# _framework density 13.081329999999999
#
# number of rings (size 3 to 8) (size 9 to 14) (size 15 to 20)
#    0.000    2.636    2.727    1.636    0.000    4.364 
#    0.000    0.455    0.000    0.545    0.000    0.000 
#    0.000    0.000    0.000    0.000    0.000    0.909 
#
# Total GULP energy -545272.012951 kJ/mol
# GULP energy per Si atom -12392.545749 kJ/mol
# Density = 1.305156 g / cm^3
# Si number density = 13.081330 Si / 1000 Ang^3
#
#
#
# Elastic Constant Matrix: (Units=GPa)
#
#
# Indices 1 2 3 4 5 6 
#
# 1 65.4206 46.0596 32.3721 0.0000 0.0000 0.0000
# 2 46.0596 89.3301 35.9415 0.0000 0.0000 0.0000
# 3 32.3721 35.9415 47.3521 0.0000 0.0000 0.0000
# 4 0.0000 0.0000 0.0000 33.9936 0.0000 0.0000
# 5 0.0000 0.0000 0.0000 0.0000 12.2622 0.0000
# 6 0.0000 0.0000 0.0000 0.0000 0.0000 22.3396
#
#
#
# Elastic Compliance Matrix: (Units=1/GPa)
#
#
# Indices 1 2 3 4 5 6 
#
# 1 0.027896 -0.009660 -0.011738 0.000000 0.000000 0.000000
# 2 -0.009660 0.019462 -0.008168 0.000000 0.000000 0.000000
# 3 -0.011738 -0.008168 0.035343 0.000000 0.000000 0.000000
# 4 0.000000 0.000000 0.000000 0.029417 0.000000 0.000000
# 5 0.000000 0.000000 0.000000 0.000000 0.081551 0.000000
# 6 0.000000 0.000000 0.000000 0.000000 0.000000 0.044764
#
#
# Mechanical properties :
#
#
# Convention : Reuss Voigt Hill
#
# Bulk Modulus (GPa) = 42.43155 47.87213 45.15184
# Shear Modulus (GPa) = 16.37088 19.56772 17.96930
#
# Velocity S-wave (km/s) = 3.54145 3.87182 3.71031
# Velocity P-wave (km/s) = 7.01638 7.52750 7.27643
#
# Compressibility (1/GPa) = 0.02356737
#
# Stress axis : x y z
#
# Youngs Moduli (GPa) = 35.84790 51.38310 28.29451
#
# Poissons Ratio (x) = 0.49639 0.33213
# Poissons Ratio (y) = 0.34631 0.23110
# Poissons Ratio (z) = 0.42079 0.41967
#
# Static dielectric constant tensor:
#      x y z
#    x 2.714500 0.000000 0.000000 
#    y 0.000000 2.973000 0.000000 
#    z 0.000000 0.000000 2.546290 
# 
# 
# High freq. dielectric constant tensor:
#      x y z
#    x 1.501310 0.000000 0.000000 
#    y 0.000000 1.491450 0.000000 
#    z 0.000000 0.000000 1.446530 
# 
# From -- ./inp_files/62258.got.cif
#   From: 2010.06.25/outbox.cif.g09.slc.cpg/sg71_32_cif.got.tgz:62258.got - 2010.06.28 04:59:45.
