data_PCOD8287177
_publ_section_title
;
Structure prediction by ZEFSAII (Michael W. Deem and Ramdas Pophale) SiO2 
 PCOD8287177
Probable space group: I M M M
;
_chemical_formula_sum "Si O2"
_cell_formula_units_Z 80
_cell_length_a 13.492393
_cell_length_b 32.377909
_cell_length_c 13.482971
_cell_angle_alpha 90.000000
_cell_angle_beta 90.000000
_cell_angle_gamma 90.000000
_cell_volume 5890.109670
_symmetry_space_group_name_H-M "I M M M"
_symmetry_group_IT_number 71
_symmetry_cell_setting 'orthorhombic'
loop_
_space_group_symop_operation_xyz
x,y,z
-x,-y,z
x,-y,-z
-x,y,-z
-x,-y,-z
x,y,-z
-x,y,z
x,-y,z
1/2+x,1/2+y,1/2+z
1/2-x,1/2-y,1/2+z
1/2+x,1/2-y,1/2-z
1/2-x,1/2+y,1/2-z
1/2-x,1/2-y,1/2-z
1/2+x,1/2+y,1/2-z
1/2-x,1/2+y,1/2+z
1/2+x,1/2-y,1/2+z
loop_
_atom_site_type_symbol
_atom_site_label
_atom_site_fract_x
_atom_site_fract_y
_atom_site_fract_z
Si Si1 0.716411 0.255572 0.613341
Si Si2 0.700343 0.628990 0.118651
Si Si3 0.388527 0.455083 0.117758
Si Si4 0.384291 0.707881 0.210859
Si Si5 0.392765 0.829045 0.615164
O O1 0.715604 0.270678 0.500000
O O2 0.671053 0.291845 0.681771
O O3 0.828393 0.242128 0.642596
O O4 0.644152 0.217124 0.632964
O O5 0.676223 0.583032 0.158448
O O6 0.624678 0.662143 0.164941
O O7 0.811621 0.638768 0.156718
O O8 0.691097 0.632902 0.000000
O O9 0.500000 0.449894 0.157933
O O10 0.346111 0.500000 0.152673
O O11 0.389254 0.453471 0.000000
O O12 0.500000 0.719455 0.218956
O O13 0.405160 0.837558 0.500000
O O14 0.500000 0.835458 0.667708
#
# Coordination Sequence:
#
# PCOD8287177 Si02
#       5
#    16  16  16  16  16
#     4   9  18  29  38  52  75 101 128 156 185 219
#     4   9  16  24  35  53  74  92 115 151 187 218
#     4   8  13  21  33  48  67  92 116 138 175 226
#     4  10  18  26  39  57  74  96 127 158 188 220
#     4   8  13  22  35  47  62  90 122 145 169 203
#
# _framework density 13.582090000000001
#
# number of rings (size 3 to 8) (size 9 to 14) (size 15 to 20)
#    0.000    3.200    0.000    3.600    0.000    3.600 
#    0.000    0.000    0.000    0.600    0.000    4.200 
#    0.000    0.800    0.000    4.200    0.000    0.200 
#
# Total GULP energy -495544.739910 kJ/mol
# GULP energy per Si atom -12388.618498 kJ/mol
# Density = 1.355118 g / cm^3
# Si number density = 13.582090 Si / 1000 Ang^3
#
#
#
# Elastic Constant Matrix: (Units=GPa)
#
#
# Indices 1 2 3 4 5 6 
#
# 1 86.4439 27.0037 17.8515 0.0001 -0.0002 0.0000
# 2 27.0037 66.9584 20.3372 0.0002 -0.0001 0.0000
# 3 17.8515 20.3372 52.0991 0.0004 -0.0009 0.0000
# 4 0.0001 0.0002 0.0004 11.1604 -0.0001 0.0000
# 5 -0.0002 -0.0001 -0.0009 -0.0001 10.3607 0.0000
# 6 0.0000 0.0000 0.0000 0.0000 0.0000 15.9513
#
#
#
# Elastic Compliance Matrix: (Units=1/GPa)
#
#
# Indices 1 2 3 4 5 6 
#
# 1 0.013601 -0.004617 -0.002858 0.000000 0.000000 0.000000
# 2 -0.004617 0.018511 -0.005644 0.000000 0.000000 0.000000
# 3 -0.002858 -0.005644 0.022377 -0.000001 0.000002 0.000000
# 4 0.000000 0.000000 -0.000001 0.089602 0.000001 0.000000
# 5 0.000000 0.000000 0.000002 0.000001 0.096518 0.000000
# 6 0.000000 0.000000 0.000000 0.000000 0.000000 0.062691
#
#
# Mechanical properties :
#
#
# Convention : Reuss Voigt Hill
#
# Bulk Modulus (GPa) = 35.39755 37.32070 36.35912
# Shear Modulus (GPa) = 14.75127 16.84842 15.79985
#
# Velocity S-wave (km/s) = 3.29915 3.52588 3.41440
# Velocity P-wave (km/s) = 6.37425 6.64178 6.50939
#
# Compressibility (1/GPa) = 0.02825054
#
# Stress axis : x y z
#
# Youngs Moduli (GPa) = 73.52585 54.02237 44.68966
#
# Poissons Ratio (x) = 0.24942 0.12772
# Poissons Ratio (y) = 0.33947 0.25222
# Poissons Ratio (z) = 0.21013 0.30489
#
# Static dielectric constant tensor:
#      x y z
#    x 2.936000 0.000000 0.000000 
#    y 0.000000 2.751450 0.000000 
#    z 0.000000 0.000000 2.443180 
# 
# 
# High freq. dielectric constant tensor:
#      x y z
#    x 1.524160 0.000000 0.000000 
#    y 0.000000 1.495550 0.000000 
#    z 0.000000 0.000000 1.472770 
# 
# From -- ./inp_files/33063.got.cif
#   From: 2010.06.25/outbox.cif.g09.slc.cpg/sg71_17_cif.got.tgz:33063.got - 2010.06.28 04:59:45.
