data_PCOD8287123
_publ_section_title
;
Structure prediction by ZEFSAII (Michael W. Deem and Ramdas Pophale) SiO2 
 PCOD8287123
Probable space group: I M M M
;
_chemical_formula_sum "Si O2"
_cell_formula_units_Z 120
_cell_length_a 21.130122
_cell_length_b 15.659385
_cell_length_c 20.898318
_cell_angle_alpha 90.000000
_cell_angle_beta 90.000000
_cell_angle_gamma 90.000000
_cell_volume 6914.934006
_symmetry_space_group_name_H-M "I M M M"
_symmetry_group_IT_number 71
_symmetry_cell_setting 'orthorhombic'
loop_
_space_group_symop_operation_xyz
x,y,z
-x,-y,z
x,-y,-z
-x,y,-z
-x,-y,-z
x,y,-z
-x,y,z
x,-y,z
1/2+x,1/2+y,1/2+z
1/2-x,1/2-y,1/2+z
1/2+x,1/2-y,1/2-z
1/2-x,1/2+y,1/2-z
1/2-x,1/2-y,1/2-z
1/2+x,1/2+y,1/2-z
1/2-x,1/2+y,1/2+z
1/2+x,1/2-y,1/2+z
loop_
_atom_site_type_symbol
_atom_site_label
_atom_site_fract_x
_atom_site_fract_y
_atom_site_fract_z
Si Si1 0.927463 0.092825 0.113686
Si Si2 0.930921 0.898184 0.500000
Si Si3 0.072496 0.148703 0.253714
Si Si4 0.859598 0.903977 0.622517
Si Si5 0.840203 0.310542 0.255010
Si Si6 0.074531 0.401673 0.831969
Si Si7 0.861872 0.262590 0.073392
Si Si8 0.258474 0.729530 0.849692
O O1 0.919716 0.092742 0.190337
O O2 0.894273 0.170916 0.078649
O O3 0.000000 0.101006 0.094245
O O4 0.901045 0.000000 0.090546
O O5 0.897530 0.863529 0.563467
O O6 0.000000 0.857195 0.500000
O O7 0.934354 0.000000 0.500000
O O8 0.097203 0.096268 0.314326
O O9 0.114610 0.231090 0.242451
O O10 0.000000 0.175768 0.265236
O O11 0.795893 0.851733 0.626198
O O12 0.839063 0.000000 0.607400
O O13 0.885543 0.390497 0.235155
O O14 0.779902 0.306831 0.209886
O O15 0.808671 0.304812 0.326689
O O16 0.082653 0.500000 0.854613
O O17 0.103683 0.336120 0.884411
O O18 0.000000 0.380814 0.821778
O O19 0.789625 0.242801 0.094803
O O20 0.863302 0.293577 0.000000
#
# Coordination Sequence:
#
# PCOD8287123 Si02
#       8
#    16   8  16  16  16  16  16  16
#     4  10  20  34  54  80 106 132 170 221 275 328
#     4   9  18  32  46  66 104 142 170 211 262 310
#     4  10  17  30  53  77 101 130 166 213 268 321
#     4  10  20  31  47  73 103 138 177 214 255 313
#     4   9  17  33  52  73 101 131 166 216 270 309
#     4  10  20  35  56  81 109 141 179 223 272 325
#     4  11  23  38  55  74 107 150 184 223 268 310
#     4   9  19  33  51  70  97 136 178 213 257 312
#
# _framework density 17.353745
#
# number of rings (size 3 to 8) (size 9 to 14) (size 15 to 20)
#    0.000    2.200    2.667    1.600    0.933    5.067 
#    0.000    2.000    0.000    0.000    0.000    0.000 
#    0.000    0.000    0.000    1.467    0.000    0.000 
#
# Total GULP energy -743289.235656 kJ/mol
# GULP energy per Si atom -12388.153928 kJ/mol
# Density = 1.731425 g / cm^3
# Si number density = 17.353745 Si / 1000 Ang^3
#
#
#
# Elastic Constant Matrix: (Units=GPa)
#
#
# Indices 1 2 3 4 5 6 
#
# 1 115.5686 48.5819 40.9412 0.0000 0.0000 0.0000
# 2 48.5819 92.7340 29.6146 0.0000 0.0000 0.0000
# 3 40.9412 29.6146 75.6301 0.0000 0.0000 0.0000
# 4 0.0000 0.0000 0.0000 -281.1957 0.0000 0.0000
# 5 0.0000 0.0000 0.0000 0.0000 58.6868 0.0000
# 6 0.0000 0.0000 0.0000 0.0000 0.0000 55.7145
#
#
#
# Elastic Compliance Matrix: (Units=1/GPa)
#
#
# Indices 1 2 3 4 5 6 
#
# 1 0.012446 -0.004993 -0.004782 0.000000 0.000000 0.000000
# 2 -0.004993 0.014328 -0.002907 0.000000 0.000000 0.000000
# 3 -0.004782 -0.002907 0.016950 0.000000 0.000000 0.000000
# 4 0.000000 0.000000 0.000000 -0.003556 0.000000 0.000000
# 5 0.000000 0.000000 0.000000 0.000000 0.017040 0.000000
# 6 0.000000 0.000000 0.000000 0.000000 0.000000 0.017949
#
#
# Mechanical properties :
#
#
# Convention : Reuss Voigt Hill
#
# Bulk Modulus (GPa) = 54.47294 58.02312 56.24803
# Shear Modulus (GPa) = 46.88664 -22.37256 12.25704
#
# Velocity S-wave (km/s) = 5.20354 -3.59445 2.66052
# Velocity P-wave (km/s) = 8.21951 4.03502 6.47463
#
# Compressibility (1/GPa) = 0.01835774
#
# Stress axis : x y z
#
# Youngs Moduli (GPa) = 80.34717 69.79443 58.99860
#
# Poissons Ratio (x) = 0.34849 0.28215
# Poissons Ratio (y) = 0.40118 0.17154
# Poissons Ratio (z) = 0.38425 0.20292
#
# Static dielectric constant tensor:
#      x y z
#    x 3.504780 0.000000 0.000000 
#    y 0.000000 3.113050 0.000000 
#    z 0.000000 0.000000 4.322170 
# 
# 
# High freq. dielectric constant tensor:
#      x y z
#    x 1.683750 0.000000 0.000000 
#    y 0.000000 1.647540 0.000000 
#    z 0.000000 0.000000 1.657760 
# 
# From -- ./inp_files/53457.got.cif
#   From: 2010.06.25/outbox.cif.g09.slc.cpg/sg71_27_cif.got.tgz:53457.got - 2010.06.28 04:59:45.
