data_PCOD8287578
_publ_section_title
;
Structure prediction by ZEFSAII (Michael W. Deem and Ramdas Pophale) SiO2 
 PCOD8287578
Probable space group: I M M M
;
_chemical_formula_sum "Si O2"
_cell_formula_units_Z 120
_cell_length_a 21.884692
_cell_length_b 24.438960
_cell_length_c 13.426951
_cell_angle_alpha 90.000000
_cell_angle_beta 90.000000
_cell_angle_gamma 90.000000
_cell_volume 7181.258555
_symmetry_space_group_name_H-M "I M M M"
_symmetry_group_IT_number 71
_symmetry_cell_setting 'orthorhombic'
loop_
_space_group_symop_operation_xyz
x,y,z
-x,-y,z
x,-y,-z
-x,y,-z
-x,-y,-z
x,y,-z
-x,y,z
x,-y,z
1/2+x,1/2+y,1/2+z
1/2-x,1/2-y,1/2+z
1/2+x,1/2-y,1/2-z
1/2-x,1/2+y,1/2-z
1/2-x,1/2-y,1/2-z
1/2+x,1/2+y,1/2-z
1/2-x,1/2+y,1/2+z
1/2+x,1/2-y,1/2+z
loop_
_atom_site_type_symbol
_atom_site_label
_atom_site_fract_x
_atom_site_fract_y
_atom_site_fract_z
Si Si1 0.572512 0.000000 0.109493
Si Si2 0.182610 0.340568 0.615759
Si Si3 0.629634 0.063870 0.385447
Si Si4 0.433738 0.334929 0.884702
Si Si5 0.747404 0.116109 0.702334
Si Si6 0.688837 0.715407 0.115269
Si Si7 0.570436 0.888973 0.208083
Si Si8 0.639309 0.561598 0.114182
O O1 0.595465 0.945574 0.162367
O O2 0.500000 0.000000 0.108030
O O3 0.600848 0.000000 0.000000
O O4 0.185605 0.358289 0.500000
O O5 0.225709 0.380159 0.682090
O O6 0.205389 0.278538 0.629778
O O7 0.112767 0.342783 0.657417
O O8 0.612985 0.071554 0.500000
O O9 0.696934 0.086486 0.364537
O O10 0.581202 0.102059 0.325781
O O11 0.624743 0.000000 0.354977
O O12 0.500000 0.322856 0.833350
O O13 0.378569 0.298477 0.838711
O O14 0.418811 0.399286 0.869924
O O15 0.439877 0.320267 0.000000
O O16 0.759168 0.178362 0.666104
O O17 0.807859 0.079718 0.690918
O O18 0.687348 0.698465 0.000000
O O19 0.500000 0.874936 0.184852
O O20 0.618976 0.500000 0.139087
O O21 0.663410 0.566642 0.000000
#
# Coordination Sequence:
#
# PCOD8287578 Si02
#       8
#     8  16  16  16  16  16  16  16
#     4   9  16  28  45  59  77 109 144 176 212 257
#     4  10  21  33  46  65  87 114 152 193 225 259
#     4  10  19  30  47  70  93 117 148 187 228 271
#     4   8  14  24  39  63  94 122 144 167 200 248
#     4  10  18  30  47  65  90 118 150 184 222 267
#     4   9  17  30  47  67  91 119 148 179 220 265
#     4  10  20  33  47  65  88 115 150 186 225 270
#     4   9  16  26  43  66  91 120 148 174 210 259
#
# _framework density 16.710163000000001
#
# number of rings (size 3 to 8) (size 9 to 14) (size 15 to 20)
#    0.000    2.600    0.667    3.200    0.000    2.933 
#    0.000    3.333    0.000    0.000    0.000    0.000 
#    0.000    8.533    0.000    4.800    0.000    0.533 
#
# Total GULP energy -743565.763285 kJ/mol
# GULP energy per Si atom -12392.762721 kJ/mol
# Density = 1.667213 g / cm^3
# Si number density = 16.710163 Si / 1000 Ang^3
#
#
#
# Elastic Constant Matrix: (Units=GPa)
#
#
# Indices 1 2 3 4 5 6 
#
# 1 51.3079 -4.5769 19.0251 0.0000 0.0000 0.0000
# 2 -4.5769 40.7769 16.3416 0.0000 0.0000 0.0000
# 3 19.0251 16.3416 73.9645 0.0000 0.0000 0.0000
# 4 0.0000 0.0000 0.0000 20.5199 0.0000 0.0000
# 5 0.0000 0.0000 0.0000 0.0000 15.9876 0.0000
# 6 0.0000 0.0000 0.0000 0.0000 0.0000 18.8104
#
#
#
# Elastic Compliance Matrix: (Units=1/GPa)
#
#
# Indices 1 2 3 4 5 6 
#
# 1 0.022553 0.005328 -0.006978 0.000000 0.000000 0.000000
# 2 0.005328 0.028165 -0.007593 0.000000 0.000000 0.000000
# 3 -0.006978 -0.007593 0.016993 0.000000 0.000000 0.000000
# 4 0.000000 0.000000 0.000000 0.048733 0.000000 0.000000
# 5 0.000000 0.000000 0.000000 0.000000 0.062548 0.000000
# 6 0.000000 0.000000 0.000000 0.000000 0.000000 0.053162
#
#
# Mechanical properties :
#
#
# Convention : Reuss Voigt Hill
#
# Bulk Modulus (GPa) = 20.31551 25.29211 22.80381
# Shear Modulus (GPa) = 18.72320 20.08089 19.40204
#
# Velocity S-wave (km/s) = 3.35097 3.47034 3.41118
# Velocity P-wave (km/s) = 5.21114 5.58805 5.40288
#
# Compressibility (1/GPa) = 0.04922347
#
# Stress axis : x y z
#
# Youngs Moduli (GPa) = 44.34000 35.50546 58.84934
#
# Poissons Ratio (x) = -0.18917 0.41066
# Poissons Ratio (y) = -0.23624 0.44685
# Poissons Ratio (z) = 0.30941 0.26960
#
# Static dielectric constant tensor:
#      x y z
#    x 3.106940 0.000000 0.000000 
#    y 0.000000 3.168930 0.000000 
#    z 0.000000 0.000000 2.970430 
# 
# 
# High freq. dielectric constant tensor:
#      x y z
#    x 1.633350 0.000000 0.000000 
#    y 0.000000 1.643710 0.000000 
#    z 0.000000 0.000000 1.615110 
# 
# From -- ./inp_files/38563.got.cif
#   From: 2010.06.25/outbox.cif.g09.slc.cpg/sg71_20_cif.got.tgz:38563.got - 2010.06.28 04:59:45.
