data_PCOD8287871
_publ_section_title
;
Structure prediction by ZEFSAII (Michael W. Deem and Ramdas Pophale) SiO2 
 PCOD8287871
Probable space group: I M M M
;
_chemical_formula_sum "Si O2"
_cell_formula_units_Z 104
_cell_length_a 17.894077
_cell_length_b 19.156152
_cell_length_c 14.812227
_cell_angle_alpha 90.000000
_cell_angle_beta 90.000000
_cell_angle_gamma 90.000000
_cell_volume 5077.359743
_symmetry_space_group_name_H-M "I M M M"
_symmetry_group_IT_number 71
_symmetry_cell_setting 'orthorhombic'
loop_
_space_group_symop_operation_xyz
x,y,z
-x,-y,z
x,-y,-z
-x,y,-z
-x,-y,-z
x,y,-z
-x,y,z
x,-y,z
1/2+x,1/2+y,1/2+z
1/2-x,1/2-y,1/2+z
1/2+x,1/2-y,1/2-z
1/2-x,1/2+y,1/2-z
1/2-x,1/2-y,1/2-z
1/2+x,1/2+y,1/2-z
1/2-x,1/2+y,1/2+z
1/2+x,1/2-y,1/2+z
loop_
_atom_site_type_symbol
_atom_site_label
_atom_site_fract_x
_atom_site_fract_y
_atom_site_fract_z
Si Si1 0.914344 0.678263 0.856063
Si Si2 0.287848 0.920961 0.400346
Si Si3 0.089231 0.578136 0.500000
Si Si4 0.087378 0.318897 0.349776
Si Si5 0.586775 0.338908 0.395844
Si Si6 0.585950 0.329382 0.902741
Si Si7 0.158256 0.917815 0.264223
O O1 0.860754 0.626966 0.909919
O O2 0.896235 0.662267 0.752503
O O3 0.896406 0.757705 0.881344
O O4 0.000000 0.661171 0.880974
O O5 0.248719 0.917468 0.500000
O O6 0.233767 0.895493 0.318448
O O7 0.312877 0.000000 0.379306
O O8 0.123293 0.500000 0.500000
O O9 0.120382 0.619484 0.587536
O O10 0.000000 0.573669 0.500000
O O11 0.124747 0.243626 0.371942
O O12 0.000000 0.314030 0.368896
O O13 0.601772 0.359313 0.500000
O O14 0.500000 0.355191 0.370079
O O15 0.645097 0.382061 0.333405
O O16 0.500000 0.312931 0.912631
O O17 0.593454 0.390852 0.830210
O O18 0.619445 0.351836 0.000000
O O19 0.152638 0.000000 0.250964
#
# Coordination Sequence:
#
# PCOD8287871 Si02
#       7
#    16  16   8  16  16  16  16
#     4  10  20  37  63  90 117 152 201 255 305 363
#     4  10  23  42  61  85 120 159 198 248 310 365
#     4   9  16  26  44  74 113 153 191 233 285 352
#     4   9  16  29  50  78 111 148 188 234 293 349
#     4  10  21  38  62  93 126 159 199 252 308 358
#     4  10  18  31  54  82 116 154 193 241 295 349
#     4  11  23  39  59  83 118 161 202 245 299 365
#
# _framework density 20.483087000000001
#
# number of rings (size 3 to 8) (size 9 to 14) (size 15 to 20)
#    0.000    2.077    2.308    1.385    0.000    4.923 
#    0.000    3.846    1.692    0.000    0.000    0.000 
#    0.000    0.000    0.000    0.000    0.000    0.000 
#
# Total GULP energy -644347.276343 kJ/mol
# GULP energy per Si atom -12391.293776 kJ/mol
# Density = 2.043647 g / cm^3
# Si number density = 20.483087 Si / 1000 Ang^3
#
#
#
# Elastic Constant Matrix: (Units=GPa)
#
#
# Indices 1 2 3 4 5 6 
#
# 1 57.5699 51.1432 41.1983 0.0000 0.0000 0.0000
# 2 51.1432 103.7659 59.6321 0.0000 0.0000 0.0000
# 3 41.1983 59.6321 135.7252 0.0000 0.0000 0.0000
# 4 0.0000 0.0000 0.0000 28.9160 0.0000 0.0000
# 5 0.0000 0.0000 0.0000 0.0000 22.5998 0.0000
# 6 0.0000 0.0000 0.0000 0.0000 0.0000 25.6666
#
#
#
# Elastic Compliance Matrix: (Units=1/GPa)
#
#
# Indices 1 2 3 4 5 6 
#
# 1 0.032270 -0.013747 -0.003756 0.000000 0.000000 0.000000
# 2 -0.013747 0.018748 -0.004065 0.000000 0.000000 0.000000
# 3 -0.003756 -0.004065 0.010294 0.000000 0.000000 0.000000
# 4 0.000000 0.000000 0.000000 0.034583 0.000000 0.000000
# 5 0.000000 0.000000 0.000000 0.000000 0.044248 0.000000
# 6 0.000000 0.000000 0.000000 0.000000 0.000000 0.038961
#
#
# Mechanical properties :
#
#
# Convention : Reuss Voigt Hill
#
# Bulk Modulus (GPa) = 55.01092 66.77870 60.89481
# Shear Modulus (GPa) = 21.90134 25.10897 23.50515
#
# Velocity S-wave (km/s) = 3.27347 3.50500 3.39121
# Velocity P-wave (km/s) = 6.41892 7.00376 6.71771
#
# Compressibility (1/GPa) = 0.01817821
#
# Stress axis : x y z
#
# Youngs Moduli (GPa) = 30.98874 53.33852 97.14801
#
# Poissons Ratio (x) = 0.73322 0.36484
# Poissons Ratio (y) = 0.42599 0.39486
# Poissons Ratio (z) = 0.11638 0.21679
#
# Static dielectric constant tensor:
#      x y z
#    x 3.285200 0.000000 0.000000 
#    y 0.000000 3.693900 0.000000 
#    z 0.000000 0.000000 4.038310 
# 
# 
# High freq. dielectric constant tensor:
#      x y z
#    x 1.755550 0.000000 0.000000 
#    y 0.000000 1.798470 0.000000 
#    z 0.000000 0.000000 1.819090 
# 
# From -- ./inp_files/36690.got.cif
#   From: 2010.06.25/outbox.cif.g09.slc.cpg/sg71_19_cif.got.tgz:36690.got - 2010.06.28 04:59:45.
