data_PCOD8287124
_publ_section_title
;
Structure prediction by ZEFSAII (Michael W. Deem and Ramdas Pophale) SiO2 
 PCOD8287124
Probable space group: I M M M
;
_chemical_formula_sum "Si O2"
_cell_formula_units_Z 104
_cell_length_a 9.118165
_cell_length_b 25.282187
_cell_length_c 23.676286
_cell_angle_alpha 90.000000
_cell_angle_beta 90.000000
_cell_angle_gamma 90.000000
_cell_volume 5458.026796
_symmetry_space_group_name_H-M "I M M M"
_symmetry_group_IT_number 71
_symmetry_cell_setting 'orthorhombic'
loop_
_space_group_symop_operation_xyz
x,y,z
-x,-y,z
x,-y,-z
-x,y,-z
-x,-y,-z
x,y,-z
-x,y,z
x,-y,z
1/2+x,1/2+y,1/2+z
1/2-x,1/2-y,1/2+z
1/2+x,1/2-y,1/2-z
1/2-x,1/2+y,1/2-z
1/2-x,1/2-y,1/2-z
1/2+x,1/2+y,1/2-z
1/2-x,1/2+y,1/2+z
1/2+x,1/2-y,1/2+z
loop_
_atom_site_type_symbol
_atom_site_label
_atom_site_fract_x
_atom_site_fract_y
_atom_site_fract_z
Si Si1 0.171994 0.355578 0.183428
Si Si2 0.673916 0.896505 0.000000
Si Si3 0.667737 0.287014 0.500000
Si Si4 0.172825 0.343397 0.312068
Si Si5 0.334848 0.937218 0.500000
Si Si6 0.825555 0.558313 0.382768
Si Si7 0.169409 0.750493 0.122283
Si Si8 0.671344 0.561707 0.888048
O O1 0.218746 0.341028 0.246911
O O2 0.218655 0.306917 0.143789
O O3 0.262102 0.407149 0.164960
O O4 0.000000 0.368710 0.179380
O O5 0.727341 0.836810 0.000000
O O6 0.733878 0.926648 0.944886
O O7 0.500000 0.894787 0.000000
O O8 0.500000 0.306890 0.500000
O O9 0.700750 0.251926 0.555316
O O10 0.232067 0.398753 0.337770
O O11 0.241321 0.294957 0.345321
O O12 0.000000 0.338960 0.320080
O O13 0.500000 0.913888 0.500000
O O14 0.250467 0.917119 0.555405
O O15 0.338046 0.000000 0.500000
O O16 0.765360 0.500000 0.366427
O O17 0.000000 0.557676 0.383392
O O18 0.000000 0.760334 0.136546
O O19 0.500000 0.573221 0.894207
O O20 0.702708 0.500000 0.877836
#
# Coordination Sequence:
#
# PCOD8287124 Si02
#       8
#    16   8   8  16   8  16  16  16
#     4  10  22  37  55  81 109 145 191 233 276 332
#     4  10  17  30  53  77 103 138 178 220 272 332
#     4  10  20  34  54  77 106 143 176 219 279 336
#     4  10  20  35  56  80 106 140 186 234 279 330
#     4   9  17  32  57  84 109 142 180 219 269 328
#     4   9  17  29  49  79 109 137 174 223 276 330
#     4  10  21  37  55  77 107 142 182 228 284 343
#     4  10  21  37  57  83 115 148 183 227 280 334
#
# _framework density 19.054506
#
# number of rings (size 3 to 8) (size 9 to 14) (size 15 to 20)
#    0.000    2.231    1.538    1.385    0.000    5.231 
#    0.000    3.077    0.000    2.308    0.000    0.000 
#    0.000    0.000    0.000    0.000    0.000    0.000 
#
# Total GULP energy -644874.422944 kJ/mol
# GULP energy per Si atom -12401.431210 kJ/mol
# Density = 1.901114 g / cm^3
# Si number density = 19.054506 Si / 1000 Ang^3
#
#
#
# Elastic Constant Matrix: (Units=GPa)
#
#
# Indices 1 2 3 4 5 6 
#
# 1 54.6456 38.2327 46.6974 0.0000 0.0000 0.0000
# 2 38.2327 109.3916 65.0600 0.0000 0.0000 0.0000
# 3 46.6974 65.0600 142.6891 0.0000 0.0000 0.0000
# 4 0.0000 0.0000 0.0000 24.9819 0.0000 0.0000
# 5 0.0000 0.0000 0.0000 0.0000 24.2264 0.0000
# 6 0.0000 0.0000 0.0000 0.0000 0.0000 29.5185
#
#
#
# Elastic Compliance Matrix: (Units=1/GPa)
#
#
# Indices 1 2 3 4 5 6 
#
# 1 0.027961 -0.005941 -0.006442 0.000000 0.000000 0.000000
# 2 -0.005941 0.013805 -0.004350 0.000000 0.000000 0.000000
# 3 -0.006442 -0.004350 0.011100 0.000000 0.000000 0.000000
# 4 0.000000 0.000000 0.000000 0.040029 0.000000 0.000000
# 5 0.000000 0.000000 0.000000 0.000000 0.041277 0.000000
# 6 0.000000 0.000000 0.000000 0.000000 0.000000 0.033877
#
#
# Mechanical properties :
#
#
# Convention : Reuss Voigt Hill
#
# Bulk Modulus (GPa) = 51.54677 67.41185 59.47931
# Shear Modulus (GPa) = 24.04038 26.19444 25.11741
#
# Velocity S-wave (km/s) = 3.55584 3.71173 3.63462
# Velocity P-wave (km/s) = 6.63097 7.33652 6.99265
#
# Compressibility (1/GPa) = 0.01939986
#
# Stress axis : x y z
#
# Youngs Moduli (GPa) = 35.76349 72.43631 90.09053
#
# Poissons Ratio (x) = 0.43037 0.58035
# Poissons Ratio (y) = 0.21248 0.39191
# Poissons Ratio (z) = 0.23038 0.31511
#
# Static dielectric constant tensor:
#      x y z
#    x 3.291000 0.000000 0.000000 
#    y 0.000000 3.502430 0.000000 
#    z 0.000000 0.000000 3.722830 
# 
# 
# High freq. dielectric constant tensor:
#      x y z
#    x 1.717660 0.000000 0.000000 
#    y 0.000000 1.739840 0.000000 
#    z 0.000000 0.000000 1.751690 
# 
# From -- ./inp_files/51001.got.cif
#   From: 2010.06.25/outbox.cif.g09.slc.cpg/sg71_26_cif.got.tgz:51001.got - 2010.06.28 04:59:45.
