data_PCOD8287898
_publ_section_title
;
Structure prediction by ZEFSAII (Michael W. Deem and Ramdas Pophale) SiO2 
 PCOD8287898
Probable space group: I M M M
;
_chemical_formula_sum "Si O2"
_cell_formula_units_Z 104
_cell_length_a 16.771080
_cell_length_b 17.523448
_cell_length_c 20.935368
_cell_angle_alpha 90.000000
_cell_angle_beta 90.000000
_cell_angle_gamma 90.000000
_cell_volume 6152.635600
_symmetry_space_group_name_H-M "I M M M"
_symmetry_group_IT_number 71
_symmetry_cell_setting 'orthorhombic'
loop_
_space_group_symop_operation_xyz
x,y,z
-x,-y,z
x,-y,-z
-x,y,-z
-x,-y,-z
x,y,-z
-x,y,z
x,-y,z
1/2+x,1/2+y,1/2+z
1/2-x,1/2-y,1/2+z
1/2+x,1/2-y,1/2-z
1/2-x,1/2+y,1/2-z
1/2-x,1/2-y,1/2-z
1/2+x,1/2+y,1/2-z
1/2-x,1/2+y,1/2+z
1/2+x,1/2-y,1/2+z
loop_
_atom_site_type_symbol
_atom_site_label
_atom_site_fract_x
_atom_site_fract_y
_atom_site_fract_z
Si Si1 0.088696 0.215301 0.645207
Si Si2 0.410474 0.139138 0.229533
Si Si3 0.260887 0.914083 0.838627
Si Si4 0.826850 0.086248 0.287935
Si Si5 0.327888 0.135161 0.640316
Si Si6 0.412436 0.000000 0.425822
Si Si7 0.238816 0.268419 0.424774
O O1 0.098235 0.278208 0.699221
O O2 0.102697 0.136890 0.683180
O O3 0.152069 0.231373 0.589045
O O4 0.000000 0.214435 0.614944
O O5 0.500000 0.106085 0.221541
O O6 0.348668 0.083619 0.193721
O O7 0.391200 0.150132 0.303843
O O8 0.196150 0.890758 0.784682
O O9 0.254703 0.853566 0.895848
O O10 0.244695 0.000000 0.864574
O O11 0.750244 0.095900 0.332054
O O12 0.857316 0.000000 0.290250
O O13 0.307103 0.214852 0.605468
O O14 0.365224 0.076430 0.590911
O O15 0.500000 0.000000 0.392537
O O16 0.424267 0.000000 0.500000
O O17 0.251500 0.274807 0.500000
#
# Coordination Sequence:
#
# PCOD8287898 Si02
#       7
#    16  16  16  16  16   8  16
#     4   9  18  31  47  69  95 121 158 205 246 287
#     4   9  17  29  48  72  97 124 152 194 250 297
#     4   9  18  31  48  74 101 123 157 202 243 291
#     4   9  16  29  49  71  93 120 151 196 252 291
#     4  10  18  32  48  69  92 126 163 196 230 288
#     4  11  22  32  44  68 101 129 154 192 235 280
#     4  10  20  33  50  67  92 135 172 198 235 283
#
# _framework density 16.903324999999999
#
# number of rings (size 3 to 8) (size 9 to 14) (size 15 to 20)
#    0.000    2.538    0.769    1.846    1.077    4.923 
#    0.000    0.000    0.000    0.000    0.000    6.462 
#    0.000    0.000    0.000   19.538    0.000    0.000 
#
# Total GULP energy -644621.470285 kJ/mol
# GULP energy per Si atom -12396.566736 kJ/mol
# Density = 1.686485 g / cm^3
# Si number density = 16.903325 Si / 1000 Ang^3
#
#
#
# Elastic Constant Matrix: (Units=GPa)
#
#
# Indices 1 2 3 4 5 6 
#
# 1 40.0728 23.0654 9.5167 0.0000 0.0000 0.0000
# 2 23.0654 91.6565 33.4760 0.0000 0.0000 0.0000
# 3 9.5167 33.4760 81.6856 0.0000 0.0000 0.0000
# 4 0.0000 0.0000 0.0000 18.4629 0.0000 0.0000
# 5 0.0000 0.0000 0.0000 0.0000 16.0766 0.0000
# 6 0.0000 0.0000 0.0000 0.0000 0.0000 19.9906
#
#
#
# Elastic Compliance Matrix: (Units=1/GPa)
#
#
# Indices 1 2 3 4 5 6 
#
# 1 0.029196 -0.007179 -0.000459 0.000000 0.000000 0.000000
# 2 -0.007179 0.014596 -0.005145 0.000000 0.000000 0.000000
# 3 -0.000459 -0.005145 0.014404 0.000000 0.000000 0.000000
# 4 0.000000 0.000000 0.000000 0.054163 0.000000 0.000000
# 5 0.000000 0.000000 0.000000 0.000000 0.062202 0.000000
# 6 0.000000 0.000000 0.000000 0.000000 0.000000 0.050023
#
#
# Mechanical properties :
#
#
# Convention : Reuss Voigt Hill
#
# Bulk Modulus (GPa) = 30.64809 38.39235 34.52022
# Shear Modulus (GPa) = 19.15498 20.72983 19.94240
#
# Velocity S-wave (km/s) = 3.36997 3.50576 3.43854
# Velocity P-wave (km/s) = 5.77174 6.25695 6.01923
#
# Compressibility (1/GPa) = 0.03262846
#
# Stress axis : x y z
#
# Youngs Moduli (GPa) = 34.25122 68.51070 69.42425
#
# Poissons Ratio (x) = 0.49187 0.03188
# Poissons Ratio (y) = 0.24591 0.35721
# Poissons Ratio (z) = 0.01573 0.35251
#
# Static dielectric constant tensor:
#      x y z
#    x 3.267520 0.000000 0.000000 
#    y 0.000000 3.222180 0.000000 
#    z 0.000000 0.000000 2.954540 
# 
# 
# High freq. dielectric constant tensor:
#      x y z
#    x 1.641640 0.000000 0.000000 
#    y 0.000000 1.657690 0.000000 
#    z 0.000000 0.000000 1.634320 
# 
# From -- ./inp_files/46117.got.cif
#   From: 2010.06.25/outbox.cif.g09.slc.cpg/sg71_24_cif.got.tgz:46117.got - 2010.06.28 04:59:45.
