data_PCOD8287794
_publ_section_title
;
Structure prediction by ZEFSAII (Michael W. Deem and Ramdas Pophale) SiO2 
 PCOD8287794
Probable space group: I M M M
;
_chemical_formula_sum "Si O2"
_cell_formula_units_Z 88
_cell_length_a 28.797684
_cell_length_b 9.130068
_cell_length_c 18.389992
_cell_angle_alpha 90.000000
_cell_angle_beta 90.000000
_cell_angle_gamma 90.000000
_cell_volume 4835.185211
_symmetry_space_group_name_H-M "I M M M"
_symmetry_group_IT_number 71
_symmetry_cell_setting 'orthorhombic'
loop_
_space_group_symop_operation_xyz
x,y,z
-x,-y,z
x,-y,-z
-x,y,-z
-x,-y,-z
x,y,-z
-x,y,z
x,-y,z
1/2+x,1/2+y,1/2+z
1/2-x,1/2-y,1/2+z
1/2+x,1/2-y,1/2-z
1/2-x,1/2+y,1/2-z
1/2-x,1/2-y,1/2-z
1/2+x,1/2+y,1/2-z
1/2-x,1/2+y,1/2+z
1/2+x,1/2-y,1/2+z
loop_
_atom_site_type_symbol
_atom_site_label
_atom_site_fract_x
_atom_site_fract_y
_atom_site_fract_z
Si Si1 0.947823 0.325998 0.419721
Si Si2 0.792228 0.828067 0.920717
Si Si3 0.447364 0.326277 0.500000
Si Si4 0.781111 0.670711 0.307655
Si Si5 0.611067 0.326032 0.640027
Si Si6 0.114171 0.674406 0.712205
O O1 0.930615 0.273295 0.500000
O O2 0.946719 0.500000 0.417623
O O3 0.915543 0.264094 0.355574
O O4 0.000000 0.268995 0.406131
O O5 0.742470 0.792314 0.885101
O O6 0.836151 0.770877 0.874251
O O7 0.799508 0.000000 0.929344
O O8 0.792593 0.753159 0.000000
O O9 0.447601 0.500000 0.500000
O O10 0.500000 0.264264 0.500000
O O11 0.420949 0.272168 0.427221
O O12 0.779214 0.500000 0.290488
O O13 0.750000 0.750000 0.250000
O O14 0.833605 0.727710 0.305139
O O15 0.607485 0.500000 0.650600
O O16 0.594706 0.247483 0.714095
O O17 0.110549 0.500000 0.719931
#
# Coordination Sequence:
#
# PCOD8287794 Si02
#       6
#    16  16   8  16  16  16
#     4   8  15  30  51  72  97 129 160 194 242 295
#     4   9  16  28  47  68  88 120 165 198 226 276
#     4   9  18  32  51  75  99 125 169 221 250 278
#     4  10  19  30  46  69  97 126 155 194 238 279
#     4  10  18  31  51  70  93 131 168 198 242 295
#     4  10  20  31  48  77 104 124 158 207 247 285
#
# _framework density 18.199922999999998
#
# number of rings (size 3 to 8) (size 9 to 14) (size 15 to 20)
#    0.000    2.636    2.727    0.545    0.000    1.455 
#    0.000    4.091    0.000    2.727    0.000    3.818 
#    0.000    0.000    0.000    0.000    0.000    0.000 
#
# Total GULP energy -545344.178008 kJ/mol
# GULP energy per Si atom -12394.185864 kJ/mol
# Density = 1.815850 g / cm^3
# Si number density = 18.199923 Si / 1000 Ang^3
#
#
#
# Elastic Constant Matrix: (Units=GPa)
#
#
# Indices 1 2 3 4 5 6 
#
# 1 124.5891 18.7044 84.0602 0.0000 0.0000 0.0000
# 2 18.7044 14.5021 26.8592 0.0000 0.0000 0.0000
# 3 84.0602 26.8592 180.3348 0.0000 0.0000 0.0000
# 4 0.0000 0.0000 0.0000 23.6418 0.0000 0.0000
# 5 0.0000 0.0000 0.0000 0.0000 33.0922 0.0000
# 6 0.0000 0.0000 0.0000 0.0000 0.0000 13.8504
#
#
#
# Elastic Compliance Matrix: (Units=1/GPa)
#
#
# Indices 1 2 3 4 5 6 
#
# 1 0.012230 -0.007202 -0.004628 0.000000 0.000000 0.000000
# 2 -0.007202 0.099464 -0.011457 0.000000 0.000000 0.000000
# 3 -0.004628 -0.011457 0.009409 0.000000 0.000000 0.000000
# 4 0.000000 0.000000 0.000000 0.042298 0.000000 0.000000
# 5 0.000000 0.000000 0.000000 0.000000 0.030219 0.000000
# 6 0.000000 0.000000 0.000000 0.000000 0.000000 0.072200
#
#
# Mechanical properties :
#
#
# Convention : Reuss Voigt Hill
#
# Bulk Modulus (GPa) = 13.41775 64.29706 38.85740
# Shear Modulus (GPa) = 14.82634 26.77037 20.79835
#
# Velocity S-wave (km/s) = 2.85728 3.83940 3.38416
# Velocity P-wave (km/s) = 4.27479 7.42021 6.05530
#
# Compressibility (1/GPa) = 0.07452816
#
# Stress axis : x y z
#
# Youngs Moduli (GPa) = 81.76385 10.05390 106.28074
#
# Poissons Ratio (x) = 0.07241 0.49189
# Poissons Ratio (y) = 0.58889 1.21766
# Poissons Ratio (z) = 0.37842 0.11519
#
# Static dielectric constant tensor:
#      x y z
#    x 3.995210 0.000000 0.000000 
#    y 0.000000 2.833590 0.000000 
#    z 0.000000 0.000000 3.656550 
# 
# 
# High freq. dielectric constant tensor:
#      x y z
#    x 1.707480 0.000000 0.000000 
#    y 0.000000 1.646670 0.000000 
#    z 0.000000 0.000000 1.720230 
# 
# From -- ./inp_files/16618.got.cif
#   From: 2010.06.25/outbox.cif.g09.slc.cpg/sg71_9_cif.got.tgz:16618.got - 2010.06.28 04:59:45.
