data_PCOD8287582
_publ_section_title
;
Structure prediction by ZEFSAII (Michael W. Deem and Ramdas Pophale) SiO2 
 PCOD8287582
Probable space group: I M M M
;
_chemical_formula_sum "Si O2"
_cell_formula_units_Z 72
_cell_length_a 27.546617
_cell_length_b 18.976834
_cell_length_c 8.862439
_cell_angle_alpha 90.000000
_cell_angle_beta 90.000000
_cell_angle_gamma 90.000000
_cell_volume 4632.818523
_symmetry_space_group_name_H-M "I M M M"
_symmetry_group_IT_number 71
_symmetry_cell_setting 'orthorhombic'
loop_
_space_group_symop_operation_xyz
x,y,z
-x,-y,z
x,-y,-z
-x,y,-z
-x,-y,-z
x,y,-z
-x,y,z
x,-y,z
1/2+x,1/2+y,1/2+z
1/2-x,1/2-y,1/2+z
1/2+x,1/2-y,1/2-z
1/2-x,1/2+y,1/2-z
1/2-x,1/2-y,1/2-z
1/2+x,1/2+y,1/2-z
1/2-x,1/2+y,1/2+z
1/2+x,1/2-y,1/2+z
loop_
_atom_site_type_symbol
_atom_site_label
_atom_site_fract_x
_atom_site_fract_y
_atom_site_fract_z
Si Si1 0.674210 0.776574 0.175532
Si Si2 0.725032 0.345840 0.672992
Si Si3 0.845119 0.500000 0.823563
Si Si4 0.000000 0.581978 0.320779
Si Si5 0.097025 0.366900 0.820648
Si Si6 0.245401 0.000000 0.171051
O O1 0.688172 0.697008 0.222066
O O2 0.719118 0.828330 0.217429
O O3 0.625727 0.797387 0.266783
O O4 0.661929 0.778875 0.000000
O O5 0.716180 0.323443 0.500000
O O6 0.714255 0.429019 0.698575
O O7 0.871156 0.568461 0.756944
O O8 0.789080 0.500000 0.786432
O O9 0.852017 0.500000 0.000000
O O10 0.954891 0.625668 0.256604
O O11 0.000000 0.500000 0.264851
O O12 0.000000 0.584856 0.500000
O O13 0.090661 0.365656 0.000000
O O14 0.265996 0.000000 0.000000
#
# Coordination Sequence:
#
# PCOD8287582 Si02
#       6
#    16  16   8   8  16   8
#     4  10  19  31  47  66  91 123 158 194 234 280
#     4   9  18  30  45  66  92 122 156 194 235 278
#     4  10  20  29  43  66  91 122 157 195 236 277
#     4  11  23  35  49  69  93 122 159 200 237 275
#     4  11  21  34  49  66  92 124 160 199 238 279
#     4  10  18  30  47  67  92 123 160 198 234 277
#
# _framework density 15.541296000000001
#
# number of rings (size 3 to 8) (size 9 to 14) (size 15 to 20)
#    0.000    1.889    3.333    1.667    0.000    3.111 
#    0.000    0.000    0.000    0.000    0.000    0.000 
#    0.000    0.889    0.000    9.556    0.000    4.222 
#
# Total GULP energy -446389.249026 kJ/mol
# GULP energy per Si atom -12399.701362 kJ/mol
# Density = 1.550592 g / cm^3
# Si number density = 15.541296 Si / 1000 Ang^3
#
#
#
# Elastic Constant Matrix: (Units=GPa)
#
#
# Indices 1 2 3 4 5 6 
#
# 1 84.5965 40.0483 35.8164 0.0000 0.0000 0.0000
# 2 40.0483 96.6594 29.3149 0.0000 0.0000 0.0000
# 3 35.8164 29.3149 60.2307 0.0000 0.0000 0.0000
# 4 0.0000 0.0000 0.0000 21.6942 0.0000 0.0000
# 5 0.0000 0.0000 0.0000 0.0000 26.3388 0.0000
# 6 0.0000 0.0000 0.0000 0.0000 0.0000 20.3829
#
#
#
# Elastic Compliance Matrix: (Units=1/GPa)
#
#
# Indices 1 2 3 4 5 6 
#
# 1 0.017516 -0.004808 -0.008076 0.000000 0.000000 0.000000
# 2 -0.004808 0.013457 -0.003690 0.000000 0.000000 0.000000
# 3 -0.008076 -0.003690 0.023201 0.000000 0.000000 0.000000
# 4 0.000000 0.000000 0.000000 0.046095 0.000000 0.000000
# 5 0.000000 0.000000 0.000000 0.000000 0.037967 0.000000
# 6 0.000000 0.000000 0.000000 0.000000 0.000000 0.049061
#
#
# Mechanical properties :
#
#
# Convention : Reuss Voigt Hill
#
# Bulk Modulus (GPa) = 47.56121 50.20510 48.88316
# Shear Modulus (GPa) = 21.98237 22.77029 22.37633
#
# Velocity S-wave (km/s) = 3.76500 3.83188 3.79858
# Velocity P-wave (km/s) = 7.04058 7.20778 7.12467
#
# Compressibility (1/GPa) = 0.02102554
#
# Stress axis : x y z
#
# Youngs Moduli (GPa) = 57.09011 74.31087 43.10086
#
# Poissons Ratio (x) = 0.35729 0.34808
# Poissons Ratio (y) = 0.27450 0.15906
# Poissons Ratio (z) = 0.46105 0.27424
#
# Static dielectric constant tensor:
#      x y z
#    x 2.702600 0.000000 0.000000 
#    y 0.000000 3.005400 0.000000 
#    z 0.000000 0.000000 2.954010 
# 
# 
# High freq. dielectric constant tensor:
#      x y z
#    x 1.561050 0.000000 0.000000 
#    y 0.000000 1.584250 0.000000 
#    z 0.000000 0.000000 1.605850 
# 
# From -- ./inp_files/8217.got.cif
#   From: 2010.06.25/outbox.cif.g09.slc.cpg/sg71_5_cif.got.tgz:8217.got - 2010.06.28 04:59:45.
