data_PCOD8287473
_publ_section_title
;
Structure prediction by ZEFSAII (Michael W. Deem and Ramdas Pophale) SiO2 
 PCOD8287473
Probable space group: I M M M
;
_chemical_formula_sum "Si O2"
_cell_formula_units_Z 120
_cell_length_a 22.229672
_cell_length_b 18.182310
_cell_length_c 17.793905
_cell_angle_alpha 90.000000
_cell_angle_beta 90.000000
_cell_angle_gamma 90.000000
_cell_volume 7192.061299
_symmetry_space_group_name_H-M "I M M M"
_symmetry_group_IT_number 71
_symmetry_cell_setting 'orthorhombic'
loop_
_space_group_symop_operation_xyz
x,y,z
-x,-y,z
x,-y,-z
-x,y,-z
-x,-y,-z
x,y,-z
-x,y,z
x,-y,z
1/2+x,1/2+y,1/2+z
1/2-x,1/2-y,1/2+z
1/2+x,1/2-y,1/2-z
1/2-x,1/2+y,1/2-z
1/2-x,1/2-y,1/2-z
1/2+x,1/2+y,1/2-z
1/2-x,1/2+y,1/2+z
1/2+x,1/2-y,1/2+z
loop_
_atom_site_type_symbol
_atom_site_label
_atom_site_fract_x
_atom_site_fract_y
_atom_site_fract_z
Si Si1 0.784513 0.580570 0.762135
Si Si2 0.165498 0.614627 0.085042
Si Si3 0.568922 0.278039 0.912654
Si Si4 0.699911 0.277714 0.415038
Si Si5 0.177705 0.720011 0.675166
Si Si6 0.335397 0.357291 0.279401
Si Si7 0.066222 0.500000 0.087413
Si Si8 0.931095 0.918242 0.321867
O O1 0.809979 0.500000 0.740635
O O2 0.786056 0.590546 0.852672
O O3 0.822430 0.641306 0.716577
O O4 0.714984 0.582650 0.738868
O O5 0.161028 0.702742 0.087765
O O6 0.102918 0.574521 0.108599
O O7 0.184799 0.589870 0.000000
O O8 0.500000 0.256715 0.892493
O O9 0.614177 0.224925 0.868244
O O10 0.581947 0.363107 0.890797
O O11 0.581726 0.269384 0.000000
O O12 0.705878 0.306139 0.500000
O O13 0.767231 0.268925 0.382221
O O14 0.663024 0.338964 0.368093
O O15 0.183616 0.781853 0.738449
O O16 0.398579 0.389627 0.253246
O O17 0.000000 0.500000 0.127360
O O18 0.054772 0.500000 0.000000
O O19 0.000000 0.918754 0.298783
O O20 0.909661 0.000000 0.345788
#
# Coordination Sequence:
#
# PCOD8287473 Si02
#       8
#    16  16  16  16  16  16   8  16
#     4  11  19  30  49  72 100 131 163 202 249 296
#     4  10  18  29  47  71  96 125 160 200 244 294
#     4   9  18  32  52  75  99 131 166 199 239 290
#     4  10  18  30  50  73  95 124 163 208 249 286
#     4  10  18  32  49  71 100 134 163 203 243 299
#     4  10  18  32  49  71 100 133 164 200 246 297
#     4   9  18  32  46  62  96 138 162 186 238 299
#     4   9  18  32  50  73 102 132 160 192 238 298
#
# _framework density 16.685063
#
# number of rings (size 3 to 8) (size 9 to 14) (size 15 to 20)
#    0.000    2.200    3.333    1.600    0.000    0.267 
#    0.000    2.667    0.000   16.400    0.000    1.867 
#    0.000    0.000    0.000    0.000    0.000    0.000 
#
# Total GULP energy -743630.931498 kJ/mol
# GULP energy per Si atom -12393.848858 kJ/mol
# Density = 1.664709 g / cm^3
# Si number density = 16.685063 Si / 1000 Ang^3
#
#
#
# Elastic Constant Matrix: (Units=GPa)
#
#
# Indices 1 2 3 4 5 6 
#
# 1 54.5276 29.4743 32.9377 0.0000 0.0000 0.0000
# 2 29.4743 89.7628 39.8474 0.0000 0.0000 0.0000
# 3 32.9377 39.8474 100.8687 0.0000 0.0000 0.0000
# 4 0.0000 0.0000 0.0000 17.7140 0.0000 0.0000
# 5 0.0000 0.0000 0.0000 0.0000 21.1490 0.0000
# 6 0.0000 0.0000 0.0000 0.0000 0.0000 21.6243
#
#
#
# Elastic Compliance Matrix: (Units=1/GPa)
#
#
# Indices 1 2 3 4 5 6 
#
# 1 0.024931 -0.005545 -0.005951 0.000000 0.000000 0.000000
# 2 -0.005545 0.014743 -0.004013 0.000000 0.000000 0.000000
# 3 -0.005951 -0.004013 0.013442 0.000000 0.000000 0.000000
# 4 0.000000 0.000000 0.000000 0.056453 0.000000 0.000000
# 5 0.000000 0.000000 0.000000 0.000000 0.047284 0.000000
# 6 0.000000 0.000000 0.000000 0.000000 0.000000 0.046244
#
#
# Mechanical properties :
#
#
# Convention : Reuss Voigt Hill
#
# Bulk Modulus (GPa) = 45.25144 49.96419 47.60781
# Shear Modulus (GPa) = 20.70564 21.62411 21.16488
#
# Velocity S-wave (km/s) = 3.52656 3.60393 3.56545
# Velocity P-wave (km/s) = 6.61528 6.87955 6.74871
#
# Compressibility (1/GPa) = 0.02209875
#
# Stress axis : x y z
#
# Youngs Moduli (GPa) = 40.11085 67.82992 74.39116
#
# Poissons Ratio (x) = 0.37610 0.44267
# Poissons Ratio (y) = 0.22240 0.29857
# Poissons Ratio (z) = 0.23868 0.27223
#
# Static dielectric constant tensor:
#      x y z
#    x 3.136010 0.000000 0.000000 
#    y 0.000000 3.151970 0.000000 
#    z 0.000000 0.000000 3.149440 
# 
# 
# High freq. dielectric constant tensor:
#      x y z
#    x 1.629730 0.000000 0.000000 
#    y 0.000000 1.635090 0.000000 
#    z 0.000000 0.000000 1.634870 
# 
# From -- ./inp_files/48410.got.cif
#   From: 2010.06.25/outbox.cif.g09.slc.cpg/sg71_25_cif.got.tgz:48410.got - 2010.06.28 04:59:45.
