data_PCOD8287501
_publ_section_title
;
Structure prediction by ZEFSAII (Michael W. Deem and Ramdas Pophale) SiO2 
 PCOD8287501
Probable space group: I M M M
;
_chemical_formula_sum "Si O2"
_cell_formula_units_Z 104
_cell_length_a 9.001371
_cell_length_b 22.526303
_cell_length_c 29.398092
_cell_angle_alpha 90.000000
_cell_angle_beta 90.000000
_cell_angle_gamma 90.000000
_cell_volume 5960.980870
_symmetry_space_group_name_H-M "I M M M"
_symmetry_group_IT_number 71
_symmetry_cell_setting 'orthorhombic'
loop_
_space_group_symop_operation_xyz
x,y,z
-x,-y,z
x,-y,-z
-x,y,-z
-x,-y,-z
x,y,-z
-x,y,z
x,-y,z
1/2+x,1/2+y,1/2+z
1/2-x,1/2-y,1/2+z
1/2+x,1/2-y,1/2-z
1/2-x,1/2+y,1/2-z
1/2-x,1/2-y,1/2-z
1/2+x,1/2+y,1/2-z
1/2-x,1/2+y,1/2+z
1/2+x,1/2-y,1/2+z
loop_
_atom_site_type_symbol
_atom_site_label
_atom_site_fract_x
_atom_site_fract_y
_atom_site_fract_z
Si Si1 0.823530 0.500000 0.949311
Si Si2 0.672870 0.569467 0.622452
Si Si3 0.174985 0.068734 0.303962
Si Si4 0.827987 0.347483 0.553091
Si Si5 0.667570 0.070531 0.212835
Si Si6 0.824819 0.388451 0.108258
Si Si7 0.328109 0.772814 0.552215
O O1 0.766249 0.558138 0.923270
O O2 0.000000 0.500000 0.952133
O O3 0.755495 0.500000 0.000000
O O4 0.500000 0.583635 0.626733
O O5 0.703588 0.500000 0.616153
O O6 0.739100 0.601457 0.578670
O O7 0.751444 0.594729 0.667782
O O8 0.244771 0.092957 0.257149
O O9 0.241061 0.108975 0.343894
O O10 0.000000 0.077148 0.301166
O O11 0.218708 0.000000 0.312348
O O12 0.799262 0.357885 0.500000
O O13 0.769071 0.283016 0.567859
O O14 0.000000 0.351790 0.565946
O O15 0.500000 0.095340 0.214149
O O16 0.669378 0.000000 0.211890
O O17 0.781486 0.327508 0.083763
O O18 0.000000 0.393868 0.116872
O O19 0.295661 0.790513 0.500000
O O20 0.500000 0.756220 0.558755
#
# Coordination Sequence:
#
# PCOD8287501 Si02
#       7
#     8  16  16  16  16  16  16
#     4   9  16  26  43  69  99 129 165 213 264 309
#     4  10  20  34  54  81 110 136 163 199 248 300
#     4  10  19  30  45  68 101 136 171 211 257 305
#     4  10  21  36  54  76 103 137 174 209 245 291
#     4   9  17  30  50  74 101 133 168 205 246 297
#     4  10  18  29  48  72  98 130 171 217 262 308
#     4   9  18  33  52  73  97 130 174 218 258 302
#
# _framework density 17.446794000000001
#
# number of rings (size 3 to 8) (size 9 to 14) (size 15 to 20)
#    0.000    2.385    0.769    2.308    0.000    7.077 
#    0.000    1.538    0.000    2.769    0.000    0.000 
#    0.000    0.000    0.000    0.000    0.000    0.000 
#
# Total GULP energy -644938.402689 kJ/mol
# GULP energy per Si atom -12402.661590 kJ/mol
# Density = 1.740708 g / cm^3
# Si number density = 17.446794 Si / 1000 Ang^3
#
#
#
# Elastic Constant Matrix: (Units=GPa)
#
#
# Indices 1 2 3 4 5 6 
#
# 1 94.8431 50.8522 59.8816 0.0000 0.0000 0.0000
# 2 50.8522 70.5750 58.9304 0.0000 0.0000 0.0000
# 3 59.8816 58.9304 117.0779 0.0000 0.0000 0.0000
# 4 0.0000 0.0000 0.0000 18.8465 0.0000 0.0000
# 5 0.0000 0.0000 0.0000 0.0000 29.9085 0.0000
# 6 0.0000 0.0000 0.0000 0.0000 0.0000 22.2619
#
#
#
# Elastic Compliance Matrix: (Units=1/GPa)
#
#
# Indices 1 2 3 4 5 6 
#
# 1 0.018611 -0.009422 -0.004777 0.000000 0.000000 0.000000
# 2 -0.009422 0.029212 -0.009885 0.000000 0.000000 0.000000
# 3 -0.004777 -0.009885 0.015960 0.000000 0.000000 0.000000
# 4 0.000000 0.000000 0.000000 0.053060 0.000000 0.000000
# 5 0.000000 0.000000 0.000000 0.000000 0.033435 0.000000
# 6 0.000000 0.000000 0.000000 0.000000 0.000000 0.044920
#
#
# Mechanical properties :
#
#
# Convention : Reuss Voigt Hill
#
# Bulk Modulus (GPa) = 64.03366 69.09160 66.56263
# Shear Modulus (GPa) = 20.11507 21.72549 20.92028
#
# Velocity S-wave (km/s) = 3.39918 3.53263 3.46654
# Velocity P-wave (km/s) = 7.22411 7.50510 7.36595
#
# Compressibility (1/GPa) = 0.01561679
#
# Stress axis : x y z
#
# Youngs Moduli (GPa) = 53.73100 34.23288 62.65698
#
# Poissons Ratio (x) = 0.32253 0.29930
# Poissons Ratio (y) = 0.50623 0.61935
# Poissons Ratio (z) = 0.25666 0.33838
#
# Static dielectric constant tensor:
#      x y z
#    x 3.235450 0.000000 0.000000 
#    y 0.000000 2.992170 0.000000 
#    z 0.000000 0.000000 3.333750 
# 
# 
# High freq. dielectric constant tensor:
#      x y z
#    x 1.675540 0.000000 0.000000 
#    y 0.000000 1.642960 0.000000 
#    z 0.000000 0.000000 1.681860 
# 
# From -- ./inp_files/14993.got.cif
#   From: 2010.06.25/outbox.cif.g09.slc.cpg/sg71_8_cif.got.tgz:14993.got - 2010.06.28 04:59:45.
