data_PCOD8287839
_publ_section_title
;
Structure prediction by ZEFSAII (Michael W. Deem and Ramdas Pophale) SiO2 
 PCOD8287839
Probable space group: I M M M
;
_chemical_formula_sum "Si O2"
_cell_formula_units_Z 88
_cell_length_a 9.040984
_cell_length_b 18.960490
_cell_length_c 27.482804
_cell_angle_alpha 90.000000
_cell_angle_beta 90.000000
_cell_angle_gamma 90.000000
_cell_volume 4711.143121
_symmetry_space_group_name_H-M "I M M M"
_symmetry_group_IT_number 71
_symmetry_cell_setting 'orthorhombic'
loop_
_space_group_symop_operation_xyz
x,y,z
-x,-y,z
x,-y,-z
-x,y,-z
-x,-y,-z
x,y,-z
-x,y,z
x,-y,z
1/2+x,1/2+y,1/2+z
1/2-x,1/2-y,1/2+z
1/2+x,1/2-y,1/2-z
1/2-x,1/2+y,1/2-z
1/2-x,1/2-y,1/2-z
1/2+x,1/2+y,1/2-z
1/2-x,1/2+y,1/2+z
1/2+x,1/2-y,1/2+z
loop_
_atom_site_type_symbol
_atom_site_label
_atom_site_fract_x
_atom_site_fract_y
_atom_site_fract_z
Si Si1 0.324051 0.831960 0.407990
Si Si2 0.835646 0.416241 0.289277
Si Si3 0.170879 0.917202 0.115697
Si Si4 0.675480 0.078850 0.500000
Si Si5 0.174143 0.304241 0.443879
Si Si6 0.675879 0.921336 0.317218
O O1 0.500000 0.822341 0.408805
O O2 0.268240 0.880399 0.452396
O O3 0.248730 0.756085 0.411406
O O4 0.266335 0.868178 0.358453
O O5 0.844361 0.500000 0.288207
O O6 0.725802 0.390118 0.331445
O O7 0.775913 0.391963 0.236076
O O8 0.000000 0.385521 0.299507
O O9 0.262336 0.879211 0.073334
O O10 0.000000 0.897447 0.110772
O O11 0.199360 0.000000 0.109370
O O12 0.500000 0.074605 0.500000
O O13 0.742612 0.000000 0.500000
O O14 0.217342 0.293068 0.500000
O O15 0.000000 0.303253 0.435930
O O16 0.500000 0.926054 0.319179
O O17 0.740730 0.000000 0.326705
#
# Coordination Sequence:
#
# PCOD8287839 Si02
#       6
#    16  16  16   8  16  16
#     4  10  18  31  52  78 108 142 181 223 264 305
#     4   8  14  28  51  78 109 142 172 207 257 313
#     4  10  21  37  59  85 107 128 164 216 267 318
#     4   9  16  26  47  79 108 137 178 225 265 302
#     4  11  24  40  56  74 103 142 178 214 262 321
#     4   8  14  26  49  81 112 142 179 221 260 303
#
# _framework density 18.679117999999999
#
# number of rings (size 3 to 8) (size 9 to 14) (size 15 to 20)
#    0.000    2.636    0.909    2.727    0.000    4.727 
#    0.000    3.636    0.000    3.818    0.000    0.000 
#    0.000    0.000    0.000    0.000    0.000    0.000 
#
# Total GULP energy -545525.795710 kJ/mol
# GULP energy per Si atom -12398.313539 kJ/mol
# Density = 1.863660 g / cm^3
# Si number density = 18.679118 Si / 1000 Ang^3
#
#
#
# Elastic Constant Matrix: (Units=GPa)
#
#
# Indices 1 2 3 4 5 6 
#
# 1 56.7782 34.2229 42.4418 0.0000 0.0000 0.0000
# 2 34.2229 77.4094 48.1856 0.0000 0.0000 0.0000
# 3 42.4418 48.1856 96.2915 0.0000 0.0000 0.0000
# 4 0.0000 0.0000 0.0000 22.0903 0.0000 0.0000
# 5 0.0000 0.0000 0.0000 0.0000 21.2272 0.0000
# 6 0.0000 0.0000 0.0000 0.0000 0.0000 17.8755
#
#
#
# Elastic Compliance Matrix: (Units=1/GPa)
#
#
# Indices 1 2 3 4 5 6 
#
# 1 0.028647 -0.006979 -0.009134 0.000000 0.000000 0.000000
# 2 -0.006979 0.020463 -0.007164 0.000000 0.000000 0.000000
# 3 -0.009134 -0.007164 0.017996 0.000000 0.000000 0.000000
# 4 0.000000 0.000000 0.000000 0.045269 0.000000 0.000000
# 5 0.000000 0.000000 0.000000 0.000000 0.047109 0.000000
# 6 0.000000 0.000000 0.000000 0.000000 0.000000 0.055942
#
#
# Mechanical properties :
#
#
# Convention : Reuss Voigt Hill
#
# Bulk Modulus (GPa) = 48.65739 53.35330 51.00535
# Shear Modulus (GPa) = 18.59904 19.28052 18.93978
#
# Velocity S-wave (km/s) = 3.15892 3.21627 3.18772
# Velocity P-wave (km/s) = 6.27779 6.51288 6.39641
#
# Compressibility (1/GPa) = 0.02055186
#
# Stress axis : x y z
#
# Youngs Moduli (GPa) = 34.90802 48.86829 55.56789
#
# Poissons Ratio (x) = 0.34105 0.50756
# Poissons Ratio (y) = 0.24363 0.39808
# Poissons Ratio (z) = 0.31885 0.35009
#
# Static dielectric constant tensor:
#      x y z
#    x 3.135310 0.000000 0.000000 
#    y 0.000000 3.281430 0.000000 
#    z 0.000000 0.000000 3.801620 
# 
# 
# High freq. dielectric constant tensor:
#      x y z
#    x 1.692980 0.000000 0.000000 
#    y 0.000000 1.707720 0.000000 
#    z 0.000000 0.000000 1.737830 
# 
# From -- ./inp_files/67999.got.cif
#   From: 2010.06.25/outbox.cif.g09.slc.cpg/sg71_34_cif.got.tgz:67999.got - 2010.06.28 04:59:45.
