data_PCOD8287813
_publ_section_title
;
Structure prediction by ZEFSAII (Michael W. Deem and Ramdas Pophale) SiO2 
 PCOD8287813
Probable space group: I M M M
;
_chemical_formula_sum "Si O2"
_cell_formula_units_Z 104
_cell_length_a 28.656452
_cell_length_b 16.921623
_cell_length_c 12.618116
_cell_angle_alpha 90.000000
_cell_angle_beta 90.000000
_cell_angle_gamma 90.000000
_cell_volume 6118.697030
_symmetry_space_group_name_H-M "I M M M"
_symmetry_group_IT_number 71
_symmetry_cell_setting 'orthorhombic'
loop_
_space_group_symop_operation_xyz
x,y,z
-x,-y,z
x,-y,-z
-x,y,-z
-x,-y,-z
x,y,-z
-x,y,z
x,-y,z
1/2+x,1/2+y,1/2+z
1/2-x,1/2-y,1/2+z
1/2+x,1/2-y,1/2-z
1/2-x,1/2+y,1/2-z
1/2-x,1/2-y,1/2-z
1/2+x,1/2+y,1/2-z
1/2-x,1/2+y,1/2+z
1/2+x,1/2-y,1/2+z
loop_
_atom_site_type_symbol
_atom_site_label
_atom_site_fract_x
_atom_site_fract_y
_atom_site_fract_z
Si Si1 0.858513 0.591071 0.619240
Si Si2 0.311077 0.500000 0.624433
Si Si3 0.743384 0.864015 0.825124
Si Si4 0.585234 0.500000 0.374077
Si Si5 0.444975 0.093467 0.500000
Si Si6 0.713075 0.800158 0.616356
Si Si7 0.446511 0.668910 0.377919
Si Si8 0.391648 0.813934 0.318372
O O1 0.877401 0.607749 0.500000
O O2 0.866941 0.500000 0.650940
O O3 0.803191 0.607583 0.616498
O O4 0.886008 0.645767 0.702939
O O5 0.313919 0.500000 0.500000
O O6 0.285663 0.577321 0.663142
O O7 0.362708 0.500000 0.672601
O O8 0.733782 0.861398 0.699824
O O9 0.759738 0.781857 0.873684
O O10 0.583555 0.500000 0.500000
O O11 0.560050 0.420237 0.333750
O O12 0.500000 0.115047 0.500000
O O13 0.420727 0.128568 0.604694
O O14 0.437105 0.000000 0.500000
O O15 0.722267 0.835110 0.500000
O O16 0.658059 0.790832 0.633269
O O17 0.429014 0.676204 0.500000
O O18 0.500000 0.692543 0.369948
O O19 0.418353 0.730738 0.305321
#
# Coordination Sequence:
#
# PCOD8287813 Si02
#       8
#    16   8  16   8   8  16  16  16
#     4  10  20  35  53  75 104 140 184 228 266 308
#     4  11  18  29  47  68  97 131 173 216 244 297
#     4  10  20  30  50  72  98 139 179 211 258 302
#     4   9  19  30  47  77 107 140 172 213 262 316
#     4  11  22  36  54  77 105 139 179 220 270 332
#     4  10  19  33  47  71 104 135 171 218 257 310
#     4  10  18  31  51  76 109 139 169 210 267 329
#     4  11  20  33  53  78 105 141 176 217 272 326
#
# _framework density 16.997081999999999
#
# number of rings (size 3 to 8) (size 9 to 14) (size 15 to 20)
#    0.000    1.769    2.308    3.462    0.000    2.154 
#    0.000    0.385    0.000    1.846    0.000    7.000 
#    0.000    1.231    0.000    0.000    0.000    0.000 
#
# Total GULP energy -644709.833471 kJ/mol
# GULP energy per Si atom -12398.266028 kJ/mol
# Density = 1.695840 g / cm^3
# Si number density = 16.997082 Si / 1000 Ang^3
#
#
#
# Elastic Constant Matrix: (Units=GPa)
#
#
# Indices 1 2 3 4 5 6 
#
# 1 74.8657 29.5540 32.8200 0.0000 0.0000 0.0000
# 2 29.5540 93.1096 36.9665 0.0000 0.0000 0.0000
# 3 32.8200 36.9665 100.9866 0.0000 0.0000 0.0000
# 4 0.0000 0.0000 0.0000 21.7953 0.0000 0.0000
# 5 0.0000 0.0000 0.0000 0.0000 19.9107 0.0000
# 6 0.0000 0.0000 0.0000 0.0000 0.0000 18.7685
#
#
#
# Elastic Compliance Matrix: (Units=1/GPa)
#
#
# Indices 1 2 3 4 5 6 
#
# 1 0.016575 -0.003653 -0.004049 0.000000 0.000000 0.000000
# 2 -0.003653 0.013372 -0.003707 0.000000 0.000000 0.000000
# 3 -0.004049 -0.003707 0.012575 0.000000 0.000000 0.000000
# 4 0.000000 0.000000 0.000000 0.045882 0.000000 0.000000
# 5 0.000000 0.000000 0.000000 0.000000 0.050224 0.000000
# 6 0.000000 0.000000 0.000000 0.000000 0.000000 0.053281
#
#
# Mechanical properties :
#
#
# Convention : Reuss Voigt Hill
#
# Bulk Modulus (GPa) = 50.75755 51.96031 51.35893
# Shear Modulus (GPa) = 22.59424 23.40299 22.99861
#
# Velocity S-wave (km/s) = 3.64991 3.71466 3.68243
# Velocity P-wave (km/s) = 6.90578 7.00248 6.95430
#
# Compressibility (1/GPa) = 0.01970150
#
# Stress axis : x y z
#
# Youngs Moduli (GPa) = 60.33332 74.78572 79.52019
#
# Poissons Ratio (x) = 0.27321 0.32200
# Poissons Ratio (y) = 0.22041 0.29481
# Poissons Ratio (z) = 0.24431 0.27726
#
# Static dielectric constant tensor:
#      x y z
#    x 3.282220 0.000000 0.000000 
#    y 0.000000 3.331080 0.000000 
#    z 0.000000 0.000000 3.084450 
# 
# 
# High freq. dielectric constant tensor:
#      x y z
#    x 1.657500 0.000000 0.000000 
#    y 0.000000 1.665920 0.000000 
#    z 0.000000 0.000000 1.629030 
# 
# From -- ./inp_files/24633.got.cif
#   From: 2010.06.25/outbox.cif.g09.slc.cpg/sg71_13_cif.got.tgz:24633.got - 2010.06.28 04:59:45.
