data_PCOD8287482
_publ_section_title
;
Structure prediction by ZEFSAII (Michael W. Deem and Ramdas Pophale) SiO2 
 PCOD8287482
Probable space group: I M M M
;
_chemical_formula_sum "Si O2"
_cell_formula_units_Z 104
_cell_length_a 24.162345
_cell_length_b 8.786485
_cell_length_c 26.797700
_cell_angle_alpha 90.000000
_cell_angle_beta 90.000000
_cell_angle_gamma 90.000000
_cell_volume 5689.207500
_symmetry_space_group_name_H-M "I M M M"
_symmetry_group_IT_number 71
_symmetry_cell_setting 'orthorhombic'
loop_
_space_group_symop_operation_xyz
x,y,z
-x,-y,z
x,-y,-z
-x,y,-z
-x,-y,-z
x,y,-z
-x,y,z
x,-y,z
1/2+x,1/2+y,1/2+z
1/2-x,1/2-y,1/2+z
1/2+x,1/2-y,1/2-z
1/2-x,1/2+y,1/2-z
1/2-x,1/2-y,1/2-z
1/2+x,1/2+y,1/2-z
1/2-x,1/2+y,1/2+z
1/2+x,1/2-y,1/2+z
loop_
_atom_site_type_symbol
_atom_site_label
_atom_site_fract_x
_atom_site_fract_y
_atom_site_fract_z
Si Si1 0.132880 0.325649 0.288162
Si Si2 0.152571 0.681230 0.557328
Si Si3 0.434522 0.665559 0.500000
Si Si4 0.435736 0.321262 0.127169
Si Si5 0.561577 0.317804 0.606276
Si Si6 0.847139 0.181411 0.181953
Si Si7 0.733805 0.826866 0.139416
O O1 0.116357 0.500000 0.279165
O O2 0.084573 0.248527 0.320502
O O3 0.140755 0.241640 0.236435
O O4 0.190943 0.310934 0.315863
O O5 0.159326 0.732143 0.500000
O O6 0.147747 0.500000 0.563017
O O7 0.096710 0.751594 0.579992
O O8 0.205898 0.742561 0.588961
O O9 0.405313 0.500000 0.500000
O O10 0.500000 0.642511 0.500000
O O11 0.418709 0.749691 0.552020
O O12 0.500000 0.281461 0.120025
O O13 0.425014 0.500000 0.128767
O O14 0.500000 0.259890 0.619968
O O15 0.562041 0.500000 0.602792
O O16 0.602930 0.257822 0.648023
O O17 0.790827 0.251725 0.157676
O O18 0.843911 0.000000 0.184776
O O19 0.748344 0.000000 0.127251
#
# Coordination Sequence:
#
# PCOD8287482 Si02
#       7
#    16  16   8  16  16  16  16
#     4  10  20  34  51  69  96 132 167 204 250 303
#     4   9  18  34  54  75 104 139 171 208 255 306
#     4   7  10  20  36  54  83 119 147 173 216 273
#     4  10  21  36  54  77 103 131 167 210 254 303
#     4   8  14  24  39  62  93 124 152 189 238 287
#     4  10  18  29  47  72  99 127 166 211 253 293
#     4   8  16  31  48  69  96 128 167 207 247 293
#
# _framework density 18.280225000000002
#
# number of rings (size 3 to 8) (size 9 to 14) (size 15 to 20)
#    0.000    3.000    0.000    3.231    0.000    2.462 
#    1.385    6.154    0.000    0.000    0.000    0.538 
#    0.000    1.846    0.000    0.000    0.000    0.000 
#
# Total GULP energy -644348.902452 kJ/mol
# GULP energy per Si atom -12391.325047 kJ/mol
# Density = 1.823862 g / cm^3
# Si number density = 18.280225 Si / 1000 Ang^3
#
#
#
# Elastic Constant Matrix: (Units=GPa)
#
#
# Indices 1 2 3 4 5 6 
#
# 1 92.6300 27.4120 77.5967 0.0000 0.0000 0.0000
# 2 27.4120 36.4542 32.2738 0.0000 0.0000 0.0000
# 3 77.5967 32.2738 163.8235 0.0000 0.0000 0.0000
# 4 0.0000 0.0000 0.0000 20.3009 0.0000 0.0000
# 5 0.0000 0.0000 0.0000 0.0000 9.7613 0.0000
# 6 0.0000 0.0000 0.0000 0.0000 0.0000 15.0375
#
#
#
# Elastic Compliance Matrix: (Units=1/GPa)
#
#
# Indices 1 2 3 4 5 6 
#
# 1 0.019611 -0.007901 -0.007733 0.000000 0.000000 0.000000
# 2 -0.007901 0.036410 -0.003430 0.000000 0.000000 0.000000
# 3 -0.007733 -0.003430 0.010443 0.000000 0.000000 0.000000
# 4 0.000000 0.000000 0.000000 0.049259 0.000000 0.000000
# 5 0.000000 0.000000 0.000000 0.000000 0.102446 0.000000
# 6 0.000000 0.000000 0.000000 0.000000 0.000000 0.066501
#
#
# Mechanical properties :
#
#
# Convention : Reuss Voigt Hill
#
# Bulk Modulus (GPa) = 35.29113 63.05250 49.17181
# Shear Modulus (GPa) = 15.04922 19.39495 17.22209
#
# Velocity S-wave (km/s) = 2.87235 3.26080 3.07272
# Velocity P-wave (km/s) = 5.50891 6.98170 6.28857
#
# Compressibility (1/GPa) = 0.02833573
#
# Stress axis : x y z
#
# Youngs Moduli (GPa) = 50.99052 27.46492 95.76168
#
# Poissons Ratio (x) = 0.21700 0.74049
# Poissons Ratio (y) = 0.40288 0.32851
# Poissons Ratio (z) = 0.39429 0.09422
#
# Static dielectric constant tensor:
#      x y z
#    x 3.512870 0.000000 0.000000 
#    y 0.000000 3.008480 0.000000 
#    z 0.000000 0.000000 3.620490 
# 
# 
# High freq. dielectric constant tensor:
#      x y z
#    x 1.704730 0.000000 0.000000 
#    y 0.000000 1.665340 0.000000 
#    z 0.000000 0.000000 1.721900 
# 
# From -- ./inp_files/66834.got.cif
#   From: 2010.06.25/outbox.cif.g09.slc.cpg/sg71_34_cif.got.tgz:66834.got - 2010.06.28 04:59:45.
