data_PCOD8287720
_publ_section_title
;
Structure prediction by ZEFSAII (Michael W. Deem and Ramdas Pophale) SiO2 
 PCOD8287720
Probable space group: I M M M
;
_chemical_formula_sum "Si O2"
_cell_formula_units_Z 72
_cell_length_a 25.426925
_cell_length_b 9.967904
_cell_length_c 15.982725
_cell_angle_alpha 90.000000
_cell_angle_beta 90.000000
_cell_angle_gamma 90.000000
_cell_volume 4050.871956
_symmetry_space_group_name_H-M "I M M M"
_symmetry_group_IT_number 71
_symmetry_cell_setting 'orthorhombic'
loop_
_space_group_symop_operation_xyz
x,y,z
-x,-y,z
x,-y,-z
-x,y,-z
-x,-y,-z
x,y,-z
-x,y,z
x,-y,z
1/2+x,1/2+y,1/2+z
1/2-x,1/2-y,1/2+z
1/2+x,1/2-y,1/2-z
1/2-x,1/2+y,1/2-z
1/2-x,1/2-y,1/2-z
1/2+x,1/2+y,1/2-z
1/2-x,1/2+y,1/2+z
1/2+x,1/2-y,1/2+z
loop_
_atom_site_type_symbol
_atom_site_label
_atom_site_fract_x
_atom_site_fract_y
_atom_site_fract_z
Si Si1 0.558526 0.000000 0.220432
Si Si2 0.441920 0.500000 0.848075
Si Si3 0.062005 0.000000 0.094735
Si Si4 0.171297 0.000000 0.407388
Si Si5 0.157430 0.500000 0.601437
Si Si6 0.302762 0.250034 0.197341
Si Si7 0.089613 0.779494 0.779474
O O1 0.598906 0.000000 0.142101
O O2 0.564613 0.130873 0.279922
O O3 0.500000 0.000000 0.181717
O O4 0.500000 0.500000 0.891984
O O5 0.392793 0.500000 0.911338
O O6 0.438084 0.366079 0.792886
O O7 0.083285 0.138409 0.134701
O O8 0.000000 0.000000 0.103641
O O9 0.081592 0.000000 0.000000
O O10 0.196723 0.124573 0.362538
O O11 0.193048 0.000000 0.500000
O O12 0.152886 0.500000 0.500000
O O13 0.190459 0.374754 0.635044
O O14 0.250000 0.250000 0.250000
O O15 0.348687 0.261082 0.265162
#
# Coordination Sequence:
#
# PCOD8287720 Si02
#       7
#     8   8   8   8   8  16  16
#     4  10  18  30  52  76 103 140 169 195 239 301
#     4   9  16  29  50  73 101 134 161 192 240 301
#     4  10  19  33  53  75 101 130 163 213 267 301
#     4  10  20  33  51  77 103 127 165 211 248 286
#     4  10  21  35  52  79 109 132 165 210 251 295
#     4  10  20  36  55  72  97 136 173 206 249 298
#     4   9  18  32  50  73  98 128 172 209 241 301
#
# _framework density 17.773949999999999
#
# number of rings (size 3 to 8) (size 9 to 14) (size 15 to 20)
#    0.000    2.333    0.000    4.667    0.000    0.444 
#    0.000    3.889    0.000   10.000    0.000    0.000 
#    0.000    0.000    0.000    0.000    0.000    0.000 
#
# Total GULP energy -446180.283733 kJ/mol
# GULP energy per Si atom -12393.896770 kJ/mol
# Density = 1.773350 g / cm^3
# Si number density = 17.773950 Si / 1000 Ang^3
#
#
#
# Elastic Constant Matrix: (Units=GPa)
#
#
# Indices 1 2 3 4 5 6 
#
# 1 130.6984 48.0241 53.7836 0.0000 0.0000 0.0000
# 2 48.0241 172.5109 66.3393 0.0000 0.0000 0.0000
# 3 53.7836 66.3393 126.5164 0.0000 0.0000 0.0000
# 4 0.0000 0.0000 0.0000 21.8615 0.0000 0.0000
# 5 0.0000 0.0000 0.0000 0.0000 16.0598 0.0000
# 6 0.0000 0.0000 0.0000 0.0000 0.0000 -72.3330
#
#
#
# Elastic Compliance Matrix: (Units=1/GPa)
#
#
# Indices 1 2 3 4 5 6 
#
# 1 0.009525 -0.001371 -0.003331 0.000000 0.000000 0.000000
# 2 -0.001371 0.007458 -0.003328 0.000000 0.000000 0.000000
# 3 -0.003331 -0.003328 0.011065 0.000000 0.000000 0.000000
# 4 0.000000 0.000000 0.000000 0.045743 0.000000 0.000000
# 5 0.000000 0.000000 0.000000 0.000000 0.062267 0.000000
# 6 0.000000 0.000000 0.000000 0.000000 0.000000 -0.013825
#
#
# Mechanical properties :
#
#
# Convention : Reuss Voigt Hill
#
# Bulk Modulus (GPa) = 83.40414 85.11330 84.25872
# Shear Modulus (GPa) = 35.13985 10.55626 22.84805
#
# Velocity S-wave (km/s) = 4.45122 2.43969 3.58925
# Velocity P-wave (km/s) = 8.56998 7.47841 8.04274
#
# Compressibility (1/GPa) = 0.01198981
#
# Stress axis : x y z
#
# Youngs Moduli (GPa) = 104.98142 134.08177 90.37552
#
# Poissons Ratio (x) = 0.18382 0.30100
# Poissons Ratio (y) = 0.14393 0.30076
# Poissons Ratio (z) = 0.34964 0.44621
#
# Static dielectric constant tensor:
#      x y z
#    x 3.295410 0.000000 0.000000 
#    y 0.000000 3.603880 0.000000 
#    z 0.000000 0.000000 3.076760 
# 
# 
# High freq. dielectric constant tensor:
#      x y z
#    x 1.688790 0.000000 0.000000 
#    y 0.000000 1.709140 0.000000 
#    z 0.000000 0.000000 1.657830 
# 
# From -- ./inp_files/40028.got.cif
#   From: 2010.06.25/outbox.cif.g09.slc.cpg/sg71_21_cif.got.tgz:40028.got - 2010.06.28 04:59:45.
