data_PCOD8287415
_publ_section_title
;
Structure prediction by ZEFSAII (Michael W. Deem and Ramdas Pophale) SiO2 
 PCOD8287415
Probable space group: I M M M
;
_chemical_formula_sum "Si O2"
_cell_formula_units_Z 120
_cell_length_a 23.080341
_cell_length_b 14.290332
_cell_length_c 23.539043
_cell_angle_alpha 90.000000
_cell_angle_beta 90.000000
_cell_angle_gamma 90.000000
_cell_volume 7763.782172
_symmetry_space_group_name_H-M "I M M M"
_symmetry_group_IT_number 71
_symmetry_cell_setting 'orthorhombic'
loop_
_space_group_symop_operation_xyz
x,y,z
-x,-y,z
x,-y,-z
-x,y,-z
-x,-y,-z
x,y,-z
-x,y,z
x,-y,z
1/2+x,1/2+y,1/2+z
1/2-x,1/2-y,1/2+z
1/2+x,1/2-y,1/2-z
1/2-x,1/2+y,1/2-z
1/2-x,1/2-y,1/2-z
1/2+x,1/2+y,1/2-z
1/2-x,1/2+y,1/2+z
1/2+x,1/2-y,1/2+z
loop_
_atom_site_type_symbol
_atom_site_label
_atom_site_fract_x
_atom_site_fract_y
_atom_site_fract_z
Si Si1 0.785294 0.292556 0.934406
Si Si2 0.435916 0.726634 0.065855
Si Si3 0.331892 0.396206 0.932850
Si Si4 0.500000 0.889274 0.437199
Si Si5 0.889240 0.607164 0.370831
Si Si6 0.112181 0.388835 0.869198
Si Si7 0.934907 0.609735 0.749988
Si Si8 0.227921 0.604929 0.564673
O O1 0.725112 0.339634 0.915925
O O2 0.833444 0.332544 0.892929
O O3 0.778812 0.180521 0.925109
O O4 0.800708 0.316304 0.000000
O O5 0.500000 0.684652 0.076378
O O6 0.388286 0.656477 0.092508
O O7 0.432662 0.828555 0.093883
O O8 0.423081 0.741077 0.000000
O O9 0.328930 0.500000 0.906068
O O10 0.337925 0.403502 0.000000
O O11 0.500000 0.844993 0.500000
O O12 0.556934 0.855259 0.404936
O O13 0.500000 0.000000 0.440157
O O14 0.908103 0.500000 0.381009
O O15 0.896230 0.635015 0.304748
O O16 0.823607 0.624142 0.391096
O O17 0.123610 0.500000 0.874515
O O18 0.100651 0.355052 0.804842
O O19 0.943118 0.500000 0.756745
O O20 0.000000 0.654120 0.746479
O O21 0.203953 0.617098 0.500000
O O22 0.253095 0.500000 0.573367
#
# Coordination Sequence:
#
# PCOD8287415 Si02
#       8
#    16  16  16   8  16  16  16  16
#     4  10  18  29  47  71  94 119 153 186 224 277
#     4  10  19  29  42  63  89 116 151 195 240 281
#     4   9  17  29  43  60  87 120 151 185 224 271
#     4   9  16  26  42  66  97 125 146 178 225 274
#     4  10  18  29  47  67  88 118 156 193 232 277
#     4  10  18  29  45  68  98 127 153 182 222 277
#     4   9  17  30  45  63  92 128 158 185 223 275
#     4   9  17  30  48  68  93 124 153 189 236 276
#
# _framework density 15.456384
#
# number of rings (size 3 to 8) (size 9 to 14) (size 15 to 20)
#    0.000    2.467    2.000    1.600    0.000    3.200 
#    0.000    2.667    0.000    0.000    0.000    0.467 
#    0.000    3.733    0.000    0.000    0.000    0.000 
#
# Total GULP energy -743754.503159 kJ/mol
# GULP energy per Si atom -12395.908386 kJ/mol
# Density = 1.542120 g / cm^3
# Si number density = 15.456384 Si / 1000 Ang^3
#
#
#
# Elastic Constant Matrix: (Units=GPa)
#
#
# Indices 1 2 3 4 5 6 
#
# 1 104.4812 45.4383 51.3529 0.0000 0.0000 0.0000
# 2 45.4383 78.3385 32.3851 0.0000 0.0000 0.0000
# 3 51.3529 32.3851 82.3031 0.0000 0.0000 0.0000
# 4 0.0000 0.0000 0.0000 12.6632 0.0000 0.0000
# 5 0.0000 0.0000 0.0000 0.0000 18.2319 0.0000
# 6 0.0000 0.0000 0.0000 0.0000 0.0000 22.8711
#
#
#
# Elastic Compliance Matrix: (Units=1/GPa)
#
#
# Indices 1 2 3 4 5 6 
#
# 1 0.015940 -0.006132 -0.007533 0.000000 0.000000 0.000000
# 2 -0.006132 0.017604 -0.003101 0.000000 0.000000 0.000000
# 3 -0.007533 -0.003101 0.018071 0.000000 0.000000 0.000000
# 4 0.000000 0.000000 0.000000 0.078969 0.000000 0.000000
# 5 0.000000 0.000000 0.000000 0.000000 0.054849 0.000000
# 6 0.000000 0.000000 0.000000 0.000000 0.000000 0.043723
#
#
# Mechanical properties :
#
#
# Convention : Reuss Voigt Hill
#
# Bulk Modulus (GPa) = 55.30040 58.16394 56.73217
# Shear Modulus (GPa) = 18.60705 19.81632 19.21168
#
# Velocity S-wave (km/s) = 3.47341 3.58450 3.52939
# Velocity P-wave (km/s) = 7.20709 7.40569 7.30706
#
# Compressibility (1/GPa) = 0.01808305
#
# Stress axis : x y z
#
# Youngs Moduli (GPa) = 62.73405 56.80684 55.33795
#
# Poissons Ratio (x) = 0.34831 0.41688
# Poissons Ratio (y) = 0.38466 0.17160
# Poissons Ratio (z) = 0.47259 0.17616
#
# Static dielectric constant tensor:
#      x y z
#    x 2.901640 0.000000 0.000000 
#    y 0.000000 2.942150 0.000000 
#    z 0.000000 0.000000 2.962600 
# 
# 
# High freq. dielectric constant tensor:
#      x y z
#    x 1.586260 0.000000 0.000000 
#    y 0.000000 1.570700 0.000000 
#    z 0.000000 0.000000 1.573700 
# 
# From -- ./inp_files/61426.got.cif
#   From: 2010.06.25/outbox.cif.g09.slc.cpg/sg71_31_cif.got.tgz:61426.got - 2010.06.28 04:59:45.
