data_PCOD8287775
_publ_section_title
;
Structure prediction by ZEFSAII (Michael W. Deem and Ramdas Pophale) SiO2 
 PCOD8287775
Probable space group: I M M M
;
_chemical_formula_sum "Si O2"
_cell_formula_units_Z 80
_cell_length_a 14.945375
_cell_length_b 32.029954
_cell_length_c 9.025854
_cell_angle_alpha 90.000000
_cell_angle_beta 90.000000
_cell_angle_gamma 90.000000
_cell_volume 4320.673365
_symmetry_space_group_name_H-M "I M M M"
_symmetry_group_IT_number 71
_symmetry_cell_setting 'orthorhombic'
loop_
_space_group_symop_operation_xyz
x,y,z
-x,-y,z
x,-y,-z
-x,y,-z
-x,-y,-z
x,y,-z
-x,y,z
x,-y,z
1/2+x,1/2+y,1/2+z
1/2-x,1/2-y,1/2+z
1/2+x,1/2-y,1/2-z
1/2-x,1/2+y,1/2-z
1/2-x,1/2-y,1/2-z
1/2+x,1/2+y,1/2-z
1/2-x,1/2+y,1/2+z
1/2+x,1/2-y,1/2+z
loop_
_atom_site_type_symbol
_atom_site_label
_atom_site_fract_x
_atom_site_fract_y
_atom_site_fract_z
Si Si1 0.398499 0.145047 0.324575
Si Si2 0.661785 0.764662 0.328567
Si Si3 0.101661 0.951080 0.329734
Si Si4 0.094634 0.177366 0.172918
Si Si5 0.731592 0.611032 0.675950
O O1 0.386746 0.142104 0.500000
O O2 0.500000 0.133335 0.278767
O O3 0.378478 0.192128 0.266403
O O4 0.330462 0.112513 0.247703
O O5 0.683738 0.770154 0.500000
O O6 0.750000 0.750000 0.250000
O O7 0.593655 0.726891 0.298294
O O8 0.117118 0.937991 0.500000
O O9 0.175158 0.928982 0.226884
O O10 0.000000 0.939306 0.281424
O O11 0.116830 0.000000 0.309362
O O12 0.178620 0.151993 0.239328
O O13 0.000000 0.160647 0.239009
O O14 0.097466 0.167700 0.000000
O O15 0.742805 0.609985 0.500000
#
# Coordination Sequence:
#
# PCOD8287775 Si02
#       5
#    16  16  16  16  16
#     4  10  21  36  54  74 100 142 192 234 272 317
#     4  10  18  31  50  70  98 136 180 226 270 313
#     4   9  19  37  60  85 114 146 175 206 252 314
#     4   9  17  29  46  70 101 136 171 209 259 313
#     4  11  21  33  53  81 111 141 174 219 271 320
#
# _framework density 18.515633000000001
#
# number of rings (size 3 to 8) (size 9 to 14) (size 15 to 20)
#    0.000    2.200    2.000    2.400    0.000    4.400 
#    0.000    1.000    0.000    3.600    0.000    4.200 
#    0.000    0.000    0.000    0.000    0.000    0.000 
#
# Total GULP energy -495704.974966 kJ/mol
# GULP energy per Si atom -12392.624374 kJ/mol
# Density = 1.847349 g / cm^3
# Si number density = 18.515633 Si / 1000 Ang^3
#
#
#
# Elastic Constant Matrix: (Units=GPa)
#
#
# Indices 1 2 3 4 5 6 
#
# 1 163.5119 46.1578 48.7296 -0.0008 0.0029 0.0000
# 2 46.1578 66.2183 29.0600 -0.0041 0.0021 0.0015
# 3 48.7296 29.0600 45.1040 -0.0172 0.0293 0.0051
# 4 -0.0008 -0.0041 -0.0172 24.4414 0.0041 0.0018
# 5 0.0029 0.0021 0.0293 0.0041 25.5590 -0.0005
# 6 0.0000 0.0015 0.0051 0.0018 -0.0005 23.9863
#
#
#
# Elastic Compliance Matrix: (Units=1/GPa)
#
#
# Indices 1 2 3 4 5 6 
#
# 1 0.009409 -0.002924 -0.008281 -0.000006 0.000009 0.000002
# 2 -0.002924 0.021964 -0.010991 -0.000004 0.000011 0.000001
# 3 -0.008281 -0.010991 0.038200 0.000025 -0.000042 -0.000007
# 4 -0.000006 -0.000004 0.000025 0.040914 -0.000007 -0.000003
# 5 0.000009 0.000011 -0.000042 -0.000007 0.039125 0.000001
# 6 0.000002 0.000001 -0.000007 -0.000003 0.000001 0.041691
#
#
# Mechanical properties :
#
#
# Convention : Reuss Voigt Hill
#
# Bulk Modulus (GPa) = 39.71702 58.08098 48.89900
# Shear Modulus (GPa) = 20.48424 24.85648 22.67036
#
# Velocity S-wave (km/s) = 3.32975 3.66793 3.50292
# Velocity P-wave (km/s) = 6.02329 7.02674 6.54428
#
# Compressibility (1/GPa) = 0.02517812
#
# Stress axis : x y z
#
# Youngs Moduli (GPa) = 106.27723 45.52970 26.17816
#
# Poissons Ratio (x) = 0.13315 0.21679
# Poissons Ratio (y) = 0.31081 0.28773
# Poissons Ratio (z) = 0.88013 0.50043
#
# Static dielectric constant tensor:
#      x y z
#    x 3.523710 -0.000060 0.000000 
#    y -0.000060 3.315960 0.000000 
#    z 0.000000 0.000000 3.157730 
# 
# 
# High freq. dielectric constant tensor:
#      x y z
#    x 1.725520 0.000000 0.000000 
#    y 0.000000 1.700260 0.000000 
#    z 0.000000 0.000000 1.694100 
# 
# From -- ./inp_files/20110.got.cif
#   From: 2010.06.25/outbox.cif.g09.slc.cpg/sg71_11_cif.got.tgz:20110.got - 2010.06.28 04:59:45.
