data_PCOD8287155
_publ_section_title
;
Structure prediction by ZEFSAII (Michael W. Deem and Ramdas Pophale) SiO2 
 PCOD8287155
Probable space group: I M M M
;
_chemical_formula_sum "Si O2"
_cell_formula_units_Z 104
_cell_length_a 13.450007
_cell_length_b 18.158945
_cell_length_c 28.404087
_cell_angle_alpha 90.000000
_cell_angle_beta 90.000000
_cell_angle_gamma 90.000000
_cell_volume 6937.355622
_symmetry_space_group_name_H-M "I M M M"
_symmetry_group_IT_number 71
_symmetry_cell_setting 'orthorhombic'
loop_
_space_group_symop_operation_xyz
x,y,z
-x,-y,z
x,-y,-z
-x,y,-z
-x,-y,-z
x,y,-z
-x,y,z
x,-y,z
1/2+x,1/2+y,1/2+z
1/2-x,1/2-y,1/2+z
1/2+x,1/2-y,1/2-z
1/2-x,1/2+y,1/2-z
1/2-x,1/2-y,1/2-z
1/2+x,1/2+y,1/2-z
1/2-x,1/2+y,1/2+z
1/2+x,1/2-y,1/2+z
loop_
_atom_site_type_symbol
_atom_site_label
_atom_site_fract_x
_atom_site_fract_y
_atom_site_fract_z
Si Si1 0.294904 0.219833 0.359157
Si Si2 0.114028 0.810033 0.776168
Si Si3 0.383044 0.838677 0.445800
Si Si4 0.788606 0.417983 0.720415
Si Si5 0.883090 0.500000 0.051761
Si Si6 0.886881 0.581380 0.819308
Si Si7 0.886416 0.283317 0.316716
O O1 0.359332 0.274265 0.326420
O O2 0.328160 0.223292 0.413960
O O3 0.311197 0.136028 0.343866
O O4 0.178036 0.238006 0.354744
O O5 0.182182 0.881361 0.766886
O O6 0.132875 0.749462 0.735498
O O7 0.000000 0.836197 0.776191
O O8 0.349321 0.829635 0.500000
O O9 0.500000 0.825765 0.440999
O O10 0.354163 0.920850 0.425014
O O11 0.770095 0.500000 0.699484
O O12 0.859621 0.424567 0.764962
O O13 0.847953 0.367557 0.682907
O O14 0.000000 0.500000 0.045309
O O15 0.834020 0.500000 0.000000
O O16 0.878755 0.500000 0.842937
O O17 0.000000 0.611079 0.823809
O O18 0.000000 0.278142 0.332642
#
# Coordination Sequence:
#
# PCOD8287155 Si02
#       7
#    16  16  16  16   8  16  16
#     4  11  18  29  44  62  83 116 153 181 216 258
#     4  10  18  30  44  61  87 118 147 176 213 258
#     4   9  17  27  40  62  90 116 143 177 219 263
#     4  10  18  29  43  62  87 115 146 180 215 253
#     4   7  12  24  38  56  85 115 139 169 214 256
#     4  10  18  25  37  61  88 112 144 182 212 244
#     4  10  19  32  46  61  85 115 147 183 220 257
#
# _framework density 14.991303
#
# number of rings (size 3 to 8) (size 9 to 14) (size 15 to 20)
#    0.000    2.231    3.077    3.692    1.077    1.231 
#    0.000    0.000    0.000    0.923    0.000    0.000 
#    0.000   11.692    0.000   39.385    0.000    0.000 
#
# Total GULP energy -644380.471610 kJ/mol
# GULP energy per Si atom -12391.932146 kJ/mol
# Density = 1.495718 g / cm^3
# Si number density = 14.991303 Si / 1000 Ang^3
#
#
#
# Elastic Constant Matrix: (Units=GPa)
#
#
# Indices 1 2 3 4 5 6 
#
# 1 94.2565 45.5320 22.6922 0.0000 0.0000 0.0000
# 2 45.5320 90.6644 26.7319 0.0000 0.0000 0.0000
# 3 22.6922 26.7319 55.4516 0.0000 0.0000 0.0000
# 4 0.0000 0.0000 0.0000 20.0799 0.0000 0.0000
# 5 0.0000 0.0000 0.0000 0.0000 16.4280 0.0000
# 6 0.0000 0.0000 0.0000 0.0000 0.0000 17.1666
#
#
#
# Elastic Compliance Matrix: (Units=1/GPa)
#
#
# Indices 1 2 3 4 5 6 
#
# 1 0.014371 -0.006392 -0.002800 0.000000 0.000000 0.000000
# 2 -0.006392 0.015700 -0.004953 0.000000 0.000000 0.000000
# 3 -0.002800 -0.004953 0.021567 0.000000 0.000000 0.000000
# 4 0.000000 0.000000 0.000000 0.049801 0.000000 0.000000
# 5 0.000000 0.000000 0.000000 0.000000 0.060872 0.000000
# 6 0.000000 0.000000 0.000000 0.000000 0.000000 0.058253
#
#
# Mechanical properties :
#
#
# Convention : Reuss Voigt Hill
#
# Bulk Modulus (GPa) = 42.82755 47.80941 45.31848
# Shear Modulus (GPa) = 19.48290 20.42933 19.95611
#
# Velocity S-wave (km/s) = 3.60893 3.69554 3.65249
# Velocity P-wave (km/s) = 6.78204 7.08308 6.93420
#
# Compressibility (1/GPa) = 0.02334945
#
# Stress axis : x y z
#
# Youngs Moduli (GPa) = 69.58468 63.69441 46.36685
#
# Poissons Ratio (x) = 0.40712 0.12981
# Poissons Ratio (y) = 0.44476 0.22965
# Poissons Ratio (z) = 0.19482 0.31547
#
# Static dielectric constant tensor:
#      x y z
#    x 2.860570 0.000000 0.000000 
#    y 0.000000 3.030310 0.000000 
#    z 0.000000 0.000000 2.759710 
# 
# 
# High freq. dielectric constant tensor:
#      x y z
#    x 1.558960 0.000000 0.000000 
#    y 0.000000 1.566380 0.000000 
#    z 0.000000 0.000000 1.543600 
# 
# From -- ./inp_files/65641.got.cif
#   From: 2010.06.25/outbox.cif.g09.slc.cpg/sg71_33_cif.got.tgz:65641.got - 2010.06.28 04:59:45.
