data_PCOD8287823
_publ_section_title
;
Structure prediction by ZEFSAII (Michael W. Deem and Ramdas Pophale) SiO2 
 PCOD8287823
Probable space group: I M M M
;
_chemical_formula_sum "Si O2"
_cell_formula_units_Z 88
_cell_length_a 20.942576
_cell_length_b 9.334798
_cell_length_c 25.314278
_cell_angle_alpha 90.000000
_cell_angle_beta 90.000000
_cell_angle_gamma 90.000000
_cell_volume 4948.807603
_symmetry_space_group_name_H-M "I M M M"
_symmetry_group_IT_number 71
_symmetry_cell_setting 'orthorhombic'
loop_
_space_group_symop_operation_xyz
x,y,z
-x,-y,z
x,-y,-z
-x,y,-z
-x,-y,-z
x,y,-z
-x,y,z
x,-y,z
1/2+x,1/2+y,1/2+z
1/2-x,1/2-y,1/2+z
1/2+x,1/2-y,1/2-z
1/2-x,1/2+y,1/2-z
1/2-x,1/2-y,1/2-z
1/2+x,1/2+y,1/2-z
1/2-x,1/2+y,1/2+z
1/2+x,1/2-y,1/2+z
loop_
_atom_site_type_symbol
_atom_site_label
_atom_site_fract_x
_atom_site_fract_y
_atom_site_fract_z
Si Si1 0.677569 0.835744 0.191425
Si Si2 0.781351 0.170061 0.000000
Si Si3 0.365487 0.669497 0.598151
Si Si4 0.000000 0.169389 0.057516
Si Si5 0.194936 0.663954 0.812148
Si Si6 0.571929 0.830226 0.107908
Si Si7 0.636486 0.170744 0.000000
O O1 0.736057 0.733104 0.178566
O O2 0.665111 0.823134 0.253731
O O3 0.616179 0.783497 0.157577
O O4 0.695120 0.000000 0.175989
O O5 0.818026 0.224697 0.947848
O O6 0.709122 0.229574 0.000000
O O7 0.782276 0.000000 0.000000
O O8 0.358989 0.500000 0.605774
O O9 0.436985 0.720242 0.586904
O O10 0.353328 0.749048 0.652362
O O11 0.000000 0.000000 0.051540
O O12 0.000000 0.240720 0.000000
O O13 0.200371 0.500000 0.829757
O O14 0.500000 0.768417 0.115633
O O15 0.600927 0.771474 0.052596
O O16 0.568765 0.000000 0.105091
O O17 0.637297 0.000000 0.000000
#
# Coordination Sequence:
#
# PCOD8287823 Si02
#       7
#    16   8  16   8  16  16   8
#     4   9  18  34  53  72  96 132 171 204 245 296
#     4   9  16  26  47  75  99 126 163 204 244 291
#     4  10  18  31  52  75 100 131 167 209 252 298
#     4   9  16  30  51  75 101 131 171 212 251 300
#     4  10  20  33  50  74 100 129 167 211 254 296
#     4   9  16  27  45  70 100 128 155 193 240 290
#     4   9  15  22  38  71 103 120 145 192 248 288
#
# _framework density 17.782060999999999
#
# number of rings (size 3 to 8) (size 9 to 14) (size 15 to 20)
#    0.000    2.636    0.909    1.909    0.000    4.727 
#    1.636    0.909    0.000    1.091    0.000    0.000 
#    0.000    2.909    0.000    0.000    0.000    0.000 
#
# Total GULP energy -545405.112532 kJ/mol
# GULP energy per Si atom -12395.570739 kJ/mol
# Density = 1.774159 g / cm^3
# Si number density = 17.782061 Si / 1000 Ang^3
#
#
#
# Elastic Constant Matrix: (Units=GPa)
#
#
# Indices 1 2 3 4 5 6 
#
# 1 163.5917 31.0626 85.4798 0.0000 0.0000 0.0000
# 2 31.0626 40.9973 36.6109 0.0000 0.0000 0.0000
# 3 85.4798 36.6109 120.5976 0.0000 0.0000 0.0000
# 4 0.0000 0.0000 0.0000 22.8948 0.0000 0.0000
# 5 0.0000 0.0000 0.0000 0.0000 16.8969 0.0000
# 6 0.0000 0.0000 0.0000 0.0000 0.0000 11.6968
#
#
#
# Elastic Compliance Matrix: (Units=1/GPa)
#
#
# Indices 1 2 3 4 5 6 
#
# 1 0.009792 -0.001675 -0.006432 0.000000 0.000000 0.000000
# 2 -0.001675 0.033751 -0.009059 0.000000 0.000000 0.000000
# 3 -0.006432 -0.009059 0.015601 0.000000 0.000000 0.000000
# 4 0.000000 0.000000 0.000000 0.043678 0.000000 0.000000
# 5 0.000000 0.000000 0.000000 0.000000 0.059183 0.000000
# 6 0.000000 0.000000 0.000000 0.000000 0.000000 0.085493
#
#
# Mechanical properties :
#
#
# Convention : Reuss Voigt Hill
#
# Bulk Modulus (GPa) = 40.30322 70.16591 55.23457
# Shear Modulus (GPa) = 17.23552 21.76658 19.50105
#
# Velocity S-wave (km/s) = 3.11668 3.50247 3.31519
# Velocity P-wave (km/s) = 5.97209 7.47669 6.76634
#
# Compressibility (1/GPa) = 0.02481191
#
# Stress axis : x y z
#
# Youngs Moduli (GPa) = 102.12873 29.62919 64.09923
#
# Poissons Ratio (x) = 0.04964 0.41227
# Poissons Ratio (y) = 0.17109 0.58064
# Poissons Ratio (z) = 0.65686 0.26840
#
# Static dielectric constant tensor:
#      x y z
#    x 3.581550 0.000000 0.000000 
#    y 0.000000 2.844590 0.000000 
#    z 0.000000 0.000000 3.438210 
# 
# 
# High freq. dielectric constant tensor:
#      x y z
#    x 1.694030 0.000000 0.000000 
#    y 0.000000 1.633720 0.000000 
#    z 0.000000 0.000000 1.698750 
# 
# From -- ./inp_files/61173.got.cif
#   From: 2010.06.25/outbox.cif.g09.slc.cpg/sg71_31_cif.got.tgz:61173.got - 2010.06.28 04:59:45.
