data_PCOD8287374
_publ_section_title
;
Structure prediction by ZEFSAII (Michael W. Deem and Ramdas Pophale) SiO2 
 PCOD8287374
Probable space group: I M M M
;
_chemical_formula_sum "Si O2"
_cell_formula_units_Z 88
_cell_length_a 8.801059
_cell_length_b 30.306006
_cell_length_c 24.144656
_cell_angle_alpha 90.000000
_cell_angle_beta 90.000000
_cell_angle_gamma 90.000000
_cell_volume 6439.982089
_symmetry_space_group_name_H-M "I M M M"
_symmetry_group_IT_number 71
_symmetry_cell_setting 'orthorhombic'
loop_
_space_group_symop_operation_xyz
x,y,z
-x,-y,z
x,-y,-z
-x,y,-z
-x,-y,-z
x,y,-z
-x,y,z
x,-y,z
1/2+x,1/2+y,1/2+z
1/2-x,1/2-y,1/2+z
1/2+x,1/2-y,1/2-z
1/2-x,1/2+y,1/2-z
1/2-x,1/2-y,1/2-z
1/2+x,1/2+y,1/2-z
1/2-x,1/2+y,1/2+z
1/2+x,1/2-y,1/2+z
loop_
_atom_site_type_symbol
_atom_site_label
_atom_site_fract_x
_atom_site_fract_y
_atom_site_fract_z
Si Si1 0.678667 0.245467 0.381027
Si Si2 0.179940 0.000000 0.562600
Si Si3 0.679928 0.406562 0.895269
Si Si4 0.320047 0.158848 0.684021
Si Si5 0.321843 0.293099 0.724104
Si Si6 0.331981 0.760575 0.500000
Si Si7 0.329991 0.135498 0.500000
O O1 0.500000 0.237780 0.389227
O O2 0.740453 0.200241 0.352879
O O3 0.709949 0.288383 0.342144
O O4 0.752214 0.253767 0.442349
O O5 0.234584 0.957056 0.596460
O O6 0.248609 0.000000 0.500000
O O7 0.000000 0.000000 0.557101
O O8 0.500000 0.403140 0.890912
O O9 0.754061 0.386856 0.839649
O O10 0.736743 0.378483 0.946702
O O11 0.500000 0.156291 0.685493
O O12 0.258076 0.164718 0.747221
O O13 0.500000 0.294498 0.736383
O O14 0.250000 0.250000 0.750000
O O15 0.500000 0.739185 0.500000
O O16 0.344115 0.812692 0.500000
O O17 0.500000 0.114725 0.500000
#
# Coordination Sequence:
#
# PCOD8287374 Si02
#       7
#    16   8  16  16  16   8   8
#     4   8  14  23  37  55  76  99 125 154 191 233
#     4   9  18  32  44  56  78 104 126 157 204 253
#     4  11  20  31  45  58  74  99 132 166 203 245
#     4  10  18  29  42  57  75  98 129 166 203 238
#     4   9  16  26  39  57  77 100 128 160 195 234
#     4   9  14  23  38  56  77 102 124 155 197 232
#     4  11  19  28  42  57  78 102 128 162 201 241
#
# _framework density 13.664634
#
# number of rings (size 3 to 8) (size 9 to 14) (size 15 to 20)
#    0.000    2.455    2.727    3.000    0.000    0.000 
#    0.000    2.273    0.000    0.000    0.000    0.000 
#    0.000    0.000    0.000    0.000    0.000    0.909 
#
# Total GULP energy -545097.444968 kJ/mol
# GULP energy per Si atom -12388.578295 kJ/mol
# Density = 1.363353 g / cm^3
# Si number density = 13.664634 Si / 1000 Ang^3
#
#
#
# Elastic Constant Matrix: (Units=GPa)
#
#
# Indices 1 2 3 4 5 6 
#
# 1 51.9435 23.1445 28.3112 0.0000 0.0000 0.0000
# 2 23.1445 62.7728 51.3718 0.0000 0.0000 0.0000
# 3 28.3112 51.3718 107.3017 0.0000 0.0000 0.0000
# 4 0.0000 0.0000 0.0000 -2.4305 0.0000 0.0000
# 5 0.0000 0.0000 0.0000 0.0000 17.8313 0.0000
# 6 0.0000 0.0000 0.0000 0.0000 0.0000 13.8372
#
#
#
# Elastic Compliance Matrix: (Units=1/GPa)
#
#
# Indices 1 2 3 4 5 6 
#
# 1 0.023773 -0.005972 -0.003413 0.000000 0.000000 0.000000
# 2 -0.005972 0.027693 -0.011683 0.000000 0.000000 0.000000
# 3 -0.003413 -0.011683 0.015813 0.000000 0.000000 0.000000
# 4 0.000000 0.000000 0.000000 -0.411437 0.000000 0.000000
# 5 0.000000 0.000000 0.000000 0.000000 0.056081 0.000000
# 6 0.000000 0.000000 0.000000 0.000000 0.000000 0.072269
#
#
# Mechanical properties :
#
#
# Convention : Reuss Voigt Hill
#
# Bulk Modulus (GPa) = 39.77134 47.51922 43.64528
# Shear Modulus (GPa) = -30.24993 13.79362 -8.22816
#
# Velocity S-wave (km/s) = -4.71014 3.18061 -2.45654
# Velocity P-wave (km/s) = 0.64195 6.95264 4.89526
#
# Compressibility (1/GPa) = 0.02514373
#
# Stress axis : x y z
#
# Youngs Moduli (GPa) = 42.06464 36.10997 63.23760
#
# Poissons Ratio (x) = 0.21564 0.21585
# Poissons Ratio (y) = 0.25120 0.73879
# Poissons Ratio (z) = 0.14358 0.42186
#
# Static dielectric constant tensor:
#      x y z
#    x 2.686360 0.000000 0.000000 
#    y 0.000000 2.609640 0.000000 
#    z 0.000000 0.000000 3.232770 
# 
# 
# High freq. dielectric constant tensor:
#      x y z
#    x 1.513410 0.000000 0.000000 
#    y 0.000000 1.473470 0.000000 
#    z 0.000000 0.000000 1.516170 
# 
# From -- ./inp_files/17193.got.cif
#   From: 2010.06.25/outbox.cif.g09.slc.cpg/sg71_9_cif.got.tgz:17193.got - 2010.06.28 04:59:45.
