data_PCOD8287980
_publ_section_title
;
Structure prediction by ZEFSAII (Michael W. Deem and Ramdas Pophale) SiO2 
 PCOD8287980
Probable space group: I M M M
;
_chemical_formula_sum "Si O2"
_cell_formula_units_Z 120
_cell_length_a 18.491596
_cell_length_b 18.325026
_cell_length_c 18.585708
_cell_angle_alpha 90.000000
_cell_angle_beta 90.000000
_cell_angle_gamma 90.000000
_cell_volume 6297.934009
_symmetry_space_group_name_H-M "I M M M"
_symmetry_group_IT_number 71
_symmetry_cell_setting 'orthorhombic'
loop_
_space_group_symop_operation_xyz
x,y,z
-x,-y,z
x,-y,-z
-x,y,-z
-x,-y,-z
x,y,-z
-x,y,z
x,-y,z
1/2+x,1/2+y,1/2+z
1/2-x,1/2-y,1/2+z
1/2+x,1/2-y,1/2-z
1/2-x,1/2+y,1/2-z
1/2-x,1/2-y,1/2-z
1/2+x,1/2+y,1/2-z
1/2-x,1/2+y,1/2+z
1/2+x,1/2-y,1/2+z
loop_
_atom_site_type_symbol
_atom_site_label
_atom_site_fract_x
_atom_site_fract_y
_atom_site_fract_z
Si Si1 0.850261 0.416307 0.786033
Si Si2 0.216617 0.698738 0.584439
Si Si3 0.079919 0.086601 0.727042
Si Si4 0.284777 0.146611 0.419472
Si Si5 0.284974 0.416528 0.684430
Si Si6 0.585523 0.000000 0.920626
Si Si7 0.367966 0.584248 0.922345
Si Si8 0.916964 0.646529 0.656323
O O1 0.877137 0.500000 0.790545
O O2 0.846516 0.381210 0.865266
O O3 0.772092 0.410207 0.748972
O O4 0.907607 0.366701 0.741616
O O5 0.204978 0.686238 0.500000
O O6 0.258945 0.772548 0.601431
O O7 0.263084 0.632293 0.616557
O O8 0.137510 0.706346 0.623062
O O9 0.139015 0.114552 0.784202
O O10 0.092300 0.120096 0.646665
O O11 0.000000 0.110122 0.753484
O O12 0.088262 0.000000 0.721236
O O13 0.317463 0.145810 0.500000
O O14 0.217895 0.091369 0.413110
O O15 0.292158 0.500000 0.657668
O O16 0.612062 0.928860 0.878999
O O17 0.500000 0.000000 0.924743
O O18 0.619867 0.000000 0.000000
O O19 0.388638 0.500000 0.925914
O O20 0.390781 0.620739 0.000000
O O21 0.000000 0.666328 0.637857
#
# Coordination Sequence:
#
# PCOD8287980 Si02
#       8
#    16  16  16  16  16   8  16  16
#     4  10  18  32  56  79 105 138 177 227 273 320
#     4  10  22  36  53  75 105 143 178 219 268 318
#     4   9  16  28  47  71 101 132 162 204 254 301
#     4  10  20  34  52  75 103 138 180 222 265 311
#     4   9  18  32  50  75 102 130 172 216 258 311
#     4   9  16  28  48  74 105 137 168 206 254 313
#     4   9  16  28  48  72 100 132 167 208 253 304
#     4  10  20  34  53  80 111 142 175 215 269 330
#
# _framework density 19.053867
#
# number of rings (size 3 to 8) (size 9 to 14) (size 15 to 20)
#    0.000    2.467    2.000    0.800    0.933    4.267 
#    0.000    2.000    0.000    3.200    0.000    4.667 
#    0.000    0.000    0.000    0.000    0.000    0.000 
#
# Total GULP energy -743714.220460 kJ/mol
# GULP energy per Si atom -12395.237008 kJ/mol
# Density = 1.901050 g / cm^3
# Si number density = 19.053867 Si / 1000 Ang^3
#
#
#
# Elastic Constant Matrix: (Units=GPa)
#
#
# Indices 1 2 3 4 5 6 
#
# 1 69.5085 7.0325 36.0888 0.0000 0.0000 0.0000
# 2 7.0325 40.3950 33.1903 0.0000 0.0000 0.0000
# 3 36.0888 33.1903 109.3816 0.0000 0.0000 0.0000
# 4 0.0000 0.0000 0.0000 24.9952 0.0000 0.0000
# 5 0.0000 0.0000 0.0000 0.0000 25.8487 0.0000
# 6 0.0000 0.0000 0.0000 0.0000 0.0000 10.7829
#
#
#
# Elastic Compliance Matrix: (Units=1/GPa)
#
#
# Indices 1 2 3 4 5 6 
#
# 1 0.017515 0.002263 -0.006465 0.000000 0.000000 0.000000
# 2 0.002263 0.033270 -0.010842 0.000000 0.000000 0.000000
# 3 -0.006465 -0.010842 0.014565 0.000000 0.000000 0.000000
# 4 0.000000 0.000000 0.000000 0.040008 0.000000 0.000000
# 5 0.000000 0.000000 0.000000 0.000000 0.038687 0.000000
# 6 0.000000 0.000000 0.000000 0.000000 0.000000 0.092739
#
#
# Mechanical properties :
#
#
# Convention : Reuss Voigt Hill
#
# Bulk Modulus (GPa) = 28.35980 41.32316 34.84148
# Shear Modulus (GPa) = 17.94524 21.85693 19.90108
#
# Velocity S-wave (km/s) = 3.07223 3.39058 3.23532
# Velocity P-wave (km/s) = 5.24415 6.08791 5.68172
#
# Compressibility (1/GPa) = 0.03526119
#
# Stress axis : x y z
#
# Youngs Moduli (GPa) = 57.09531 30.05735 68.65645
#
# Poissons Ratio (x) = -0.06802 0.44389
# Poissons Ratio (y) = -0.12921 0.74437
# Poissons Ratio (z) = 0.36914 0.32588
#
# Static dielectric constant tensor:
#      x y z
#    x 3.252460 0.000000 0.000000 
#    y 0.000000 3.307460 0.000000 
#    z 0.000000 0.000000 3.636610 
# 
# 
# High freq. dielectric constant tensor:
#      x y z
#    x 1.708580 0.000000 0.000000 
#    y 0.000000 1.720990 0.000000 
#    z 0.000000 0.000000 1.740640 
# 
# From -- ./inp_files/47567.got.cif
#   From: 2010.06.25/outbox.cif.g09.slc.cpg/sg71_24_cif.got.tgz:47567.got - 2010.06.28 04:59:45.
