data_PCOD8287524
_publ_section_title
;
Structure prediction by ZEFSAII (Michael W. Deem and Ramdas Pophale) SiO2 
 PCOD8287524
Probable space group: I M M M
;
_chemical_formula_sum "Si O2"
_cell_formula_units_Z 104
_cell_length_a 18.808426
_cell_length_b 26.876725
_cell_length_c 12.070543
_cell_angle_alpha 90.000000
_cell_angle_beta 90.000000
_cell_angle_gamma 90.000000
_cell_volume 6101.766833
_symmetry_space_group_name_H-M "I M M M"
_symmetry_group_IT_number 71
_symmetry_cell_setting 'orthorhombic'
loop_
_space_group_symop_operation_xyz
x,y,z
-x,-y,z
x,-y,-z
-x,y,-z
-x,-y,-z
x,y,-z
-x,y,z
x,-y,z
1/2+x,1/2+y,1/2+z
1/2-x,1/2-y,1/2+z
1/2+x,1/2-y,1/2-z
1/2-x,1/2+y,1/2-z
1/2-x,1/2-y,1/2-z
1/2+x,1/2+y,1/2-z
1/2-x,1/2+y,1/2+z
1/2+x,1/2-y,1/2+z
loop_
_atom_site_type_symbol
_atom_site_label
_atom_site_fract_x
_atom_site_fract_y
_atom_site_fract_z
Si Si1 0.327256 0.692344 0.797631
Si Si2 0.694499 0.943280 0.626449
Si Si3 0.579528 0.420817 0.000000
Si Si4 0.675941 0.778909 0.628290
Si Si5 0.420061 0.697405 0.000000
Si Si6 0.083389 0.000000 0.130822
Si Si7 0.578577 0.867015 0.631213
Si Si8 0.156962 0.921760 0.719700
O O1 0.329507 0.726773 0.690392
O O2 0.247970 0.690662 0.846913
O O3 0.352103 0.637314 0.761915
O O4 0.379504 0.715862 0.890040
O O5 0.714376 0.926734 0.500000
O O6 0.628935 0.911304 0.674268
O O7 0.760431 0.935362 0.708558
O O8 0.669375 0.000000 0.628609
O O9 0.618786 0.441089 0.891591
O O10 0.500000 0.442021 0.000000
O O11 0.580588 0.361712 0.000000
O O12 0.671984 0.765629 0.500000
O O13 0.611077 0.813887 0.666191
O O14 0.500000 0.718910 0.000000
O O15 0.121087 0.049568 0.178166
O O16 0.000000 0.000000 0.161630
O O17 0.094865 0.000000 0.000000
O O18 0.573520 0.870479 0.500000
O O19 0.500000 0.872159 0.684324
#
# Coordination Sequence:
#
# PCOD8287524 Si02
#       8
#    16  16   8  16   8   8  16  16
#     4  10  20  32  54  80 105 141 180 224 272 321
#     4  10  18  29  49  79 108 134 165 211 263 314
#     4   9  18  29  50  81 104 126 164 221 278 321
#     4  10  19  33  53  78 110 143 180 221 265 321
#     4   9  18  32  49  74 107 139 174 221 277 322
#     4  11  26  43  55  73 108 150 184 220 265 312
#     4   9  18  31  49  74 109 145 169 204 261 322
#     4  11  19  34  56  77 106 137 180 222 266 320
#
# _framework density 17.044243000000002
#
# number of rings (size 3 to 8) (size 9 to 14) (size 15 to 20)
#    0.000    2.077    3.846    0.462    0.000    2.462 
#    0.000    2.308    0.000    1.846    0.000    0.000 
#    0.000    0.615    0.000    0.000    0.000    0.000 
#
# Total GULP energy -644825.863512 kJ/mol
# GULP energy per Si atom -12400.497375 kJ/mol
# Density = 1.700545 g / cm^3
# Si number density = 17.044243 Si / 1000 Ang^3
#
#
#
# Elastic Constant Matrix: (Units=GPa)
#
#
# Indices 1 2 3 4 5 6 
#
# 1 146.9883 43.4599 44.2354 0.0000 0.0000 0.0000
# 2 43.4599 88.6373 40.1279 0.0000 0.0000 0.0000
# 3 44.2354 40.1279 74.5103 0.0000 0.0001 0.0000
# 4 0.0000 0.0000 0.0000 16.0698 0.0000 0.0000
# 5 0.0000 0.0000 0.0001 0.0000 19.1517 0.0000
# 6 0.0000 0.0000 0.0000 0.0000 0.0000 20.2588
#
#
#
# Elastic Compliance Matrix: (Units=1/GPa)
#
#
# Indices 1 2 3 4 5 6 
#
# 1 0.008698 -0.002548 -0.003791 0.000000 0.000000 0.000000
# 2 -0.002548 0.015666 -0.006924 0.000000 0.000000 0.000000
# 3 -0.003791 -0.006924 0.019401 0.000000 0.000000 0.000000
# 4 0.000000 0.000000 0.000000 0.062229 0.000000 0.000000
# 5 0.000000 0.000000 0.000000 0.000000 0.052215 0.000000
# 6 0.000000 0.000000 0.000000 0.000000 0.000000 0.049361
#
#
# Mechanical properties :
#
#
# Convention : Reuss Voigt Hill
#
# Bulk Modulus (GPa) = 58.01415 62.86470 60.43943
# Shear Modulus (GPa) = 20.84704 23.25024 22.04864
#
# Velocity S-wave (km/s) = 3.50110 3.69739 3.60058
# Velocity P-wave (km/s) = 7.10316 7.42906 7.26794
#
# Compressibility (1/GPa) = 0.01723717
#
# Stress axis : x y z
#
# Youngs Moduli (GPa) = 114.97351 63.83228 51.54403
#
# Poissons Ratio (x) = 0.16265 0.19542
# Poissons Ratio (y) = 0.29297 0.35690
# Poissons Ratio (z) = 0.43590 0.44199
#
# Static dielectric constant tensor:
#      x y z
#    x 3.479870 0.000000 0.000000 
#    y 0.000000 3.071620 0.000000 
#    z 0.000000 0.000000 2.871460 
# 
# 
# High freq. dielectric constant tensor:
#      x y z
#    x 1.667710 0.000000 0.000000 
#    y 0.000000 1.655900 0.000000 
#    z 0.000000 0.000000 1.619650 
# 
# From -- ./inp_files/24833.got.cif
#   From: 2010.06.25/outbox.cif.g09.slc.cpg/sg71_13_cif.got.tgz:24833.got - 2010.06.28 04:59:45.
