data_PCOD8287167
_publ_section_title
;
Structure prediction by ZEFSAII (Michael W. Deem and Ramdas Pophale) SiO2 
 PCOD8287167
Probable space group: I M M M
;
_chemical_formula_sum "Si O2"
_cell_formula_units_Z 112
_cell_length_a 13.838928
_cell_length_b 36.900445
_cell_length_c 14.568093
_cell_angle_alpha 90.000000
_cell_angle_beta 90.000000
_cell_angle_gamma 90.000000
_cell_volume 7439.380271
_symmetry_space_group_name_H-M "I M M M"
_symmetry_group_IT_number 71
_symmetry_cell_setting 'orthorhombic'
loop_
_space_group_symop_operation_xyz
x,y,z
-x,-y,z
x,-y,-z
-x,y,-z
-x,-y,-z
x,y,-z
-x,y,z
x,-y,z
1/2+x,1/2+y,1/2+z
1/2-x,1/2-y,1/2+z
1/2+x,1/2-y,1/2-z
1/2-x,1/2+y,1/2-z
1/2-x,1/2-y,1/2-z
1/2+x,1/2+y,1/2-z
1/2-x,1/2+y,1/2+z
1/2+x,1/2-y,1/2+z
loop_
_atom_site_type_symbol
_atom_site_label
_atom_site_fract_x
_atom_site_fract_y
_atom_site_fract_z
Si Si1 0.886981 0.224874 0.895277
Si Si2 0.115162 0.096212 0.750001
Si Si3 0.296481 0.325883 0.250004
Si Si4 0.110977 0.714548 0.749994
Si Si5 0.885325 0.960301 0.601902
Si Si6 0.614675 0.539698 0.398098
Si Si7 0.386981 0.724870 0.104723
O O1 0.838346 0.191497 0.842895
O O2 0.864369 0.261955 0.840845
O O3 0.000000 0.216943 0.894107
O O4 0.848473 0.227957 0.000000
O O5 0.177769 0.132242 0.750004
O O6 0.150466 0.072760 0.663476
O O7 0.150467 0.072759 0.836524
O O8 0.000000 0.104453 0.750001
O O9 0.180239 0.320415 0.250006
O O10 0.338345 0.308505 0.157111
O O11 0.135631 0.738046 0.659146
O O12 0.000000 0.701541 0.749993
O O13 0.845437 0.953276 0.500000
O O14 0.000000 0.960767 0.602946
O O15 0.849227 0.000000 0.637017
O O16 0.654564 0.546724 0.500000
O O17 0.500000 0.539233 0.397054
O O18 0.650774 0.500000 0.362982
O O19 0.500000 0.716939 0.105895
O O20 0.348472 0.727951 0.000000
#
# Coordination Sequence:
#
# PCOD8287167 Si02
#       7
#    16  16  16  16  16  16  16
#     4   9  17  30  47  64  82 105 134 168 206 250
#     4  10  18  26  37  57  85 110 129 155 195 239
#     4  11  20  28  41  62  87 110 135 168 209 252
#     4   9  19  33  45  58  76 104 145 184 210 236
#     4   8  14  25  40  56  76 106 138 159 179 219
#     4   8  14  25  40  56  76 106 138 159 179 219
#     4   9  17  30  47  64  82 105 134 168 206 250
#
# _framework density 15.055018
#
# number of rings (size 3 to 8) (size 9 to 14) (size 15 to 20)
#    0.000    2.857    0.000    5.143    0.000    5.143 
#    0.000    2.857    0.000    0.000    0.000    0.000 
#    0.000    2.286    0.000    3.143    0.000    0.286 
#
# Total GULP energy -694008.540437 kJ/mol
# GULP energy per Si atom -12393.009651 kJ/mol
# Density = 1.502075 g / cm^3
# Si number density = 15.055018 Si / 1000 Ang^3
#
#
#
# Elastic Constant Matrix: (Units=GPa)
#
#
# Indices 1 2 3 4 5 6 
#
# 1 41.2431 56.0993 33.9030 0.0002 0.0000 0.0000
# 2 56.0993 132.2579 57.7704 0.0001 0.0000 0.0000
# 3 33.9030 57.7704 121.4697 0.0018 0.0007 0.0000
# 4 0.0002 0.0001 0.0018 13.8356 0.0003 0.0000
# 5 0.0000 0.0000 0.0007 0.0003 6.1846 0.0001
# 6 0.0000 0.0000 0.0000 0.0000 0.0001 18.9023
#
#
#
# Elastic Compliance Matrix: (Units=1/GPa)
#
#
# Indices 1 2 3 4 5 6 
#
# 1 0.060497 -0.023080 -0.005908 0.000000 0.000001 0.000000
# 2 -0.023080 0.018349 -0.002285 0.000000 0.000000 0.000000
# 3 -0.005908 -0.002285 0.010968 -0.000001 -0.000001 0.000000
# 4 0.000000 0.000000 -0.000001 0.072277 -0.000003 0.000000
# 5 0.000001 0.000000 -0.000001 -0.000003 0.161691 -0.000001
# 6 0.000000 0.000000 0.000000 0.000000 -0.000001 0.052904
#
#
# Mechanical properties :
#
#
# Convention : Reuss Voigt Hill
#
# Bulk Modulus (GPa) = 36.67352 65.61288 51.14320
# Shear Modulus (GPa) = 11.15272 17.59771 14.37522
#
# Velocity S-wave (km/s) = 2.72471 3.42262 3.09341
# Velocity P-wave (km/s) = 5.85758 7.70037 6.84131
#
# Compressibility (1/GPa) = 0.02726763
#
# Stress axis : x y z
#
# Youngs Moduli (GPa) = 16.52974 54.49973 91.17258
#
# Poissons Ratio (x) = 1.25785 0.53868
# Poissons Ratio (y) = 0.38151 0.20831
# Poissons Ratio (z) = 0.09766 0.12452
#
# Static dielectric constant tensor:
#      x y z
#    x 2.581540 0.000000 0.000000 
#    y 0.000000 2.805700 0.000000 
#    z 0.000000 0.000000 3.398360 
# 
# 
# High freq. dielectric constant tensor:
#      x y z
#    x 1.528860 0.000000 0.000000 
#    y 0.000000 1.558080 0.000000 
#    z 0.000000 0.000000 1.592860 
# 
# From -- ./inp_files/35359.got.cif
#   From: 2010.06.25/outbox.cif.g09.slc.cpg/sg71_18_cif.got.tgz:35359.got - 2010.06.28 04:59:45.
