data_PCOD8287625
_publ_section_title
;
Structure prediction by ZEFSAII (Michael W. Deem and Ramdas Pophale) SiO2 
 PCOD8287625
Probable space group: I M M M
;
_chemical_formula_sum "Si O2"
_cell_formula_units_Z 88
_cell_length_a 20.000019
_cell_length_b 16.019895
_cell_length_c 14.357244
_cell_angle_alpha 90.000000
_cell_angle_beta 90.000000
_cell_angle_gamma 90.000000
_cell_volume 4600.035197
_symmetry_space_group_name_H-M "I M M M"
_symmetry_group_IT_number 71
_symmetry_cell_setting 'orthorhombic'
loop_
_space_group_symop_operation_xyz
x,y,z
-x,-y,z
x,-y,-z
-x,y,-z
-x,-y,-z
x,y,-z
-x,y,z
x,-y,z
1/2+x,1/2+y,1/2+z
1/2-x,1/2-y,1/2+z
1/2+x,1/2-y,1/2-z
1/2-x,1/2+y,1/2-z
1/2-x,1/2-y,1/2-z
1/2+x,1/2+y,1/2-z
1/2-x,1/2+y,1/2+z
1/2+x,1/2-y,1/2+z
loop_
_atom_site_type_symbol
_atom_site_label
_atom_site_fract_x
_atom_site_fract_y
_atom_site_fract_z
Si Si1 0.500000 0.408192 0.220768
Si Si2 0.575610 0.000000 0.110380
Si Si3 0.144605 0.094212 0.220086
Si Si4 0.000000 0.241472 0.607273
Si Si5 0.226388 0.228855 0.891538
Si Si6 0.265643 0.407155 0.893669
Si Si7 0.869653 0.327796 0.389315
O O1 0.500000 0.500000 0.180023
O O2 0.565149 0.391347 0.283644
O O3 0.500000 0.355914 0.126131
O O4 0.619629 0.077671 0.144443
O O5 0.500000 0.000000 0.152410
O O6 0.568051 0.000000 0.000000
O O7 0.174280 0.168414 0.158173
O O8 0.170603 0.101024 0.326356
O O9 0.161787 0.000000 0.182156
O O10 0.932695 0.278293 0.653649
O O11 0.000000 0.265277 0.500000
O O12 0.214785 0.328985 0.873364
O O13 0.299920 0.207181 0.849760
O O14 0.221460 0.207499 0.000000
O O15 0.231821 0.500000 0.881147
O O16 0.292064 0.397053 0.000000
O O17 0.868718 0.319403 0.500000
#
# Coordination Sequence:
#
# PCOD8287625 Si02
#       7
#     8   8  16   8  16  16  16
#     4  10  22  37  50  67  94 134 177 215 262 310
#     4   9  14  24  40  60  96 139 164 190 237 299
#     4  10  21  36  53  75 105 139 176 220 266 309
#     4  10  18  30  48  73 102 131 165 205 252 307
#     4  10  20  33  53  80 106 136 176 219 262 309
#     4   9  18  34  55  79 108 139 170 207 255 315
#     4   9  17  27  43  70 102 134 167 199 243 307
#
# _framework density 19.130288
#
# number of rings (size 3 to 8) (size 9 to 14) (size 15 to 20)
#    0.000    2.455    0.909    1.636    1.273    2.727 
#    0.000    2.273    0.000    1.636    0.000    0.000 
#    0.000    2.909    0.000    0.000    0.000    1.091 
#
# Total GULP energy -545097.083441 kJ/mol
# GULP energy per Si atom -12388.570078 kJ/mol
# Density = 1.908675 g / cm^3
# Si number density = 19.130288 Si / 1000 Ang^3
#
#
#
# Elastic Constant Matrix: (Units=GPa)
#
#
# Indices 1 2 3 4 5 6 
#
# 1 78.2890 62.5588 16.3451 0.0000 0.0000 0.0000
# 2 62.5588 185.6552 38.7954 0.0000 0.0000 0.0000
# 3 16.3451 38.7954 42.6938 0.0000 0.0000 0.0000
# 4 0.0000 0.0000 0.0000 27.2281 0.0000 0.0000
# 5 0.0000 0.0000 0.0000 0.0000 10.0913 0.0000
# 6 0.0000 0.0000 0.0000 0.0000 0.0000 17.3071
#
#
#
# Elastic Compliance Matrix: (Units=1/GPa)
#
#
# Indices 1 2 3 4 5 6 
#
# 1 0.017575 -0.005575 -0.001663 0.000000 0.000000 0.000000
# 2 -0.005575 0.008417 -0.005514 0.000000 0.000000 0.000000
# 3 -0.001663 -0.005514 0.029070 0.000000 0.000000 0.000000
# 4 0.000000 0.000000 0.000000 0.036727 0.000000 0.000000
# 5 0.000000 0.000000 0.000000 0.000000 0.099095 0.000000
# 6 0.000000 0.000000 0.000000 0.000000 0.000000 0.057780
#
#
# Mechanical properties :
#
#
# Convention : Reuss Voigt Hill
#
# Bulk Modulus (GPa) = 33.83128 60.22630 47.02879
# Shear Modulus (GPa) = 17.60441 23.52122 20.56282
#
# Velocity S-wave (km/s) = 3.03683 3.51027 3.28210
# Velocity P-wave (km/s) = 5.47901 6.92675 6.24497
#
# Compressibility (1/GPa) = 0.02955844
#
# Stress axis : x y z
#
# Youngs Moduli (GPa) = 56.89945 118.80654 34.39966
#
# Poissons Ratio (x) = 0.66230 0.05720
# Poissons Ratio (y) = 0.31719 0.18969
# Poissons Ratio (z) = 0.09462 0.65513
#
# Static dielectric constant tensor:
#      x y z
#    x 3.482950 0.000000 0.000000 
#    y 0.000000 3.991170 0.000000 
#    z 0.000000 0.000000 3.044180 
# 
# 
# High freq. dielectric constant tensor:
#      x y z
#    x 1.719450 0.000000 0.000000 
#    y 0.000000 1.775380 0.000000 
#    z 0.000000 0.000000 1.694450 
# 
# From -- ./inp_files/38027.got.cif
#   From: 2010.06.25/outbox.cif.g09.slc.cpg/sg71_20_cif.got.tgz:38027.got - 2010.06.28 04:59:45.
