data_PCOD8287915
_publ_section_title
;
Structure prediction by ZEFSAII (Michael W. Deem and Ramdas Pophale) SiO2 
 PCOD8287915
Probable space group: I M M M
;
_chemical_formula_sum "Si O2"
_cell_formula_units_Z 112
_cell_length_a 13.349816
_cell_length_b 15.248273
_cell_length_c 30.334074
_cell_angle_alpha 90.000000
_cell_angle_beta 90.000000
_cell_angle_gamma 90.000000
_cell_volume 6174.853817
_symmetry_space_group_name_H-M "I M M M"
_symmetry_group_IT_number 71
_symmetry_cell_setting 'orthorhombic'
loop_
_space_group_symop_operation_xyz
x,y,z
-x,-y,z
x,-y,-z
-x,y,-z
-x,-y,-z
x,y,-z
-x,y,z
x,-y,z
1/2+x,1/2+y,1/2+z
1/2-x,1/2-y,1/2+z
1/2+x,1/2-y,1/2-z
1/2-x,1/2+y,1/2-z
1/2-x,1/2-y,1/2-z
1/2+x,1/2+y,1/2-z
1/2-x,1/2+y,1/2+z
1/2+x,1/2-y,1/2+z
loop_
_atom_site_type_symbol
_atom_site_label
_atom_site_fract_x
_atom_site_fract_y
_atom_site_fract_z
Si Si1 0.753252 0.702766 0.821456
Si Si2 0.886083 0.823371 0.125923
Si Si3 0.235181 0.899490 0.050730
Si Si4 0.115714 0.100003 0.619723
Si Si5 0.885232 0.092749 0.216964
Si Si6 0.115103 0.752699 0.449942
Si Si7 0.118774 0.275106 0.743428
O O1 0.814872 0.740604 0.863051
O O2 0.685272 0.622192 0.838219
O O3 0.833154 0.669168 0.783804
O O4 0.677487 0.781483 0.803166
O O5 0.858855 0.870447 0.080210
O O6 0.872775 0.893372 0.164844
O O7 0.000000 0.789186 0.122999
O O8 0.327096 0.835948 0.063272
O O9 0.266626 0.000000 0.060490
O O10 0.202858 0.888245 0.000000
O O11 0.145458 0.164250 0.579766
O O12 0.000000 0.113140 0.633724
O O13 0.135404 0.000000 0.604890
O O14 0.846210 0.175282 0.244323
O O15 0.000000 0.084220 0.229562
O O16 0.831144 0.000000 0.229266
O O17 0.139040 0.780566 0.500000
O O18 0.000000 0.728355 0.443313
O O19 0.000000 0.293142 0.739582
#
# Coordination Sequence:
#
# PCOD8287915 Si02
#       7
#    16  16  16  16  16  16  16
#     4  10  18  32  50  72 102 138 175 215 265 316
#     4  10  19  32  50  72 103 141 177 214 256 307
#     4  10  20  33  52  81 112 141 175 212 256 310
#     4  10  20  33  53  82 109 134 173 223 270 313
#     4   8  14  25  42  66  95 127 163 201 245 298
#     4   9  18  34  54  77 110 146 175 208 256 313
#     4   9  18  30  48  72 100 137 175 212 260 315
#
# _framework density 18.138081
#
# number of rings (size 3 to 8) (size 9 to 14) (size 15 to 20)
#    0.000    2.571    1.429    2.143    0.000    2.286 
#    0.000    5.000    0.000    1.714    0.000    0.000 
#    0.000    2.286    0.000    0.000    0.000    0.000 
#
# Total GULP energy -693749.803757 kJ/mol
# GULP energy per Si atom -12388.389353 kJ/mol
# Density = 1.809680 g / cm^3
# Si number density = 18.138081 Si / 1000 Ang^3
#
#
#
# Elastic Constant Matrix: (Units=GPa)
#
#
# Indices 1 2 3 4 5 6 
#
# 1 105.6470 38.3208 42.6085 0.0000 0.0000 0.0000
# 2 38.3208 90.0748 34.7422 0.0000 0.0000 0.0000
# 3 42.6085 34.7422 71.0348 0.0000 0.0000 0.0000
# 4 0.0000 0.0000 0.0000 36.6921 0.0000 0.0000
# 5 0.0000 0.0000 0.0000 0.0000 31.1503 0.0000
# 6 0.0000 0.0000 0.0000 0.0000 0.0000 21.9610
#
#
#
# Elastic Compliance Matrix: (Units=1/GPa)
#
#
# Indices 1 2 3 4 5 6 
#
# 1 0.013174 -0.003151 -0.006361 0.000000 0.000000 0.000000
# 2 -0.003151 0.014437 -0.005171 0.000000 0.000000 0.000000
# 3 -0.006361 -0.005171 0.020422 0.000000 0.000000 0.000000
# 4 0.000000 0.000000 0.000000 0.027254 0.000000 0.000000
# 5 0.000000 0.000000 0.000000 0.000000 0.032102 0.000000
# 6 0.000000 0.000000 0.000000 0.000000 0.000000 0.045535
#
#
# Mechanical properties :
#
#
# Convention : Reuss Voigt Hill
#
# Bulk Modulus (GPa) = 53.56991 55.34440 54.45716
# Shear Modulus (GPa) = 26.52350 28.03302 27.27826
#
# Velocity S-wave (km/s) = 3.82817 3.93559 3.88225
# Velocity P-wave (km/s) = 7.00988 7.15758 7.08411
#
# Compressibility (1/GPa) = 0.01866719
#
# Stress axis : x y z
#
# Youngs Moduli (GPa) = 75.90766 69.26704 48.96702
#
# Poissons Ratio (x) = 0.21828 0.31147
# Poissons Ratio (y) = 0.23920 0.25319
# Poissons Ratio (z) = 0.48284 0.35816
#
# Static dielectric constant tensor:
#      x y z
#    x 3.354660 0.000000 0.000000 
#    y 0.000000 -45.970990 0.000000 
#    z 0.000000 0.000000 3.431320 
# 
# 
# High freq. dielectric constant tensor:
#      x y z
#    x 1.700240 0.000000 0.000000 
#    y 0.000000 1.672420 0.000000 
#    z 0.000000 0.000000 1.704550 
# 
# From -- ./inp_files/70078.got.cif
#   From: 2010.06.25/outbox.cif.g09.slc.cpg/sg71_36_cif.got.tgz:70078.got - 2010.06.28 04:59:45.
