data_PCOD8287253
_publ_section_title
;
Structure prediction by ZEFSAII (Michael W. Deem and Ramdas Pophale) SiO2 
 PCOD8287253
Probable space group: I M M M
;
_chemical_formula_sum "Si O2"
_cell_formula_units_Z 84
_cell_length_a 20.487627
_cell_length_b 19.667666
_cell_length_c 11.520529
_cell_angle_alpha 90.000000
_cell_angle_beta 90.000000
_cell_angle_gamma 90.000000
_cell_volume 4642.125791
_symmetry_space_group_name_H-M "I M M M"
_symmetry_group_IT_number 71
_symmetry_cell_setting 'orthorhombic'
loop_
_space_group_symop_operation_xyz
x,y,z
-x,-y,z
x,-y,-z
-x,y,-z
-x,-y,-z
x,y,-z
-x,y,z
x,-y,z
1/2+x,1/2+y,1/2+z
1/2-x,1/2-y,1/2+z
1/2+x,1/2-y,1/2-z
1/2-x,1/2+y,1/2-z
1/2-x,1/2-y,1/2-z
1/2+x,1/2+y,1/2-z
1/2-x,1/2+y,1/2+z
1/2+x,1/2-y,1/2+z
loop_
_atom_site_type_symbol
_atom_site_label
_atom_site_fract_x
_atom_site_fract_y
_atom_site_fract_z
Si Si1 0.135393 0.124915 0.732841
Si Si2 0.776216 0.627451 0.135979
Si Si3 0.000000 0.355296 0.862505
Si Si4 0.647382 0.000000 0.374659
Si Si5 0.425141 0.500000 0.362709
Si Si6 0.500000 0.000000 0.333848
Si Si7 0.923263 0.923243 0.500000
Si Si8 0.878761 0.738256 0.133663
O O1 0.212837 0.122060 0.715764
O O2 0.099625 0.118342 0.610895
O O3 0.114928 0.196418 0.786417
O O4 0.112730 0.065864 0.818621
O O5 0.825613 0.568970 0.184133
O O6 0.810380 0.700195 0.155698
O O7 0.758141 0.619320 0.000000
O O8 0.063346 0.312344 0.831931
O O9 0.000000 0.423616 0.778572
O O10 0.000000 0.377469 0.000000
O O11 0.680877 0.000000 0.500000
O O12 0.569955 0.000000 0.397083
O O13 0.500000 0.500000 0.316068
O O14 0.424168 0.500000 0.500000
O O15 0.000000 0.928052 0.500000
O O16 0.893458 0.000000 0.500000
O O17 0.885476 0.760891 0.000000
#
# Coordination Sequence:
#
# PCOD8287253 Si02
#       8
#    16  16   8   8   8   4   8  16
#     4  12  22  39  60  81 113 154 192 236 287 346
#     4  10  20  35  53  84 115 151 192 232 284 340
#     4  10  19  32  52  84 116 150 185 225 290 337
#     4  10  18  27  50  78 112 142 182 230 275 333
#     4  11  25  41  60  86 111 147 193 239 293 353
#     4  12  17  30  54  82 110 149 186 233 280 330
#     4  11  24  40  58  84 110 146 196 244 287 330
#     4  10  22  36  55  83 120 153 188 238 290 345
#
# _framework density 18.095158000000001
#
# number of rings (size 3 to 8) (size 9 to 14) (size 15 to 20)
#    0.000    1.333    3.810    3.143    2.667    0.000 
#    0.000    0.000    0.000    0.000    0.000    0.000 
#    0.000    0.762    0.000    2.667    0.000    0.000 
#
# Total GULP energy -520419.611345 kJ/mol
# GULP energy per Si atom -12390.943127 kJ/mol
# Density = 1.805397 g / cm^3
# Si number density = 18.095158 Si / 1000 Ang^3
#
#
#
# Elastic Constant Matrix: (Units=GPa)
#
#
# Indices 1 2 3 4 5 6 
#
# 1 124.4357 62.6246 38.2340 0.0000 0.0000 0.0000
# 2 62.6246 168.2482 58.0885 0.0000 0.0000 0.0000
# 3 38.2340 58.0885 71.1037 0.0000 0.0000 0.0000
# 4 0.0000 0.0000 0.0000 2.1122 0.0000 0.0000
# 5 0.0000 0.0000 0.0000 0.0000 101.8106 0.0000
# 6 0.0000 0.0000 0.0000 0.0000 0.0000 20.2421
#
#
#
# Elastic Compliance Matrix: (Units=1/GPa)
#
#
# Indices 1 2 3 4 5 6 
#
# 1 0.010447 -0.002715 -0.003400 0.000000 0.000000 0.000000
# 2 -0.002715 0.008984 -0.005880 0.000000 0.000000 0.000000
# 3 -0.003400 -0.005880 0.020696 0.000000 0.000000 0.000000
# 4 0.000000 0.000000 0.000000 0.473449 0.000000 0.000000
# 5 0.000000 0.000000 0.000000 0.000000 0.009822 0.000000
# 6 0.000000 0.000000 0.000000 0.000000 0.000000 0.049402
#
#
# Mechanical properties :
#
#
# Convention : Reuss Voigt Hill
#
# Bulk Modulus (GPa) = 61.96510 75.74241 68.85375
# Shear Modulus (GPa) = 8.30333 38.48899 23.39616
#
# Velocity S-wave (km/s) = 2.14445 4.61698 3.59966
# Velocity P-wave (km/s) = 6.36002 8.38872 7.44381
#
# Compressibility (1/GPa) = 0.01613812
#
# Stress axis : x y z
#
# Youngs Moduli (GPa) = 95.71968 111.30736 48.31931
#
# Poissons Ratio (x) = 0.30218 0.16428
# Poissons Ratio (y) = 0.25986 0.28411
# Poissons Ratio (z) = 0.32543 0.65447
#
# Static dielectric constant tensor:
#      x y z
#    x 3.491790 0.000000 0.000000 
#    y 0.000000 3.577440 0.000000 
#    z 0.000000 0.000000 2.960720 
# 
# 
# High freq. dielectric constant tensor:
#      x y z
#    x 1.720420 0.000000 0.000000 
#    y 0.000000 1.719770 0.000000 
#    z 0.000000 0.000000 1.649900 
# 
# From -- ./inp_files/25932.got.cif
#   From: 2010.06.25/outbox.cif.g09.slc.cpg/sg71_13_cif.got.tgz:25932.got - 2010.06.28 04:59:45.
