data_PCOD8287521
_publ_section_title
;
Structure prediction by ZEFSAII (Michael W. Deem and Ramdas Pophale) SiO2 
 PCOD8287521
Probable space group: I M M M
;
_chemical_formula_sum "Si O2"
_cell_formula_units_Z 104
_cell_length_a 28.280874
_cell_length_b 8.822886
_cell_length_c 23.128456
_cell_angle_alpha 90.000000
_cell_angle_beta 90.000000
_cell_angle_gamma 90.000000
_cell_volume 5770.987531
_symmetry_space_group_name_H-M "I M M M"
_symmetry_group_IT_number 71
_symmetry_cell_setting 'orthorhombic'
loop_
_space_group_symop_operation_xyz
x,y,z
-x,-y,z
x,-y,-z
-x,y,-z
-x,-y,-z
x,y,-z
-x,y,z
x,-y,z
1/2+x,1/2+y,1/2+z
1/2-x,1/2-y,1/2+z
1/2+x,1/2-y,1/2-z
1/2-x,1/2+y,1/2-z
1/2-x,1/2-y,1/2-z
1/2+x,1/2+y,1/2-z
1/2-x,1/2+y,1/2+z
1/2+x,1/2-y,1/2+z
loop_
_atom_site_type_symbol
_atom_site_label
_atom_site_fract_x
_atom_site_fract_y
_atom_site_fract_z
Si Si1 0.805141 0.177052 0.678003
Si Si2 0.700801 0.824322 0.698920
Si Si3 0.554394 0.675187 0.780243
Si Si4 0.607387 0.178659 0.883116
Si Si5 0.612079 0.321412 0.666364
Si Si6 0.552109 0.678958 0.437648
Si Si7 0.444957 0.819953 0.000000
O O1 0.749937 0.215618 0.666113
O O2 0.812053 0.230149 0.743616
O O3 0.840405 0.254176 0.631531
O O4 0.816285 0.000000 0.675076
O O5 0.659910 0.772782 0.656169
O O6 0.699667 0.000000 0.715676
O O7 0.500000 0.708887 0.765664
O O8 0.562274 0.500000 0.796590
O O9 0.570359 0.776785 0.833758
O O10 0.585468 0.720834 0.725314
O O11 0.613442 0.000000 0.885278
O O12 0.584762 0.237608 0.943796
O O13 0.621871 0.500000 0.661711
O O14 0.582091 0.252943 0.614037
O O15 0.575130 0.718418 0.500000
O O16 0.500000 0.750236 0.434328
O O17 0.548410 0.500000 0.429360
O O18 0.500000 0.758814 0.000000
O O19 0.447359 0.000000 0.000000
#
# Coordination Sequence:
#
# PCOD8287521 Si02
#       7
#    16  16  16  16  16  16   8
#     4  10  20  35  54  77 105 135 169 213 262 314
#     4  10  20  33  52  78 106 136 170 208 258 318
#     4  10  20  32  47  73 109 141 170 210 262 315
#     4  11  21  35  57  80 104 138 179 221 268 318
#     4  10  18  29  49  76 106 138 169 212 262 303
#     4   8  14  26  46  72 101 135 175 211 244 290
#     4   9  20  38  57  79 109 143 179 223 274 325
#
# _framework density 18.021179
#
# number of rings (size 3 to 8) (size 9 to 14) (size 15 to 20)
#    0.000    2.231    1.538    2.769    0.000    4.615 
#    0.000    1.538    1.692    4.615    0.000    1.077 
#    0.000    0.000    0.000    0.000    0.000    0.000 
#
# Total GULP energy -644385.156109 kJ/mol
# GULP energy per Si atom -12392.022233 kJ/mol
# Density = 1.798016 g / cm^3
# Si number density = 18.021179 Si / 1000 Ang^3
#
#
#
# Elastic Constant Matrix: (Units=GPa)
#
#
# Indices 1 2 3 4 5 6 
#
# 1 154.3612 39.8330 70.4306 0.0000 0.0000 0.0000
# 2 39.8330 44.5786 35.7611 0.0000 0.0000 0.0000
# 3 70.4306 35.7611 111.7908 0.0000 0.0000 0.0000
# 4 0.0000 0.0000 0.0000 15.8450 0.0000 0.0000
# 5 0.0000 0.0000 0.0000 0.0000 25.5037 0.0000
# 6 0.0000 0.0000 0.0000 0.0000 0.0000 29.0656
#
#
#
# Elastic Compliance Matrix: (Units=1/GPa)
#
#
# Indices 1 2 3 4 5 6 
#
# 1 0.009905 -0.005172 -0.004586 0.000000 0.000000 0.000000
# 2 -0.005172 0.032877 -0.007259 0.000000 0.000000 0.000000
# 3 -0.004586 -0.007259 0.014157 0.000000 0.000000 0.000000
# 4 0.000000 0.000000 0.000000 0.063111 0.000000 0.000000
# 5 0.000000 0.000000 0.000000 0.000000 0.039210 0.000000
# 6 0.000000 0.000000 0.000000 0.000000 0.000000 0.034405
#
#
# Mechanical properties :
#
#
# Convention : Reuss Voigt Hill
#
# Bulk Modulus (GPa) = 43.65806 66.97556 55.31681
# Shear Modulus (GPa) = 21.24646 25.06325 23.15485
#
# Velocity S-wave (km/s) = 3.43734 3.73334 3.58840
# Velocity P-wave (km/s) = 6.32711 7.47191 6.92321
#
# Compressibility (1/GPa) = 0.02290528
#
# Stress axis : x y z
#
# Youngs Moduli (GPa) = 100.95408 30.41684 70.63818
#
# Poissons Ratio (x) = 0.15731 0.32396
# Poissons Ratio (y) = 0.52213 0.51273
# Poissons Ratio (z) = 0.46300 0.22078
#
# Static dielectric constant tensor:
#      x y z
#    x 3.716440 0.000000 0.000000 
#    y 0.000000 3.088020 0.000000 
#    z 0.000000 0.000000 3.351430 
# 
# 
# High freq. dielectric constant tensor:
#      x y z
#    x 1.713000 0.000000 0.000000 
#    y 0.000000 1.676420 0.000000 
#    z 0.000000 0.000000 1.680440 
# 
# From -- ./inp_files/56695.got.cif
#   From: 2010.06.25/outbox.cif.g09.slc.cpg/sg71_29_cif.got.tgz:56695.got - 2010.06.28 04:59:45.
