data_PCOD8287240
_publ_section_title
;
Structure prediction by ZEFSAII (Michael W. Deem and Ramdas Pophale) SiO2 
 PCOD8287240
Probable space group: I M M M
;
_chemical_formula_sum "Si O2"
_cell_formula_units_Z 104
_cell_length_a 17.641028
_cell_length_b 28.137483
_cell_length_c 13.509004
_cell_angle_alpha 90.000000
_cell_angle_beta 90.000000
_cell_angle_gamma 90.000000
_cell_volume 6705.520046
_symmetry_space_group_name_H-M "I M M M"
_symmetry_group_IT_number 71
_symmetry_cell_setting 'orthorhombic'
loop_
_space_group_symop_operation_xyz
x,y,z
-x,-y,z
x,-y,-z
-x,y,-z
-x,-y,-z
x,y,-z
-x,y,z
x,-y,z
1/2+x,1/2+y,1/2+z
1/2-x,1/2-y,1/2+z
1/2+x,1/2-y,1/2-z
1/2-x,1/2+y,1/2-z
1/2-x,1/2-y,1/2-z
1/2+x,1/2+y,1/2-z
1/2-x,1/2+y,1/2+z
1/2+x,1/2-y,1/2+z
loop_
_atom_site_type_symbol
_atom_site_label
_atom_site_fract_x
_atom_site_fract_y
_atom_site_fract_z
Si Si1 0.414070 0.772003 0.200862
Si Si2 0.000000 0.556314 0.108483
Si Si3 0.835645 0.445239 0.882409
Si Si4 0.585373 0.667486 0.115858
Si Si5 0.319100 0.777027 0.387717
Si Si6 0.723944 0.182611 0.888025
Si Si7 0.232853 0.865744 0.301713
O O1 0.500000 0.789360 0.191067
O O2 0.402609 0.719785 0.158155
O O3 0.391289 0.772660 0.316379
O O4 0.364143 0.809307 0.138421
O O5 0.919697 0.570907 0.159372
O O6 0.000000 0.500000 0.096403
O O7 0.000000 0.579779 0.000000
O O8 0.820149 0.500000 0.856603
O O9 0.771438 0.415606 0.827102
O O10 0.832108 0.436870 0.000000
O O11 0.500000 0.649293 0.137185
O O12 0.644116 0.631763 0.168950
O O13 0.602657 0.669044 0.000000
O O14 0.349086 0.778731 0.500000
O O15 0.264764 0.732539 0.369187
O O16 0.271739 0.824114 0.364721
O O17 0.759907 0.143172 0.815915
O O18 0.732901 0.164280 0.000000
#
# Coordination Sequence:
#
# PCOD8287240 Si02
#       7
#    16   8  16  16  16  16  16
#     4  10  18  29  43  61  88 123 157 185 217 265
#     4   7  12  26  44  64  91 117 143 175 216 270
#     4   9  17  29  48  71  93 119 148 182 227 278
#     4  10  18  27  43  66  90 119 154 187 216 260
#     4  10  18  30  45  64  90 121 149 185 232 270
#     4  10  19  32  47  63  88 123 158 191 228 266
#     4  11  18  31  48  67  89 118 156 190 227 274
#
# _framework density 15.509611
#
# number of rings (size 3 to 8) (size 9 to 14) (size 15 to 20)
#    0.000    2.231    3.077    3.692    0.000    1.231 
#    5.538    0.000    0.000    1.385    0.000    2.154 
#    0.000    1.846    0.000    1.385    0.000    0.154 
#
# Total GULP energy -644593.091134 kJ/mol
# GULP energy per Si atom -12396.020983 kJ/mol
# Density = 1.547431 g / cm^3
# Si number density = 15.509611 Si / 1000 Ang^3
#
#
#
# Elastic Constant Matrix: (Units=GPa)
#
#
# Indices 1 2 3 4 5 6 
#
# 1 102.3899 37.4226 43.7722 0.0000 0.0000 0.0000
# 2 37.4226 53.5701 35.1561 0.0001 0.0000 0.0000
# 3 43.7722 35.1561 100.1443 0.0009 -0.0001 0.0000
# 4 0.0000 0.0001 0.0009 12.1294 0.0000 0.0000
# 5 0.0000 0.0000 -0.0001 0.0000 18.5237 0.0000
# 6 0.0000 0.0000 0.0000 0.0000 0.0000 20.8561
#
#
#
# Elastic Compliance Matrix: (Units=1/GPa)
#
#
# Indices 1 2 3 4 5 6 
#
# 1 0.013994 -0.007487 -0.003489 0.000000 0.000000 0.000000
# 2 -0.007487 0.028260 -0.006649 0.000000 0.000000 0.000000
# 3 -0.003489 -0.006649 0.013844 -0.000001 0.000000 0.000000
# 4 0.000000 0.000000 -0.000001 0.082444 0.000000 0.000000
# 5 0.000000 0.000000 0.000000 0.000000 0.053985 0.000000
# 6 0.000000 0.000000 0.000000 0.000000 0.000000 0.047948
#
#
# Mechanical properties :
#
#
# Convention : Reuss Voigt Hill
#
# Bulk Modulus (GPa) = 47.95819 54.31178 51.13499
# Shear Modulus (GPa) = 17.68828 19.61876 18.65352
#
# Velocity S-wave (km/s) = 3.38075 3.56046 3.47177
# Velocity P-wave (km/s) = 6.79912 7.21087 7.00802
#
# Compressibility (1/GPa) = 0.02085149
#
# Stress axis : x y z
#
# Youngs Moduli (GPa) = 71.45793 35.38542 72.23130
#
# Poissons Ratio (x) = 0.26492 0.25198
# Poissons Ratio (y) = 0.53498 0.48023
# Poissons Ratio (z) = 0.24929 0.23526
#
# Static dielectric constant tensor:
#      x y z
#    x 3.323390 0.000000 0.000000 
#    y 0.000000 2.597720 0.000000 
#    z 0.000000 0.000000 2.975910 
# 
# 
# High freq. dielectric constant tensor:
#      x y z
#    x 1.602270 0.000000 0.000000 
#    y 0.000000 1.549390 0.000000 
#    z 0.000000 0.000000 1.585240 
# 
# From -- ./inp_files/36937.got.cif
#   From: 2010.06.25/outbox.cif.g09.slc.cpg/sg71_19_cif.got.tgz:36937.got - 2010.06.28 04:59:45.
