data_PCOD8287290
_publ_section_title
;
Structure prediction by ZEFSAII (Michael W. Deem and Ramdas Pophale) SiO2 
 PCOD8287290
Probable space group: I M M M
;
_chemical_formula_sum "Si O2"
_cell_formula_units_Z 104
_cell_length_a 27.073299
_cell_length_b 10.767181
_cell_length_c 21.843043
_cell_angle_alpha 90.000000
_cell_angle_beta 90.000000
_cell_angle_gamma 90.000000
_cell_volume 6367.314979
_symmetry_space_group_name_H-M "I M M M"
_symmetry_group_IT_number 71
_symmetry_cell_setting 'orthorhombic'
loop_
_space_group_symop_operation_xyz
x,y,z
-x,-y,z
x,-y,-z
-x,y,-z
-x,-y,-z
x,y,-z
-x,y,z
x,-y,z
1/2+x,1/2+y,1/2+z
1/2-x,1/2-y,1/2+z
1/2+x,1/2-y,1/2-z
1/2-x,1/2+y,1/2-z
1/2-x,1/2-y,1/2-z
1/2+x,1/2+y,1/2-z
1/2-x,1/2+y,1/2+z
1/2+x,1/2-y,1/2+z
loop_
_atom_site_type_symbol
_atom_site_label
_atom_site_fract_x
_atom_site_fract_y
_atom_site_fract_z
Si Si1 0.056323 0.147633 0.000000
Si Si2 0.885494 0.852425 0.119794
Si Si3 0.278952 0.743235 0.350503
Si Si4 0.296928 0.865889 0.767808
Si Si5 0.553986 0.355859 0.735486
Si Si6 0.639987 0.641863 0.182692
Si Si7 0.198504 0.857454 0.432162
O O1 0.085511 0.196012 0.059828
O O2 0.000000 0.199560 0.000000
O O3 0.054552 0.000000 0.000000
O O4 0.830296 0.799851 0.120542
O O5 0.914685 0.800033 0.179043
O O6 0.882330 0.000000 0.120265
O O7 0.284164 0.860695 0.304492
O O8 0.252305 0.636363 0.309880
O O9 0.244394 0.779096 0.407339
O O10 0.329417 0.744239 0.780472
O O11 0.322986 0.000000 0.779958
O O12 0.500000 0.291517 0.739943
O O13 0.546491 0.500000 0.722046
O O14 0.582751 0.335181 0.799819
O O15 0.655007 0.500000 0.202687
O O16 0.649791 0.660381 0.110441
O O17 0.184702 0.809506 0.500000
O O18 0.214870 0.000000 0.433795
#
# Coordination Sequence:
#
# PCOD8287290 Si02
#       7
#     8  16  16  16  16  16  16
#     4   9  18  30  42  60  89 125 163 201 242 283
#     4  10  18  28  43  64  92 124 156 196 239 280
#     4  10  19  28  44  66  93 124 157 192 227 279
#     4  10  19  30  46  69  97 126 153 189 237 284
#     4   9  16  27  46  70  91 113 150 198 242 283
#     4   9  17  31  50  71  94 122 157 194 234 282
#     4   9  18  31  46  64  90 124 160 192 224 273
#
# _framework density 16.333414999999999
#
# number of rings (size 3 to 8) (size 9 to 14) (size 15 to 20)
#    0.000    2.538    1.538    1.385    1.077    5.538 
#    0.000    0.000    0.000    5.077    0.000    3.231 
#    0.000    2.462    0.000    5.538    0.000    4.308 
#
# Total GULP energy -644221.002302 kJ/mol
# GULP energy per Si atom -12388.865429 kJ/mol
# Density = 1.629624 g / cm^3
# Si number density = 16.333415 Si / 1000 Ang^3
#
#
#
# Elastic Constant Matrix: (Units=GPa)
#
#
# Indices 1 2 3 4 5 6 
#
# 1 125.2434 20.3135 68.3813 0.0000 0.0000 0.0000
# 2 20.3135 58.1810 22.3043 0.0000 0.0000 0.0000
# 3 68.3813 22.3043 131.6833 0.0000 0.0000 0.0000
# 4 0.0000 0.0000 0.0000 6.0568 0.0000 0.0000
# 5 0.0000 0.0000 0.0000 0.0000 23.9641 0.0000
# 6 0.0000 0.0000 0.0000 0.0000 0.0000 14.4703
#
#
#
# Elastic Compliance Matrix: (Units=1/GPa)
#
#
# Indices 1 2 3 4 5 6 
#
# 1 0.011321 -0.001817 -0.005571 0.000000 0.000000 0.000000
# 2 -0.001817 0.018673 -0.002219 0.000000 0.000000 0.000000
# 3 -0.005571 -0.002219 0.010863 0.000000 0.000000 0.000000
# 4 0.000000 0.000000 0.000000 0.165102 0.000000 0.000000
# 5 0.000000 0.000000 0.000000 0.000000 0.041729 0.000000
# 6 0.000000 0.000000 0.000000 0.000000 0.000000 0.069107
#
#
# Mechanical properties :
#
#
# Convention : Reuss Voigt Hill
#
# Bulk Modulus (GPa) = 46.20612 59.67844 52.94228
# Shear Modulus (GPa) = 14.56776 22.50549 18.53662
#
# Velocity S-wave (km/s) = 2.98971 3.71601 3.37247
# Velocity P-wave (km/s) = 6.34575 7.41812 6.90279
#
# Compressibility (1/GPa) = 0.02164216
#
# Stress axis : x y z
#
# Youngs Moduli (GPa) = 88.33272 53.55354 92.05707
#
# Poissons Ratio (x) = 0.09730 0.51285
# Poissons Ratio (y) = 0.16049 0.20430
# Poissons Ratio (z) = 0.49210 0.11885
#
# Static dielectric constant tensor:
#      x y z
#    x 3.155790 0.000000 0.000000 
#    y 0.000000 2.739840 0.000000 
#    z 0.000000 0.000000 3.245330 
# 
# 
# High freq. dielectric constant tensor:
#      x y z
#    x 1.618350 0.000000 0.000000 
#    y 0.000000 1.588920 0.000000 
#    z 0.000000 0.000000 1.628350 
# 
# From -- ./inp_files/56394.got.cif
#   From: 2010.06.25/outbox.cif.g09.slc.cpg/sg71_29_cif.got.tgz:56394.got - 2010.06.28 04:59:45.
