data_PCOD8287546
_publ_section_title
;
Structure prediction by ZEFSAII (Michael W. Deem and Ramdas Pophale) SiO2 
 PCOD8287546
Probable space group: I M M M
;
_chemical_formula_sum "Si O2"
_cell_formula_units_Z 88
_cell_length_a 28.026180
_cell_length_b 9.089388
_cell_length_c 24.468274
_cell_angle_alpha 90.000000
_cell_angle_beta 90.000000
_cell_angle_gamma 90.000000
_cell_volume 6233.068285
_symmetry_space_group_name_H-M "I M M M"
_symmetry_group_IT_number 71
_symmetry_cell_setting 'orthorhombic'
loop_
_space_group_symop_operation_xyz
x,y,z
-x,-y,z
x,-y,-z
-x,y,-z
-x,-y,-z
x,y,-z
-x,y,z
x,-y,z
1/2+x,1/2+y,1/2+z
1/2-x,1/2-y,1/2+z
1/2+x,1/2-y,1/2-z
1/2-x,1/2+y,1/2-z
1/2-x,1/2-y,1/2-z
1/2+x,1/2+y,1/2-z
1/2-x,1/2+y,1/2+z
1/2+x,1/2-y,1/2+z
loop_
_atom_site_type_symbol
_atom_site_label
_atom_site_fract_x
_atom_site_fract_y
_atom_site_fract_z
Si Si1 0.860343 0.336512 0.280854
Si Si2 0.552343 0.328460 0.751094
Si Si3 0.000000 0.668374 0.935356
Si Si4 0.740652 0.173917 0.192813
Si Si5 0.418416 0.325990 0.371656
Si Si6 0.673042 0.168419 0.656349
O O1 0.878404 0.500000 0.292458
O O2 0.906510 0.235279 0.290530
O O3 0.815651 0.298412 0.321054
O O4 0.841614 0.321254 0.219314
O O5 0.500000 0.265835 0.767164
O O6 0.553516 0.500000 0.760011
O O7 0.561627 0.287909 0.688207
O O8 0.046951 0.752456 0.915328
O O9 0.000000 0.500000 0.913837
O O10 0.000000 0.672675 0.000000
O O11 0.750000 0.250000 0.250000
O O12 0.775657 0.249971 0.148417
O O13 0.751518 0.000000 0.197030
O O14 0.415608 0.500000 0.381779
O O15 0.366131 0.254587 0.379588
O O16 0.677065 0.000000 0.636407
#
# Coordination Sequence:
#
# PCOD8287546 Si02
#       6
#    16  16   8  16  16  16
#     4   8  15  23  31  46  65  86 110 134 162 197
#     4   9  16  25  35  49  66  85 111 142 173 205
#     4  11  23  35  45  57  73  91 111 141 181 221
#     4   9  15  23  33  47  67  88 110 134 163 200
#     4  10  18  30  44  56  69  85 109 138 172 213
#     4   9  16  25  37  53  69  85 106 131 165 205
#
# _framework density 14.118247999999999
#
# number of rings (size 3 to 8) (size 9 to 14) (size 15 to 20)
#    0.000    2.818    0.909    3.000    0.000    6.909 
#    0.000    0.000    0.000    0.000    0.000    0.000 
#    0.000    0.000    0.000    0.000    0.000    0.000 
#
# Total GULP energy -545197.815539 kJ/mol
# GULP energy per Si atom -12390.859444 kJ/mol
# Density = 1.408611 g / cm^3
# Si number density = 14.118248 Si / 1000 Ang^3
#
#
#
# Elastic Constant Matrix: (Units=GPa)
#
#
# Indices 1 2 3 4 5 6 
#
# 1 140.1443 65.5108 24.7235 0.0000 0.0000 0.0000
# 2 65.5108 89.6688 17.7430 0.0000 0.0000 0.0000
# 3 24.7235 17.7430 14.3514 0.0000 0.0000 0.0000
# 4 0.0000 0.0000 0.0000 9.9249 0.0000 0.0000
# 5 0.0000 0.0000 0.0000 0.0000 8.4163 0.0000
# 6 0.0000 0.0000 0.0000 0.0000 0.0000 31.3008
#
#
#
# Elastic Compliance Matrix: (Units=1/GPa)
#
#
# Indices 1 2 3 4 5 6 
#
# 1 0.012575 -0.006488 -0.013642 0.000000 0.000000 0.000000
# 2 -0.006488 0.018111 -0.011215 0.000000 0.000000 0.000000
# 3 -0.013642 -0.011215 0.107047 0.000000 0.000000 0.000000
# 4 0.000000 0.000000 0.000000 0.100757 0.000000 0.000000
# 5 0.000000 0.000000 0.000000 0.000000 0.118817 0.000000
# 6 0.000000 0.000000 0.000000 0.000000 0.000000 0.031948
#
#
# Mechanical properties :
#
#
# Convention : Reuss Voigt Hill
#
# Bulk Modulus (GPa) = 13.32564 51.12434 32.22499
# Shear Modulus (GPa) = 10.48311 19.00756 14.74533
#
# Velocity S-wave (km/s) = 2.72788 3.67319 3.23525
# Velocity P-wave (km/s) = 4.40237 7.36749 6.06881
#
# Compressibility (1/GPa) = 0.07504332
#
# Stress axis : x y z
#
# Youngs Moduli (GPa) = 79.52417 55.21507 9.34172
#
# Poissons Ratio (x) = 0.35821 0.12744
# Poissons Ratio (y) = 0.51592 0.10477
# Poissons Ratio (z) = 1.08488 0.61923
#
# Static dielectric constant tensor:
#      x y z
#    x 3.649800 0.000000 0.000000 
#    y 0.000000 2.924550 0.000000 
#    z 0.000000 0.000000 2.134320 
# 
# 
# High freq. dielectric constant tensor:
#      x y z
#    x 1.558770 0.000000 0.000000 
#    y 0.000000 1.555790 0.000000 
#    z 0.000000 0.000000 1.439250 
# 
# From -- ./inp_files/11337.got.cif
#   From: 2010.06.25/outbox.cif.g09.slc.cpg/sg71_6_cif.got.tgz:11337.got - 2010.06.28 04:59:45.
