data_PCOD8287675
_publ_section_title
;
Structure prediction by ZEFSAII (Michael W. Deem and Ramdas Pophale) SiO2 
 PCOD8287675
Probable space group: I M M M
;
_chemical_formula_sum "Si O2"
_cell_formula_units_Z 64
_cell_length_a 34.651782
_cell_length_b 11.293405
_cell_length_c 9.288355
_cell_angle_alpha 90.000000
_cell_angle_beta 90.000000
_cell_angle_gamma 90.000000
_cell_volume 3634.873341
_symmetry_space_group_name_H-M "I M M M"
_symmetry_group_IT_number 71
_symmetry_cell_setting 'orthorhombic'
loop_
_space_group_symop_operation_xyz
x,y,z
-x,-y,z
x,-y,-z
-x,y,-z
-x,-y,-z
x,y,-z
-x,y,z
x,-y,z
1/2+x,1/2+y,1/2+z
1/2-x,1/2-y,1/2+z
1/2+x,1/2-y,1/2-z
1/2-x,1/2+y,1/2-z
1/2-x,1/2-y,1/2-z
1/2+x,1/2+y,1/2-z
1/2-x,1/2+y,1/2+z
1/2+x,1/2-y,1/2+z
loop_
_atom_site_type_symbol
_atom_site_label
_atom_site_fract_x
_atom_site_fract_y
_atom_site_fract_z
Si Si1 0.358254 0.365481 0.663410
Si Si2 0.576066 0.756899 0.169894
Si Si3 0.456851 0.000000 0.830142
Si Si4 0.500000 0.631915 0.829009
Si Si5 0.269028 0.363503 0.669846
O O1 0.364049 0.324054 0.500000
O O2 0.372037 0.500000 0.683660
O O3 0.383777 0.283488 0.764248
O O4 0.313912 0.352740 0.708360
O O5 0.568869 0.890436 0.219003
O O6 0.539049 0.688078 0.233110
O O7 0.579424 0.739995 0.000000
O O8 0.500000 0.000000 0.760894
O O9 0.462864 0.000000 0.000000
O O10 0.500000 0.500000 0.773941
O O11 0.500000 0.646627 0.000000
O O12 0.261568 0.348829 0.500000
O O13 0.255441 0.500000 0.714717
O O14 0.250000 0.250000 0.750000
#
# Coordination Sequence:
#
# PCOD8287675 Si02
#       5
#    16  16   8   8  16
#     4   9  19  36  54  73 103 137 165 202 255 307
#     4  10  18  30  50  73  98 130 171 211 249 297
#     4   9  16  30  49  69  97 135 171 209 257 297
#     4   9  16  25  42  70  97 121 160 213 252 284
#     4   9  19  37  59  82 109 141 176 215 262 317
#
# _framework density 17.607216000000001
#
# number of rings (size 3 to 8) (size 9 to 14) (size 15 to 20)
#    0.000    2.750    1.250    2.250    0.000    3.000 
#    2.250    3.750    0.000    3.000    0.000    0.000 
#    0.000    0.000    0.000    0.000    0.000    0.000 
#
# Total GULP energy -396453.787702 kJ/mol
# GULP energy per Si atom -12389.180866 kJ/mol
# Density = 1.756714 g / cm^3
# Si number density = 17.607216 Si / 1000 Ang^3
#
#
#
# Elastic Constant Matrix: (Units=GPa)
#
#
# Indices 1 2 3 4 5 6 
#
# 1 95.7008 69.6720 38.7045 0.0000 0.0000 0.0000
# 2 69.6720 155.8899 45.2655 0.0000 0.0000 0.0000
# 3 38.7045 45.2655 41.9030 0.0000 0.0000 -0.0001
# 4 0.0000 0.0000 0.0000 24.2745 0.0000 0.0000
# 5 0.0000 0.0000 0.0000 0.0000 28.8558 0.0000
# 6 0.0000 0.0000 -0.0001 0.0000 0.0000 -83.2375
#
#
#
# Elastic Compliance Matrix: (Units=1/GPa)
#
#
# Indices 1 2 3 4 5 6 
#
# 1 0.018977 -0.004942 -0.012190 0.000000 0.000000 0.000000
# 2 -0.004942 0.010633 -0.006922 0.000000 0.000000 0.000000
# 3 -0.012190 -0.006922 0.042602 0.000000 0.000000 0.000000
# 4 0.000000 0.000000 0.000000 0.041196 0.000000 0.000000
# 5 0.000000 0.000000 0.000000 0.000000 0.034655 0.000000
# 6 0.000000 0.000000 0.000000 0.000000 0.000000 -0.012014
#
#
# Mechanical properties :
#
#
# Convention : Reuss Voigt Hill
#
# Bulk Modulus (GPa) = 41.48648 66.75307 54.11977
# Shear Modulus (GPa) = 26.01563 3.30198 14.65880
#
# Velocity S-wave (km/s) = 3.84807 1.37092 2.88852
# Velocity P-wave (km/s) = 6.58459 6.36400 6.47524
#
# Compressibility (1/GPa) = 0.02410424
#
# Stress axis : x y z
#
# Youngs Moduli (GPa) = 52.69513 94.04352 23.47310
#
# Poissons Ratio (x) = 0.46474 0.28614
# Poissons Ratio (y) = 0.26041 0.16248
# Poissons Ratio (z) = 0.64237 0.65098
#
# Static dielectric constant tensor:
#      x y z
#    x 3.206740 0.000000 0.000000 
#    y 0.000000 2.867040 0.000000 
#    z 0.000000 0.000000 2.900160 
# 
# 
# High freq. dielectric constant tensor:
#      x y z
#    x 1.680350 0.000000 0.000000 
#    y 0.000000 1.693930 0.000000 
#    z 0.000000 0.000000 1.643550 
# 
# From -- ./inp_files/3787.got.cif
#   From: 2010.06.25/outbox.cif.g09.slc.cpg/sg71_2_cif.got.tgz:3787.got - 2010.06.28 04:59:45.
