data_PCOD8287392
_publ_section_title
;
Structure prediction by ZEFSAII (Michael W. Deem and Ramdas Pophale) SiO2 
 PCOD8287392
Probable space group: I M M M
;
_chemical_formula_sum "Si O2"
_cell_formula_units_Z 88
_cell_length_a 30.409199
_cell_length_b 19.585732
_cell_length_c 7.666037
_cell_angle_alpha 90.000000
_cell_angle_beta 90.000000
_cell_angle_gamma 90.000000
_cell_volume 4565.787547
_symmetry_space_group_name_H-M "I M M M"
_symmetry_group_IT_number 71
_symmetry_cell_setting 'orthorhombic'
loop_
_space_group_symop_operation_xyz
x,y,z
-x,-y,z
x,-y,-z
-x,y,-z
-x,-y,-z
x,y,-z
-x,y,z
x,-y,z
1/2+x,1/2+y,1/2+z
1/2-x,1/2-y,1/2+z
1/2+x,1/2-y,1/2-z
1/2-x,1/2+y,1/2-z
1/2-x,1/2-y,1/2-z
1/2+x,1/2+y,1/2-z
1/2-x,1/2+y,1/2+z
1/2+x,1/2-y,1/2+z
loop_
_atom_site_type_symbol
_atom_site_label
_atom_site_fract_x
_atom_site_fract_y
_atom_site_fract_z
Si Si1 0.247684 0.075463 0.204928
Si Si2 0.649642 0.574099 0.801612
Si Si3 0.292462 0.207097 0.796059
Si Si4 0.448030 0.076123 0.500000
Si Si5 0.623332 0.283230 0.206358
Si Si6 0.050953 0.322215 0.299175
O O1 0.201497 0.089906 0.298317
O O2 0.283883 0.129849 0.272705
O O3 0.265395 0.000000 0.251662
O O4 0.239089 0.083798 0.000000
O O5 0.639752 0.500000 0.708815
O O6 0.624166 0.639139 0.715359
O O7 0.634357 0.567530 0.000000
O O8 0.250000 0.250000 0.750000
O O9 0.336344 0.239379 0.710494
O O10 0.300111 0.204750 0.000000
O O11 0.500000 0.069552 0.500000
O O12 0.433221 0.116029 0.675132
O O13 0.427047 0.000000 0.500000
O O14 0.577690 0.246017 0.252670
O O15 0.630042 0.289087 0.000000
O O16 0.060161 0.343739 0.500000
O O17 0.000000 0.304547 0.268632
#
# Coordination Sequence:
#
# PCOD8287392 Si02
#       6
#    16  16  16   8  16  16
#     4   9  17  28  41  60  88 120 155 194 236 285
#     4   9  16  27  45  66  91 124 160 201 246 287
#     4  10  18  29  44  65  92 121 157 199 242 290
#     4   9  18  34  56  82 109 133 165 211 256 306
#     4   9  17  30  47  70  97 126 164 207 249 301
#     4   9  18  34  55  78 104 136 172 211 257 305
#
# _framework density 19.273783999999999
#
# number of rings (size 3 to 8) (size 9 to 14) (size 15 to 20)
#    0.000    2.818    1.818    0.000    0.000    0.364 
#    3.273    2.727    0.000    3.818    0.000    3.818 
#    0.000    2.182    0.000    0.182    0.000    0.000 
#
# Total GULP energy -545120.917822 kJ/mol
# GULP energy per Si atom -12389.111769 kJ/mol
# Density = 1.922992 g / cm^3
# Si number density = 19.273784 Si / 1000 Ang^3
#
#
#
# Elastic Constant Matrix: (Units=GPa)
#
#
# Indices 1 2 3 4 5 6 
#
# 1 76.9395 70.3319 15.4511 0.0000 0.0000 0.0000
# 2 70.3319 214.4742 35.0866 0.0000 0.0000 0.0000
# 3 15.4511 35.0866 42.7514 0.0000 0.0000 0.0000
# 4 0.0000 0.0000 0.0000 17.2889 0.0000 0.0000
# 5 0.0000 0.0000 0.0000 0.0000 14.7940 0.0000
# 6 0.0000 0.0000 0.0000 0.0000 0.0000 29.8583
#
#
#
# Elastic Compliance Matrix: (Units=1/GPa)
#
#
# Indices 1 2 3 4 5 6 
#
# 1 0.018707 -0.005808 -0.001994 0.000000 0.000000 0.000000
# 2 -0.005808 0.007189 -0.003801 0.000000 0.000000 0.000000
# 3 -0.001994 -0.003801 0.027231 0.000000 0.000000 0.000000
# 4 0.000000 0.000000 0.000000 0.057841 0.000000 0.000000
# 5 0.000000 0.000000 0.000000 0.000000 0.067595 0.000000
# 6 0.000000 0.000000 0.000000 0.000000 0.000000 0.033492
#
#
# Mechanical properties :
#
#
# Convention : Reuss Voigt Hill
#
# Bulk Modulus (GPa) = 33.42168 63.98939 48.70553
# Shear Modulus (GPa) = 20.38858 26.60793 23.49825
#
# Velocity S-wave (km/s) = 3.25597 3.71957 3.49547
# Velocity P-wave (km/s) = 5.61367 7.19161 6.45107
#
# Compressibility (1/GPa) = 0.02992070
#
# Stress axis : x y z
#
# Youngs Moduli (GPa) = 53.45517 139.09943 36.72258
#
# Poissons Ratio (x) = 0.80794 0.07323
# Poissons Ratio (y) = 0.31049 0.13958
# Poissons Ratio (z) = 0.10660 0.52871
#
# Static dielectric constant tensor:
#      x y z
#    x 3.226020 0.000000 0.000000 
#    y 0.000000 4.190190 0.000000 
#    z 0.000000 0.000000 3.376270 
# 
# 
# High freq. dielectric constant tensor:
#      x y z
#    x 1.702430 0.000000 0.000000 
#    y 0.000000 1.766990 0.000000 
#    z 0.000000 0.000000 1.732220 
# 
# From -- ./inp_files/11356.got.cif
#   From: 2010.06.25/outbox.cif.g09.slc.cpg/sg71_6_cif.got.tgz:11356.got - 2010.06.28 04:59:45.
