data_PCOD8287801
_publ_section_title
;
Structure prediction by ZEFSAII (Michael W. Deem and Ramdas Pophale) SiO2 
 PCOD8287801
Probable space group: I M M M
;
_chemical_formula_sum "Si O2"
_cell_formula_units_Z 88
_cell_length_a 12.181265
_cell_length_b 30.610391
_cell_length_c 13.697550
_cell_angle_alpha 90.000000
_cell_angle_beta 90.000000
_cell_angle_gamma 90.000000
_cell_volume 5107.450458
_symmetry_space_group_name_H-M "I M M M"
_symmetry_group_IT_number 71
_symmetry_cell_setting 'orthorhombic'
loop_
_space_group_symop_operation_xyz
x,y,z
-x,-y,z
x,-y,-z
-x,y,-z
-x,-y,-z
x,y,-z
-x,y,z
x,-y,z
1/2+x,1/2+y,1/2+z
1/2-x,1/2-y,1/2+z
1/2+x,1/2-y,1/2-z
1/2-x,1/2+y,1/2-z
1/2-x,1/2-y,1/2-z
1/2+x,1/2+y,1/2-z
1/2-x,1/2+y,1/2+z
1/2+x,1/2-y,1/2+z
loop_
_atom_site_type_symbol
_atom_site_label
_atom_site_fract_x
_atom_site_fract_y
_atom_site_fract_z
Si Si1 0.627515 0.757145 0.500000
Si Si2 0.229711 0.200665 0.349038
Si Si3 0.877748 0.288613 0.324108
Si Si4 0.871331 0.107944 0.609896
Si Si5 0.278110 0.826462 0.000000
Si Si6 0.870629 0.951370 0.210417
Si Si7 0.371063 0.589531 0.500000
O O1 0.500000 0.747451 0.500000
O O2 0.661447 0.785588 0.407199
O O3 0.687893 0.711265 0.500000
O O4 0.136103 0.237965 0.357526
O O5 0.274657 0.196802 0.240628
O O6 0.182453 0.155390 0.386229
O O7 0.862892 0.322556 0.411362
O O8 0.000000 0.294126 0.279493
O O9 0.847781 0.088483 0.500000
O O10 0.823670 0.078201 0.699263
O O11 0.000000 0.114015 0.625752
O O12 0.209387 0.870120 0.000000
O O13 0.000000 0.952704 0.222491
O O14 0.821282 0.000000 0.223415
O O15 0.841810 0.936064 0.100173
O O16 0.500000 0.602787 0.500000
#
# Coordination Sequence:
#
# PCOD8287801 Si02
#       7
#     8  16  16  16   8  16   8
#     4  10  19  31  46  66  96 128 164 206 241 273
#     4  10  19  32  47  68  94 128 171 202 237 290
#     4  10  20  32  47  66  96 132 165 207 247 280
#     4  10  19  31  49  72 101 135 166 200 241 295
#     4  10  20  31  46  70  96 131 166 200 237 289
#     4   9  18  31  48  72 101 133 164 198 246 300
#     4  10  18  31  51  73 102 136 167 201 243 296
#
# _framework density 17.229731000000001
#
# number of rings (size 3 to 8) (size 9 to 14) (size 15 to 20)
#    0.000    2.182    0.909    3.000    0.000    1.455 
#    0.000    7.273    0.000    0.000    0.000    0.000 
#    0.000   38.545    0.000    0.000    0.000    0.000 
#
# Total GULP energy -545094.203813 kJ/mol
# GULP energy per Si atom -12388.504632 kJ/mol
# Density = 1.719052 g / cm^3
# Si number density = 17.229731 Si / 1000 Ang^3
#
#
#
# Elastic Constant Matrix: (Units=GPa)
#
#
# Indices 1 2 3 4 5 6 
#
# 1 56.5214 22.5921 14.5922 0.0003 -0.0002 0.0000
# 2 22.5921 97.1881 39.7878 -0.0002 -0.0001 0.0000
# 3 14.5922 39.7878 109.3370 0.0017 0.0008 0.0001
# 4 0.0003 -0.0002 0.0017 82.7537 0.0005 0.0002
# 5 -0.0002 -0.0001 0.0008 0.0005 30.7219 -0.0001
# 6 0.0000 0.0000 0.0001 0.0002 -0.0001 17.6968
#
#
#
# Elastic Compliance Matrix: (Units=1/GPa)
#
#
# Indices 1 2 3 4 5 6 
#
# 1 0.019622 -0.004100 -0.001127 0.000000 0.000000 0.000000
# 2 -0.004100 0.012947 -0.004164 0.000000 0.000000 0.000000
# 3 -0.001127 -0.004164 0.010812 0.000000 0.000000 0.000000
# 4 0.000000 0.000000 0.000000 0.012084 0.000000 0.000000
# 5 0.000000 0.000000 0.000000 0.000000 0.032550 0.000000
# 6 0.000000 0.000000 0.000000 0.000000 0.000000 0.056508
#
#
# Mechanical properties :
#
#
# Convention : Reuss Voigt Hill
#
# Bulk Modulus (GPa) = 40.65217 46.33231 43.49224
# Shear Modulus (GPa) = 29.15373 38.63944 33.89658
#
# Velocity S-wave (km/s) = 4.11793 4.74075 4.44027
# Velocity P-wave (km/s) = 6.80112 7.54424 7.18230
#
# Compressibility (1/GPa) = 0.02459893
#
# Stress axis : x y z
#
# Youngs Moduli (GPa) = 50.96288 77.23658 92.49140
#
# Poissons Ratio (x) = 0.31667 0.10422
# Poissons Ratio (y) = 0.20895 0.38516
# Poissons Ratio (z) = 0.05742 0.32164
#
# Static dielectric constant tensor:
#      x y z
#    x 2.825700 0.000000 0.000000 
#    y 0.000000 3.194180 0.000000 
#    z 0.000000 0.000000 3.626230 
# 
# 
# High freq. dielectric constant tensor:
#      x y z
#    x 1.628150 0.000000 0.000000 
#    y 0.000000 1.645590 0.000000 
#    z 0.000000 0.000000 1.690690 
# 
# From -- ./inp_files/33023.got.cif
#   From: 2010.06.25/outbox.cif.g09.slc.cpg/sg71_17_cif.got.tgz:33023.got - 2010.06.28 04:59:45.
