data_PCOD8287773
_publ_section_title
;
Structure prediction by ZEFSAII (Michael W. Deem and Ramdas Pophale) SiO2 
 PCOD8287773
Probable space group: I M M M
;
_chemical_formula_sum "Si O2"
_cell_formula_units_Z 72
_cell_length_a 21.234131
_cell_length_b 9.725134
_cell_length_c 20.166215
_cell_angle_alpha 90.000000
_cell_angle_beta 90.000000
_cell_angle_gamma 90.000000
_cell_volume 4164.419577
_symmetry_space_group_name_H-M "I M M M"
_symmetry_group_IT_number 71
_symmetry_cell_setting 'orthorhombic'
loop_
_space_group_symop_operation_xyz
x,y,z
-x,-y,z
x,-y,-z
-x,y,-z
-x,-y,-z
x,y,-z
-x,y,z
x,-y,z
1/2+x,1/2+y,1/2+z
1/2-x,1/2-y,1/2+z
1/2+x,1/2-y,1/2-z
1/2-x,1/2+y,1/2-z
1/2-x,1/2-y,1/2-z
1/2+x,1/2+y,1/2-z
1/2-x,1/2+y,1/2+z
1/2+x,1/2-y,1/2+z
loop_
_atom_site_type_symbol
_atom_site_label
_atom_site_fract_x
_atom_site_fract_y
_atom_site_fract_z
Si Si1 0.572314 0.654771 0.248994
Si Si2 0.426877 0.840571 0.127368
Si Si3 0.500000 0.850672 0.575542
Si Si4 0.148383 0.336090 0.500000
Si Si5 0.788207 0.839380 0.000000
Si Si6 0.113690 0.842394 0.890587
O O1 0.500000 0.688082 0.271785
O O2 0.575460 0.500000 0.220890
O O3 0.595027 0.757976 0.192220
O O4 0.620615 0.670136 0.310909
O O5 0.500000 0.814832 0.111793
O O6 0.387612 0.783023 0.065264
O O7 0.412826 0.000000 0.141100
O O8 0.500000 0.888460 0.500000
O O9 0.560693 0.762802 0.590224
O O10 0.500000 0.000000 0.613685
O O11 0.147324 0.500000 0.500000
O O12 0.218815 0.271855 0.500000
O O13 0.824477 0.797483 0.932109
O O14 0.777190 0.000000 0.000000
O O15 0.095162 0.000000 0.909397
#
# Coordination Sequence:
#
# PCOD8287773 Si02
#       6
#    16  16   8   8   8  16
#     4   9  17  29  46  71 100 124 152 197 243 286
#     4   9  17  30  51  75  97 123 155 197 249 300
#     4  11  21  29  43  71 103 130 159 202 249 283
#     4   9  17  32  51  73  96 120 163 212 244 280
#     4   9  18  30  50  72  91 126 173 212 234 269
#     4  10  18  31  50  70  95 130 170 202 234 281
#
# _framework density 17.289324000000001
#
# number of rings (size 3 to 8) (size 9 to 14) (size 15 to 20)
#    0.000    2.556    2.222    0.667    0.000    2.667 
#    0.000    1.667    0.000    5.333    0.000    0.000 
#    0.000    0.000    0.000    0.000    0.000    0.000 
#
# Total GULP energy -446133.930468 kJ/mol
# GULP energy per Si atom -12392.609180 kJ/mol
# Density = 1.724997 g / cm^3
# Si number density = 17.289324 Si / 1000 Ang^3
#
#
#
# Elastic Constant Matrix: (Units=GPa)
#
#
# Indices 1 2 3 4 5 6 
#
# 1 95.1646 39.7024 64.5907 0.0000 0.0000 0.0000
# 2 39.7024 68.3098 47.4728 0.0000 0.0000 0.0000
# 3 64.5907 47.4728 143.4751 0.0000 0.0000 0.0000
# 4 0.0000 0.0000 0.0000 27.8578 0.0000 0.0000
# 5 0.0000 0.0000 0.0000 0.0000 16.7217 0.0000
# 6 0.0000 0.0000 0.0000 0.0000 0.0000 5.8693
#
#
#
# Elastic Compliance Matrix: (Units=1/GPa)
#
#
# Indices 1 2 3 4 5 6 
#
# 1 0.016751 -0.005837 -0.005610 0.000000 0.000000 0.000000
# 2 -0.005837 0.021045 -0.004335 0.000000 0.000000 0.000000
# 3 -0.005610 -0.004335 0.010930 0.000000 0.000000 0.000000
# 4 0.000000 0.000000 0.000000 0.035897 0.000000 0.000000
# 5 0.000000 0.000000 0.000000 0.000000 0.059803 0.000000
# 6 0.000000 0.000000 0.000000 0.000000 0.000000 0.170379
#
#
# Mechanical properties :
#
#
# Convention : Reuss Voigt Hill
#
# Bulk Modulus (GPa) = 58.27240 67.83127 63.05183
# Shear Modulus (GPa) = 14.20099 20.43533 17.31816
#
# Velocity S-wave (km/s) = 2.86907 3.44170 3.16835
# Velocity P-wave (km/s) = 6.68976 7.42374 7.06629
#
# Compressibility (1/GPa) = 0.01716078
#
# Stress axis : x y z
#
# Youngs Moduli (GPa) = 59.69885 47.51761 91.49400
#
# Poissons Ratio (x) = 0.27737 0.51324
# Poissons Ratio (y) = 0.34848 0.39666
# Poissons Ratio (z) = 0.33488 0.20601
#
# Static dielectric constant tensor:
#      x y z
#    x 3.198040 0.000000 0.000000 
#    y 0.000000 3.128870 0.000000 
#    z 0.000000 0.000000 3.393440 
# 
# 
# High freq. dielectric constant tensor:
#      x y z
#    x 1.637980 0.000000 0.000000 
#    y 0.000000 1.649500 0.000000 
#    z 0.000000 0.000000 1.673480 
# 
# From -- ./inp_files/9981.got.cif
#   From: 2010.06.25/outbox.cif.g09.slc.cpg/sg71_5_cif.got.tgz:9981.got - 2010.06.28 04:59:45.
