data_PCOD8287717
_publ_section_title
;
Structure prediction by ZEFSAII (Michael W. Deem and Ramdas Pophale) SiO2 
 PCOD8287717
Probable space group: I M M M
;
_chemical_formula_sum "Si O2"
_cell_formula_units_Z 120
_cell_length_a 23.177685
_cell_length_b 21.661353
_cell_length_c 13.537995
_cell_angle_alpha 90.000000
_cell_angle_beta 90.000000
_cell_angle_gamma 90.000000
_cell_volume 6796.885993
_symmetry_space_group_name_H-M "I M M M"
_symmetry_group_IT_number 71
_symmetry_cell_setting 'orthorhombic'
loop_
_space_group_symop_operation_xyz
x,y,z
-x,-y,z
x,-y,-z
-x,y,-z
-x,-y,-z
x,y,-z
-x,y,z
x,-y,z
1/2+x,1/2+y,1/2+z
1/2-x,1/2-y,1/2+z
1/2+x,1/2-y,1/2-z
1/2-x,1/2+y,1/2-z
1/2-x,1/2-y,1/2-z
1/2+x,1/2+y,1/2-z
1/2-x,1/2+y,1/2+z
1/2+x,1/2-y,1/2+z
loop_
_atom_site_type_symbol
_atom_site_label
_atom_site_fract_x
_atom_site_fract_y
_atom_site_fract_z
Si Si1 0.934113 0.151854 0.111853
Si Si2 0.247252 0.210191 0.609960
Si Si3 0.607788 0.850357 0.883506
Si Si4 0.500000 0.069123 0.882765
Si Si5 0.434786 0.728903 0.795046
Si Si6 0.865436 0.867880 0.608938
Si Si7 0.228420 0.343883 0.690090
Si Si8 0.662724 0.570859 0.301146
O O1 0.920643 0.210880 0.181452
O O2 0.890757 0.096023 0.134919
O O3 0.000000 0.128991 0.130004
O O4 0.925254 0.174336 0.000000
O O5 0.273559 0.198249 0.500000
O O6 0.182286 0.185571 0.614402
O O7 0.246697 0.283069 0.629942
O O8 0.282738 0.173432 0.694377
O O9 0.557828 0.896433 0.845586
O O10 0.604718 0.785459 0.827056
O O11 0.670912 0.875902 0.854476
O O12 0.601999 0.839248 0.000000
O O13 0.500000 0.000000 0.838383
O O14 0.500000 0.066381 0.000000
O O15 0.500000 0.750140 0.810980
O O16 0.423880 0.667715 0.860896
O O17 0.870988 0.897048 0.500000
O O18 0.851566 0.922887 0.684616
O O19 0.279072 0.392819 0.673558
O O20 0.672247 0.500000 0.328418
#
# Coordination Sequence:
#
# PCOD8287717 Si02
#       8
#    16  16  16   8  16  16  16  16
#     4   9  20  38  56  74 101 135 170 215 263 306
#     4   9  17  31  50  72 102 133 165 207 260 316
#     4  11  20  32  52  77 107 139 169 208 256 304
#     4   9  20  36  52  74 105 143 180 205 239 303
#     4  10  18  30  51  80 107 129 165 212 260 313
#     4   9  17  31  52  76 102 132 164 207 264 313
#     4  10  20  32  49  77 105 136 172 210 259 307
#     4  10  22  37  51  73 104 138 180 218 248 299
#
# _framework density 17.655144
#
# number of rings (size 3 to 8) (size 9 to 14) (size 15 to 20)
#    0.000    2.333    2.000    0.800    1.867    3.200 
#    0.000    0.667    0.000    0.000    0.000    3.733 
#    0.000    3.733    0.000    0.000    0.000    0.000 
#
# Total GULP energy -743821.869054 kJ/mol
# GULP energy per Si atom -12397.031151 kJ/mol
# Density = 1.761496 g / cm^3
# Si number density = 17.655144 Si / 1000 Ang^3
#
#
#
# Elastic Constant Matrix: (Units=GPa)
#
#
# Indices 1 2 3 4 5 6 
#
# 1 97.0880 46.6032 38.0202 0.0000 0.0000 0.0000
# 2 46.6032 85.8309 30.3292 0.0000 0.0000 0.0000
# 3 38.0202 30.3292 105.1408 0.0000 0.0000 0.0000
# 4 0.0000 0.0000 0.0000 13.6702 0.0000 0.0000
# 5 0.0000 0.0000 0.0000 0.0000 24.5194 0.0000
# 6 0.0000 0.0000 0.0000 0.0000 0.0000 20.7642
#
#
#
# Elastic Compliance Matrix: (Units=1/GPa)
#
#
# Indices 1 2 3 4 5 6 
#
# 1 0.014956 -0.006914 -0.003414 0.000000 0.000000 0.000000
# 2 -0.006914 0.016170 -0.002164 0.000000 0.000000 0.000000
# 3 -0.003414 -0.002164 0.011370 0.000000 0.000000 0.000000
# 4 0.000000 0.000000 0.000000 0.073152 0.000000 0.000000
# 5 0.000000 0.000000 0.000000 0.000000 0.040784 0.000000
# 6 0.000000 0.000000 0.000000 0.000000 0.000000 0.048160
#
#
# Mechanical properties :
#
#
# Convention : Reuss Voigt Hill
#
# Bulk Modulus (GPa) = 57.10629 57.55166 57.32897
# Shear Modulus (GPa) = 21.23940 23.33123 22.28532
#
# Velocity S-wave (km/s) = 3.47221 3.63918 3.55668
# Velocity P-wave (km/s) = 6.96352 7.09413 7.02913
#
# Compressibility (1/GPa) = 0.01751121
#
# Stress axis : x y z
#
# Youngs Moduli (GPa) = 66.86458 61.84425 87.95271
#
# Poissons Ratio (x) = 0.42760 0.30024
# Poissons Ratio (y) = 0.46231 0.19034
# Poissons Ratio (z) = 0.22825 0.13384
#
# Static dielectric constant tensor:
#      x y z
#    x 3.329180 0.000000 0.000000 
#    y 0.000000 2.963090 0.000000 
#    z 0.000000 0.000000 3.437100 
# 
# 
# High freq. dielectric constant tensor:
#      x y z
#    x 1.685440 0.000000 0.000000 
#    y 0.000000 1.650970 0.000000 
#    z 0.000000 0.000000 1.681450 
# 
# From -- ./inp_files/38409.got.cif
#   From: 2010.06.25/outbox.cif.g09.slc.cpg/sg71_20_cif.got.tgz:38409.got - 2010.06.28 04:59:45.
