data_PCOD8287275
_publ_section_title
;
Structure prediction by ZEFSAII (Michael W. Deem and Ramdas Pophale) SiO2 
 PCOD8287275
Probable space group: I M M M
;
_chemical_formula_sum "Si O2"
_cell_formula_units_Z 96
_cell_length_a 30.768253
_cell_length_b 20.810111
_cell_length_c 9.443052
_cell_angle_alpha 90.000000
_cell_angle_beta 90.000000
_cell_angle_gamma 90.000000
_cell_volume 6046.298944
_symmetry_space_group_name_H-M "I M M M"
_symmetry_group_IT_number 71
_symmetry_cell_setting 'orthorhombic'
loop_
_space_group_symop_operation_xyz
x,y,z
-x,-y,z
x,-y,-z
-x,y,-z
-x,-y,-z
x,y,-z
-x,y,z
x,-y,z
1/2+x,1/2+y,1/2+z
1/2-x,1/2-y,1/2+z
1/2+x,1/2-y,1/2-z
1/2-x,1/2+y,1/2-z
1/2-x,1/2-y,1/2-z
1/2+x,1/2+y,1/2-z
1/2-x,1/2+y,1/2+z
1/2+x,1/2-y,1/2+z
loop_
_atom_site_type_symbol
_atom_site_label
_atom_site_fract_x
_atom_site_fract_y
_atom_site_fract_z
Si Si1 0.740119 0.929098 0.160727
Si Si2 0.452032 0.792868 0.834775
Si Si3 0.282309 0.297050 0.334160
Si Si4 0.343554 0.095812 0.661973
Si Si5 0.923881 0.568749 0.339276
Si Si6 0.629097 0.759816 0.339228
O O1 0.773230 0.871846 0.199306
O O2 0.700506 0.926647 0.267451
O O3 0.762368 0.000000 0.176021
O O4 0.723229 0.919216 0.000000
O O5 0.500000 0.767188 0.791615
O O6 0.451991 0.869071 0.795121
O O7 0.414617 0.753443 0.753747
O O8 0.443718 0.782382 0.000000
O O9 0.276908 0.280144 0.500000
O O10 0.250000 0.250000 0.250000
O O11 0.332814 0.288308 0.288192
O O12 0.342984 0.073691 0.500000
O O13 0.382769 0.060734 0.738874
O O14 0.348677 0.171549 0.678401
O O15 0.907583 0.578745 0.500000
O O16 0.949703 0.500000 0.326601
O O17 0.614782 0.746238 0.500000
#
# Coordination Sequence:
#
# PCOD8287275 Si02
#       6
#    16  16  16  16  16  16
#     4  10  20  31  44  64  91 122 153 187 227 267
#     4   9  18  31  46  64  84 108 142 185 230 271
#     4  10  19  32  49  68  92 121 156 191 223 268
#     4  10  18  28  42  61  86 116 152 191 225 259
#     4   9  17  28  41  57  80 112 148 184 224 268
#     4   9  18  31  46  65  87 114 149 185 224 267
#
# _framework density 15.877482000000001
#
# number of rings (size 3 to 8) (size 9 to 14) (size 15 to 20)
#    0.000    2.500    1.667    1.000    0.000    4.667 
#    0.000    1.667    0.000    0.000    0.000    4.667 
#    0.000    0.667    0.000    8.333    0.000    1.333 
#
# Total GULP energy -594783.930416 kJ/mol
# GULP energy per Si atom -12391.331884 kJ/mol
# Density = 1.584134 g / cm^3
# Si number density = 15.877482 Si / 1000 Ang^3
#
#
#
# Elastic Constant Matrix: (Units=GPa)
#
#
# Indices 1 2 3 4 5 6 
#
# 1 116.9236 46.6328 50.1249 0.0000 0.0000 0.0000
# 2 46.6328 66.2085 27.7617 0.0000 0.0000 0.0000
# 3 50.1249 27.7617 65.3082 0.0000 0.0000 0.0000
# 4 0.0000 0.0000 0.0000 12.3793 0.0000 0.0000
# 5 0.0000 0.0000 0.0000 0.0000 23.5679 0.0000
# 6 0.0000 0.0000 0.0000 0.0000 0.0000 -2.0507
#
#
#
# Elastic Compliance Matrix: (Units=1/GPa)
#
#
# Indices 1 2 3 4 5 6 
#
# 1 0.015001 -0.006982 -0.008545 0.000000 0.000000 0.000000
# 2 -0.006982 0.021630 -0.003836 0.000000 0.000000 0.000000
# 3 -0.008545 -0.003836 0.023501 0.000000 0.000000 0.000000
# 4 0.000000 0.000000 0.000000 0.080780 0.000000 0.000000
# 5 0.000000 0.000000 0.000000 0.000000 0.042431 0.000000
# 6 0.000000 0.000000 0.000000 0.000000 0.000000 -0.487632
#
#
# Mechanical properties :
#
#
# Convention : Reuss Voigt Hill
#
# Bulk Modulus (GPa) = 46.71697 55.27547 50.99622
# Shear Modulus (GPa) = -19.34770 15.04068 -2.15351
#
# Velocity S-wave (km/s) = -3.49458 3.08116 -1.16588
# Velocity P-wave (km/s) = 3.63380 6.89546 5.51144
#
# Compressibility (1/GPa) = 0.02140550
#
# Stress axis : x y z
#
# Youngs Moduli (GPa) = 66.66381 46.23201 42.55159
#
# Poissons Ratio (x) = 0.32281 0.36360
# Poissons Ratio (y) = 0.46548 0.16321
# Poissons Ratio (z) = 0.56964 0.17733
#
# Static dielectric constant tensor:
#      x y z
#    x 2.976380 0.000000 0.000000 
#    y 0.000000 3.061900 0.000000 
#    z 0.000000 0.000000 3.096200 
# 
# 
# High freq. dielectric constant tensor:
#      x y z
#    x 1.588650 0.000000 0.000000 
#    y 0.000000 1.585160 0.000000 
#    z 0.000000 0.000000 1.613050 
# 
# From -- ./inp_files/13157.got.cif
#   From: 2010.06.25/outbox.cif.g09.slc.cpg/sg71_7_cif.got.tgz:13157.got - 2010.06.28 04:59:45.
