data_PCOD8287567
_publ_section_title
;
Structure prediction by ZEFSAII (Michael W. Deem and Ramdas Pophale) SiO2 
 PCOD8287567
Probable space group: I M M M
;
_chemical_formula_sum "Si O2"
_cell_formula_units_Z 120
_cell_length_a 29.051083
_cell_length_b 9.423822
_cell_length_c 28.094861
_cell_angle_alpha 90.000000
_cell_angle_beta 90.000000
_cell_angle_gamma 90.000000
_cell_volume 7691.592891
_symmetry_space_group_name_H-M "I M M M"
_symmetry_group_IT_number 71
_symmetry_cell_setting 'orthorhombic'
loop_
_space_group_symop_operation_xyz
x,y,z
-x,-y,z
x,-y,-z
-x,y,-z
-x,-y,-z
x,y,-z
-x,y,z
x,-y,z
1/2+x,1/2+y,1/2+z
1/2-x,1/2-y,1/2+z
1/2+x,1/2-y,1/2-z
1/2-x,1/2+y,1/2-z
1/2-x,1/2-y,1/2-z
1/2+x,1/2+y,1/2-z
1/2-x,1/2+y,1/2+z
1/2+x,1/2-y,1/2+z
loop_
_atom_site_type_symbol
_atom_site_label
_atom_site_fract_x
_atom_site_fract_y
_atom_site_fract_z
Si Si1 0.945194 0.841504 0.782183
Si Si2 0.945522 0.665544 0.500000
Si Si3 0.388623 0.334161 0.555369
Si Si4 0.398206 0.667356 0.915411
Si Si5 0.713801 0.342562 0.556634
Si Si6 0.054586 0.337598 0.870861
Si Si7 0.050991 0.168179 0.321719
Si Si8 0.297943 0.336502 0.054664
O O1 0.926512 0.736424 0.822798
O O2 0.929594 0.783266 0.730043
O O3 0.000000 0.847008 0.782501
O O4 0.925620 0.000000 0.791880
O O5 0.931340 0.500000 0.500000
O O6 0.925594 0.741665 0.546308
O O7 0.000000 0.684321 0.500000
O O8 0.395617 0.300117 0.500000
O O9 0.397385 0.500000 0.565381
O O10 0.337005 0.290910 0.572270
O O11 0.424968 0.240361 0.583505
O O12 0.407089 0.500000 0.925199
O O13 0.415025 0.717492 0.863482
O O14 0.344079 0.702363 0.916883
O O15 0.715285 0.341695 0.500000
O O16 0.722785 0.500000 0.576265
O O17 0.754338 0.244462 0.577466
O O18 0.070875 0.500000 0.870243
O O19 0.000000 0.324798 0.874327
O O20 0.000000 0.232420 0.331223
O O21 0.047101 0.000000 0.320673
O O22 0.285573 0.500000 0.059018
O O23 0.306472 0.292470 0.000000
#
# Coordination Sequence:
#
# PCOD8287567 Si02
#       8
#    16   8  16  16  16  16  16  16
#     4   8  14  27  46  65  84 109 146 188 223 256
#     4  11  23  33  39  55  87 123 157 189 224 271
#     4   9  18  32  48  67  91 119 153 184 210 250
#     4  10  18  30  46  64  86 115 151 187 225 272
#     4   8  15  28  45  63  83 111 145 180 218 257
#     4  10  20  31  44  66  95 124 150 175 211 258
#     4   8  14  25  44  67  85 107 146 191 227 260
#     4   9  16  26  40  62  88 112 143 181 220 265
#
# _framework density 15.601449000000001
#
# number of rings (size 3 to 8) (size 9 to 14) (size 15 to 20)
#    0.000    3.000    0.667    2.600    0.000    3.467 
#    0.000    3.333    0.000    2.400    0.000    0.933 
#    0.000    0.000    0.000    0.000    0.000    0.000 
#
# Total GULP energy -743683.543842 kJ/mol
# GULP energy per Si atom -12394.725731 kJ/mol
# Density = 1.556594 g / cm^3
# Si number density = 15.601449 Si / 1000 Ang^3
#
#
#
# Elastic Constant Matrix: (Units=GPa)
#
#
# Indices 1 2 3 4 5 6 
#
# 1 55.7657 37.6928 41.2867 0.0000 0.0000 0.0000
# 2 37.6928 72.8160 51.9808 0.0000 0.0000 0.0000
# 3 41.2867 51.9808 99.5244 0.0000 0.0000 0.0000
# 4 0.0000 0.0000 0.0000 11.7597 0.0000 0.0000
# 5 0.0000 0.0000 0.0000 0.0000 4.0455 0.0000
# 6 0.0000 0.0000 0.0000 0.0000 0.0000 25.4951
#
#
#
# Elastic Compliance Matrix: (Units=1/GPa)
#
#
# Indices 1 2 3 4 5 6 
#
# 1 0.030357 -0.010722 -0.006993 0.000000 0.000000 0.000000
# 2 -0.010722 0.025685 -0.008967 0.000000 0.000000 0.000000
# 3 -0.006993 -0.008967 0.017632 0.000000 0.000000 0.000000
# 4 0.000000 0.000000 0.000000 0.085036 0.000000 0.000000
# 5 0.000000 0.000000 0.000000 0.000000 0.247186 0.000000
# 6 0.000000 0.000000 0.000000 0.000000 0.000000 0.039223
#
#
# Mechanical properties :
#
#
# Convention : Reuss Voigt Hill
#
# Bulk Modulus (GPa) = 49.23820 54.44741 51.84281
# Shear Modulus (GPa) = 9.89604 14.73646 12.31625
#
# Velocity S-wave (km/s) = 2.52127 3.07670 2.81273
# Velocity P-wave (km/s) = 6.33279 6.89900 6.62195
#
# Compressibility (1/GPa) = 0.02030944
#
# Stress axis : x y z
#
# Youngs Moduli (GPa) = 32.94166 38.93395 56.71404
#
# Poissons Ratio (x) = 0.41744 0.39662
# Poissons Ratio (y) = 0.35319 0.50856
# Poissons Ratio (z) = 0.23037 0.34912
#
# Static dielectric constant tensor:
#      x y z
#    x 2.967330 0.000000 0.000000 
#    y 0.000000 2.986090 0.000000 
#    z 0.000000 0.000000 3.070980 
# 
# 
# High freq. dielectric constant tensor:
#      x y z
#    x 1.582900 0.000000 0.000000 
#    y 0.000000 1.588340 0.000000 
#    z 0.000000 0.000000 1.579580 
# 
# From -- ./inp_files/67163.got.cif
#   From: 2010.06.25/outbox.cif.g09.slc.cpg/sg71_34_cif.got.tgz:67163.got - 2010.06.28 04:59:45.
