data_PCOD8287660
_publ_section_title
;
Structure prediction by ZEFSAII (Michael W. Deem and Ramdas Pophale) SiO2 
 PCOD8287660
Probable space group: I M M M
;
_chemical_formula_sum "Si O2"
_cell_formula_units_Z 104
_cell_length_a 9.037844
_cell_length_b 29.357368
_cell_length_c 22.406107
_cell_angle_alpha 90.000000
_cell_angle_beta 90.000000
_cell_angle_gamma 90.000000
_cell_volume 5944.952148
_symmetry_space_group_name_H-M "I M M M"
_symmetry_group_IT_number 71
_symmetry_cell_setting 'orthorhombic'
loop_
_space_group_symop_operation_xyz
x,y,z
-x,-y,z
x,-y,-z
-x,y,-z
-x,-y,-z
x,y,-z
-x,y,z
x,-y,z
1/2+x,1/2+y,1/2+z
1/2-x,1/2-y,1/2+z
1/2+x,1/2-y,1/2-z
1/2-x,1/2+y,1/2-z
1/2-x,1/2-y,1/2-z
1/2+x,1/2+y,1/2-z
1/2-x,1/2+y,1/2+z
1/2+x,1/2-y,1/2+z
loop_
_atom_site_type_symbol
_atom_site_label
_atom_site_fract_x
_atom_site_fract_y
_atom_site_fract_z
Si Si1 0.829625 0.800684 0.568367
Si Si2 0.171846 0.052910 0.846496
Si Si3 0.333350 0.288382 0.570986
Si Si4 0.170487 0.621803 0.429486
Si Si5 0.324132 0.448736 0.000000
Si Si6 0.173916 0.552310 0.775941
Si Si7 0.673004 0.602035 0.882744
O O1 0.786498 0.812427 0.500000
O O2 0.735102 0.758876 0.594736
O O3 0.798071 0.844350 0.609318
O O4 0.000000 0.786081 0.571396
O O5 0.243230 0.079776 0.901112
O O6 0.250169 0.067528 0.785352
O O7 0.000000 0.065104 0.841275
O O8 0.197889 0.000000 0.859994
O O9 0.328181 0.287748 0.500000
O O10 0.500000 0.292956 0.595153
O O11 0.238878 0.330963 0.594935
O O12 0.190866 0.617647 0.500000
O O13 0.000000 0.620203 0.410479
O O14 0.265073 0.423703 0.941097
O O15 0.262981 0.500000 0.000000
O O16 0.500000 0.446912 0.000000
O O17 0.214292 0.500000 0.791438
O O18 0.234639 0.585081 0.826831
O O19 0.000000 0.559202 0.769209
O O20 0.500000 0.591458 0.872807
#
# Coordination Sequence:
#
# PCOD8287660 Si02
#       7
#    16  16  16  16   8  16  16
#     4   9  16  28  46  70 101 133 170 214 261 308
#     4  10  21  37  57  79 103 134 172 211 248 293
#     4   9  17  29  47  72 102 136 172 208 248 297
#     4  10  20  34  54  81 111 140 167 199 246 299
#     4   9  16  26  43  69  99 131 169 215 264 309
#     4  10  21  36  52  71  98 134 175 216 258 306
#     4  10  18  30  49  73  99 132 174 219 262 308
#
# _framework density 17.493832999999999
#
# number of rings (size 3 to 8) (size 9 to 14) (size 15 to 20)
#    0.000    2.385    0.769    2.308    0.000    6.154 
#    0.000    1.923    0.000    2.308    0.000    0.000 
#    0.000    0.000    0.000    0.000    0.000    0.000 
#
# Total GULP energy -644907.380350 kJ/mol
# GULP energy per Si atom -12402.065007 kJ/mol
# Density = 1.745402 g / cm^3
# Si number density = 17.493833 Si / 1000 Ang^3
#
#
#
# Elastic Constant Matrix: (Units=GPa)
#
#
# Indices 1 2 3 4 5 6 
#
# 1 106.1528 62.0069 43.2613 0.0000 0.0000 0.0000
# 2 62.0069 105.3240 45.9653 0.0000 0.0000 0.0000
# 3 43.2613 45.9653 56.2371 -0.0002 0.0000 0.0000
# 4 0.0000 0.0000 -0.0002 14.2222 0.0000 0.0000
# 5 0.0000 0.0000 0.0000 0.0000 26.8147 0.0000
# 6 0.0000 0.0000 0.0000 0.0000 0.0000 32.7289
#
#
#
# Elastic Compliance Matrix: (Units=1/GPa)
#
#
# Indices 1 2 3 4 5 6 
#
# 1 0.016027 -0.006303 -0.007177 0.000000 0.000000 0.000000
# 2 -0.006303 0.017238 -0.009241 0.000000 0.000000 0.000000
# 3 -0.007177 -0.009241 0.030856 0.000000 0.000000 0.000000
# 4 0.000000 0.000000 0.000000 0.070313 0.000000 0.000000
# 5 0.000000 0.000000 0.000000 0.000000 0.037293 0.000000
# 6 0.000000 0.000000 0.000000 0.000000 0.000000 0.030554
#
#
# Mechanical properties :
#
#
# Convention : Reuss Voigt Hill
#
# Bulk Modulus (GPa) = 53.53633 63.35344 58.44488
# Shear Modulus (GPa) = 19.68891 22.51852 21.10372
#
# Velocity S-wave (km/s) = 3.35845 3.59169 3.47703
# Velocity P-wave (km/s) = 6.76080 7.31393 7.04280
#
# Compressibility (1/GPa) = 0.01867891
#
# Stress axis : x y z
#
# Youngs Moduli (GPa) = 62.39316 58.01041 32.40879
#
# Poissons Ratio (x) = 0.36567 0.23260
# Poissons Ratio (y) = 0.39329 0.29948
# Poissons Ratio (z) = 0.44781 0.53605
#
# Static dielectric constant tensor:
#      x y z
#    x 3.279110 0.000000 0.000000 
#    y 0.000000 3.329600 0.000000 
#    z 0.000000 0.000000 2.991480 
# 
# 
# High freq. dielectric constant tensor:
#      x y z
#    x 1.677970 0.000000 0.000000 
#    y 0.000000 1.682570 0.000000 
#    z 0.000000 0.000000 1.645440 
# 
# From -- ./inp_files/17050.got.cif
#   From: 2010.06.25/outbox.cif.g09.slc.cpg/sg71_9_cif.got.tgz:17050.got - 2010.06.28 04:59:45.
