data_PCOD8287181
_publ_section_title
;
Structure prediction by ZEFSAII (Michael W. Deem and Ramdas Pophale) SiO2 
 PCOD8287181
Probable space group: I M M M
;
_chemical_formula_sum "Si O2"
_cell_formula_units_Z 72
_cell_length_a 27.359032
_cell_length_b 9.335040
_cell_length_c 19.360886
_cell_angle_alpha 90.000000
_cell_angle_beta 90.000000
_cell_angle_gamma 90.000000
_cell_volume 4944.724943
_symmetry_space_group_name_H-M "I M M M"
_symmetry_group_IT_number 71
_symmetry_cell_setting 'orthorhombic'
loop_
_space_group_symop_operation_xyz
x,y,z
-x,-y,z
x,-y,-z
-x,y,-z
-x,-y,-z
x,y,-z
-x,y,z
x,-y,z
1/2+x,1/2+y,1/2+z
1/2-x,1/2-y,1/2+z
1/2+x,1/2-y,1/2-z
1/2-x,1/2+y,1/2-z
1/2-x,1/2-y,1/2-z
1/2+x,1/2+y,1/2-z
1/2-x,1/2+y,1/2+z
1/2+x,1/2-y,1/2+z
loop_
_atom_site_type_symbol
_atom_site_label
_atom_site_fract_x
_atom_site_fract_y
_atom_site_fract_z
Si Si1 0.680109 0.666847 0.716164
Si Si2 0.908716 0.836829 0.870366
Si Si3 0.340176 0.340552 0.500000
Si Si4 0.243481 0.832439 0.500000
Si Si5 0.732894 0.332360 0.149356
Si Si6 0.500000 0.169985 0.419711
O O1 0.690212 0.500000 0.701874
O O2 0.623647 0.702697 0.697626
O O3 0.689978 0.707867 0.796465
O O4 0.717033 0.752026 0.667135
O O5 0.953501 0.729063 0.878356
O O6 0.928508 0.000000 0.866438
O O7 0.873247 0.815244 0.934109
O O8 0.317637 0.500000 0.500000
O O9 0.297633 0.227235 0.500000
O O10 0.216014 0.786560 0.571368
O O11 0.250024 0.000000 0.500000
O O12 0.744646 0.500000 0.153354
O O13 0.500000 0.221551 0.500000
O O14 0.500000 0.000000 0.415538
#
# Coordination Sequence:
#
# PCOD8287181 Si02
#       6
#    16  16   8   8  16   8
#     4   9  17  29  43  59  80 109 143 174 204 240
#     4  10  19  31  45  58  78 109 143 176 206 238
#     4  10  18  27  41  60  81 110 145 175 202 239
#     4  10  18  26  39  61  88 115 140 170 207 245
#     4   9  17  27  40  60  85 111 139 170 205 244
#     4  11  23  33  43  61  83 106 135 172 210 247
#
# _framework density 14.560971
#
# number of rings (size 3 to 8) (size 9 to 14) (size 15 to 20)
#    0.000    2.333    3.333    0.333    0.000    2.222 
#    0.000    0.000    0.000    0.000    0.000    0.000 
#    0.000    0.889    0.000   11.333    0.000    1.111 
#
# Total GULP energy -446116.883808 kJ/mol
# GULP energy per Si atom -12392.135661 kJ/mol
# Density = 1.452783 g / cm^3
# Si number density = 14.560971 Si / 1000 Ang^3
#
#
#
# Elastic Constant Matrix: (Units=GPa)
#
#
# Indices 1 2 3 4 5 6 
#
# 1 72.8668 27.8863 50.0043 0.0000 0.0000 0.0000
# 2 27.8863 31.4589 33.2654 0.0000 0.0000 0.0000
# 3 50.0043 33.2654 121.3670 0.0000 0.0000 0.0000
# 4 0.0000 0.0000 0.0000 15.9834 0.0000 0.0000
# 5 0.0000 0.0000 0.0000 0.0000 58.7682 0.0000
# 6 0.0000 0.0000 0.0000 0.0000 0.0000 21.4737
#
#
#
# Elastic Compliance Matrix: (Units=1/GPa)
#
#
# Indices 1 2 3 4 5 6 
#
# 1 0.023114 -0.014671 -0.005502 0.000000 0.000000 0.000000
# 2 -0.014671 0.054073 -0.008776 0.000000 0.000000 0.000000
# 3 -0.005502 -0.008776 0.012912 0.000000 0.000000 0.000000
# 4 0.000000 0.000000 0.000000 0.062565 0.000000 0.000000
# 5 0.000000 0.000000 0.000000 0.000000 0.017016 0.000000
# 6 0.000000 0.000000 0.000000 0.000000 0.000000 0.046568
#
#
# Mechanical properties :
#
#
# Convention : Reuss Voigt Hill
#
# Bulk Modulus (GPa) = 31.05593 49.77829 40.41711
# Shear Modulus (GPa) = 17.55127 26.88085 22.21606
#
# Velocity S-wave (km/s) = 3.47560 4.30128 3.91029
# Velocity P-wave (km/s) = 6.12217 7.67648 6.94295
#
# Compressibility (1/GPa) = 0.03219997
#
# Stress axis : x y z
#
# Youngs Moduli (GPa) = 43.26366 18.49362 77.44885
#
# Poissons Ratio (x) = 0.27132 0.42612
# Poissons Ratio (y) = 0.63473 0.67969
# Poissons Ratio (z) = 0.23804 0.16230
#
# Static dielectric constant tensor:
#      x y z
#    x 2.665930 0.000000 0.000000 
#    y 0.000000 2.866880 0.000000 
#    z 0.000000 0.000000 3.216170 
# 
# 
# High freq. dielectric constant tensor:
#      x y z
#    x 1.519710 0.000000 0.000000 
#    y 0.000000 1.559870 0.000000 
#    z 0.000000 0.000000 1.556570 
# 
# From -- ./inp_files/10157.got.cif
#   From: 2010.06.25/outbox.cif.g09.slc.cpg/sg71_6_cif.got.tgz:10157.got - 2010.06.28 04:59:45.
