data_PCOD8287045
_publ_section_title
;
Structure prediction by ZEFSAII (Michael W. Deem and Ramdas Pophale) SiO2 
 PCOD8287045
Probable space group: I M M M
;
_chemical_formula_sum "Si O2"
_cell_formula_units_Z 88
_cell_length_a 25.586894
_cell_length_b 15.742179
_cell_length_c 14.317789
_cell_angle_alpha 90.000000
_cell_angle_beta 90.000000
_cell_angle_gamma 90.000000
_cell_volume 5767.111848
_symmetry_space_group_name_H-M "I M M M"
_symmetry_group_IT_number 71
_symmetry_cell_setting 'orthorhombic'
loop_
_space_group_symop_operation_xyz
x,y,z
-x,-y,z
x,-y,-z
-x,y,-z
-x,-y,-z
x,y,-z
-x,y,z
x,-y,z
1/2+x,1/2+y,1/2+z
1/2-x,1/2-y,1/2+z
1/2+x,1/2-y,1/2-z
1/2-x,1/2+y,1/2-z
1/2-x,1/2-y,1/2-z
1/2+x,1/2+y,1/2-z
1/2-x,1/2+y,1/2+z
1/2+x,1/2-y,1/2+z
loop_
_atom_site_type_symbol
_atom_site_label
_atom_site_fract_x
_atom_site_fract_y
_atom_site_fract_z
Si Si1 0.680063 0.814603 0.104083
Si Si2 0.500000 0.595028 0.109536
Si Si3 0.198119 0.406358 0.783298
Si Si4 0.203776 0.242813 0.892443
Si Si5 0.682957 0.407848 0.737200
Si Si6 0.888690 0.844180 0.606864
O O1 0.674765 0.889111 0.179768
O O2 0.733598 0.762005 0.123376
O O3 0.630673 0.752745 0.115318
O O4 0.681692 0.854636 0.000000
O O5 0.500000 0.500000 0.154888
O O6 0.551011 0.648851 0.139344
O O7 0.500000 0.583338 0.000000
O O8 0.178256 0.500000 0.815566
O O9 0.180998 0.332404 0.854873
O O10 0.260024 0.404163 0.780651
O O11 0.174539 0.166669 0.838159
O O12 0.188514 0.234684 0.000000
O O13 0.674362 0.500000 0.688353
O O14 0.643878 0.402914 0.824031
O O15 0.881123 0.876425 0.500000
#
# Coordination Sequence:
#
# PCOD8287045 Si02
#       6
#    16   8  16  16  16  16
#     4   9  16  28  45  61  85 120 149 176 216 262
#     4   9  18  28  38  62  94 116 141 180 218 256
#     4  10  18  28  42  63  89 115 149 185 217 257
#     4  10  18  30  42  59  90 118 149 187 216 252
#     4  10  18  28  44  63  86 119 152 178 214 260
#     4  10  17  28  45  63  89 121 148 176 214 257
#
# _framework density 15.258938000000001
#
# number of rings (size 3 to 8) (size 9 to 14) (size 15 to 20)
#    0.000    2.273    3.636    1.636    0.000    2.182 
#    0.000    5.455    0.000    0.000    0.000    1.273 
#    0.000    5.818    0.000    1.636    0.000    0.000 
#
# Total GULP energy -545315.537004 kJ/mol
# GULP energy per Si atom -12393.534932 kJ/mol
# Density = 1.522421 g / cm^3
# Si number density = 15.258938 Si / 1000 Ang^3
#
#
#
# Elastic Constant Matrix: (Units=GPa)
#
#
# Indices 1 2 3 4 5 6 
#
# 1 70.7323 25.9887 29.8272 0.0000 0.0000 0.0000
# 2 25.9887 121.7101 54.6830 0.0000 0.0000 0.0000
# 3 29.8272 54.6830 81.4283 0.0000 0.0000 0.0000
# 4 0.0000 0.0000 0.0000 13.8689 0.0000 0.0000
# 5 0.0000 0.0000 0.0000 0.0000 13.6762 0.0000
# 6 0.0000 0.0000 0.0000 0.0000 0.0000 8.5217
#
#
#
# Elastic Compliance Matrix: (Units=1/GPa)
#
#
# Indices 1 2 3 4 5 6 
#
# 1 0.016838 -0.001180 -0.005375 0.000000 0.000000 0.000000
# 2 -0.001180 0.011849 -0.007525 0.000000 0.000000 0.000000
# 3 -0.005375 -0.007525 0.019303 0.000000 0.000000 0.000000
# 4 0.000000 0.000000 0.000000 0.072104 0.000000 0.000000
# 5 0.000000 0.000000 0.000000 0.000000 0.073120 0.000000
# 6 0.000000 0.000000 0.000000 0.000000 0.000000 0.117348
#
#
# Mechanical properties :
#
#
# Convention : Reuss Voigt Hill
#
# Bulk Modulus (GPa) = 50.43012 54.98538 52.70775
# Shear Modulus (GPa) = 14.47880 18.10481 16.29180
#
# Velocity S-wave (km/s) = 3.08372 3.44831 3.27110
# Velocity P-wave (km/s) = 6.76760 7.20885 6.99171
#
# Compressibility (1/GPa) = 0.01982942
#
# Stress axis : x y z
#
# Youngs Moduli (GPa) = 59.38889 84.39432 51.80556
#
# Poissons Ratio (x) = 0.09963 0.27846
# Poissons Ratio (y) = 0.07011 0.38983
# Poissons Ratio (z) = 0.31922 0.63506
#
# Static dielectric constant tensor:
#      x y z
#    x 2.730420 0.000000 0.000000 
#    y 0.000000 3.082530 0.000000 
#    z 0.000000 0.000000 2.910350 
# 
# 
# High freq. dielectric constant tensor:
#      x y z
#    x 1.532790 0.000000 0.000000 
#    y 0.000000 1.586120 0.000000 
#    z 0.000000 0.000000 1.577070 
# 
# From -- ./inp_files/34702.got.cif
#   From: 2010.06.25/outbox.cif.g09.slc.cpg/sg71_18_cif.got.tgz:34702.got - 2010.06.28 04:59:45.
