data_PCOD8287306
_publ_section_title
;
Structure prediction by ZEFSAII (Michael W. Deem and Ramdas Pophale) SiO2 
 PCOD8287306
Probable space group: I M M M
;
_chemical_formula_sum "Si O2"
_cell_formula_units_Z 80
_cell_length_a 21.644900
_cell_length_b 16.973989
_cell_length_c 13.986320
_cell_angle_alpha 90.000000
_cell_angle_beta 90.000000
_cell_angle_gamma 90.000000
_cell_volume 5138.578087
_symmetry_space_group_name_H-M "I M M M"
_symmetry_group_IT_number 71
_symmetry_cell_setting 'orthorhombic'
loop_
_space_group_symop_operation_xyz
x,y,z
-x,-y,z
x,-y,-z
-x,y,-z
-x,-y,-z
x,y,-z
-x,y,z
x,-y,z
1/2+x,1/2+y,1/2+z
1/2-x,1/2-y,1/2+z
1/2+x,1/2-y,1/2-z
1/2-x,1/2+y,1/2-z
1/2-x,1/2-y,1/2-z
1/2+x,1/2+y,1/2-z
1/2-x,1/2+y,1/2+z
1/2+x,1/2-y,1/2+z
loop_
_atom_site_type_symbol
_atom_site_label
_atom_site_fract_x
_atom_site_fract_y
_atom_site_fract_z
Si Si1 0.926646 0.500000 0.393280
Si Si2 0.500000 0.412234 0.113073
Si Si3 0.867377 0.407611 0.890726
Si Si4 0.572496 0.844489 0.213392
Si Si5 0.271968 0.413342 0.113118
Si Si6 0.615498 0.309091 0.886295
O O1 0.899282 0.500000 0.500000
O O2 0.902846 0.422560 0.339483
O O3 0.000000 0.500000 0.395053
O O4 0.500000 0.500000 0.158055
O O5 0.439467 0.366148 0.147597
O O6 0.500000 0.418986 0.000000
O O7 0.882294 0.500000 0.879141
O O8 0.912872 0.355346 0.825619
O O9 0.797307 0.389037 0.857575
O O10 0.878329 0.381484 0.000000
O O11 0.500000 0.830130 0.197773
O O12 0.610213 0.772837 0.168592
O O13 0.288040 0.500000 0.155747
O O14 0.320744 0.348688 0.149154
O O15 0.276189 0.419783 0.000000
O O16 0.613340 0.293991 0.000000
#
# Coordination Sequence:
#
# PCOD8287306 Si02
#       6
#     8   8  16  16  16  16
#     4   9  18  30  43  59  87 127 158 181 213 266
#     4   9  16  26  42  65  94 125 148 173 218 271
#     4   9  18  33  50  66  87 117 157 202 240 270
#     4  11  20  30  44  66  93 124 160 189 225 273
#     4   8  15  29  48  68  91 120 151 186 232 280
#     4  10  18  28  44  68  98 125 148 181 223 274
#
# _framework density 15.568508
#
# number of rings (size 3 to 8) (size 9 to 14) (size 15 to 20)
#    0.000    2.600    2.000    2.400    0.000    4.400 
#    0.000    1.000    0.000    0.000    0.000    0.000 
#    0.000    3.200    0.000    0.000    0.000    0.000 
#
# Total GULP energy -495898.919095 kJ/mol
# GULP energy per Si atom -12397.472977 kJ/mol
# Density = 1.553307 g / cm^3
# Si number density = 15.568508 Si / 1000 Ang^3
#
#
#
# Elastic Constant Matrix: (Units=GPa)
#
#
# Indices 1 2 3 4 5 6 
#
# 1 33.6267 21.3049 15.0953 0.0000 0.0000 0.0000
# 2 21.3049 100.0084 33.6392 0.0000 0.0000 0.0000
# 3 15.0953 33.6392 60.8323 0.0000 0.0000 0.0000
# 4 0.0000 0.0000 0.0000 16.1555 0.0000 0.0000
# 5 0.0000 0.0000 0.0000 0.0000 17.4489 0.0000
# 6 0.0000 0.0000 0.0000 0.0000 0.0000 19.7823
#
#
#
# Elastic Compliance Matrix: (Units=1/GPa)
#
#
# Indices 1 2 3 4 5 6 
#
# 1 0.035947 -0.005722 -0.005756 0.000000 0.000000 0.000000
# 2 -0.005722 0.013195 -0.005877 0.000000 0.000000 0.000000
# 3 -0.005756 -0.005877 0.021117 0.000000 0.000000 0.000000
# 4 0.000000 0.000000 0.000000 0.061899 0.000000 0.000000
# 5 0.000000 0.000000 0.000000 0.000000 0.057310 0.000000
# 6 0.000000 0.000000 0.000000 0.000000 0.000000 0.050550
#
#
# Mechanical properties :
#
#
# Convention : Reuss Voigt Hill
#
# Bulk Modulus (GPa) = 28.12963 37.17178 32.65071
# Shear Modulus (GPa) = 17.44734 18.97254 18.20994
#
# Velocity S-wave (km/s) = 3.35129 3.49470 3.42375
# Velocity P-wave (km/s) = 5.75173 6.34130 6.05369
#
# Compressibility (1/GPa) = 0.03554970
#
# Stress axis : x y z
#
# Youngs Moduli (GPa) = 27.81847 75.78767 47.35596
#
# Poissons Ratio (x) = 0.43364 0.27259
# Poissons Ratio (y) = 0.15917 0.27829
# Poissons Ratio (z) = 0.16013 0.44538
#
# Static dielectric constant tensor:
#      x y z
#    x 3.027560 0.000000 0.000000 
#    y 0.000000 3.071330 0.000000 
#    z 0.000000 0.000000 2.692610 
# 
# 
# High freq. dielectric constant tensor:
#      x y z
#    x 1.592670 0.000000 0.000000 
#    y 0.000000 1.595160 0.000000 
#    z 0.000000 0.000000 1.559930 
# 
# From -- ./inp_files/37925.got.cif
#   From: 2010.06.25/outbox.cif.g09.slc.cpg/sg71_19_cif.got.tgz:37925.got - 2010.06.28 04:59:45.
