data_PCOD8287440
_publ_section_title
;
Structure prediction by ZEFSAII (Michael W. Deem and Ramdas Pophale) SiO2 
 PCOD8287440
Probable space group: I M M M
;
_chemical_formula_sum "Si O2"
_cell_formula_units_Z 72
_cell_length_a 9.220654
_cell_length_b 19.631528
_cell_length_c 22.252302
_cell_angle_alpha 90.000000
_cell_angle_beta 90.000000
_cell_angle_gamma 90.000000
_cell_volume 4028.012177
_symmetry_space_group_name_H-M "I M M M"
_symmetry_group_IT_number 71
_symmetry_cell_setting 'orthorhombic'
loop_
_space_group_symop_operation_xyz
x,y,z
-x,-y,z
x,-y,-z
-x,y,-z
-x,-y,-z
x,y,-z
-x,y,z
x,-y,z
1/2+x,1/2+y,1/2+z
1/2-x,1/2-y,1/2+z
1/2+x,1/2-y,1/2-z
1/2-x,1/2+y,1/2-z
1/2-x,1/2-y,1/2-z
1/2+x,1/2+y,1/2-z
1/2-x,1/2+y,1/2+z
1/2+x,1/2-y,1/2+z
loop_
_atom_site_type_symbol
_atom_site_label
_atom_site_fract_x
_atom_site_fract_y
_atom_site_fract_z
Si Si1 0.672609 0.803200 0.932246
Si Si2 0.672545 0.423841 0.000000
Si Si3 0.328196 0.658246 0.114842
Si Si4 0.830379 0.577898 0.215440
Si Si5 0.827610 0.424869 0.648386
O O1 0.500000 0.806069 0.935166
O O2 0.721274 0.735797 0.896508
O O3 0.736801 0.868532 0.896969
O O4 0.735545 0.802614 0.000000
O O5 0.730340 0.385987 0.940960
O O6 0.735385 0.500000 0.000000
O O7 0.500000 0.423194 0.000000
O O8 0.500000 0.652137 0.121425
O O9 0.256716 0.631004 0.175273
O O10 0.794177 0.500000 0.197041
O O11 0.779076 0.591367 0.283660
O O12 0.000000 0.592265 0.207937
O O13 0.770838 0.500000 0.629170
O O14 0.000000 0.424326 0.645781
#
# Coordination Sequence:
#
# PCOD8287440 Si02
#       5
#    16   8  16  16  16
#     4   9  16  27  44  67  94 120 151 193 233 271
#     4   9  16  26  41  61  86 118 152 183 221 267
#     4  10  18  29  46  69  94 121 153 191 233 272
#     4   9  18  32  47  65  93 126 157 189 226 271
#     4   8  15  28  45  65  91 123 154 186 230 279
#
# _framework density 17.874821000000001
#
# number of rings (size 3 to 8) (size 9 to 14) (size 15 to 20)
#    0.000    3.000    1.111    2.000    0.000    2.667 
#    0.000    2.778    0.000    2.000    0.000    0.000 
#    0.000    0.000    0.000    6.889    0.000    7.111 
#
# Total GULP energy -446269.741029 kJ/mol
# GULP energy per Si atom -12396.381695 kJ/mol
# Density = 1.783414 g / cm^3
# Si number density = 17.874821 Si / 1000 Ang^3
#
#
#
# Elastic Constant Matrix: (Units=GPa)
#
#
# Indices 1 2 3 4 5 6 
#
# 1 16.6222 24.5400 23.3720 0.0000 0.0000 0.0000
# 2 24.5400 174.7588 97.0623 0.0000 0.0000 0.0000
# 3 23.3720 97.0623 123.4701 0.0000 0.0000 0.0000
# 4 0.0000 0.0000 0.0000 41.3074 0.0000 0.0000
# 5 0.0000 0.0000 0.0000 0.0000 19.1801 0.0000
# 6 0.0000 0.0000 0.0000 0.0000 0.0000 15.2098
#
#
#
# Elastic Compliance Matrix: (Units=1/GPa)
#
#
# Indices 1 2 3 4 5 6 
#
# 1 0.084661 -0.005303 -0.011857 0.000000 0.000000 0.000000
# 2 -0.005303 0.010489 -0.007242 0.000000 0.000000 0.000000
# 3 -0.011857 -0.007242 0.016037 0.000000 0.000000 0.000000
# 4 0.000000 0.000000 0.000000 0.024209 0.000000 0.000000
# 5 0.000000 0.000000 0.000000 0.000000 0.052137 0.000000
# 6 0.000000 0.000000 0.000000 0.000000 0.000000 0.065747
#
#
# Mechanical properties :
#
#
# Convention : Reuss Voigt Hill
#
# Bulk Modulus (GPa) = 16.02999 67.19997 41.61498
# Shear Modulus (GPa) = 15.48575 26.46457 20.97516
#
# Velocity S-wave (km/s) = 2.94657 3.85197 3.42928
# Velocity P-wave (km/s) = 4.53472 7.58023 6.24594
#
# Compressibility (1/GPa) = 0.06238309
#
# Stress axis : x y z
#
# Youngs Moduli (GPa) = 11.81182 95.33850 62.35762
#
# Poissons Ratio (x) = 0.50555 0.73938
# Poissons Ratio (y) = 0.06263 0.45158
# Poissons Ratio (z) = 0.14005 0.69042
#
# Static dielectric constant tensor:
#      x y z
#    x 2.654380 0.000000 0.000000 
#    y 0.000000 3.632610 0.000000 
#    z 0.000000 0.000000 3.443500 
# 
# 
# High freq. dielectric constant tensor:
#      x y z
#    x 1.622300 0.000000 0.000000 
#    y 0.000000 1.704740 0.000000 
#    z 0.000000 0.000000 1.699100 
# 
# From -- ./inp_files/7969.got.cif
#   From: 2010.06.25/outbox.cif.g09.slc.cpg/sg71_4_cif.got.tgz:7969.got - 2010.06.28 04:59:45.
