data_PCOD8287274
_publ_section_title
;
Structure prediction by ZEFSAII (Michael W. Deem and Ramdas Pophale) SiO2 
 PCOD8287274
Probable space group: I M M M
;
_chemical_formula_sum "Si O2"
_cell_formula_units_Z 96
_cell_length_a 15.227335
_cell_length_b 30.050015
_cell_length_c 13.684011
_cell_angle_alpha 90.000000
_cell_angle_beta 90.000000
_cell_angle_gamma 90.000000
_cell_volume 6261.552266
_symmetry_space_group_name_H-M "I M M M"
_symmetry_group_IT_number 71
_symmetry_cell_setting 'orthorhombic'
loop_
_space_group_symop_operation_xyz
x,y,z
-x,-y,z
x,-y,-z
-x,y,-z
-x,-y,-z
x,y,-z
-x,y,z
x,-y,z
1/2+x,1/2+y,1/2+z
1/2-x,1/2-y,1/2+z
1/2+x,1/2-y,1/2-z
1/2-x,1/2+y,1/2-z
1/2-x,1/2-y,1/2-z
1/2+x,1/2+y,1/2-z
1/2-x,1/2+y,1/2+z
1/2+x,1/2-y,1/2+z
loop_
_atom_site_type_symbol
_atom_site_label
_atom_site_fract_x
_atom_site_fract_y
_atom_site_fract_z
Si Si1 0.172029 0.769243 0.109441
Si Si2 0.098893 0.626528 0.748348
Si Si3 0.366367 0.205708 0.890100
Si Si4 0.096371 0.799781 0.697544
Si Si5 0.730548 0.830492 0.385997
Si Si6 0.895789 0.549583 0.391251
O O1 0.261379 0.797072 0.118501
O O2 0.104526 0.789022 0.187135
O O3 0.191155 0.718045 0.135941
O O4 0.132507 0.773031 0.000000
O O5 0.091305 0.669826 0.680726
O O6 0.164951 0.633620 0.838607
O O7 0.139192 0.585427 0.686566
O O8 0.000000 0.616391 0.787264
O O9 0.399280 0.254744 0.864465
O O10 0.396971 0.195012 0.000000
O O11 0.171987 0.833603 0.661091
O O12 0.000000 0.821471 0.681727
O O13 0.737762 0.840798 0.500000
O O14 0.859047 0.560477 0.500000
O O15 0.865323 0.500000 0.359575
O O16 0.000000 0.552213 0.394446
#
# Coordination Sequence:
#
# PCOD8287274 Si02
#       6
#    16  16  16  16  16  16
#     4   9  17  30  44  57  83 118 147 183 228 263
#     4  11  19  28  45  66  88 116 148 180 216 255
#     4  10  18  28  42  61  85 112 148 189 219 249
#     4  11  19  30  45  60  84 118 153 188 226 259
#     4  10  20  33  44  59  86 115 151 191 224 260
#     4   8  15  28  45  67  94 118 139 169 214 267
#
# _framework density 15.331662
#
# number of rings (size 3 to 8) (size 9 to 14) (size 15 to 20)
#    0.000    2.167    3.333    4.000    0.000    3.667 
#    0.000    1.667    0.000    0.500    0.000    2.333 
#    0.000    0.667    0.000    3.333    0.000    0.167 
#
# Total GULP energy -595061.699156 kJ/mol
# GULP energy per Si atom -12397.118732 kJ/mol
# Density = 1.529677 g / cm^3
# Si number density = 15.331662 Si / 1000 Ang^3
#
#
#
# Elastic Constant Matrix: (Units=GPa)
#
#
# Indices 1 2 3 4 5 6 
#
# 1 81.2916 22.8512 44.5504 -0.0001 0.0000 0.0000
# 2 22.8512 48.6501 23.6244 0.0000 0.0000 0.0000
# 3 44.5504 23.6244 95.8313 -0.0010 -0.0002 0.0000
# 4 -0.0001 0.0000 -0.0010 22.8105 -0.0001 0.0000
# 5 0.0000 0.0000 -0.0002 -0.0001 13.8643 0.0001
# 6 0.0000 0.0000 0.0000 0.0000 0.0001 9.0020
#
#
#
# Elastic Compliance Matrix: (Units=1/GPa)
#
#
# Indices 1 2 3 4 5 6 
#
# 1 0.017455 -0.004837 -0.006922 0.000000 0.000000 0.000000
# 2 -0.004837 0.024691 -0.003838 0.000000 0.000000 0.000000
# 3 -0.006922 -0.003838 0.014599 0.000001 0.000000 0.000000
# 4 0.000000 0.000000 0.000001 0.043840 0.000000 0.000000
# 5 0.000000 0.000000 0.000000 0.000000 0.072127 -0.000001
# 6 0.000000 0.000000 0.000000 0.000000 -0.000001 0.111087
#
#
# Mechanical properties :
#
#
# Convention : Reuss Voigt Hill
#
# Bulk Modulus (GPa) = 39.13884 45.31387 42.22635
# Shear Modulus (GPa) = 15.45551 18.11849 16.78700
#
# Velocity S-wave (km/s) = 3.17847 3.44142 3.31255
# Velocity P-wave (km/s) = 6.24930 6.73877 6.49865
#
# Compressibility (1/GPa) = 0.02555007
#
# Stress axis : x y z
#
# Youngs Moduli (GPa) = 57.29166 40.50098 68.49782
#
# Poissons Ratio (x) = 0.19591 0.47413
# Poissons Ratio (y) = 0.27713 0.26290
# Poissons Ratio (z) = 0.39656 0.15544
#
# Static dielectric constant tensor:
#      x y z
#    x 2.882890 0.000000 0.000000 
#    y 0.000000 2.701840 0.000000 
#    z 0.000000 0.000000 3.107420 
# 
# 
# High freq. dielectric constant tensor:
#      x y z
#    x 1.568930 0.000000 0.000000 
#    y 0.000000 1.532120 0.000000 
#    z 0.000000 0.000000 1.599890 
# 
# From -- ./inp_files/35255.got.cif
#   From: 2010.06.25/outbox.cif.g09.slc.cpg/sg71_18_cif.got.tgz:35255.got - 2010.06.28 04:59:45.
