data_PCOD8287157
_publ_section_title
;
Structure prediction by ZEFSAII (Michael W. Deem and Ramdas Pophale) SiO2 
 PCOD8287157
Probable space group: I M M M
;
_chemical_formula_sum "Si O2"
_cell_formula_units_Z 104
_cell_length_a 14.153761
_cell_length_b 19.426359
_cell_length_c 25.278083
_cell_angle_alpha 90.000000
_cell_angle_beta 90.000000
_cell_angle_gamma 90.000000
_cell_volume 6950.361661
_symmetry_space_group_name_H-M "I M M M"
_symmetry_group_IT_number 71
_symmetry_cell_setting 'orthorhombic'
loop_
_space_group_symop_operation_xyz
x,y,z
-x,-y,z
x,-y,-z
-x,y,-z
-x,-y,-z
x,y,-z
-x,y,z
x,-y,z
1/2+x,1/2+y,1/2+z
1/2-x,1/2-y,1/2+z
1/2+x,1/2-y,1/2-z
1/2-x,1/2+y,1/2-z
1/2-x,1/2-y,1/2-z
1/2+x,1/2+y,1/2-z
1/2-x,1/2+y,1/2+z
1/2+x,1/2-y,1/2+z
loop_
_atom_site_type_symbol
_atom_site_label
_atom_site_fract_x
_atom_site_fract_y
_atom_site_fract_z
Si Si1 0.887462 0.923492 0.631916
Si Si2 0.104828 0.918666 0.749320
Si Si3 0.610975 0.156809 0.103582
Si Si4 0.894550 0.081340 0.941552
Si Si5 0.888375 0.424128 0.500000
Si Si6 0.387837 0.697812 0.059450
Si Si7 0.267310 0.582081 0.345128
O O1 0.856893 0.899424 0.690834
O O2 0.847037 0.869701 0.589016
O O3 0.000000 0.925385 0.630144
O O4 0.847794 0.000000 0.618865
O O5 0.178764 0.891793 0.792734
O O6 0.000000 0.886732 0.759259
O O7 0.095574 0.000000 0.754231
O O8 0.500000 0.149165 0.115333
O O9 0.640460 0.235800 0.093961
O O10 0.667630 0.122979 0.152621
O O11 0.644423 0.115227 0.051963
O O12 0.826873 0.108824 0.895573
O O13 0.000000 0.111921 0.933528
O O14 0.901004 0.000000 0.936849
O O15 0.855712 0.102485 0.000000
O O16 0.841267 0.500000 0.500000
O O17 0.000000 0.429915 0.500000
O O18 0.500000 0.694380 0.055222
O O19 0.345350 0.701351 0.000000
O O20 0.249911 0.500000 0.344963
#
# Coordination Sequence:
#
# PCOD8287157 Si02
#       7
#    16  16  16  16   8  16  16
#     4   8  14  25  43  64  81  98 122 155 196 245
#     4   8  14  26  42  60  81 101 126 163 204 242
#     4  10  19  29  37  51  76 106 140 173 201 228
#     4   8  14  23  33  48  70  92 119 161 207 242
#     4   9  16  26  38  48  64  96 136 174 200 215
#     4   9  16  27  41  56  79 108 130 155 198 243
#     4  10  18  25  38  55  72 102 141 174 201 230
#
# _framework density 14.96325
#
# number of rings (size 3 to 8) (size 9 to 14) (size 15 to 20)
#    0.000    3.154    0.769    2.308    1.077    3.077 
#    0.000    2.308    0.000    0.000    0.000    0.000 
#    0.000    0.000    0.000    0.308    0.000    2.923 
#
# Total GULP energy -644402.944350 kJ/mol
# GULP energy per Si atom -12392.364314 kJ/mol
# Density = 1.492919 g / cm^3
# Si number density = 14.963250 Si / 1000 Ang^3
#
#
#
# Elastic Constant Matrix: (Units=GPa)
#
#
# Indices 1 2 3 4 5 6 
#
# 1 41.5578 23.7897 32.1662 0.0000 0.0000 0.0000
# 2 23.7897 74.3605 38.6197 0.0000 0.0000 0.0000
# 3 32.1662 38.6197 77.0038 0.0000 0.0000 0.0000
# 4 0.0000 0.0000 0.0000 14.7592 0.0000 0.0000
# 5 0.0000 0.0000 0.0000 0.0000 9.1471 0.0000
# 6 0.0000 0.0000 0.0000 0.0000 0.0000 8.2163
#
#
#
# Elastic Compliance Matrix: (Units=1/GPa)
#
#
# Indices 1 2 3 4 5 6 
#
# 1 0.036962 -0.005147 -0.012858 0.000000 0.000000 0.000000
# 2 -0.005147 0.018901 -0.007330 0.000000 0.000000 0.000000
# 3 -0.012858 -0.007330 0.022034 0.000000 0.000000 0.000000
# 4 0.000000 0.000000 0.000000 0.067754 0.000000 0.000000
# 5 0.000000 0.000000 0.000000 0.000000 0.109325 0.000000
# 6 0.000000 0.000000 0.000000 0.000000 0.000000 0.121709
#
#
# Mechanical properties :
#
#
# Convention : Reuss Voigt Hill
#
# Bulk Modulus (GPa) = 36.72839 42.45261 39.59050
# Shear Modulus (GPa) = 11.45657 12.98094 12.21876
#
# Velocity S-wave (km/s) = 2.77004 2.94857 2.86069
# Velocity P-wave (km/s) = 5.90168 6.32652 6.11779
#
# Compressibility (1/GPa) = 0.02722689
#
# Stress axis : x y z
#
# Youngs Moduli (GPa) = 27.05500 52.90646 45.38505
#
# Poissons Ratio (x) = 0.27230 0.58358
# Poissons Ratio (y) = 0.13925 0.33266
# Poissons Ratio (z) = 0.34789 0.38779
#
# Static dielectric constant tensor:
#      x y z
#    x 2.730600 0.000000 0.000000 
#    y 0.000000 2.768900 0.000000 
#    z 0.000000 0.000000 3.103370 
# 
# 
# High freq. dielectric constant tensor:
#      x y z
#    x 1.535490 0.000000 0.000000 
#    y 0.000000 1.539340 0.000000 
#    z 0.000000 0.000000 1.569320 
# 
# From -- ./inp_files/45127.got.cif
#   From: 2010.06.25/outbox.cif.g09.slc.cpg/sg71_23_cif.got.tgz:45127.got - 2010.06.28 04:59:45.
