data_PCOD8287054
_publ_section_title
;
Structure prediction by ZEFSAII (Michael W. Deem and Ramdas Pophale) SiO2 
 PCOD8287054
Probable space group: I M M M
;
_chemical_formula_sum "Si O2"
_cell_formula_units_Z 72
_cell_length_a 13.032717
_cell_length_b 14.533085
_cell_length_c 23.961979
_cell_angle_alpha 90.000000
_cell_angle_beta 90.000000
_cell_angle_gamma 90.000000
_cell_volume 4538.532625
_symmetry_space_group_name_H-M "I M M M"
_symmetry_group_IT_number 71
_symmetry_cell_setting 'orthorhombic'
loop_
_space_group_symop_operation_xyz
x,y,z
-x,-y,z
x,-y,-z
-x,y,-z
-x,-y,-z
x,y,-z
-x,y,z
x,-y,z
1/2+x,1/2+y,1/2+z
1/2-x,1/2-y,1/2+z
1/2+x,1/2-y,1/2-z
1/2-x,1/2+y,1/2-z
1/2-x,1/2-y,1/2-z
1/2+x,1/2+y,1/2-z
1/2-x,1/2+y,1/2+z
1/2+x,1/2-y,1/2+z
loop_
_atom_site_type_symbol
_atom_site_label
_atom_site_fract_x
_atom_site_fract_y
_atom_site_fract_z
Si Si1 0.378733 0.500000 0.302152
Si Si2 0.614064 0.812763 0.765488
Si Si3 0.381356 0.198797 0.437710
Si Si4 0.699022 0.000000 0.278417
Si Si5 0.117679 0.500000 0.895690
Si Si6 0.309922 0.304860 0.333100
O O1 0.500000 0.500000 0.289868
O O2 0.316835 0.500000 0.243276
O O3 0.344345 0.411152 0.337965
O O4 0.500000 0.808225 0.790556
O O5 0.637039 0.913009 0.742656
O O6 0.619751 0.741727 0.714091
O O7 0.691791 0.789549 0.815378
O O8 0.347640 0.228471 0.500000
O O9 0.500000 0.221263 0.427433
O O10 0.361012 0.089943 0.432457
O O11 0.318067 0.257549 0.393135
O O12 0.698711 0.000000 0.345125
O O13 0.000000 0.500000 0.873213
#
# Coordination Sequence:
#
# PCOD8287054 Si02
#       6
#     8  16  16   8   8  16
#     4  10  20  32  44  65  99 131 156 186 227 276
#     4  10  18  30  48  70  95 121 151 192 239 282
#     4  10  19  31  48  69  94 125 158 194 236 278
#     4  10  18  27  48  75  96 121 149 186 239 286
#     4  10  17  28  46  70  99 121 146 190 239 284
#     4  10  20  31  46  68  94 125 159 191 229 276
#
# _framework density 15.864158
#
# number of rings (size 3 to 8) (size 9 to 14) (size 15 to 20)
#    0.000    2.000    2.222    3.333    0.000    1.333 
#    0.000    0.556    0.000    2.667    0.000    0.000 
#    0.000    8.000    0.000    0.000    0.000    0.000 
#
# Total GULP energy -446372.596481 kJ/mol
# GULP energy per Si atom -12399.238791 kJ/mol
# Density = 1.582805 g / cm^3
# Si number density = 15.864158 Si / 1000 Ang^3
#
#
#
# Elastic Constant Matrix: (Units=GPa)
#
#
# Indices 1 2 3 4 5 6 
#
# 1 104.7538 27.9954 46.9365 0.0000 0.0000 0.0000
# 2 27.9954 108.8314 45.7967 0.0000 0.0000 0.0000
# 3 46.9365 45.7967 114.0950 0.0000 0.0000 0.0000
# 4 0.0000 0.0000 0.0000 23.8697 0.0000 0.0000
# 5 0.0000 0.0000 0.0000 0.0000 19.1567 0.0000
# 6 0.0000 0.0000 0.0000 0.0000 0.0000 22.8620
#
#
#
# Elastic Compliance Matrix: (Units=1/GPa)
#
#
# Indices 1 2 3 4 5 6 
#
# 1 0.011832 -0.001198 -0.004387 0.000000 0.000000 0.000000
# 2 -0.001198 0.011177 -0.003994 0.000000 0.000000 0.000000
# 3 -0.004387 -0.003994 0.012172 0.000000 0.000000 0.000000
# 4 0.000000 0.000000 0.000000 0.041894 0.000000 0.000000
# 5 0.000000 0.000000 0.000000 0.000000 0.052201 0.000000
# 6 0.000000 0.000000 0.000000 0.000000 0.000000 0.043741
#
#
# Mechanical properties :
#
#
# Convention : Reuss Voigt Hill
#
# Bulk Modulus (GPa) = 62.40183 63.23748 62.81965
# Shear Modulus (GPa) = 25.31455 26.97445 26.14450
#
# Velocity S-wave (km/s) = 3.99896 4.12799 4.06399
# Velocity P-wave (km/s) = 7.79377 7.91636 7.85530
#
# Compressibility (1/GPa) = 0.01602517
#
# Stress axis : x y z
#
# Youngs Moduli (GPa) = 84.51832 89.46795 82.15411
#
# Poissons Ratio (x) = 0.10715 0.36038
# Poissons Ratio (y) = 0.10122 0.32810
# Poissons Ratio (z) = 0.37075 0.35731
#
# Static dielectric constant tensor:
#      x y z
#    x 2.968150 0.000000 0.000000 
#    y 0.000000 3.206210 0.000000 
#    z 0.000000 0.000000 2.810180 
# 
# 
# High freq. dielectric constant tensor:
#      x y z
#    x 1.592740 0.000000 0.000000 
#    y 0.000000 1.626740 0.000000 
#    z 0.000000 0.000000 1.582640 
# 
# From -- ./inp_files/21808.got.cif
#   From: 2010.06.25/outbox.cif.g09.slc.cpg/sg71_11_cif.got.tgz:21808.got - 2010.06.28 04:59:45.
