data_PCOD8287584
_publ_section_title
;
Structure prediction by ZEFSAII (Michael W. Deem and Ramdas Pophale) SiO2 
 PCOD8287584
Probable space group: I M M M
;
_chemical_formula_sum "Si O2"
_cell_formula_units_Z 96
_cell_length_a 27.624489
_cell_length_b 8.511610
_cell_length_c 22.829478
_cell_angle_alpha 90.000000
_cell_angle_beta 90.000000
_cell_angle_gamma 90.000000
_cell_volume 5367.869520
_symmetry_space_group_name_H-M "I M M M"
_symmetry_group_IT_number 71
_symmetry_cell_setting 'orthorhombic'
loop_
_space_group_symop_operation_xyz
x,y,z
-x,-y,z
x,-y,-z
-x,y,-z
-x,-y,-z
x,y,-z
-x,y,z
x,-y,z
1/2+x,1/2+y,1/2+z
1/2-x,1/2-y,1/2+z
1/2+x,1/2-y,1/2-z
1/2-x,1/2+y,1/2-z
1/2-x,1/2-y,1/2-z
1/2+x,1/2+y,1/2-z
1/2-x,1/2+y,1/2+z
1/2+x,1/2-y,1/2+z
loop_
_atom_site_type_symbol
_atom_site_label
_atom_site_fract_x
_atom_site_fract_y
_atom_site_fract_z
Si Si1 0.854326 0.816668 0.699132
Si Si2 0.446821 0.314129 0.733022
Si Si3 0.885762 0.817650 0.874449
Si Si4 0.781781 0.316485 0.620343
Si Si5 0.138188 0.820208 0.000000
Si Si6 0.743925 0.815783 0.500000
Si Si7 0.302259 0.181482 0.692837
O O1 0.907440 0.752975 0.719580
O O2 0.836910 0.724306 0.640659
O O3 0.817014 0.787188 0.752101
O O4 0.856396 0.000000 0.684715
O O5 0.500000 0.239937 0.745113
O O6 0.449873 0.500000 0.737718
O O7 0.430664 0.266893 0.666735
O O8 0.839329 0.712105 0.860088
O O9 0.872973 0.000000 0.862398
O O10 0.895737 0.786758 0.943347
O O11 0.771659 0.500000 0.621691
O O12 0.771057 0.254269 0.555998
O O13 0.750038 0.230260 0.669639
O O14 0.186873 0.718540 0.000000
O O15 0.156114 0.000000 0.000000
O O16 0.751660 0.000000 0.500000
O O17 0.302343 0.000000 0.711460
#
# Coordination Sequence:
#
# PCOD8287584 Si02
#       7
#    16  16  16  16   8   8  16
#     4  10  20  34  52  75 102 133 170 213 258 308
#     4   8  15  30  52  76 101 130 167 215 267 311
#     4   9  17  29  47  70  99 136 177 217 258 303
#     4  12  23  36  51  72 104 138 171 208 251 302
#     4  10  18  30  47  68 100 141 180 215 252 293
#     4  12  24  36  52  75 102 140 179 211 244 296
#     4  11  20  31  48  72 102 135 173 212 254 304
#
# _framework density 17.884188999999999
#
# number of rings (size 3 to 8) (size 9 to 14) (size 15 to 20)
#    0.000    1.833    1.667    5.750    0.000    0.000 
#    0.000    0.417    0.000   15.000    0.000    0.583 
#    0.000   10.667    0.000    0.000    0.000    0.000 
#
# Total GULP energy -594971.900549 kJ/mol
# GULP energy per Si atom -12395.247928 kJ/mol
# Density = 1.784348 g / cm^3
# Si number density = 17.884189 Si / 1000 Ang^3
#
#
#
# Elastic Constant Matrix: (Units=GPa)
#
#
# Indices 1 2 3 4 5 6 
#
# 1 108.0693 14.3943 50.8273 0.0000 0.0000 0.0000
# 2 14.3943 59.0255 7.9466 0.0000 0.0000 0.0000
# 3 50.8273 7.9466 62.6749 0.0000 0.0000 0.0000
# 4 0.0000 0.0000 0.0000 24.2914 0.0000 0.0000
# 5 0.0000 0.0000 0.0000 0.0000 14.8305 0.0000
# 6 0.0000 0.0000 0.0000 0.0000 0.0000 15.2883
#
#
#
# Elastic Compliance Matrix: (Units=1/GPa)
#
#
# Indices 1 2 3 4 5 6 
#
# 1 0.015207 -0.002084 -0.012068 0.000000 0.000000 0.000000
# 2 -0.002084 0.017522 -0.000532 0.000000 0.000000 0.000000
# 3 -0.012068 -0.000532 0.025809 0.000000 0.000000 0.000000
# 4 0.000000 0.000000 0.000000 0.041167 0.000000 0.000000
# 5 0.000000 0.000000 0.000000 0.000000 0.067429 0.000000
# 6 0.000000 0.000000 0.000000 0.000000 0.000000 0.065410
#
#
# Mechanical properties :
#
#
# Convention : Reuss Voigt Hill
#
# Bulk Modulus (GPa) = 34.28070 41.78957 38.03514
# Shear Modulus (GPa) = 18.40718 21.32214 19.86466
#
# Velocity S-wave (km/s) = 3.21166 3.45662 3.33639
# Velocity P-wave (km/s) = 5.74132 6.27284 6.01296
#
# Compressibility (1/GPa) = 0.02917093
#
# Stress axis : x y z
#
# Youngs Moduli (GPa) = 65.76075 57.07257 38.74549
#
# Poissons Ratio (x) = 0.11892 0.46758
# Poissons Ratio (y) = 0.13702 0.02060
# Poissons Ratio (z) = 0.79359 0.03035
#
# Static dielectric constant tensor:
#      x y z
#    x 3.463240 0.000000 0.000000 
#    y 0.000000 3.190840 0.000000 
#    z 0.000000 0.000000 3.416790 
# 
# 
# High freq. dielectric constant tensor:
#      x y z
#    x 1.664010 0.000000 0.000000 
#    y 0.000000 1.683100 0.000000 
#    z 0.000000 0.000000 1.684930 
# 
# From -- ./inp_files/61871.got.cif
#   From: 2010.06.25/outbox.cif.g09.slc.cpg/sg71_31_cif.got.tgz:61871.got - 2010.06.28 04:59:45.
