data_PCOD8287868
_publ_section_title
;
Structure prediction by ZEFSAII (Michael W. Deem and Ramdas Pophale) SiO2 
 PCOD8287868
Probable space group: I M M M
;
_chemical_formula_sum "Si O2"
_cell_formula_units_Z 72
_cell_length_a 11.836035
_cell_length_b 13.234618
_cell_length_c 23.385871
_cell_angle_alpha 90.000000
_cell_angle_beta 90.000000
_cell_angle_gamma 90.000000
_cell_volume 3663.289161
_symmetry_space_group_name_H-M "I M M M"
_symmetry_group_IT_number 71
_symmetry_cell_setting 'orthorhombic'
loop_
_space_group_symop_operation_xyz
x,y,z
-x,-y,z
x,-y,-z
-x,y,-z
-x,-y,-z
x,y,-z
-x,y,z
x,-y,z
1/2+x,1/2+y,1/2+z
1/2-x,1/2-y,1/2+z
1/2+x,1/2-y,1/2-z
1/2-x,1/2+y,1/2-z
1/2-x,1/2-y,1/2-z
1/2+x,1/2+y,1/2-z
1/2-x,1/2+y,1/2+z
1/2+x,1/2-y,1/2+z
loop_
_atom_site_type_symbol
_atom_site_label
_atom_site_fract_x
_atom_site_fract_y
_atom_site_fract_z
Si Si1 0.270366 0.718805 0.099141
Si Si2 0.000000 0.302835 0.437700
Si Si3 0.253331 0.880066 0.184025
Si Si4 0.375119 0.381034 0.203744
Si Si5 0.500000 0.113037 0.819489
Si Si6 0.133727 0.616880 0.000000
O O1 0.389055 0.732494 0.066733
O O2 0.219768 0.824582 0.124579
O O3 0.288619 0.646588 0.153748
O O4 0.180103 0.670229 0.056821
O O5 0.000000 0.387971 0.388926
O O6 0.000000 0.355391 0.500000
O O7 0.171477 0.846266 0.234598
O O8 0.380852 0.837288 0.200649
O O9 0.255246 0.000000 0.172894
O O10 0.500000 0.331412 0.194054
O O11 0.387521 0.500000 0.204776
O O12 0.500000 0.000000 0.795768
O O13 0.171218 0.500000 0.000000
O O14 0.000000 0.628381 0.000000
#
# Coordination Sequence:
#
# PCOD8287868 Si02
#       6
#    16   8  16  16   8   8
#     4  11  20  38  59  81 112 148 188 228 280 329
#     4  10  18  31  54  82 106 138 187 228 267 321
#     4   9  19  35  56  84 116 148 183 228 279 334
#     4  10  20  34  54  82 112 143 186 238 285 329
#     4   8  16  31  50  76 114 147 178 221 270 328
#     4  11  26  45  60  80 111 147 187 227 273 334
#
# _framework density 19.654468000000001
#
# number of rings (size 3 to 8) (size 9 to 14) (size 15 to 20)
#    0.000    2.111    2.222    1.333    0.000    1.111 
#    2.000    1.111    0.000    0.667    0.000    0.000 
#    0.000    0.000    0.000    0.000    0.000    0.000 
#
# Total GULP energy -446195.869470 kJ/mol
# GULP energy per Si atom -12394.329707 kJ/mol
# Density = 1.960973 g / cm^3
# Si number density = 19.654468 Si / 1000 Ang^3
#
#
#
# Elastic Constant Matrix: (Units=GPa)
#
#
# Indices 1 2 3 4 5 6 
#
# 1 87.4057 42.0588 56.4763 0.0000 0.0000 0.0000
# 2 42.0588 55.5170 46.3330 0.0000 0.0000 0.0000
# 3 56.4763 46.3330 131.4677 0.0000 0.0000 0.0000
# 4 0.0000 0.0000 0.0000 26.9219 0.0000 0.0000
# 5 0.0000 0.0000 0.0000 0.0000 37.4425 0.0000
# 6 0.0000 0.0000 0.0000 0.0000 0.0000 26.6893
#
#
#
# Elastic Compliance Matrix: (Units=1/GPa)
#
#
# Indices 1 2 3 4 5 6 
#
# 1 0.019755 -0.011169 -0.004550 0.000000 0.000000 0.000000
# 2 -0.011169 0.031832 -0.006421 0.000000 0.000000 0.000000
# 3 -0.004550 -0.006421 0.011824 0.000000 0.000000 0.000000
# 4 0.000000 0.000000 0.000000 0.037144 0.000000 0.000000
# 5 0.000000 0.000000 0.000000 0.000000 0.026708 0.000000
# 6 0.000000 0.000000 0.000000 0.000000 0.000000 0.037468
#
#
# Mechanical properties :
#
#
# Convention : Reuss Voigt Hill
#
# Bulk Modulus (GPa) = 52.26828 62.68073 57.47451
# Shear Modulus (GPa) = 23.21382 26.84557 25.02969
#
# Velocity S-wave (km/s) = 3.44044 3.69979 3.57247
# Velocity P-wave (km/s) = 6.51410 7.08603 6.80607
#
# Compressibility (1/GPa) = 0.01913206
#
# Stress axis : x y z
#
# Youngs Moduli (GPa) = 50.61915 31.41463 84.57328
#
# Poissons Ratio (x) = 0.35086 0.38484
# Poissons Ratio (y) = 0.56535 0.54302
# Poissons Ratio (z) = 0.23034 0.20170
#
# Static dielectric constant tensor:
#      x y z
#    x 3.772070 0.000000 0.000000 
#    y 0.000000 3.648000 0.000000 
#    z 0.000000 0.000000 3.497560 
# 
# 
# High freq. dielectric constant tensor:
#      x y z
#    x 1.760760 0.000000 0.000000 
#    y 0.000000 1.774820 0.000000 
#    z 0.000000 0.000000 1.755790 
# 
# From -- ./inp_files/32621.got.cif
#   From: 2010.06.25/outbox.cif.g09.slc.cpg/sg71_17_cif.got.tgz:32621.got - 2010.06.28 04:59:45.
