data_PCOD8287370
_publ_section_title
;
Structure prediction by ZEFSAII (Michael W. Deem and Ramdas Pophale) SiO2 
 PCOD8287370
Probable space group: I M M M
;
_chemical_formula_sum "Si O2"
_cell_formula_units_Z 120
_cell_length_a 14.161217
_cell_length_b 23.265400
_cell_length_c 22.032012
_cell_angle_alpha 90.000000
_cell_angle_beta 90.000000
_cell_angle_gamma 90.000000
_cell_volume 7258.807194
_symmetry_space_group_name_H-M "I M M M"
_symmetry_group_IT_number 71
_symmetry_cell_setting 'orthorhombic'
loop_
_space_group_symop_operation_xyz
x,y,z
-x,-y,z
x,-y,-z
-x,y,-z
-x,-y,-z
x,y,-z
-x,y,z
x,-y,z
1/2+x,1/2+y,1/2+z
1/2-x,1/2-y,1/2+z
1/2+x,1/2-y,1/2-z
1/2-x,1/2+y,1/2-z
1/2-x,1/2-y,1/2-z
1/2+x,1/2+y,1/2-z
1/2-x,1/2+y,1/2+z
1/2+x,1/2-y,1/2+z
loop_
_atom_site_type_symbol
_atom_site_label
_atom_site_fract_x
_atom_site_fract_y
_atom_site_fract_z
Si Si1 0.391743 0.222531 0.299541
Si Si2 0.308348 0.935313 0.369883
Si Si3 0.608319 0.230558 0.067947
Si Si4 0.891752 0.843226 0.252739
Si Si5 0.000000 0.567591 0.932520
Si Si6 0.890730 0.347421 0.320981
Si Si7 0.718692 0.676663 0.128781
Si Si8 0.261419 0.934828 0.231755
O O1 0.500000 0.207133 0.316663
O O2 0.379604 0.291366 0.295137
O O3 0.363685 0.194085 0.235022
O O4 0.322147 0.199167 0.351122
O O5 0.408467 0.913633 0.394932
O O6 0.230258 0.889695 0.393486
O O7 0.312208 0.932457 0.297097
O O8 0.282372 0.000000 0.392034
O O9 0.500000 0.249015 0.079787
O O10 0.639644 0.182577 0.116228
O O11 0.675941 0.285996 0.074378
O O12 0.621200 0.205938 0.000000
O O13 0.855452 0.819472 0.316726
O O14 0.835944 0.899503 0.231084
O O15 0.000000 0.861564 0.259655
O O16 0.000000 0.500000 0.939694
O O17 0.000000 0.595767 0.000000
O O18 0.833090 0.406706 0.316267
O O19 0.000000 0.363395 0.321236
O O20 0.239313 0.000000 0.212172
#
# Coordination Sequence:
#
# PCOD8287370 Si02
#       8
#    16  16  16  16   8  16  16  16
#     4  10  18  28  49  78 100 124 158 195 248 310
#     4   9  19  30  44  67  96 127 163 202 239 284
#     4  10  21  35  51  73  97 127 171 213 248 293
#     4  10  18  29  45  68  97 130 162 194 234 288
#     4   9  18  32  46  58  82 126 167 195 230 282
#     4  10  18  31  52  74 100 130 159 199 255 307
#     4  11  18  29  50  69 100 128 162 201 250 288
#     4  10  20  31  46  73 102 129 161 200 246 295
#
# _framework density 16.531641
#
# number of rings (size 3 to 8) (size 9 to 14) (size 15 to 20)
#    0.000    2.067    4.000    1.600    1.867    1.067 
#    0.000    0.000    0.000    1.600    0.000    2.800 
#    0.000    0.000    0.000    4.800    0.000    0.000 
#
# Total GULP energy -743905.715166 kJ/mol
# GULP energy per Si atom -12398.428586 kJ/mol
# Density = 1.649401 g / cm^3
# Si number density = 16.531641 Si / 1000 Ang^3
#
#
#
# Elastic Constant Matrix: (Units=GPa)
#
#
# Indices 1 2 3 4 5 6 
#
# 1 79.9764 43.4369 29.3013 0.0000 0.0000 0.0000
# 2 43.4369 101.3522 26.2783 0.0000 0.0000 0.0000
# 3 29.3013 26.2783 48.8993 0.0000 0.0000 0.0000
# 4 0.0000 0.0000 0.0000 13.1738 0.0000 0.0000
# 5 0.0000 0.0000 0.0000 0.0000 17.2883 0.0000
# 6 0.0000 0.0000 0.0000 0.0000 0.0000 24.5902
#
#
#
# Elastic Compliance Matrix: (Units=1/GPa)
#
#
# Indices 1 2 3 4 5 6 
#
# 1 0.018647 -0.005919 -0.007992 0.000000 0.000000 0.000000
# 2 -0.005919 0.013343 -0.003624 0.000000 0.000000 0.000000
# 3 -0.007992 -0.003624 0.027187 0.000000 0.000000 0.000000
# 4 0.000000 0.000000 0.000000 0.075908 0.000000 0.000000
# 5 0.000000 0.000000 0.000000 0.000000 0.057843 0.000000
# 6 0.000000 0.000000 0.000000 0.000000 0.000000 0.040667
#
#
# Mechanical properties :
#
#
# Convention : Reuss Voigt Hill
#
# Bulk Modulus (GPa) = 41.48365 47.58454 44.53409
# Shear Modulus (GPa) = 18.07014 19.75789 18.91401
#
# Velocity S-wave (km/s) = 3.30974 3.46085 3.38614
# Velocity P-wave (km/s) = 6.30506 6.69451 6.50270
#
# Compressibility (1/GPa) = 0.02410588
#
# Stress axis : x y z
#
# Youngs Moduli (GPa) = 53.62850 74.94617 36.78269
#
# Poissons Ratio (x) = 0.44363 0.29399
# Poissons Ratio (y) = 0.31744 0.13328
# Poissons Ratio (z) = 0.42863 0.27157
#
# Static dielectric constant tensor:
#      x y z
#    x 3.167820 0.000000 0.000000 
#    y 0.000000 3.207520 0.000000 
#    z 0.000000 0.000000 2.877570 
# 
# 
# High freq. dielectric constant tensor:
#      x y z
#    x 1.639730 0.000000 0.000000 
#    y 0.000000 1.632590 0.000000 
#    z 0.000000 0.000000 1.597000 
# 
# From -- ./inp_files/53534.got.cif
#   From: 2010.06.25/outbox.cif.g09.slc.cpg/sg71_27_cif.got.tgz:53534.got - 2010.06.28 04:59:45.
