data_PCOD8287961
_publ_section_title
;
Structure prediction by ZEFSAII (Michael W. Deem and Ramdas Pophale) SiO2 
 PCOD8287961
Probable space group: I M M M
;
_chemical_formula_sum "Si O2"
_cell_formula_units_Z 48
_cell_length_a 22.205721
_cell_length_b 9.449622
_cell_length_c 12.367663
_cell_angle_alpha 90.000000
_cell_angle_beta 90.000000
_cell_angle_gamma 90.000000
_cell_volume 2595.176848
_symmetry_space_group_name_H-M "I M M M"
_symmetry_group_IT_number 71
_symmetry_cell_setting 'orthorhombic'
loop_
_space_group_symop_operation_xyz
x,y,z
-x,-y,z
x,-y,-z
-x,y,-z
-x,-y,-z
x,y,-z
-x,y,z
x,-y,z
1/2+x,1/2+y,1/2+z
1/2-x,1/2-y,1/2+z
1/2+x,1/2-y,1/2-z
1/2-x,1/2+y,1/2-z
1/2-x,1/2-y,1/2-z
1/2+x,1/2+y,1/2-z
1/2-x,1/2+y,1/2+z
1/2+x,1/2-y,1/2+z
loop_
_atom_site_type_symbol
_atom_site_label
_atom_site_fract_x
_atom_site_fract_y
_atom_site_fract_z
Si Si1 0.692514 0.500000 0.623027
Si Si2 0.619034 0.727404 0.251993
Si Si3 0.335023 0.000000 0.872740
Si Si4 0.000000 0.829515 0.876224
Si Si5 0.435283 0.500000 0.878450
O O1 0.668654 0.500000 0.500000
O O2 0.669334 0.355868 0.678782
O O3 0.763756 0.500000 0.626831
O O4 0.559031 0.742802 0.323901
O O5 0.603287 0.636869 0.147057
O O6 0.642453 0.870880 0.200309
O O7 0.357713 0.000000 0.000000
O O8 0.000000 0.000000 0.866024
O O9 0.000000 0.783100 0.000000
O O10 0.500000 0.500000 0.813962
O O11 0.452681 0.500000 0.000000
#
# Coordination Sequence:
#
# PCOD8287961 Si02
#       5
#     8  16   8   8   8
#     4  10  21  40  65  86 112 156 204 244 285 340
#     4  11  20  38  59  88 116 155 192 242 294 349
#     4  11  25  40  56  86 125 160 194 237 290 347
#     4  11  20  37  64  91 113 145 195 245 295 350
#     4  10  18  32  54  81 111 150 199 237 273 338
#
# _framework density 18.495850999999998
#
# number of rings (size 3 to 8) (size 9 to 14) (size 15 to 20)
#    0.000    1.333    5.000    3.000    0.000    0.667 
#    0.000    5.000    0.000   10.000    0.000    0.000 
#    0.000    0.000    0.000    0.000    0.000    0.000 
#
# Total GULP energy -297337.632856 kJ/mol
# GULP energy per Si atom -12389.068036 kJ/mol
# Density = 1.845375 g / cm^3
# Si number density = 18.495851 Si / 1000 Ang^3
#
#
#
# Elastic Constant Matrix: (Units=GPa)
#
#
# Indices 1 2 3 4 5 6 
#
# 1 100.6382 52.1871 55.1497 0.0000 0.0000 0.0000
# 2 52.1871 140.6510 72.0412 0.0000 0.0000 0.0000
# 3 55.1497 72.0412 146.3693 0.0000 0.0000 0.0000
# 4 0.0000 0.0000 0.0000 21.1322 0.0000 0.0000
# 5 0.0000 0.0000 0.0000 0.0000 21.5896 0.0000
# 6 0.0000 0.0000 0.0000 0.0000 0.0000 34.5849
#
#
#
# Elastic Compliance Matrix: (Units=1/GPa)
#
#
# Indices 1 2 3 4 5 6 
#
# 1 0.013532 -0.003222 -0.003513 0.000000 0.000000 0.000000
# 2 -0.003222 0.010273 -0.003843 0.000000 0.000000 0.000000
# 3 -0.003513 -0.003843 0.010047 0.000000 0.000000 0.000000
# 4 0.000000 0.000000 0.000000 0.047321 0.000000 0.000000
# 5 0.000000 0.000000 0.000000 0.000000 0.046319 0.000000
# 6 0.000000 0.000000 0.000000 0.000000 0.000000 0.028914
#
#
# Mechanical properties :
#
#
# Convention : Reuss Voigt Hill
#
# Bulk Modulus (GPa) = 78.75224 82.93494 80.84359
# Shear Modulus (GPa) = 27.50365 29.34671 28.42518
#
# Velocity S-wave (km/s) = 3.86037 3.98762 3.92451
# Velocity P-wave (km/s) = 7.90827 8.13256 8.02120
#
# Compressibility (1/GPa) = 0.01269805
#
# Stress axis : x y z
#
# Youngs Moduli (GPa) = 73.89672 97.33987 99.53235
#
# Poissons Ratio (x) = 0.31359 0.34967
# Poissons Ratio (y) = 0.23807 0.38246
# Poissons Ratio (z) = 0.25961 0.37403
#
# Static dielectric constant tensor:
#      x y z
#    x 3.486830 0.000000 0.000000 
#    y 0.000000 3.237200 0.000000 
#    z 0.000000 0.000000 3.643130 
# 
# 
# High freq. dielectric constant tensor:
#      x y z
#    x 1.728560 0.000000 0.000000 
#    y 0.000000 1.696970 0.000000 
#    z 0.000000 0.000000 1.740890 
# 
# From -- ./inp_files/18124.got.cif
#   From: 2010.06.25/outbox.cif.g09.slc.cpg/sg71_10_cif.got.tgz:18124.got - 2010.06.28 04:59:45.
