data_PCOD8287478
_publ_section_title
;
Structure prediction by ZEFSAII (Michael W. Deem and Ramdas Pophale) SiO2 
 PCOD8287478
Probable space group: I M M M
;
_chemical_formula_sum "Si O2"
_cell_formula_units_Z 120
_cell_length_a 20.293705
_cell_length_b 19.736801
_cell_length_c 17.505971
_cell_angle_alpha 90.000000
_cell_angle_beta 90.000000
_cell_angle_gamma 90.000000
_cell_volume 7011.715881
_symmetry_space_group_name_H-M "I M M M"
_symmetry_group_IT_number 71
_symmetry_cell_setting 'orthorhombic'
loop_
_space_group_symop_operation_xyz
x,y,z
-x,-y,z
x,-y,-z
-x,y,-z
-x,-y,-z
x,y,-z
-x,y,z
x,-y,z
1/2+x,1/2+y,1/2+z
1/2-x,1/2-y,1/2+z
1/2+x,1/2-y,1/2-z
1/2-x,1/2+y,1/2-z
1/2-x,1/2-y,1/2-z
1/2+x,1/2+y,1/2-z
1/2-x,1/2+y,1/2+z
1/2+x,1/2-y,1/2+z
loop_
_atom_site_type_symbol
_atom_site_label
_atom_site_fract_x
_atom_site_fract_y
_atom_site_fract_z
Si Si1 0.879743 0.358647 0.677078
Si Si2 0.839871 0.306031 0.912446
Si Si3 0.795969 0.739334 0.412401
Si Si4 0.295718 0.920800 0.303334
Si Si5 0.000000 0.420029 0.413615
Si Si6 0.928169 0.078679 0.417618
Si Si7 0.075786 0.756795 0.787805
Si Si8 0.840268 0.854533 0.697786
O O1 0.819760 0.331457 0.624299
O O2 0.849193 0.412319 0.736477
O O3 0.933930 0.395181 0.626629
O O4 0.915309 0.297753 0.721096
O O5 0.782451 0.249727 0.904464
O O6 0.817731 0.378685 0.878186
O O7 0.902443 0.276066 0.868019
O O8 0.859645 0.318501 0.000000
O O9 0.818512 0.741898 0.500000
O O10 0.831121 0.798691 0.367047
O O11 0.226985 0.889023 0.273158
O O12 0.288844 0.000000 0.324771
O O13 0.000000 0.500000 0.411724
O O14 0.000000 0.392195 0.500000
O O15 0.899457 0.105273 0.500000
O O16 0.882865 0.089293 0.344486
O O17 0.000000 0.113055 0.403869
O O18 0.938191 0.000000 0.424919
O O19 0.121022 0.822433 0.769718
O O20 0.000000 0.779154 0.794008
#
# Coordination Sequence:
#
# PCOD8287478 Si02
#       8
#    16  16  16  16   8  16  16  16
#     4  10  19  34  50  70  97 128 162 201 241 298
#     4   9  19  34  51  73  99 127 164 211 258 303
#     4   9  17  30  49  71  97 125 155 199 251 292
#     4  10  20  33  51  73  98 133 167 202 251 299
#     4  11  22  34  50  72  97 127 160 196 237 288
#     4   9  17  28  41  61  97 142 176 203 242 292
#     4  10  19  32  51  73  97 130 165 207 256 299
#     4  10  18  29  47  72 100 127 169 208 244 298
#
# _framework density 17.114212999999999
#
# number of rings (size 3 to 8) (size 9 to 14) (size 15 to 20)
#    0.000    2.333    0.667    3.200    0.000    4.267 
#    0.000    0.000    0.000    0.000    0.000    1.867 
#    0.000    1.600    0.000   10.800    0.000    0.000 
#
# Total GULP energy -743700.356222 kJ/mol
# GULP energy per Si atom -12395.005937 kJ/mol
# Density = 1.707526 g / cm^3
# Si number density = 17.114213 Si / 1000 Ang^3
#
#
#
# Elastic Constant Matrix: (Units=GPa)
#
#
# Indices 1 2 3 4 5 6 
#
# 1 90.2972 31.2628 54.3622 0.0000 0.0000 0.0000
# 2 31.2628 63.9678 38.2538 0.0000 0.0000 0.0000
# 3 54.3622 38.2538 106.2981 0.0000 0.0000 0.0000
# 4 0.0000 0.0000 0.0000 18.8449 0.0000 0.0000
# 5 0.0000 0.0000 0.0000 0.0000 27.2154 0.0000
# 6 0.0000 0.0000 0.0000 0.0000 0.0000 21.7599
#
#
#
# Elastic Compliance Matrix: (Units=1/GPa)
#
#
# Indices 1 2 3 4 5 6 
#
# 1 0.016731 -0.003899 -0.007153 0.000000 0.000000 0.000000
# 2 -0.003899 0.020828 -0.005502 0.000000 0.000000 0.000000
# 3 -0.007153 -0.005502 0.015046 0.000000 0.000000 0.000000
# 4 0.000000 0.000000 0.000000 0.053065 0.000000 0.000000
# 5 0.000000 0.000000 0.000000 0.000000 0.036744 0.000000
# 6 0.000000 0.000000 0.000000 0.000000 0.000000 0.045956
#
#
# Mechanical properties :
#
#
# Convention : Reuss Voigt Hill
#
# Bulk Modulus (GPa) = 51.28926 56.48008 53.88467
# Shear Modulus (GPa) = 21.93204 22.67632 22.30418
#
# Velocity S-wave (km/s) = 3.58370 3.64400 3.61398
# Velocity P-wave (km/s) = 6.86715 7.12590 6.99772
#
# Compressibility (1/GPa) = 0.01949726
#
# Stress axis : x y z
#
# Youngs Moduli (GPa) = 59.76922 48.01119 66.46457
#
# Poissons Ratio (x) = 0.18720 0.47544
# Poissons Ratio (y) = 0.23305 0.36566
# Poissons Ratio (z) = 0.42754 0.26413
#
# Static dielectric constant tensor:
#      x y z
#    x 3.184230 0.000000 0.000000 
#    y 0.000000 3.025750 0.000000 
#    z 0.000000 0.000000 3.185280 
# 
# 
# High freq. dielectric constant tensor:
#      x y z
#    x 1.661670 0.000000 0.000000 
#    y 0.000000 1.642580 0.000000 
#    z 0.000000 0.000000 1.654950 
# 
# From -- ./inp_files/46503.got.cif
#   From: 2010.06.25/outbox.cif.g09.slc.cpg/sg71_24_cif.got.tgz:46503.got - 2010.06.28 04:59:45.
