data_PCOD8287701
_publ_section_title
;
Structure prediction by ZEFSAII (Michael W. Deem and Ramdas Pophale) SiO2 
 PCOD8287701
Probable space group: I M M M
;
_chemical_formula_sum "Si O2"
_cell_formula_units_Z 96
_cell_length_a 25.229267
_cell_length_b 24.388157
_cell_length_c 8.713446
_cell_angle_alpha 90.000000
_cell_angle_beta 90.000000
_cell_angle_gamma 90.000000
_cell_volume 5361.342585
_symmetry_space_group_name_H-M "I M M M"
_symmetry_group_IT_number 71
_symmetry_cell_setting 'orthorhombic'
loop_
_space_group_symop_operation_xyz
x,y,z
-x,-y,z
x,-y,-z
-x,y,-z
-x,-y,-z
x,y,-z
-x,y,z
x,-y,z
1/2+x,1/2+y,1/2+z
1/2-x,1/2-y,1/2+z
1/2+x,1/2-y,1/2-z
1/2-x,1/2+y,1/2-z
1/2-x,1/2-y,1/2-z
1/2+x,1/2+y,1/2-z
1/2-x,1/2+y,1/2+z
1/2+x,1/2-y,1/2+z
loop_
_atom_site_type_symbol
_atom_site_label
_atom_site_fract_x
_atom_site_fract_y
_atom_site_fract_z
Si Si1 0.111126 0.108577 0.818372
Si Si2 0.217796 0.500000 0.680988
Si Si3 0.167416 0.000000 0.817590
Si Si4 0.311928 0.303753 0.180427
Si Si5 0.500000 0.437165 0.681334
Si Si6 0.307643 0.186296 0.679498
Si Si7 0.561513 0.000000 0.679321
Si Si8 0.135714 0.412406 0.319055
O O1 0.139637 0.157638 0.729693
O O2 0.050071 0.100016 0.768457
O O3 0.138252 0.053469 0.758806
O O4 0.117346 0.118205 0.000000
O O5 0.223948 0.500000 0.500000
O O6 0.274824 0.500000 0.759755
O O7 0.187182 0.553892 0.734131
O O8 0.169121 0.000000 0.000000
O O9 0.320753 0.247534 0.269705
O O10 0.253663 0.328349 0.224702
O O11 0.314486 0.292216 0.000000
O O12 0.500000 0.500000 0.750114
O O13 0.500000 0.444959 0.500000
O O14 0.316227 0.180620 0.500000
O O15 0.352248 0.148431 0.759393
O O16 0.585108 0.943457 0.748078
O O17 0.500000 0.000000 0.720091
O O18 0.572758 0.000000 0.500000
O O19 0.127089 0.411446 0.500000
#
# Coordination Sequence:
#
# PCOD8287701 Si02
#       8
#    16   8   8  16   8  16   8  16
#     4  10  18  30  51  75 101 136 178 222 263 307
#     4   8  15  25  40  71 107 135 163 197 248 308
#     4   9  15  24  44  72 101 132 168 209 251 304
#     4  10  21  35  52  77 108 140 175 217 264 318
#     4   9  16  30  51  77 103 133 179 224 261 300
#     4  10  20  35  55  78 106 141 177 214 263 322
#     4  10  21  37  57  81 110 145 182 218 260 314
#     4  10  19  32  53  80 111 142 174 217 264 314
#
# _framework density 17.905961999999999
#
# number of rings (size 3 to 8) (size 9 to 14) (size 15 to 20)
#    0.000    2.333    0.833    3.250    0.000    4.000 
#    0.000    0.833    1.833    3.500    0.000    0.000 
#    0.000    0.000    0.000    0.000    0.000    0.000 
#
# Total GULP energy -594918.938041 kJ/mol
# GULP energy per Si atom -12394.144543 kJ/mol
# Density = 1.786521 g / cm^3
# Si number density = 17.905962 Si / 1000 Ang^3
#
#
#
# Elastic Constant Matrix: (Units=GPa)
#
#
# Indices 1 2 3 4 5 6 
#
# 1 137.7415 61.8658 41.6813 0.0000 0.0000 0.0000
# 2 61.8658 96.3758 29.6943 0.0000 0.0000 0.0000
# 3 41.6813 29.6943 57.2410 0.0000 0.0000 0.0000
# 4 0.0000 0.0000 0.0000 27.3217 0.0000 0.0000
# 5 0.0000 0.0000 0.0000 0.0000 23.7103 0.0000
# 6 0.0000 0.0000 0.0000 0.0000 0.0000 175.7710
#
#
#
# Elastic Compliance Matrix: (Units=1/GPa)
#
#
# Indices 1 2 3 4 5 6 
#
# 1 0.011443 -0.005687 -0.005382 0.000000 0.000000 0.000000
# 2 -0.005687 0.015177 -0.003732 0.000000 0.000000 0.000000
# 3 -0.005382 -0.003732 0.023325 0.000000 0.000000 0.000000
# 4 0.000000 0.000000 0.000000 0.036601 0.000000 0.000000
# 5 0.000000 0.000000 0.000000 0.000000 0.042176 0.000000
# 6 0.000000 0.000000 0.000000 0.000000 0.000000 0.005689
#
#
# Mechanical properties :
#
#
# Convention : Reuss Voigt Hill
#
# Bulk Modulus (GPa) = 49.15852 61.98236 55.57044
# Shear Modulus (GPa) = 29.27510 55.90174 42.58842
#
# Velocity S-wave (km/s) = 4.04782 5.59351 4.88223
# Velocity P-wave (km/s) = 7.02565 8.74112 7.92991
#
# Compressibility (1/GPa) = 0.02034235
#
# Stress axis : x y z
#
# Youngs Moduli (GPa) = 87.38931 65.89098 42.87240
#
# Poissons Ratio (x) = 0.37474 0.23075
# Poissons Ratio (y) = 0.49700 0.15999
# Poissons Ratio (z) = 0.47035 0.24589
#
# Static dielectric constant tensor:
#      x y z
#    x 3.479000 0.000000 0.000000 
#    y 0.000000 3.169100 0.000000 
#    z 0.000000 0.000000 3.092420 
# 
# 
# High freq. dielectric constant tensor:
#      x y z
#    x 1.687920 0.000000 0.000000 
#    y 0.000000 1.690470 0.000000 
#    z 0.000000 0.000000 1.677660 
# 
# From -- ./inp_files/12962.got.cif
#   From: 2010.06.25/outbox.cif.g09.slc.cpg/sg71_7_cif.got.tgz:12962.got - 2010.06.28 04:59:45.
