data_PCOD8287357
_publ_section_title
;
Structure prediction by ZEFSAII (Michael W. Deem and Ramdas Pophale) SiO2 
 PCOD8287357
Probable space group: I M M M
;
_chemical_formula_sum "Si O2"
_cell_formula_units_Z 104
_cell_length_a 22.974976
_cell_length_b 21.653195
_cell_length_c 13.012696
_cell_angle_alpha 90.000000
_cell_angle_beta 90.000000
_cell_angle_gamma 90.000000
_cell_volume 6473.577288
_symmetry_space_group_name_H-M "I M M M"
_symmetry_group_IT_number 71
_symmetry_cell_setting 'orthorhombic'
loop_
_space_group_symop_operation_xyz
x,y,z
-x,-y,z
x,-y,-z
-x,y,-z
-x,-y,-z
x,y,-z
-x,y,z
x,-y,z
1/2+x,1/2+y,1/2+z
1/2-x,1/2-y,1/2+z
1/2+x,1/2-y,1/2-z
1/2-x,1/2+y,1/2-z
1/2-x,1/2-y,1/2-z
1/2+x,1/2+y,1/2-z
1/2-x,1/2+y,1/2+z
1/2+x,1/2-y,1/2+z
loop_
_atom_site_type_symbol
_atom_site_label
_atom_site_fract_x
_atom_site_fract_y
_atom_site_fract_z
Si Si1 0.723040 0.802807 0.113921
Si Si2 0.335140 0.764100 0.314245
Si Si3 0.363064 0.568229 0.616437
Si Si4 0.759347 0.431784 0.302248
Si Si5 0.837285 0.596690 0.881526
Si Si6 0.433892 0.000000 0.379305
Si Si7 0.565152 0.315829 0.619960
O O1 0.683165 0.767527 0.195409
O O2 0.789713 0.779932 0.125660
O O3 0.714867 0.876492 0.129094
O O4 0.701229 0.786108 0.000000
O O5 0.342562 0.830152 0.367851
O O6 0.397675 0.732771 0.315884
O O7 0.339237 0.579982 0.500000
O O8 0.390146 0.500000 0.625327
O O9 0.310352 0.576286 0.697052
O O10 0.414279 0.614904 0.644100
O O11 0.775527 0.500000 0.347270
O O12 0.782891 0.426970 0.185879
O O13 0.896809 0.561207 0.846481
O O14 0.823615 0.580875 0.000000
O O15 0.500000 0.000000 0.330267
O O16 0.442148 0.000000 0.500000
O O17 0.570385 0.300178 0.500000
O O18 0.500000 0.309414 0.660237
#
# Coordination Sequence:
#
# PCOD8287357 Si02
#       7
#    16  16  16  16  16   8  16
#     4  10  19  32  50  71  99 129 157 196 247 293
#     4  10  20  32  48  72 100 127 160 201 241 291
#     4   9  17  29  45  67  98 130 159 195 237 284
#     4  10  18  28  47  72  98 128 160 195 240 282
#     4  10  19  31  47  69 100 130 160 199 241 289
#     4   9  18  32  48  66  93 129 162 195 239 287
#     4  10  19  31  48  70  99 132 164 198 237 286
#
# _framework density 16.065306
#
# number of rings (size 3 to 8) (size 9 to 14) (size 15 to 20)
#    0.000    2.231    2.308    1.846    0.000    1.846 
#    0.000    3.077    0.000    0.462    0.000    0.000 
#    0.000    7.077    0.000    4.769    0.000    0.308 
#
# Total GULP energy -644512.889590 kJ/mol
# GULP energy per Si atom -12394.478646 kJ/mol
# Density = 1.602874 g / cm^3
# Si number density = 16.065306 Si / 1000 Ang^3
#
#
#
# Elastic Constant Matrix: (Units=GPa)
#
#
# Indices 1 2 3 4 5 6 
#
# 1 115.6628 50.8793 43.9744 0.0000 0.0000 0.0000
# 2 50.8793 108.9106 31.5520 0.0000 0.0000 0.0000
# 3 43.9744 31.5520 77.8456 0.0000 0.0000 0.0000
# 4 0.0000 0.0000 0.0000 16.5384 0.0000 0.0000
# 5 0.0000 0.0000 0.0000 0.0000 19.0627 0.0000
# 6 0.0000 0.0000 0.0000 0.0000 0.0000 24.7121
#
#
#
# Elastic Compliance Matrix: (Units=1/GPa)
#
#
# Indices 1 2 3 4 5 6 
#
# 1 0.012586 -0.004328 -0.005355 0.000000 0.000000 0.000000
# 2 -0.004328 0.011892 -0.002375 0.000000 0.000000 0.000000
# 3 -0.005355 -0.002375 0.016834 0.000000 0.000000 0.000000
# 4 0.000000 0.000000 0.000000 0.060465 0.000000 0.000000
# 5 0.000000 0.000000 0.000000 0.000000 0.052458 0.000000
# 6 0.000000 0.000000 0.000000 0.000000 0.000000 0.040466
#
#
# Mechanical properties :
#
#
# Convention : Reuss Voigt Hill
#
# Bulk Modulus (GPa) = 58.15854 61.69227 59.92540
# Shear Modulus (GPa) = 22.26678 23.79687 23.03182
#
# Velocity S-wave (km/s) = 3.72696 3.85289 3.79045
# Velocity P-wave (km/s) = 7.40272 7.63396 7.51923
#
# Compressibility (1/GPa) = 0.01719438
#
# Stress axis : x y z
#
# Youngs Moduli (GPa) = 79.45433 84.09101 59.40439
#
# Poissons Ratio (x) = 0.36396 0.31813
# Poissons Ratio (y) = 0.34389 0.14109
# Poissons Ratio (z) = 0.42551 0.19972
#
# Static dielectric constant tensor:
#      x y z
#    x 2.978830 0.000000 0.000000 
#    y 0.000000 3.345410 0.000000 
#    z 0.000000 0.000000 2.878760 
# 
# 
# High freq. dielectric constant tensor:
#      x y z
#    x 1.594100 0.000000 0.000000 
#    y 0.000000 1.641480 0.000000 
#    z 0.000000 0.000000 1.587240 
# 
# From -- ./inp_files/27670.got.cif
#   From: 2010.06.25/outbox.cif.g09.slc.cpg/sg71_14_cif.got.tgz:27670.got - 2010.06.28 04:59:45.
