data_PCOD8287345
_publ_section_title
;
Structure prediction by ZEFSAII (Michael W. Deem and Ramdas Pophale) SiO2 
 PCOD8287345
Probable space group: I M M M
;
_chemical_formula_sum "Si O2"
_cell_formula_units_Z 120
_cell_length_a 19.752300
_cell_length_b 27.913484
_cell_length_c 12.903237
_cell_angle_alpha 90.000000
_cell_angle_beta 90.000000
_cell_angle_gamma 90.000000
_cell_volume 7114.270817
_symmetry_space_group_name_H-M "I M M M"
_symmetry_group_IT_number 71
_symmetry_cell_setting 'orthorhombic'
loop_
_space_group_symop_operation_xyz
x,y,z
-x,-y,z
x,-y,-z
-x,y,-z
-x,-y,-z
x,y,-z
-x,y,z
x,-y,z
1/2+x,1/2+y,1/2+z
1/2-x,1/2-y,1/2+z
1/2+x,1/2-y,1/2-z
1/2-x,1/2+y,1/2-z
1/2-x,1/2-y,1/2-z
1/2+x,1/2+y,1/2-z
1/2-x,1/2+y,1/2+z
1/2+x,1/2-y,1/2+z
loop_
_atom_site_type_symbol
_atom_site_label
_atom_site_fract_x
_atom_site_fract_y
_atom_site_fract_z
Si Si1 0.000000 0.443108 0.622751
Si Si2 0.924293 0.718919 0.620576
Si Si3 0.662963 0.694537 0.876700
Si Si4 0.574027 0.391862 0.121548
Si Si5 0.258875 0.946302 0.113617
Si Si6 0.210910 0.362678 0.117237
Si Si7 0.876578 0.383034 0.690530
Si Si8 0.304476 0.553336 0.823703
O O1 0.063683 0.421695 0.684726
O O2 0.000000 0.500000 0.635231
O O3 0.000000 0.428805 0.500000
O O4 0.930089 0.729920 0.500000
O O5 0.867185 0.755224 0.667309
O O6 0.900206 0.665176 0.636155
O O7 0.000000 0.726510 0.669403
O O8 0.612824 0.654045 0.831803
O O9 0.740550 0.681496 0.842709
O O10 0.663025 0.693644 0.000000
O O11 0.500000 0.396066 0.173395
O O12 0.617169 0.439087 0.147788
O O13 0.565976 0.385879 0.000000
O O14 0.315357 0.905877 0.127033
O O15 0.201644 0.939052 0.199900
O O16 0.290863 0.000000 0.123306
O O17 0.225975 0.939496 0.000000
O O18 0.146297 0.370369 0.191783
O O19 0.256280 0.410622 0.114106
O O20 0.184528 0.353175 0.000000
O O21 0.282882 0.500000 0.856745
#
# Coordination Sequence:
#
# PCOD8287345 Si02
#       8
#     8  16  16  16  16  16  16  16
#     4  11  22  36  53  73 103 133 154 190 248 306
#     4  10  18  28  46  72 100 122 148 194 241 282
#     4   8  15  29  47  67  92 124 154 186 234 283
#     4   9  16  26  41  63  92 122 152 184 224 278
#     4   9  17  30  47  65  87 117 150 184 227 281
#     4   9  19  34  49  66  93 127 162 195 228 274
#     4  11  20  31  49  72  97 120 156 194 236 281
#     4   9  17  28  44  66  89 116 151 190 229 269
#
# _framework density 16.867505999999999
#
# number of rings (size 3 to 8) (size 9 to 14) (size 15 to 20)
#    0.000    2.600    0.667    3.200    0.000    5.067 
#    0.000    1.000    0.000    0.800    0.000    1.867 
#    0.000    4.533    0.000    0.000    0.000    0.000 
#
# Total GULP energy -743423.037762 kJ/mol
# GULP energy per Si atom -12390.383963 kJ/mol
# Density = 1.682911 g / cm^3
# Si number density = 16.867506 Si / 1000 Ang^3
#
#
#
# Elastic Constant Matrix: (Units=GPa)
#
#
# Indices 1 2 3 4 5 6 
#
# 1 81.7697 27.5097 24.9358 0.0000 0.0000 0.0000
# 2 27.5097 87.8260 10.7972 0.0000 0.0000 0.0000
# 3 24.9358 10.7972 52.4499 0.0000 0.0000 0.0002
# 4 0.0000 0.0000 0.0000 15.1519 0.0000 0.0001
# 5 0.0000 0.0000 0.0000 0.0000 19.8045 0.0001
# 6 0.0000 0.0000 0.0002 0.0001 0.0001 -66.5052
#
#
#
# Elastic Compliance Matrix: (Units=1/GPa)
#
#
# Indices 1 2 3 4 5 6 
#
# 1 0.015609 -0.004080 -0.006581 0.000000 0.000000 0.000000
# 2 -0.004080 0.012748 -0.000685 0.000000 0.000000 0.000000
# 3 -0.006581 -0.000685 0.022335 0.000000 0.000000 0.000000
# 4 0.000000 0.000000 0.000000 0.065998 0.000000 0.000000
# 5 0.000000 0.000000 0.000000 0.000000 0.050493 0.000000
# 6 0.000000 0.000000 0.000000 0.000000 0.000000 -0.015036
#
#
# Mechanical properties :
#
#
# Convention : Reuss Voigt Hill
#
# Bulk Modulus (GPa) = 35.71234 38.72568 37.21901
# Shear Modulus (GPa) = 27.14834 4.27709 15.71272
#
# Velocity S-wave (km/s) = 4.01622 1.59412 3.05542
# Velocity P-wave (km/s) = 6.53643 5.13779 5.87885
#
# Compressibility (1/GPa) = 0.02800153
#
# Stress axis : x y z
#
# Youngs Moduli (GPa) = 64.06547 78.44157 44.77181
#
# Poissons Ratio (x) = 0.32005 0.29464
# Poissons Ratio (y) = 0.26140 0.03065
# Poissons Ratio (z) = 0.42161 0.05370
#
# Static dielectric constant tensor:
#      x y z
#    x 3.270360 0.000000 0.000000 
#    y 0.000000 3.311340 0.000000 
#    z 0.000000 0.000000 2.943440 
# 
# 
# High freq. dielectric constant tensor:
#      x y z
#    x 1.638250 0.000000 0.000000 
#    y 0.000000 1.658840 0.000000 
#    z 0.000000 0.000000 1.613550 
# 
# From -- ./inp_files/26639.got.cif
#   From: 2010.06.25/outbox.cif.g09.slc.cpg/sg71_14_cif.got.tgz:26639.got - 2010.06.28 04:59:45.
