data_PCOD8287513
_publ_section_title
;
Structure prediction by ZEFSAII (Michael W. Deem and Ramdas Pophale) SiO2 
 PCOD8287513
Probable space group: I M M M
;
_chemical_formula_sum "Si O2"
_cell_formula_units_Z 88
_cell_length_a 31.286665
_cell_length_b 8.017283
_cell_length_c 18.513259
_cell_angle_alpha 90.000000
_cell_angle_beta 90.000000
_cell_angle_gamma 90.000000
_cell_volume 4643.755686
_symmetry_space_group_name_H-M "I M M M"
_symmetry_group_IT_number 71
_symmetry_cell_setting 'orthorhombic'
loop_
_space_group_symop_operation_xyz
x,y,z
-x,-y,z
x,-y,-z
-x,y,-z
-x,-y,-z
x,y,-z
-x,y,z
x,-y,z
1/2+x,1/2+y,1/2+z
1/2-x,1/2-y,1/2+z
1/2+x,1/2-y,1/2-z
1/2-x,1/2+y,1/2-z
1/2-x,1/2-y,1/2-z
1/2+x,1/2+y,1/2-z
1/2-x,1/2+y,1/2+z
1/2+x,1/2-y,1/2+z
loop_
_atom_site_type_symbol
_atom_site_label
_atom_site_fract_x
_atom_site_fract_y
_atom_site_fract_z
Si Si1 0.808620 0.500000 0.414666
Si Si2 0.952395 0.684991 0.698586
Si Si3 0.500000 0.699340 0.418382
Si Si4 0.165506 0.195869 0.916696
Si Si5 0.907661 0.500000 0.415285
Si Si6 0.742780 0.684308 0.914240
Si Si7 0.417358 0.691340 0.338798
O O1 0.801703 0.500000 0.500000
O O2 0.858143 0.500000 0.394513
O O3 0.787121 0.668340 0.381764
O O4 0.956129 0.500000 0.732839
O O5 0.929383 0.666430 0.619960
O O6 0.922989 0.792681 0.752336
O O7 0.000000 0.764156 0.689673
O O8 0.500000 0.500000 0.414165
O O9 0.500000 0.764170 0.500000
O O10 0.458305 0.773127 0.378250
O O11 0.208325 0.287683 0.890434
O O12 0.126899 0.270108 0.867745
O O13 0.173013 0.000000 0.905395
O O14 0.154791 0.235669 0.000000
O O15 0.916428 0.500000 0.500000
O O16 0.728075 0.500000 0.886556
O O17 0.739751 0.691365 0.000000
O O18 0.415162 0.500000 0.361420
#
# Coordination Sequence:
#
# PCOD8287513 Si02
#       7
#     8  16   8  16   8  16  16
#     4   9  16  31  54  79 110 135 170 225 280 338
#     4   9  19  34  53  76 101 134 169 212 261 338
#     4   9  16  26  43  71 105 144 190 230 257 291
#     4   9  16  27  44  72 107 146 193 234 260 295
#     4   9  19  36  61  84  96 126 167 216 279 341
#     4   9  16  27  47  76 107 143 182 222 274 324
#     4  10  18  29  49  74 104 144 185 222 264 309
#
# _framework density 18.950178000000001
#
# number of rings (size 3 to 8) (size 9 to 14) (size 15 to 20)
#    0.545    2.273    1.818    0.545    0.000    3.636 
#    0.000    0.909    0.000    4.909    0.000    1.273 
#    0.000    0.000    0.000    0.000    0.000    0.000 
#
# Total GULP energy -545182.026130 kJ/mol
# GULP energy per Si atom -12390.500594 kJ/mol
# Density = 1.890705 g / cm^3
# Si number density = 18.950178 Si / 1000 Ang^3
#
#
#
# Elastic Constant Matrix: (Units=GPa)
#
#
# Indices 1 2 3 4 5 6 
#
# 1 122.4034 42.5563 47.8289 0.0000 0.0000 0.0000
# 2 42.5563 64.9231 11.7102 0.0000 0.0000 0.0000
# 3 47.8289 11.7102 86.3184 0.0000 0.0000 0.0000
# 4 0.0000 0.0000 0.0000 21.4948 0.0000 0.0000
# 5 0.0000 0.0000 0.0000 0.0000 18.6252 0.0000
# 6 0.0000 0.0000 0.0000 0.0000 0.0000 15.5815
#
#
#
# Elastic Compliance Matrix: (Units=1/GPa)
#
#
# Indices 1 2 3 4 5 6 
#
# 1 0.013269 -0.007557 -0.006327 0.000000 0.000000 0.000000
# 2 -0.007557 0.020093 0.001461 0.000000 0.000000 0.000000
# 3 -0.006327 0.001461 0.014893 0.000000 0.000000 0.000000
# 4 0.000000 0.000000 0.000000 0.046523 0.000000 0.000000
# 5 0.000000 0.000000 0.000000 0.000000 0.053691 0.000000
# 6 0.000000 0.000000 0.000000 0.000000 0.000000 0.064179
#
#
# Mechanical properties :
#
#
# Convention : Reuss Voigt Hill
#
# Bulk Modulus (GPa) = 42.71815 53.09287 47.90551
# Shear Modulus (GPa) = 20.38359 22.57694 21.48026
#
# Velocity S-wave (km/s) = 3.28325 3.45539 3.37042
# Velocity P-wave (km/s) = 6.07983 6.63306 6.36246
#
# Compressibility (1/GPa) = 0.02340926
#
# Stress axis : x y z
#
# Youngs Moduli (GPa) = 75.36163 49.76974 67.14669
#
# Poissons Ratio (x) = 0.37609 0.42486
# Poissons Ratio (y) = 0.56948 -0.09812
# Poissons Ratio (z) = 0.47684 -0.07273
#
# Static dielectric constant tensor:
#      x y z
#    x 3.602160 0.000000 0.000000 
#    y 0.000000 3.300410 0.000000 
#    z 0.000000 0.000000 3.009320 
# 
# 
# High freq. dielectric constant tensor:
#      x y z
#    x 1.744740 0.000000 0.000000 
#    y 0.000000 1.710160 0.000000 
#    z 0.000000 0.000000 1.691590 
# 
# From -- ./inp_files/56607.got.cif
#   From: 2010.06.25/outbox.cif.g09.slc.cpg/sg71_29_cif.got.tgz:56607.got - 2010.06.28 04:59:45.
