data_PCOD8287555
_publ_section_title
;
Structure prediction by ZEFSAII (Michael W. Deem and Ramdas Pophale) SiO2 
 PCOD8287555
Probable space group: I M M M
;
_chemical_formula_sum "Si O2"
_cell_formula_units_Z 104
_cell_length_a 18.391406
_cell_length_b 19.112089
_cell_length_c 16.457845
_cell_angle_alpha 90.000000
_cell_angle_beta 90.000000
_cell_angle_gamma 90.000000
_cell_volume 5784.902701
_symmetry_space_group_name_H-M "I M M M"
_symmetry_group_IT_number 71
_symmetry_cell_setting 'orthorhombic'
loop_
_space_group_symop_operation_xyz
x,y,z
-x,-y,z
x,-y,-z
-x,y,-z
-x,-y,-z
x,y,-z
-x,y,z
x,-y,z
1/2+x,1/2+y,1/2+z
1/2-x,1/2-y,1/2+z
1/2+x,1/2-y,1/2-z
1/2-x,1/2+y,1/2-z
1/2-x,1/2-y,1/2-z
1/2+x,1/2+y,1/2-z
1/2-x,1/2+y,1/2+z
1/2+x,1/2-y,1/2+z
loop_
_atom_site_type_symbol
_atom_site_label
_atom_site_fract_x
_atom_site_fract_y
_atom_site_fract_z
Si Si1 0.082888 0.823622 0.825010
Si Si2 0.784254 0.418955 0.250482
Si Si3 0.081784 0.740688 0.410335
Si Si4 0.803616 0.079935 0.907473
Si Si5 0.917753 0.327053 0.243192
Si Si6 0.852970 0.867785 0.664626
Si Si7 0.078863 0.000000 0.593431
O O1 0.133557 0.862548 0.890771
O O2 0.104475 0.742167 0.808550
O O3 0.090739 0.862836 0.739353
O O4 0.000000 0.828888 0.855563
O O5 0.780521 0.500000 0.226224
O O6 0.763948 0.408281 0.345908
O O7 0.863529 0.390715 0.225647
O O8 0.728676 0.373346 0.197467
O O9 0.096773 0.708105 0.500000
O O10 0.089127 0.683347 0.340264
O O11 0.140430 0.801372 0.394398
O O12 0.000000 0.772805 0.406947
O O13 0.833580 0.000000 0.895647
O O14 0.776279 0.090710 0.000000
O O15 0.000000 0.349229 0.220347
O O16 0.872191 0.934737 0.613941
O O17 0.062568 0.000000 0.500000
O O18 0.000000 0.000000 0.638291
#
# Coordination Sequence:
#
# PCOD8287555 Si02
#       7
#    16  16  16  16  16  16   8
#     4   9  18  31  49  72  99 132 168 207 243 285
#     4  10  20  35  52  70  97 130 164 212 258 296
#     4   9  17  30  48  73 106 136 161 194 238 292
#     4   9  19  33  48  72 105 137 166 197 241 293
#     4   9  19  35  53  73  95 123 166 214 258 300
#     4  10  18  30  45  69 101 136 163 195 235 291
#     4  11  20  28  44  72 104 136 164 189 222 274
#
# _framework density 17.977830999999998
#
# number of rings (size 3 to 8) (size 9 to 14) (size 15 to 20)
#    0.000    2.538    0.769    2.769    1.077    8.308 
#    0.000    0.769    0.000    0.923    0.000    4.308 
#    0.000    0.615    0.000    0.000    0.000    0.000 
#
# Total GULP energy -644431.904745 kJ/mol
# GULP energy per Si atom -12392.921245 kJ/mol
# Density = 1.793691 g / cm^3
# Si number density = 17.977831 Si / 1000 Ang^3
#
#
#
# Elastic Constant Matrix: (Units=GPa)
#
#
# Indices 1 2 3 4 5 6 
#
# 1 91.5210 37.7229 16.8218 0.0000 0.0000 0.0000
# 2 37.7229 46.6963 8.3961 0.0000 0.0000 0.0000
# 3 16.8218 8.3961 47.5887 0.0000 0.0000 0.0000
# 4 0.0000 0.0000 0.0000 26.2712 0.0000 0.0000
# 5 0.0000 0.0000 0.0000 0.0000 15.0291 0.0000
# 6 0.0000 0.0000 0.0000 0.0000 0.0000 35.5310
#
#
#
# Elastic Compliance Matrix: (Units=1/GPa)
#
#
# Indices 1 2 3 4 5 6 
#
# 1 0.016989 -0.013059 -0.003701 0.000000 0.000000 0.000000
# 2 -0.013059 0.032155 -0.001057 0.000000 0.000000 0.000000
# 3 -0.003701 -0.001057 0.022508 0.000000 0.000000 0.000000
# 4 0.000000 0.000000 0.000000 0.038065 0.000000 0.000000
# 5 0.000000 0.000000 0.000000 0.000000 0.066538 0.000000
# 6 0.000000 0.000000 0.000000 0.000000 0.000000 0.028144
#
#
# Mechanical properties :
#
#
# Convention : Reuss Voigt Hill
#
# Bulk Modulus (GPa) = 27.76438 34.63198 31.19818
# Shear Modulus (GPa) = 19.83813 23.55727 21.69770
#
# Velocity S-wave (km/s) = 3.32547 3.62380 3.47784
# Velocity P-wave (km/s) = 5.49747 6.06752 5.78952
#
# Compressibility (1/GPa) = 0.03601738
#
# Stress axis : x y z
#
# Youngs Moduli (GPa) = 58.85995 31.09972 44.42816
#
# Poissons Ratio (x) = 0.40614 0.16445
# Poissons Ratio (y) = 0.76866 0.04695
# Poissons Ratio (z) = 0.21787 0.03287
#
# Static dielectric constant tensor:
#      x y z
#    x 3.179370 0.000000 0.000000 
#    y 0.000000 3.145940 0.000000 
#    z 0.000000 0.000000 3.243160 
# 
# 
# High freq. dielectric constant tensor:
#      x y z
#    x 1.682100 0.000000 0.000000 
#    y 0.000000 1.680790 0.000000 
#    z 0.000000 0.000000 1.680080 
# 
# From -- ./inp_files/44945.got.cif
#   From: 2010.06.25/outbox.cif.g09.slc.cpg/sg71_23_cif.got.tgz:44945.got - 2010.06.28 04:59:45.
