data_PCOD8287394
_publ_section_title
;
Structure prediction by ZEFSAII (Michael W. Deem and Ramdas Pophale) SiO2 
 PCOD8287394
Probable space group: I M M M
;
_chemical_formula_sum "Si O2"
_cell_formula_units_Z 120
_cell_length_a 23.127802
_cell_length_b 19.415584
_cell_length_c 14.447479
_cell_angle_alpha 90.000000
_cell_angle_beta 90.000000
_cell_angle_gamma 90.000000
_cell_volume 6487.492827
_symmetry_space_group_name_H-M "I M M M"
_symmetry_group_IT_number 71
_symmetry_cell_setting 'orthorhombic'
loop_
_space_group_symop_operation_xyz
x,y,z
-x,-y,z
x,-y,-z
-x,y,-z
-x,-y,-z
x,y,-z
-x,y,z
x,-y,z
1/2+x,1/2+y,1/2+z
1/2-x,1/2-y,1/2+z
1/2+x,1/2-y,1/2-z
1/2-x,1/2+y,1/2-z
1/2-x,1/2-y,1/2-z
1/2+x,1/2+y,1/2-z
1/2-x,1/2+y,1/2+z
1/2+x,1/2-y,1/2+z
loop_
_atom_site_type_symbol
_atom_site_label
_atom_site_fract_x
_atom_site_fract_y
_atom_site_fract_z
Si Si1 0.937104 0.582407 0.000000
Si Si2 0.769112 0.655953 0.895632
Si Si3 0.713886 0.682927 0.603486
Si Si4 0.845600 0.828491 0.294402
Si Si5 0.870019 0.577689 0.171421
Si Si6 0.157899 0.691256 0.601828
Si Si7 0.432340 0.578890 0.894724
Si Si8 0.067369 0.578271 0.640011
O O1 0.904052 0.612006 0.912538
O O2 0.940602 0.500000 0.000000
O O3 0.000000 0.615650 0.000000
O O4 0.783309 0.735500 0.894819
O O5 0.705082 0.642365 0.858977
O O6 0.811029 0.620235 0.819992
O O7 0.775400 0.625254 0.000000
O O8 0.693337 0.657802 0.500000
O O9 0.670098 0.660403 0.685439
O O10 0.779538 0.656326 0.624177
O O11 0.857756 0.748068 0.320192
O O12 0.901657 0.873057 0.318800
O O13 0.851432 0.500000 0.151034
O O14 0.914944 0.582517 0.253930
O O15 0.162706 0.727148 0.500000
O O16 0.108920 0.632562 0.589894
O O17 0.500000 0.588098 0.878153
O O18 0.413809 0.500000 0.878022
O O19 0.416531 0.600900 0.000000
O O20 0.077013 0.500000 0.602650
O O21 0.000000 0.598829 0.627165
#
# Coordination Sequence:
#
# PCOD8287394 Si02
#       8
#     8  16  16  16  16  16  16  16
#     4   9  16  26  40  58  86 128 173 211 246 289
#     4  10  18  29  47  74 105 135 170 214 267 314
#     4   9  19  34  53  76 104 138 168 206 260 311
#     4  11  19  33  57  81 105 135 173 211 250 310
#     4  10  18  29  44  67  99 134 173 217 260 307
#     4  10  20  35  54  76 103 135 175 216 261 313
#     4   9  19  36  56  81 113 141 163 197 255 318
#     4  10  21  35  50  69  98 139 183 224 266 307
#
# _framework density 18.497129999999999
#
# number of rings (size 3 to 8) (size 9 to 14) (size 15 to 20)
#    0.000    2.200    0.667    6.000    0.000    3.200 
#    0.000    1.333    0.000    1.600    0.000    0.933 
#    0.000    0.000    0.000    0.000    0.000    0.000 
#
# Total GULP energy -743491.021827 kJ/mol
# GULP energy per Si atom -12391.517030 kJ/mol
# Density = 1.845503 g / cm^3
# Si number density = 18.497130 Si / 1000 Ang^3
#
#
#
# Elastic Constant Matrix: (Units=GPa)
#
#
# Indices 1 2 3 4 5 6 
#
# 1 92.8783 47.0892 38.2661 0.0000 0.0000 0.0000
# 2 47.0892 50.5271 29.1092 0.0000 0.0000 0.0000
# 3 38.2661 29.1092 113.4537 0.0000 0.0000 0.0000
# 4 0.0000 0.0000 0.0000 21.5071 0.0000 0.0000
# 5 0.0000 0.0000 0.0000 0.0000 21.0942 0.0000
# 6 0.0000 0.0000 0.0000 0.0000 0.0000 34.0868
#
#
#
# Elastic Compliance Matrix: (Units=1/GPa)
#
#
# Indices 1 2 3 4 5 6 
#
# 1 0.020960 -0.018143 -0.002414 0.000000 0.000000 0.000000
# 2 -0.018143 0.038929 -0.003869 0.000000 0.000000 0.000000
# 3 -0.002414 -0.003869 0.010621 0.000000 0.000000 0.000000
# 4 0.000000 0.000000 0.000000 0.046496 0.000000 0.000000
# 5 0.000000 0.000000 0.000000 0.000000 0.047406 0.000000
# 6 0.000000 0.000000 0.000000 0.000000 0.000000 0.029337
#
#
# Mechanical properties :
#
#
# Convention : Reuss Voigt Hill
#
# Bulk Modulus (GPa) = 46.17325 53.97644 50.07484
# Shear Modulus (GPa) = 20.01436 24.83059 22.42248
#
# Velocity S-wave (km/s) = 3.29298 3.66786 3.48546
# Velocity P-wave (km/s) = 6.28291 6.86891 6.58243
#
# Compressibility (1/GPa) = 0.02165756
#
# Stress axis : x y z
#
# Youngs Moduli (GPa) = 47.70999 25.68807 94.15171
#
# Poissons Ratio (x) = 0.46605 0.22733
# Poissons Ratio (y) = 0.86559 0.36425
# Poissons Ratio (z) = 0.11520 0.09938
#
# Static dielectric constant tensor:
#      x y z
#    x 3.461000 0.000000 0.000000 
#    y 0.000000 3.157670 0.000000 
#    z 0.000000 0.000000 3.448950 
# 
# 
# High freq. dielectric constant tensor:
#      x y z
#    x 1.711600 0.000000 0.000000 
#    y 0.000000 1.683850 0.000000 
#    z 0.000000 0.000000 1.725580 
# 
# From -- ./inp_files/38414.got.cif
#   From: 2010.06.25/outbox.cif.g09.slc.cpg/sg71_20_cif.got.tgz:38414.got - 2010.06.28 04:59:45.
