data_PCOD8287369
_publ_section_title
;
Structure prediction by ZEFSAII (Michael W. Deem and Ramdas Pophale) SiO2 
 PCOD8287369
Probable space group: I M M M
;
_chemical_formula_sum "Si O2"
_cell_formula_units_Z 88
_cell_length_a 19.958595
_cell_length_b 9.031242
_cell_length_c 26.975598
_cell_angle_alpha 90.000000
_cell_angle_beta 90.000000
_cell_angle_gamma 90.000000
_cell_volume 4862.375856
_symmetry_space_group_name_H-M "I M M M"
_symmetry_group_IT_number 71
_symmetry_cell_setting 'orthorhombic'
loop_
_space_group_symop_operation_xyz
x,y,z
-x,-y,z
x,-y,-z
-x,y,-z
-x,-y,-z
x,y,-z
-x,y,z
x,-y,z
1/2+x,1/2+y,1/2+z
1/2-x,1/2-y,1/2+z
1/2+x,1/2-y,1/2-z
1/2-x,1/2+y,1/2-z
1/2-x,1/2-y,1/2-z
1/2+x,1/2+y,1/2-z
1/2-x,1/2+y,1/2+z
1/2+x,1/2-y,1/2+z
loop_
_atom_site_type_symbol
_atom_site_label
_atom_site_fract_x
_atom_site_fract_y
_atom_site_fract_z
Si Si1 0.133586 0.827006 0.557603
Si Si2 0.224901 0.327367 0.366429
Si Si3 0.000000 0.673096 0.828069
Si Si4 0.000000 0.833276 0.727126
Si Si5 0.145064 0.168730 0.715682
Si Si6 0.868313 0.171227 0.169988
Si Si7 0.000000 0.666656 0.441100
O O1 0.145765 0.792532 0.500000
O O2 0.196643 0.763530 0.587256
O O3 0.066101 0.750441 0.577880
O O4 0.126573 0.000000 0.567992
O O5 0.210565 0.500000 0.374349
O O6 0.191536 0.278522 0.314869
O O7 0.303967 0.293513 0.363745
O O8 0.931789 0.739184 0.851906
O O9 0.000000 0.500000 0.836970
O O10 0.000000 0.712475 0.770256
O O11 0.068120 0.813905 0.695455
O O12 0.000000 0.000000 0.750819
O O13 0.147962 0.215849 0.773196
O O14 0.170000 0.000000 0.708196
O O15 0.887473 0.000000 0.168101
O O16 0.000000 0.500000 0.419839
O O17 0.000000 0.666816 0.500000
#
# Coordination Sequence:
#
# PCOD8287369 Si02
#       7
#    16  16   8   8  16  16   8
#     4  10  21  37  55  74  99 132 167 204 249 297
#     4  11  22  33  49  74 101 131 166 204 247 292
#     4  10  18  28  49  75  95 122 163 208 244 282
#     4   8  16  31  47  64  93 135 172 201 242 289
#     4   9  17  31  49  68  97 135 170 204 241 287
#     4   9  19  35  51  69  99 136 166 196 242 296
#     4   9  17  32  55  78  99 126 164 210 251 288
#
# _framework density 18.098147000000001
#
# number of rings (size 3 to 8) (size 9 to 14) (size 15 to 20)
#    0.000    2.455    0.000    3.818    0.000    7.273 
#    0.000    2.727    0.000    0.000    0.000    0.636 
#    0.000    5.091    0.000    0.000    0.000    0.000 
#
# Total GULP energy -545496.958649 kJ/mol
# GULP energy per Si atom -12397.658151 kJ/mol
# Density = 1.805696 g / cm^3
# Si number density = 18.098147 Si / 1000 Ang^3
#
#
#
# Elastic Constant Matrix: (Units=GPa)
#
#
# Indices 1 2 3 4 5 6 
#
# 1 134.5047 69.5736 41.2602 0.0000 0.0000 0.0000
# 2 69.5736 107.7152 37.8667 0.0000 0.0000 0.0000
# 3 41.2602 37.8667 49.2645 0.0000 0.0000 0.0000
# 4 0.0000 0.0000 0.0000 23.9150 0.0000 0.0000
# 5 0.0000 0.0000 0.0000 0.0000 15.0462 0.0000
# 6 0.0000 0.0000 0.0000 0.0000 0.0000 29.3948
#
#
#
# Elastic Compliance Matrix: (Units=1/GPa)
#
#
# Indices 1 2 3 4 5 6 
#
# 1 0.012238 -0.005894 -0.005719 0.000000 0.000000 0.000000
# 2 -0.005894 0.015560 -0.007024 0.000000 0.000000 0.000000
# 3 -0.005719 -0.007024 0.030487 0.000000 0.000000 0.000000
# 4 0.000000 0.000000 0.000000 0.041815 0.000000 0.000000
# 5 0.000000 0.000000 0.000000 0.000000 0.066462 0.000000
# 6 0.000000 0.000000 0.000000 0.000000 0.000000 0.034020
#
#
# Mechanical properties :
#
#
# Convention : Reuss Voigt Hill
#
# Bulk Modulus (GPa) = 47.59316 65.43172 56.51244
# Shear Modulus (GPa) = 20.42000 23.19011 21.80505
#
# Velocity S-wave (km/s) = 3.36265 3.58348 3.47482
# Velocity P-wave (km/s) = 6.43668 7.30439 6.88422
#
# Compressibility (1/GPa) = 0.02101142
#
# Stress axis : x y z
#
# Youngs Moduli (GPa) = 81.71465 64.26861 32.80073
#
# Poissons Ratio (x) = 0.37879 0.18759
# Poissons Ratio (y) = 0.48161 0.23038
# Poissons Ratio (z) = 0.46734 0.45140
#
# Static dielectric constant tensor:
#      x y z
#    x 3.636710 0.000000 0.000000 
#    y 0.000000 3.327570 0.000000 
#    z 0.000000 0.000000 2.914440 
# 
# 
# High freq. dielectric constant tensor:
#      x y z
#    x 1.711850 0.000000 0.000000 
#    y 0.000000 1.705810 0.000000 
#    z 0.000000 0.000000 1.650060 
# 
# From -- ./inp_files/70421.got.cif
#   From: 2010.06.25/outbox.cif.g09.slc.cpg/sg71_36_cif.got.tgz:70421.got - 2010.06.28 04:59:45.
