data_PCOD8287194
_publ_section_title
;
Structure prediction by ZEFSAII (Michael W. Deem and Ramdas Pophale) SiO2 
 PCOD8287194
Probable space group: I M M M
;
_chemical_formula_sum "Si O2"
_cell_formula_units_Z 80
_cell_length_a 25.062569
_cell_length_b 20.754361
_cell_length_c 9.027684
_cell_angle_alpha 90.000000
_cell_angle_beta 90.000000
_cell_angle_gamma 90.000000
_cell_volume 4695.818485
_symmetry_space_group_name_H-M "I M M M"
_symmetry_group_IT_number 71
_symmetry_cell_setting 'orthorhombic'
loop_
_space_group_symop_operation_xyz
x,y,z
-x,-y,z
x,-y,-z
-x,y,-z
-x,-y,-z
x,y,-z
-x,y,z
x,-y,z
1/2+x,1/2+y,1/2+z
1/2-x,1/2-y,1/2+z
1/2+x,1/2-y,1/2-z
1/2-x,1/2+y,1/2-z
1/2-x,1/2-y,1/2-z
1/2+x,1/2+y,1/2-z
1/2-x,1/2+y,1/2+z
1/2+x,1/2-y,1/2+z
loop_
_atom_site_type_symbol
_atom_site_label
_atom_site_fract_x
_atom_site_fract_y
_atom_site_fract_z
Si Si1 0.115075 0.273695 0.333371
Si Si2 0.000000 0.127612 0.826402
Si Si3 0.500000 0.239710 0.830045
Si Si4 0.717848 0.807635 0.675119
Si Si5 0.104985 0.121616 0.329279
Si Si6 0.783462 0.928913 0.324047
O O1 0.134375 0.289046 0.500000
O O2 0.054609 0.301276 0.306611
O O3 0.155740 0.306769 0.220028
O O4 0.113735 0.197509 0.306810
O O5 0.053543 0.095700 0.759592
O O6 0.000000 0.202768 0.786496
O O7 0.000000 0.117162 0.000000
O O8 0.500000 0.267751 0.000000
O O9 0.723510 0.800170 0.500000
O O10 0.750000 0.750000 0.750000
O O11 0.741722 0.875458 0.732904
O O12 0.095729 0.104393 0.500000
O O13 0.157226 0.086413 0.264295
O O14 0.785144 0.926341 0.500000
O O15 0.765952 0.000000 0.267868
#
# Coordination Sequence:
#
# PCOD8287194 Si02
#       6
#    16   8   8  16  16  16
#     4   9  16  29  48  72  96 124 157 195 239 282
#     4  10  18  26  41  67  94 122 157 199 242 280
#     4   8  16  30  46  65  96 129 158 191 232 281
#     4  11  20  31  49  74  99 125 158 199 242 286
#     4   9  16  30  48  65  89 124 163 199 235 278
#     4   9  18  33  51  69  91 124 167 205 234 276
#
# _framework density 17.036434
#
# number of rings (size 3 to 8) (size 9 to 14) (size 15 to 20)
#    0.000    2.600    2.000    2.700    0.000    3.200 
#    0.000    0.500    0.000    8.400    0.000    0.700 
#    0.000    5.600    0.000    0.000    0.000    0.000 
#
# Total GULP energy -495743.599469 kJ/mol
# GULP energy per Si atom -12393.589987 kJ/mol
# Density = 1.699766 g / cm^3
# Si number density = 17.036434 Si / 1000 Ang^3
#
#
#
# Elastic Constant Matrix: (Units=GPa)
#
#
# Indices 1 2 3 4 5 6 
#
# 1 141.1215 57.4093 40.6150 0.0000 0.0000 0.0000
# 2 57.4093 80.8443 27.5650 0.0000 0.0000 0.0000
# 3 40.6150 27.5650 62.1285 0.0000 0.0000 0.0000
# 4 0.0000 0.0000 0.0000 12.2989 0.0000 0.0000
# 5 0.0000 0.0000 0.0000 0.0000 30.9381 0.0000
# 6 0.0000 0.0000 0.0000 0.0000 0.0000 16.6194
#
#
#
# Elastic Compliance Matrix: (Units=1/GPa)
#
#
# Indices 1 2 3 4 5 6 
#
# 1 0.010874 -0.006243 -0.004339 0.000000 0.000000 0.000000
# 2 -0.006243 0.018158 -0.003975 0.000000 0.000000 0.000000
# 3 -0.004339 -0.003975 0.020696 0.000000 0.000000 0.000000
# 4 0.000000 0.000000 0.000000 0.081308 0.000000 0.000000
# 5 0.000000 0.000000 0.000000 0.000000 0.032323 0.000000
# 6 0.000000 0.000000 0.000000 0.000000 0.000000 0.060171
#
#
# Mechanical properties :
#
#
# Convention : Reuss Voigt Hill
#
# Bulk Modulus (GPa) = 48.51027 59.47476 53.99251
# Shear Modulus (GPa) = 19.26663 22.53826 20.90245
#
# Velocity S-wave (km/s) = 3.36655 3.64118 3.50655
# Velocity P-wave (km/s) = 6.60664 7.25697 6.93943
#
# Compressibility (1/GPa) = 0.02061419
#
# Stress axis : x y z
#
# Youngs Moduli (GPa) = 91.95826 55.07222 48.31837
#
# Poissons Ratio (x) = 0.34380 0.20966
# Poissons Ratio (y) = 0.57407 0.19208
# Poissons Ratio (z) = 0.39902 0.21893
#
# Static dielectric constant tensor:
#      x y z
#    x 3.681060 0.000000 0.000000 
#    y 0.000000 2.939590 0.000000 
#    z 0.000000 0.000000 2.972060 
# 
# 
# High freq. dielectric constant tensor:
#      x y z
#    x 1.674840 0.000000 0.000000 
#    y 0.000000 1.605190 0.000000 
#    z 0.000000 0.000000 1.636000 
# 
# From -- ./inp_files/12384.got.cif
#   From: 2010.06.25/outbox.cif.g09.slc.cpg/sg71_7_cif.got.tgz:12384.got - 2010.06.28 04:59:45.
