data_PCOD8287232
_publ_section_title
;
Structure prediction by ZEFSAII (Michael W. Deem and Ramdas Pophale) SiO2 
 PCOD8287232
Probable space group: I M M M
;
_chemical_formula_sum "Si O2"
_cell_formula_units_Z 72
_cell_length_a 7.651673
_cell_length_b 14.684250
_cell_length_c 37.125543
_cell_angle_alpha 90.000000
_cell_angle_beta 90.000000
_cell_angle_gamma 90.000000
_cell_volume 4171.391828
_symmetry_space_group_name_H-M "I M M M"
_symmetry_group_IT_number 71
_symmetry_cell_setting 'orthorhombic'
loop_
_space_group_symop_operation_xyz
x,y,z
-x,-y,z
x,-y,-z
-x,y,-z
-x,-y,-z
x,y,-z
-x,y,z
x,-y,z
1/2+x,1/2+y,1/2+z
1/2-x,1/2-y,1/2+z
1/2+x,1/2-y,1/2-z
1/2-x,1/2+y,1/2-z
1/2-x,1/2-y,1/2-z
1/2+x,1/2+y,1/2-z
1/2-x,1/2+y,1/2+z
1/2+x,1/2-y,1/2+z
loop_
_atom_site_type_symbol
_atom_site_label
_atom_site_fract_x
_atom_site_fract_y
_atom_site_fract_z
Si Si1 0.196017 0.278752 0.160463
Si Si2 0.000000 0.892624 0.539844
Si Si3 0.701451 0.604309 0.225089
Si Si4 0.709002 0.399779 0.693960
Si Si5 0.204382 0.393850 0.905957
O O1 0.191297 0.334320 0.197565
O O2 0.284702 0.179250 0.167573
O O3 0.280929 0.336356 0.127998
O O4 0.000000 0.260321 0.148119
O O5 0.822613 0.862544 0.560331
O O6 0.000000 0.847645 0.500000
O O7 0.000000 0.000000 0.535968
O O8 0.500000 0.632405 0.222149
O O9 0.728927 0.500000 0.213908
O O10 0.774344 0.620208 0.265421
O O11 0.500000 0.398538 0.694665
O O12 0.774969 0.500000 0.681244
O O13 0.233616 0.500000 0.896808
O O14 0.000000 0.375126 0.914595
#
# Coordination Sequence:
#
# PCOD8287232 Si02
#       5
#    16   8  16  16  16
#     4  10  18  27  42  62  84 112 145 184 230 269
#     4   9  18  32  50  70  93 125 153 171 212 274
#     4   9  17  27  40  58  80 112 151 186 223 267
#     4   8  15  28  42  57  80 111 150 191 227 266
#     4   9  18  30  44  68  97 119 147 185 219 260
#
# _framework density 17.260425999999999
#
# number of rings (size 3 to 8) (size 9 to 14) (size 15 to 20)
#    0.000    3.000    0.000    2.667    1.556    1.778 
#    0.000    2.222    0.000    2.000    0.000    0.000 
#    0.000    1.778    0.000    8.667    0.000    0.222 
#
# Total GULP energy -446046.493750 kJ/mol
# GULP energy per Si atom -12390.180382 kJ/mol
# Density = 1.722114 g / cm^3
# Si number density = 17.260426 Si / 1000 Ang^3
#
#
#
# Elastic Constant Matrix: (Units=GPa)
#
#
# Indices 1 2 3 4 5 6 
#
# 1 45.2968 23.0203 31.6733 0.0000 0.0000 0.0000
# 2 23.0203 95.4069 71.4582 0.0000 0.0000 0.0000
# 3 31.6733 71.4582 116.9274 0.0000 0.0000 0.0000
# 4 0.0000 0.0000 0.0000 16.4434 0.0000 0.0000
# 5 0.0000 0.0000 0.0000 0.0000 19.3528 0.0000
# 6 0.0000 0.0000 0.0000 0.0000 0.0000 8.3591
#
#
#
# Elastic Compliance Matrix: (Units=1/GPa)
#
#
# Indices 1 2 3 4 5 6 
#
# 1 0.027429 -0.001942 -0.006243 0.000000 0.000000 0.000000
# 2 -0.001942 0.019466 -0.011370 0.000000 0.000000 0.000000
# 3 -0.006243 -0.011370 0.017192 0.000000 0.000000 0.000000
# 4 0.000000 0.000000 0.000000 0.060815 0.000000 0.000000
# 5 0.000000 0.000000 0.000000 0.000000 0.051672 0.000000
# 6 0.000000 0.000000 0.000000 0.000000 0.000000 0.119630
#
#
# Mechanical properties :
#
#
# Convention : Reuss Voigt Hill
#
# Bulk Modulus (GPa) = 40.03807 56.65941 48.34874
# Shear Modulus (GPa) = 14.55008 17.59635 16.07321
#
# Velocity S-wave (km/s) = 2.90655 3.19637 3.05490
# Velocity P-wave (km/s) = 5.87459 6.82054 6.36516
#
# Compressibility (1/GPa) = 0.02497623
#
# Stress axis : x y z
#
# Youngs Moduli (GPa) = 36.45766 51.37088 58.16598
#
# Poissons Ratio (x) = 0.09978 0.36313
# Poissons Ratio (y) = 0.07082 0.66137
# Poissons Ratio (z) = 0.22760 0.58410
#
# Static dielectric constant tensor:
#      x y z
#    x 3.020490 0.000000 0.000000 
#    y 0.000000 3.449490 0.000000 
#    z 0.000000 0.000000 3.194830 
# 
# 
# High freq. dielectric constant tensor:
#      x y z
#    x 1.656090 0.000000 0.000000 
#    y 0.000000 1.652060 0.000000 
#    z 0.000000 0.000000 1.628850 
# 
# From -- ./inp_files/6042.got.cif
#   From: 2010.06.25/outbox.cif.g09.slc.cpg/sg71_4_cif.got.tgz:6042.got - 2010.06.28 04:59:45.
