data_PCOD8287321
_publ_section_title
;
Structure prediction by ZEFSAII (Michael W. Deem and Ramdas Pophale) SiO2 
 PCOD8287321
Probable space group: I M M M
;
_chemical_formula_sum "Si O2"
_cell_formula_units_Z 104
_cell_length_a 29.244402
_cell_length_b 22.564185
_cell_length_c 9.695645
_cell_angle_alpha 90.000000
_cell_angle_beta 90.000000
_cell_angle_gamma 90.000000
_cell_volume 6397.924380
_symmetry_space_group_name_H-M "I M M M"
_symmetry_group_IT_number 71
_symmetry_cell_setting 'orthorhombic'
loop_
_space_group_symop_operation_xyz
x,y,z
-x,-y,z
x,-y,-z
-x,y,-z
-x,-y,-z
x,y,-z
-x,y,z
x,-y,z
1/2+x,1/2+y,1/2+z
1/2-x,1/2-y,1/2+z
1/2+x,1/2-y,1/2-z
1/2-x,1/2+y,1/2-z
1/2-x,1/2-y,1/2-z
1/2+x,1/2+y,1/2-z
1/2-x,1/2+y,1/2+z
1/2+x,1/2-y,1/2+z
loop_
_atom_site_type_symbol
_atom_site_label
_atom_site_fract_x
_atom_site_fract_y
_atom_site_fract_z
Si Si1 0.947452 0.227568 0.658745
Si Si2 0.627340 0.932081 0.659805
Si Si3 0.208784 0.429605 0.347607
Si Si4 0.949165 0.000000 0.663465
Si Si5 0.688984 0.431342 0.338740
Si Si6 0.552244 0.838174 0.659451
Si Si7 0.390827 0.388541 0.162034
O O1 0.941067 0.245712 0.500000
O O2 0.931340 0.282453 0.751257
O O3 0.916178 0.172179 0.698031
O O4 0.000000 0.210387 0.689420
O O5 0.639596 0.926332 0.500000
O O6 0.670940 0.905804 0.741291
O O7 0.582575 0.894841 0.699445
O O8 0.617087 0.000000 0.701011
O O9 0.196650 0.405281 0.500000
O O10 0.208932 0.500000 0.349893
O O11 0.259634 0.408941 0.304761
O O12 0.922867 0.058196 0.714807
O O13 0.952772 0.000000 0.500000
O O14 0.000000 0.000000 0.728144
O O15 0.678076 0.422673 0.500000
O O16 0.682698 0.500000 0.296617
O O17 0.656157 0.390583 0.246745
O O18 0.558278 0.820928 0.500000
O O19 0.500000 0.855152 0.693774
O O20 0.380045 0.394237 0.000000
#
# Coordination Sequence:
#
# PCOD8287321 Si02
#       7
#    16  16  16   8  16  16  16
#     4   9  18  32  48  66  89 120 159 196 227 264
#     4   9  17  29  47  73  99 120 146 183 225 266
#     4   8  15  28  45  65  91 124 154 180 220 275
#     4   9  16  26  41  63  91 119 147 185 234 279
#     4   9  17  29  44  64  93 124 152 186 231 279
#     4   9  18  32  49  69  94 124 154 182 219 270
#     4  10  18  28  45  68  90 117 155 196 234 272
#
# _framework density 16.255272000000001
#
# number of rings (size 3 to 8) (size 9 to 14) (size 15 to 20)
#    0.000    3.000    0.769    1.385    0.000    4.000 
#    0.000    3.077    0.000    2.769    0.000    4.308 
#    0.000    0.000    0.000    0.000    0.000    0.000 
#
# Total GULP energy -644730.707276 kJ/mol
# GULP energy per Si atom -12398.667448 kJ/mol
# Density = 1.621827 g / cm^3
# Si number density = 16.255272 Si / 1000 Ang^3
#
#
#
# Elastic Constant Matrix: (Units=GPa)
#
#
# Indices 1 2 3 4 5 6 
#
# 1 123.9834 64.7502 63.1968 0.0000 0.0000 0.0000
# 2 64.7502 86.3836 49.9922 0.0000 0.0000 0.0000
# 3 63.1968 49.9922 63.0671 0.0000 0.0000 0.0000
# 4 0.0000 0.0000 0.0000 23.7297 0.0000 0.0000
# 5 0.0000 0.0000 0.0000 0.0000 28.3725 0.0000
# 6 0.0000 0.0000 0.0000 0.0000 0.0000 18.1569
#
#
#
# Elastic Compliance Matrix: (Units=1/GPa)
#
#
# Indices 1 2 3 4 5 6 
#
# 1 0.017837 -0.005591 -0.013442 0.000000 0.000000 0.000000
# 2 -0.005591 0.023140 -0.012740 0.000000 0.000000 0.000000
# 3 -0.013442 -0.012740 0.039425 0.000000 0.000000 0.000000
# 4 0.000000 0.000000 0.000000 0.042141 0.000000 0.000000
# 5 0.000000 0.000000 0.000000 0.000000 0.035245 0.000000
# 6 0.000000 0.000000 0.000000 0.000000 0.000000 0.055076
#
#
# Mechanical properties :
#
#
# Convention : Reuss Voigt Hill
#
# Bulk Modulus (GPa) = 59.32764 69.92362 64.62563
# Shear Modulus (GPa) = 17.72865 20.41815 19.07340
#
# Velocity S-wave (km/s) = 3.30607 3.54799 3.42916
# Velocity P-wave (km/s) = 7.15193 7.73910 7.45130
#
# Compressibility (1/GPa) = 0.01685555
#
# Stress axis : x y z
#
# Youngs Moduli (GPa) = 56.06308 43.21486 25.36470
#
# Poissons Ratio (x) = 0.24161 0.34095
# Poissons Ratio (y) = 0.31344 0.32316
# Poissons Ratio (z) = 0.75360 0.55058
#
# Static dielectric constant tensor:
#      x y z
#    x 3.198820 0.000000 0.000000 
#    y 0.000000 2.858880 0.000000 
#    z 0.000000 0.000000 3.057390 
# 
# 
# High freq. dielectric constant tensor:
#      x y z
#    x 1.629090 0.000000 0.000000 
#    y 0.000000 1.596850 0.000000 
#    z 0.000000 0.000000 1.618240 
# 
# From -- ./inp_files/17261.got.cif
#   From: 2010.06.25/outbox.cif.g09.slc.cpg/sg71_9_cif.got.tgz:17261.got - 2010.06.28 04:59:45.
