data_PCOD8287783
_publ_section_title
;
Structure prediction by ZEFSAII (Michael W. Deem and Ramdas Pophale) SiO2 
 PCOD8287783
Probable space group: I M M M
;
_chemical_formula_sum "Si O2"
_cell_formula_units_Z 96
_cell_length_a 11.960263
_cell_length_b 19.986932
_cell_length_c 22.558642
_cell_angle_alpha 90.000000
_cell_angle_beta 90.000000
_cell_angle_gamma 90.000000
_cell_volume 5392.619983
_symmetry_space_group_name_H-M "I M M M"
_symmetry_group_IT_number 71
_symmetry_cell_setting 'orthorhombic'
loop_
_space_group_symop_operation_xyz
x,y,z
-x,-y,z
x,-y,-z
-x,y,-z
-x,-y,-z
x,y,-z
-x,y,z
x,-y,z
1/2+x,1/2+y,1/2+z
1/2-x,1/2-y,1/2+z
1/2+x,1/2-y,1/2-z
1/2-x,1/2+y,1/2-z
1/2-x,1/2-y,1/2-z
1/2+x,1/2+y,1/2-z
1/2-x,1/2+y,1/2+z
1/2+x,1/2-y,1/2+z
loop_
_atom_site_type_symbol
_atom_site_label
_atom_site_fract_x
_atom_site_fract_y
_atom_site_fract_z
Si Si1 0.126902 0.078967 0.233339
Si Si2 0.879825 0.811899 0.067789
Si Si3 0.500000 0.078026 0.932706
Si Si4 0.290035 0.579399 0.860053
Si Si5 0.263699 0.921676 0.117940
Si Si6 0.000000 0.920576 0.565558
Si Si7 0.367439 0.166878 0.432623
O O1 0.182604 0.105195 0.293876
O O2 0.214247 0.099863 0.181838
O O3 0.000000 0.108005 0.224373
O O4 0.115935 0.000000 0.236366
O O5 0.801129 0.876130 0.071413
O O6 0.829943 0.741027 0.091185
O O7 0.000000 0.828104 0.098496
O O8 0.902660 0.796495 0.000000
O O9 0.393467 0.097476 0.891994
O O10 0.500000 0.000000 0.943686
O O11 0.500000 0.110482 0.000000
O O12 0.273403 0.500000 0.861663
O O13 0.391215 0.604929 0.900667
O O14 0.179474 0.613084 0.886126
O O15 0.241532 0.000000 0.104928
O O16 0.000000 0.889412 0.500000
O O17 0.000000 0.000000 0.563639
O O18 0.324954 0.152132 0.500000
O O19 0.500000 0.161118 0.430279
#
# Coordination Sequence:
#
# PCOD8287783 Si02
#       7
#    16  16   8  16  16   8  16
#     4   9  17  31  50  74 105 135 166 212 264 301
#     4   9  18  33  52  74 102 132 163 208 262 304
#     4   9  18  32  49  73 107 139 164 201 250 294
#     4  10  18  31  50  73 100 132 173 217 257 304
#     4  10  19  32  53  78 102 134 172 203 241 302
#     4   9  16  26  45  73 101 127 160 209 264 308
#     4   9  19  35  51  70 101 137 169 207 262 314
#
# _framework density 17.802106999999999
#
# number of rings (size 3 to 8) (size 9 to 14) (size 15 to 20)
#    0.000    2.667    0.833    2.500    0.000    3.333 
#    1.500    3.333    0.000    3.000    0.000    0.000 
#    0.000    0.000    0.000    0.000    0.000    0.000 
#
# Total GULP energy -594672.104824 kJ/mol
# GULP energy per Si atom -12389.002184 kJ/mol
# Density = 1.776159 g / cm^3
# Si number density = 17.802107 Si / 1000 Ang^3
#
#
#
# Elastic Constant Matrix: (Units=GPa)
#
#
# Indices 1 2 3 4 5 6 
#
# 1 111.7960 42.2879 59.4878 0.0000 0.0000 0.0000
# 2 42.2879 55.8726 25.2465 0.0000 0.0000 0.0000
# 3 59.4878 25.2465 106.2341 0.0000 0.0000 0.0000
# 4 0.0000 0.0000 0.0000 15.5094 0.0000 0.0000
# 5 0.0000 0.0000 0.0000 0.0000 27.3573 0.0000
# 6 0.0000 0.0000 0.0000 0.0000 0.0000 15.8000
#
#
#
# Elastic Compliance Matrix: (Units=1/GPa)
#
#
# Indices 1 2 3 4 5 6 
#
# 1 0.015976 -0.009017 -0.006803 0.000000 0.000000 0.000000
# 2 -0.009017 0.025141 -0.000925 0.000000 0.000000 0.000000
# 3 -0.006803 -0.000925 0.013442 0.000000 0.000000 0.000000
# 4 0.000000 0.000000 0.000000 0.064477 0.000000 0.000000
# 5 0.000000 0.000000 0.000000 0.000000 0.036553 0.000000
# 6 0.000000 0.000000 0.000000 0.000000 0.000000 0.063291
#
#
# Mechanical properties :
#
#
# Convention : Reuss Voigt Hill
#
# Bulk Modulus (GPa) = 47.46557 58.66079 53.06318
# Shear Modulus (GPa) = 19.27566 21.52537 20.40051
#
# Velocity S-wave (km/s) = 3.29412 3.48105 3.38888
# Velocity P-wave (km/s) = 6.41787 7.01285 6.72195
#
# Compressibility (1/GPa) = 0.02106790
#
# Stress axis : x y z
#
# Youngs Moduli (GPa) = 62.59496 39.77574 74.39105
#
# Poissons Ratio (x) = 0.35868 0.50608
# Poissons Ratio (y) = 0.56445 0.06883
# Poissons Ratio (z) = 0.42583 0.03680
#
# Static dielectric constant tensor:
#      x y z
#    x 3.403690 0.000000 0.000000 
#    y 0.000000 2.992910 0.000000 
#    z 0.000000 0.000000 3.369120 
# 
# 
# High freq. dielectric constant tensor:
#      x y z
#    x 1.689660 0.000000 0.000000 
#    y 0.000000 1.655550 0.000000 
#    z 0.000000 0.000000 1.684340 
# 
# From -- ./inp_files/52045.got.cif
#   From: 2010.06.25/outbox.cif.g09.slc.cpg/sg71_27_cif.got.tgz:52045.got - 2010.06.28 04:59:45.
