data_PCOD8287100
_publ_section_title
;
Structure prediction by ZEFSAII (Michael W. Deem and Ramdas Pophale) SiO2 
 PCOD8287100
Probable space group: I M M M
;
_chemical_formula_sum "Si O2"
_cell_formula_units_Z 88
_cell_length_a 24.348249
_cell_length_b 22.642756
_cell_length_c 9.012162
_cell_angle_alpha 90.000000
_cell_angle_beta 90.000000
_cell_angle_gamma 90.000000
_cell_volume 4968.508200
_symmetry_space_group_name_H-M "I M M M"
_symmetry_group_IT_number 71
_symmetry_cell_setting 'orthorhombic'
loop_
_space_group_symop_operation_xyz
x,y,z
-x,-y,z
x,-y,-z
-x,y,-z
-x,-y,-z
x,y,-z
-x,y,z
x,-y,z
1/2+x,1/2+y,1/2+z
1/2-x,1/2-y,1/2+z
1/2+x,1/2-y,1/2-z
1/2-x,1/2+y,1/2-z
1/2-x,1/2-y,1/2-z
1/2+x,1/2+y,1/2-z
1/2-x,1/2+y,1/2+z
1/2+x,1/2-y,1/2+z
loop_
_atom_site_type_symbol
_atom_site_label
_atom_site_fract_x
_atom_site_fract_y
_atom_site_fract_z
Si Si1 0.437007 0.777563 0.174739
Si Si2 0.263052 0.065161 0.675406
Si Si3 0.063195 0.842911 0.172411
Si Si4 0.438403 0.000000 0.323898
Si Si5 0.141523 0.069739 0.670286
Si Si6 0.124611 0.383696 0.824276
O O1 0.500000 0.790601 0.220148
O O2 0.417678 0.715043 0.239515
O O3 0.398442 0.827137 0.242330
O O4 0.429263 0.775980 0.000000
O O5 0.264497 0.057720 0.500000
O O6 0.202978 0.089246 0.721684
O O7 0.311559 0.109430 0.724423
O O8 0.273257 0.000000 0.744979
O O9 0.098245 0.898596 0.224530
O O10 0.000000 0.857721 0.206890
O O11 0.073253 0.831178 0.000000
O O12 0.407644 0.058459 0.267273
O O13 0.500000 0.000000 0.258914
O O14 0.438923 0.000000 0.500000
O O15 0.130761 0.087981 0.500000
O O16 0.134587 0.000000 0.690525
O O17 0.117793 0.375263 0.000000
#
# Coordination Sequence:
#
# PCOD8287100 Si02
#       6
#    16  16  16   8  16  16
#     4  10  21  36  52  71 100 137 173 211 259 311
#     4   8  14  28  50  76 104 136 172 209 249 293
#     4  10  21  37  56  77 101 130 167 211 256 303
#     4   9  16  24  41  73 105 131 166 213 254 290
#     4   9  18  33  55  81 108 136 166 201 247 305
#     4  10  17  29  51  76 102 134 175 216 252 294
#
# _framework density 17.711554
#
# number of rings (size 3 to 8) (size 9 to 14) (size 15 to 20)
#    0.000    2.636    0.909    2.727    0.000    3.636 
#    0.000    4.091    0.000    2.727    0.000    0.000 
#    0.000    0.000    0.000    0.000    0.000    0.000 
#
# Total GULP energy -545524.576291 kJ/mol
# GULP energy per Si atom -12398.285825 kJ/mol
# Density = 1.767124 g / cm^3
# Si number density = 17.711554 Si / 1000 Ang^3
#
#
#
# Elastic Constant Matrix: (Units=GPa)
#
#
# Indices 1 2 3 4 5 6 
#
# 1 121.1537 68.8111 42.0116 0.0000 0.0000 0.0000
# 2 68.8111 91.5066 36.9828 0.0000 0.0000 0.0000
# 3 42.0116 36.9828 52.5142 0.0000 0.0000 0.0000
# 4 0.0000 0.0000 0.0000 29.1768 0.0000 0.0000
# 5 0.0000 0.0000 0.0000 0.0000 22.4250 0.0000
# 6 0.0000 0.0000 0.0000 0.0000 0.0000 19.4552
#
#
#
# Elastic Compliance Matrix: (Units=1/GPa)
#
#
# Indices 1 2 3 4 5 6 
#
# 1 0.015615 -0.009357 -0.005903 0.000000 0.000000 0.000000
# 2 -0.009357 0.020883 -0.007221 0.000000 0.000000 0.000000
# 3 -0.005903 -0.007221 0.028850 0.000000 0.000000 0.000000
# 4 0.000000 0.000000 0.000000 0.034274 0.000000 0.000000
# 5 0.000000 0.000000 0.000000 0.000000 0.044593 0.000000
# 6 0.000000 0.000000 0.000000 0.000000 0.000000 0.051400
#
#
# Mechanical properties :
#
#
# Convention : Reuss Voigt Hill
#
# Bulk Modulus (GPa) = 49.05131 62.30949 55.68040
# Shear Modulus (GPa) = 20.21251 22.03600 21.12425
#
# Velocity S-wave (km/s) = 3.38184 3.53109 3.45727
# Velocity P-wave (km/s) = 6.55772 7.20287 6.88785
#
# Compressibility (1/GPa) = 0.02038681
#
# Stress axis : x y z
#
# Youngs Moduli (GPa) = 64.04075 47.88693 34.66178
#
# Poissons Ratio (x) = 0.44806 0.20460
# Poissons Ratio (y) = 0.59920 0.25030
# Poissons Ratio (z) = 0.37802 0.34580
#
# Static dielectric constant tensor:
#      x y z
#    x 3.581110 0.000000 0.000000 
#    y 0.000000 3.191240 0.000000 
#    z 0.000000 0.000000 2.992620 
# 
# 
# High freq. dielectric constant tensor:
#      x y z
#    x 1.692030 0.000000 0.000000 
#    y 0.000000 1.677520 0.000000 
#    z 0.000000 0.000000 1.657890 
# 
# From -- ./inp_files/12505.got.cif
#   From: 2010.06.25/outbox.cif.g09.slc.cpg/sg71_7_cif.got.tgz:12505.got - 2010.06.28 04:59:45.
