data_PCOD8287199
_publ_section_title
;
Structure prediction by ZEFSAII (Michael W. Deem and Ramdas Pophale) SiO2 
 PCOD8287199
Probable space group: I M M M
;
_chemical_formula_sum "Si O2"
_cell_formula_units_Z 104
_cell_length_a 14.119132
_cell_length_b 30.627952
_cell_length_c 18.044827
_cell_angle_alpha 90.000000
_cell_angle_beta 90.000000
_cell_angle_gamma 90.000000
_cell_volume 7803.306741
_symmetry_space_group_name_H-M "I M M M"
_symmetry_group_IT_number 71
_symmetry_cell_setting 'orthorhombic'
loop_
_space_group_symop_operation_xyz
x,y,z
-x,-y,z
x,-y,-z
-x,y,-z
-x,-y,-z
x,y,-z
-x,y,z
x,-y,z
1/2+x,1/2+y,1/2+z
1/2-x,1/2-y,1/2+z
1/2+x,1/2-y,1/2-z
1/2-x,1/2+y,1/2-z
1/2-x,1/2-y,1/2-z
1/2+x,1/2+y,1/2-z
1/2-x,1/2+y,1/2+z
1/2+x,1/2-y,1/2+z
loop_
_atom_site_type_symbol
_atom_site_label
_atom_site_fract_x
_atom_site_fract_y
_atom_site_fract_z
Si Si1 0.105965 0.169796 0.735844
Si Si2 0.393552 0.693273 0.919693
Si Si3 0.608369 0.230095 0.278935
Si Si4 0.276420 0.166326 0.172489
Si Si5 0.897165 0.500000 0.412739
Si Si6 0.613062 0.094452 0.084781
Si Si7 0.720987 0.254903 0.417086
O O1 0.122374 0.159429 0.648263
O O2 0.120089 0.221944 0.744465
O O3 0.185841 0.145342 0.784048
O O4 0.000000 0.155652 0.761313
O O5 0.500000 0.712527 0.912931
O O6 0.324794 0.734233 0.914144
O O7 0.379780 0.669488 0.000000
O O8 0.500000 0.215212 0.283101
O O9 0.664438 0.196067 0.228688
O O10 0.650280 0.229497 0.362117
O O11 0.340758 0.128110 0.141163
O O12 0.233898 0.194712 0.105496
O O13 0.912914 0.500000 0.500000
O O14 0.846581 0.546026 0.392167
O O15 0.000000 0.500000 0.373814
O O16 0.500000 0.095907 0.093438
O O17 0.641212 0.105669 0.000000
O O18 0.678027 0.252739 0.500000
#
# Coordination Sequence:
#
# PCOD8287199 Si02
#       7
#    16  16  16  16   8  16  16
#     4   9  16  27  38  49  71 102 130 156 191 226
#     4   9  15  23  36  51  66  91 127 161 189 216
#     4  10  18  27  36  48  71 102 129 155 191 230
#     4  11  17  26  37  58  74  96 126 167 196 220
#     4   7  12  26  42  56  77 101 120 141 183 241
#     4   9  17  27  41  60  80 100 122 153 192 231
#     4  10  18  27  36  49  70  98 132 163 190 219
#
# _framework density 13.327684
#
# number of rings (size 3 to 8) (size 9 to 14) (size 15 to 20)
#    0.000    2.538    3.077    2.769    0.000    0.923 
#    0.000    1.538    0.000    1.385    0.000    0.538 
#    0.000    1.846    0.000    2.769    0.000   29.231 
#
# Total GULP energy -644224.231275 kJ/mol
# GULP energy per Si atom -12388.927525 kJ/mol
# Density = 1.329735 g / cm^3
# Si number density = 13.327684 Si / 1000 Ang^3
#
#
#
# Elastic Constant Matrix: (Units=GPa)
#
#
# Indices 1 2 3 4 5 6 
#
# 1 62.4309 14.1491 32.5423 0.0000 0.0000 0.0000
# 2 14.1491 44.1253 21.5471 -0.0001 0.0000 0.0000
# 3 32.5423 21.5471 89.0696 0.0001 -0.0001 0.0000
# 4 0.0000 -0.0001 0.0001 10.6027 0.0000 0.0000
# 5 0.0000 0.0000 -0.0001 0.0000 23.1308 0.0000
# 6 0.0000 0.0000 0.0000 0.0000 0.0000 8.1684
#
#
#
# Elastic Compliance Matrix: (Units=1/GPa)
#
#
# Indices 1 2 3 4 5 6 
#
# 1 0.020190 -0.003257 -0.006589 0.000000 0.000000 0.000000
# 2 -0.003257 0.026224 -0.005154 0.000000 0.000000 0.000000
# 3 -0.006589 -0.005154 0.014881 0.000000 0.000000 0.000000
# 4 0.000000 0.000000 0.000000 0.094316 0.000000 0.000000
# 5 0.000000 0.000000 0.000000 0.000000 0.043232 0.000000
# 6 0.000000 0.000000 0.000000 0.000000 0.000000 0.122423
#
#
# Mechanical properties :
#
#
# Convention : Reuss Voigt Hill
#
# Bulk Modulus (GPa) = 31.95274 36.90032 34.42653
# Shear Modulus (GPa) = 13.82369 16.87286 15.34828
#
# Velocity S-wave (km/s) = 3.22408 3.56195 3.39722
# Velocity P-wave (km/s) = 6.15519 6.68309 6.42457
#
# Compressibility (1/GPa) = 0.03129622
#
# Stress axis : x y z
#
# Youngs Moduli (GPa) = 49.52886 38.13333 67.19848
#
# Poissons Ratio (x) = 0.12419 0.44276
# Poissons Ratio (y) = 0.16130 0.34634
# Poissons Ratio (z) = 0.32634 0.19654
#
# Static dielectric constant tensor:
#      x y z
#    x 2.770830 0.000000 0.000000 
#    y 0.000000 2.351280 0.000000 
#    z 0.000000 0.000000 2.901580 
# 
# 
# High freq. dielectric constant tensor:
#      x y z
#    x 1.507610 0.000000 0.000000 
#    y 0.000000 1.445950 0.000000 
#    z 0.000000 0.000000 1.514190 
# 
# From -- ./inp_files/37088.got.cif
#   From: 2010.06.25/outbox.cif.g09.slc.cpg/sg71_19_cif.got.tgz:37088.got - 2010.06.28 04:59:45.
