data_PCOD8287734
_publ_section_title
;
Structure prediction by ZEFSAII (Michael W. Deem and Ramdas Pophale) SiO2 
 PCOD8287734
Probable space group: I M M M
;
_chemical_formula_sum "Si O2"
_cell_formula_units_Z 120
_cell_length_a 19.856790
_cell_length_b 23.863512
_cell_length_c 14.427392
_cell_angle_alpha 90.000000
_cell_angle_beta 90.000000
_cell_angle_gamma 90.000000
_cell_volume 6836.459323
_symmetry_space_group_name_H-M "I M M M"
_symmetry_group_IT_number 71
_symmetry_cell_setting 'orthorhombic'
loop_
_space_group_symop_operation_xyz
x,y,z
-x,-y,z
x,-y,-z
-x,y,-z
-x,-y,-z
x,y,-z
-x,y,z
x,-y,z
1/2+x,1/2+y,1/2+z
1/2-x,1/2-y,1/2+z
1/2+x,1/2-y,1/2-z
1/2-x,1/2+y,1/2-z
1/2-x,1/2-y,1/2-z
1/2+x,1/2+y,1/2-z
1/2-x,1/2+y,1/2+z
1/2+x,1/2-y,1/2+z
loop_
_atom_site_type_symbol
_atom_site_label
_atom_site_fract_x
_atom_site_fract_y
_atom_site_fract_z
Si Si1 0.221266 0.346203 0.896149
Si Si2 0.690135 0.242932 0.102087
Si Si3 0.926357 0.810642 0.105985
Si Si4 0.286527 0.640990 0.393145
Si Si5 0.578458 0.062253 0.000000
Si Si6 0.608569 0.790057 0.727340
Si Si7 0.925937 0.403984 0.699346
Si Si8 0.216236 0.563505 0.754760
O O1 0.286467 0.307137 0.898818
O O2 0.167751 0.313922 0.834788
O O3 0.239882 0.405269 0.848318
O O4 0.193950 0.357473 0.000000
O O5 0.751909 0.201004 0.125870
O O6 0.633567 0.239242 0.179062
O O7 0.661155 0.227759 0.000000
O O8 0.865377 0.851821 0.136436
O O9 0.932100 0.755025 0.168273
O O10 0.000000 0.840691 0.114163
O O11 0.912444 0.791777 0.000000
O O12 0.280391 0.622385 0.500000
O O13 0.250171 0.593417 0.333412
O O14 0.598518 0.097196 0.908343
O O15 0.500000 0.052564 0.000000
O O16 0.612965 0.000000 0.000000
O O17 0.563170 0.841786 0.760897
O O18 0.865766 0.435951 0.751994
O O19 0.000000 0.433768 0.709653
O O20 0.241948 0.500000 0.758563
#
# Coordination Sequence:
#
# PCOD8287734 Si02
#       8
#    16  16  16  16   8  16  16  16
#     4  10  19  32  50  74 103 135 169 212 260 301
#     4  10  18  30  53  80 105 135 167 206 260 314
#     4  10  20  33  52  78 106 137 171 206 254 315
#     4  10  19  34  55  79 106 132 166 215 263 314
#     4   9  18  32  46  58  82 128 175 209 240 284
#     4  11  18  29  50  76 107 135 169 208 250 301
#     4  10  21  33  47  69 100 137 173 208 249 293
#     4  11  23  35  52  75  99 136 178 218 256 298
#
# _framework density 17.552945999999999
#
# number of rings (size 3 to 8) (size 9 to 14) (size 15 to 20)
#    0.000    1.800    4.000    2.400    1.867    1.333 
#    0.000    0.000    0.000    4.000    0.000    5.600 
#    0.000    0.000    0.000    4.800    0.000    0.000 
#
# Total GULP energy -743560.848877 kJ/mol
# GULP energy per Si atom -12392.680815 kJ/mol
# Density = 1.751300 g / cm^3
# Si number density = 17.552946 Si / 1000 Ang^3
#
#
#
# Elastic Constant Matrix: (Units=GPa)
#
#
# Indices 1 2 3 4 5 6 
#
# 1 61.2765 21.7364 19.2904 0.0000 0.0000 0.0000
# 2 21.7364 90.8542 37.0006 0.0000 0.0000 0.0000
# 3 19.2904 37.0006 94.3525 0.0000 0.0000 0.0000
# 4 0.0000 0.0000 0.0000 12.2202 0.0000 0.0000
# 5 0.0000 0.0000 0.0000 0.0000 17.5967 0.0000
# 6 0.0000 0.0000 0.0000 0.0000 0.0000 9.5794
#
#
#
# Elastic Compliance Matrix: (Units=1/GPa)
#
#
# Indices 1 2 3 4 5 6 
#
# 1 0.018281 -0.003393 -0.002407 0.000000 0.000000 0.000000
# 2 -0.003393 0.013728 -0.004690 0.000000 0.000000 0.000000
# 3 -0.002407 -0.004690 0.012930 0.000000 0.000000 0.000000
# 4 0.000000 0.000000 0.000000 0.081832 0.000000 0.000000
# 5 0.000000 0.000000 0.000000 0.000000 0.056829 0.000000
# 6 0.000000 0.000000 0.000000 0.000000 0.000000 0.104390
#
#
# Mechanical properties :
#
#
# Convention : Reuss Voigt Hill
#
# Bulk Modulus (GPa) = 41.73808 44.72645 43.23227
# Shear Modulus (GPa) = 15.77503 19.10964 17.44233
#
# Velocity S-wave (km/s) = 3.00110 3.30310 3.15572
# Velocity P-wave (km/s) = 5.98655 6.33115 6.16126
#
# Compressibility (1/GPa) = 0.02395894
#
# Stress axis : x y z
#
# Youngs Moduli (GPa) = 54.70189 72.84131 77.34089
#
# Poissons Ratio (x) = 0.24718 0.18614
# Poissons Ratio (y) = 0.18563 0.36272
# Poissons Ratio (z) = 0.13166 0.34162
#
# Static dielectric constant tensor:
#      x y z
#    x 3.119730 0.000000 0.000000 
#    y 0.000000 3.145780 0.000000 
#    z 0.000000 0.000000 3.568100 
# 
# 
# High freq. dielectric constant tensor:
#      x y z
#    x 1.659280 0.000000 0.000000 
#    y 0.000000 1.649900 0.000000 
#    z 0.000000 0.000000 1.687540 
# 
# From -- ./inp_files/38588.got.cif
#   From: 2010.06.25/outbox.cif.g09.slc.cpg/sg71_20_cif.got.tgz:38588.got - 2010.06.28 04:59:45.
