data_PCOD8287208
_publ_section_title
;
Structure prediction by ZEFSAII (Michael W. Deem and Ramdas Pophale) SiO2 
 PCOD8287208
Probable space group: I M M M
;
_chemical_formula_sum "Si O2"
_cell_formula_units_Z 88
_cell_length_a 9.999480
_cell_length_b 31.643142
_cell_length_c 20.020758
_cell_angle_alpha 90.000000
_cell_angle_beta 90.000000
_cell_angle_gamma 90.000000
_cell_volume 6334.867453
_symmetry_space_group_name_H-M "I M M M"
_symmetry_group_IT_number 71
_symmetry_cell_setting 'orthorhombic'
loop_
_space_group_symop_operation_xyz
x,y,z
-x,-y,z
x,-y,-z
-x,y,-z
-x,-y,-z
x,y,-z
-x,y,z
x,-y,z
1/2+x,1/2+y,1/2+z
1/2-x,1/2-y,1/2+z
1/2+x,1/2-y,1/2-z
1/2-x,1/2+y,1/2-z
1/2-x,1/2-y,1/2-z
1/2+x,1/2+y,1/2-z
1/2-x,1/2+y,1/2+z
1/2+x,1/2-y,1/2+z
loop_
_atom_site_type_symbol
_atom_site_label
_atom_site_fract_x
_atom_site_fract_y
_atom_site_fract_z
Si Si1 0.500000 0.776387 0.163578
Si Si2 0.000000 0.237330 0.871690
Si Si3 0.223652 0.756210 0.423638
Si Si4 0.776935 0.157501 0.656158
Si Si5 0.847700 0.925823 0.577635
Si Si6 0.500000 0.823927 0.292112
Si Si7 0.153808 0.500000 0.920688
Si Si8 0.000000 0.190236 0.256630
O O1 0.630503 0.776172 0.116972
O O2 0.500000 0.817530 0.211612
O O3 0.500000 0.735592 0.209575
O O4 0.127995 0.237366 0.919355
O O5 0.000000 0.278331 0.825552
O O6 0.000000 0.196222 0.823428
O O7 0.176823 0.758150 0.500000
O O8 0.213672 0.803199 0.394173
O O9 0.827806 0.117032 0.617383
O O10 0.628121 0.149834 0.683605
O O11 0.868442 0.164923 0.721065
O O12 0.822539 0.916377 0.500000
O O13 0.000000 0.942533 0.588627
O O14 0.738133 0.959397 0.604227
O O15 0.000000 0.500000 0.892775
O O16 0.149545 0.500000 0.000000
#
# Coordination Sequence:
#
# PCOD8287208 Si02
#       8
#     8   8  16  16  16   8   8   8
#     4   9  17  28  40  54  73 105 134 167 204 246
#     4   9  17  28  40  52  75 105 132 167 206 250
#     4  10  18  27  39  57  79 103 134 173 215 247
#     4  10  18  28  41  61  79 101 131 176 214 242
#     4  10  19  31  45  61  81 105 132 166 207 246
#     4   9  18  28  40  55  77 102 134 166 209 245
#     4   9  19  33  47  61  79 105 133 159 196 247
#     4   9  16  28  42  55  73 100 136 166 205 247
#
# _framework density 13.891372
#
# number of rings (size 3 to 8) (size 9 to 14) (size 15 to 20)
#    0.000    2.455    0.909    2.455    1.273    5.455 
#    0.000    0.909    0.000    0.000    0.000    0.000 
#    0.000    0.000    0.000    0.000    0.000    0.000 
#
# Total GULP energy -545448.920099 kJ/mol
# GULP energy per Si atom -12396.566366 kJ/mol
# Density = 1.385975 g / cm^3
# Si number density = 13.891372 Si / 1000 Ang^3
#
#
#
# Elastic Constant Matrix: (Units=GPa)
#
#
# Indices 1 2 3 4 5 6 
#
# 1 94.9219 18.2376 12.9854 0.0000 0.0000 0.0000
# 2 18.2376 41.1285 18.4255 0.0000 0.0000 0.0000
# 3 12.9854 18.4255 47.5916 0.0003 0.0000 0.0000
# 4 0.0000 0.0000 0.0003 12.8143 0.0000 0.0000
# 5 0.0000 0.0000 0.0000 0.0000 6.1918 0.0000
# 6 0.0000 0.0000 0.0000 0.0000 0.0000 10.6051
#
#
#
# Elastic Compliance Matrix: (Units=1/GPa)
#
#
# Indices 1 2 3 4 5 6 
#
# 1 0.011595 -0.004506 -0.001419 0.000000 0.000000 0.000000
# 2 -0.004506 0.031167 -0.010837 0.000000 0.000000 0.000000
# 3 -0.001419 -0.010837 0.025595 -0.000001 0.000000 0.000000
# 4 0.000000 0.000000 -0.000001 0.078038 0.000000 0.000000
# 5 0.000000 0.000000 0.000000 0.000000 0.161505 0.000000
# 6 0.000000 0.000000 0.000000 0.000000 0.000000 0.094294
#
#
# Mechanical properties :
#
#
# Convention : Reuss Voigt Hill
#
# Bulk Modulus (GPa) = 28.70867 31.43767 30.07317
# Shear Modulus (GPa) = 11.17745 14.85513 13.01629
#
# Velocity S-wave (km/s) = 2.83968 3.27368 3.06438
# Velocity P-wave (km/s) = 5.60920 6.08026 5.84947
#
# Compressibility (1/GPa) = 0.03483268
#
# Stress axis : x y z
#
# Youngs Moduli (GPa) = 86.24538 32.08517 39.07009
#
# Poissons Ratio (x) = 0.14457 0.05545
# Poissons Ratio (y) = 0.38859 0.42341
# Poissons Ratio (z) = 0.12240 0.34771
#
# Static dielectric constant tensor:
#      x y z
#    x 3.090910 0.000000 0.000000 
#    y 0.000000 2.435560 0.000000 
#    z 0.000000 0.000000 2.621260 
# 
# 
# High freq. dielectric constant tensor:
#      x y z
#    x 1.555290 0.000000 0.000000 
#    y 0.000000 1.482080 0.000000 
#    z 0.000000 0.000000 1.506160 
# 
# From -- ./inp_files/11440.got.cif
#   From: 2010.06.25/outbox.cif.g09.slc.cpg/sg71_6_cif.got.tgz:11440.got - 2010.06.28 04:59:45.
