data_PCOD8287281
_publ_section_title
;
Structure prediction by ZEFSAII (Michael W. Deem and Ramdas Pophale) SiO2 
 PCOD8287281
Probable space group: I M M M
;
_chemical_formula_sum "Si O2"
_cell_formula_units_Z 104
_cell_length_a 24.903745
_cell_length_b 9.148703
_cell_length_c 32.593759
_cell_angle_alpha 90.000000
_cell_angle_beta 90.000000
_cell_angle_gamma 90.000000
_cell_volume 7426.063180
_symmetry_space_group_name_H-M "I M M M"
_symmetry_group_IT_number 71
_symmetry_cell_setting 'orthorhombic'
loop_
_space_group_symop_operation_xyz
x,y,z
-x,-y,z
x,-y,-z
-x,y,-z
-x,-y,-z
x,y,-z
-x,y,z
x,-y,z
1/2+x,1/2+y,1/2+z
1/2-x,1/2-y,1/2+z
1/2+x,1/2-y,1/2-z
1/2-x,1/2+y,1/2-z
1/2-x,1/2-y,1/2-z
1/2+x,1/2+y,1/2-z
1/2-x,1/2+y,1/2+z
1/2+x,1/2-y,1/2+z
loop_
_atom_site_type_symbol
_atom_site_label
_atom_site_fract_x
_atom_site_fract_y
_atom_site_fract_z
Si Si1 0.058545 0.670632 0.164655
Si Si2 0.942366 0.326095 0.743824
Si Si3 0.500000 0.835024 0.548606
Si Si4 0.732867 0.829678 0.310748
Si Si5 0.607828 0.670764 0.547709
Si Si6 0.158818 0.327265 0.115559
Si Si7 0.173381 0.328452 0.728012
O O1 0.070621 0.500000 0.168990
O O2 0.059561 0.738551 0.210195
O O3 0.105584 0.737427 0.137479
O O4 0.000000 0.699751 0.144050
O O5 0.941091 0.500000 0.745987
O O6 0.888243 0.273201 0.720591
O O7 0.000000 0.276321 0.723499
O O8 0.500000 0.842415 0.500000
O O9 0.553490 0.750865 0.562969
O O10 0.500000 0.000000 0.567268
O O11 0.708795 0.786517 0.355134
O O12 0.789374 0.747978 0.305721
O O13 0.691770 0.785725 0.274255
O O14 0.744811 0.000000 0.308659
O O15 0.619053 0.699855 0.500000
O O16 0.602015 0.500000 0.556993
O O17 0.658831 0.740043 0.572379
O O18 0.156943 0.500000 0.106957
O O19 0.178382 0.500000 0.721100
#
# Coordination Sequence:
#
# PCOD8287281 Si02
#       7
#    16  16   8  16  16  16  16
#     4   8  13  21  34  53  74  93 118 158 202 231
#     4   8  12  20  36  56  76  97 125 162 197 228
#     4   9  17  31  49  63  73  93 129 163 193 239
#     4   9  17  27  38  56  79 101 127 162 197 229
#     4  10  21  34  44  56  78 102 122 155 205 251
#     4  10  18  28  43  60  75  94 130 169 198 236
#     4   9  15  25  40  56  76 102 131 158 191 235
#
# _framework density 14.00473
#
# number of rings (size 3 to 8) (size 9 to 14) (size 15 to 20)
#    0.000    3.000    1.538    1.615    1.077    2.462 
#    0.000    0.000    0.000    0.462    0.000    2.154 
#    0.000    0.000    0.000    0.000    0.000    0.769 
#
# Total GULP energy -644242.050214 kJ/mol
# GULP energy per Si atom -12389.270196 kJ/mol
# Density = 1.397285 g / cm^3
# Si number density = 14.004730 Si / 1000 Ang^3
#
#
#
# Elastic Constant Matrix: (Units=GPa)
#
#
# Indices 1 2 3 4 5 6 
#
# 1 110.2190 32.0412 40.2902 0.0000 0.0000 0.0000
# 2 32.0412 42.8555 30.1959 0.0000 0.0000 0.0000
# 3 40.2902 30.1959 55.3949 0.0000 0.0000 0.0000
# 4 0.0000 0.0000 0.0000 16.1686 0.0000 0.0000
# 5 0.0000 0.0000 0.0000 0.0000 23.9567 0.0000
# 6 0.0000 0.0000 0.0000 0.0000 0.0000 18.4248
#
#
#
# Elastic Compliance Matrix: (Units=1/GPa)
#
#
# Indices 1 2 3 4 5 6 
#
# 1 0.012976 -0.004955 -0.006737 0.000000 0.000000 0.000000
# 2 -0.004955 0.039777 -0.018079 0.000000 0.000000 0.000000
# 3 -0.006737 -0.018079 0.032807 0.000000 0.000000 0.000000
# 4 0.000000 0.000000 0.000000 0.061848 0.000000 0.000000
# 5 0.000000 0.000000 0.000000 0.000000 0.041742 0.000000
# 6 0.000000 0.000000 0.000000 0.000000 0.000000 0.054275
#
#
# Mechanical properties :
#
#
# Convention : Reuss Voigt Hill
#
# Bulk Modulus (GPa) = 38.43356 45.94711 42.19034
# Shear Modulus (GPa) = 16.04423 18.77282 17.40853
#
# Velocity S-wave (km/s) = 3.38839 3.66521 3.52951
# Velocity P-wave (km/s) = 6.54302 7.12679 6.84113
#
# Compressibility (1/GPa) = 0.02601893
#
# Stress axis : x y z
#
# Youngs Moduli (GPa) = 77.06627 25.14018 30.48134
#
# Poissons Ratio (x) = 0.12456 0.20535
# Poissons Ratio (y) = 0.38184 0.55107
# Poissons Ratio (z) = 0.51919 0.45451
#
# Static dielectric constant tensor:
#      x y z
#    x 2.880220 0.000000 0.000000 
#    y 0.000000 2.527660 0.000000 
#    z 0.000000 0.000000 2.593060 
# 
# 
# High freq. dielectric constant tensor:
#      x y z
#    x 1.518860 0.000000 0.000000 
#    y 0.000000 1.512020 0.000000 
#    z 0.000000 0.000000 1.499520 
# 
# From -- ./inp_files/71169.got.cif
#   From: 2010.06.25/outbox.cif.g09.slc.cpg/sg71_36_cif.got.tgz:71169.got - 2010.06.28 04:59:45.
