data_PCOD8287988
_publ_section_title
;
Structure prediction by ZEFSAII (Michael W. Deem and Ramdas Pophale) SiO2 
 PCOD8287988
Probable space group: I M M M
;
_chemical_formula_sum "Si O2"
_cell_formula_units_Z 88
_cell_length_a 27.292416
_cell_length_b 19.496099
_cell_length_c 9.014849
_cell_angle_alpha 90.000000
_cell_angle_beta 90.000000
_cell_angle_gamma 90.000000
_cell_volume 4796.761887
_symmetry_space_group_name_H-M "I M M M"
_symmetry_group_IT_number 71
_symmetry_cell_setting 'orthorhombic'
loop_
_space_group_symop_operation_xyz
x,y,z
-x,-y,z
x,-y,-z
-x,y,-z
-x,-y,-z
x,y,-z
-x,y,z
x,-y,z
1/2+x,1/2+y,1/2+z
1/2-x,1/2-y,1/2+z
1/2+x,1/2-y,1/2-z
1/2-x,1/2+y,1/2-z
1/2-x,1/2-y,1/2-z
1/2+x,1/2+y,1/2-z
1/2-x,1/2+y,1/2+z
1/2+x,1/2-y,1/2+z
loop_
_atom_site_type_symbol
_atom_site_label
_atom_site_fract_x
_atom_site_fract_y
_atom_site_fract_z
Si Si1 0.588108 0.829166 0.174120
Si Si2 0.056670 0.175944 0.670809
Si Si3 0.368321 0.578461 0.672472
Si Si4 0.816553 0.698904 0.826729
Si Si5 0.208633 0.161614 0.673129
Si Si6 0.500000 0.922725 0.823505
O O1 0.568348 0.753962 0.213878
O O2 0.638545 0.844690 0.260850
O O3 0.548494 0.883858 0.233314
O O4 0.597624 0.837688 0.000000
O O5 0.070305 0.162284 0.500000
O O6 0.087178 0.124815 0.772230
O O7 0.000000 0.161249 0.701549
O O8 0.359872 0.592112 0.500000
O O9 0.381817 0.500000 0.705762
O O10 0.317593 0.595691 0.756745
O O11 0.815618 0.771674 0.745524
O O12 0.766581 0.657276 0.794658
O O13 0.823906 0.712180 0.000000
O O14 0.197240 0.165371 0.500000
O O15 0.500000 0.000000 0.760667
O O16 0.500000 0.921550 0.000000
#
# Coordination Sequence:
#
# PCOD8287988 Si02
#       6
#    16  16  16  16  16   8
#     4  10  18  32  56  84 112 145 186 229 271 323
#     4  10  20  35  56  82 110 144 191 236 274 327
#     4  11  24  39  55  79 113 150 189 236 284 331
#     4  10  20  33  54  84 112 139 178 230 282 328
#     4  10  20  35  55  80 110 144 184 227 274 333
#     4   9  18  34  57  85 116 149 184 224 272 326
#
# _framework density 18.345708999999999
#
# number of rings (size 3 to 8) (size 9 to 14) (size 15 to 20)
#    0.000    1.909    2.727    1.636    0.000    4.364 
#    0.000    3.182    0.000    4.364    0.000    0.000 
#    0.000    0.000    0.000    0.000    0.000    0.000 
#
# Total GULP energy -545721.824873 kJ/mol
# GULP energy per Si atom -12402.768747 kJ/mol
# Density = 1.830395 g / cm^3
# Si number density = 18.345709 Si / 1000 Ang^3
#
#
#
# Elastic Constant Matrix: (Units=GPa)
#
#
# Indices 1 2 3 4 5 6 
#
# 1 144.2579 67.3711 55.2316 0.0000 0.0000 0.0000
# 2 67.3711 111.5426 51.3019 0.0000 0.0000 0.0000
# 3 55.2316 51.3019 80.6848 0.0000 0.0000 0.0000
# 4 0.0000 0.0000 0.0000 21.9962 0.0000 0.0000
# 5 0.0000 0.0000 0.0000 0.0000 34.7184 0.0000
# 6 0.0000 0.0000 0.0000 0.0000 0.0000 27.5507
#
#
#
# Elastic Compliance Matrix: (Units=1/GPa)
#
#
# Indices 1 2 3 4 5 6 
#
# 1 0.010722 -0.004382 -0.004553 0.000000 0.000000 0.000000
# 2 -0.004382 0.014461 -0.006195 0.000000 0.000000 0.000000
# 3 -0.004553 -0.006195 0.019450 0.000000 0.000000 0.000000
# 4 0.000000 0.000000 0.000000 0.045462 0.000000 0.000000
# 5 0.000000 0.000000 0.000000 0.000000 0.028803 0.000000
# 6 0.000000 0.000000 0.000000 0.000000 0.000000 0.036297
#
#
# Mechanical properties :
#
#
# Convention : Reuss Voigt Hill
#
# Bulk Modulus (GPa) = 69.57973 76.03272 72.80622
# Shear Modulus (GPa) = 26.28163 27.69177 26.98670
#
# Velocity S-wave (km/s) = 3.78905 3.88937 3.83953
# Velocity P-wave (km/s) = 7.55988 7.85519 7.70895
#
# Compressibility (1/GPa) = 0.01437200
#
# Stress axis : x y z
#
# Youngs Moduli (GPa) = 93.26917 69.15098 51.41340
#
# Poissons Ratio (x) = 0.30299 0.23411
# Poissons Ratio (y) = 0.40866 0.31853
# Poissons Ratio (z) = 0.42469 0.42842
#
# Static dielectric constant tensor:
#      x y z
#    x 3.598980 0.000000 0.000000 
#    y 0.000000 3.243370 0.000000 
#    z 0.000000 0.000000 3.312980 
# 
# 
# High freq. dielectric constant tensor:
#      x y z
#    x 1.728350 0.000000 0.000000 
#    y 0.000000 1.687300 0.000000 
#    z 0.000000 0.000000 1.706700 
# 
# From -- ./inp_files/16621.got.cif
#   From: 2010.06.25/outbox.cif.g09.slc.cpg/sg71_9_cif.got.tgz:16621.got - 2010.06.28 04:59:45.
