data_PCOD8287576
_publ_section_title
;
Structure prediction by ZEFSAII (Michael W. Deem and Ramdas Pophale) SiO2 
 PCOD8287576
Probable space group: I M M M
;
_chemical_formula_sum "Si O2"
_cell_formula_units_Z 72
_cell_length_a 8.795252
_cell_length_b 28.554730
_cell_length_c 17.204874
_cell_angle_alpha 90.000000
_cell_angle_beta 90.000000
_cell_angle_gamma 90.000000
_cell_volume 4320.936079
_symmetry_space_group_name_H-M "I M M M"
_symmetry_group_IT_number 71
_symmetry_cell_setting 'orthorhombic'
loop_
_space_group_symop_operation_xyz
x,y,z
-x,-y,z
x,-y,-z
-x,y,-z
-x,-y,-z
x,y,-z
-x,y,z
x,-y,z
1/2+x,1/2+y,1/2+z
1/2-x,1/2-y,1/2+z
1/2+x,1/2-y,1/2-z
1/2-x,1/2+y,1/2-z
1/2-x,1/2-y,1/2-z
1/2+x,1/2+y,1/2-z
1/2-x,1/2+y,1/2+z
1/2+x,1/2-y,1/2+z
loop_
_atom_site_type_symbol
_atom_site_label
_atom_site_fract_x
_atom_site_fract_y
_atom_site_fract_z
Si Si1 0.680713 0.780543 0.819296
Si Si2 0.676591 0.448134 0.844091
Si Si3 0.167256 0.555474 0.000000
Si Si4 0.177691 0.705892 0.910889
Si Si5 0.678001 0.353660 0.224418
O O1 0.500000 0.778893 0.821718
O O2 0.750000 0.750000 0.750000
O O3 0.750210 0.758023 0.897716
O O4 0.737812 0.833482 0.801413
O O5 0.500000 0.452218 0.861481
O O6 0.740283 0.500000 0.820479
O O7 0.709143 0.409782 0.777058
O O8 0.749615 0.427741 0.922521
O O9 0.159618 0.500000 0.000000
O O10 0.000000 0.578259 0.000000
O O11 0.259209 0.668674 0.855219
O O12 0.000000 0.707584 0.890392
O O13 0.205687 0.691108 0.000000
O O14 0.500000 0.342254 0.229666
#
# Coordination Sequence:
#
# PCOD8287576 Si02
#       5
#    16  16   8  16  16
#     4  10  18  30  47  64  86 113 142 178 218 263
#     4   9  18  31  44  59  82 114 150 184 217 254
#     4   9  17  27  39  55  77 107 141 181 223 253
#     4  10  20  32  46  65  89 115 144 181 218 258
#     4  10  19  30  46  64  86 117 150 183 218 259
#
# _framework density 16.663056000000001
#
# number of rings (size 3 to 8) (size 9 to 14) (size 15 to 20)
#    0.000    2.333    0.000    6.333    1.556    4.889 
#    0.000    0.000    0.000    0.000    0.000    0.000 
#    0.000    0.889    0.000   10.222    0.000    2.889 
#
# Total GULP energy -446094.722715 kJ/mol
# GULP energy per Si atom -12391.520075 kJ/mol
# Density = 1.662513 g / cm^3
# Si number density = 16.663056 Si / 1000 Ang^3
#
#
#
# Elastic Constant Matrix: (Units=GPa)
#
#
# Indices 1 2 3 4 5 6 
#
# 1 88.8181 27.9738 11.0864 0.0000 0.0000 0.0000
# 2 27.9738 85.0626 13.6982 -0.0001 0.0000 0.0000
# 3 11.0864 13.6982 20.4409 -0.0005 0.0000 0.0000
# 4 0.0000 -0.0001 -0.0005 23.0206 0.0000 0.0000
# 5 0.0000 0.0000 0.0000 0.0000 21.0203 -0.0001
# 6 0.0000 0.0000 0.0000 0.0000 -0.0001 19.7575
#
#
#
# Elastic Compliance Matrix: (Units=1/GPa)
#
#
# Indices 1 2 3 4 5 6 
#
# 1 0.012946 -0.003505 -0.004673 0.000000 0.000000 0.000000
# 2 -0.003505 0.014127 -0.007566 0.000000 0.000000 0.000000
# 3 -0.004673 -0.007566 0.056526 0.000001 0.000000 0.000000
# 4 0.000000 0.000000 0.000001 0.043439 0.000000 0.000000
# 5 0.000000 0.000000 0.000000 0.000000 0.047573 0.000000
# 6 0.000000 0.000000 0.000000 0.000000 0.000000 0.050614
#
#
# Mechanical properties :
#
#
# Convention : Reuss Voigt Hill
#
# Bulk Modulus (GPa) = 19.18950 33.31536 26.25243
# Shear Modulus (GPa) = 18.24259 22.19722 20.21990
#
# Velocity S-wave (km/s) = 3.31235 3.65378 3.48725
# Velocity P-wave (km/s) = 5.11567 6.15119 5.65717
#
# Compressibility (1/GPa) = 0.05211184
#
# Stress axis : x y z
#
# Youngs Moduli (GPa) = 77.24308 70.78573 17.69091
#
# Poissons Ratio (x) = 0.24810 0.08266
# Poissons Ratio (y) = 0.27074 0.13385
# Poissons Ratio (z) = 0.36093 0.53558
#
# Static dielectric constant tensor:
#      x y z
#    x 3.294270 0.000000 0.000000 
#    y 0.000000 3.636170 0.000000 
#    z 0.000000 0.000000 3.104490 
# 
# 
# High freq. dielectric constant tensor:
#      x y z
#    x 1.658780 0.000000 0.000000 
#    y 0.000000 1.638540 0.000000 
#    z 0.000000 0.000000 1.589020 
# 
# From -- ./inp_files/50698.got.cif
#   From: 2010.06.25/outbox.cif.g09.slc.cpg/sg71_26_cif.got.tgz:50698.got - 2010.06.28 04:59:45.
