data_PCOD8287432
_publ_section_title
;
Structure prediction by ZEFSAII (Michael W. Deem and Ramdas Pophale) SiO2 
 PCOD8287432
Probable space group: I M M M
;
_chemical_formula_sum "Si O2"
_cell_formula_units_Z 92
_cell_length_a 19.733245
_cell_length_b 11.654170
_cell_length_c 24.872255
_cell_angle_alpha 90.000000
_cell_angle_beta 90.000000
_cell_angle_gamma 90.000000
_cell_volume 5719.986693
_symmetry_space_group_name_H-M "I M M M"
_symmetry_group_IT_number 71
_symmetry_cell_setting 'orthorhombic'
loop_
_space_group_symop_operation_xyz
x,y,z
-x,-y,z
x,-y,-z
-x,y,-z
-x,-y,-z
x,y,-z
-x,y,z
x,-y,z
1/2+x,1/2+y,1/2+z
1/2-x,1/2-y,1/2+z
1/2+x,1/2-y,1/2-z
1/2-x,1/2+y,1/2-z
1/2-x,1/2-y,1/2-z
1/2+x,1/2+y,1/2-z
1/2-x,1/2+y,1/2+z
1/2+x,1/2-y,1/2+z
loop_
_atom_site_type_symbol
_atom_site_label
_atom_site_fract_x
_atom_site_fract_y
_atom_site_fract_z
Si Si1 0.820958 0.250346 0.000000
Si Si2 0.672633 0.135292 0.607483
Si Si3 0.129773 0.000000 0.000000
Si Si4 0.819537 0.132384 0.500000
Si Si5 0.077090 0.866228 0.708140
Si Si6 0.079127 0.222906 0.824788
Si Si7 0.173035 0.866740 0.383726
Si Si8 0.577290 0.500000 0.383642
O O1 0.855651 0.303415 0.946614
O O2 0.743058 0.283015 0.000000
O O3 0.823834 0.112654 0.000000
O O4 0.623215 0.167994 0.656584
O O5 0.749580 0.178190 0.619736
O O6 0.671144 0.000000 0.598520
O O7 0.082348 0.000000 0.947791
O O8 0.859082 0.155868 0.443849
O O9 0.793082 0.000000 0.500000
O O10 0.091469 0.794729 0.761784
O O11 0.125060 0.811283 0.661753
O O12 0.000000 0.849724 0.688834
O O13 0.091410 0.000000 0.720139
O O14 0.000000 0.244831 0.837498
O O15 0.109438 0.114106 0.857675
O O16 0.172479 0.000000 0.371032
O O17 0.500000 0.500000 0.364793
#
# Coordination Sequence:
#
# PCOD8287432 Si02
#       8
#     8  16   4   8  16  16  16   8
#     4  10  18  29  46  67  90 119 151 185 227 270
#     4  10  19  32  47  64  91 123 156 184 222 268
#     4  12  19  28  48  70  86 116 153 198 234 262
#     4   8  14  28  46  65  94 126 149 173 218 275
#     4   9  16  28  46  68  92 118 150 186 228 276
#     4  10  19  31  47  64  88 122 154 189 231 269
#     4   8  15  27  45  67  90 121 152 180 220 272
#     4  10  19  32  44  62  90 119 150 187 235 276
#
# _framework density 16.083955
#
# number of rings (size 3 to 8) (size 9 to 14) (size 15 to 20)
#    0.000    2.609    2.609    1.957    0.000    1.043 
#    0.000    0.870    0.000    3.652    0.000    0.000 
#    0.000    0.000    0.000   12.522    0.000    5.565 
#
# Total GULP energy -570025.524802 kJ/mol
# GULP energy per Si atom -12391.859235 kJ/mol
# Density = 1.604735 g / cm^3
# Si number density = 16.083955 Si / 1000 Ang^3
#
#
#
# Elastic Constant Matrix: (Units=GPa)
#
#
# Indices 1 2 3 4 5 6 
#
# 1 61.1858 23.7884 58.1114 0.0000 0.0000 0.0000
# 2 23.7884 61.4613 30.1891 0.0000 0.0000 0.0000
# 3 58.1114 30.1891 129.4513 0.0000 0.0000 0.0000
# 4 0.0000 0.0000 0.0000 17.9182 0.0000 0.0000
# 5 0.0000 0.0000 0.0000 0.0000 28.2768 0.0000
# 6 0.0000 0.0000 0.0000 0.0000 0.0000 14.8522
#
#
#
# Elastic Compliance Matrix: (Units=1/GPa)
#
#
# Indices 1 2 3 4 5 6 
#
# 1 0.030144 -0.005670 -0.012210 0.000000 0.000000 0.000000
# 2 -0.005670 0.019442 -0.001989 0.000000 0.000000 0.000000
# 3 -0.012210 -0.001989 0.013670 0.000000 0.000000 0.000000
# 4 0.000000 0.000000 0.000000 0.055809 0.000000 0.000000
# 5 0.000000 0.000000 0.000000 0.000000 0.035365 0.000000
# 6 0.000000 0.000000 0.000000 0.000000 0.000000 0.067330
#
#
# Mechanical properties :
#
#
# Convention : Reuss Voigt Hill
#
# Bulk Modulus (GPa) = 42.51874 52.91957 47.71916
# Shear Modulus (GPa) = 18.56420 21.54341 20.05381
#
# Velocity S-wave (km/s) = 3.40105 3.66380 3.53487
# Velocity P-wave (km/s) = 6.47423 7.13242 6.81128
#
# Compressibility (1/GPa) = 0.02351904
#
# Stress axis : x y z
#
# Youngs Moduli (GPa) = 33.17389 51.43566 73.15474
#
# Poissons Ratio (x) = 0.29164 0.89319
# Poissons Ratio (y) = 0.18810 0.14548
# Poissons Ratio (z) = 0.40504 0.10229
#
# Static dielectric constant tensor:
#      x y z
#    x 2.895410 0.000000 0.000000 
#    y 0.000000 2.792250 0.000000 
#    z 0.000000 0.000000 3.349430 
# 
# 
# High freq. dielectric constant tensor:
#      x y z
#    x 1.588970 0.000000 0.000000 
#    y 0.000000 1.586050 0.000000 
#    z 0.000000 0.000000 1.635090 
# 
# From -- ./inp_files/61601.got.cif
#   From: 2010.06.25/outbox.cif.g09.slc.cpg/sg71_31_cif.got.tgz:61601.got - 2010.06.28 04:59:45.
