data_PCOD8287837
_publ_section_title
;
Structure prediction by ZEFSAII (Michael W. Deem and Ramdas Pophale) SiO2 
 PCOD8287837
Probable space group: I M M M
;
_chemical_formula_sum "Si O2"
_cell_formula_units_Z 104
_cell_length_a 22.559872
_cell_length_b 26.217814
_cell_length_c 9.230150
_cell_angle_alpha 90.000000
_cell_angle_beta 90.000000
_cell_angle_gamma 90.000000
_cell_volume 5459.361694
_symmetry_space_group_name_H-M "I M M M"
_symmetry_group_IT_number 71
_symmetry_cell_setting 'orthorhombic'
loop_
_space_group_symop_operation_xyz
x,y,z
-x,-y,z
x,-y,-z
-x,y,-z
-x,-y,-z
x,y,-z
-x,y,z
x,-y,z
1/2+x,1/2+y,1/2+z
1/2-x,1/2-y,1/2+z
1/2+x,1/2-y,1/2-z
1/2-x,1/2+y,1/2-z
1/2-x,1/2-y,1/2-z
1/2+x,1/2+y,1/2-z
1/2-x,1/2+y,1/2+z
1/2+x,1/2-y,1/2+z
loop_
_atom_site_type_symbol
_atom_site_label
_atom_site_fract_x
_atom_site_fract_y
_atom_site_fract_z
Si Si1 0.798256 0.318850 0.671252
Si Si2 0.721510 0.441146 0.156946
Si Si3 0.932532 0.500000 0.827719
Si Si4 0.317702 0.297683 0.830496
Si Si5 0.564585 0.646547 0.166249
Si Si6 0.350279 0.908302 0.670800
Si Si7 0.888978 0.058885 0.168731
O O1 0.793420 0.328341 0.500000
O O2 0.734096 0.329146 0.746775
O O3 0.816908 0.261645 0.711044
O O4 0.849564 0.355276 0.739475
O O5 0.708992 0.500000 0.137047
O O6 0.788112 0.434283 0.210903
O O7 0.674363 0.420352 0.272267
O O8 0.711696 0.413891 0.000000
O O9 0.900559 0.552069 0.773130
O O10 0.000000 0.500000 0.770255
O O11 0.929337 0.500000 0.000000
O O12 0.382573 0.316711 0.780165
O O13 0.306112 0.305140 0.000000
O O14 0.500000 0.673305 0.187482
O O15 0.561908 0.593846 0.255862
O O16 0.575046 0.631944 0.000000
O O17 0.357870 0.897185 0.500000
O O18 0.901793 0.000000 0.206053
O O19 0.889848 0.068683 0.000000
#
# Coordination Sequence:
#
# PCOD8287837 Si02
#       7
#    16  16   8  16  16  16  16
#     4  10  20  33  54  83 110 135 167 213 271 324
#     4   9  16  28  47  71  99 131 168 208 248 291
#     4   9  18  34  55  77 105 145 190 229 264 313
#     4   9  19  37  56  77 106 137 171 215 265 315
#     4  10  21  37  56  74  94 130 178 217 248 291
#     4  10  18  31  52  78 105 137 177 218 262 311
#     4  10  21  34  48  72 106 137 165 202 253 305
#
# _framework density 19.049845999999999
#
# number of rings (size 3 to 8) (size 9 to 14) (size 15 to 20)
#    0.000    2.385    0.769    1.846    0.000    7.077 
#    0.000    2.692    0.000    1.846    0.000    0.000 
#    0.000    0.000    0.000    0.000    0.000    0.000 
#
# Total GULP energy -644517.061562 kJ/mol
# GULP energy per Si atom -12394.558876 kJ/mol
# Density = 1.900649 g / cm^3
# Si number density = 19.049846 Si / 1000 Ang^3
#
#
#
# Elastic Constant Matrix: (Units=GPa)
#
#
# Indices 1 2 3 4 5 6 
#
# 1 124.7269 58.9902 31.3758 0.0000 0.0000 0.0000
# 2 58.9902 92.5331 37.6832 0.0000 0.0000 0.0000
# 3 31.3758 37.6832 53.6581 0.0000 0.0000 0.0000
# 4 0.0000 0.0000 0.0000 26.4116 0.0000 0.0000
# 5 0.0000 0.0000 0.0000 0.0000 6.7916 0.0000
# 6 0.0000 0.0000 0.0000 0.0000 0.0000 25.2857
#
#
#
# Elastic Compliance Matrix: (Units=1/GPa)
#
#
# Indices 1 2 3 4 5 6 
#
# 1 0.011667 -0.006526 -0.002239 0.000000 0.000000 0.000000
# 2 -0.006526 0.018786 -0.009377 0.000000 0.000000 0.000000
# 3 -0.002239 -0.009377 0.026531 0.000000 0.000000 0.000000
# 4 0.000000 0.000000 0.000000 0.037862 0.000000 0.000000
# 5 0.000000 0.000000 0.000000 0.000000 0.147241 0.000000
# 6 0.000000 0.000000 0.000000 0.000000 0.000000 0.039548
#
#
# Mechanical properties :
#
#
# Convention : Reuss Voigt Hill
#
# Bulk Modulus (GPa) = 48.30936 58.55739 53.43337
# Shear Modulus (GPa) = 15.39311 21.22236 18.30774
#
# Velocity S-wave (km/s) = 2.84570 3.34135 3.10343
# Velocity P-wave (km/s) = 6.01762 6.75958 6.39936
#
# Compressibility (1/GPa) = 0.02069992
#
# Stress axis : x y z
#
# Youngs Moduli (GPa) = 85.70935 53.23081 37.69143
#
# Poissons Ratio (x) = 0.34739 0.08440
# Poissons Ratio (y) = 0.55935 0.35344
# Poissons Ratio (z) = 0.19191 0.49915
#
# Static dielectric constant tensor:
#      x y z
#    x 3.495790 0.000000 0.000000 
#    y 0.000000 3.647200 0.000000 
#    z 0.000000 0.000000 3.385660 
# 
# 
# High freq. dielectric constant tensor:
#      x y z
#    x 1.725990 0.000000 0.000000 
#    y 0.000000 1.744430 0.000000 
#    z 0.000000 0.000000 1.723960 
# 
# From -- ./inp_files/11112.got.cif
#   From: 2010.06.25/outbox.cif.g09.slc.cpg/sg71_6_cif.got.tgz:11112.got - 2010.06.28 04:59:45.
