data_PCOD8287909
_publ_section_title
;
Structure prediction by ZEFSAII (Michael W. Deem and Ramdas Pophale) SiO2 
 PCOD8287909
Probable space group: I M M M
;
_chemical_formula_sum "Si O2"
_cell_formula_units_Z 64
_cell_length_a 21.156219
_cell_length_b 9.750393
_cell_length_c 17.913721
_cell_angle_alpha 90.000000
_cell_angle_beta 90.000000
_cell_angle_gamma 90.000000
_cell_volume 3695.268336
_symmetry_space_group_name_H-M "I M M M"
_symmetry_group_IT_number 71
_symmetry_cell_setting 'orthorhombic'
loop_
_space_group_symop_operation_xyz
x,y,z
-x,-y,z
x,-y,-z
-x,y,-z
-x,-y,-z
x,y,-z
-x,y,z
x,-y,z
1/2+x,1/2+y,1/2+z
1/2-x,1/2-y,1/2+z
1/2+x,1/2-y,1/2-z
1/2-x,1/2+y,1/2-z
1/2-x,1/2-y,1/2-z
1/2+x,1/2+y,1/2-z
1/2-x,1/2+y,1/2+z
1/2+x,1/2-y,1/2+z
loop_
_atom_site_type_symbol
_atom_site_label
_atom_site_fract_x
_atom_site_fract_y
_atom_site_fract_z
Si Si1 0.226189 0.846859 0.354547
Si Si2 0.071814 0.150265 0.836687
Si Si3 0.340731 0.153383 0.245293
Si Si4 0.930014 0.755201 0.000000
Si Si5 0.206369 0.655344 0.000000
O O1 0.274845 0.861008 0.287179
O O2 0.169817 0.743897 0.329830
O O3 0.262256 0.779106 0.425825
O O4 0.198879 0.000000 0.371309
O O5 0.109576 0.273229 0.799211
O O6 0.000000 0.167234 0.810137
O O7 0.097864 0.000000 0.811971
O O8 0.076061 0.152729 0.926404
O O9 0.365468 0.000000 0.224790
O O10 0.869934 0.654303 0.000000
O O11 0.000000 0.680877 0.000000
O O12 0.227680 0.500000 0.000000
#
# Coordination Sequence:
#
# PCOD8287909 Si02
#       5
#    16  16  16   8   8
#     4   9  18  32  49  68  96 128 162 202 245 290
#     4  10  20  33  49  70  98 133 169 201 239 288
#     4  10  19  32  49  70  96 126 164 205 245 286
#     4  10  19  31  46  69 100 135 172 206 236 275
#     4  10  18  32  49  72  99 131 167 202 245 290
#
# _framework density 17.319447
#
# number of rings (size 3 to 8) (size 9 to 14) (size 15 to 20)
#    0.000    2.250    2.500    1.125    0.000    3.250 
#    0.000    3.125    0.000    0.000    0.000    0.875 
#    0.000    7.000    0.000    0.000    0.000    0.000 
#
# Total GULP energy -396457.177097 kJ/mol
# GULP energy per Si atom -12389.286784 kJ/mol
# Density = 1.728003 g / cm^3
# Si number density = 17.319447 Si / 1000 Ang^3
#
#
#
# Elastic Constant Matrix: (Units=GPa)
#
#
# Indices 1 2 3 4 5 6 
#
# 1 60.0533 48.5840 38.9416 0.0000 0.0000 0.0000
# 2 48.5840 126.9647 38.7354 0.0000 0.0000 0.0000
# 3 38.9416 38.7354 76.2844 0.0000 0.0000 0.0000
# 4 0.0000 0.0000 0.0000 19.3020 0.0000 0.0000
# 5 0.0000 0.0000 0.0000 0.0000 27.6652 0.0000
# 6 0.0000 0.0000 0.0000 0.0000 0.0000 23.6712
#
#
#
# Elastic Compliance Matrix: (Units=1/GPa)
#
#
# Indices 1 2 3 4 5 6 
#
# 1 0.030828 -0.008278 -0.011534 0.000000 0.000000 0.000000
# 2 -0.008278 0.011543 -0.001636 0.000000 0.000000 0.000000
# 3 -0.011534 -0.001636 0.019827 0.000000 0.000000 0.000000
# 4 0.000000 0.000000 0.000000 0.051808 0.000000 0.000000
# 5 0.000000 0.000000 0.000000 0.000000 0.036146 0.000000
# 6 0.000000 0.000000 0.000000 0.000000 0.000000 0.042245
#
#
# Mechanical properties :
#
#
# Convention : Reuss Voigt Hill
#
# Bulk Modulus (GPa) = 51.80370 57.31381 54.55876
# Shear Modulus (GPa) = 20.68463 23.26379 21.97421
#
# Velocity S-wave (km/s) = 3.45962 3.66897 3.56583
# Velocity P-wave (km/s) = 6.77748 7.14930 6.96587
#
# Compressibility (1/GPa) = 0.01930364
#
# Stress axis : x y z
#
# Youngs Moduli (GPa) = 32.43850 86.63493 50.43622
#
# Poissons Ratio (x) = 0.71713 0.58171
# Poissons Ratio (y) = 0.26851 0.08249
# Poissons Ratio (z) = 0.37413 0.14170
#
# Static dielectric constant tensor:
#      x y z
#    x 3.003140 0.000000 0.000000 
#    y 0.000000 3.435550 0.000000 
#    z 0.000000 0.000000 3.285530 
# 
# 
# High freq. dielectric constant tensor:
#      x y z
#    x 1.638260 0.000000 0.000000 
#    y 0.000000 1.667440 0.000000 
#    z 0.000000 0.000000 1.649390 
# 
# From -- ./inp_files/12122.got.cif
#   From: 2010.06.25/outbox.cif.g09.slc.cpg/sg71_7_cif.got.tgz:12122.got - 2010.06.28 04:59:45.
