data_PCOD8287838
_publ_section_title
;
Structure prediction by ZEFSAII (Michael W. Deem and Ramdas Pophale) SiO2 
 PCOD8287838
Probable space group: I M M M
;
_chemical_formula_sum "Si O2"
_cell_formula_units_Z 104
_cell_length_a 27.887041
_cell_length_b 22.979009
_cell_length_c 9.056935
_cell_angle_alpha 90.000000
_cell_angle_beta 90.000000
_cell_angle_gamma 90.000000
_cell_volume 5803.833986
_symmetry_space_group_name_H-M "I M M M"
_symmetry_group_IT_number 71
_symmetry_cell_setting 'orthorhombic'
loop_
_space_group_symop_operation_xyz
x,y,z
-x,-y,z
x,-y,-z
-x,y,-z
-x,-y,-z
x,y,-z
-x,y,z
x,-y,z
1/2+x,1/2+y,1/2+z
1/2-x,1/2-y,1/2+z
1/2+x,1/2-y,1/2-z
1/2-x,1/2+y,1/2-z
1/2-x,1/2-y,1/2-z
1/2+x,1/2+y,1/2-z
1/2-x,1/2+y,1/2+z
1/2+x,1/2-y,1/2+z
loop_
_atom_site_type_symbol
_atom_site_label
_atom_site_fract_x
_atom_site_fract_y
_atom_site_fract_z
Si Si1 0.000000 0.569260 0.334762
Si Si2 0.906986 0.433475 0.172153
Si Si3 0.300545 0.259596 0.831401
Si Si4 0.855540 0.137734 0.824959
Si Si5 0.767236 0.936434 0.826110
Si Si6 0.053908 0.065663 0.824711
Si Si7 0.325114 0.869988 0.833116
O O1 0.953222 0.593096 0.252901
O O2 0.000000 0.500000 0.329724
O O3 0.000000 0.593784 0.500000
O O4 0.897495 0.500000 0.219816
O O5 0.862363 0.395317 0.218389
O O6 0.916210 0.428173 0.000000
O O7 0.250000 0.250000 0.750000
O O8 0.337589 0.303739 0.754107
O O9 0.328602 0.199017 0.828966
O O10 0.290286 0.279229 0.000000
O O11 0.818771 0.087219 0.778205
O O12 0.907530 0.114029 0.768510
O O13 0.855428 0.149702 0.000000
O O14 0.726724 0.891168 0.774563
O O15 0.759065 0.000000 0.753225
O O16 0.765393 0.942440 0.000000
O O17 0.000000 0.083767 0.773354
O O18 0.065632 0.000000 0.766336
O O19 0.056648 0.064086 0.000000
O O20 0.335020 0.892945 0.000000
#
# Coordination Sequence:
#
# PCOD8287838 Si02
#       7
#     8  16  16  16  16  16  16
#     4   9  17  31  53  77 101 135 173 203 240 299
#     4  10  20  33  51  78 109 135 163 208 266 314
#     4  11  22  37  55  75 100 135 180 221 259 307
#     4  10  18  31  52  78 106 139 177 216 264 317
#     4   9  16  27  46  73 102 131 166 208 251 306
#     4   8  14  26  49  83 116 142 175 223 272 318
#     4  10  20  34  51  71  97 134 179 216 252 309
#
# _framework density 17.919188999999999
#
# number of rings (size 3 to 8) (size 9 to 14) (size 15 to 20)
#    0.000    2.385    1.538    2.538    0.000    5.538 
#    0.000    0.000    1.692    2.308    0.000    1.077 
#    0.000    0.000    0.000    0.000    0.000    0.000 
#
# Total GULP energy -644532.145854 kJ/mol
# GULP energy per Si atom -12394.848959 kJ/mol
# Density = 1.787840 g / cm^3
# Si number density = 17.919189 Si / 1000 Ang^3
#
#
#
# Elastic Constant Matrix: (Units=GPa)
#
#
# Indices 1 2 3 4 5 6 
#
# 1 142.9344 57.1170 40.3585 0.0000 0.0000 0.0000
# 2 57.1170 101.6441 29.1441 0.0000 0.0000 0.0000
# 3 40.3585 29.1441 62.9240 0.0000 0.0000 0.0000
# 4 0.0000 0.0000 0.0000 24.8974 0.0000 0.0000
# 5 0.0000 0.0000 0.0000 0.0000 19.4630 0.0000
# 6 0.0000 0.0000 0.0000 0.0000 0.0000 18.3888
#
#
#
# Elastic Compliance Matrix: (Units=1/GPa)
#
#
# Indices 1 2 3 4 5 6 
#
# 1 0.009970 -0.004346 -0.004382 0.000000 0.000000 0.000000
# 2 -0.004346 0.013239 -0.003344 0.000000 0.000000 0.000000
# 3 -0.004382 -0.003344 0.020252 0.000000 0.000000 0.000000
# 4 0.000000 0.000000 0.000000 0.040165 0.000000 0.000000
# 5 0.000000 0.000000 0.000000 0.000000 0.051380 0.000000
# 6 0.000000 0.000000 0.000000 0.000000 0.000000 0.054381
#
#
# Mechanical properties :
#
#
# Convention : Reuss Voigt Hill
#
# Bulk Modulus (GPa) = 51.76926 62.30464 57.03695
# Shear Modulus (GPa) = 22.73036 24.60869 23.66952
#
# Velocity S-wave (km/s) = 3.56545 3.70985 3.63837
# Velocity P-wave (km/s) = 6.77518 7.29355 7.03914
#
# Compressibility (1/GPa) = 0.01931648
#
# Stress axis : x y z
#
# Youngs Moduli (GPa) = 100.29906 75.53178 49.37885
#
# Poissons Ratio (x) = 0.32828 0.21636
# Poissons Ratio (y) = 0.43592 0.16514
# Poissons Ratio (z) = 0.43948 0.25261
#
# Static dielectric constant tensor:
#      x y z
#    x 3.507220 0.000000 0.000000 
#    y 0.000000 3.375680 0.000000 
#    z 0.000000 0.000000 3.090570 
# 
# 
# High freq. dielectric constant tensor:
#      x y z
#    x 1.698040 0.000000 0.000000 
#    y 0.000000 1.680990 0.000000 
#    z 0.000000 0.000000 1.664760 
# 
# From -- ./inp_files/15316.got.cif
#   From: 2010.06.25/outbox.cif.g09.slc.cpg/sg71_8_cif.got.tgz:15316.got - 2010.06.28 04:59:45.
