data_PCOD8287114
_publ_section_title
;
Structure prediction by ZEFSAII (Michael W. Deem and Ramdas Pophale) SiO2 
 PCOD8287114
Probable space group: I M M M
;
_chemical_formula_sum "Si O2"
_cell_formula_units_Z 96
_cell_length_a 25.897906
_cell_length_b 22.032946
_cell_length_c 8.887971
_cell_angle_alpha 90.000000
_cell_angle_beta 90.000000
_cell_angle_gamma 90.000000
_cell_volume 5071.539930
_symmetry_space_group_name_H-M "I M M M"
_symmetry_group_IT_number 71
_symmetry_cell_setting 'orthorhombic'
loop_
_space_group_symop_operation_xyz
x,y,z
-x,-y,z
x,-y,-z
-x,y,-z
-x,-y,-z
x,y,-z
-x,y,z
x,-y,z
1/2+x,1/2+y,1/2+z
1/2-x,1/2-y,1/2+z
1/2+x,1/2-y,1/2-z
1/2-x,1/2+y,1/2-z
1/2-x,1/2-y,1/2-z
1/2+x,1/2+y,1/2-z
1/2-x,1/2+y,1/2+z
1/2+x,1/2-y,1/2+z
loop_
_atom_site_type_symbol
_atom_site_label
_atom_site_fract_x
_atom_site_fract_y
_atom_site_fract_z
Si Si1 0.348756 0.705239 0.320984
Si Si2 0.853471 0.657486 0.178670
Si Si3 0.739831 0.628305 0.174599
Si Si4 0.914545 0.000000 0.823492
Si Si5 0.441995 0.068509 0.678963
Si Si6 0.191519 0.000000 0.671730
Si Si7 0.555988 0.628863 0.321193
O O1 0.346302 0.702718 0.500000
O O2 0.357477 0.773533 0.263036
O O3 0.296135 0.676172 0.260591
O O4 0.397742 0.668696 0.253822
O O5 0.798243 0.633048 0.234609
O O6 0.899877 0.615913 0.246285
O O7 0.857032 0.655278 0.000000
O O8 0.725070 0.559104 0.205561
O O9 0.736299 0.645628 0.000000
O O10 0.854368 0.000000 0.789185
O O11 0.940264 0.060523 0.755246
O O12 0.922957 0.000000 0.000000
O O13 0.440036 0.070238 0.500000
O O14 0.500000 0.086676 0.732977
O O15 0.428837 0.000000 0.734083
O O16 0.171022 0.000000 0.500000
O O17 0.561549 0.627646 0.500000
O O18 0.500000 0.655767 0.274229
#
# Coordination Sequence:
#
# PCOD8287114 Si02
#       7
#    16  16  16   8  16   8  16
#     4  10  19  32  49  70  96 126 158 195 236 277
#     4   9  18  29  45  68  94 126 161 191 228 283
#     4  10  20  33  48  68  96 128 159 193 235 280
#     4  10  17  30  50  68  90 123 159 196 236 276
#     4   8  14  25  42  66  97 128 155 190 237 282
#     4  10  20  31  47  69  93 124 160 197 234 274
#     4   9  17  28  45  69  93 119 154 194 235 278
#
# _framework density 18.929162999999999
#
# number of rings (size 3 to 8) (size 9 to 14) (size 15 to 20)
#    0.000    2.667    1.667    1.250    1.167    1.667 
#    0.000    3.333    0.000    2.500    0.000    0.000 
#    0.000    2.000    0.000    7.333    0.000    6.667 
#
# Total GULP energy -594918.291879 kJ/mol
# GULP energy per Si atom -12394.131081 kJ/mol
# Density = 1.888608 g / cm^3
# Si number density = 18.929163 Si / 1000 Ang^3
#
#
#
# Elastic Constant Matrix: (Units=GPa)
#
#
# Indices 1 2 3 4 5 6 
#
# 1 169.6237 84.7153 8.6830 0.0000 0.0000 0.0000
# 2 84.7153 145.7057 12.8763 0.0000 0.0000 0.0000
# 3 8.6830 12.8763 7.4769 0.0000 0.0000 0.0000
# 4 0.0000 0.0000 0.0000 8.9209 0.0000 0.0000
# 5 0.0000 0.0000 0.0000 0.0000 20.0265 0.0000
# 6 0.0000 0.0000 0.0000 0.0000 0.0000 26.8671
#
#
#
# Elastic Compliance Matrix: (Units=1/GPa)
#
#
# Indices 1 2 3 4 5 6 
#
# 1 0.008323 -0.004700 -0.001571 0.000000 0.000000 0.000000
# 2 -0.004700 0.010750 -0.013054 0.000000 0.000000 0.000000
# 3 -0.001571 -0.013054 0.158049 0.000000 0.000000 0.000000
# 4 0.000000 0.000000 0.000000 0.112096 0.000000 0.000000
# 5 0.000000 0.000000 0.000000 0.000000 0.049934 0.000000
# 6 0.000000 0.000000 0.000000 0.000000 0.000000 0.037220
#
#
# Mechanical properties :
#
#
# Convention : Reuss Voigt Hill
#
# Bulk Modulus (GPa) = 7.22169 59.48396 33.35282
# Shear Modulus (GPa) = 10.84175 25.59835 18.22005
#
# Velocity S-wave (km/s) = 2.39582 3.68138 3.10585
# Velocity P-wave (km/s) = 3.38773 7.04009 5.52447
#
# Compressibility (1/GPa) = 0.13847181
#
# Stress axis : x y z
#
# Youngs Moduli (GPa) = 120.14316 93.02617 6.32714
#
# Poissons Ratio (x) = 0.43727 0.00994
# Poissons Ratio (y) = 0.56473 0.08259
# Poissons Ratio (z) = 0.18876 1.21433
#
# Static dielectric constant tensor:
#      x y z
#    x 3.754960 0.000000 0.000000 
#    y 0.000000 3.789470 0.000000 
#    z 0.000000 0.000000 2.865070 
# 
# 
# High freq. dielectric constant tensor:
#      x y z
#    x 1.749730 0.000000 0.000000 
#    y 0.000000 1.746710 0.000000 
#    z 0.000000 0.000000 1.665790 
# 
# From -- ./inp_files/27592.got.cif
#   From: 2010.06.25/outbox.cif.g09.slc.cpg/sg71_14_cif.got.tgz:27592.got - 2010.06.28 04:59:45.
