data_PCOD8287669
_publ_section_title
;
Structure prediction by ZEFSAII (Michael W. Deem and Ramdas Pophale) SiO2 
 PCOD8287669
Probable space group: I M M M
;
_chemical_formula_sum "Si O2"
_cell_formula_units_Z 120
_cell_length_a 14.983084
_cell_length_b 30.608699
_cell_length_c 15.747013
_cell_angle_alpha 90.000000
_cell_angle_beta 90.000000
_cell_angle_gamma 90.000000
_cell_volume 7221.780279
_symmetry_space_group_name_H-M "I M M M"
_symmetry_group_IT_number 71
_symmetry_cell_setting 'orthorhombic'
loop_
_space_group_symop_operation_xyz
x,y,z
-x,-y,z
x,-y,-z
-x,y,-z
-x,-y,-z
x,y,-z
-x,y,z
x,-y,z
1/2+x,1/2+y,1/2+z
1/2-x,1/2-y,1/2+z
1/2+x,1/2-y,1/2-z
1/2-x,1/2+y,1/2-z
1/2-x,1/2-y,1/2-z
1/2+x,1/2+y,1/2-z
1/2-x,1/2+y,1/2+z
1/2+x,1/2-y,1/2+z
loop_
_atom_site_type_symbol
_atom_site_label
_atom_site_fract_x
_atom_site_fract_y
_atom_site_fract_z
Si Si1 0.898681 0.863092 0.208602
Si Si2 0.828872 0.248794 0.407683
Si Si3 0.101529 0.951659 0.280449
Si Si4 0.249767 0.166084 0.664332
Si Si5 0.902206 0.722195 0.235234
Si Si6 0.239592 0.571903 0.099046
Si Si7 0.399167 0.000000 0.399434
Si Si8 0.352116 0.708974 0.405488
O O1 0.882118 0.915611 0.206338
O O2 0.836679 0.841510 0.279110
O O3 0.876386 0.841217 0.118006
O O4 0.000000 0.852932 0.235321
O O5 0.878293 0.251233 0.500000
O O6 0.777580 0.202288 0.404609
O O7 0.893665 0.255393 0.327999
O O8 0.754438 0.286595 0.403442
O O9 0.168669 0.943203 0.357721
O O10 0.000000 0.947619 0.315576
O O11 0.117912 0.000000 0.241868
O O12 0.329757 0.184362 0.722699
O O13 0.283100 0.122250 0.618556
O O14 0.896492 0.759168 0.163252
O O15 0.000000 0.700736 0.230231
O O16 0.155721 0.542851 0.131196
O O17 0.254832 0.564760 0.000000
O O18 0.500000 0.000000 0.360256
O O19 0.407350 0.000000 0.500000
O O20 0.389571 0.718915 0.500000
#
# Coordination Sequence:
#
# PCOD8287669 Si02
#       8
#    16  16  16  16  16  16   8  16
#     4  10  18  30  50  71  96 126 159 202 247 289
#     4  10  19  33  51  71  98 134 167 203 252 298
#     4   9  18  31  48  71  98 128 159 195 247 305
#     4  10  19  34  48  69  98 131 165 206 247 290
#     4  11  21  34  50  71 102 134 167 208 250 297
#     4  10  19  31  48  70  95 127 166 205 248 295
#     4   9  18  32  47  65  93 127 163 206 248 288
#     4  10  19  33  52  72  96 127 167 211 249 292
#
# _framework density 16.616402000000001
#
# number of rings (size 3 to 8) (size 9 to 14) (size 15 to 20)
#    0.000    2.067    3.333    1.600    0.000    2.667 
#    0.000    0.667    0.000    2.800    0.000    1.867 
#    0.000    0.000    0.000    0.000    0.000   18.200 
#
# Total GULP energy -743568.263347 kJ/mol
# GULP energy per Si atom -12392.804389 kJ/mol
# Density = 1.657858 g / cm^3
# Si number density = 16.616402 Si / 1000 Ang^3
#
#
#
# Elastic Constant Matrix: (Units=GPa)
#
#
# Indices 1 2 3 4 5 6 
#
# 1 88.5413 44.9634 35.3312 0.0000 0.0000 0.0000
# 2 44.9634 119.5960 39.2091 -0.0001 0.0000 0.0000
# 3 35.3312 39.2091 94.4018 -0.0018 -0.0007 -0.0001
# 4 0.0000 -0.0001 -0.0018 19.6746 -0.0002 0.0000
# 5 0.0000 0.0000 -0.0007 -0.0002 9.7021 0.0000
# 6 0.0000 0.0000 -0.0001 0.0000 0.0000 21.6099
#
#
#
# Elastic Compliance Matrix: (Units=1/GPa)
#
#
# Indices 1 2 3 4 5 6 
#
# 1 0.015052 -0.004413 -0.003800 0.000000 0.000000 0.000000
# 2 -0.004413 0.010973 -0.002906 0.000000 0.000000 0.000000
# 3 -0.003800 -0.002906 0.013222 0.000001 0.000001 0.000000
# 4 0.000000 0.000000 0.000001 0.050827 0.000001 0.000000
# 5 0.000000 0.000000 0.000001 0.000001 0.103071 0.000000
# 6 0.000000 0.000000 0.000000 0.000000 0.000000 0.046275
#
#
# Mechanical properties :
#
#
# Convention : Reuss Voigt Hill
#
# Bulk Modulus (GPa) = 58.79398 60.17183 59.48290
# Shear Modulus (GPa) = 18.70358 22.39967 20.55162
#
# Velocity S-wave (km/s) = 3.35865 3.67556 3.52067
# Velocity P-wave (km/s) = 7.10638 7.36912 7.23894
#
# Compressibility (1/GPa) = 0.01700854
#
# Stress axis : x y z
#
# Youngs Moduli (GPa) = 66.43793 91.13023 75.62917
#
# Poissons Ratio (x) = 0.40215 0.28742
# Poissons Ratio (y) = 0.29318 0.21979
# Poissons Ratio (z) = 0.25249 0.26483
#
# Static dielectric constant tensor:
#      x y z
#    x 3.167660 0.000000 0.000000 
#    y 0.000000 3.375640 0.000000 
#    z 0.000000 0.000000 3.015570 
# 
# 
# High freq. dielectric constant tensor:
#      x y z
#    x 1.640040 0.000000 0.000000 
#    y 0.000000 1.638170 0.000000 
#    z 0.000000 0.000000 1.614080 
# 
# From -- ./inp_files/35443.got.cif
#   From: 2010.06.25/outbox.cif.g09.slc.cpg/sg71_18_cif.got.tgz:35443.got - 2010.06.28 04:59:45.
