data_PCOD8287540
_publ_section_title
;
Structure prediction by ZEFSAII (Michael W. Deem and Ramdas Pophale) SiO2 
 PCOD8287540
Probable space group: I M M M
;
_chemical_formula_sum "Si O2"
_cell_formula_units_Z 88
_cell_length_a 29.579868
_cell_length_b 17.774885
_cell_length_c 8.865720
_cell_angle_alpha 90.000000
_cell_angle_beta 90.000000
_cell_angle_gamma 90.000000
_cell_volume 4661.407197
_symmetry_space_group_name_H-M "I M M M"
_symmetry_group_IT_number 71
_symmetry_cell_setting 'orthorhombic'
loop_
_space_group_symop_operation_xyz
x,y,z
-x,-y,z
x,-y,-z
-x,y,-z
-x,-y,-z
x,y,-z
-x,y,z
x,-y,z
1/2+x,1/2+y,1/2+z
1/2-x,1/2-y,1/2+z
1/2+x,1/2-y,1/2-z
1/2-x,1/2+y,1/2-z
1/2-x,1/2-y,1/2-z
1/2+x,1/2+y,1/2-z
1/2-x,1/2+y,1/2+z
1/2+x,1/2-y,1/2+z
loop_
_atom_site_type_symbol
_atom_site_label
_atom_site_fract_x
_atom_site_fract_y
_atom_site_fract_z
Si Si1 0.446757 0.000000 0.820848
Si Si2 0.386621 0.130118 0.679330
Si Si3 0.550291 0.581802 0.179209
Si Si4 0.214526 0.644736 0.834947
Si Si5 0.797352 0.820749 0.834790
Si Si6 0.614148 0.289242 0.177494
O O1 0.421442 0.073077 0.756365
O O2 0.500000 0.000000 0.773219
O O3 0.442386 0.000000 0.000000
O O4 0.392180 0.125151 0.500000
O O5 0.334069 0.113895 0.725279
O O6 0.398216 0.213586 0.734059
O O7 0.500000 0.592392 0.242882
O O8 0.569238 0.500000 0.230756
O O9 0.579847 0.649331 0.243323
O O10 0.550199 0.585738 0.000000
O O11 0.215588 0.734126 0.852375
O O12 0.255464 0.626472 0.720552
O O13 0.223721 0.608788 0.000000
O O14 0.837068 0.824547 0.712728
O O15 0.812100 0.851052 0.000000
O O16 0.610086 0.273766 0.000000
#
# Coordination Sequence:
#
# PCOD8287540 Si02
#       6
#     8  16  16  16  16  16
#     4  11  25  43  61  81 107 141 183 231 280 329
#     4  10  21  37  57  80 107 140 178 221 273 326
#     4   8  15  29  49  73 101 134 173 216 261 309
#     4   8  15  28  47  72 100 131 170 211 254 311
#     4   9  16  26  44  72 105 138 171 211 260 312
#     4  10  18  29  51  81 110 140 178 224 272 323
#
# _framework density 18.878419000000001
#
# number of rings (size 3 to 8) (size 9 to 14) (size 15 to 20)
#    0.000    2.818    0.000    3.545    0.000    6.545 
#    0.000    1.818    2.000    3.818    0.000    5.091 
#    0.000    0.000    0.000    0.000    0.000    0.000 
#
# Total GULP energy -545147.529702 kJ/mol
# GULP energy per Si atom -12389.716584 kJ/mol
# Density = 1.883545 g / cm^3
# Si number density = 18.878419 Si / 1000 Ang^3
#
#
#
# Elastic Constant Matrix: (Units=GPa)
#
#
# Indices 1 2 3 4 5 6 
#
# 1 126.6451 73.4622 43.0178 0.0000 0.0000 0.0000
# 2 73.4622 92.1248 32.6311 0.0000 0.0000 0.0000
# 3 43.0178 32.6311 72.2962 0.0000 0.0000 0.0000
# 4 0.0000 0.0000 0.0000 8.1521 0.0000 0.0000
# 5 0.0000 0.0000 0.0000 0.0000 20.1213 0.0000
# 6 0.0000 0.0000 0.0000 0.0000 0.0000 23.1637
#
#
#
# Elastic Compliance Matrix: (Units=1/GPa)
#
#
# Indices 1 2 3 4 5 6 
#
# 1 0.015796 -0.011030 -0.004420 0.000000 0.000000 0.000000
# 2 -0.011030 0.020623 -0.002745 0.000000 0.000000 0.000000
# 3 -0.004420 -0.002745 0.017701 0.000000 0.000000 0.000000
# 4 0.000000 0.000000 0.000000 0.122668 0.000000 0.000000
# 5 0.000000 0.000000 0.000000 0.000000 0.049699 0.000000
# 6 0.000000 0.000000 0.000000 0.000000 0.000000 0.043171
#
#
# Mechanical properties :
#
#
# Convention : Reuss Voigt Hill
#
# Bulk Modulus (GPa) = 56.40549 65.47648 60.94099
# Shear Modulus (GPa) = 16.02783 19.75107 17.88945
#
# Velocity S-wave (km/s) = 2.91693 3.23805 3.08167
# Velocity P-wave (km/s) = 6.42556 6.98130 6.70918
#
# Compressibility (1/GPa) = 0.01772877
#
# Stress axis : x y z
#
# Youngs Moduli (GPa) = 63.30828 48.49005 56.49352
#
# Poissons Ratio (x) = 0.53485 0.24972
# Poissons Ratio (y) = 0.69830 0.15507
# Poissons Ratio (z) = 0.27984 0.13310
#
# Static dielectric constant tensor:
#      x y z
#    x 3.722920 0.000000 0.000000 
#    y 0.000000 3.308170 0.000000 
#    z 0.000000 0.000000 3.510070 
# 
# 
# High freq. dielectric constant tensor:
#      x y z
#    x 1.735670 0.000000 0.000000 
#    y 0.000000 1.702410 0.000000 
#    z 0.000000 0.000000 1.725860 
# 
# From -- ./inp_files/16652.got.cif
#   From: 2010.06.25/outbox.cif.g09.slc.cpg/sg71_9_cif.got.tgz:16652.got - 2010.06.28 04:59:45.
