data_PCOD8287738
_publ_section_title
;
Structure prediction by ZEFSAII (Michael W. Deem and Ramdas Pophale) SiO2 
 PCOD8287738
Probable space group: I M M M
;
_chemical_formula_sum "Si O2"
_cell_formula_units_Z 88
_cell_length_a 7.616352
_cell_length_b 19.660307
_cell_length_c 28.857600
_cell_angle_alpha 90.000000
_cell_angle_beta 90.000000
_cell_angle_gamma 90.000000
_cell_volume 4321.131788
_symmetry_space_group_name_H-M "I M M M"
_symmetry_group_IT_number 71
_symmetry_cell_setting 'orthorhombic'
loop_
_space_group_symop_operation_xyz
x,y,z
-x,-y,z
x,-y,-z
-x,y,-z
-x,-y,-z
x,y,-z
-x,y,z
x,-y,z
1/2+x,1/2+y,1/2+z
1/2-x,1/2-y,1/2+z
1/2+x,1/2-y,1/2-z
1/2-x,1/2+y,1/2-z
1/2-x,1/2-y,1/2-z
1/2+x,1/2+y,1/2-z
1/2-x,1/2+y,1/2+z
1/2+x,1/2-y,1/2+z
loop_
_atom_site_type_symbol
_atom_site_label
_atom_site_fract_x
_atom_site_fract_y
_atom_site_fract_z
Si Si1 0.291844 0.812408 0.947768
Si Si2 0.209486 0.304828 0.808321
Si Si3 0.210020 0.576660 0.624038
Si Si4 0.798668 0.832513 0.408376
Si Si5 0.199038 0.344991 0.710591
Si Si6 0.500000 0.074793 0.445928
O O1 0.500000 0.815617 0.949344
O O2 0.217985 0.875400 0.917388
O O3 0.231733 0.741976 0.924087
O O4 0.214971 0.817182 0.000000
O O5 0.277475 0.343540 0.853395
O O6 0.282663 0.344482 0.762415
O O7 0.292145 0.230220 0.810594
O O8 0.000000 0.299351 0.806842
O O9 0.277291 0.500000 0.615548
O O10 0.287453 0.603362 0.673570
O O11 0.000000 0.580223 0.624910
O O12 0.678068 0.887764 0.432274
O O13 0.000000 0.844665 0.423390
O O14 0.000000 0.368310 0.715943
O O15 0.500000 0.067237 0.500000
O O16 0.500000 0.000000 0.422647
#
# Coordination Sequence:
#
# PCOD8287738 Si02
#       6
#    16  16  16  16  16   8
#     4   9  17  29  49  79 111 146 192 240 284 336
#     4  10  18  30  53  83 114 147 197 250 298 348
#     4   9  16  27  45  72 110 153 193 237 290 344
#     4  11  21  38  64  91 120 155 194 242 297 353
#     4   9  17  30  49  77 113 151 197 248 300 353
#     4  11  26  46  66  92 123 151 189 239 299 375
#
# _framework density 20.365034999999999
#
# number of rings (size 3 to 8) (size 9 to 14) (size 15 to 20)
#    0.000    2.273    2.727    1.091    0.000    2.545 
#    0.000    3.636    0.000    0.545    0.000    0.000 
#    0.000    3.636    0.000    0.182    0.000    0.000 
#
# Total GULP energy -545350.709064 kJ/mol
# GULP energy per Si atom -12394.334297 kJ/mol
# Density = 2.031868 g / cm^3
# Si number density = 20.365035 Si / 1000 Ang^3
#
#
#
# Elastic Constant Matrix: (Units=GPa)
#
#
# Indices 1 2 3 4 5 6 
#
# 1 48.6973 30.0140 20.3955 0.0000 0.0000 0.0000
# 2 30.0140 151.1286 79.4694 0.0000 0.0000 0.0000
# 3 20.3955 79.4694 151.7692 0.0000 0.0000 0.0000
# 4 0.0000 0.0000 0.0000 30.8234 0.0000 0.0000
# 5 0.0000 0.0000 0.0000 0.0000 14.4955 0.0000
# 6 0.0000 0.0000 0.0000 0.0000 0.0000 11.2877
#
#
#
# Elastic Compliance Matrix: (Units=1/GPa)
#
#
# Indices 1 2 3 4 5 6 
#
# 1 0.023506 -0.004150 -0.000986 0.000000 0.000000 0.000000
# 2 -0.004150 0.009864 -0.004607 0.000000 0.000000 0.000000
# 3 -0.000986 -0.004607 0.009134 0.000000 0.000000 0.000000
# 4 0.000000 0.000000 0.000000 0.032443 0.000000 0.000000
# 5 0.000000 0.000000 0.000000 0.000000 0.068987 0.000000
# 6 0.000000 0.000000 0.000000 0.000000 0.000000 0.088592
#
#
# Mechanical properties :
#
#
# Convention : Reuss Voigt Hill
#
# Bulk Modulus (GPa) = 43.44529 67.92809 55.68669
# Shear Modulus (GPa) = 19.25425 26.10241 22.67833
#
# Velocity S-wave (km/s) = 3.07816 3.58401 3.34067
# Velocity P-wave (km/s) = 5.83207 7.11017 6.50260
#
# Compressibility (1/GPa) = 0.02301745
#
# Stress axis : x y z
#
# Youngs Moduli (GPa) = 42.54312 101.38259 109.48317
#
# Poissons Ratio (x) = 0.42071 0.10794
# Poissons Ratio (y) = 0.17654 0.50440
# Poissons Ratio (z) = 0.04194 0.46708
#
# Static dielectric constant tensor:
#      x y z
#    x 2.981780 0.000000 0.000000 
#    y 0.000000 3.678070 0.000000 
#    z 0.000000 0.000000 4.118010 
# 
# 
# High freq. dielectric constant tensor:
#      x y z
#    x 1.772860 0.000000 0.000000 
#    y 0.000000 1.765020 0.000000 
#    z 0.000000 0.000000 1.813580 
# 
# From -- ./inp_files/68011.got.cif
#   From: 2010.06.25/outbox.cif.g09.slc.cpg/sg71_35_cif.got.tgz:68011.got - 2010.06.28 04:59:45.
