data_PCOD8287214
_publ_section_title
;
Structure prediction by ZEFSAII (Michael W. Deem and Ramdas Pophale) SiO2 
 PCOD8287214
Probable space group: I M M M
;
_chemical_formula_sum "Si O2"
_cell_formula_units_Z 128
_cell_length_a 23.423308
_cell_length_b 8.903395
_cell_length_c 34.695733
_cell_angle_alpha 90.000000
_cell_angle_beta 90.000000
_cell_angle_gamma 90.000000
_cell_volume 7235.689758
_symmetry_space_group_name_H-M "I M M M"
_symmetry_group_IT_number 71
_symmetry_cell_setting 'orthorhombic'
loop_
_space_group_symop_operation_xyz
x,y,z
-x,-y,z
x,-y,-z
-x,y,-z
-x,-y,-z
x,y,-z
-x,y,z
x,-y,z
1/2+x,1/2+y,1/2+z
1/2-x,1/2-y,1/2+z
1/2+x,1/2-y,1/2-z
1/2-x,1/2+y,1/2-z
1/2-x,1/2-y,1/2-z
1/2+x,1/2+y,1/2-z
1/2-x,1/2+y,1/2+z
1/2+x,1/2-y,1/2+z
loop_
_atom_site_type_symbol
_atom_site_label
_atom_site_fract_x
_atom_site_fract_y
_atom_site_fract_z
Si Si1 0.128988 0.177108 0.267611
Si Si2 0.169444 0.820916 0.386751
Si Si3 0.435267 0.179048 0.616156
Si Si4 0.737976 0.678808 0.042347
Si Si5 0.135290 0.678488 0.809978
Si Si6 0.062859 0.821450 0.343062
Si Si7 0.763342 0.178053 0.686617
Si Si8 0.633605 0.821384 0.457042
O O1 0.107095 0.259802 0.229166
O O2 0.087227 0.230273 0.301810
O O3 0.194238 0.226118 0.278514
O O4 0.125188 0.000000 0.261177
O O5 0.192575 0.754381 0.427108
O O6 0.104898 0.765624 0.377439
O O7 0.211031 0.760858 0.353364
O O8 0.170798 0.000000 0.387434
O O9 0.500000 0.239248 0.619202
O O10 0.399353 0.238865 0.652887
O O11 0.407803 0.242506 0.576382
O O12 0.434254 0.000000 0.615714
O O13 0.737770 0.500000 0.043939
O O14 0.802073 0.735076 0.051737
O O15 0.719355 0.735153 0.000000
O O16 0.134364 0.500000 0.809542
O O17 0.199775 0.744533 0.809878
O O18 0.000000 0.751581 0.349579
O O19 0.060174 0.000000 0.343498
O O20 0.760202 0.000000 0.685049
O O21 0.614385 0.766276 0.500000
O O22 0.632186 0.000000 0.456234
#
# Coordination Sequence:
#
# PCOD8287214 Si02
#       8
#    16  16  16  16  16  16  16  16
#     4   9  17  28  41  57  75  95 125 164 195 219
#     4   8  12  19  32  48  67  91 119 153 188 219
#     4   9  17  26  34  48  72 100 127 152 182 225
#     4   8  12  17  27  45  67  90 118 151 186 224
#     4  10  18  27  40  56  77 103 125 150 190 236
#     4   8  14  24  37  51  65  86 121 160 190 216
#     4   8  14  24  38  55  72  93 124 158 190 224
#     4   8  13  21  33  48  67  94 126 155 182 216
#
# _framework density 17.690089
#
# number of rings (size 3 to 8) (size 9 to 14) (size 15 to 20)
#    0.000    3.500    0.000    3.375    0.000    3.750 
#    0.000    1.250    0.000    0.375    0.000    2.625 
#    0.000    0.500    0.000    1.125    0.000   24.125 
#
# Total GULP energy -792930.048162 kJ/mol
# GULP energy per Si atom -12389.532003 kJ/mol
# Density = 1.764983 g / cm^3
# Si number density = 17.690089 Si / 1000 Ang^3
#
#
#
# Elastic Constant Matrix: (Units=GPa)
#
#
# Indices 1 2 3 4 5 6 
#
# 1 135.4451 7.0904 84.7198 0.0000 0.0000 0.0000
# 2 7.0904 3.2628 9.4064 0.0000 0.0000 0.0000
# 3 84.7198 9.4064 160.8663 0.0000 0.0000 0.0000
# 4 0.0000 0.0000 0.0000 12.9210 0.0000 0.0000
# 5 0.0000 0.0000 0.0000 0.0000 23.2548 0.0000
# 6 0.0000 0.0000 0.0000 0.0000 0.0000 4.6308
#
#
#
# Elastic Compliance Matrix: (Units=1/GPa)
#
#
# Indices 1 2 3 4 5 6 
#
# 1 0.011218 -0.008835 -0.005391 0.000000 0.000000 0.000000
# 2 -0.008835 0.375582 -0.017309 0.000000 0.000000 0.000000
# 3 -0.005391 -0.017309 0.010068 0.000000 0.000000 0.000000
# 4 0.000000 0.000000 0.000000 0.077393 0.000000 0.000000
# 5 0.000000 0.000000 0.000000 0.000000 0.043002 0.000000
# 6 0.000000 0.000000 0.000000 0.000000 0.000000 0.215947
#
#
# Mechanical properties :
#
#
# Convention : Reuss Voigt Hill
#
# Bulk Modulus (GPa) = 2.99582 55.77860 29.38721
# Shear Modulus (GPa) = 5.50937 21.38516 13.44726
#
# Velocity S-wave (km/s) = 1.76668 3.48066 2.76009
# Velocity P-wave (km/s) = 2.42048 6.91034 5.17743
#
# Compressibility (1/GPa) = 0.33379796
#
# Stress axis : x y z
#
# Youngs Moduli (GPa) = 89.14497 2.66253 99.32772
#
# Poissons Ratio (x) = 0.02352 0.53549
# Poissons Ratio (y) = 0.78758 1.71924
# Poissons Ratio (z) = 0.48059 0.04609
#
# Static dielectric constant tensor:
#      x y z
#    x 3.633660 0.000000 0.000000 
#    y 0.000000 2.459560 0.000000 
#    z 0.000000 0.000000 3.588780 
# 
# 
# High freq. dielectric constant tensor:
#      x y z
#    x 1.681710 0.000000 0.000000 
#    y 0.000000 1.598770 0.000000 
#    z 0.000000 0.000000 1.691720 
# 
# From -- ./inp_files/67021.got.cif
#   From: 2010.06.25/outbox.cif.g09.slc.cpg/sg71_34_cif.got.tgz:67021.got - 2010.06.28 04:59:45.
