data_PCOD8287013
_publ_section_title
;
Structure prediction by ZEFSAII (Michael W. Deem and Ramdas Pophale) SiO2 
 PCOD8287013
Probable space group: I M M M
;
_chemical_formula_sum "Si O2"
_cell_formula_units_Z 128
_cell_length_a 12.549288
_cell_length_b 21.542008
_cell_length_c 29.781785
_cell_angle_alpha 90.000000
_cell_angle_beta 90.000000
_cell_angle_gamma 90.000000
_cell_volume 8051.114316
_symmetry_space_group_name_H-M "I M M M"
_symmetry_group_IT_number 71
_symmetry_cell_setting 'orthorhombic'
loop_
_space_group_symop_operation_xyz
x,y,z
-x,-y,z
x,-y,-z
-x,y,-z
-x,-y,-z
x,y,-z
-x,y,z
x,-y,z
1/2+x,1/2+y,1/2+z
1/2-x,1/2-y,1/2+z
1/2+x,1/2-y,1/2-z
1/2-x,1/2+y,1/2-z
1/2-x,1/2-y,1/2-z
1/2+x,1/2+y,1/2-z
1/2-x,1/2+y,1/2+z
1/2+x,1/2-y,1/2+z
loop_
_atom_site_type_symbol
_atom_site_label
_atom_site_fract_x
_atom_site_fract_y
_atom_site_fract_z
Si Si1 0.125853 0.069640 0.049603
Si Si2 0.236410 0.571721 0.286537
Si Si3 0.377863 0.815882 0.756005
Si Si4 0.373454 0.568486 0.949683
Si Si5 0.625993 0.633504 0.360054
Si Si6 0.229629 0.744717 0.823809
Si Si7 0.377899 0.338720 0.875850
Si Si8 0.881299 0.068208 0.294752
O O1 0.159095 0.119020 0.088173
O O2 0.000000 0.066541 0.047592
O O3 0.169028 0.000000 0.060788
O O4 0.168943 0.090590 0.000000
O O5 0.201883 0.500000 0.286480
O O6 0.133547 0.614158 0.275893
O O7 0.300520 0.586549 0.331749
O O8 0.312920 0.592170 0.246325
O O9 0.500000 0.796335 0.758379
O O10 0.314203 0.771297 0.788967
O O11 0.339365 0.806030 0.704166
O O12 0.500000 0.566789 0.946009
O O13 0.330329 0.500000 0.935294
O O14 0.331129 0.623893 0.918487
O O15 0.335721 0.583553 0.000000
O O16 0.500000 0.621041 0.352044
O O17 0.652731 0.703862 0.345929
O O18 0.296283 0.716553 0.865483
O O19 0.500000 0.315043 0.883341
O O20 0.372392 0.385401 0.835046
O O21 0.000000 0.065234 0.275781
O O22 0.843893 0.000000 0.311114
#
# Coordination Sequence:
#
# PCOD8287013 Si02
#       8
#    16  16  16  16  16  16  16  16
#     4   8  14  26  45  68  91 113 137 170 221 278
#     4  10  19  30  45  67  90 112 144 183 221 265
#     4  10  20  34  47  59  85 122 154 185 220 259
#     4   8  14  25  42  65  91 117 144 177 225 278
#     4  10  19  30  46  66  91 120 149 183 223 261
#     4  10  20  32  44  65  85 118 160 190 212 254
#     4  10  17  27  44  63  87 118 150 186 221 258
#     4   9  16  25  39  62  89 113 138 176 226 266
#
# _framework density 15.89842
#
# number of rings (size 3 to 8) (size 9 to 14) (size 15 to 20)
#    0.000    2.625    1.250    2.625    0.000    3.000 
#    0.000    0.625    0.000    0.000    0.000    0.000 
#    0.000    4.500    0.000   45.625    0.000    3.625 
#
# Total GULP energy -792982.888034 kJ/mol
# GULP energy per Si atom -12390.357626 kJ/mol
# Density = 1.586223 g / cm^3
# Si number density = 15.898420 Si / 1000 Ang^3
#
#
#
# Elastic Constant Matrix: (Units=GPa)
#
#
# Indices 1 2 3 4 5 6 
#
# 1 44.0914 20.0896 23.0773 0.0000 0.0000 0.0000
# 2 20.0896 73.9856 38.7515 0.0000 0.0000 0.0000
# 3 23.0773 38.7515 88.6986 0.0000 0.0000 0.0000
# 4 0.0000 0.0000 0.0000 25.2716 0.0000 0.0000
# 5 0.0000 0.0000 0.0000 0.0000 7.7963 0.0000
# 6 0.0000 0.0000 0.0000 0.0000 0.0000 9.0210
#
#
#
# Elastic Compliance Matrix: (Units=1/GPa)
#
#
# Indices 1 2 3 4 5 6 
#
# 1 0.027524 -0.004828 -0.005052 0.000000 0.000000 0.000000
# 2 -0.004828 0.018374 -0.006771 0.000000 0.000000 0.000000
# 3 -0.005052 -0.006771 0.015547 0.000000 0.000000 0.000000
# 4 0.000000 0.000000 0.000000 0.039570 0.000000 0.000000
# 5 0.000000 0.000000 0.000000 0.000000 0.128265 0.000000
# 6 0.000000 0.000000 0.000000 0.000000 0.000000 0.110853
#
#
# Mechanical properties :
#
#
# Convention : Reuss Voigt Hill
#
# Bulk Modulus (GPa) = 35.53309 41.17917 38.35613
# Shear Modulus (GPa) = 13.06113 16.74159 14.90136
#
# Velocity S-wave (km/s) = 2.86936 3.24857 3.06483
# Velocity P-wave (km/s) = 5.77721 6.32682 6.05825
#
# Compressibility (1/GPa) = 0.02814279
#
# Stress axis : x y z
#
# Youngs Moduli (GPa) = 36.33196 54.42610 64.32196
#
# Poissons Ratio (x) = 0.26275 0.32495
# Poissons Ratio (y) = 0.17540 0.43553
# Poissons Ratio (z) = 0.18355 0.36853
#
# Static dielectric constant tensor:
#      x y z
#    x 2.742060 0.000000 0.000000 
#    y 0.000000 3.219110 0.000000 
#    z 0.000000 0.000000 3.336670 
# 
# 
# High freq. dielectric constant tensor:
#      x y z
#    x 1.569310 0.000000 0.000000 
#    y 0.000000 1.609390 0.000000 
#    z 0.000000 0.000000 1.609200 
# 
# From -- ./inp_files/64952.got.cif
#   From: 2010.06.25/outbox.cif.g09.slc.cpg/sg71_33_cif.got.tgz:64952.got - 2010.06.28 04:59:45.
