data_PCOD8287698
_publ_section_title
;
Structure prediction by ZEFSAII (Michael W. Deem and Ramdas Pophale) SiO2 
 PCOD8287698
Probable space group: I M M M
;
_chemical_formula_sum "Si O2"
_cell_formula_units_Z 80
_cell_length_a 20.599197
_cell_length_b 23.564874
_cell_length_c 10.107853
_cell_angle_alpha 90.000000
_cell_angle_beta 90.000000
_cell_angle_gamma 90.000000
_cell_volume 4906.528550
_symmetry_space_group_name_H-M "I M M M"
_symmetry_group_IT_number 71
_symmetry_cell_setting 'orthorhombic'
loop_
_space_group_symop_operation_xyz
x,y,z
-x,-y,z
x,-y,-z
-x,y,-z
-x,-y,-z
x,y,-z
-x,y,z
x,-y,z
1/2+x,1/2+y,1/2+z
1/2-x,1/2-y,1/2+z
1/2+x,1/2-y,1/2-z
1/2-x,1/2+y,1/2-z
1/2-x,1/2-y,1/2-z
1/2+x,1/2+y,1/2-z
1/2-x,1/2+y,1/2+z
1/2+x,1/2-y,1/2+z
loop_
_atom_site_type_symbol
_atom_site_label
_atom_site_fract_x
_atom_site_fract_y
_atom_site_fract_z
Si Si1 0.169202 0.435883 0.000000
Si Si2 0.720142 0.323832 0.655166
Si Si3 0.762338 0.563333 0.727524
Si Si4 0.922494 0.335390 0.000000
Si Si5 0.074800 0.316444 0.500000
Si Si6 0.133971 0.436932 0.500000
Si Si7 0.853812 0.721383 0.245124
O O1 0.214051 0.422960 0.125495
O O2 0.143854 0.500000 0.000000
O O3 0.103691 0.399442 0.000000
O O4 0.730710 0.311080 0.500000
O O5 0.707671 0.390911 0.682667
O O6 0.785253 0.310071 0.737546
O O7 0.660240 0.287534 0.711547
O O8 0.732334 0.500000 0.717049
O O9 0.823512 0.569617 0.630947
O O10 0.895894 0.304168 0.128113
O O11 0.000000 0.336134 0.000000
O O12 0.083569 0.384919 0.500000
O O13 0.104835 0.284343 0.376137
O O14 0.000000 0.303241 0.500000
O O15 0.100431 0.500000 0.500000
#
# Coordination Sequence:
#
# PCOD8287698 Si02
#       7
#     8  16  16   8   8   8  16
#     4  10  20  32  45  70 102 134 178 215 243 286
#     4  11  19  33  56  74 103 126 168 220 257 324
#     4  10  18  30  51  74 102 133 165 209 260 303
#     4  12  22  35  50  69 102 140 182 216 246 293
#     4  12  22  37  52  71 106 140 180 216 246 299
#     4  10  18  32  49  70 100 136 182 215 241 286
#     4  11  22  34  50  78  97 132 176 209 268 299
#
# _framework density 16.304805999999999
#
# number of rings (size 3 to 8) (size 9 to 14) (size 15 to 20)
#    0.000    1.200    7.000    0.600    0.000    1.200 
#    0.000    0.000    0.000    6.000    0.000    0.000 
#    0.000    4.800    0.000    0.000    0.000    0.000 
#
# Total GULP energy -495879.790830 kJ/mol
# GULP energy per Si atom -12396.994771 kJ/mol
# Density = 1.626770 g / cm^3
# Si number density = 16.304806 Si / 1000 Ang^3
#
#
#
# Elastic Constant Matrix: (Units=GPa)
#
#
# Indices 1 2 3 4 5 6 
#
# 1 59.2252 58.0411 31.2938 0.0000 0.0000 0.0000
# 2 58.0411 136.4082 43.8154 0.0000 0.0000 0.0000
# 3 31.2938 43.8154 122.5356 0.0000 0.0000 0.0000
# 4 0.0000 0.0000 0.0000 26.0343 0.0000 0.0000
# 5 0.0000 0.0000 0.0000 0.0000 22.0830 0.0000
# 6 0.0000 0.0000 0.0000 0.0000 0.0000 21.5338
#
#
#
# Elastic Compliance Matrix: (Units=1/GPa)
#
#
# Indices 1 2 3 4 5 6 
#
# 1 0.030254 -0.011739 -0.003529 0.000000 0.000000 0.000000
# 2 -0.011739 0.012837 -0.001592 0.000000 0.000000 0.000000
# 3 -0.003529 -0.001592 0.009631 0.000000 0.000000 0.000000
# 4 0.000000 0.000000 0.000000 0.038411 0.000000 0.000000
# 5 0.000000 0.000000 0.000000 0.000000 0.045284 0.000000
# 6 0.000000 0.000000 0.000000 0.000000 0.000000 0.046439
#
#
# Mechanical properties :
#
#
# Convention : Reuss Voigt Hill
#
# Bulk Modulus (GPa) = 52.62595 64.94105 58.78350
# Shear Modulus (GPa) = 22.43048 26.26480 24.34764
#
# Velocity S-wave (km/s) = 3.71306 4.01791 3.86849
# Velocity P-wave (km/s) = 7.12242 7.83841 7.48898
#
# Compressibility (1/GPa) = 0.01900203
#
# Stress axis : x y z
#
# Youngs Moduli (GPa) = 33.05348 77.89690 103.82693
#
# Poissons Ratio (x) = 0.91447 0.36637
# Poissons Ratio (y) = 0.38803 0.16532
# Poissons Ratio (z) = 0.11664 0.12403
#
# Static dielectric constant tensor:
#      x y z
#    x 2.675950 0.000000 0.000000 
#    y 0.000000 3.541610 0.000000 
#    z 0.000000 0.000000 3.227660 
# 
# 
# High freq. dielectric constant tensor:
#      x y z
#    x 1.566380 0.000000 0.000000 
#    y 0.000000 1.639130 0.000000 
#    z 0.000000 0.000000 1.655260 
# 
# From -- ./inp_files/10337.got.cif
#   From: 2010.06.25/outbox.cif.g09.slc.cpg/sg71_6_cif.got.tgz:10337.got - 2010.06.28 04:59:45.
