data_PCOD8287967
_publ_section_title
;
Structure prediction by ZEFSAII (Michael W. Deem and Ramdas Pophale) SiO2 
 PCOD8287967
Probable space group: I M M M
;
_chemical_formula_sum "Si O2"
_cell_formula_units_Z 120
_cell_length_a 32.885793
_cell_length_b 14.912401
_cell_length_c 13.945020
_cell_angle_alpha 90.000000
_cell_angle_beta 90.000000
_cell_angle_gamma 90.000000
_cell_volume 6838.723325
_symmetry_space_group_name_H-M "I M M M"
_symmetry_group_IT_number 71
_symmetry_cell_setting 'orthorhombic'
loop_
_space_group_symop_operation_xyz
x,y,z
-x,-y,z
x,-y,-z
-x,y,-z
-x,-y,-z
x,y,-z
-x,y,z
x,-y,z
1/2+x,1/2+y,1/2+z
1/2-x,1/2-y,1/2+z
1/2+x,1/2-y,1/2-z
1/2-x,1/2+y,1/2-z
1/2-x,1/2-y,1/2-z
1/2+x,1/2+y,1/2-z
1/2-x,1/2+y,1/2+z
1/2+x,1/2-y,1/2+z
loop_
_atom_site_type_symbol
_atom_site_label
_atom_site_fract_x
_atom_site_fract_y
_atom_site_fract_z
Si Si1 0.383663 0.393711 0.107191
Si Si2 0.046369 0.896663 0.748893
Si Si3 0.805421 0.895321 0.723293
Si Si4 0.045993 0.400566 0.782702
Si Si5 0.676117 0.272597 0.391567
Si Si6 0.223873 0.400143 0.888641
Si Si7 0.452052 0.000000 0.894940
Si Si8 0.418548 0.260393 0.609714
O O1 0.381654 0.500000 0.099972
O O2 0.424326 0.363281 0.163278
O O3 0.343874 0.358222 0.162899
O O4 0.384830 0.352309 0.000000
O O5 0.054771 0.839019 0.843765
O O6 0.000000 0.882942 0.714806
O O7 0.055141 0.000000 0.775111
O O8 0.801879 0.843837 0.823741
O O9 0.764901 0.873751 0.665396
O O10 0.810593 0.000000 0.745556
O O11 0.048431 0.500000 0.830716
O O12 0.058981 0.411672 0.669519
O O13 0.075813 0.333662 0.836282
O O14 0.000000 0.363037 0.790419
O O15 0.690352 0.292900 0.500000
O O16 0.688737 0.171020 0.362821
O O17 0.628267 0.285646 0.381672
O O18 0.208772 0.500000 0.858592
O O19 0.234917 0.398294 0.000000
O O20 0.500000 0.000000 0.909326
O O21 0.430402 0.000000 0.000000
O O22 0.432531 0.249939 0.500000
#
# Coordination Sequence:
#
# PCOD8287967 Si02
#       8
#    16  16  16  16  16  16   8  16
#     4   9  17  31  52  76 100 129 167 213 265 315
#     4  10  21  36  52  72 102 139 179 224 269 315
#     4  10  18  32  55  78 104 136 169 208 253 306
#     4   8  17  32  51  75  98 125 168 221 267 313
#     4  10  21  34  50  75 107 139 172 213 255 300
#     4   9  18  33  54  81 107 132 167 208 253 306
#     4   7  12  28  53  75  97 123 154 206 269 319
#     4  11  22  35  51  72 104 143 180 219 262 308
#
# _framework density 17.547134
#
# number of rings (size 3 to 8) (size 9 to 14) (size 15 to 20)
#    0.400    2.200    1.333    1.200    0.000    4.267 
#    0.000    6.000    0.000    1.600    0.000    0.000 
#    0.000    0.000    0.000    0.000    0.000    0.000 
#
# Total GULP energy -743690.672644 kJ/mol
# GULP energy per Si atom -12394.844544 kJ/mol
# Density = 1.750720 g / cm^3
# Si number density = 17.547134 Si / 1000 Ang^3
#
#
#
# Elastic Constant Matrix: (Units=GPa)
#
#
# Indices 1 2 3 4 5 6 
#
# 1 53.1789 18.8401 20.6851 0.0000 0.0000 0.0000
# 2 18.8401 64.3225 42.3418 0.0000 0.0000 0.0000
# 3 20.6851 42.3418 105.9011 0.0000 0.0000 0.0000
# 4 0.0000 0.0000 0.0000 25.0778 0.0000 0.0000
# 5 0.0000 0.0000 0.0000 0.0000 25.7774 0.0000
# 6 0.0000 0.0000 0.0000 0.0000 0.0000 25.4881
#
#
#
# Elastic Compliance Matrix: (Units=1/GPa)
#
#
# Indices 1 2 3 4 5 6 
#
# 1 0.021376 -0.004767 -0.002269 0.000000 0.000000 0.000000
# 2 -0.004767 0.022163 -0.007930 0.000000 0.000000 0.000000
# 3 -0.002269 -0.007930 0.013057 0.000000 0.000000 0.000000
# 4 0.000000 0.000000 0.000000 0.039876 0.000000 0.000000
# 5 0.000000 0.000000 0.000000 0.000000 0.038794 0.000000
# 6 0.000000 0.000000 0.000000 0.000000 0.000000 0.039234
#
#
# Mechanical properties :
#
#
# Convention : Reuss Voigt Hill
#
# Bulk Modulus (GPa) = 37.50581 43.01519 40.26050
# Shear Modulus (GPa) = 23.43891 24.70437 24.07164
#
# Velocity S-wave (km/s) = 3.65878 3.75625 3.70784
# Velocity P-wave (km/s) = 6.26655 6.58634 6.42843
#
# Compressibility (1/GPa) = 0.02666253
#
# Stress axis : x y z
#
# Youngs Moduli (GPa) = 46.78134 45.11966 76.58899
#
# Poissons Ratio (x) = 0.21510 0.17379
# Poissons Ratio (y) = 0.22302 0.60737
# Poissons Ratio (z) = 0.10616 0.35781
#
# Static dielectric constant tensor:
#      x y z
#    x 3.141130 0.000000 0.000000 
#    y 0.000000 3.114860 0.000000 
#    z 0.000000 0.000000 3.445590 
# 
# 
# High freq. dielectric constant tensor:
#      x y z
#    x 1.668860 0.000000 0.000000 
#    y 0.000000 1.663000 0.000000 
#    z 0.000000 0.000000 1.676370 
# 
# From -- ./inp_files/41170.got.cif
#   From: 2010.06.25/outbox.cif.g09.slc.cpg/sg71_21_cif.got.tgz:41170.got - 2010.06.28 04:59:45.
