data_PCOD8287235
_publ_section_title
;
Structure prediction by ZEFSAII (Michael W. Deem and Ramdas Pophale) SiO2 
 PCOD8287235
Probable space group: I M M M
;
_chemical_formula_sum "Si O2"
_cell_formula_units_Z 112
_cell_length_a 13.865166
_cell_length_b 13.860231
_cell_length_c 31.908509
_cell_angle_alpha 90.000000
_cell_angle_beta 90.000000
_cell_angle_gamma 90.000000
_cell_volume 6131.998687
_symmetry_space_group_name_H-M "I M M M"
_symmetry_group_IT_number 71
_symmetry_cell_setting 'orthorhombic'
loop_
_space_group_symop_operation_xyz
x,y,z
-x,-y,z
x,-y,-z
-x,y,-z
-x,-y,-z
x,y,-z
-x,y,z
x,-y,z
1/2+x,1/2+y,1/2+z
1/2-x,1/2-y,1/2+z
1/2+x,1/2-y,1/2-z
1/2-x,1/2+y,1/2-z
1/2-x,1/2-y,1/2-z
1/2+x,1/2+y,1/2-z
1/2-x,1/2+y,1/2+z
1/2+x,1/2-y,1/2+z
loop_
_atom_site_type_symbol
_atom_site_label
_atom_site_fract_x
_atom_site_fract_y
_atom_site_fract_z
Si Si1 0.885737 0.605029 0.046727
Si Si2 0.612081 0.109472 0.126213
Si Si3 0.885333 0.278301 0.288965
Si Si4 0.391591 0.609101 0.327403
Si Si5 0.730073 0.611506 0.244673
Si Si6 0.886967 0.796269 0.087972
Si Si7 0.278427 0.112664 0.045801
O O1 0.846804 0.500000 0.061573
O O2 0.852430 0.686397 0.079492
O O3 0.000000 0.602652 0.044917
O O4 0.846214 0.628401 0.000000
O O5 0.500000 0.107378 0.117233
O O6 0.636879 0.174220 0.166243
O O7 0.659697 0.156058 0.084464
O O8 0.650039 0.000000 0.134989
O O9 0.837401 0.344266 0.251909
O O10 0.833074 0.173145 0.288622
O O11 0.000000 0.269967 0.280556
O O12 0.500000 0.635849 0.313231
O O13 0.387326 0.500000 0.344409
O O14 0.322417 0.624245 0.288787
O O15 0.356047 0.678095 0.364763
O O16 0.735834 0.500000 0.229970
O O17 0.833648 0.865025 0.054781
O O18 0.000000 0.812347 0.080880
O O19 0.296713 0.000000 0.044312
O O20 0.307551 0.155997 0.000000
#
# Coordination Sequence:
#
# PCOD8287235 Si02
#       7
#    16  16  16  16  16  16  16
#     4   8  14  25  40  56  75 106 153 203 242 274
#     4   9  18  34  55  75  96 125 161 203 250 294
#     4  10  20  33  53  80 104 131 170 210 249 298
#     4   9  17  29  46  68  95 130 168 200 237 293
#     4  10  20  34  53  77 106 137 168 207 253 299
#     4  10  18  27  42  65  95 131 166 200 239 283
#     4  10  20  31  45  69  98 126 158 196 240 295
#
# _framework density 18.264842999999999
#
# number of rings (size 3 to 8) (size 9 to 14) (size 15 to 20)
#    0.000    2.571    0.000    3.000    0.000    6.000 
#    0.000    2.143    0.000    8.571    0.000   10.000 
#    0.000    0.000    0.000    6.143    0.000    0.429 
#
# Total GULP energy -694002.338436 kJ/mol
# GULP energy per Si atom -12392.898901 kJ/mol
# Density = 1.822327 g / cm^3
# Si number density = 18.264843 Si / 1000 Ang^3
#
#
#
# Elastic Constant Matrix: (Units=GPa)
#
#
# Indices 1 2 3 4 5 6 
#
# 1 64.5650 25.0126 36.3005 0.0000 0.0000 0.0000
# 2 25.0126 90.5846 44.1527 0.0000 0.0000 0.0000
# 3 36.3005 44.1527 88.6418 0.0000 0.0000 0.0000
# 4 0.0000 0.0000 0.0000 22.6477 0.0000 0.0000
# 5 0.0000 0.0000 0.0000 0.0000 20.7553 0.0000
# 6 0.0000 0.0000 0.0000 0.0000 0.0000 17.8117
#
#
#
# Elastic Compliance Matrix: (Units=1/GPa)
#
#
# Indices 1 2 3 4 5 6 
#
# 1 0.020409 -0.002062 -0.007330 0.000000 0.000000 0.000000
# 2 -0.002062 0.014787 -0.006521 0.000000 0.000000 0.000000
# 3 -0.007330 -0.006521 0.017531 0.000000 0.000000 0.000000
# 4 0.000000 0.000000 0.000000 0.044155 0.000000 0.000000
# 5 0.000000 0.000000 0.000000 0.000000 0.048180 0.000000
# 6 0.000000 0.000000 0.000000 0.000000 0.000000 0.056143
#
#
# Mechanical properties :
#
#
# Convention : Reuss Voigt Hill
#
# Bulk Modulus (GPa) = 47.84739 50.52476 49.18607
# Shear Modulus (GPa) = 20.83336 21.46465 21.14901
#
# Velocity S-wave (km/s) = 3.38098 3.43182 3.40650
# Velocity P-wave (km/s) = 6.44164 6.58981 6.51614
#
# Compressibility (1/GPa) = 0.02089978
#
# Stress axis : x y z
#
# Youngs Moduli (GPa) = 48.99891 67.62537 57.04019
#
# Poissons Ratio (x) = 0.13946 0.41813
# Poissons Ratio (y) = 0.10105 0.37196
# Poissons Ratio (z) = 0.35919 0.44099
#
# Static dielectric constant tensor:
#      x y z
#    x 3.360590 0.000000 0.000000 
#    y 0.000000 3.612320 0.000000 
#    z 0.000000 0.000000 3.458600 
# 
# 
# High freq. dielectric constant tensor:
#      x y z
#    x 1.698450 0.000000 0.000000 
#    y 0.000000 1.695160 0.000000 
#    z 0.000000 0.000000 1.695980 
# 
# From -- ./inp_files/70059.got.cif
#   From: 2010.06.25/outbox.cif.g09.slc.cpg/sg71_36_cif.got.tgz:70059.got - 2010.06.28 04:59:45.
