data_PCOD8287408
_publ_section_title
;
Structure prediction by ZEFSAII (Michael W. Deem and Ramdas Pophale) SiO2 
 PCOD8287408
Probable space group: I M M M
;
_chemical_formula_sum "Si O2"
_cell_formula_units_Z 88
_cell_length_a 27.359451
_cell_length_b 8.863802
_cell_length_c 20.517165
_cell_angle_alpha 90.000000
_cell_angle_beta 90.000000
_cell_angle_gamma 90.000000
_cell_volume 4975.592171
_symmetry_space_group_name_H-M "I M M M"
_symmetry_group_IT_number 71
_symmetry_cell_setting 'orthorhombic'
loop_
_space_group_symop_operation_xyz
x,y,z
-x,-y,z
x,-y,-z
-x,y,-z
-x,-y,-z
x,y,-z
-x,y,z
x,-y,z
1/2+x,1/2+y,1/2+z
1/2-x,1/2-y,1/2+z
1/2+x,1/2-y,1/2-z
1/2-x,1/2+y,1/2-z
1/2-x,1/2-y,1/2-z
1/2+x,1/2+y,1/2-z
1/2-x,1/2+y,1/2+z
1/2+x,1/2-y,1/2+z
loop_
_atom_site_type_symbol
_atom_site_label
_atom_site_fract_x
_atom_site_fract_y
_atom_site_fract_z
Si Si1 0.172960 0.176074 0.860323
Si Si2 0.058106 0.669779 0.500000
Si Si3 0.718620 0.677697 0.000000
Si Si4 0.360293 0.678785 0.224714
Si Si5 0.444877 0.322526 0.869012
Si Si6 0.284067 0.820971 0.131231
Si Si7 0.677575 0.676701 0.500000
O O1 0.140155 0.237293 0.800253
O O2 0.228485 0.237574 0.858090
O O3 0.148746 0.212548 0.932060
O O4 0.176189 0.000000 0.849961
O O5 0.077804 0.500000 0.500000
O O6 0.077437 0.750695 0.565235
O O7 0.000000 0.678458 0.500000
O O8 0.694251 0.749300 0.064612
O O9 0.710198 0.500000 0.000000
O O10 0.775437 0.718676 0.000000
O O11 0.352867 0.500000 0.218453
O O12 0.411533 0.727544 0.192099
O O13 0.315184 0.761166 0.191206
O O14 0.500000 0.264951 0.854813
O O15 0.444302 0.500000 0.879451
O O16 0.287400 0.000000 0.126443
O O17 0.694064 0.500000 0.500000
#
# Coordination Sequence:
#
# PCOD8287408 Si02
#       7
#    16   8   8  16  16  16   8
#     4   8  15  28  46  66  88 115 146 180 216 259
#     4   9  17  30  49  68  85 110 146 186 223 258
#     4  10  18  29  45  64  87 119 156 186 214 251
#     4  10  19  30  45  66  89 115 149 183 219 263
#     4   9  18  32  48  65  87 115 146 181 219 258
#     4  10  19  31  45  63  90 120 149 182 221 260
#     4   8  14  28  47  65  87 115 147 182 220 257
#
# _framework density 17.686337000000002
#
# number of rings (size 3 to 8) (size 9 to 14) (size 15 to 20)
#    0.000    2.818    0.000    3.273    0.000    2.545 
#    0.000    4.545    0.000    0.000    0.000    0.636 
#    0.000    5.091    0.000    0.000    0.000   25.364 
#
# Total GULP energy -545156.383932 kJ/mol
# GULP energy per Si atom -12389.917817 kJ/mol
# Density = 1.764608 g / cm^3
# Si number density = 17.686337 Si / 1000 Ang^3
#
#
#
# Elastic Constant Matrix: (Units=GPa)
#
#
# Indices 1 2 3 4 5 6 
#
# 1 56.2301 17.6470 61.9849 0.0000 0.0000 0.0000
# 2 17.6470 42.0909 32.1822 0.0000 0.0000 0.0000
# 3 61.9849 32.1822 201.5199 0.0000 0.0000 0.0000
# 4 0.0000 0.0000 0.0000 14.8705 0.0000 0.0000
# 5 0.0000 0.0000 0.0000 0.0000 14.7605 0.0000
# 6 0.0000 0.0000 0.0000 0.0000 0.0000 12.7372
#
#
#
# Elastic Compliance Matrix: (Units=1/GPa)
#
#
# Indices 1 2 3 4 5 6 
#
# 1 0.028138 -0.005900 -0.007713 0.000000 0.000000 0.000000
# 2 -0.005900 0.028300 -0.002705 0.000000 0.000000 0.000000
# 3 -0.007713 -0.002705 0.007766 0.000000 0.000000 0.000000
# 4 0.000000 0.000000 0.000000 0.067247 0.000000 0.000000
# 5 0.000000 0.000000 0.000000 0.000000 0.067748 0.000000
# 6 0.000000 0.000000 0.000000 0.000000 0.000000 0.078510
#
#
# Mechanical properties :
#
#
# Convention : Reuss Voigt Hill
#
# Bulk Modulus (GPa) = 31.67630 58.16324 44.91977
# Shear Modulus (GPa) = 15.58277 21.00875 18.29576
#
# Velocity S-wave (km/s) = 2.97149 3.45026 3.21979
# Velocity P-wave (km/s) = 5.45178 6.98783 6.26705
#
# Compressibility (1/GPa) = 0.03156934
#
# Stress axis : x y z
#
# Youngs Moduli (GPa) = 35.53970 35.33611 128.75846
#
# Poissons Ratio (x) = 0.20848 0.99305
# Poissons Ratio (y) = 0.20969 0.34824
# Poissons Ratio (z) = 0.27410 0.09557
#
# Static dielectric constant tensor:
#      x y z
#    x 3.059270 0.000000 0.000000 
#    y 0.000000 3.086860 0.000000 
#    z 0.000000 0.000000 3.961800 
# 
# 
# High freq. dielectric constant tensor:
#      x y z
#    x 1.632850 0.000000 0.000000 
#    y 0.000000 1.666470 0.000000 
#    z 0.000000 0.000000 1.701720 
# 
# From -- ./inp_files/51092.got.cif
#   From: 2010.06.25/outbox.cif.g09.slc.cpg/sg71_26_cif.got.tgz:51092.got - 2010.06.28 04:59:45.
