data_PCOD8287317
_publ_section_title
;
Structure prediction by ZEFSAII (Michael W. Deem and Ramdas Pophale) SiO2 
 PCOD8287317
Probable space group: I M M M
;
_chemical_formula_sum "Si O2"
_cell_formula_units_Z 96
_cell_length_a 24.430640
_cell_length_b 19.521762
_cell_length_c 13.212207
_cell_angle_alpha 90.000000
_cell_angle_beta 90.000000
_cell_angle_gamma 90.000000
_cell_volume 6301.286517
_symmetry_space_group_name_H-M "I M M M"
_symmetry_group_IT_number 71
_symmetry_cell_setting 'orthorhombic'
loop_
_space_group_symop_operation_xyz
x,y,z
-x,-y,z
x,-y,-z
-x,y,-z
-x,-y,-z
x,y,-z
-x,y,z
x,-y,z
1/2+x,1/2+y,1/2+z
1/2-x,1/2-y,1/2+z
1/2+x,1/2-y,1/2-z
1/2-x,1/2+y,1/2-z
1/2-x,1/2-y,1/2-z
1/2+x,1/2+y,1/2-z
1/2-x,1/2+y,1/2+z
1/2+x,1/2-y,1/2+z
loop_
_atom_site_type_symbol
_atom_site_label
_atom_site_fract_x
_atom_site_fract_y
_atom_site_fract_z
Si Si1 0.732426 0.206125 0.112373
Si Si2 0.219687 0.076141 0.800542
Si Si3 0.708549 0.922476 0.616531
Si Si4 0.832986 0.287497 0.807153
Si Si5 0.395255 0.575610 0.615456
Si Si6 0.560605 0.718224 0.617082
O O1 0.747065 0.126765 0.127599
O O2 0.787659 0.250587 0.123638
O O3 0.684835 0.225992 0.191154
O O4 0.709044 0.217246 0.000000
O O5 0.236097 0.087011 0.682628
O O6 0.155154 0.089261 0.809134
O O7 0.234716 0.000000 0.837654
O O8 0.723270 0.907522 0.500000
O O9 0.664547 0.867587 0.659498
O O10 0.684961 0.000000 0.629132
O O11 0.893429 0.256727 0.818323
O O12 0.373378 0.579162 0.500000
O O13 0.421327 0.500000 0.635997
O O14 0.438478 0.635978 0.635045
O O15 0.571449 0.735432 0.500000
O O16 0.500000 0.743328 0.649907
#
# Coordination Sequence:
#
# PCOD8287317 Si02
#       6
#    16  16  16  16  16  16
#     4  10  18  28  45  66  88 115 142 173 218 265
#     4   9  16  25  40  64  92 119 143 169 207 254
#     4   9  17  28  42  61  87 117 145 175 214 259
#     4  10  19  30  44  64  89 112 142 184 218 258
#     4   9  16  26  40  59  87 118 145 175 209 249
#     4  10  19  30  45  63  85 116 151 183 217 257
#
# _framework density 15.234985
#
# number of rings (size 3 to 8) (size 9 to 14) (size 15 to 20)
#    0.000    2.500    1.667    2.000    0.000    1.333 
#    0.000    1.667    0.000    1.000    0.000    2.333 
#    0.000    0.000    0.000   16.333    0.000    0.667 
#
# Total GULP energy -594861.630910 kJ/mol
# GULP energy per Si atom -12392.950644 kJ/mol
# Density = 1.520031 g / cm^3
# Si number density = 15.234985 Si / 1000 Ang^3
#
#
#
# Elastic Constant Matrix: (Units=GPa)
#
#
# Indices 1 2 3 4 5 6 
#
# 1 87.9303 39.8672 36.6422 0.0000 0.0000 0.0000
# 2 39.8672 80.6955 30.2421 0.0000 0.0000 0.0000
# 3 36.6422 30.2421 88.4579 0.0000 0.0000 0.0000
# 4 0.0000 0.0000 0.0000 18.4067 0.0000 0.0000
# 5 0.0000 0.0000 0.0000 0.0000 15.2692 0.0000
# 6 0.0000 0.0000 0.0000 0.0000 0.0000 16.5472
#
#
#
# Elastic Compliance Matrix: (Units=1/GPa)
#
#
# Indices 1 2 3 4 5 6 
#
# 1 0.016096 -0.006255 -0.004529 0.000000 0.000000 0.000000
# 2 -0.006255 0.016644 -0.003099 0.000000 0.000000 0.000000
# 3 -0.004529 -0.003099 0.014241 0.000000 0.000000 0.000000
# 4 0.000000 0.000000 0.000000 0.054328 0.000000 0.000000
# 5 0.000000 0.000000 0.000000 0.000000 0.065491 0.000000
# 6 0.000000 0.000000 0.000000 0.000000 0.000000 0.060433
#
#
# Mechanical properties :
#
#
# Convention : Reuss Voigt Hill
#
# Bulk Modulus (GPa) = 52.04528 52.28741 52.16635
# Shear Modulus (GPa) = 19.12750 20.06677 19.59714
#
# Velocity S-wave (km/s) = 3.54715 3.63319 3.59043
# Velocity P-wave (km/s) = 7.14228 7.21077 7.17661
#
# Compressibility (1/GPa) = 0.01921404
#
# Stress axis : x y z
#
# Youngs Moduli (GPa) = 62.12782 60.08210 70.22225
#
# Poissons Ratio (x) = 0.37580 0.31804
# Poissons Ratio (y) = 0.38859 0.21764
# Poissons Ratio (z) = 0.28138 0.18621
#
# Static dielectric constant tensor:
#      x y z
#    x 2.564760 0.000000 0.000000 
#    y 0.000000 3.248350 0.000000 
#    z 0.000000 0.000000 2.890330 
# 
# 
# High freq. dielectric constant tensor:
#      x y z
#    x 1.537430 0.000000 0.000000 
#    y 0.000000 1.603210 0.000000 
#    z 0.000000 0.000000 1.569250 
# 
# From -- ./inp_files/26132.got.cif
#   From: 2010.06.25/outbox.cif.g09.slc.cpg/sg71_14_cif.got.tgz:26132.got - 2010.06.28 04:59:45.
