data_PCOD8287165
_publ_section_title
;
Structure prediction by ZEFSAII (Michael W. Deem and Ramdas Pophale) SiO2 
 PCOD8287165
Probable space group: I M M M
;
_chemical_formula_sum "Si O2"
_cell_formula_units_Z 104
_cell_length_a 9.069250
_cell_length_b 27.153166
_cell_length_c 32.367715
_cell_angle_alpha 90.000000
_cell_angle_beta 90.000000
_cell_angle_gamma 90.000000
_cell_volume 7970.836297
_symmetry_space_group_name_H-M "I M M M"
_symmetry_group_IT_number 71
_symmetry_cell_setting 'orthorhombic'
loop_
_space_group_symop_operation_xyz
x,y,z
-x,-y,z
x,-y,-z
-x,y,-z
-x,-y,-z
x,y,-z
-x,y,z
x,-y,z
1/2+x,1/2+y,1/2+z
1/2-x,1/2-y,1/2+z
1/2+x,1/2-y,1/2-z
1/2-x,1/2+y,1/2-z
1/2-x,1/2-y,1/2-z
1/2+x,1/2+y,1/2-z
1/2-x,1/2+y,1/2+z
1/2+x,1/2-y,1/2+z
loop_
_atom_site_type_symbol
_atom_site_label
_atom_site_fract_x
_atom_site_fract_y
_atom_site_fract_z
Si Si1 0.675110 0.623207 0.064309
Si Si2 0.333673 0.291416 0.303540
Si Si3 0.834892 0.679728 0.772949
Si Si4 0.166245 0.262227 0.379973
Si Si5 0.836475 0.151276 0.347686
Si Si6 0.830906 0.275767 0.953699
Si Si7 0.669942 0.058158 0.500000
O O1 0.500000 0.624883 0.056442
O O2 0.709864 0.617311 0.113352
O O3 0.744781 0.672873 0.046564
O O4 0.748356 0.577487 0.040970
O O5 0.500000 0.309621 0.310591
O O6 0.259885 0.325833 0.268720
O O7 0.330682 0.235414 0.288568
O O8 0.244696 0.297215 0.346319
O O9 0.771834 0.644157 0.808881
O O10 0.000000 0.662653 0.763029
O O11 0.165911 0.206931 0.363536
O O12 0.255778 0.263770 0.423003
O O13 0.000000 0.281236 0.387192
O O14 0.000000 0.137595 0.332295
O O15 0.000000 0.284566 0.939810
O O16 0.823565 0.253978 0.000000
O O17 0.500000 0.075794 0.500000
O O18 0.682298 0.000000 0.500000
#
# Coordination Sequence:
#
# PCOD8287165 Si02
#       7
#    16  16  16  16  16  16   8
#     4  10  19  30  44  56  67  81  99 122 149 182
#     4   9  15  22  31  42  60  82 101 123 147 171
#     4   9  15  21  31  46  61  80 101 119 139 168
#     4   9  16  24  33  45  61  80 103 127 149 178
#     4   8  15  25  35  49  64  78  95 117 143 172
#     4  10  18  26  37  51  66  82 101 126 157 190
#     4  11  23  35  45  57  71  85 101 123 155 195
#
# _framework density 13.047563
#
# number of rings (size 3 to 8) (size 9 to 14) (size 15 to 20)
#    0.000    2.692    0.769    3.462    0.000    9.538 
#    0.000    0.000    0.000    0.000    0.000    0.000 
#    0.000    0.000    0.000    0.000    0.000    0.000 
#
# Total GULP energy -644577.815717 kJ/mol
# GULP energy per Si atom -12395.727225 kJ/mol
# Density = 1.301787 g / cm^3
# Si number density = 13.047563 Si / 1000 Ang^3
#
#
#
# Elastic Constant Matrix: (Units=GPa)
#
#
# Indices 1 2 3 4 5 6 
#
# 1 123.7234 18.1171 65.5459 0.0000 0.0000 0.0000
# 2 18.1171 12.7922 24.5728 0.0000 0.0000 0.0000
# 3 65.5459 24.5728 104.7461 0.0000 0.0000 0.0000
# 4 0.0000 0.0000 0.0000 9.1269 0.0000 0.0000
# 5 0.0000 0.0000 0.0000 0.0000 27.5603 0.0000
# 6 0.0000 0.0000 0.0000 0.0000 0.0000 8.5507
#
#
#
# Elastic Compliance Matrix: (Units=1/GPa)
#
#
# Indices 1 2 3 4 5 6 
#
# 1 0.012249 -0.004777 -0.006544 0.000000 0.000000 0.000000
# 2 -0.004777 0.144159 -0.030830 0.000000 0.000000 0.000000
# 3 -0.006544 -0.030830 0.020875 0.000000 0.000000 0.000000
# 4 0.000000 0.000000 0.000000 0.109566 0.000000 0.000000
# 5 0.000000 0.000000 0.000000 0.000000 0.036284 0.000000
# 6 0.000000 0.000000 0.000000 0.000000 0.000000 0.116949
#
#
# Mechanical properties :
#
#
# Convention : Reuss Voigt Hill
#
# Bulk Modulus (GPa) = 10.75487 50.85925 30.80706
# Shear Modulus (GPa) = 9.00288 17.91598 13.45943
#
# Velocity S-wave (km/s) = 2.62964 3.70959 3.21529
# Velocity P-wave (km/s) = 4.18100 7.57711 6.11937
#
# Compressibility (1/GPa) = 0.09298118
#
# Stress axis : x y z
#
# Youngs Moduli (GPa) = 81.63880 6.93678 47.90507
#
# Poissons Ratio (x) = 0.03313 0.31351
# Poissons Ratio (y) = 0.38995 1.47691
# Poissons Ratio (z) = 0.53428 0.21386
#
# Static dielectric constant tensor:
#      x y z
#    x 2.880960 0.000000 0.000000 
#    y 0.000000 1.968880 0.000000 
#    z 0.000000 0.000000 2.884540 
# 
# 
# High freq. dielectric constant tensor:
#      x y z
#    x 1.519900 0.000000 0.000000 
#    y 0.000000 1.394760 0.000000 
#    z 0.000000 0.000000 1.507510 
# 
# From -- ./inp_files/68548.got.cif
#   From: 2010.06.25/outbox.cif.g09.slc.cpg/sg71_35_cif.got.tgz:68548.got - 2010.06.28 04:59:45.
