data_PCOD8287649
_publ_section_title
;
Structure prediction by ZEFSAII (Michael W. Deem and Ramdas Pophale) SiO2 
 PCOD8287649
Probable space group: I M M M
;
_chemical_formula_sum "Si O2"
_cell_formula_units_Z 96
_cell_length_a 13.597771
_cell_length_b 14.719993
_cell_length_c 27.673277
_cell_angle_alpha 90.000000
_cell_angle_beta 90.000000
_cell_angle_gamma 90.000000
_cell_volume 5539.058051
_symmetry_space_group_name_H-M "I M M M"
_symmetry_group_IT_number 71
_symmetry_cell_setting 'orthorhombic'
loop_
_space_group_symop_operation_xyz
x,y,z
-x,-y,z
x,-y,-z
-x,y,-z
-x,-y,-z
x,y,-z
-x,y,z
x,-y,z
1/2+x,1/2+y,1/2+z
1/2-x,1/2-y,1/2+z
1/2+x,1/2-y,1/2-z
1/2-x,1/2+y,1/2-z
1/2-x,1/2-y,1/2-z
1/2+x,1/2+y,1/2-z
1/2-x,1/2+y,1/2+z
1/2+x,1/2-y,1/2+z
loop_
_atom_site_type_symbol
_atom_site_label
_atom_site_fract_x
_atom_site_fract_y
_atom_site_fract_z
Si Si1 0.796111 0.500000 0.443990
Si Si2 0.391530 0.500000 0.619813
Si Si3 0.890213 0.820811 0.819770
Si Si4 0.800367 0.242816 0.352132
Si Si5 0.112281 0.603343 0.286191
Si Si6 0.884634 0.690943 0.555042
Si Si7 0.200126 0.104811 0.273681
O O1 0.775902 0.500000 0.500000
O O2 0.688405 0.500000 0.421639
O O3 0.857852 0.411424 0.429098
O O4 0.500000 0.500000 0.595592
O O5 0.377163 0.583968 0.654533
O O6 0.817038 0.752084 0.846524
O O7 0.863376 0.836166 0.763866
O O8 0.000000 0.781266 0.823863
O O9 0.856780 0.328685 0.328698
O O10 0.830456 0.238895 0.408566
O O11 0.825700 0.147950 0.325787
O O12 0.123782 0.500000 0.306027
O O13 0.184179 0.616439 0.240006
O O14 0.000000 0.622292 0.269721
O O15 0.850513 0.711496 0.500000
O O16 0.000000 0.704406 0.560326
O O17 0.167509 0.000000 0.274490
#
# Coordination Sequence:
#
# PCOD8287649 Si02
#       7
#     8   8  16  16  16  16  16
#     4  10  19  33  52  73 101 132 167 200 233 288
#     4  10  18  30  49  72 104 143 164 185 231 281
#     4  10  19  32  49  70 101 137 165 192 235 289
#     4  11  21  32  51  73  96 130 167 205 242 290
#     4   9  18  31  49  75 105 131 157 196 242 289
#     4  10  21  35  51  72  97 125 159 204 253 294
#     4  10  21  34  48  70 100 131 167 205 241 286
#
# _framework density 17.331465999999999
#
# number of rings (size 3 to 8) (size 9 to 14) (size 15 to 20)
#    0.000    2.000    2.500    2.750    2.333    4.500 
#    0.000    0.000    0.000    1.000    0.000    1.167 
#    0.000    0.000    0.000    5.667    0.000    0.000 
#
# Total GULP energy -595092.381091 kJ/mol
# GULP energy per Si atom -12397.757939 kJ/mol
# Density = 1.729202 g / cm^3
# Si number density = 17.331466 Si / 1000 Ang^3
#
#
#
# Elastic Constant Matrix: (Units=GPa)
#
#
# Indices 1 2 3 4 5 6 
#
# 1 89.0386 17.1191 34.0153 0.0000 0.0000 0.0000
# 2 17.1191 29.7571 27.5026 0.0000 0.0000 0.0000
# 3 34.0153 27.5026 87.5524 0.0000 0.0000 0.0000
# 4 0.0000 0.0000 0.0000 22.2831 0.0000 0.0000
# 5 0.0000 0.0000 0.0000 0.0000 18.8531 0.0000
# 6 0.0000 0.0000 0.0000 0.0000 0.0000 13.1726
#
#
#
# Elastic Compliance Matrix: (Units=1/GPa)
#
#
# Indices 1 2 3 4 5 6 
#
# 1 0.013539 -0.004125 -0.003964 0.000000 0.000000 0.000000
# 2 -0.004125 0.048610 -0.013667 0.000000 0.000000 0.000000
# 3 -0.003964 -0.013667 0.017255 0.000000 0.000000 0.000000
# 4 0.000000 0.000000 0.000000 0.044877 0.000000 0.000000
# 5 0.000000 0.000000 0.000000 0.000000 0.053042 0.000000
# 6 0.000000 0.000000 0.000000 0.000000 0.000000 0.075915
#
#
# Mechanical properties :
#
#
# Convention : Reuss Voigt Hill
#
# Bulk Modulus (GPa) = 27.86185 40.40245 34.13215
# Shear Modulus (GPa) = 16.19622 19.37583 17.78602
#
# Velocity S-wave (km/s) = 3.06027 3.34721 3.20695
# Velocity P-wave (km/s) = 5.34769 6.18875 5.78353
#
# Compressibility (1/GPa) = 0.03589138
#
# Stress axis : x y z
#
# Youngs Moduli (GPa) = 73.86300 20.57183 57.95373
#
# Poissons Ratio (x) = 0.08485 0.22974
# Poissons Ratio (y) = 0.30467 0.79207
# Poissons Ratio (z) = 0.29281 0.28116
#
# Static dielectric constant tensor:
#      x y z
#    x 3.446390 0.000000 0.000000 
#    y 0.000000 3.075650 0.000000 
#    z 0.000000 0.000000 3.101780 
# 
# 
# High freq. dielectric constant tensor:
#      x y z
#    x 1.679040 0.000000 0.000000 
#    y 0.000000 1.643480 0.000000 
#    z 0.000000 0.000000 1.646670 
# 
# From -- ./inp_files/35060.got.cif
#   From: 2010.06.25/outbox.cif.g09.slc.cpg/sg71_18_cif.got.tgz:35060.got - 2010.06.28 04:59:45.
