data_PCOD8287568
_publ_section_title
;
Structure prediction by ZEFSAII (Michael W. Deem and Ramdas Pophale) SiO2 
 PCOD8287568
Probable space group: I M M M
;
_chemical_formula_sum "Si O2"
_cell_formula_units_Z 96
_cell_length_a 7.844375
_cell_length_b 24.636205
_cell_length_c 32.419744
_cell_angle_alpha 90.000000
_cell_angle_beta 90.000000
_cell_angle_gamma 90.000000
_cell_volume 6265.298071
_symmetry_space_group_name_H-M "I M M M"
_symmetry_group_IT_number 71
_symmetry_cell_setting 'orthorhombic'
loop_
_space_group_symop_operation_xyz
x,y,z
-x,-y,z
x,-y,-z
-x,y,-z
-x,-y,-z
x,y,-z
-x,y,z
x,-y,z
1/2+x,1/2+y,1/2+z
1/2-x,1/2-y,1/2+z
1/2+x,1/2-y,1/2-z
1/2-x,1/2+y,1/2-z
1/2-x,1/2-y,1/2-z
1/2+x,1/2+y,1/2-z
1/2-x,1/2+y,1/2+z
1/2+x,1/2-y,1/2+z
loop_
_atom_site_type_symbol
_atom_site_label
_atom_site_fract_x
_atom_site_fract_y
_atom_site_fract_z
Si Si1 0.194805 0.328624 0.755277
Si Si2 0.000000 0.442052 0.424900
Si Si3 0.000000 0.321854 0.452958
Si Si4 0.805881 0.082251 0.867386
Si Si5 0.699335 0.439975 0.274324
Si Si6 0.694043 0.247035 0.816943
Si Si7 0.689083 0.298404 0.396374
O O1 0.210434 0.393654 0.752694
O O2 0.289947 0.306410 0.796046
O O3 0.270640 0.298539 0.714563
O O4 0.000000 0.311398 0.759994
O O5 0.000000 0.387818 0.452563
O O6 0.172413 0.444591 0.398234
O O7 0.000000 0.500000 0.449916
O O8 0.168707 0.296483 0.432031
O O9 0.000000 0.302609 0.500000
O O10 0.748499 0.065110 0.821915
O O11 0.791053 0.146576 0.870721
O O12 0.000000 0.062586 0.877165
O O13 0.500000 0.431137 0.269285
O O14 0.754731 0.500000 0.258587
O O15 0.500000 0.232743 0.826962
O O16 0.788993 0.247537 0.861200
O O17 0.500000 0.293052 0.416487
#
# Coordination Sequence:
#
# PCOD8287568 Si02
#       7
#    16   8   8  16  16  16  16
#     4  10  20  28  42  64  91 120 152 193 228 272
#     4  10  20  31  48  66  82 112 150 191 237 288
#     4  10  22  37  50  68  92 114 145 192 240 293
#     4   9  18  30  44  63  87 112 147 191 233 277
#     4  10  19  29  40  56  84 121 156 193 236 272
#     4  10  18  30  46  66  92 118 149 188 236 274
#     4  10  18  31  53  70  88 115 147 186 232 289
#
# _framework density 15.322494000000001
#
# number of rings (size 3 to 8) (size 9 to 14) (size 15 to 20)
#    0.000    2.167    2.500    1.500    1.167    3.167 
#    0.000    0.000    0.000    0.000    0.000    4.667 
#    0.000    0.000    0.000    0.000    0.000    1.667 
#
# Total GULP energy -594927.617190 kJ/mol
# GULP energy per Si atom -12394.325358 kJ/mol
# Density = 1.528762 g / cm^3
# Si number density = 15.322494 Si / 1000 Ang^3
#
#
#
# Elastic Constant Matrix: (Units=GPa)
#
#
# Indices 1 2 3 4 5 6 
#
# 1 80.2365 15.4838 35.0481 0.0000 0.0000 0.0000
# 2 15.4838 61.8820 30.9727 0.0000 0.0000 0.0000
# 3 35.0481 30.9727 77.1399 0.0000 0.0000 0.0000
# 4 0.0000 0.0000 0.0000 8.9530 0.0000 0.0000
# 5 0.0000 0.0000 0.0000 0.0000 13.1153 0.0000
# 6 0.0000 0.0000 0.0000 0.0000 0.0000 23.3150
#
#
#
# Elastic Compliance Matrix: (Units=1/GPa)
#
#
# Indices 1 2 3 4 5 6 
#
# 1 0.015559 -0.000444 -0.006891 0.000000 0.000000 0.000000
# 2 -0.000444 0.020237 -0.007924 0.000000 0.000000 0.000000
# 3 -0.006891 -0.007924 0.019276 0.000000 0.000000 0.000000
# 4 0.000000 0.000000 0.000000 0.111695 0.000000 0.000000
# 5 0.000000 0.000000 0.000000 0.000000 0.076247 0.000000
# 6 0.000000 0.000000 0.000000 0.000000 0.000000 0.042891
#
#
# Mechanical properties :
#
#
# Convention : Reuss Voigt Hill
#
# Bulk Modulus (GPa) = 40.72594 42.47417 41.60005
# Shear Modulus (GPa) = 15.40332 18.26024 16.83178
#
# Velocity S-wave (km/s) = 3.17405 3.45589 3.31796
# Velocity P-wave (km/s) = 6.33006 6.61094 6.47202
#
# Compressibility (1/GPa) = 0.02455438
#
# Stress axis : x y z
#
# Youngs Moduli (GPa) = 64.27235 49.41498 51.87894
#
# Poissons Ratio (x) = 0.02195 0.35748
# Poissons Ratio (y) = 0.02855 0.41107
# Poissons Ratio (z) = 0.44288 0.39154
#
# Static dielectric constant tensor:
#      x y z
#    x 3.085040 0.000000 0.000000 
#    y 0.000000 2.817180 0.000000 
#    z 0.000000 0.000000 2.545910 
# 
# 
# High freq. dielectric constant tensor:
#      x y z
#    x 1.604530 0.000000 0.000000 
#    y 0.000000 1.560620 0.000000 
#    z 0.000000 0.000000 1.537290 
# 
# From -- ./inp_files/63473.got.cif
#   From: 2010.06.25/outbox.cif.g09.slc.cpg/sg71_32_cif.got.tgz:63473.got - 2010.06.28 04:59:45.
