data_PCOD8287630
_publ_section_title
;
Structure prediction by ZEFSAII (Michael W. Deem and Ramdas Pophale) SiO2 
 PCOD8287630
Probable space group: I M M M
;
_chemical_formula_sum "Si O2"
_cell_formula_units_Z 80
_cell_length_a 20.634688
_cell_length_b 8.950646
_cell_length_c 25.012939
_cell_angle_alpha 90.000000
_cell_angle_beta 90.000000
_cell_angle_gamma 90.000000
_cell_volume 4619.734443
_symmetry_space_group_name_H-M "I M M M"
_symmetry_group_IT_number 71
_symmetry_cell_setting 'orthorhombic'
loop_
_space_group_symop_operation_xyz
x,y,z
-x,-y,z
x,-y,-z
-x,y,-z
-x,-y,-z
x,y,-z
-x,y,z
x,-y,z
1/2+x,1/2+y,1/2+z
1/2-x,1/2-y,1/2+z
1/2+x,1/2-y,1/2-z
1/2-x,1/2+y,1/2-z
1/2-x,1/2-y,1/2-z
1/2+x,1/2+y,1/2-z
1/2-x,1/2+y,1/2+z
1/2+x,1/2-y,1/2+z
loop_
_atom_site_type_symbol
_atom_site_label
_atom_site_fract_x
_atom_site_fract_y
_atom_site_fract_z
Si Si1 0.692960 0.178103 0.715617
Si Si2 0.621817 0.171711 0.894783
Si Si3 0.071666 0.322758 0.283220
Si Si4 0.225300 0.826757 0.892668
Si Si5 0.620700 0.666927 0.000000
Si Si6 0.274990 0.169947 0.500000
O O1 0.750000 0.250000 0.750000
O O2 0.624558 0.231619 0.740506
O O3 0.692186 0.237987 0.655524
O O4 0.701262 0.000000 0.716553
O O5 0.588185 0.240723 0.842171
O O6 0.698157 0.194076 0.887712
O O7 0.593999 0.254645 0.946750
O O8 0.603878 0.000000 0.902691
O O9 0.074445 0.500000 0.286902
O O10 0.000000 0.267011 0.265952
O O11 0.198833 0.755701 0.947708
O O12 0.205461 0.000000 0.890536
O O13 0.697878 0.674117 0.000000
O O14 0.594105 0.500000 0.000000
O O15 0.300769 0.000000 0.500000
#
# Coordination Sequence:
#
# PCOD8287630 Si02
#       6
#    16  16  16  16   8   8
#     4  11  20  32  51  76 101 130 167 210 254 299
#     4   9  16  29  47  67  91 125 166 204 242 284
#     4   9  18  33  51  71  96 128 169 211 248 291
#     4  10  18  30  48  74 102 132 165 204 249 298
#     4   9  17  27  42  66  93 125 161 202 247 286
#     4   9  17  29  45  72 103 132 162 202 250 296
#
# _framework density 17.317011999999998
#
# number of rings (size 3 to 8) (size 9 to 14) (size 15 to 20)
#    0.000    2.400    2.000    1.800    0.000    3.200 
#    0.000    0.500    0.000    8.400    0.000    0.700 
#    0.000    5.600    0.000    0.000    0.000    0.000 
#
# Total GULP energy -495938.859202 kJ/mol
# GULP energy per Si atom -12398.471480 kJ/mol
# Density = 1.727760 g / cm^3
# Si number density = 17.317012 Si / 1000 Ang^3
#
#
#
# Elastic Constant Matrix: (Units=GPa)
#
#
# Indices 1 2 3 4 5 6 
#
# 1 75.4123 36.6705 58.1733 0.0000 0.0000 0.0000
# 2 36.6705 89.3554 59.3498 0.0000 0.0000 0.0000
# 3 58.1733 59.3498 161.2584 0.0000 0.0000 0.0000
# 4 0.0000 0.0000 0.0000 34.1511 0.0000 0.0000
# 5 0.0000 0.0000 0.0000 0.0000 16.4248 0.0000
# 6 0.0000 0.0000 0.0000 0.0000 0.0000 12.2292
#
#
#
# Elastic Compliance Matrix: (Units=1/GPa)
#
#
# Indices 1 2 3 4 5 6 
#
# 1 0.019617 -0.004434 -0.005445 0.000000 0.000000 0.000000
# 2 -0.004434 0.015814 -0.004221 0.000000 0.000000 0.000000
# 3 -0.005445 -0.004221 0.009719 0.000000 0.000000 0.000000
# 4 0.000000 0.000000 0.000000 0.029282 0.000000 0.000000
# 5 0.000000 0.000000 0.000000 0.000000 0.060883 0.000000
# 6 0.000000 0.000000 0.000000 0.000000 0.000000 0.081771
#
#
# Mechanical properties :
#
#
# Convention : Reuss Voigt Hill
#
# Bulk Modulus (GPa) = 58.99457 70.49037 64.74247
# Shear Modulus (GPa) = 19.92542 24.01652 21.97097
#
# Velocity S-wave (km/s) = 3.39577 3.72812 3.56582
# Velocity P-wave (km/s) = 7.03679 7.70234 7.37707
#
# Compressibility (1/GPa) = 0.01695071
#
# Stress axis : x y z
#
# Youngs Moduli (GPa) = 50.97706 63.23342 102.89333
#
# Poissons Ratio (x) = 0.28038 0.56022
# Poissons Ratio (y) = 0.22604 0.43429
# Poissons Ratio (z) = 0.27755 0.26689
#
# Static dielectric constant tensor:
#      x y z
#    x 2.985790 0.000000 0.000000 
#    y 0.000000 3.192200 0.000000 
#    z 0.000000 0.000000 3.488390 
# 
# 
# High freq. dielectric constant tensor:
#      x y z
#    x 1.622030 0.000000 0.000000 
#    y 0.000000 1.661230 0.000000 
#    z 0.000000 0.000000 1.682340 
# 
# From -- ./inp_files/10220.got.cif
#   From: 2010.06.25/outbox.cif.g09.slc.cpg/sg71_6_cif.got.tgz:10220.got - 2010.06.28 04:59:45.
