data_PCOD8287488
_publ_section_title
;
Structure prediction by ZEFSAII (Michael W. Deem and Ramdas Pophale) SiO2 
 PCOD8287488
Probable space group: I M M M
;
_chemical_formula_sum "Si O2"
_cell_formula_units_Z 80
_cell_length_a 32.949489
_cell_length_b 14.940365
_cell_length_c 9.543795
_cell_angle_alpha 90.000000
_cell_angle_beta 90.000000
_cell_angle_gamma 90.000000
_cell_volume 4698.194515
_symmetry_space_group_name_H-M "I M M M"
_symmetry_group_IT_number 71
_symmetry_cell_setting 'orthorhombic'
loop_
_space_group_symop_operation_xyz
x,y,z
-x,-y,z
x,-y,-z
-x,y,-z
-x,-y,-z
x,y,-z
-x,y,z
x,-y,z
1/2+x,1/2+y,1/2+z
1/2-x,1/2-y,1/2+z
1/2+x,1/2-y,1/2-z
1/2-x,1/2+y,1/2-z
1/2-x,1/2-y,1/2-z
1/2+x,1/2+y,1/2-z
1/2-x,1/2+y,1/2+z
1/2+x,1/2-y,1/2+z
loop_
_atom_site_type_symbol
_atom_site_label
_atom_site_fract_x
_atom_site_fract_y
_atom_site_fract_z
Si Si1 0.152516 0.597659 0.165815
Si Si2 0.618565 0.281460 0.666175
Si Si3 0.454941 0.399576 0.333564
Si Si4 0.261496 0.165657 0.340373
Si Si5 0.175431 0.900623 0.342159
O O1 0.139038 0.500000 0.226894
O O2 0.120941 0.676423 0.210321
O O3 0.197796 0.619927 0.220685
O O4 0.153762 0.591162 0.000000
O O5 0.622068 0.292892 0.500000
O O6 0.577075 0.326429 0.724316
O O7 0.656910 0.331024 0.732894
O O8 0.455023 0.397587 0.500000
O O9 0.500000 0.374620 0.277777
O O10 0.443150 0.500000 0.282533
O O11 0.269167 0.196828 0.500000
O O12 0.250000 0.250000 0.250000
O O13 0.224181 0.096864 0.330456
O O14 0.162454 0.873059 0.500000
O O15 0.159448 0.000000 0.306695
#
# Coordination Sequence:
#
# PCOD8287488 Si02
#       5
#    16  16  16  16  16
#     4   9  17  29  45  64  87 117 152 186 222 264
#     4  10  18  29  48  70  88 113 153 193 220 255
#     4   8  14  25  42  66  94 118 140 174 224 275
#     4  10  18  30  46  62  85 118 153 185 221 263
#     4  10  20  31  44  64  92 123 148 177 225 276
#
# _framework density 17.027816999999999
#
# number of rings (size 3 to 8) (size 9 to 14) (size 15 to 20)
#    0.000    2.600    2.000    1.800    0.000    3.600 
#    0.000    0.000    0.000    4.800    0.000    7.000 
#    0.000    0.000    0.000    1.800    0.000    2.200 
#
# Total GULP energy -495663.304253 kJ/mol
# GULP energy per Si atom -12391.582606 kJ/mol
# Density = 1.698906 g / cm^3
# Si number density = 17.027817 Si / 1000 Ang^3
#
#
#
# Elastic Constant Matrix: (Units=GPa)
#
#
# Indices 1 2 3 4 5 6 
#
# 1 103.8797 67.3072 10.2935 0.0000 0.0000 0.0000
# 2 67.3072 153.1672 23.4067 0.0000 0.0000 0.0000
# 3 10.2935 23.4067 24.1943 0.0000 0.0000 0.0000
# 4 0.0000 0.0000 0.0000 15.1795 0.0000 0.0000
# 5 0.0000 0.0000 0.0000 0.0000 13.4520 0.0000
# 6 0.0000 0.0000 0.0000 0.0000 0.0000 28.9984
#
#
#
# Elastic Compliance Matrix: (Units=1/GPa)
#
#
# Indices 1 2 3 4 5 6 
#
# 1 0.013458 -0.005913 -0.000005 0.000000 0.000000 0.000000
# 2 -0.005913 0.010260 -0.007410 0.000000 0.000000 0.000000
# 3 -0.000005 -0.007410 0.048503 0.000000 0.000000 0.000000
# 4 0.000000 0.000000 0.000000 0.065878 0.000000 0.000000
# 5 0.000000 0.000000 0.000000 0.000000 0.074338 0.000000
# 6 0.000000 0.000000 0.000000 0.000000 0.000000 0.034485
#
#
# Mechanical properties :
#
#
# Convention : Reuss Voigt Hill
#
# Bulk Modulus (GPa) = 21.94691 53.69512 37.82102
# Shear Modulus (GPa) = 17.31498 23.54157 20.42828
#
# Velocity S-wave (km/s) = 3.19229 3.72228 3.46743
# Velocity P-wave (km/s) = 5.14825 7.07644 6.18791
#
# Compressibility (1/GPa) = 0.04556450
#
# Stress axis : x y z
#
# Youngs Moduli (GPa) = 74.30252 97.46850 20.61729
#
# Poissons Ratio (x) = 0.57637 0.00010
# Poissons Ratio (y) = 0.43938 0.15277
# Poissons Ratio (z) = 0.00038 0.72223
#
# Static dielectric constant tensor:
#      x y z
#    x 3.365970 0.000000 0.000000 
#    y 0.000000 3.550500 0.000000 
#    z 0.000000 0.000000 2.788900 
# 
# 
# High freq. dielectric constant tensor:
#      x y z
#    x 1.642580 0.000000 0.000000 
#    y 0.000000 1.660410 0.000000 
#    z 0.000000 0.000000 1.610730 
# 
# From -- ./inp_files/22436.got.cif
#   From: 2010.06.25/outbox.cif.g09.slc.cpg/sg71_12_cif.got.tgz:22436.got - 2010.06.28 04:59:45.
