data_PCOD8287396
_publ_section_title
;
Structure prediction by ZEFSAII (Michael W. Deem and Ramdas Pophale) SiO2 
 PCOD8287396
Probable space group: I M M M
;
_chemical_formula_sum "Si O2"
_cell_formula_units_Z 96
_cell_length_a 28.315700
_cell_length_b 8.913482
_cell_length_c 28.268205
_cell_angle_alpha 90.000000
_cell_angle_beta 90.000000
_cell_angle_gamma 90.000000
_cell_volume 7134.654161
_symmetry_space_group_name_H-M "I M M M"
_symmetry_group_IT_number 71
_symmetry_cell_setting 'orthorhombic'
loop_
_space_group_symop_operation_xyz
x,y,z
-x,-y,z
x,-y,-z
-x,y,-z
-x,-y,-z
x,y,-z
-x,y,z
x,-y,z
1/2+x,1/2+y,1/2+z
1/2-x,1/2-y,1/2+z
1/2+x,1/2-y,1/2-z
1/2-x,1/2+y,1/2-z
1/2-x,1/2-y,1/2-z
1/2+x,1/2+y,1/2-z
1/2-x,1/2+y,1/2+z
1/2+x,1/2-y,1/2+z
loop_
_atom_site_type_symbol
_atom_site_label
_atom_site_fract_x
_atom_site_fract_y
_atom_site_fract_z
Si Si1 0.284753 0.825654 0.602164
Si Si2 0.809783 0.328827 0.000000
Si Si3 0.908926 0.822326 0.000000
Si Si4 0.223416 0.833366 0.683768
Si Si5 0.554867 0.172350 0.405799
Si Si6 0.369514 0.677480 0.345088
Si Si7 0.677671 0.832852 0.737736
O O1 0.277392 0.799587 0.546201
O O2 0.236804 0.778684 0.630376
O O3 0.328783 0.726694 0.618640
O O4 0.296033 0.000000 0.614140
O O5 0.853934 0.218572 0.000000
O O6 0.828754 0.500000 0.000000
O O7 0.934481 0.757095 0.954283
O O8 0.914272 0.000000 0.000000
O O9 0.272242 0.830806 0.712158
O O10 0.184617 0.728314 0.708743
O O11 0.201852 0.000000 0.683108
O O12 0.500000 0.184397 0.393859
O O13 0.581818 0.248997 0.362144
O O14 0.571208 0.000000 0.411050
O O15 0.374148 0.500000 0.345794
O O16 0.358760 0.730808 0.291617
O O17 0.656946 0.000000 0.741137
#
# Coordination Sequence:
#
# PCOD8287396 Si02
#       7
#    16   8   8  16  16  16  16
#     4   9  17  28  42  57  76 101 127 154 188 231
#     4  10  18  29  45  58  76 105 132 158 191 235
#     4  12  23  33  46  63  76  92 122 164 204 237
#     4   8  14  24  37  56  77  96 120 150 182 217
#     4  11  23  37  49  58  72  97 126 157 197 244
#     4  11  20  29  43  60  77  94 117 154 195 232
#     4   9  16  26  40  56  75  97 120 144 180 229
#
# _framework density 13.455451999999999
#
# number of rings (size 3 to 8) (size 9 to 14) (size 15 to 20)
#    0.000    2.167    1.667    4.500    0.000    6.333 
#    0.000    0.000    0.000    0.000    0.000    0.000 
#    0.000    0.000    0.000    0.000    0.000    0.000 
#
# Total GULP energy -595028.230676 kJ/mol
# GULP energy per Si atom -12396.421472 kJ/mol
# Density = 1.342483 g / cm^3
# Si number density = 13.455452 Si / 1000 Ang^3
#
#
#
# Elastic Constant Matrix: (Units=GPa)
#
#
# Indices 1 2 3 4 5 6 
#
# 1 37.9249 32.4289 45.0669 0.0000 0.0000 0.0000
# 2 32.4289 105.1821 45.6648 0.0000 0.0000 0.0000
# 3 45.0669 45.6648 95.8473 0.0000 0.0000 0.0000
# 4 0.0000 0.0000 0.0000 20.0354 0.0000 0.0000
# 5 0.0000 0.0000 0.0000 0.0000 13.5214 0.0000
# 6 0.0000 0.0000 0.0000 0.0000 0.0000 14.3005
#
#
#
# Elastic Compliance Matrix: (Units=1/GPa)
#
#
# Indices 1 2 3 4 5 6 
#
# 1 0.065378 -0.008587 -0.026649 0.000000 0.000000 0.000000
# 2 -0.008587 0.013115 -0.002211 0.000000 0.000000 0.000000
# 3 -0.026649 -0.002211 0.024017 0.000000 0.000000 0.000000
# 4 0.000000 0.000000 0.000000 0.049912 0.000000 0.000000
# 5 0.000000 0.000000 0.000000 0.000000 0.073957 0.000000
# 6 0.000000 0.000000 0.000000 0.000000 0.000000 0.069928
#
#
# Mechanical properties :
#
#
# Convention : Reuss Voigt Hill
#
# Bulk Modulus (GPa) = 36.21133 53.91948 45.06540
# Shear Modulus (GPa) = 13.14386 17.29104 15.21745
#
# Velocity S-wave (km/s) = 3.12884 3.58866 3.36661
# Velocity P-wave (km/s) = 6.32640 7.57172 6.97690
#
# Compressibility (1/GPa) = 0.02761567
#
# Stress axis : x y z
#
# Youngs Moduli (GPa) = 15.29556 76.25119 41.63746
#
# Poissons Ratio (x) = 0.65478 1.10961
# Poissons Ratio (y) = 0.13134 0.09204
# Poissons Ratio (z) = 0.40762 0.16856
#
# Static dielectric constant tensor:
#      x y z
#    x 2.384120 0.000000 0.000000 
#    y 0.000000 2.835480 0.000000 
#    z 0.000000 0.000000 2.906340 
# 
# 
# High freq. dielectric constant tensor:
#      x y z
#    x 1.454930 0.000000 0.000000 
#    y 0.000000 1.526110 0.000000 
#    z 0.000000 0.000000 1.506050 
# 
# From -- ./inp_files/71243.got.cif
#   From: 2010.06.25/outbox.cif.g09.slc.cpg/sg71_36_cif.got.tgz:71243.got - 2010.06.28 04:59:45.
