data_PCOD8287989
_publ_section_title
;
Structure prediction by ZEFSAII (Michael W. Deem and Ramdas Pophale) SiO2 
 PCOD8287989
Probable space group: I M M M
;
_chemical_formula_sum "Si O2"
_cell_formula_units_Z 72
_cell_length_a 8.907216
_cell_length_b 23.694268
_cell_length_c 17.532669
_cell_angle_alpha 90.000000
_cell_angle_beta 90.000000
_cell_angle_gamma 90.000000
_cell_volume 3700.269144
_symmetry_space_group_name_H-M "I M M M"
_symmetry_group_IT_number 71
_symmetry_cell_setting 'orthorhombic'
loop_
_space_group_symop_operation_xyz
x,y,z
-x,-y,z
x,-y,-z
-x,y,-z
-x,-y,-z
x,y,-z
-x,y,z
x,-y,z
1/2+x,1/2+y,1/2+z
1/2-x,1/2-y,1/2+z
1/2+x,1/2-y,1/2-z
1/2-x,1/2+y,1/2-z
1/2-x,1/2-y,1/2-z
1/2+x,1/2+y,1/2-z
1/2-x,1/2+y,1/2+z
1/2+x,1/2-y,1/2+z
loop_
_atom_site_type_symbol
_atom_site_label
_atom_site_fract_x
_atom_site_fract_y
_atom_site_fract_z
Si Si1 0.179073 0.808797 0.726176
Si Si2 0.827957 0.500000 0.117653
Si Si3 0.166693 0.890169 0.141220
Si Si4 0.676540 0.124499 0.585852
Si Si5 0.824427 0.435876 0.500000
Si Si6 0.159378 0.000000 0.762165
O O1 0.250000 0.750000 0.750000
O O2 0.229709 0.846100 0.797858
O O3 0.241543 0.835130 0.647009
O O4 0.000000 0.804704 0.717900
O O5 0.759742 0.440509 0.087064
O O6 0.803145 0.500000 0.208075
O O7 0.000000 0.500000 0.094723
O O8 0.000000 0.872897 0.112393
O O9 0.162861 0.948440 0.182929
O O10 0.277198 0.897223 0.070777
O O11 0.704902 0.148064 0.500000
O O12 0.500000 0.124521 0.605865
O O13 0.753822 0.500000 0.500000
O O14 0.000000 0.442712 0.500000
O O15 0.000000 0.000000 0.715336
#
# Coordination Sequence:
#
# PCOD8287989 Si02
#       6
#    16   8  16  16   8   8
#     4  11  24  43  65  87 114 155 205 252 298 349
#     4  10  19  32  57  91 125 158 192 235 288 349
#     4  10  21  38  60  83 114 156 196 238 295 358
#     4  10  21  38  61  91 126 161 196 238 291 350
#     4  11  23  35  55  91 127 153 187 238 293 350
#     4  10  18  32  56  85 116 152 193 238 293 356
#
# _framework density 19.458043
#
# number of rings (size 3 to 8) (size 9 to 14) (size 15 to 20)
#    0.000    1.667    3.333    1.333    0.000    4.889 
#    2.000    0.000    0.000    2.000    0.000    0.000 
#    0.000    0.000    0.000    0.000    0.000    0.000 
#
# Total GULP energy -446006.088970 kJ/mol
# GULP energy per Si atom -12389.058027 kJ/mol
# Density = 1.941376 g / cm^3
# Si number density = 19.458043 Si / 1000 Ang^3
#
#
#
# Elastic Constant Matrix: (Units=GPa)
#
#
# Indices 1 2 3 4 5 6 
#
# 1 65.9637 41.6443 57.6149 0.0000 0.0000 0.0000
# 2 41.6443 142.9661 70.1459 0.0000 0.0000 0.0000
# 3 57.6149 70.1459 152.6056 0.0002 -0.0001 0.0000
# 4 0.0000 0.0000 0.0002 14.9188 -0.0001 0.0000
# 5 0.0000 0.0000 -0.0001 -0.0001 34.8244 0.0000
# 6 0.0000 0.0000 0.0000 0.0000 0.0000 31.2890
#
#
#
# Elastic Compliance Matrix: (Units=1/GPa)
#
#
# Indices 1 2 3 4 5 6 
#
# 1 0.023733 -0.003250 -0.007466 0.000000 0.000000 0.000000
# 2 -0.003250 0.009477 -0.003129 0.000000 0.000000 0.000000
# 3 -0.007466 -0.003129 0.010810 0.000000 0.000000 0.000000
# 4 0.000000 0.000000 0.000000 0.067029 0.000000 0.000000
# 5 0.000000 0.000000 0.000000 0.000000 0.028715 0.000000
# 6 0.000000 0.000000 0.000000 0.000000 0.000000 0.031960
#
#
# Mechanical properties :
#
#
# Convention : Reuss Voigt Hill
#
# Bulk Modulus (GPa) = 61.24043 77.81620 69.52832
# Shear Modulus (GPa) = 24.40718 29.01512 26.71115
#
# Velocity S-wave (km/s) = 3.54552 3.86575 3.70909
# Velocity P-wave (km/s) = 6.94999 7.74622 7.35888
#
# Compressibility (1/GPa) = 0.01632908
#
# Stress axis : x y z
#
# Youngs Moduli (GPa) = 42.13565 105.52395 92.50718
#
# Poissons Ratio (x) = 0.34293 0.69069
# Poissons Ratio (y) = 0.13693 0.28946
# Poissons Ratio (z) = 0.31460 0.33019
#
# Static dielectric constant tensor:
#      x y z
#    x 3.699150 0.000000 0.000000 
#    y 0.000000 3.585420 0.000000 
#    z 0.000000 0.000000 3.823840 
# 
# 
# High freq. dielectric constant tensor:
#      x y z
#    x 1.746630 0.000000 0.000000 
#    y 0.000000 1.755450 0.000000 
#    z 0.000000 0.000000 1.763740 
# 
# From -- ./inp_files/31501.got.cif
#   From: 2010.06.25/outbox.cif.g09.slc.cpg/sg71_16_cif.got.tgz:31501.got - 2010.06.28 04:59:45.
