data_PCOD8287941
_publ_section_title
;
Structure prediction by ZEFSAII (Michael W. Deem and Ramdas Pophale) SiO2 
 PCOD8287941
Probable space group: I M M M
;
_chemical_formula_sum "Si O2"
_cell_formula_units_Z 96
_cell_length_a 16.909430
_cell_length_b 18.730563
_cell_length_c 15.525082
_cell_angle_alpha 90.000000
_cell_angle_beta 90.000000
_cell_angle_gamma 90.000000
_cell_volume 4917.152780
_symmetry_space_group_name_H-M "I M M M"
_symmetry_group_IT_number 71
_symmetry_cell_setting 'orthorhombic'
loop_
_space_group_symop_operation_xyz
x,y,z
-x,-y,z
x,-y,-z
-x,y,-z
-x,-y,-z
x,y,-z
-x,y,z
x,-y,z
1/2+x,1/2+y,1/2+z
1/2-x,1/2-y,1/2+z
1/2+x,1/2-y,1/2-z
1/2-x,1/2+y,1/2-z
1/2-x,1/2-y,1/2-z
1/2+x,1/2+y,1/2-z
1/2-x,1/2+y,1/2+z
1/2+x,1/2-y,1/2+z
loop_
_atom_site_type_symbol
_atom_site_label
_atom_site_fract_x
_atom_site_fract_y
_atom_site_fract_z
Si Si1 0.809833 0.285920 0.181519
Si Si2 0.092577 0.159417 0.228489
Si Si3 0.857224 0.637057 0.596111
Si Si4 0.188267 0.081125 0.096398
Si Si5 0.340769 0.701222 0.904711
Si Si6 0.910822 0.581235 0.763066
O O1 0.750000 0.250000 0.250000
O O2 0.883024 0.231364 0.176278
O O3 0.755730 0.295418 0.096696
O O4 0.845319 0.364043 0.201556
O O5 0.122462 0.094364 0.169378
O O6 0.127123 0.152802 0.326079
O O7 0.000000 0.155643 0.236493
O O8 0.875910 0.610464 0.500000
O O9 0.763866 0.630184 0.616596
O O10 0.878610 0.720302 0.608572
O O11 0.910152 0.589591 0.659481
O O12 0.216817 0.000000 0.103230
O O13 0.154926 0.097058 0.000000
O O14 0.364631 0.671806 0.000000
O O15 0.887382 0.500000 0.788276
O O16 0.000000 0.597533 0.796385
#
# Coordination Sequence:
#
# PCOD8287941 Si02
#       6
#    16  16  16  16  16  16
#     4  10  18  35  56  77 104 144 194 242 275 328
#     4  11  21  34  57  83 112 151 190 232 285 344
#     4  10  18  32  53  78 111 149 190 229 270 328
#     4  10  21  37  58  86 118 150 186 230 283 345
#     4  10  20  35  57  83 111 145 190 246 289 326
#     4  11  22  34  51  80 118 153 185 229 293 359
#
# _framework density 19.523493999999999
#
# number of rings (size 3 to 8) (size 9 to 14) (size 15 to 20)
#    0.000    1.667    5.000    2.000    0.000    2.333 
#    0.000    3.333    0.000    3.500    0.000    2.333 
#    0.000    0.000    0.000    0.000    0.000    0.000 
#
# Total GULP energy -594756.240516 kJ/mol
# GULP energy per Si atom -12390.755011 kJ/mol
# Density = 1.947906 g / cm^3
# Si number density = 19.523494 Si / 1000 Ang^3
#
#
#
# Elastic Constant Matrix: (Units=GPa)
#
#
# Indices 1 2 3 4 5 6 
#
# 1 66.3156 18.2616 23.0831 0.0000 0.0000 0.0000
# 2 18.2616 71.7646 19.1762 0.0000 0.0000 0.0000
# 3 23.0831 19.1762 85.3147 0.0000 0.0000 0.0000
# 4 0.0000 0.0000 0.0000 26.4640 0.0000 0.0000
# 5 0.0000 0.0000 0.0000 0.0000 18.3690 0.0000
# 6 0.0000 0.0000 0.0000 0.0000 0.0000 26.1423
#
#
#
# Elastic Compliance Matrix: (Units=1/GPa)
#
#
# Indices 1 2 3 4 5 6 
#
# 1 0.017380 -0.003368 -0.003945 0.000000 0.000000 0.000000
# 2 -0.003368 0.015478 -0.002568 0.000000 0.000000 0.000000
# 3 -0.003945 -0.002568 0.013366 0.000000 0.000000 0.000000
# 4 0.000000 0.000000 0.000000 0.037787 0.000000 0.000000
# 5 0.000000 0.000000 0.000000 0.000000 0.054439 0.000000
# 6 0.000000 0.000000 0.000000 0.000000 0.000000 0.038252
#
#
# Mechanical properties :
#
#
# Convention : Reuss Voigt Hill
#
# Bulk Modulus (GPa) = 37.79124 38.27076 38.03100
# Shear Modulus (GPa) = 24.35628 25.05332 24.70480
#
# Velocity S-wave (km/s) = 3.53588 3.58612 3.56109
# Velocity P-wave (km/s) = 6.00573 6.06564 6.03576
#
# Compressibility (1/GPa) = 0.02646116
#
# Stress axis : x y z
#
# Youngs Moduli (GPa) = 57.53644 64.60922 74.81734
#
# Poissons Ratio (x) = 0.21763 0.29518
# Poissons Ratio (y) = 0.19381 0.19210
# Poissons Ratio (z) = 0.22700 0.16589
#
# Static dielectric constant tensor:
#      x y z
#    x 3.485640 0.000000 0.000000 
#    y 0.000000 3.422000 0.000000 
#    z 0.000000 0.000000 3.653580 
# 
# 
# High freq. dielectric constant tensor:
#      x y z
#    x 1.748060 0.000000 0.000000 
#    y 0.000000 1.740780 0.000000 
#    z 0.000000 0.000000 1.745060 
# 
# From -- ./inp_files/46036.got.cif
#   From: 2010.06.25/outbox.cif.g09.slc.cpg/sg71_24_cif.got.tgz:46036.got - 2010.06.28 04:59:45.
