data_PCOD8287574
_publ_section_title
;
Structure prediction by ZEFSAII (Michael W. Deem and Ramdas Pophale) SiO2 
 PCOD8287574
Probable space group: I M M M
;
_chemical_formula_sum "Si O2"
_cell_formula_units_Z 104
_cell_length_a 28.464184
_cell_length_b 9.305899
_cell_length_c 24.516762
_cell_angle_alpha 90.000000
_cell_angle_beta 90.000000
_cell_angle_gamma 90.000000
_cell_volume 6494.118124
_symmetry_space_group_name_H-M "I M M M"
_symmetry_group_IT_number 71
_symmetry_cell_setting 'orthorhombic'
loop_
_space_group_symop_operation_xyz
x,y,z
-x,-y,z
x,-y,-z
-x,y,-z
-x,-y,-z
x,y,-z
-x,y,z
x,-y,z
1/2+x,1/2+y,1/2+z
1/2-x,1/2-y,1/2+z
1/2+x,1/2-y,1/2-z
1/2-x,1/2+y,1/2-z
1/2-x,1/2-y,1/2-z
1/2+x,1/2+y,1/2-z
1/2-x,1/2+y,1/2+z
1/2+x,1/2-y,1/2+z
loop_
_atom_site_type_symbol
_atom_site_label
_atom_site_fract_x
_atom_site_fract_y
_atom_site_fract_z
Si Si1 0.053220 0.329066 0.352684
Si Si2 0.818580 0.667409 0.937137
Si Si3 0.372884 0.828252 0.938986
Si Si4 0.730272 0.840743 0.064835
Si Si5 0.000000 0.833274 0.064542
Si Si6 0.052013 0.330361 0.233008
Si Si7 0.085931 0.329672 0.881255
O O1 0.055512 0.500000 0.355683
O O2 0.088307 0.263107 0.397832
O O3 0.069403 0.274075 0.292333
O O4 0.000000 0.277168 0.364755
O O5 0.810362 0.500000 0.929909
O O6 0.772266 0.742467 0.912328
O O7 0.863854 0.720015 0.903864
O O8 0.826771 0.709535 0.000000
O O9 0.321027 0.778203 0.918710
O O10 0.373638 0.000000 0.939761
O O11 0.383710 0.770285 0.000000
O O12 0.737286 0.000000 0.089296
O O13 0.732251 0.846558 0.000000
O O14 0.953943 0.755537 0.086988
O O15 0.000000 0.000000 0.082403
O O16 0.000000 0.817459 0.000000
O O17 0.048526 0.500000 0.237040
O O18 0.085635 0.286252 0.182943
O O19 0.000000 0.268441 0.220555
O O20 0.077439 0.500000 0.889780
#
# Coordination Sequence:
#
# PCOD8287574 Si02
#       7
#    16  16  16  16   8  16  16
#     4   8  13  20  33  57  87 111 135 173 210 241
#     4   9  17  27  40  60  80  99 133 178 216 248
#     4   8  13  21  34  55  84 116 143 164 200 256
#     4   8  14  25  40  56  78 110 141 167 201 250
#     4  11  23  33  41  61  91 115 136 169 214 260
#     4   8  13  23  39  58  77 101 138 177 207 240
#     4  10  18  30  47  62  80 110 144 178 212 250
#
# _framework density 16.014491
#
# number of rings (size 3 to 8) (size 9 to 14) (size 15 to 20)
#    0.000    3.308    0.769    2.538    0.000    2.154 
#    0.000    3.077    0.000    0.923    0.000    1.077 
#    0.000    0.000    0.000    6.000    0.000    6.154 
#
# Total GULP energy -644304.270485 kJ/mol
# GULP energy per Si atom -12390.466740 kJ/mol
# Density = 1.597804 g / cm^3
# Si number density = 16.014491 Si / 1000 Ang^3
#
#
#
# Elastic Constant Matrix: (Units=GPa)
#
#
# Indices 1 2 3 4 5 6 
#
# 1 150.0789 34.1573 81.3527 0.0000 0.0000 0.0000
# 2 34.1573 25.9573 22.8564 0.0000 0.0000 0.0000
# 3 81.3527 22.8564 102.7479 0.0000 0.0000 0.0000
# 4 0.0000 0.0000 0.0000 7.4605 0.0000 0.0000
# 5 0.0000 0.0000 0.0000 0.0000 9.4046 0.0000
# 6 0.0000 0.0000 0.0000 0.0000 0.0000 15.0843
#
#
#
# Elastic Compliance Matrix: (Units=1/GPa)
#
#
# Indices 1 2 3 4 5 6 
#
# 1 0.013641 -0.010496 -0.008466 0.000000 0.000000 0.000000
# 2 -0.010496 0.055985 -0.004144 0.000000 0.000000 0.000000
# 3 -0.008466 -0.004144 0.017357 0.000000 0.000000 0.000000
# 4 0.000000 0.000000 0.000000 0.134040 0.000000 0.000000
# 5 0.000000 0.000000 0.000000 0.000000 0.106330 0.000000
# 6 0.000000 0.000000 0.000000 0.000000 0.000000 0.066294
#
#
# Mechanical properties :
#
#
# Convention : Reuss Voigt Hill
#
# Bulk Modulus (GPa) = 24.52611 61.72409 43.12510
# Shear Modulus (GPa) = 11.02661 15.75106 13.38884
#
# Velocity S-wave (km/s) = 2.62685 3.13956 2.89458
# Velocity P-wave (km/s) = 4.95466 7.19505 6.17727
#
# Compressibility (1/GPa) = 0.04077287
#
# Stress axis : x y z
#
# Youngs Moduli (GPa) = 73.30887 17.86191 57.61309
#
# Poissons Ratio (x) = 0.18748 0.48773
# Poissons Ratio (y) = 0.76944 0.23873
# Poissons Ratio (z) = 0.62061 0.07401
#
# Static dielectric constant tensor:
#      x y z
#    x 3.321940 0.000000 0.000000 
#    y 0.000000 2.679920 0.000000 
#    z 0.000000 0.000000 3.237330 
# 
# 
# High freq. dielectric constant tensor:
#      x y z
#    x 1.616350 0.000000 0.000000 
#    y 0.000000 1.565740 0.000000 
#    z 0.000000 0.000000 1.601640 
# 
# From -- ./inp_files/15525.got.cif
#   From: 2010.06.25/outbox.cif.g09.slc.cpg/sg71_8_cif.got.tgz:15525.got - 2010.06.28 04:59:45.
