data_PCOD8287062
_publ_section_title
;
Structure prediction by ZEFSAII (Michael W. Deem and Ramdas Pophale) SiO2 
 PCOD8287062
Probable space group: I M M M
;
_chemical_formula_sum "Si O2"
_cell_formula_units_Z 104
_cell_length_a 24.375288
_cell_length_b 9.317333
_cell_length_c 27.888424
_cell_angle_alpha 90.000000
_cell_angle_beta 90.000000
_cell_angle_gamma 90.000000
_cell_volume 6333.814584
_symmetry_space_group_name_H-M "I M M M"
_symmetry_group_IT_number 71
_symmetry_cell_setting 'orthorhombic'
loop_
_space_group_symop_operation_xyz
x,y,z
-x,-y,z
x,-y,-z
-x,y,-z
-x,-y,-z
x,y,-z
-x,y,z
x,-y,z
1/2+x,1/2+y,1/2+z
1/2-x,1/2-y,1/2+z
1/2+x,1/2-y,1/2-z
1/2-x,1/2+y,1/2-z
1/2-x,1/2-y,1/2-z
1/2+x,1/2+y,1/2-z
1/2-x,1/2+y,1/2+z
1/2+x,1/2-y,1/2+z
loop_
_atom_site_type_symbol
_atom_site_label
_atom_site_fract_x
_atom_site_fract_y
_atom_site_fract_z
Si Si1 0.644016 0.664515 0.556541
Si Si2 0.437893 0.830553 0.377251
Si Si3 0.434961 0.841092 0.271258
Si Si4 0.734865 0.830167 0.052956
Si Si5 0.564240 0.667435 0.180076
Si Si6 0.622858 0.169907 0.904843
Si Si7 0.938688 0.670185 0.500000
O O1 0.635865 0.683338 0.500000
O O2 0.635569 0.500000 0.571867
O O3 0.599701 0.759441 0.583082
O O4 0.705166 0.719098 0.571438
O O5 0.500000 0.774225 0.384351
O O6 0.415479 0.789894 0.324026
O O7 0.435881 0.000000 0.384167
O O8 0.500000 0.851050 0.272743
O O9 0.415426 0.728259 0.231269
O O10 0.411333 0.000000 0.259187
O O11 0.686872 0.785507 0.089808
O O12 0.735314 0.000000 0.047252
O O13 0.722907 0.764855 0.000000
O O14 0.500000 0.698849 0.171888
O O15 0.577434 0.500000 0.178704
O O16 0.598527 0.746911 0.139763
O O17 0.615172 0.000000 0.896949
O O18 0.592028 0.224076 0.952541
O O19 0.939711 0.500000 0.500000
O O20 0.000000 0.734257 0.500000
#
# Coordination Sequence:
#
# PCOD8287062 Si02
#       7
#    16  16  16  16  16  16   8
#     4   9  18  31  48  71  99 128 157 189 225 272
#     4   9  18  32  50  73  99 124 151 187 232 276
#     4   8  15  30  50  68  87 116 155 193 227 271
#     4   8  14  28  48  68  89 118 160 202 234 264
#     4  10  20  31  43  65  97 126 151 186 236 287
#     4  10  17  28  48  68  88 119 159 201 235 270
#     4   9  16  24  39  67  93 113 148 195 234 270
#
# _framework density 16.419805
#
# number of rings (size 3 to 8) (size 9 to 14) (size 15 to 20)
#    0.000    3.000    0.769    2.769    0.000    3.077 
#    0.000    4.231    0.000    3.231    0.000    0.000 
#    0.000    0.000    0.000    0.000    0.000    0.000 
#
# Total GULP energy -644502.547587 kJ/mol
# GULP energy per Si atom -12394.279761 kJ/mol
# Density = 1.638243 g / cm^3
# Si number density = 16.419805 Si / 1000 Ang^3
#
#
#
# Elastic Constant Matrix: (Units=GPa)
#
#
# Indices 1 2 3 4 5 6 
#
# 1 101.9904 40.5969 59.5489 0.0000 0.0000 0.0000
# 2 40.5969 51.6695 42.7793 0.0000 0.0000 0.0000
# 3 59.5489 42.7793 93.0039 0.0000 0.0000 0.0000
# 4 0.0000 0.0000 0.0000 22.9289 0.0000 0.0000
# 5 0.0000 0.0000 0.0000 0.0000 6.7498 0.0000
# 6 0.0000 0.0000 0.0000 0.0000 0.0000 17.2044
#
#
#
# Elastic Compliance Matrix: (Units=1/GPa)
#
#
# Indices 1 2 3 4 5 6 
#
# 1 0.017120 -0.007067 -0.007711 0.000000 0.000000 0.000000
# 2 -0.007067 0.034175 -0.011195 0.000000 0.000000 0.000000
# 3 -0.007711 -0.011195 0.020839 0.000000 0.000000 0.000000
# 4 0.000000 0.000000 0.000000 0.043613 0.000000 0.000000
# 5 0.000000 0.000000 0.000000 0.000000 0.148152 0.000000
# 6 0.000000 0.000000 0.000000 0.000000 0.000000 0.058125
#
#
# Mechanical properties :
#
#
# Convention : Reuss Voigt Hill
#
# Bulk Modulus (GPa) = 49.53373 59.16822 54.35097
# Shear Modulus (GPa) = 13.13375 16.29254 14.71315
#
# Velocity S-wave (km/s) = 2.83127 3.15342 2.99668
# Velocity P-wave (km/s) = 6.39693 7.02649 6.71909
#
# Compressibility (1/GPa) = 0.02018826
#
# Stress axis : x y z
#
# Youngs Moduli (GPa) = 58.41084 29.26128 47.98750
#
# Poissons Ratio (x) = 0.20679 0.37004
# Poissons Ratio (y) = 0.41279 0.53720
# Poissons Ratio (z) = 0.45041 0.32757
#
# Static dielectric constant tensor:
#      x y z
#    x 3.175400 0.000000 0.000000 
#    y 0.000000 2.858370 0.000000 
#    z 0.000000 0.000000 3.196590 
# 
# 
# High freq. dielectric constant tensor:
#      x y z
#    x 1.617040 0.000000 0.000000 
#    y 0.000000 1.606900 0.000000 
#    z 0.000000 0.000000 1.630260 
# 
# From -- ./inp_files/61976.got.cif
#   From: 2010.06.25/outbox.cif.g09.slc.cpg/sg71_31_cif.got.tgz:61976.got - 2010.06.28 04:59:45.
