data_PCOD8287087
_publ_section_title
;
Structure prediction by ZEFSAII (Michael W. Deem and Ramdas Pophale) SiO2 
 PCOD8287087
Probable space group: I M M M
;
_chemical_formula_sum "Si O2"
_cell_formula_units_Z 72
_cell_length_a 19.041598
_cell_length_b 27.895884
_cell_length_c 8.775063
_cell_angle_alpha 90.000000
_cell_angle_beta 90.000000
_cell_angle_gamma 90.000000
_cell_volume 4661.157348
_symmetry_space_group_name_H-M "I M M M"
_symmetry_group_IT_number 71
_symmetry_cell_setting 'orthorhombic'
loop_
_space_group_symop_operation_xyz
x,y,z
-x,-y,z
x,-y,-z
-x,y,-z
-x,-y,-z
x,y,-z
-x,y,z
x,-y,z
1/2+x,1/2+y,1/2+z
1/2-x,1/2-y,1/2+z
1/2+x,1/2-y,1/2-z
1/2-x,1/2+y,1/2-z
1/2-x,1/2-y,1/2-z
1/2+x,1/2+y,1/2-z
1/2-x,1/2+y,1/2+z
1/2+x,1/2-y,1/2+z
loop_
_atom_site_type_symbol
_atom_site_label
_atom_site_fract_x
_atom_site_fract_y
_atom_site_fract_z
Si Si1 0.144812 0.773174 0.179347
Si Si2 0.364343 0.899018 0.819252
Si Si3 0.225827 0.678241 0.820676
Si Si4 0.579888 0.000000 0.180638
Si Si5 0.000000 0.656061 0.680479
Si Si6 0.500000 0.736433 0.180758
O O1 0.169524 0.719423 0.226839
O O2 0.200621 0.811561 0.239378
O O3 0.070639 0.787511 0.254948
O O4 0.137775 0.778122 0.000000
O O5 0.298599 0.874143 0.736308
O O6 0.374944 0.953971 0.766556
O O7 0.432269 0.871190 0.758120
O O8 0.354277 0.894789 0.000000
O O9 0.238049 0.677933 0.000000
O O10 0.500000 0.000000 0.248326
O O11 0.571840 0.000000 0.000000
O O12 0.000000 0.709506 0.744316
O O13 0.000000 0.655581 0.500000
O O14 0.500000 0.732907 0.000000
#
# Coordination Sequence:
#
# PCOD8287087 Si02
#       6
#    16  16  16   8   8   8
#     4  10  20  32  46  65  89 118 153 191 229 274
#     4  10  17  29  46  65  89 121 159 197 232 269
#     4  10  20  32  45  63  88 120 155 192 233 275
#     4   9  16  26  45  69  91 118 159 200 229 265
#     4   9  16  24  41  64  87 119 156 190 225 264
#     4  11  19  29  46  69  93 119 153 190 229 274
#
# _framework density 15.446807
#
# number of rings (size 3 to 8) (size 9 to 14) (size 15 to 20)
#    0.000    2.111    3.333    1.667    0.000    1.778 
#    0.000    1.111    0.000    0.667    0.000    0.000 
#    0.000    0.889    0.000    9.556    0.000    4.222 
#
# Total GULP energy -446347.046130 kJ/mol
# GULP energy per Si atom -12398.529059 kJ/mol
# Density = 1.541165 g / cm^3
# Si number density = 15.446807 Si / 1000 Ang^3
#
#
#
# Elastic Constant Matrix: (Units=GPa)
#
#
# Indices 1 2 3 4 5 6 
#
# 1 120.4166 49.7640 40.8281 0.0000 0.0000 0.0000
# 2 49.7640 90.0339 23.2656 0.0000 0.0000 0.0000
# 3 40.8281 23.2656 55.7824 0.0000 0.0000 0.0000
# 4 0.0000 0.0000 0.0000 17.7274 0.0000 0.0000
# 5 0.0000 0.0000 0.0000 0.0000 24.7000 0.0000
# 6 0.0000 0.0000 0.0000 0.0000 0.0000 20.5954
#
#
#
# Elastic Compliance Matrix: (Units=1/GPa)
#
#
# Indices 1 2 3 4 5 6 
#
# 1 0.012954 -0.005279 -0.007280 0.000000 0.000000 0.000000
# 2 -0.005279 0.014600 -0.002225 0.000000 0.000000 0.000000
# 3 -0.007280 -0.002225 0.024183 0.000000 0.000000 0.000000
# 4 0.000000 0.000000 0.000000 0.056410 0.000000 0.000000
# 5 0.000000 0.000000 0.000000 0.000000 0.040486 0.000000
# 6 0.000000 0.000000 0.000000 0.000000 0.000000 0.048555
#
#
# Mechanical properties :
#
#
# Convention : Reuss Voigt Hill
#
# Bulk Modulus (GPa) = 45.10825 54.88315 49.99570
# Shear Modulus (GPa) = 21.35420 22.76290 22.05855
#
# Velocity S-wave (km/s) = 3.72214 3.84295 3.78303
# Velocity P-wave (km/s) = 6.90928 7.43630 7.17763
#
# Compressibility (1/GPa) = 0.02216890
#
# Stress axis : x y z
#
# Youngs Moduli (GPa) = 77.19364 68.49375 41.35106
#
# Poissons Ratio (x) = 0.36158 0.30103
# Poissons Ratio (y) = 0.40751 0.09202
# Poissons Ratio (z) = 0.56195 0.15243
#
# Static dielectric constant tensor:
#      x y z
#    x 2.914940 0.000000 0.000000 
#    y 0.000000 2.883010 0.000000 
#    z 0.000000 0.000000 2.749610 
# 
# 
# High freq. dielectric constant tensor:
#      x y z
#    x 1.582800 0.000000 0.000000 
#    y 0.000000 1.561510 0.000000 
#    z 0.000000 0.000000 1.584500 
# 
# From -- ./inp_files/8203.got.cif
#   From: 2010.06.25/outbox.cif.g09.slc.cpg/sg71_5_cif.got.tgz:8203.got - 2010.06.28 04:59:45.
