data_PCOD8287602
_publ_section_title
;
Structure prediction by ZEFSAII (Michael W. Deem and Ramdas Pophale) SiO2 
 PCOD8287602
Probable space group: I M M M
;
_chemical_formula_sum "Si O2"
_cell_formula_units_Z 104
_cell_length_a 9.371551
_cell_length_b 19.269783
_cell_length_c 32.786508
_cell_angle_alpha 90.000000
_cell_angle_beta 90.000000
_cell_angle_gamma 90.000000
_cell_volume 5920.841846
_symmetry_space_group_name_H-M "I M M M"
_symmetry_group_IT_number 71
_symmetry_cell_setting 'orthorhombic'
loop_
_space_group_symop_operation_xyz
x,y,z
-x,-y,z
x,-y,-z
-x,y,-z
-x,-y,-z
x,y,-z
-x,y,z
x,-y,z
1/2+x,1/2+y,1/2+z
1/2-x,1/2-y,1/2+z
1/2+x,1/2-y,1/2-z
1/2-x,1/2+y,1/2-z
1/2-x,1/2-y,1/2-z
1/2+x,1/2+y,1/2-z
1/2-x,1/2+y,1/2+z
1/2+x,1/2-y,1/2+z
loop_
_atom_site_type_symbol
_atom_site_label
_atom_site_fract_x
_atom_site_fract_y
_atom_site_fract_z
Si Si1 0.331874 0.579524 0.853673
Si Si2 0.342283 0.417908 0.238105
Si Si3 0.668708 0.307111 0.545533
Si Si4 0.666688 0.420232 0.391007
Si Si5 0.840176 0.417424 0.687621
Si Si6 0.330560 0.077217 0.500000
Si Si7 0.330796 0.160459 0.578417
O O1 0.500000 0.588525 0.860610
O O2 0.286678 0.500000 0.863027
O O3 0.289685 0.599970 0.807426
O O4 0.245733 0.632433 0.881552
O O5 0.500000 0.386431 0.245827
O O6 0.351841 0.500000 0.243045
O O7 0.233803 0.386809 0.271592
O O8 0.736449 0.309179 0.500000
O O9 0.500000 0.304319 0.540965
O O10 0.716804 0.375440 0.570131
O O11 0.718839 0.239291 0.570336
O O12 0.500000 0.409905 0.381530
O O13 0.702297 0.500000 0.401191
O O14 0.752041 0.392990 0.351764
O O15 0.842910 0.500000 0.689535
O O16 0.000000 0.387201 0.684983
O O17 0.500000 0.076374 0.500000
O O18 0.275588 0.115955 0.540110
O O19 0.266390 0.000000 0.500000
O O20 0.500000 0.154170 0.584486
#
# Coordination Sequence:
#
# PCOD8287602 Si02
#       7
#    16  16  16  16  16   8  16
#     4   9  18  31  46  68  99 130 159 196 240 281
#     4   8  14  26  44  65  92 126 158 188 229 280
#     4   9  17  31  50  71  95 123 158 200 243 283
#     4   9  17  29  48  73  97 123 156 193 236 288
#     4   9  16  26  43  69  99 125 151 190 236 279
#     4   9  16  26  43  67  90 116 154 195 233 273
#     4  10  18  30  48  68  92 124 161 201 239 280
#
# _framework density 17.565069999999999
#
# number of rings (size 3 to 8) (size 9 to 14) (size 15 to 20)
#    0.000    3.000    0.769    1.846    0.000    3.692 
#    0.000    4.231    0.000    3.692    0.000    2.154 
#    0.000    0.000    0.000    0.000    0.000    0.000 
#
# Total GULP energy -644621.362719 kJ/mol
# GULP energy per Si atom -12396.564668 kJ/mol
# Density = 1.752509 g / cm^3
# Si number density = 17.565070 Si / 1000 Ang^3
#
#
#
# Elastic Constant Matrix: (Units=GPa)
#
#
# Indices 1 2 3 4 5 6 
#
# 1 61.5141 31.6769 61.6570 0.0000 0.0000 0.0000
# 2 31.6769 83.4017 66.4958 0.0001 0.0000 0.0000
# 3 61.6570 66.4958 159.0594 0.0000 0.0000 0.0000
# 4 0.0000 0.0001 0.0000 7.3073 0.0000 0.0000
# 5 0.0000 0.0000 0.0000 0.0000 21.7883 0.0000
# 6 0.0000 0.0000 0.0000 0.0000 0.0000 12.7122
#
#
#
# Elastic Compliance Matrix: (Units=1/GPa)
#
#
# Indices 1 2 3 4 5 6 
#
# 1 0.027036 -0.002869 -0.009281 0.000000 0.000000 0.000000
# 2 -0.002869 0.018289 -0.006534 0.000000 0.000000 0.000000
# 3 -0.009281 -0.006534 0.012616 0.000000 0.000000 0.000000
# 4 0.000000 0.000000 0.000000 0.136850 0.000000 0.000000
# 5 0.000000 0.000000 0.000000 0.000000 0.045896 0.000000
# 6 0.000000 0.000000 0.000000 0.000000 0.000000 0.078665
#
#
# Mechanical properties :
#
#
# Convention : Reuss Voigt Hill
#
# Bulk Modulus (GPa) = 48.60472 69.29273 58.94872
# Shear Modulus (GPa) = 13.75222 17.97125 15.86173
#
# Velocity S-wave (km/s) = 2.80112 3.20210 3.00830
# Velocity P-wave (km/s) = 6.18005 7.29425 6.76014
#
# Compressibility (1/GPa) = 0.02057413
#
# Stress axis : x y z
#
# Youngs Moduli (GPa) = 36.98748 54.67703 79.26484
#
# Poissons Ratio (x) = 0.15688 0.73563
# Poissons Ratio (y) = 0.10612 0.51789
# Poissons Ratio (z) = 0.34327 0.35724
#
# Static dielectric constant tensor:
#      x y z
#    x 3.115570 0.000000 0.000000 
#    y 0.000000 3.042130 0.000000 
#    z 0.000000 0.000000 3.460890 
# 
# 
# High freq. dielectric constant tensor:
#      x y z
#    x 1.651040 0.000000 0.000000 
#    y 0.000000 1.645920 0.000000 
#    z 0.000000 0.000000 1.691120 
# 
# From -- ./inp_files/68266.got.cif
#   From: 2010.06.25/outbox.cif.g09.slc.cpg/sg71_35_cif.got.tgz:68266.got - 2010.06.28 04:59:45.
