data_PCOD8287851
_publ_section_title
;
Structure prediction by ZEFSAII (Michael W. Deem and Ramdas Pophale) SiO2 
 PCOD8287851
Probable space group: I M M M
;
_chemical_formula_sum "Si O2"
_cell_formula_units_Z 120
_cell_length_a 8.819343
_cell_length_b 24.662296
_cell_length_c 30.085004
_cell_angle_alpha 90.000000
_cell_angle_beta 90.000000
_cell_angle_gamma 90.000000
_cell_volume 6543.646244
_symmetry_space_group_name_H-M "I M M M"
_symmetry_group_IT_number 71
_symmetry_cell_setting 'orthorhombic'
loop_
_space_group_symop_operation_xyz
x,y,z
-x,-y,z
x,-y,-z
-x,y,-z
-x,-y,-z
x,y,-z
-x,y,z
x,-y,z
1/2+x,1/2+y,1/2+z
1/2-x,1/2-y,1/2+z
1/2+x,1/2-y,1/2-z
1/2-x,1/2+y,1/2-z
1/2-x,1/2-y,1/2-z
1/2+x,1/2+y,1/2-z
1/2-x,1/2+y,1/2+z
1/2+x,1/2-y,1/2+z
loop_
_atom_site_type_symbol
_atom_site_label
_atom_site_fract_x
_atom_site_fract_y
_atom_site_fract_z
Si Si1 0.178027 0.939478 0.743232
Si Si2 0.824542 0.255418 0.297783
Si Si3 0.323873 0.637313 0.833050
Si Si4 0.179055 0.366234 0.074842
Si Si5 0.180262 0.246745 0.950510
Si Si6 0.820138 0.173024 0.871090
Si Si7 0.320008 0.440886 0.342135
Si Si8 0.322049 0.562858 0.000000
O O1 0.245290 0.896106 0.708575
O O2 0.246542 0.930664 0.792557
O O3 0.000000 0.929807 0.745953
O O4 0.216250 0.000000 0.726264
O O5 0.750000 0.250000 0.250000
O O6 0.799646 0.200524 0.324922
O O7 0.746636 0.302878 0.325789
O O8 0.000000 0.269115 0.291266
O O9 0.500000 0.623145 0.841169
O O10 0.227092 0.619636 0.875362
O O11 0.240329 0.306552 0.061586
O O12 0.000000 0.369038 0.069466
O O13 0.252747 0.410841 0.043746
O O14 0.244889 0.203271 0.914870
O O15 0.000000 0.246273 0.949034
O O16 0.237906 0.230990 0.000000
O O17 0.771146 0.109345 0.873679
O O18 0.000000 0.179521 0.868396
O O19 0.500000 0.443174 0.338870
O O20 0.261656 0.500000 0.360085
O O21 0.278766 0.500000 0.000000
O O22 0.500000 0.572531 0.000000
#
# Coordination Sequence:
#
# PCOD8287851 Si02
#       8
#    16  16  16  16  16  16  16   8
#     4   8  14  26  44  65  92 128 169 210 251 297
#     4  11  22  33  48  73 108 144 181 223 269 322
#     4  10  20  33  49  73 103 136 175 220 269 318
#     4  11  21  36  57  78 104 137 173 217 272 329
#     4   9  17  31  52  77 103 135 170 208 261 323
#     4  10  18  31  53  77 103 135 176 219 262 319
#     4   8  14  26  47  75 103 133 172 215 254 299
#     4  11  25  43  61  81 105 137 180 227 274 322
#
# _framework density 18.3384
#
# number of rings (size 3 to 8) (size 9 to 14) (size 15 to 20)
#    0.000    2.333    2.000    2.600    0.000    3.733 
#    0.000    1.333    0.000    0.800    0.000    4.667 
#    0.000    0.000    0.000    1.200    0.000    1.333 
#
# Total GULP energy -743783.598872 kJ/mol
# GULP energy per Si atom -12396.393315 kJ/mol
# Density = 1.829666 g / cm^3
# Si number density = 18.338400 Si / 1000 Ang^3
#
#
#
# Elastic Constant Matrix: (Units=GPa)
#
#
# Indices 1 2 3 4 5 6 
#
# 1 37.2468 35.3539 26.5583 0.0000 0.0000 0.0000
# 2 35.3539 138.6253 60.7928 0.0000 0.0000 0.0000
# 3 26.5583 60.7928 108.5650 0.0000 0.0000 0.0000
# 4 0.0000 0.0000 0.0000 33.2693 0.0000 0.0000
# 5 0.0000 0.0000 0.0000 0.0000 20.5348 0.0000
# 6 0.0000 0.0000 0.0000 0.0000 0.0000 15.4716
#
#
#
# Elastic Compliance Matrix: (Units=1/GPa)
#
#
# Indices 1 2 3 4 5 6 
#
# 1 0.037399 -0.007324 -0.005048 0.000000 0.000000 0.000000
# 2 -0.007324 0.010996 -0.004366 0.000000 0.000000 0.000000
# 3 -0.005048 -0.004366 0.012891 0.000000 0.000000 0.000000
# 4 0.000000 0.000000 0.000000 0.030058 0.000000 0.000000
# 5 0.000000 0.000000 0.000000 0.000000 0.048698 0.000000
# 6 0.000000 0.000000 0.000000 0.000000 0.000000 0.064634
#
#
# Mechanical properties :
#
#
# Convention : Reuss Voigt Hill
#
# Bulk Modulus (GPa) = 35.95763 58.87189 47.41476
# Shear Modulus (GPa) = 20.20843 24.63728 22.42286
#
# Velocity S-wave (km/s) = 3.32320 3.66933 3.50054
# Velocity P-wave (km/s) = 5.86304 7.07988 6.50000
#
# Compressibility (1/GPa) = 0.02781051
#
# Stress axis : x y z
#
# Youngs Moduli (GPa) = 26.73853 90.94043 77.57636
#
# Poissons Ratio (x) = 0.66609 0.39157
# Poissons Ratio (y) = 0.19584 0.33868
# Poissons Ratio (z) = 0.13496 0.39702
#
# Static dielectric constant tensor:
#      x y z
#    x 2.999890 0.000000 0.000000 
#    y 0.000000 3.738530 0.000000 
#    z 0.000000 0.000000 3.581020 
# 
# 
# High freq. dielectric constant tensor:
#      x y z
#    x 1.670570 0.000000 0.000000 
#    y 0.000000 1.717700 0.000000 
#    z 0.000000 0.000000 1.706270 
# 
# From -- ./inp_files/63777.got.cif
#   From: 2010.06.25/outbox.cif.g09.slc.cpg/sg71_32_cif.got.tgz:63777.got - 2010.06.28 04:59:45.
