data_PCOD8287146
_publ_section_title
;
Structure prediction by ZEFSAII (Michael W. Deem and Ramdas Pophale) SiO2 
 PCOD8287146
Probable space group: I M M M
;
_chemical_formula_sum "Si O2"
_cell_formula_units_Z 120
_cell_length_a 18.720558
_cell_length_b 14.582240
_cell_length_c 22.629584
_cell_angle_alpha 90.000000
_cell_angle_beta 90.000000
_cell_angle_gamma 90.000000
_cell_volume 6177.597402
_symmetry_space_group_name_H-M "I M M M"
_symmetry_group_IT_number 71
_symmetry_cell_setting 'orthorhombic'
loop_
_space_group_symop_operation_xyz
x,y,z
-x,-y,z
x,-y,-z
-x,y,-z
-x,-y,-z
x,y,-z
-x,y,z
x,-y,z
1/2+x,1/2+y,1/2+z
1/2-x,1/2-y,1/2+z
1/2+x,1/2-y,1/2-z
1/2-x,1/2+y,1/2-z
1/2-x,1/2-y,1/2-z
1/2+x,1/2+y,1/2-z
1/2-x,1/2+y,1/2+z
1/2+x,1/2-y,1/2+z
loop_
_atom_site_type_symbol
_atom_site_label
_atom_site_fract_x
_atom_site_fract_y
_atom_site_fract_z
Si Si1 0.175986 0.350201 0.832244
Si Si2 0.584552 0.893799 0.000000
Si Si3 0.348514 0.098299 0.792535
Si Si4 0.083169 0.290146 0.935550
Si Si5 0.415268 0.226127 0.113537
Si Si6 0.313094 0.646744 0.709830
Si Si7 0.918898 0.900925 0.888480
Si Si8 0.667445 0.396134 0.156375
O O1 0.137889 0.402338 0.778187
O O2 0.121831 0.349488 0.886377
O O3 0.195962 0.252744 0.804672
O O4 0.248002 0.395405 0.857422
O O5 0.610286 0.836394 0.057819
O O6 0.500000 0.899531 0.000000
O O7 0.614561 0.000000 0.000000
O O8 0.393485 0.175363 0.826084
O O9 0.263704 0.103461 0.802354
O O10 0.374894 0.000000 0.817068
O O11 0.103107 0.181993 0.931523
O O12 0.000000 0.306118 0.926744
O O13 0.108189 0.323774 0.000000
O O14 0.500000 0.242786 0.111851
O O15 0.375739 0.325309 0.113910
O O16 0.370522 0.597574 0.669184
O O17 0.342350 0.632577 0.775644
O O18 0.000000 0.886359 0.866917
O O19 0.910488 0.000000 0.920899
O O20 0.639083 0.500000 0.145226
#
# Coordination Sequence:
#
# PCOD8287146 Si02
#       8
#    16   8  16  16  16  16  16  16
#     4  10  18  35  57  82 115 154 190 238 286 335
#     4   9  20  42  67  85 111 151 185 226 292 360
#     4  11  20  34  59  87 114 147 185 235 289 340
#     4   9  19  34  53  76 106 150 192 230 286 339
#     4  11  23  40  60  87 118 149 190 238 289 350
#     4  10  17  33  54  79 117 156 188 229 288 344
#     4   9  17  28  46  76 111 147 190 234 272 327
#     4  11  21  37  59  85 117 156 193 231 287 347
#
# _framework density 19.425027
#
# number of rings (size 3 to 8) (size 9 to 14) (size 15 to 20)
#    0.000    1.933    2.667    3.600    0.000    2.400 
#    1.200    1.667    0.000    3.600    0.000    3.733 
#    0.000    0.000    0.000    0.000    0.000    0.000 
#
# Total GULP energy -743639.681084 kJ/mol
# GULP energy per Si atom -12393.994685 kJ/mol
# Density = 1.938081 g / cm^3
# Si number density = 19.425027 Si / 1000 Ang^3
#
#
#
# Elastic Constant Matrix: (Units=GPa)
#
#
# Indices 1 2 3 4 5 6 
#
# 1 54.2933 20.5491 52.8795 0.0000 0.0000 0.0000
# 2 20.5491 120.6234 34.6251 0.0000 0.0000 0.0000
# 3 52.8795 34.6251 106.6953 0.0000 0.0000 0.0000
# 4 0.0000 0.0000 0.0000 17.6490 0.0000 0.0000
# 5 0.0000 0.0000 0.0000 0.0000 10.4105 0.0000
# 6 0.0000 0.0000 0.0000 0.0000 0.0000 20.6101
#
#
#
# Elastic Compliance Matrix: (Units=1/GPa)
#
#
# Indices 1 2 3 4 5 6 
#
# 1 0.035739 -0.001107 -0.017353 0.000000 0.000000 0.000000
# 2 -0.001107 0.009176 -0.002429 0.000000 0.000000 0.000000
# 3 -0.017353 -0.002429 0.018761 0.000000 0.000000 0.000000
# 4 0.000000 0.000000 0.000000 0.056661 0.000000 0.000000
# 5 0.000000 0.000000 0.000000 0.000000 0.096057 0.000000
# 6 0.000000 0.000000 0.000000 0.000000 0.000000 0.048520
#
#
# Mechanical properties :
#
#
# Convention : Reuss Voigt Hill
#
# Bulk Modulus (GPa) = 45.66797 55.30215 50.48506
# Shear Modulus (GPa) = 15.92394 21.30445 18.61420
#
# Velocity S-wave (km/s) = 2.86626 3.31532 3.09893
# Velocity P-wave (km/s) = 5.87493 6.57164 6.23303
#
# Compressibility (1/GPa) = 0.02189718
#
# Stress axis : x y z
#
# Youngs Moduli (GPa) = 27.98060 108.97793 53.30093
#
# Poissons Ratio (x) = 0.12065 0.92495
# Poissons Ratio (y) = 0.03098 0.12948
# Poissons Ratio (z) = 0.48556 0.26473
#
# Static dielectric constant tensor:
#      x y z
#    x 3.395920 0.000000 0.000000 
#    y 0.000000 3.777340 0.000000 
#    z 0.000000 0.000000 3.487810 
# 
# 
# High freq. dielectric constant tensor:
#      x y z
#    x 1.739700 0.000000 0.000000 
#    y 0.000000 1.766560 0.000000 
#    z 0.000000 0.000000 1.737830 
# 
# From -- ./inp_files/55133.got.cif
#   From: 2010.06.25/outbox.cif.g09.slc.cpg/sg71_28_cif.got.tgz:55133.got - 2010.06.28 04:59:45.
