data_PCOD8287325
_publ_section_title
;
Structure prediction by ZEFSAII (Michael W. Deem and Ramdas Pophale) SiO2 
 PCOD8287325
Probable space group: I M M M
;
_chemical_formula_sum "Si O2"
_cell_formula_units_Z 104
_cell_length_a 22.453578
_cell_length_b 29.735698
_cell_length_c 9.320104
_cell_angle_alpha 90.000000
_cell_angle_beta 90.000000
_cell_angle_gamma 90.000000
_cell_volume 6222.780068
_symmetry_space_group_name_H-M "I M M M"
_symmetry_group_IT_number 71
_symmetry_cell_setting 'orthorhombic'
loop_
_space_group_symop_operation_xyz
x,y,z
-x,-y,z
x,-y,-z
-x,y,-z
-x,-y,-z
x,y,-z
-x,y,z
x,-y,z
1/2+x,1/2+y,1/2+z
1/2-x,1/2-y,1/2+z
1/2+x,1/2-y,1/2-z
1/2-x,1/2+y,1/2-z
1/2-x,1/2-y,1/2-z
1/2+x,1/2+y,1/2-z
1/2-x,1/2+y,1/2+z
1/2+x,1/2-y,1/2+z
loop_
_atom_site_type_symbol
_atom_site_label
_atom_site_fract_x
_atom_site_fract_y
_atom_site_fract_z
Si Si1 0.429720 0.310277 0.833037
Si Si2 0.345766 0.052279 0.333259
Si Si3 0.929034 0.615708 0.335758
Si Si4 0.000000 0.949793 0.170662
Si Si5 0.935040 0.712826 0.669353
Si Si6 0.271599 0.551799 0.666435
Si Si7 0.112375 0.106328 0.169465
O O1 0.500000 0.314009 0.796946
O O2 0.404218 0.260385 0.788626
O O3 0.391088 0.345055 0.741886
O O4 0.418785 0.319959 0.000000
O O5 0.340226 0.063469 0.500000
O O6 0.401117 0.078893 0.267862
O O7 0.284960 0.067673 0.257528
O O8 0.358097 0.000000 0.304876
O O9 0.911389 0.604849 0.500000
O O10 0.903317 0.665482 0.289204
O O11 0.000000 0.614712 0.317634
O O12 0.058240 0.924136 0.227252
O O13 0.000000 0.000000 0.235223
O O14 0.000000 0.952063 0.000000
O O15 0.943947 0.712696 0.500000
O O16 0.000000 0.712871 0.742545
O O17 0.256383 0.558898 0.500000
O O18 0.288195 0.500000 0.697766
O O19 0.326713 0.582308 0.715254
O O20 0.108233 0.112719 0.000000
#
# Coordination Sequence:
#
# PCOD8287325 Si02
#       7
#    16  16  16   8  16  16  16
#     4   9  16  27  44  66  95 128 158 188 231 286
#     4  10  21  35  50  70  98 129 156 187 232 282
#     4   9  17  31  53  78 100 123 155 192 228 269
#     4   9  16  26  41  63  93 125 153 189 242 291
#     4   7  12  25  45  68  93 123 156 188 224 272
#     4   9  18  33  51  68  87 120 167 206 234 273
#     4  10  18  28  45  69  94 120 156 203 245 281
#
# _framework density 16.712786999999999
#
# number of rings (size 3 to 8) (size 9 to 14) (size 15 to 20)
#    0.000    3.000    0.769    2.769    0.000    4.000 
#    0.000    2.308    0.000    5.538    0.000    0.000 
#    0.000    0.000    0.000    0.000    0.000    0.000 
#
# Total GULP energy -644383.105632 kJ/mol
# GULP energy per Si atom -12391.982801 kJ/mol
# Density = 1.667475 g / cm^3
# Si number density = 16.712787 Si / 1000 Ang^3
#
#
#
# Elastic Constant Matrix: (Units=GPa)
#
#
# Indices 1 2 3 4 5 6 
#
# 1 70.4462 56.2485 37.1851 0.0000 0.0000 0.0000
# 2 56.2485 118.2999 47.3151 0.0000 0.0000 0.0000
# 3 37.1851 47.3151 51.0515 0.0000 0.0000 0.0000
# 4 0.0000 0.0000 0.0000 26.5756 0.0000 0.0000
# 5 0.0000 0.0000 0.0000 0.0000 19.2390 0.0000
# 6 0.0000 0.0000 0.0000 0.0000 0.0000 16.3398
#
#
#
# Elastic Compliance Matrix: (Units=1/GPa)
#
#
# Indices 1 2 3 4 5 6 
#
# 1 0.027037 -0.007912 -0.012361 0.000000 0.000000 0.000000
# 2 -0.007912 0.015747 -0.008832 0.000000 0.000000 0.000000
# 3 -0.012361 -0.008832 0.036777 0.000000 0.000000 0.000000
# 4 0.000000 0.000000 0.000000 0.037628 0.000000 0.000000
# 5 0.000000 0.000000 0.000000 0.000000 0.051978 0.000000
# 6 0.000000 0.000000 0.000000 0.000000 0.000000 0.061200
#
#
# Mechanical properties :
#
#
# Convention : Reuss Voigt Hill
#
# Bulk Modulus (GPa) = 46.83291 57.92167 52.37729
# Shear Modulus (GPa) = 16.90938 19.03416 17.97177
#
# Velocity S-wave (km/s) = 3.18427 3.37842 3.28278
# Velocity P-wave (km/s) = 6.45000 7.06757 6.76584
#
# Compressibility (1/GPa) = 0.02135251
#
# Stress axis : x y z
#
# Youngs Moduli (GPa) = 36.98649 63.50293 27.19086
#
# Poissons Ratio (x) = 0.50241 0.33610
# Poissons Ratio (y) = 0.29262 0.24015
# Poissons Ratio (z) = 0.45718 0.56086
#
# Static dielectric constant tensor:
#      x y z
#    x 2.882040 0.000000 0.000000 
#    y 0.000000 3.450230 0.000000 
#    z 0.000000 0.000000 2.878780 
# 
# 
# High freq. dielectric constant tensor:
#      x y z
#    x 1.613330 0.000000 0.000000 
#    y 0.000000 1.657330 0.000000 
#    z 0.000000 0.000000 1.618990 
# 
# From -- ./inp_files/11521.got.cif
#   From: 2010.06.25/outbox.cif.g09.slc.cpg/sg71_6_cif.got.tgz:11521.got - 2010.06.28 04:59:45.
