data_PCOD8287380
_publ_section_title
;
Structure prediction by ZEFSAII (Michael W. Deem and Ramdas Pophale) SiO2 
 PCOD8287380
Probable space group: I M M M
;
_chemical_formula_sum "Si O2"
_cell_formula_units_Z 72
_cell_length_a 8.613601
_cell_length_b 18.398878
_cell_length_c 31.426124
_cell_angle_alpha 90.000000
_cell_angle_beta 90.000000
_cell_angle_gamma 90.000000
_cell_volume 4980.430797
_symmetry_space_group_name_H-M "I M M M"
_symmetry_group_IT_number 71
_symmetry_cell_setting 'orthorhombic'
loop_
_space_group_symop_operation_xyz
x,y,z
-x,-y,z
x,-y,-z
-x,y,-z
-x,-y,-z
x,y,-z
-x,y,z
x,-y,z
1/2+x,1/2+y,1/2+z
1/2-x,1/2-y,1/2+z
1/2+x,1/2-y,1/2-z
1/2-x,1/2+y,1/2-z
1/2-x,1/2-y,1/2-z
1/2+x,1/2+y,1/2-z
1/2-x,1/2+y,1/2+z
1/2+x,1/2-y,1/2+z
loop_
_atom_site_type_symbol
_atom_site_label
_atom_site_fract_x
_atom_site_fract_y
_atom_site_fract_z
Si Si1 0.316323 0.288358 0.208415
Si Si2 0.320412 0.914539 0.087667
Si Si3 0.174714 0.086235 0.000000
Si Si4 0.818259 0.840541 0.167774
Si Si5 0.683111 0.917153 0.249556
O O1 0.500000 0.284991 0.206751
O O2 0.250000 0.250000 0.250000
O O3 0.246077 0.242720 0.168919
O O4 0.259392 0.371860 0.211298
O O5 0.500000 0.895242 0.094330
O O6 0.217018 0.873021 0.121867
O O7 0.290242 0.000000 0.092675
O O8 0.266575 0.886300 0.041489
O O9 0.000000 0.117889 0.000000
O O10 0.170148 0.000000 0.000000
O O11 0.737471 0.889854 0.203488
O O12 0.000000 0.840445 0.176691
O O13 0.500000 0.908198 0.251894
O O14 0.735965 0.000000 0.255450
#
# Coordination Sequence:
#
# PCOD8287380 Si02
#       5
#    16  16   8  16  16
#     4  10  18  29  43  57  77 103 132 165 202 242
#     4  10  19  30  43  59  80 106 136 169 204 240
#     4   9  17  29  43  59  79 103 132 165 202 241
#     4  11  20  29  42  59  80 105 136 171 204 239
#     4  10  19  30  43  59  80 105 134 168 204 241
#
# _framework density 14.456581
#
# number of rings (size 3 to 8) (size 9 to 14) (size 15 to 20)
#    0.000    1.889    0.000    9.000    0.000    7.111 
#    0.000    0.000    0.000    0.000    0.000    0.000 
#    0.000    0.000    0.000    1.000    0.000   18.444 
#
# Total GULP energy -446332.915074 kJ/mol
# GULP energy per Si atom -12398.136530 kJ/mol
# Density = 1.442368 g / cm^3
# Si number density = 14.456581 Si / 1000 Ang^3
#
#
#
# Elastic Constant Matrix: (Units=GPa)
#
#
# Indices 1 2 3 4 5 6 
#
# 1 55.9556 25.1153 13.2399 0.0000 0.0000 0.0000
# 2 25.1153 83.8010 32.8765 0.0000 0.0000 0.0000
# 3 13.2399 32.8765 57.1366 0.0000 0.0000 0.0000
# 4 0.0000 0.0000 0.0000 14.9919 0.0000 0.0000
# 5 0.0000 0.0000 0.0000 0.0000 24.0652 0.0000
# 6 0.0000 0.0000 0.0000 0.0000 0.0000 22.5409
#
#
#
# Elastic Compliance Matrix: (Units=1/GPa)
#
#
# Indices 1 2 3 4 5 6 
#
# 1 0.020760 -0.005598 -0.001589 0.000000 0.000000 0.000000
# 2 -0.005598 0.016922 -0.008440 0.000000 0.000000 0.000000
# 3 -0.001589 -0.008440 0.022726 0.000000 0.000000 0.000000
# 4 0.000000 0.000000 0.000000 0.066703 0.000000 0.000000
# 5 0.000000 0.000000 0.000000 0.000000 0.041554 0.000000
# 6 0.000000 0.000000 0.000000 0.000000 0.000000 0.044364
#
#
# Mechanical properties :
#
#
# Convention : Reuss Voigt Hill
#
# Bulk Modulus (GPa) = 34.30078 37.70628 36.00353
# Shear Modulus (GPa) = 19.68496 20.69704 20.19100
#
# Velocity S-wave (km/s) = 3.69407 3.78784 3.74125
# Velocity P-wave (km/s) = 6.47867 6.72825 6.60464
#
# Compressibility (1/GPa) = 0.02915386
#
# Stress axis : x y z
#
# Youngs Moduli (GPa) = 48.16926 59.09521 44.00173
#
# Poissons Ratio (x) = 0.33083 0.06993
# Poissons Ratio (y) = 0.26967 0.37136
# Poissons Ratio (z) = 0.07656 0.49874
#
# Static dielectric constant tensor:
#      x y z
#    x 2.979580 0.000000 0.000000 
#    y 0.000000 3.154980 0.000000 
#    z 0.000000 0.000000 2.780140 
# 
# 
# High freq. dielectric constant tensor:
#      x y z
#    x 1.577890 0.000000 0.000000 
#    y 0.000000 1.529810 0.000000 
#    z 0.000000 0.000000 1.522130 
# 
# From -- ./inp_files/57396.got.cif
#   From: 2010.06.25/outbox.cif.g09.slc.cpg/sg71_29_cif.got.tgz:57396.got - 2010.06.28 04:59:45.
