data_PCOD8287705
_publ_section_title
;
Structure prediction by ZEFSAII (Michael W. Deem and Ramdas Pophale) SiO2 
 PCOD8287705
Probable space group: I M M M
;
_chemical_formula_sum "Si O2"
_cell_formula_units_Z 80
_cell_length_a 8.493350
_cell_length_b 18.767788
_cell_length_c 26.953625
_cell_angle_alpha 90.000000
_cell_angle_beta 90.000000
_cell_angle_gamma 90.000000
_cell_volume 4296.445350
_symmetry_space_group_name_H-M "I M M M"
_symmetry_group_IT_number 71
_symmetry_cell_setting 'orthorhombic'
loop_
_space_group_symop_operation_xyz
x,y,z
-x,-y,z
x,-y,-z
-x,y,-z
-x,-y,-z
x,y,-z
-x,y,z
x,-y,z
1/2+x,1/2+y,1/2+z
1/2-x,1/2-y,1/2+z
1/2+x,1/2-y,1/2-z
1/2-x,1/2+y,1/2-z
1/2-x,1/2-y,1/2-z
1/2+x,1/2+y,1/2-z
1/2-x,1/2+y,1/2+z
1/2+x,1/2-y,1/2+z
loop_
_atom_site_type_symbol
_atom_site_label
_atom_site_fract_x
_atom_site_fract_y
_atom_site_fract_z
Si Si1 0.813294 0.077959 0.444753
Si Si2 0.316330 0.919321 0.148321
Si Si3 0.316974 0.654595 0.555892
Si Si4 0.184577 0.783540 0.608300
Si Si5 0.683068 0.288197 0.702017
O O1 0.743624 0.088615 0.500000
O O2 0.750269 0.139546 0.408753
O O3 0.000000 0.083658 0.447837
O O4 0.762677 0.000000 0.424161
O O5 0.500000 0.907165 0.139442
O O6 0.230590 0.905266 0.095840
O O7 0.260502 0.865503 0.191538
O O8 0.278539 0.000000 0.165281
O O9 0.281860 0.627144 0.500000
O O10 0.500000 0.672635 0.562910
O O11 0.216776 0.726223 0.565108
O O12 0.284481 0.763913 0.656351
O O13 0.000000 0.784606 0.621272
O O14 0.500000 0.301005 0.709332
O O15 0.750000 0.250000 0.750000
#
# Coordination Sequence:
#
# PCOD8287705 Si02
#       5
#    16  16  16  16  16
#     4   8  14  25  43  70 103 136 169 206 248 294
#     4  10  21  37  57  81 108 136 169 212 260 309
#     4  10  20  32  48  73 106 143 179 213 251 301
#     4  10  18  30  51  76 101 132 172 217 262 309
#     4  11  22  38  59  79 102 133 170 213 260 310
#
# _framework density 18.620044
#
# number of rings (size 3 to 8) (size 9 to 14) (size 15 to 20)
#    0.000    2.200    0.000    7.200    0.000    4.400 
#    0.000    3.000    0.000    6.000    0.000    7.000 
#    0.000    0.000    0.000    0.000    0.000    0.000 
#
# Total GULP energy -495888.968786 kJ/mol
# GULP energy per Si atom -12397.224220 kJ/mol
# Density = 1.857766 g / cm^3
# Si number density = 18.620044 Si / 1000 Ang^3
#
#
#
# Elastic Constant Matrix: (Units=GPa)
#
#
# Indices 1 2 3 4 5 6 
#
# 1 60.7046 23.6691 24.6155 0.0000 0.0000 0.0000
# 2 23.6691 157.1016 60.3094 0.0000 0.0000 0.0000
# 3 24.6155 60.3094 103.3312 0.0000 0.0000 0.0000
# 4 0.0000 0.0000 0.0000 20.5271 0.0000 0.0000
# 5 0.0000 0.0000 0.0000 0.0000 28.9438 0.0000
# 6 0.0000 0.0000 0.0000 0.0000 0.0000 16.8627
#
#
#
# Elastic Compliance Matrix: (Units=1/GPa)
#
#
# Indices 1 2 3 4 5 6 
#
# 1 0.018474 -0.001410 -0.003578 0.000000 0.000000 0.000000
# 2 -0.001410 0.008311 -0.004515 0.000000 0.000000 0.000000
# 3 -0.003578 -0.004515 0.013165 0.000000 0.000000 0.000000
# 4 0.000000 0.000000 0.000000 0.048716 0.000000 0.000000
# 5 0.000000 0.000000 0.000000 0.000000 0.034550 0.000000
# 6 0.000000 0.000000 0.000000 0.000000 0.000000 0.059302
#
#
# Mechanical properties :
#
#
# Convention : Reuss Voigt Hill
#
# Bulk Modulus (GPa) = 47.74514 59.81393 53.77954
# Shear Modulus (GPa) = 23.98028 27.43628 25.70828
#
# Velocity S-wave (km/s) = 3.59259 3.84276 3.71978
# Velocity P-wave (km/s) = 6.55030 7.20293 6.88435
#
# Compressibility (1/GPa) = 0.02094454
#
# Stress axis : x y z
#
# Youngs Moduli (GPa) = 54.13091 120.32403 75.95862
#
# Poissons Ratio (x) = 0.16962 0.27178
# Poissons Ratio (y) = 0.07631 0.34294
# Poissons Ratio (z) = 0.19368 0.54324
#
# Static dielectric constant tensor:
#      x y z
#    x 3.382770 0.000000 0.000000 
#    y 0.000000 3.632660 0.000000 
#    z 0.000000 0.000000 3.387630 
# 
# 
# High freq. dielectric constant tensor:
#      x y z
#    x 1.718670 0.000000 0.000000 
#    y 0.000000 1.726000 0.000000 
#    z 0.000000 0.000000 1.706170 
# 
# From -- ./inp_files/8592.got.cif
#   From: 2010.06.25/outbox.cif.g09.slc.cpg/sg71_5_cif.got.tgz:8592.got - 2010.06.28 04:59:45.
