data_PCOD8287324
_publ_section_title
;
Structure prediction by ZEFSAII (Michael W. Deem and Ramdas Pophale) SiO2 
 PCOD8287324
Probable space group: I M M M
;
_chemical_formula_sum "Si O2"
_cell_formula_units_Z 88
_cell_length_a 18.033580
_cell_length_b 19.775582
_cell_length_c 14.371403
_cell_angle_alpha 90.000000
_cell_angle_beta 90.000000
_cell_angle_gamma 90.000000
_cell_volume 5125.194985
_symmetry_space_group_name_H-M "I M M M"
_symmetry_group_IT_number 71
_symmetry_cell_setting 'orthorhombic'
loop_
_space_group_symop_operation_xyz
x,y,z
-x,-y,z
x,-y,-z
-x,y,-z
-x,-y,-z
x,y,-z
-x,y,z
x,-y,z
1/2+x,1/2+y,1/2+z
1/2-x,1/2-y,1/2+z
1/2+x,1/2-y,1/2-z
1/2-x,1/2+y,1/2-z
1/2-x,1/2-y,1/2-z
1/2+x,1/2+y,1/2-z
1/2-x,1/2+y,1/2+z
1/2+x,1/2-y,1/2+z
loop_
_atom_site_type_symbol
_atom_site_label
_atom_site_fract_x
_atom_site_fract_y
_atom_site_fract_z
Si Si1 0.414687 0.208548 0.204342
Si Si2 0.140406 0.838321 0.389474
Si Si3 0.774945 0.426236 0.892029
Si Si4 0.412110 0.074417 0.895134
Si Si5 0.000000 0.075697 0.389780
Si Si6 0.416822 0.843550 0.603426
O O1 0.500000 0.218923 0.172331
O O2 0.364120 0.265471 0.158530
O O3 0.384157 0.134809 0.171816
O O4 0.407229 0.213280 0.316769
O O5 0.139238 0.827470 0.500000
O O6 0.216059 0.872446 0.351572
O O7 0.072654 0.884940 0.355101
O O8 0.764867 0.500000 0.844882
O O9 0.859442 0.403570 0.877039
O O10 0.755899 0.432978 0.000000
O O11 0.500000 0.072696 0.893147
O O12 0.382287 0.000000 0.862612
O O13 0.384293 0.089274 0.000000
O O14 0.000000 0.071173 0.500000
O O15 0.000000 0.000000 0.347315
O O16 0.403396 0.811838 0.500000
O O17 0.500000 0.874412 0.610289
#
# Coordination Sequence:
#
# PCOD8287324 Si02
#       6
#    16  16  16  16   8  16
#     4  10  18  28  45  68  94 122 158 197 232 277
#     4  10  18  28  45  71 101 129 153 182 225 282
#     4   9  18  32  48  67  94 126 157 191 234 284
#     4   8  14  24  38  58  87 122 155 187 225 271
#     4   9  16  26  42  66  98 132 156 175 210 268
#     4   9  19  34  49  65  87 118 160 210 249 276
#
# _framework density 17.170079000000001
#
# number of rings (size 3 to 8) (size 9 to 14) (size 15 to 20)
#    0.000    2.818    0.909    1.636    0.000    4.727 
#    0.000    3.636    0.000    0.000    0.000    0.000 
#    0.000    5.091    0.000    0.000    0.000    0.000 
#
# Total GULP energy -545259.771253 kJ/mol
# GULP energy per Si atom -12392.267528 kJ/mol
# Density = 1.713100 g / cm^3
# Si number density = 17.170079 Si / 1000 Ang^3
#
#
#
# Elastic Constant Matrix: (Units=GPa)
#
#
# Indices 1 2 3 4 5 6 
#
# 1 89.3465 52.3686 27.5057 0.0000 0.0000 0.0000
# 2 52.3686 133.7654 46.6207 0.0000 0.0000 0.0000
# 3 27.5057 46.6207 68.0714 0.0000 0.0000 0.0000
# 4 0.0000 0.0000 0.0000 11.1677 0.0000 0.0000
# 5 0.0000 0.0000 0.0000 0.0000 11.1752 0.0000
# 6 0.0000 0.0000 0.0000 0.0000 0.0000 18.4177
#
#
#
# Elastic Compliance Matrix: (Units=1/GPa)
#
#
# Indices 1 2 3 4 5 6 
#
# 1 0.014883 -0.004900 -0.002658 0.000000 0.000000 0.000000
# 2 -0.004900 0.011433 -0.005850 0.000000 0.000000 0.000000
# 3 -0.002658 -0.005850 0.019771 0.000000 0.000000 0.000000
# 4 0.000000 0.000000 0.000000 0.089544 0.000000 0.000000
# 5 0.000000 0.000000 0.000000 0.000000 0.089484 0.000000
# 6 0.000000 0.000000 0.000000 0.000000 0.000000 0.054296
#
#
# Mechanical properties :
#
#
# Convention : Reuss Voigt Hill
#
# Bulk Modulus (GPa) = 51.89236 60.46370 56.17803
# Shear Modulus (GPa) = 15.99227 19.13131 17.56179
#
# Velocity S-wave (km/s) = 3.05520 3.34162 3.20162
# Velocity P-wave (km/s) = 6.53711 7.08376 6.81592
#
# Compressibility (1/GPa) = 0.01927066
#
# Stress axis : x y z
#
# Youngs Moduli (GPa) = 67.19198 87.46452 50.57897
#
# Poissons Ratio (x) = 0.42860 0.13442
# Poissons Ratio (y) = 0.32926 0.29590
# Poissons Ratio (z) = 0.17857 0.51169
#
# Static dielectric constant tensor:
#      x y z
#    x 3.077920 0.000000 0.000000 
#    y 0.000000 3.312540 0.000000 
#    z 0.000000 0.000000 3.095390 
# 
# 
# High freq. dielectric constant tensor:
#      x y z
#    x 1.642300 0.000000 0.000000 
#    y 0.000000 1.653450 0.000000 
#    z 0.000000 0.000000 1.634690 
# 
# From -- ./inp_files/36381.got.cif
#   From: 2010.06.25/outbox.cif.g09.slc.cpg/sg71_19_cif.got.tgz:36381.got - 2010.06.28 04:59:45.
