data_PCOD8287887
_publ_section_title
;
Structure prediction by ZEFSAII (Michael W. Deem and Ramdas Pophale) SiO2 
 PCOD8287887
Probable space group: I M M M
;
_chemical_formula_sum "Si O2"
_cell_formula_units_Z 88
_cell_length_a 11.725573
_cell_length_b 13.917305
_cell_length_c 27.881531
_cell_angle_alpha 90.000000
_cell_angle_beta 90.000000
_cell_angle_gamma 90.000000
_cell_volume 4549.941757
_symmetry_space_group_name_H-M "I M M M"
_symmetry_group_IT_number 71
_symmetry_cell_setting 'orthorhombic'
loop_
_space_group_symop_operation_xyz
x,y,z
-x,-y,z
x,-y,-z
-x,y,-z
-x,-y,-z
x,y,-z
-x,y,z
x,-y,z
1/2+x,1/2+y,1/2+z
1/2-x,1/2-y,1/2+z
1/2+x,1/2-y,1/2-z
1/2-x,1/2+y,1/2-z
1/2-x,1/2-y,1/2-z
1/2+x,1/2+y,1/2-z
1/2-x,1/2+y,1/2+z
1/2+x,1/2-y,1/2+z
loop_
_atom_site_type_symbol
_atom_site_label
_atom_site_fract_x
_atom_site_fract_y
_atom_site_fract_z
Si Si1 0.262909 0.889695 0.553955
Si Si2 0.000000 0.303535 0.078356
Si Si3 0.000000 0.106424 0.115589
Si Si4 0.500000 0.110375 0.681120
Si Si5 0.266659 0.390540 0.329686
Si Si6 0.256801 0.111926 0.278099
Si Si7 0.865287 0.781991 0.636929
O O1 0.213960 0.882026 0.500000
O O2 0.389871 0.847353 0.553388
O O3 0.181129 0.831911 0.589084
O O4 0.267985 0.000000 0.571312
O O5 0.000000 0.186955 0.073728
O O6 0.000000 0.323059 0.134869
O O7 0.892054 0.119338 0.149632
O O8 0.000000 0.000000 0.091635
O O9 0.610677 0.134511 0.712312
O O10 0.500000 0.000000 0.663877
O O11 0.221427 0.500000 0.330923
O O12 0.270720 0.350616 0.275256
O O13 0.180197 0.327155 0.361328
O O14 0.175804 0.163019 0.315995
O O15 0.229735 0.000000 0.282282
O O16 0.000000 0.782043 0.634523
#
# Coordination Sequence:
#
# PCOD8287887 Si02
#       7
#    16   8   8   8  16  16  16
#     4  11  24  42  65  92 119 151 193 243 302 364
#     4  12  19  37  65  92 123 151 190 246 303 357
#     4  10  20  37  64  91 121 158 194 242 299 343
#     4  10  18  31  57  87 118 155 196 244 301 346
#     4  10  22  40  61  87 120 161 205 245 288 345
#     4  10  21  36  57  86 121 160 200 244 291 348
#     4  12  25  39  59  86 120 162 203 245 297 351
#
# _framework density 19.340907999999999
#
# number of rings (size 3 to 8) (size 9 to 14) (size 15 to 20)
#    0.000    1.273    3.636    2.182    2.545    2.909 
#    0.000    0.909    0.000    2.727    0.000    1.273 
#    0.000    0.000    0.000    0.000    0.000    0.000 
#
# Total GULP energy -545762.504795 kJ/mol
# GULP energy per Si atom -12403.693291 kJ/mol
# Density = 1.929689 g / cm^3
# Si number density = 19.340908 Si / 1000 Ang^3
#
#
#
# Elastic Constant Matrix: (Units=GPa)
#
#
# Indices 1 2 3 4 5 6 
#
# 1 150.0874 57.1283 43.1617 0.0000 0.0000 0.0000
# 2 57.1283 111.1924 62.5092 0.0000 0.0000 0.0000
# 3 43.1617 62.5092 92.6168 0.0000 0.0000 0.0000
# 4 0.0000 0.0000 0.0000 28.4407 0.0000 0.0000
# 5 0.0000 0.0000 0.0000 0.0000 10.2273 0.0000
# 6 0.0000 0.0000 0.0000 0.0000 0.0000 8.6327
#
#
#
# Elastic Compliance Matrix: (Units=1/GPa)
#
#
# Indices 1 2 3 4 5 6 
#
# 1 0.008431 -0.003421 -0.001620 0.000000 0.000000 0.000000
# 2 -0.003421 0.015880 -0.009124 0.000000 0.000000 0.000000
# 3 -0.001620 -0.009124 0.017710 0.000000 0.000000 0.000000
# 4 0.000000 0.000000 0.000000 0.035161 0.000000 0.000000
# 5 0.000000 0.000000 0.000000 0.000000 0.097777 0.000000
# 6 0.000000 0.000000 0.000000 0.000000 0.000000 0.115839
#
#
# Mechanical properties :
#
#
# Convention : Reuss Voigt Hill
#
# Bulk Modulus (GPa) = 73.03749 75.49946 74.26847
# Shear Modulus (GPa) = 15.44682 22.19996 18.82339
#
# Velocity S-wave (km/s) = 2.82912 3.39163 3.12307
# Velocity P-wave (km/s) = 6.96542 7.37960 7.17550
#
# Compressibility (1/GPa) = 0.01369160
#
# Stress axis : x y z
#
# Youngs Moduli (GPa) = 118.61332 62.97264 56.46539
#
# Poissons Ratio (x) = 0.21541 0.09149
# Poissons Ratio (y) = 0.40574 0.51517
# Poissons Ratio (z) = 0.19218 0.57454
#
# Static dielectric constant tensor:
#      x y z
#    x 3.460310 0.000000 0.000000 
#    y 0.000000 3.923230 0.000000 
#    z 0.000000 0.000000 3.450610 
# 
# 
# High freq. dielectric constant tensor:
#      x y z
#    x 1.748980 0.000000 0.000000 
#    y 0.000000 1.771240 0.000000 
#    z 0.000000 0.000000 1.738560 
# 
# From -- ./inp_files/58751.got.cif
#   From: 2010.06.25/outbox.cif.g09.slc.cpg/sg71_30_cif.got.tgz:58751.got - 2010.06.28 04:59:45.
