data_PCOD8287103
_publ_section_title
;
Structure prediction by ZEFSAII (Michael W. Deem and Ramdas Pophale) SiO2 
 PCOD8287103
Probable space group: I M M M
;
_chemical_formula_sum "Si O2"
_cell_formula_units_Z 104
_cell_length_a 24.859309
_cell_length_b 14.350609
_cell_length_c 16.962415
_cell_angle_alpha 90.000000
_cell_angle_beta 90.000000
_cell_angle_gamma 90.000000
_cell_volume 6051.277492
_symmetry_space_group_name_H-M "I M M M"
_symmetry_group_IT_number 71
_symmetry_cell_setting 'orthorhombic'
loop_
_space_group_symop_operation_xyz
x,y,z
-x,-y,z
x,-y,-z
-x,y,-z
-x,-y,-z
x,y,-z
-x,y,z
x,-y,z
1/2+x,1/2+y,1/2+z
1/2-x,1/2-y,1/2+z
1/2+x,1/2-y,1/2-z
1/2-x,1/2+y,1/2-z
1/2-x,1/2-y,1/2-z
1/2+x,1/2+y,1/2-z
1/2-x,1/2+y,1/2+z
1/2+x,1/2-y,1/2+z
loop_
_atom_site_type_symbol
_atom_site_label
_atom_site_fract_x
_atom_site_fract_y
_atom_site_fract_z
Si Si1 0.285403 0.103885 0.410086
Si Si2 0.060064 0.229570 0.091086
Si Si3 0.867484 0.392158 0.643894
Si Si4 0.735543 0.207237 0.908600
Si Si5 0.156937 0.104038 0.093559
Si Si6 0.560050 0.889545 0.000000
Si Si7 0.394417 0.105176 0.320768
O O1 0.306417 0.114127 0.500000
O O2 0.239526 0.181205 0.394544
O O3 0.334762 0.124322 0.352772
O O4 0.261557 0.000000 0.395328
O O5 0.103227 0.155632 0.124677
O O6 0.063611 0.325869 0.138774
O O7 0.000000 0.188495 0.102075
O O8 0.072177 0.251704 0.000000
O O9 0.851971 0.500000 0.629262
O O10 0.813246 0.331884 0.642426
O O11 0.908534 0.355054 0.577598
O O12 0.895857 0.377852 0.727410
O O13 0.790494 0.159711 0.878096
O O14 0.725289 0.182690 0.000000
O O15 0.158192 0.000000 0.129488
O O16 0.155343 0.099323 0.000000
O O17 0.500000 0.846147 0.000000
O O18 0.555928 0.000000 0.000000
O O19 0.412372 0.000000 0.340823
#
# Coordination Sequence:
#
# PCOD8287103 Si02
#       7
#    16  16  16  16  16   8  16
#     4   9  17  30  48  69  99 137 167 196 243 293
#     4  10  20  34  50  69  96 132 174 210 242 288
#     4  10  20  32  50  77 102 128 161 201 252 300
#     4  10  17  29  52  75  98 127 163 202 241 294
#     4   9  17  29  47  72  98 128 165 205 248 287
#     4   9  18  34  52  70  99 133 162 196 246 303
#     4  10  20  33  48  70 100 130 164 208 251 293
#
# _framework density 17.186454999999999
#
# number of rings (size 3 to 8) (size 9 to 14) (size 15 to 20)
#    0.000    2.385    2.308    0.923    0.000    3.385 
#    0.000    3.846    0.000    0.000    0.000    0.000 
#    0.000    1.231    0.000    0.000    0.000    0.154 
#
# Total GULP energy -644785.148361 kJ/mol
# GULP energy per Si atom -12399.714392 kJ/mol
# Density = 1.714734 g / cm^3
# Si number density = 17.186455 Si / 1000 Ang^3
#
#
#
# Elastic Constant Matrix: (Units=GPa)
#
#
# Indices 1 2 3 4 5 6 
#
# 1 98.9292 43.8635 20.8412 0.0000 0.0000 0.0000
# 2 43.8635 97.3587 21.8304 0.0000 0.0000 0.0000
# 3 20.8412 21.8304 56.8272 0.0000 0.0000 0.0000
# 4 0.0000 0.0000 0.0000 16.1395 0.0000 0.0000
# 5 0.0000 0.0000 0.0000 0.0000 14.2711 0.0000
# 6 0.0000 0.0000 0.0000 0.0000 0.0000 23.6916
#
#
#
# Elastic Compliance Matrix: (Units=1/GPa)
#
#
# Indices 1 2 3 4 5 6 
#
# 1 0.013015 -0.005245 -0.002758 0.000000 0.000000 0.000000
# 2 -0.005245 0.013353 -0.003206 0.000000 0.000000 0.000000
# 3 -0.002758 -0.003206 0.019840 0.000000 0.000000 0.000000
# 4 0.000000 0.000000 0.000000 0.061960 0.000000 0.000000
# 5 0.000000 0.000000 0.000000 0.000000 0.070072 0.000000
# 6 0.000000 0.000000 0.000000 0.000000 0.000000 0.042209
#
#
# Mechanical properties :
#
#
# Convention : Reuss Voigt Hill
#
# Bulk Modulus (GPa) = 42.03509 47.35394 44.69452
# Shear Modulus (GPa) = 19.93635 21.92577 20.93106
#
# Velocity S-wave (km/s) = 3.40958 3.57565 3.49360
# Velocity P-wave (km/s) = 6.32548 6.68281 6.50660
#
# Compressibility (1/GPa) = 0.02378965
#
# Stress axis : x y z
#
# Youngs Moduli (GPa) = 76.83467 74.88768 50.40226
#
# Poissons Ratio (x) = 0.39280 0.13902
# Poissons Ratio (y) = 0.40302 0.16159
# Poissons Ratio (z) = 0.21193 0.24009
#
# Static dielectric constant tensor:
#      x y z
#    x 3.068870 0.000000 0.000000 
#    y 0.000000 3.323560 0.000000 
#    z 0.000000 0.000000 3.042010 
# 
# 
# High freq. dielectric constant tensor:
#      x y z
#    x 1.647530 0.000000 0.000000 
#    y 0.000000 1.655510 0.000000 
#    z 0.000000 0.000000 1.641570 
# 
# From -- ./inp_files/48236.got.cif
#   From: 2010.06.25/outbox.cif.g09.slc.cpg/sg71_25_cif.got.tgz:48236.got - 2010.06.28 04:59:45.
