data_PCOD8287231
_publ_section_title
;
Structure prediction by ZEFSAII (Michael W. Deem and Ramdas Pophale) SiO2 
 PCOD8287231
Probable space group: I M M M
;
_chemical_formula_sum "Si O2"
_cell_formula_units_Z 72
_cell_length_a 13.505382
_cell_length_b 13.424154
_cell_length_c 26.899611
_cell_angle_alpha 90.000000
_cell_angle_beta 90.000000
_cell_angle_gamma 90.000000
_cell_volume 4876.854493
_symmetry_space_group_name_H-M "I M M M"
_symmetry_group_IT_number 71
_symmetry_cell_setting 'orthorhombic'
loop_
_space_group_symop_operation_xyz
x,y,z
-x,-y,z
x,-y,-z
-x,y,-z
-x,-y,-z
x,y,-z
-x,y,z
x,-y,z
1/2+x,1/2+y,1/2+z
1/2-x,1/2-y,1/2+z
1/2+x,1/2-y,1/2-z
1/2-x,1/2+y,1/2-z
1/2-x,1/2-y,1/2-z
1/2+x,1/2+y,1/2-z
1/2-x,1/2+y,1/2+z
1/2+x,1/2-y,1/2+z
loop_
_atom_site_type_symbol
_atom_site_label
_atom_site_fract_x
_atom_site_fract_y
_atom_site_fract_z
Si Si1 0.290467 0.115495 0.299908
Si Si2 0.615373 0.607869 0.347876
Si Si3 0.382349 0.111590 0.500000
Si Si4 0.386698 0.287424 0.245019
Si Si5 0.881767 0.304334 0.103860
O O1 0.360062 0.173756 0.260172
O O2 0.182119 0.168523 0.298760
O O3 0.333466 0.122699 0.355553
O O4 0.284855 0.000000 0.284549
O O5 0.500000 0.596198 0.356825
O O6 0.666865 0.500000 0.357218
O O7 0.635656 0.642434 0.292013
O O8 0.655078 0.691178 0.386190
O O9 0.500000 0.110432 0.500000
O O10 0.343432 0.167074 0.450813
O O11 0.340037 0.000000 0.500000
O O12 0.500000 0.292072 0.227281
O O13 0.000000 0.314622 0.109229
#
# Coordination Sequence:
#
# PCOD8287231 Si02
#       5
#    16  16   8  16  16
#     4  10  18  27  42  62  82 108 140 171 203 238
#     4   8  13  23  38  53  74 104 129 152 187 230
#     4   9  16  26  39  53  74 104 131 162 209 253
#     4   9  18  29  40  59  86 112 138 166 199 244
#     4   9  17  27  39  58  80 101 132 170 205 245
#
# _framework density 14.763615
#
# number of rings (size 3 to 8) (size 9 to 14) (size 15 to 20)
#    0.000    3.000    0.000    3.333    0.000    4.000 
#    0.000    0.556    0.000    3.333    0.000    0.778 
#    0.000    2.667    0.000    0.000    0.000   30.333 
#
# Total GULP energy -446125.422055 kJ/mol
# GULP energy per Si atom -12392.372835 kJ/mol
# Density = 1.473001 g / cm^3
# Si number density = 14.763615 Si / 1000 Ang^3
#
#
#
# Elastic Constant Matrix: (Units=GPa)
#
#
# Indices 1 2 3 4 5 6 
#
# 1 61.4887 23.0906 27.9697 0.0000 0.0000 0.0000
# 2 23.0906 109.1995 29.5909 0.0000 0.0000 0.0000
# 3 27.9697 29.5909 65.4908 0.0000 0.0000 0.0000
# 4 0.0000 0.0000 0.0000 15.5184 0.0000 0.0000
# 5 0.0000 0.0000 0.0000 0.0000 15.4357 0.0000
# 6 0.0000 0.0000 0.0000 0.0000 0.0000 12.1656
#
#
#
# Elastic Compliance Matrix: (Units=1/GPa)
#
#
# Indices 1 2 3 4 5 6 
#
# 1 0.020660 -0.002254 -0.007805 0.000000 0.000000 0.000000
# 2 -0.002254 0.010681 -0.003864 0.000000 0.000000 0.000000
# 3 -0.007805 -0.003864 0.020348 0.000000 0.000000 0.000000
# 4 0.000000 0.000000 0.000000 0.064439 0.000000 0.000000
# 5 0.000000 0.000000 0.000000 0.000000 0.064785 0.000000
# 6 0.000000 0.000000 0.000000 0.000000 0.000000 0.082199
#
#
# Mechanical properties :
#
#
# Convention : Reuss Voigt Hill
#
# Bulk Modulus (GPa) = 41.93802 44.16457 43.05129
# Shear Modulus (GPa) = 16.72771 18.99247 17.86009
#
# Velocity S-wave (km/s) = 3.36971 3.59059 3.48190
# Velocity P-wave (km/s) = 6.60363 6.86798 6.73710
#
# Compressibility (1/GPa) = 0.02384471
#
# Stress axis : x y z
#
# Youngs Moduli (GPa) = 48.40324 93.62394 49.14386
#
# Poissons Ratio (x) = 0.21099 0.38357
# Poissons Ratio (y) = 0.10908 0.18987
# Poissons Ratio (z) = 0.37779 0.36173
#
# Static dielectric constant tensor:
#      x y z
#    x 2.634260 0.000000 0.000000 
#    y 0.000000 3.203670 0.000000 
#    z 0.000000 0.000000 2.738240 
# 
# 
# High freq. dielectric constant tensor:
#      x y z
#    x 1.524030 0.000000 0.000000 
#    y 0.000000 1.582470 0.000000 
#    z 0.000000 0.000000 1.536660 
# 
# From -- ./inp_files/34605.got.cif
#   From: 2010.06.25/outbox.cif.g09.slc.cpg/sg71_18_cif.got.tgz:34605.got - 2010.06.28 04:59:45.
