data_PCOD8287757
_publ_section_title
;
Structure prediction by ZEFSAII (Michael W. Deem and Ramdas Pophale) SiO2 
 PCOD8287757
Probable space group: I M M M
;
_chemical_formula_sum "Si O2"
_cell_formula_units_Z 96
_cell_length_a 8.602975
_cell_length_b 23.359881
_cell_length_c 29.529675
_cell_angle_alpha 90.000000
_cell_angle_beta 90.000000
_cell_angle_gamma 90.000000
_cell_volume 5934.415552
_symmetry_space_group_name_H-M "I M M M"
_symmetry_group_IT_number 71
_symmetry_cell_setting 'orthorhombic'
loop_
_space_group_symop_operation_xyz
x,y,z
-x,-y,z
x,-y,-z
-x,y,-z
-x,-y,-z
x,y,-z
-x,y,z
x,-y,z
1/2+x,1/2+y,1/2+z
1/2-x,1/2-y,1/2+z
1/2+x,1/2-y,1/2-z
1/2-x,1/2+y,1/2-z
1/2-x,1/2-y,1/2-z
1/2+x,1/2+y,1/2-z
1/2-x,1/2+y,1/2+z
1/2+x,1/2-y,1/2+z
loop_
_atom_site_type_symbol
_atom_site_label
_atom_site_fract_x
_atom_site_fract_y
_atom_site_fract_z
Si Si1 0.680623 0.772067 0.320051
Si Si2 0.817514 0.886874 0.000000
Si Si3 0.181846 0.736315 0.591640
Si Si4 0.678412 0.934304 0.186754
Si Si5 0.683064 0.744892 0.500000
Si Si6 0.815962 0.889074 0.097331
Si Si7 0.680360 0.664972 0.740998
O O1 0.500000 0.774977 0.332028
O O2 0.779686 0.777557 0.366086
O O3 0.727000 0.712395 0.296056
O O4 0.724577 0.824592 0.287144
O O5 0.767446 0.821181 0.000000
O O6 0.760241 0.914104 0.047758
O O7 0.000000 0.890552 0.000000
O O8 0.240302 0.769297 0.546145
O O9 0.276468 0.677903 0.600241
O O10 0.000000 0.723267 0.588554
O O11 0.500000 0.915957 0.191682
O O12 0.728489 0.925442 0.134912
O O13 0.779984 0.897026 0.221133
O O14 0.704924 0.000000 0.199984
O O15 0.500000 0.756707 0.500000
O O16 0.000000 0.895676 0.104472
O O17 0.500000 0.668669 0.752855
#
# Coordination Sequence:
#
# PCOD8287757 Si02
#       7
#    16   8  16  16   8  16  16
#     4  10  19  31  49  71  96 122 149 188 234 279
#     4   7  14  27  44  62  81 106 143 189 233 275
#     4  11  19  28  45  69  96 123 154 191 231 276
#     4  11  23  36  49  66  90 120 153 194 241 285
#     4   9  17  29  43  62  92 125 158 188 226 276
#     4  10  18  31  48  65  85 115 152 193 238 283
#     4  10  20  33  50  70  91 118 152 191 235 281
#
# _framework density 16.176824
#
# number of rings (size 3 to 8) (size 9 to 14) (size 15 to 20)
#    0.000    2.000    1.667    4.750    0.000    2.667 
#    0.000    1.667    0.000    2.500    0.000    0.000 
#    0.000    0.000    0.000    0.750    0.000   13.833 
#
# Total GULP energy -595057.452452 kJ/mol
# GULP energy per Si atom -12397.030259 kJ/mol
# Density = 1.614000 g / cm^3
# Si number density = 16.176824 Si / 1000 Ang^3
#
#
#
# Elastic Constant Matrix: (Units=GPa)
#
#
# Indices 1 2 3 4 5 6 
#
# 1 55.9442 13.2094 31.0717 0.0000 0.0000 0.0000
# 2 13.2094 40.8044 30.5812 0.0000 0.0000 0.0000
# 3 31.0717 30.5812 106.7276 0.0000 0.0000 0.0000
# 4 0.0000 0.0000 0.0000 16.4407 0.0000 0.0000
# 5 0.0000 0.0000 0.0000 0.0000 29.7210 0.0000
# 6 0.0000 0.0000 0.0000 0.0000 0.0000 18.0058
#
#
#
# Elastic Compliance Matrix: (Units=1/GPa)
#
#
# Indices 1 2 3 4 5 6 
#
# 1 0.021589 -0.002901 -0.005454 0.000000 0.000000 0.000000
# 2 -0.002901 0.031599 -0.008210 0.000000 0.000000 0.000000
# 3 -0.005454 -0.008210 0.013310 0.000000 0.000000 0.000000
# 4 0.000000 0.000000 0.000000 0.060825 0.000000 0.000000
# 5 0.000000 0.000000 0.000000 0.000000 0.033646 0.000000
# 6 0.000000 0.000000 0.000000 0.000000 0.000000 0.055538
#
#
# Mechanical properties :
#
#
# Convention : Reuss Voigt Hill
#
# Bulk Modulus (GPa) = 29.96860 39.24452 34.60656
# Shear Modulus (GPa) = 19.17476 21.40775 20.29125
#
# Velocity S-wave (km/s) = 3.44659 3.64175 3.54551
# Velocity P-wave (km/s) = 5.86553 6.48039 6.18061
#
# Compressibility (1/GPa) = 0.03336825
#
# Stress axis : x y z
#
# Youngs Moduli (GPa) = 46.31951 31.64641 75.13274
#
# Poissons Ratio (x) = 0.09182 0.40977
# Poissons Ratio (y) = 0.13439 0.61681
# Poissons Ratio (z) = 0.25262 0.25980
#
# Static dielectric constant tensor:
#      x y z
#    x 3.056990 0.000000 0.000000 
#    y 0.000000 2.556000 0.000000 
#    z 0.000000 0.000000 3.456800 
# 
# 
# High freq. dielectric constant tensor:
#      x y z
#    x 1.634030 0.000000 0.000000 
#    y 0.000000 1.552030 0.000000 
#    z 0.000000 0.000000 1.634360 
# 
# From -- ./inp_files/63503.got.cif
#   From: 2010.06.25/outbox.cif.g09.slc.cpg/sg71_32_cif.got.tgz:63503.got - 2010.06.28 04:59:45.
