data_PCOD8287158
_publ_section_title
;
Structure prediction by ZEFSAII (Michael W. Deem and Ramdas Pophale) SiO2 
 PCOD8287158
Probable space group: I M M M
;
_chemical_formula_sum "Si O2"
_cell_formula_units_Z 88
_cell_length_a 14.251148
_cell_length_b 26.249577
_cell_length_c 14.263822
_cell_angle_alpha 90.000000
_cell_angle_beta 90.000000
_cell_angle_gamma 90.000000
_cell_volume 5335.904771
_symmetry_space_group_name_H-M "I M M M"
_symmetry_group_IT_number 71
_symmetry_cell_setting 'orthorhombic'
loop_
_space_group_symop_operation_xyz
x,y,z
-x,-y,z
x,-y,-z
-x,y,-z
-x,-y,-z
x,y,-z
-x,y,z
x,-y,z
1/2+x,1/2+y,1/2+z
1/2-x,1/2-y,1/2+z
1/2+x,1/2-y,1/2-z
1/2-x,1/2+y,1/2-z
1/2-x,1/2-y,1/2-z
1/2+x,1/2+y,1/2-z
1/2-x,1/2+y,1/2+z
1/2+x,1/2-y,1/2+z
loop_
_atom_site_type_symbol
_atom_site_label
_atom_site_fract_x
_atom_site_fract_y
_atom_site_fract_z
Si Si1 0.110474 0.644690 0.602107
Si Si2 0.395674 0.257246 0.889749
Si Si3 0.389905 0.103037 0.704842
Si Si4 0.773058 0.849818 0.611365
Si Si5 0.610841 0.000000 0.605477
Si Si6 0.605158 0.556344 0.111023
O O1 0.152016 0.627429 0.500000
O O2 0.147000 0.701103 0.630940
O O3 0.134858 0.604275 0.683794
O O4 0.000000 0.650296 0.590878
O O5 0.500000 0.264165 0.845129
O O6 0.324839 0.299636 0.848709
O O7 0.404396 0.265829 0.000000
O O8 0.500000 0.113056 0.687481
O O9 0.332301 0.147636 0.652752
O O10 0.355970 0.049369 0.662450
O O11 0.766087 0.849270 0.500000
O O12 0.828369 0.899364 0.650820
O O13 0.500000 0.000000 0.596649
O O14 0.655095 0.000000 0.500000
O O15 0.500000 0.563771 0.151336
O O16 0.643741 0.500000 0.139601
O O17 0.600970 0.561057 0.000000
#
# Coordination Sequence:
#
# PCOD8287158 Si02
#       6
#    16  16  16  16   8  16
#     4   8  15  30  49  64  81 106 139 186 236 267
#     4   8  14  26  44  65  87 110 139 178 224 270
#     4  10  20  31  43  61  84 116 155 184 210 251
#     4  10  18  25  39  62  88 119 148 172 205 257
#     4   9  18  32  45  57  82 118 147 170 197 237
#     4   8  14  24  37  55  81 111 141 174 210 246
#
# _framework density 16.492048
#
# number of rings (size 3 to 8) (size 9 to 14) (size 15 to 20)
#    0.000    3.182    0.000    2.727    1.273    4.000 
#    0.000    0.455    0.000    2.727    0.000    0.000 
#    0.000    2.909    0.000    2.000    0.000    0.182 
#
# Total GULP energy -545166.569550 kJ/mol
# GULP energy per Si atom -12390.149308 kJ/mol
# Density = 1.645451 g / cm^3
# Si number density = 16.492048 Si / 1000 Ang^3
#
#
#
# Elastic Constant Matrix: (Units=GPa)
#
#
# Indices 1 2 3 4 5 6 
#
# 1 45.5952 24.5938 25.6731 -0.0001 0.0000 0.0000
# 2 24.5938 85.5660 55.5245 -0.0004 0.0001 0.0001
# 3 25.6731 55.5245 77.7397 -0.0001 0.0000 0.0000
# 4 -0.0001 -0.0004 -0.0001 20.7178 0.0000 0.0000
# 5 0.0000 0.0001 0.0000 0.0000 10.9401 0.0000
# 6 0.0000 0.0001 0.0000 0.0000 0.0000 11.0004
#
#
#
# Elastic Compliance Matrix: (Units=1/GPa)
#
#
# Indices 1 2 3 4 5 6 
#
# 1 0.027576 -0.003758 -0.006422 0.000000 0.000000 0.000000
# 2 -0.003758 0.022295 -0.014683 0.000000 0.000000 0.000000
# 3 -0.006422 -0.014683 0.025471 0.000000 0.000000 0.000000
# 4 0.000000 0.000000 0.000000 0.048268 0.000000 0.000000
# 5 0.000000 0.000000 0.000000 0.000000 0.091407 0.000000
# 6 0.000000 0.000000 0.000000 0.000000 0.000000 0.090905
#
#
# Mechanical properties :
#
#
# Convention : Reuss Voigt Hill
#
# Bulk Modulus (GPa) = 39.03962 46.72044 42.88003
# Shear Modulus (GPa) = 13.72922 15.40563 14.56742
#
# Velocity S-wave (km/s) = 2.88840 3.05966 2.97526
# Velocity P-wave (km/s) = 5.90313 6.39317 6.15303
#
# Compressibility (1/GPa) = 0.02561500
#
# Stress axis : x y z
#
# Youngs Moduli (GPa) = 36.26400 44.85354 39.26007
#
# Poissons Ratio (x) = 0.16858 0.25214
# Poissons Ratio (y) = 0.13630 0.57644
# Poissons Ratio (z) = 0.23290 0.65856
#
# Static dielectric constant tensor:
#      x y z
#    x 3.087730 0.000000 0.000000 
#    y 0.000000 3.296180 0.000000 
#    z 0.000000 0.000000 2.902360 
# 
# 
# High freq. dielectric constant tensor:
#      x y z
#    x 1.619780 0.000000 0.000000 
#    y 0.000000 1.633340 0.000000 
#    z 0.000000 0.000000 1.588020 
# 
# From -- ./inp_files/34681.got.cif
#   From: 2010.06.25/outbox.cif.g09.slc.cpg/sg71_18_cif.got.tgz:34681.got - 2010.06.28 04:59:45.
