data_PCOD8287719
_publ_section_title
;
Structure prediction by ZEFSAII (Michael W. Deem and Ramdas Pophale) SiO2 
 PCOD8287719
Probable space group: I M M M
;
_chemical_formula_sum "Si O2"
_cell_formula_units_Z 88
_cell_length_a 8.827633
_cell_length_b 22.507778
_cell_length_c 22.752909
_cell_angle_alpha 90.000000
_cell_angle_beta 90.000000
_cell_angle_gamma 90.000000
_cell_volume 4520.784678
_symmetry_space_group_name_H-M "I M M M"
_symmetry_group_IT_number 71
_symmetry_cell_setting 'orthorhombic'
loop_
_space_group_symop_operation_xyz
x,y,z
-x,-y,z
x,-y,-z
-x,y,-z
-x,-y,-z
x,y,-z
-x,y,z
x,-y,z
1/2+x,1/2+y,1/2+z
1/2-x,1/2-y,1/2+z
1/2+x,1/2-y,1/2-z
1/2-x,1/2+y,1/2-z
1/2-x,1/2-y,1/2-z
1/2+x,1/2+y,1/2-z
1/2-x,1/2+y,1/2+z
1/2+x,1/2-y,1/2+z
loop_
_atom_site_type_symbol
_atom_site_label
_atom_site_fract_x
_atom_site_fract_y
_atom_site_fract_z
Si Si1 0.179477 0.345329 0.120229
Si Si2 0.821994 0.406906 0.345332
Si Si3 0.166111 0.228144 0.000000
Si Si4 0.324870 0.654038 0.000000
Si Si5 0.679571 0.500000 0.568571
Si Si6 0.321944 0.934768 0.716663
Si Si7 0.670395 0.291387 0.626504
O O1 0.247450 0.385071 0.173241
O O2 0.226379 0.276798 0.132604
O O3 0.000000 0.350915 0.115192
O O4 0.248966 0.370906 0.059621
O O5 0.740917 0.441188 0.398565
O O6 0.759673 0.430937 0.283077
O O7 0.784116 0.336603 0.342383
O O8 0.000000 0.416711 0.352790
O O9 0.301740 0.275149 0.000000
O O10 0.175126 0.188320 0.941959
O O11 0.000000 0.261756 0.000000
O O12 0.500000 0.637192 0.000000
O O13 0.500000 0.500000 0.572654
O O14 0.732050 0.500000 0.500000
O O15 0.500000 0.924076 0.719705
O O16 0.282029 0.000000 0.691472
O O17 0.500000 0.298119 0.651843
#
# Coordination Sequence:
#
# PCOD8287719 Si02
#       7
#    16  16   8   8   8  16  16
#     4   9  18  35  59  81 108 150 190 223 268 336
#     4  11  22  37  58  85 115 145 183 236 287 326
#     4   8  16  32  52  72 106 150 188 220 263 331
#     4  10  18  30  51  81 115 140 170 227 282 321
#     4  11  25  43  61  81 111 154 197 234 271 327
#     4   9  18  36  60  82 107 143 188 233 277 329
#     4   9  18  32  51  80 112 147 186 225 271 332
#
# _framework density 19.465646
#
# number of rings (size 3 to 8) (size 9 to 14) (size 15 to 20)
#    0.000    2.455    0.909    2.727    1.273    4.364 
#    0.000    2.273    0.000    2.727    0.000    0.000 
#    0.000    0.000    0.000    0.000    0.000    0.000 
#
# Total GULP energy -545243.027924 kJ/mol
# GULP energy per Si atom -12391.886998 kJ/mol
# Density = 1.942134 g / cm^3
# Si number density = 19.465646 Si / 1000 Ang^3
#
#
#
# Elastic Constant Matrix: (Units=GPa)
#
#
# Indices 1 2 3 4 5 6 
#
# 1 53.7906 26.6269 36.1878 0.0000 0.0000 0.0000
# 2 26.6269 112.1868 68.0321 0.0000 0.0000 0.0000
# 3 36.1878 68.0321 129.6433 0.0000 0.0000 0.0000
# 4 0.0000 0.0000 0.0000 31.0255 0.0000 0.0000
# 5 0.0000 0.0000 0.0000 0.0000 16.1245 0.0000
# 6 0.0000 0.0000 0.0000 0.0000 0.0000 22.0868
#
#
#
# Elastic Compliance Matrix: (Units=1/GPa)
#
#
# Indices 1 2 3 4 5 6 
#
# 1 0.023295 -0.002326 -0.005282 0.000000 0.000000 0.000000
# 2 -0.002326 0.013307 -0.006334 0.000000 0.000000 0.000000
# 3 -0.005282 -0.006334 0.012511 0.000000 0.000000 0.000000
# 4 0.000000 0.000000 0.000000 0.032232 0.000000 0.000000
# 5 0.000000 0.000000 0.000000 0.000000 0.062017 0.000000
# 6 0.000000 0.000000 0.000000 0.000000 0.000000 0.045276
#
#
# Mechanical properties :
#
#
# Convention : Reuss Voigt Hill
#
# Bulk Modulus (GPa) = 47.10202 61.92382 54.51292
# Shear Modulus (GPa) = 22.36157 24.83228 23.59693
#
# Velocity S-wave (km/s) = 3.39303 3.57557 3.48549
# Velocity P-wave (km/s) = 6.29287 6.99479 6.65310
#
# Compressibility (1/GPa) = 0.02123051
#
# Stress axis : x y z
#
# Youngs Moduli (GPa) = 42.92684 75.15108 79.92681
#
# Poissons Ratio (x) = 0.17480 0.42217
# Poissons Ratio (y) = 0.09985 0.50622
# Poissons Ratio (z) = 0.22674 0.47597
#
# Static dielectric constant tensor:
#      x y z
#    x 3.235940 0.000000 0.000000 
#    y 0.000000 3.438490 0.000000 
#    z 0.000000 0.000000 3.871000 
# 
# 
# High freq. dielectric constant tensor:
#      x y z
#    x 1.729600 0.000000 0.000000 
#    y 0.000000 1.744540 0.000000 
#    z 0.000000 0.000000 1.763030 
# 
# From -- ./inp_files/50601.got.cif
#   From: 2010.06.25/outbox.cif.g09.slc.cpg/sg71_26_cif.got.tgz:50601.got - 2010.06.28 04:59:45.
