data_PCOD8287195
_publ_section_title
;
Structure prediction by ZEFSAII (Michael W. Deem and Ramdas Pophale) SiO2 
 PCOD8287195
Probable space group: I M M M
;
_chemical_formula_sum "Si O2"
_cell_formula_units_Z 80
_cell_length_a 25.579899
_cell_length_b 8.783437
_cell_length_c 20.451990
_cell_angle_alpha 90.000000
_cell_angle_beta 90.000000
_cell_angle_gamma 90.000000
_cell_volume 4595.141483
_symmetry_space_group_name_H-M "I M M M"
_symmetry_group_IT_number 71
_symmetry_cell_setting 'orthorhombic'
loop_
_space_group_symop_operation_xyz
x,y,z
-x,-y,z
x,-y,-z
-x,y,-z
-x,-y,-z
x,y,-z
-x,y,z
x,-y,z
1/2+x,1/2+y,1/2+z
1/2-x,1/2-y,1/2+z
1/2+x,1/2-y,1/2-z
1/2-x,1/2+y,1/2-z
1/2-x,1/2-y,1/2-z
1/2+x,1/2+y,1/2-z
1/2-x,1/2+y,1/2+z
1/2+x,1/2-y,1/2+z
loop_
_atom_site_type_symbol
_atom_site_label
_atom_site_fract_x
_atom_site_fract_y
_atom_site_fract_z
Si Si1 0.388873 0.319954 0.774637
Si Si2 0.285867 0.324232 0.425581
Si Si3 0.603220 0.321743 0.375084
Si Si4 0.278016 0.679930 0.812374
Si Si5 0.000000 0.678823 0.133645
Si Si6 0.500000 0.680403 0.224920
O O1 0.389270 0.500000 0.778539
O O2 0.384494 0.269854 0.699120
O O3 0.338275 0.258762 0.813583
O O4 0.444661 0.257928 0.805321
O O5 0.268787 0.294673 0.500000
O O6 0.279374 0.500000 0.405371
O O7 0.346245 0.275922 0.417422
O O8 0.248369 0.225722 0.380039
O O9 0.590935 0.500000 0.380430
O O10 0.553202 0.228997 0.403783
O O11 0.276276 0.500000 0.804214
O O12 0.250000 0.750000 0.750000
O O13 0.000000 0.776063 0.199569
O O14 0.000000 0.500000 0.146749
O O15 0.500000 0.500000 0.220340
#
# Coordination Sequence:
#
# PCOD8287195 Si02
#       6
#    16  16  16  16   8   8
#     4   8  14  26  47  71  94 124 161 199 241 291
#     4  10  21  37  54  72  97 132 174 215 255 303
#     4   9  16  31  49  65  91 129 168 204 246 296
#     4  11  20  32  51  77 105 132 167 207 253 304
#     4  10  18  26  41  69  96 122 161 207 250 290
#     4   8  14  28  46  65  94 129 160 195 242 291
#
# _framework density 17.409693000000001
#
# number of rings (size 3 to 8) (size 9 to 14) (size 15 to 20)
#    0.000    2.600    2.000    2.700    0.000    1.200 
#    0.000    1.500    0.000    3.000    0.000    0.700 
#    0.000    5.600    0.000    0.000    0.000    0.000 
#
# Total GULP energy -495543.160936 kJ/mol
# GULP energy per Si atom -12388.579023 kJ/mol
# Density = 1.737007 g / cm^3
# Si number density = 17.409693 Si / 1000 Ang^3
#
#
#
# Elastic Constant Matrix: (Units=GPa)
#
#
# Indices 1 2 3 4 5 6 
#
# 1 172.3325 35.1110 48.1973 0.0000 0.0000 0.0000
# 2 35.1110 18.9201 17.5508 0.0000 0.0000 0.0000
# 3 48.1973 17.5508 55.4638 0.0000 0.0000 0.0000
# 4 0.0000 0.0000 0.0000 17.5283 0.0000 0.0000
# 5 0.0000 0.0000 0.0000 0.0000 18.2486 0.0000
# 6 0.0000 0.0000 0.0000 0.0000 0.0000 24.9213
#
#
#
# Elastic Compliance Matrix: (Units=1/GPa)
#
#
# Indices 1 2 3 4 5 6 
#
# 1 0.009907 -0.014719 -0.003951 0.000000 0.000000 0.000000
# 2 -0.014719 0.096684 -0.017804 0.000000 0.000000 0.000000
# 3 -0.003951 -0.017804 0.027097 0.000000 0.000000 0.000000
# 4 0.000000 0.000000 0.000000 0.057051 0.000000 0.000000
# 5 0.000000 0.000000 0.000000 0.000000 0.054799 0.000000
# 6 0.000000 0.000000 0.000000 0.000000 0.000000 0.040126
#
#
# Mechanical properties :
#
#
# Convention : Reuss Voigt Hill
#
# Bulk Modulus (GPa) = 16.46358 49.82605 33.14482
# Shear Modulus (GPa) = 13.19755 21.86346 17.53050
#
# Velocity S-wave (km/s) = 2.75627 3.54760 3.17667
# Velocity P-wave (km/s) = 4.42792 6.74259 5.70390
#
# Compressibility (1/GPa) = 0.06074012
#
# Stress axis : x y z
#
# Youngs Moduli (GPa) = 100.94240 10.34293 36.90455
#
# Poissons Ratio (x) = 0.15224 0.14581
# Poissons Ratio (y) = 1.48579 0.65704
# Poissons Ratio (z) = 0.39883 0.18414
#
# Static dielectric constant tensor:
#      x y z
#    x 4.189230 0.000000 0.000000 
#    y 0.000000 2.992970 0.000000 
#    z 0.000000 0.000000 2.825110 
# 
# 
# High freq. dielectric constant tensor:
#      x y z
#    x 1.700530 0.000000 0.000000 
#    y 0.000000 1.649720 0.000000 
#    z 0.000000 0.000000 1.613990 
# 
# From -- ./inp_files/48638.got.cif
#   From: 2010.06.25/outbox.cif.g09.slc.cpg/sg71_25_cif.got.tgz:48638.got - 2010.06.28 04:59:45.
