data_PCOD8287937
_publ_section_title
;
Structure prediction by ZEFSAII (Michael W. Deem and Ramdas Pophale) SiO2 
 PCOD8287937
Probable space group: I M M M
;
_chemical_formula_sum "Si O2"
_cell_formula_units_Z 104
_cell_length_a 9.484383
_cell_length_b 26.402009
_cell_length_c 24.163091
_cell_angle_alpha 90.000000
_cell_angle_beta 90.000000
_cell_angle_gamma 90.000000
_cell_volume 6050.601458
_symmetry_space_group_name_H-M "I M M M"
_symmetry_group_IT_number 71
_symmetry_cell_setting 'orthorhombic'
loop_
_space_group_symop_operation_xyz
x,y,z
-x,-y,z
x,-y,-z
-x,y,-z
-x,-y,-z
x,y,-z
-x,y,z
x,-y,z
1/2+x,1/2+y,1/2+z
1/2-x,1/2-y,1/2+z
1/2+x,1/2-y,1/2-z
1/2-x,1/2+y,1/2-z
1/2-x,1/2-y,1/2-z
1/2+x,1/2+y,1/2-z
1/2-x,1/2+y,1/2+z
1/2+x,1/2-y,1/2+z
loop_
_atom_site_type_symbol
_atom_site_label
_atom_site_fract_x
_atom_site_fract_y
_atom_site_fract_z
Si Si1 0.659976 0.943510 0.257068
Si Si2 0.663294 0.307269 0.686852
Si Si3 0.340152 0.391745 0.150754
Si Si4 0.333851 0.419281 0.652949
Si Si5 0.834756 0.000000 0.062203
Si Si6 0.656105 0.941075 0.437109
Si Si7 0.656910 0.284921 0.188333
O O1 0.500000 0.923218 0.249022
O O2 0.744091 0.908020 0.298319
O O3 0.740761 0.946182 0.199131
O O4 0.656457 0.000000 0.282237
O O5 0.500000 0.296745 0.677838
O O6 0.704996 0.359208 0.654718
O O7 0.704634 0.307996 0.751994
O O8 0.746814 0.259261 0.662387
O O9 0.500000 0.411533 0.159795
O O10 0.278829 0.411870 0.093835
O O11 0.337855 0.331145 0.145617
O O12 0.500000 0.426445 0.666172
O O13 0.293246 0.448166 0.595545
O O14 0.000000 0.000000 0.054517
O O15 0.765630 0.000000 0.000000
O O16 0.660853 0.922863 0.500000
O O17 0.500000 0.929334 0.412297
O O18 0.688362 0.000000 0.432371
O O19 0.500000 0.262521 0.194070
#
# Coordination Sequence:
#
# PCOD8287937 Si02
#       7
#    16  16  16  16   8  16  16
#     4  11  22  32  45  71 105 136 169 204 251 309
#     4   9  17  30  47  70  98 133 171 204 247 303
#     4  11  21  33  50  74 103 134 171 212 255 301
#     4  10  18  32  53  74 102 134 165 207 255 305
#     4   9  18  32  55  83 105 133 172 211 256 305
#     4   9  19  36  54  72  99 135 172 210 253 299
#     4   9  18  31  46  69 101 132 167 206 251 304
#
# _framework density 17.188375000000001
#
# number of rings (size 3 to 8) (size 9 to 14) (size 15 to 20)
#    0.000    2.231    2.308    1.846    0.000    5.231 
#    0.000    0.769    0.000    1.846    0.000    2.154 
#    0.000    0.000    0.000    0.000    0.000    0.000 
#
# Total GULP energy -644459.262794 kJ/mol
# GULP energy per Si atom -12393.447361 kJ/mol
# Density = 1.714925 g / cm^3
# Si number density = 17.188375 Si / 1000 Ang^3
#
#
#
# Elastic Constant Matrix: (Units=GPa)
#
#
# Indices 1 2 3 4 5 6 
#
# 1 89.3571 50.7064 37.3959 0.0000 0.0000 0.0000
# 2 50.7064 107.7931 45.8239 0.0000 0.0000 0.0000
# 3 37.3959 45.8239 77.1811 0.0000 0.0000 0.0000
# 4 0.0000 0.0000 0.0000 -7.4778 0.0000 0.0000
# 5 0.0000 0.0000 0.0000 0.0000 21.5486 0.0000
# 6 0.0000 0.0000 0.0000 0.0000 0.0000 28.6578
#
#
#
# Elastic Compliance Matrix: (Units=1/GPa)
#
#
# Indices 1 2 3 4 5 6 
#
# 1 0.016352 -0.005784 -0.004489 0.000000 0.000000 0.000000
# 2 -0.005784 0.014455 -0.005780 0.000000 0.000000 0.000000
# 3 -0.004489 -0.005780 0.018563 0.000000 0.000000 0.000000
# 4 0.000000 0.000000 0.000000 -0.133729 0.000000 0.000000
# 5 0.000000 0.000000 0.000000 0.000000 0.046407 0.000000
# 6 0.000000 0.000000 0.000000 0.000000 0.000000 0.034894
#
#
# Mechanical properties :
#
#
# Convention : Reuss Voigt Hill
#
# Bulk Modulus (GPa) = 57.92101 60.24263 59.08182
# Shear Modulus (GPa) = 143.67382 17.90606 80.78994
#
# Velocity S-wave (km/s) = 9.15255 3.23112 6.86329
# Velocity P-wave (km/s) = 12.06082 7.00320 9.86175
#
# Compressibility (1/GPa) = 0.01726489
#
# Stress axis : x y z
#
# Youngs Moduli (GPa) = 61.15606 69.18163 53.87054
#
# Poissons Ratio (x) = 0.40012 0.24182
# Poissons Ratio (y) = 0.35370 0.31136
# Poissons Ratio (z) = 0.27452 0.39985
#
# Static dielectric constant tensor:
#      x y z
#    x 3.274510 0.000000 0.000000 
#    y 0.000000 3.295010 0.000000 
#    z 0.000000 0.000000 3.094920 
# 
# 
# High freq. dielectric constant tensor:
#      x y z
#    x 1.664080 0.000000 0.000000 
#    y 0.000000 1.664090 0.000000 
#    z 0.000000 0.000000 1.626290 
# 
# From -- ./inp_files/13271.got.cif
#   From: 2010.06.25/outbox.cif.g09.slc.cpg/sg71_7_cif.got.tgz:13271.got - 2010.06.28 04:59:45.
