data_PCOD8287350
_publ_section_title
;
Structure prediction by ZEFSAII (Michael W. Deem and Ramdas Pophale) SiO2 
 PCOD8287350
Probable space group: I M M M
;
_chemical_formula_sum "Si O2"
_cell_formula_units_Z 72
_cell_length_a 28.984278
_cell_length_b 9.898220
_cell_length_c 13.725124
_cell_angle_alpha 90.000000
_cell_angle_beta 90.000000
_cell_angle_gamma 90.000000
_cell_volume 3937.638708
_symmetry_space_group_name_H-M "I M M M"
_symmetry_group_IT_number 71
_symmetry_cell_setting 'orthorhombic'
loop_
_space_group_symop_operation_xyz
x,y,z
-x,-y,z
x,-y,-z
-x,y,-z
-x,-y,-z
x,y,-z
-x,y,z
x,-y,z
1/2+x,1/2+y,1/2+z
1/2-x,1/2-y,1/2+z
1/2+x,1/2-y,1/2-z
1/2-x,1/2+y,1/2-z
1/2-x,1/2-y,1/2-z
1/2+x,1/2+y,1/2-z
1/2-x,1/2+y,1/2+z
1/2+x,1/2-y,1/2+z
loop_
_atom_site_type_symbol
_atom_site_label
_atom_site_fract_x
_atom_site_fract_y
_atom_site_fract_z
Si Si1 0.221230 0.500000 0.116351
Si Si2 0.318388 0.500000 0.616360
Si Si3 0.619018 0.000000 0.702368
Si Si4 0.171906 0.500000 0.386205
Si Si5 0.051504 0.710321 0.113870
Si Si6 0.252586 0.785238 0.885236
Si Si7 0.920279 0.000000 0.884969
O O1 0.168310 0.500000 0.149693
O O2 0.248470 0.367323 0.157918
O O3 0.221293 0.500000 0.000000
O O4 0.319297 0.500000 0.500000
O O5 0.291834 0.366771 0.653563
O O6 0.369277 0.500000 0.662065
O O7 0.589710 0.131098 0.674264
O O8 0.626269 0.000000 0.819481
O O9 0.158087 0.500000 0.500000
O O10 0.200899 0.634463 0.357128
O O11 0.052561 0.866388 0.147894
O O12 0.000000 0.654598 0.134535
O O13 0.063660 0.694531 0.000000
O O14 0.250392 0.776349 0.000000
O O15 0.915409 0.000000 0.000000
#
# Coordination Sequence:
#
# PCOD8287350 Si02
#       7
#     8   8   8   8  16  16   8
#     4  10  18  28  46  75 103 125 156 198 244 295
#     4   8  12  21  40  64  90 124 161 187 211 256
#     4  12  22  31  50  74  99 130 165 209 250 286
#     4   9  20  38  52  64  89 131 176 211 248 290
#     4  10  20  34  51  74 105 134 157 187 237 301
#     4   8  15  29  47  65  93 129 159 195 240 281
#     4   9  16  28  49  74 102 137 165 181 212 279
#
# _framework density 18.285070000000001
#
# number of rings (size 3 to 8) (size 9 to 14) (size 15 to 20)
#    0.000    2.667    0.000    4.333    0.000    6.667 
#    0.000    1.111    0.000    1.333    0.000    0.000 
#    0.000    1.778    0.000    0.000    0.000    0.000 
#
# Total GULP energy -446122.052191 kJ/mol
# GULP energy per Si atom -12392.279228 kJ/mol
# Density = 1.824345 g / cm^3
# Si number density = 18.285070 Si / 1000 Ang^3
#
#
#
# Elastic Constant Matrix: (Units=GPa)
#
#
# Indices 1 2 3 4 5 6 
#
# 1 101.4355 55.7602 44.2643 0.0000 0.0000 0.0000
# 2 55.7602 158.2232 28.0647 0.0000 0.0000 0.0000
# 3 44.2643 28.0647 59.2449 0.0000 0.0000 0.0000
# 4 0.0000 0.0000 0.0000 -3.3273 0.0000 0.0000
# 5 0.0000 0.0000 0.0000 0.0000 24.6156 0.0000
# 6 0.0000 0.0000 0.0000 0.0000 0.0000 97.4695
#
#
#
# Elastic Compliance Matrix: (Units=1/GPa)
#
#
# Indices 1 2 3 4 5 6 
#
# 1 0.016663 -0.004000 -0.010555 0.000000 0.000000 0.000000
# 2 -0.004000 0.007860 -0.000735 0.000000 0.000000 0.000000
# 3 -0.010555 -0.000735 0.025113 0.000000 0.000000 0.000000
# 4 0.000000 0.000000 0.000000 -0.300547 0.000000 0.000000
# 5 0.000000 0.000000 0.000000 0.000000 0.040625 0.000000
# 6 0.000000 0.000000 0.000000 0.000000 0.000000 0.010260
#
#
# Mechanical properties :
#
#
# Convention : Reuss Voigt Hill
#
# Bulk Modulus (GPa) = 52.47420 63.89799 58.18609
# Shear Modulus (GPa) = -30.65729 36.47254 2.90763
#
# Velocity S-wave (km/s) = -4.09911 4.47101 1.26239
# Velocity P-wave (km/s) = 2.52122 7.85331 5.83228
#
# Compressibility (1/GPa) = 0.01905698
#
# Stress axis : x y z
#
# Youngs Moduli (GPa) = 60.01152 127.22239 39.81970
#
# Poissons Ratio (x) = 0.50892 0.42030
# Poissons Ratio (y) = 0.24006 0.02925
# Poissons Ratio (z) = 0.63342 0.09347
#
# Static dielectric constant tensor:
#      x y z
#    x 3.283750 0.000000 0.000000 
#    y 0.000000 4.175180 0.000000 
#    z 0.000000 0.000000 3.015960 
# 
# 
# High freq. dielectric constant tensor:
#      x y z
#    x 1.690990 0.000000 0.000000 
#    y 0.000000 1.728930 0.000000 
#    z 0.000000 0.000000 1.665650 
# 
# From -- ./inp_files/40749.got.cif
#   From: 2010.06.25/outbox.cif.g09.slc.cpg/sg71_21_cif.got.tgz:40749.got - 2010.06.28 04:59:45.
