data_PCOD8287564
_publ_section_title
;
Structure prediction by ZEFSAII (Michael W. Deem and Ramdas Pophale) SiO2 
 PCOD8287564
Probable space group: I M M M
;
_chemical_formula_sum "Si O2"
_cell_formula_units_Z 104
_cell_length_a 27.622705
_cell_length_b 20.336572
_cell_length_c 10.472527
_cell_angle_alpha 90.000000
_cell_angle_beta 90.000000
_cell_angle_gamma 90.000000
_cell_volume 5882.953866
_symmetry_space_group_name_H-M "I M M M"
_symmetry_group_IT_number 71
_symmetry_cell_setting 'orthorhombic'
loop_
_space_group_symop_operation_xyz
x,y,z
-x,-y,z
x,-y,-z
-x,y,-z
-x,-y,-z
x,y,-z
-x,y,z
x,-y,z
1/2+x,1/2+y,1/2+z
1/2-x,1/2-y,1/2+z
1/2+x,1/2-y,1/2-z
1/2-x,1/2+y,1/2-z
1/2-x,1/2-y,1/2-z
1/2+x,1/2+y,1/2-z
1/2-x,1/2+y,1/2+z
1/2+x,1/2-y,1/2+z
loop_
_atom_site_type_symbol
_atom_site_label
_atom_site_fract_x
_atom_site_fract_y
_atom_site_fract_z
Si Si1 0.446470 0.812362 0.355256
Si Si2 0.774232 0.200192 0.150482
Si Si3 0.054080 0.421942 0.500000
Si Si4 0.445698 0.427435 0.651881
Si Si5 0.787927 0.426331 0.645951
Si Si6 0.891176 0.424100 0.748712
Si Si7 0.385168 0.692944 0.348289
O O1 0.454776 0.791615 0.500000
O O2 0.500000 0.820676 0.291159
O O3 0.414860 0.879430 0.357786
O O4 0.415406 0.754064 0.289115
O O5 0.750000 0.250000 0.250000
O O6 0.753106 0.127203 0.173427
O O7 0.829712 0.197904 0.193690
O O8 0.767653 0.220885 0.000000
O O9 0.053508 0.500000 0.500000
O O10 0.082658 0.396608 0.377445
O O11 0.000000 0.392903 0.500000
O O12 0.444156 0.426905 0.500000
O O13 0.500000 0.409778 0.697855
O O14 0.430867 0.500000 0.702065
O O15 0.408304 0.374072 0.707893
O O16 0.806432 0.422115 0.500000
O O17 0.767187 0.500000 0.672265
O O18 0.833692 0.413067 0.737700
O O19 0.903258 0.500000 0.777264
O O20 0.387955 0.692983 0.500000
#
# Coordination Sequence:
#
# PCOD8287564 Si02
#       7
#    16  16   8  16  16  16  16
#     4  10  20  31  43  61  89 126 160 187 222 272
#     4  10  20  33  51  73  97 127 163 202 243 288
#     4   9  16  26  42  62  80 102 137 181 226 264
#     4   8  13  22  39  64  93 122 149 181 227 280
#     4   9  17  31  50  72  96 123 157 198 243 286
#     4  10  18  30  46  63  86 115 150 191 230 268
#     4   9  17  29  44  63  90 122 154 189 229 276
#
# _framework density 17.678194000000001
#
# number of rings (size 3 to 8) (size 9 to 14) (size 15 to 20)
#    0.000    2.692    0.769    2.308    0.000    3.692 
#    0.000    3.846    0.000    1.385    0.000    0.000 
#    0.000    0.000    0.000    1.692    1.846    1.538 
#
# Total GULP energy -644396.863776 kJ/mol
# GULP energy per Si atom -12392.247380 kJ/mol
# Density = 1.763796 g / cm^3
# Si number density = 17.678194 Si / 1000 Ang^3
#
#
#
# Elastic Constant Matrix: (Units=GPa)
#
#
# Indices 1 2 3 4 5 6 
#
# 1 136.8215 84.3515 22.7981 0.0000 0.0000 0.0000
# 2 84.3515 136.4169 22.9028 0.0000 0.0000 0.0000
# 3 22.7981 22.9028 26.6761 0.0000 0.0000 0.0000
# 4 0.0000 0.0000 0.0000 16.4969 0.0000 0.0000
# 5 0.0000 0.0000 0.0000 0.0000 17.9466 0.0000
# 6 0.0000 0.0000 0.0000 0.0000 0.0000 36.4256
#
#
#
# Elastic Compliance Matrix: (Units=1/GPa)
#
#
# Indices 1 2 3 4 5 6 
#
# 1 0.012285 -0.006816 -0.004647 0.000000 0.000000 0.000000
# 2 -0.006816 0.012347 -0.004775 0.000000 0.000000 0.000000
# 3 -0.004647 -0.004775 0.045558 0.000000 0.000000 0.000000
# 4 0.000000 0.000000 0.000000 0.060618 0.000000 0.000000
# 5 0.000000 0.000000 0.000000 0.000000 0.055721 0.000000
# 6 0.000000 0.000000 0.000000 0.000000 0.000000 0.027453
#
#
# Mechanical properties :
#
#
# Convention : Reuss Voigt Hill
#
# Bulk Modulus (GPa) = 26.51603 62.22436 44.37020
# Shear Modulus (GPa) = 19.30275 25.49797 22.40036
#
# Velocity S-wave (km/s) = 3.30797 3.80194 3.56352
# Velocity P-wave (km/s) = 5.44262 7.38564 6.48729
#
# Compressibility (1/GPa) = 0.03771303
#
# Stress axis : x y z
#
# Youngs Moduli (GPa) = 81.39692 80.99192 21.95004
#
# Poissons Ratio (x) = 0.55207 0.10201
# Poissons Ratio (y) = 0.55483 0.10481
# Poissons Ratio (z) = 0.37828 0.38674
#
# Static dielectric constant tensor:
#      x y z
#    x 3.492350 0.000000 0.000000 
#    y 0.000000 3.412420 0.000000 
#    z 0.000000 0.000000 2.839020 
# 
# 
# High freq. dielectric constant tensor:
#      x y z
#    x 1.693180 0.000000 0.000000 
#    y 0.000000 1.689100 0.000000 
#    z 0.000000 0.000000 1.621120 
# 
# From -- ./inp_files/24798.got.cif
#   From: 2010.06.25/outbox.cif.g09.slc.cpg/sg71_13_cif.got.tgz:24798.got - 2010.06.28 04:59:45.
