data_PCOD8287890
_publ_section_title
;
Structure prediction by ZEFSAII (Michael W. Deem and Ramdas Pophale) SiO2 
 PCOD8287890
Probable space group: I M M M
;
_chemical_formula_sum "Si O2"
_cell_formula_units_Z 104
_cell_length_a 10.134313
_cell_length_b 25.858066
_cell_length_c 24.538305
_cell_angle_alpha 90.000000
_cell_angle_beta 90.000000
_cell_angle_gamma 90.000000
_cell_volume 6430.354462
_symmetry_space_group_name_H-M "I M M M"
_symmetry_group_IT_number 71
_symmetry_cell_setting 'orthorhombic'
loop_
_space_group_symop_operation_xyz
x,y,z
-x,-y,z
x,-y,-z
-x,y,-z
-x,-y,-z
x,y,-z
-x,y,z
x,-y,z
1/2+x,1/2+y,1/2+z
1/2-x,1/2-y,1/2+z
1/2+x,1/2-y,1/2-z
1/2-x,1/2+y,1/2-z
1/2-x,1/2-y,1/2-z
1/2+x,1/2+y,1/2-z
1/2-x,1/2+y,1/2+z
1/2+x,1/2-y,1/2+z
loop_
_atom_site_type_symbol
_atom_site_label
_atom_site_fract_x
_atom_site_fract_y
_atom_site_fract_z
Si Si1 0.000000 0.940410 0.435640
Si Si2 0.150904 0.290808 0.063080
Si Si3 0.346713 0.847232 0.211124
Si Si4 0.858961 0.803703 0.712115
Si Si5 0.777485 0.117091 0.628346
Si Si6 0.654542 0.056605 0.277555
Si Si7 0.352690 0.778840 0.120222
O O1 0.131379 0.913345 0.413739
O O2 0.000000 0.934390 0.500000
O O3 0.000000 0.000000 0.417284
O O4 0.185696 0.342305 0.096126
O O5 0.243662 0.241516 0.078085
O O6 0.000000 0.275162 0.075669
O O7 0.172562 0.303103 0.000000
O O8 0.500000 0.839384 0.226985
O O9 0.262733 0.806290 0.246637
O O10 0.298822 0.904752 0.228780
O O11 0.325056 0.836558 0.145755
O O12 0.866106 0.852432 0.671364
O O13 0.845898 0.753008 0.675888
O O14 0.000000 0.803039 0.743679
O O15 0.688190 0.077047 0.662042
O O16 0.500000 0.050442 0.274485
O O17 0.720727 0.000000 0.268404
O O18 0.500000 0.775685 0.093528
#
# Coordination Sequence:
#
# PCOD8287890 Si02
#       7
#     8  16  16  16  16  16  16
#     4  11  22  32  44  62  84 118 164 208 246 276
#     4  10  21  34  49  69  91 119 155 195 237 280
#     4   9  17  28  43  64  92 119 149 183 223 274
#     4   9  16  26  41  62  85 111 146 181 221 274
#     4  10  18  32  46  62  87 118 152 196 235 273
#     4   9  17  29  47  68  90 120 155 190 230 274
#     4   9  18  30  44  65  91 120 148 182 226 278
#
# _framework density 16.173292
#
# number of rings (size 3 to 8) (size 9 to 14) (size 15 to 20)
#    0.000    2.538    0.769    1.846    1.077    4.615 
#    0.000    0.000    0.000    0.000    0.000    6.462 
#    0.000    0.615    0.000    7.692    0.000    1.231 
#
# Total GULP energy -644257.321976 kJ/mol
# GULP energy per Si atom -12389.563884 kJ/mol
# Density = 1.613648 g / cm^3
# Si number density = 16.173292 Si / 1000 Ang^3
#
#
#
# Elastic Constant Matrix: (Units=GPa)
#
#
# Indices 1 2 3 4 5 6 
#
# 1 76.5283 20.1734 28.2912 0.0000 0.0000 0.0000
# 2 20.1734 62.0434 31.4876 0.0000 0.0000 0.0000
# 3 28.2912 31.4876 39.9005 0.0000 0.0000 0.0000
# 4 0.0000 0.0000 0.0000 25.5248 0.0000 0.0000
# 5 0.0000 0.0000 0.0000 0.0000 25.2763 0.0000
# 6 0.0000 0.0000 0.0000 0.0000 0.0000 16.2959
#
#
#
# Elastic Compliance Matrix: (Units=1/GPa)
#
#
# Indices 1 2 3 4 5 6 
#
# 1 0.017748 0.001027 -0.013395 0.000000 0.000000 0.000000
# 2 0.001027 0.026945 -0.021992 0.000000 0.000000 0.000000
# 3 -0.013395 -0.021992 0.051915 0.000000 0.000000 0.000000
# 4 0.000000 0.000000 0.000000 0.039178 0.000000 0.000000
# 5 0.000000 0.000000 0.000000 0.000000 0.039563 0.000000
# 6 0.000000 0.000000 0.000000 0.000000 0.000000 0.061365
#
#
# Mechanical properties :
#
#
# Convention : Reuss Voigt Hill
#
# Bulk Modulus (GPa) = 35.85679 37.59740 36.72709
# Shear Modulus (GPa) = 15.88668 19.98740 17.93704
#
# Velocity S-wave (km/s) = 3.13753 3.51925 3.33386
# Velocity P-wave (km/s) = 5.94508 6.30956 6.13003
#
# Compressibility (1/GPa) = 0.02788872
#
# Stress axis : x y z
#
# Youngs Moduli (GPa) = 56.34401 37.11272 19.26226
#
# Poissons Ratio (x) = -0.03812 0.25801
# Poissons Ratio (y) = -0.05788 0.42362
# Poissons Ratio (z) = 0.75472 0.81618
#
# Static dielectric constant tensor:
#      x y z
#    x 3.188180 0.000000 0.000000 
#    y 0.000000 3.416630 0.000000 
#    z 0.000000 0.000000 2.870850 
# 
# 
# High freq. dielectric constant tensor:
#      x y z
#    x 1.626590 0.000000 0.000000 
#    y 0.000000 1.611630 0.000000 
#    z 0.000000 0.000000 1.592520 
# 
# From -- ./inp_files/48826.got.cif
#   From: 2010.06.25/outbox.cif.g09.slc.cpg/sg71_25_cif.got.tgz:48826.got - 2010.06.28 04:59:45.
