data_PCOD8287260
_publ_section_title
;
Structure prediction by ZEFSAII (Michael W. Deem and Ramdas Pophale) SiO2 
 PCOD8287260
Probable space group: I M M M
;
_chemical_formula_sum "Si O2"
_cell_formula_units_Z 120
_cell_length_a 20.971716
_cell_length_b 14.565700
_cell_length_c 26.769377
_cell_angle_alpha 90.000000
_cell_angle_beta 90.000000
_cell_angle_gamma 90.000000
_cell_volume 8177.180658
_symmetry_space_group_name_H-M "I M M M"
_symmetry_group_IT_number 71
_symmetry_cell_setting 'orthorhombic'
loop_
_space_group_symop_operation_xyz
x,y,z
-x,-y,z
x,-y,-z
-x,y,-z
-x,-y,-z
x,y,-z
-x,y,z
x,-y,z
1/2+x,1/2+y,1/2+z
1/2-x,1/2-y,1/2+z
1/2+x,1/2-y,1/2-z
1/2-x,1/2+y,1/2-z
1/2-x,1/2-y,1/2-z
1/2+x,1/2+y,1/2-z
1/2-x,1/2+y,1/2+z
1/2+x,1/2-y,1/2+z
loop_
_atom_site_type_symbol
_atom_site_label
_atom_site_fract_x
_atom_site_fract_y
_atom_site_fract_z
Si Si1 0.327704 0.398372 0.190121
Si Si2 0.381935 0.892922 0.106214
Si Si3 0.929961 0.279367 0.790083
Si Si4 0.928482 0.608197 0.500000
Si Si5 0.866506 0.101761 0.805008
Si Si6 0.769228 0.393400 0.325320
Si Si7 0.930605 0.242643 0.674505
Si Si8 0.810762 0.608354 0.781128
O O1 0.334646 0.500000 0.166136
O O2 0.349264 0.403260 0.247059
O O3 0.373591 0.328021 0.160402
O O4 0.253510 0.366434 0.187763
O O5 0.389062 0.860624 0.048852
O O6 0.309604 0.874036 0.124728
O O7 0.428665 0.832584 0.139837
O O8 0.400382 0.000000 0.113098
O O9 0.921525 0.176969 0.813423
O O10 0.926270 0.276619 0.730761
O O11 0.872253 0.345384 0.807632
O O12 0.000000 0.315263 0.807394
O O13 0.935157 0.500000 0.500000
O O14 0.000000 0.651105 0.500000
O O15 0.803339 0.140092 0.833607
O O16 0.888439 0.000000 0.823607
O O17 0.763194 0.500000 0.312551
O O18 0.802969 0.351053 0.275663
O O19 0.000000 0.195391 0.665789
O O20 0.822495 0.500000 0.780997
#
# Coordination Sequence:
#
# PCOD8287260 Si02
#       8
#    16  16  16   8  16  16  16  16
#     4   8  16  28  41  54  71  99 130 161 197 231
#     4  10  18  28  41  57  77 100 130 162 195 236
#     4  10  19  25  34  54  77 104 133 161 195 225
#     4   9  18  30  40  50  73 109 132 148 188 243
#     4   8  15  26  38  52  73  99 129 161 193 227
#     4   8  14  24  39  56  68  91 129 165 195 218
#     4  10  19  26  37  58  77  98 130 167 200 224
#     4   9  16  27  39  52  73 101 132 163 193 226
#
# _framework density 14.674985
#
# number of rings (size 3 to 8) (size 9 to 14) (size 15 to 20)
#    0.000    3.000    1.333    2.000    1.867    3.200 
#    0.000    4.000    0.000    0.000    0.000    0.467 
#    0.000    1.600    0.000    0.600    0.000   12.933 
#
# Total GULP energy -743318.387075 kJ/mol
# GULP energy per Si atom -12388.639785 kJ/mol
# Density = 1.464158 g / cm^3
# Si number density = 14.674985 Si / 1000 Ang^3
#
#
#
# Elastic Constant Matrix: (Units=GPa)
#
#
# Indices 1 2 3 4 5 6 
#
# 1 112.3912 46.8316 24.5818 0.0000 0.0000 0.0000
# 2 46.8316 56.9130 18.4257 0.0000 0.0000 0.0000
# 3 24.5818 18.4257 39.8167 0.0000 0.0000 0.0000
# 4 0.0000 0.0000 0.0000 8.7427 0.0000 0.0000
# 5 0.0000 0.0000 0.0000 0.0000 7.2017 0.0000
# 6 0.0000 0.0000 0.0000 0.0000 0.0000 19.3194
#
#
#
# Elastic Compliance Matrix: (Units=1/GPa)
#
#
# Indices 1 2 3 4 5 6 
#
# 1 0.014038 -0.010287 -0.003907 0.000000 0.000000 0.000000
# 2 -0.010287 0.028205 -0.006701 0.000000 0.000000 0.000000
# 3 -0.003907 -0.006701 0.030628 0.000000 0.000000 0.000000
# 4 0.000000 0.000000 0.000000 0.114381 0.000000 0.000000
# 5 0.000000 0.000000 0.000000 0.000000 0.138856 0.000000
# 6 0.000000 0.000000 0.000000 0.000000 0.000000 0.051762
#
#
# Mechanical properties :
#
#
# Convention : Reuss Voigt Hill
#
# Bulk Modulus (GPa) = 32.17315 43.19991 37.68653
# Shear Modulus (GPa) = 11.62738 15.00487 13.31613
#
# Velocity S-wave (km/s) = 2.81788 3.20109 3.01558
# Velocity P-wave (km/s) = 5.70602 6.56996 6.15317
#
# Compressibility (1/GPa) = 0.03108181
#
# Stress axis : x y z
#
# Youngs Moduli (GPa) = 71.23383 35.45482 32.64981
#
# Poissons Ratio (x) = 0.36472 0.12755
# Poissons Ratio (y) = 0.73277 0.21880
# Poissons Ratio (z) = 0.27828 0.23760
#
# Static dielectric constant tensor:
#      x y z
#    x 3.138000 0.000000 0.000000 
#    y 0.000000 2.936710 0.000000 
#    z 0.000000 0.000000 2.381570 
# 
# 
# High freq. dielectric constant tensor:
#      x y z
#    x 1.571650 0.000000 0.000000 
#    y 0.000000 1.558240 0.000000 
#    z 0.000000 0.000000 1.476450 
# 
# From -- ./inp_files/66674.got.cif
#   From: 2010.06.25/outbox.cif.g09.slc.cpg/sg71_34_cif.got.tgz:66674.got - 2010.06.28 04:59:45.
