data_PCOD8287682
_publ_section_title
;
Structure prediction by ZEFSAII (Michael W. Deem and Ramdas Pophale) SiO2 
 PCOD8287682
Probable space group: I M M M
;
_chemical_formula_sum "Si O2"
_cell_formula_units_Z 104
_cell_length_a 10.050118
_cell_length_b 26.777487
_cell_length_c 21.570347
_cell_angle_alpha 90.000000
_cell_angle_beta 90.000000
_cell_angle_gamma 90.000000
_cell_volume 5804.945005
_symmetry_space_group_name_H-M "I M M M"
_symmetry_group_IT_number 71
_symmetry_cell_setting 'orthorhombic'
loop_
_space_group_symop_operation_xyz
x,y,z
-x,-y,z
x,-y,-z
-x,y,-z
-x,-y,-z
x,y,-z
-x,y,z
x,-y,z
1/2+x,1/2+y,1/2+z
1/2-x,1/2-y,1/2+z
1/2+x,1/2-y,1/2-z
1/2-x,1/2+y,1/2-z
1/2-x,1/2-y,1/2-z
1/2+x,1/2+y,1/2-z
1/2-x,1/2+y,1/2+z
1/2+x,1/2-y,1/2+z
loop_
_atom_site_type_symbol
_atom_site_label
_atom_site_fract_x
_atom_site_fract_y
_atom_site_fract_z
Si Si1 0.350059 0.698402 0.185776
Si Si2 0.354186 0.942958 0.242548
Si Si3 0.153508 0.213945 0.827116
Si Si4 0.150111 0.861897 0.932083
Si Si5 0.650571 0.943253 0.901318
Si Si6 0.342676 0.500000 0.069660
Si Si7 0.651992 0.588433 0.840594
O O1 0.500000 0.719662 0.177435
O O2 0.242829 0.737358 0.160976
O O3 0.323610 0.689653 0.259365
O O4 0.336673 0.647588 0.144690
O O5 0.500000 0.919283 0.256790
O O6 0.319839 0.937904 0.171046
O O7 0.239296 0.915867 0.279530
O O8 0.356745 0.000000 0.263531
O O9 0.202022 0.175125 0.879011
O O10 0.000000 0.229200 0.837260
O O11 0.244848 0.909654 0.937286
O O12 0.000000 0.879393 0.916155
O O13 0.153749 0.835698 0.000000
O O14 0.500000 0.926115 0.916581
O O15 0.670809 0.000000 0.923140
O O16 0.500000 0.500000 0.064210
O O17 0.296422 0.551038 0.105009
O O18 0.280827 0.500000 0.000000
O O19 0.500000 0.574165 0.824338
#
# Coordination Sequence:
#
# PCOD8287682 Si02
#       7
#    16  16  16  16  16   8  16
#     4   9  18  31  51  78 102 122 158 211 257 299
#     4   9  17  29  46  71 102 131 160 201 249 295
#     4   9  18  34  52  72 101 132 161 201 257 310
#     4  10  21  36  53  73  99 134 173 210 248 293
#     4   9  19  34  50  72 103 136 169 205 249 298
#     4   9  18  32  49  71 103 141 174 205 250 307
#     4  10  18  30  50  75 100 131 171 210 250 304
#
# _framework density 17.915761
#
# number of rings (size 3 to 8) (size 9 to 14) (size 15 to 20)
#    0.000    2.692    0.769    1.846    0.000    4.000 
#    0.000    6.923    0.000    1.846    0.000    0.000 
#    0.000    0.000    0.000    0.000    0.000    0.000 
#
# Total GULP energy -644461.739800 kJ/mol
# GULP energy per Si atom -12393.494996 kJ/mol
# Density = 1.787498 g / cm^3
# Si number density = 17.915761 Si / 1000 Ang^3
#
#
#
# Elastic Constant Matrix: (Units=GPa)
#
#
# Indices 1 2 3 4 5 6 
#
# 1 70.9467 47.4318 35.2960 0.0000 0.0000 0.0000
# 2 47.4318 100.7070 43.7549 0.0000 0.0000 0.0000
# 3 35.2960 43.7549 67.2651 -0.0002 0.0000 0.0000
# 4 0.0000 0.0000 -0.0002 18.4038 0.0000 0.0000
# 5 0.0000 0.0000 0.0000 0.0000 16.0994 0.0000
# 6 0.0000 0.0000 0.0000 0.0000 0.0000 32.0543
#
#
#
# Elastic Compliance Matrix: (Units=1/GPa)
#
#
# Indices 1 2 3 4 5 6 
#
# 1 0.022657 -0.007675 -0.006896 0.000000 0.000000 0.000000
# 2 -0.007675 0.016442 -0.006668 0.000000 0.000000 0.000000
# 3 -0.006896 -0.006668 0.022823 0.000000 0.000000 0.000000
# 4 0.000000 0.000000 0.000000 0.054336 0.000000 0.000000
# 5 0.000000 0.000000 0.000000 0.000000 0.062114 0.000000
# 6 0.000000 0.000000 0.000000 0.000000 0.000000 0.031197
#
#
# Mechanical properties :
#
#
# Convention : Reuss Voigt Hill
#
# Bulk Modulus (GPa) = 51.43214 54.65381 53.04297
# Shear Modulus (GPa) = 19.34023 20.80723 20.07373
#
# Velocity S-wave (km/s) = 3.28915 3.41162 3.35095
# Velocity P-wave (km/s) = 6.57227 6.78904 6.68154
#
# Compressibility (1/GPa) = 0.01944310
#
# Stress axis : x y z
#
# Youngs Moduli (GPa) = 44.13605 60.82149 43.81626
#
# Poissons Ratio (x) = 0.46680 0.30218
# Poissons Ratio (y) = 0.33874 0.29215
# Poissons Ratio (z) = 0.30438 0.40554
#
# Static dielectric constant tensor:
#      x y z
#    x 3.328240 0.000000 0.000000 
#    y 0.000000 3.236330 0.000000 
#    z 0.000000 0.000000 3.232410 
# 
# 
# High freq. dielectric constant tensor:
#      x y z
#    x 1.692480 0.000000 0.000000 
#    y 0.000000 1.680310 0.000000 
#    z 0.000000 0.000000 1.676160 
# 
# From -- ./inp_files/11489.got.cif
#   From: 2010.06.25/outbox.cif.g09.slc.cpg/sg71_6_cif.got.tgz:11489.got - 2010.06.28 04:59:45.
