data_PCOD8287455
_publ_section_title
;
Structure prediction by ZEFSAII (Michael W. Deem and Ramdas Pophale) SiO2 
 PCOD8287455
Probable space group: I M M M
;
_chemical_formula_sum "Si O2"
_cell_formula_units_Z 104
_cell_length_a 22.925504
_cell_length_b 9.268263
_cell_length_c 29.529453
_cell_angle_alpha 90.000000
_cell_angle_beta 90.000000
_cell_angle_gamma 90.000000
_cell_volume 6274.406376
_symmetry_space_group_name_H-M "I M M M"
_symmetry_group_IT_number 71
_symmetry_cell_setting 'orthorhombic'
loop_
_space_group_symop_operation_xyz
x,y,z
-x,-y,z
x,-y,-z
-x,y,-z
-x,-y,-z
x,y,-z
-x,y,z
x,-y,z
1/2+x,1/2+y,1/2+z
1/2-x,1/2-y,1/2+z
1/2+x,1/2-y,1/2-z
1/2-x,1/2+y,1/2-z
1/2-x,1/2-y,1/2-z
1/2+x,1/2+y,1/2-z
1/2-x,1/2+y,1/2+z
1/2+x,1/2-y,1/2+z
loop_
_atom_site_type_symbol
_atom_site_label
_atom_site_fract_x
_atom_site_fract_y
_atom_site_fract_z
Si Si1 0.277373 0.667382 0.448170
Si Si2 0.338326 0.330319 0.948203
Si Si3 0.064893 0.828383 0.620330
Si Si4 0.109463 0.829721 0.108054
Si Si5 0.569156 0.339972 0.219937
Si Si6 0.568250 0.831254 0.306584
Si Si7 0.500000 0.671247 0.550398
O O1 0.294357 0.703545 0.500000
O O2 0.262487 0.500000 0.442712
O O3 0.221342 0.756574 0.432254
O O4 0.330703 0.712938 0.416347
O O5 0.330479 0.500000 0.941621
O O6 0.390882 0.268608 0.917534
O O7 0.352971 0.290209 0.000000
O O8 0.088453 0.782802 0.670231
O O9 0.000000 0.764724 0.611010
O O10 0.061555 0.000000 0.618161
O O11 0.106367 0.747201 0.155427
O O12 0.057112 0.773814 0.076397
O O13 0.104461 0.000000 0.117008
O O14 0.500000 0.350662 0.219655
O O15 0.595067 0.500000 0.229703
O O16 0.590462 0.229238 0.258313
O O17 0.500000 0.796438 0.314167
O O18 0.580995 0.000000 0.307950
O O19 0.500000 0.500000 0.547302
O O20 0.500000 0.737997 0.500000
#
# Coordination Sequence:
#
# PCOD8287455 Si02
#       7
#    16  16  16  16  16  16   8
#     4   9  18  32  48  66  89 120 158 194 226 263
#     4   9  17  29  47  71  97 125 154 183 221 270
#     4   8  14  26  46  73  99 121 150 188 225 262
#     4  10  18  29  47  67  87 116 155 195 231 270
#     4   8  14  26  45  65  87 118 153 186 221 265
#     4  10  19  29  42  64  95 122 146 183 233 282
#     4   9  16  26  43  67  89 109 143 193 236 267
#
# _framework density 16.575274
#
# number of rings (size 3 to 8) (size 9 to 14) (size 15 to 20)
#    0.000    3.000    0.769    1.846    0.000    3.385 
#    0.000    2.308    0.000    4.154    0.000    2.154 
#    0.000    0.000    0.000    0.000    0.000    0.000 
#
# Total GULP energy -644664.804655 kJ/mol
# GULP energy per Si atom -12397.400090 kJ/mol
# Density = 1.653755 g / cm^3
# Si number density = 16.575274 Si / 1000 Ang^3
#
#
#
# Elastic Constant Matrix: (Units=GPa)
#
#
# Indices 1 2 3 4 5 6 
#
# 1 103.9864 37.8800 78.3347 0.0000 0.0000 0.0000
# 2 37.8800 44.7628 44.7733 0.0000 0.0000 0.0000
# 3 78.3347 44.7733 137.1876 0.0000 0.0000 0.0000
# 4 0.0000 0.0000 0.0000 15.6482 0.0000 0.0000
# 5 0.0000 0.0000 0.0000 0.0000 19.7134 0.0000
# 6 0.0000 0.0000 0.0000 0.0000 0.0000 20.4500
#
#
#
# Elastic Compliance Matrix: (Units=1/GPa)
#
#
# Indices 1 2 3 4 5 6 
#
# 1 0.018441 -0.007532 -0.008072 0.000000 0.000000 0.000000
# 2 -0.007532 0.036243 -0.007528 0.000000 0.000000 0.000000
# 3 -0.008072 -0.007528 0.014355 0.000000 0.000000 0.000000
# 4 0.000000 0.000000 0.000000 0.063905 0.000000 0.000000
# 5 0.000000 0.000000 0.000000 0.000000 0.050727 0.000000
# 6 0.000000 0.000000 0.000000 0.000000 0.000000 0.048900
#
#
# Mechanical properties :
#
#
# Convention : Reuss Voigt Hill
#
# Bulk Modulus (GPa) = 43.90479 67.54587 55.72533
# Shear Modulus (GPa) = 17.45653 19.49225 18.47439
#
# Velocity S-wave (km/s) = 3.24877 3.43298 3.34215
# Velocity P-wave (km/s) = 6.37325 7.52019 6.97035
#
# Compressibility (1/GPa) = 0.02277656
#
# Stress axis : x y z
#
# Youngs Moduli (GPa) = 54.22749 27.59132 69.66160
#
# Poissons Ratio (x) = 0.20781 0.56229
# Poissons Ratio (y) = 0.40843 0.52441
# Poissons Ratio (z) = 0.43771 0.20770
#
# Static dielectric constant tensor:
#      x y z
#    x 3.013210 0.000000 0.000000 
#    y 0.000000 2.878410 0.000000 
#    z 0.000000 0.000000 3.376380 
# 
# 
# High freq. dielectric constant tensor:
#      x y z
#    x 1.610960 0.000000 0.000000 
#    y 0.000000 1.612320 0.000000 
#    z 0.000000 0.000000 1.646690 
# 
# From -- ./inp_files/70972.got.cif
#   From: 2010.06.25/outbox.cif.g09.slc.cpg/sg71_36_cif.got.tgz:70972.got - 2010.06.28 04:59:45.
