data_PCOD8287603
_publ_section_title
;
Structure prediction by ZEFSAII (Michael W. Deem and Ramdas Pophale) SiO2 
 PCOD8287603
Probable space group: I M M M
;
_chemical_formula_sum "Si O2"
_cell_formula_units_Z 104
_cell_length_a 12.665906
_cell_length_b 29.613551
_cell_length_c 17.585232
_cell_angle_alpha 90.000000
_cell_angle_beta 90.000000
_cell_angle_gamma 90.000000
_cell_volume 6595.911960
_symmetry_space_group_name_H-M "I M M M"
_symmetry_group_IT_number 71
_symmetry_cell_setting 'orthorhombic'
loop_
_space_group_symop_operation_xyz
x,y,z
-x,-y,z
x,-y,-z
-x,y,-z
-x,-y,-z
x,y,-z
-x,y,z
x,-y,z
1/2+x,1/2+y,1/2+z
1/2-x,1/2-y,1/2+z
1/2+x,1/2-y,1/2-z
1/2-x,1/2+y,1/2-z
1/2-x,1/2-y,1/2-z
1/2+x,1/2+y,1/2-z
1/2-x,1/2+y,1/2+z
1/2+x,1/2-y,1/2+z
loop_
_atom_site_type_symbol
_atom_site_label
_atom_site_fract_x
_atom_site_fract_y
_atom_site_fract_z
Si Si1 0.378796 0.373806 0.584197
Si Si2 0.816220 0.183962 0.219109
Si Si3 0.000000 0.947130 0.409985
Si Si4 0.686014 0.395042 0.171029
Si Si5 0.114061 0.717950 0.210881
Si Si6 0.879091 0.050690 0.195507
Si Si7 0.621363 0.852613 0.588283
O O1 0.329866 0.371459 0.500000
O O2 0.500000 0.358171 0.583992
O O3 0.314750 0.341327 0.639281
O O4 0.368798 0.424775 0.614678
O O5 0.854355 0.152315 0.290075
O O6 0.888636 0.227861 0.210237
O O7 0.696077 0.199263 0.228673
O O8 0.897802 0.918233 0.385084
O O9 0.000000 0.949008 0.500000
O O10 0.000000 0.000000 0.379368
O O11 0.701059 0.429018 0.242021
O O12 0.797427 0.388018 0.127582
O O13 0.136117 0.696683 0.127108
O O14 0.000000 0.701281 0.239061
O O15 0.000000 0.055388 0.227208
O O16 0.845995 0.000000 0.179657
O O17 0.651273 0.847379 0.500000
O O18 0.500000 0.869974 0.597675
#
# Coordination Sequence:
#
# PCOD8287603 Si02
#       7
#    16  16   8  16  16  16  16
#     4   9  17  27  41  64  91 117 146 182 226 274
#     4   9  18  29  45  69  90 121 153 191 230 270
#     4  11  22  32  46  70  95 123 157 193 236 286
#     4  10  18  30  48  68  93 122 156 191 231 278
#     4   9  17  29  46  67  90 119 157 191 226 271
#     4   9  16  27  44  65  90 119 149 182 223 273
#     4   9  18  32  48  67  92 122 157 195 236 277
#
# _framework density 15.767341999999999
#
# number of rings (size 3 to 8) (size 9 to 14) (size 15 to 20)
#    0.000    2.692    0.769    1.385    2.154    0.923 
#    0.000    3.077    0.000    2.308    0.000    5.385 
#    0.000    0.000    0.000   12.000    0.000    0.308 
#
# Total GULP energy -644294.793789 kJ/mol
# GULP energy per Si atom -12390.284496 kJ/mol
# Density = 1.573145 g / cm^3
# Si number density = 15.767342 Si / 1000 Ang^3
#
#
#
# Elastic Constant Matrix: (Units=GPa)
#
#
# Indices 1 2 3 4 5 6 
#
# 1 72.5488 43.5021 46.2741 -0.0001 0.0000 0.0000
# 2 43.5021 110.8538 47.7412 0.0000 0.0000 0.0000
# 3 46.2741 47.7412 109.2804 -0.0005 0.0002 0.0001
# 4 -0.0001 0.0000 -0.0005 18.3361 0.0000 0.0000
# 5 0.0000 0.0000 0.0002 0.0000 19.5629 0.0000
# 6 0.0000 0.0000 0.0001 0.0000 0.0000 16.4374
#
#
#
# Elastic Compliance Matrix: (Units=1/GPa)
#
#
# Indices 1 2 3 4 5 6 
#
# 1 0.021309 -0.005514 -0.006614 0.000000 0.000000 0.000000
# 2 -0.005514 0.012538 -0.003143 0.000000 0.000000 0.000000
# 3 -0.006614 -0.003143 0.013325 0.000000 0.000000 0.000000
# 4 0.000000 0.000000 0.000000 0.054537 0.000000 0.000000
# 5 0.000000 0.000000 0.000000 0.000000 0.051117 0.000000
# 6 0.000000 0.000000 0.000000 0.000000 0.000000 0.060837
#
#
# Mechanical properties :
#
#
# Convention : Reuss Voigt Hill
#
# Bulk Modulus (GPa) = 60.13244 63.07975 61.60610
# Shear Modulus (GPa) = 20.02023 21.21166 20.61595
#
# Velocity S-wave (km/s) = 3.56719 3.67180 3.61987
# Velocity P-wave (km/s) = 7.42877 7.62034 7.52516
#
# Compressibility (1/GPa) = 0.01662996
#
# Stress axis : x y z
#
# Youngs Moduli (GPa) = 46.92904 79.75707 75.04935
#
# Poissons Ratio (x) = 0.43975 0.49640
# Poissons Ratio (y) = 0.25875 0.23587
# Poissons Ratio (z) = 0.31041 0.25066
#
# Static dielectric constant tensor:
#      x y z
#    x 2.895520 0.000000 0.000000 
#    y 0.000000 3.145790 0.000000 
#    z 0.000000 0.000000 3.041150 
# 
# 
# High freq. dielectric constant tensor:
#      x y z
#    x 1.582190 0.000000 0.000000 
#    y 0.000000 1.607280 0.000000 
#    z 0.000000 0.000000 1.605100 
# 
# From -- ./inp_files/43985.got.cif
#   From: 2010.06.25/outbox.cif.g09.slc.cpg/sg71_22_cif.got.tgz:43985.got - 2010.06.28 04:59:45.
