data_PCOD8287105
_publ_section_title
;
Structure prediction by ZEFSAII (Michael W. Deem and Ramdas Pophale) SiO2 
 PCOD8287105
Probable space group: I M M M
;
_chemical_formula_sum "Si O2"
_cell_formula_units_Z 72
_cell_length_a 8.173471
_cell_length_b 27.245972
_cell_length_c 16.767266
_cell_angle_alpha 90.000000
_cell_angle_beta 90.000000
_cell_angle_gamma 90.000000
_cell_volume 3733.972251
_symmetry_space_group_name_H-M "I M M M"
_symmetry_group_IT_number 71
_symmetry_cell_setting 'orthorhombic'
loop_
_space_group_symop_operation_xyz
x,y,z
-x,-y,z
x,-y,-z
-x,y,-z
-x,-y,-z
x,y,-z
-x,y,z
x,-y,z
1/2+x,1/2+y,1/2+z
1/2-x,1/2-y,1/2+z
1/2+x,1/2-y,1/2-z
1/2-x,1/2+y,1/2-z
1/2-x,1/2-y,1/2-z
1/2+x,1/2+y,1/2-z
1/2-x,1/2+y,1/2+z
1/2+x,1/2-y,1/2+z
loop_
_atom_site_type_symbol
_atom_site_label
_atom_site_fract_x
_atom_site_fract_y
_atom_site_fract_z
Si Si1 0.682140 0.192900 0.405426
Si Si2 0.000000 0.133088 0.594752
Si Si3 0.185725 0.294854 0.409025
Si Si4 0.322793 0.389787 0.645622
Si Si5 0.500000 0.558598 0.775296
Si Si6 0.178444 0.442680 0.500000
O O1 0.690401 0.190943 0.500000
O O2 0.500000 0.175249 0.375990
O O3 0.705590 0.249382 0.378256
O O4 0.834334 0.160228 0.373854
O O5 0.000000 0.079274 0.634805
O O6 0.000000 0.126443 0.500000
O O7 0.231808 0.310448 0.500000
O O8 0.206918 0.341886 0.350874
O O9 0.000000 0.276481 0.405363
O O10 0.500000 0.368633 0.620833
O O11 0.338427 0.420194 0.728879
O O12 0.269857 0.428415 0.579873
O O13 0.500000 0.500000 0.777949
O O14 0.160145 0.500000 0.500000
O O15 0.000000 0.417029 0.500000
#
# Coordination Sequence:
#
# PCOD8287105 Si02
#       6
#    16   8  16  16   8   8
#     4   9  17  31  58  91 122 153 188 236 299 364
#     4  10  20  41  67  93 114 148 197 257 317 380
#     4  10  17  29  52  86 124 160 199 235 274 339
#     4  10  21  33  53  78 113 155 201 240 287 338
#     4  10  24  42  60  82 115 153 202 260 319 359
#     4  11  21  33  51  79 113 157 213 255 287 332
#
# _framework density 19.282413999999999
#
# number of rings (size 3 to 8) (size 9 to 14) (size 15 to 20)
#    0.667    1.444    2.222    2.333    0.000    1.556 
#    0.000    3.333    0.000    3.333    0.000    3.111 
#    0.000    0.000    0.000    0.000    0.000    0.000 
#
# Total GULP energy -446004.570593 kJ/mol
# GULP energy per Si atom -12389.015850 kJ/mol
# Density = 1.923853 g / cm^3
# Si number density = 19.282414 Si / 1000 Ang^3
#
#
#
# Elastic Constant Matrix: (Units=GPa)
#
#
# Indices 1 2 3 4 5 6 
#
# 1 109.9005 39.1398 21.5917 0.0000 0.0000 0.0000
# 2 39.1398 115.3025 44.1628 -0.0001 0.0000 0.0000
# 3 21.5917 44.1628 52.5213 0.0000 0.0002 0.0000
# 4 0.0000 -0.0001 0.0000 31.7282 0.0000 0.0000
# 5 0.0000 0.0000 0.0002 0.0000 -15.4705 0.0000
# 6 0.0000 0.0000 0.0000 0.0000 0.0000 21.0505
#
#
#
# Elastic Compliance Matrix: (Units=1/GPa)
#
#
# Indices 1 2 3 4 5 6 
#
# 1 0.010483 -0.002814 -0.001943 0.000000 0.000000 0.000000
# 2 -0.002814 0.013548 -0.010235 0.000000 0.000000 0.000000
# 3 -0.001943 -0.010235 0.028445 0.000000 0.000000 0.000000
# 4 0.000000 0.000000 0.000000 0.031518 0.000000 0.000000
# 5 0.000000 0.000000 0.000000 0.000000 -0.064639 0.000000
# 6 0.000000 0.000000 0.000000 0.000000 0.000000 0.047505
#
#
# Mechanical properties :
#
#
# Convention : Reuss Voigt Hill
#
# Bulk Modulus (GPa) = 44.46202 54.16808 49.31505
# Shear Modulus (GPa) = 47.91876 18.98363 33.45119
#
# Velocity S-wave (km/s) = 4.99049 3.14109 4.16962
# Velocity P-wave (km/s) = 7.50433 6.42714 6.98653
#
# Compressibility (1/GPa) = 0.02249111
#
# Stress axis : x y z
#
# Youngs Moduli (GPa) = 95.39082 73.80925 35.15524
#
# Poissons Ratio (x) = 0.20772 0.06832
# Poissons Ratio (y) = 0.26845 0.35983
# Poissons Ratio (z) = 0.18538 0.75546
#
# Static dielectric constant tensor:
#      x y z
#    x 3.781390 0.000000 0.000000 
#    y 0.000000 3.263170 0.000000 
#    z 0.000000 0.000000 3.094040 
# 
# 
# High freq. dielectric constant tensor:
#      x y z
#    x 1.754880 0.000000 0.000000 
#    y 0.000000 1.738940 0.000000 
#    z 0.000000 0.000000 1.709540 
# 
# From -- ./inp_files/50719.got.cif
#   From: 2010.06.25/outbox.cif.g09.slc.cpg/sg71_26_cif.got.tgz:50719.got - 2010.06.28 04:59:45.
