data_PCOD8287502
_publ_section_title
;
Structure prediction by ZEFSAII (Michael W. Deem and Ramdas Pophale) SiO2 
 PCOD8287502
Probable space group: I M M M
;
_chemical_formula_sum "Si O2"
_cell_formula_units_Z 104
_cell_length_a 27.940121
_cell_length_b 22.932125
_cell_length_c 9.376677
_cell_angle_alpha 90.000000
_cell_angle_beta 90.000000
_cell_angle_gamma 90.000000
_cell_volume 6007.884004
_symmetry_space_group_name_H-M "I M M M"
_symmetry_group_IT_number 71
_symmetry_cell_setting 'orthorhombic'
loop_
_space_group_symop_operation_xyz
x,y,z
-x,-y,z
x,-y,-z
-x,y,-z
-x,-y,-z
x,y,-z
-x,y,z
x,-y,z
1/2+x,1/2+y,1/2+z
1/2-x,1/2-y,1/2+z
1/2+x,1/2-y,1/2-z
1/2-x,1/2+y,1/2-z
1/2-x,1/2-y,1/2-z
1/2+x,1/2+y,1/2-z
1/2-x,1/2+y,1/2+z
1/2+x,1/2-y,1/2+z
loop_
_atom_site_type_symbol
_atom_site_label
_atom_site_fract_x
_atom_site_fract_y
_atom_site_fract_z
Si Si1 0.447088 0.436667 0.168666
Si Si2 0.115174 0.832459 0.330846
Si Si3 0.202259 0.323811 0.837866
Si Si4 0.100793 0.378256 0.168018
Si Si5 0.293973 0.685951 0.662368
Si Si6 0.945374 0.278412 0.663806
Si Si7 0.944871 0.500000 0.168599
O O1 0.500000 0.431187 0.234288
O O2 0.425162 0.500000 0.208050
O O3 0.415275 0.385620 0.232489
O O4 0.450211 0.429144 0.000000
O O5 0.122091 0.834360 0.500000
O O6 0.165523 0.842960 0.257088
O O7 0.089352 0.772983 0.283318
O O8 0.155059 0.359866 0.788640
O O9 0.244441 0.337992 0.727696
O O10 0.195773 0.254631 0.828438
O O11 0.215981 0.341542 0.000000
O O12 0.063510 0.335311 0.242550
O O13 0.085850 0.443418 0.218750
O O14 0.094311 0.371148 0.000000
O O15 0.295878 0.664314 0.500000
O O16 0.934583 0.294041 0.500000
O O17 0.000000 0.257622 0.683130
O O18 0.000000 0.500000 0.229658
O O19 0.948577 0.500000 0.000000
#
# Coordination Sequence:
#
# PCOD8287502 Si02
#       7
#    16  16  16  16  16  16   8
#     4   8  14  26  46  71  97 127 165 204 238 278
#     4  10  18  29  48  73 101 130 161 201 246 289
#     4   9  18  32  50  72  97 126 160 200 245 294
#     4  10  19  34  54  75  99 129 168 209 250 297
#     4  10  19  31  49  74 101 127 159 198 245 298
#     4  10  20  31  45  71 105 135 162 196 243 295
#     4   9  18  32  53  79 103 131 167 209 256 299
#
# _framework density 17.310587000000002
#
# number of rings (size 3 to 8) (size 9 to 14) (size 15 to 20)
#    0.000    2.538    1.538    1.846    0.000    4.000 
#    0.000    0.385    1.692    3.231    0.000    1.077 
#    0.000    0.000    0.000    0.000    0.000    0.000 
#
# Total GULP energy -644502.168299 kJ/mol
# GULP energy per Si atom -12394.272467 kJ/mol
# Density = 1.727119 g / cm^3
# Si number density = 17.310587 Si / 1000 Ang^3
#
#
#
# Elastic Constant Matrix: (Units=GPa)
#
#
# Indices 1 2 3 4 5 6 
#
# 1 114.0147 49.8165 37.0668 0.0000 0.0000 0.0000
# 2 49.8165 97.2807 26.8429 0.0000 0.0000 0.0000
# 3 37.0668 26.8429 44.6462 0.0000 0.0000 0.0000
# 4 0.0000 0.0000 0.0000 15.2532 0.0000 0.0000
# 5 0.0000 0.0000 0.0000 0.0000 23.6139 0.0000
# 6 0.0000 0.0000 0.0000 0.0000 0.0000 28.5966
#
#
#
# Elastic Compliance Matrix: (Units=1/GPa)
#
#
# Indices 1 2 3 4 5 6 
#
# 1 0.013532 -0.004591 -0.008474 0.000000 0.000000 0.000000
# 2 -0.004591 0.013882 -0.004534 0.000000 0.000000 0.000000
# 3 -0.008474 -0.004534 0.032160 0.000000 0.000000 0.000000
# 4 0.000000 0.000000 0.000000 0.065560 0.000000 0.000000
# 5 0.000000 0.000000 0.000000 0.000000 0.042348 0.000000
# 6 0.000000 0.000000 0.000000 0.000000 0.000000 0.034969
#
#
# Mechanical properties :
#
#
# Convention : Reuss Voigt Hill
#
# Bulk Modulus (GPa) = 41.02718 53.71046 47.36882
# Shear Modulus (GPa) = 20.34378 22.97377 21.65878
#
# Velocity S-wave (km/s) = 3.43187 3.64696 3.54105
# Velocity P-wave (km/s) = 6.28138 6.98775 6.64396
#
# Compressibility (1/GPa) = 0.02437408
#
# Stress axis : x y z
#
# Youngs Moduli (GPa) = 73.89971 72.03641 31.09437
#
# Poissons Ratio (x) = 0.33074 0.26350
# Poissons Ratio (y) = 0.33929 0.14100
# Poissons Ratio (z) = 0.62624 0.32665
#
# Static dielectric constant tensor:
#      x y z
#    x 3.329580 0.000000 0.000000 
#    y 0.000000 3.269390 0.000000 
#    z 0.000000 0.000000 2.992470 
# 
# 
# High freq. dielectric constant tensor:
#      x y z
#    x 1.675060 0.000000 0.000000 
#    y 0.000000 1.652910 0.000000 
#    z 0.000000 0.000000 1.642870 
# 
# From -- ./inp_files/11552.got.cif
#   From: 2010.06.25/outbox.cif.g09.slc.cpg/sg71_6_cif.got.tgz:11552.got - 2010.06.28 04:59:45.
