data_PCOD8287298
_publ_section_title
;
Structure prediction by ZEFSAII (Michael W. Deem and Ramdas Pophale) SiO2 
 PCOD8287298
Probable space group: I M M M
;
_chemical_formula_sum "Si O2"
_cell_formula_units_Z 80
_cell_length_a 8.829046
_cell_length_b 28.147790
_cell_length_c 18.351333
_cell_angle_alpha 90.000000
_cell_angle_beta 90.000000
_cell_angle_gamma 90.000000
_cell_volume 4560.639010
_symmetry_space_group_name_H-M "I M M M"
_symmetry_group_IT_number 71
_symmetry_cell_setting 'orthorhombic'
loop_
_space_group_symop_operation_xyz
x,y,z
-x,-y,z
x,-y,-z
-x,y,-z
-x,-y,-z
x,y,-z
-x,y,z
x,-y,z
1/2+x,1/2+y,1/2+z
1/2-x,1/2-y,1/2+z
1/2+x,1/2-y,1/2-z
1/2-x,1/2+y,1/2-z
1/2-x,1/2-y,1/2-z
1/2+x,1/2+y,1/2-z
1/2-x,1/2+y,1/2+z
1/2+x,1/2-y,1/2+z
loop_
_atom_site_type_symbol
_atom_site_label
_atom_site_fract_x
_atom_site_fract_y
_atom_site_fract_z
Si Si1 0.674892 0.104223 0.918818
Si Si2 0.678725 0.308477 0.350007
Si Si3 0.179680 0.710575 0.918847
Si Si4 0.820372 0.647890 0.211258
Si Si5 0.678370 0.051715 0.223319
O O1 0.500000 0.118817 0.907549
O O2 0.775685 0.150776 0.906918
O O3 0.720276 0.063917 0.860460
O O4 0.704351 0.084215 0.000000
O O5 0.500000 0.307761 0.339770
O O6 0.740174 0.258962 0.382535
O O7 0.753691 0.316791 0.271578
O O8 0.230287 0.665974 0.868547
O O9 0.000000 0.713023 0.924001
O O10 0.248745 0.703932 0.000000
O O11 0.759798 0.593816 0.223950
O O12 0.000000 0.649455 0.220469
O O13 0.500000 0.048025 0.232908
O O14 0.750853 0.000000 0.242659
#
# Coordination Sequence:
#
# PCOD8287298 Si02
#       5
#    16  16  16  16  16
#     4   9  17  28  42  62  88 116 145 175 206 243
#     4  10  18  28  44  64  88 117 145 171 203 247
#     4   9  17  28  43  64  88 114 142 171 208 253
#     4   9  17  30  47  64  84 111 143 177 209 246
#     4   8  14  25  42  63  83 106 140 178 213 248
#
# _framework density 17.541401
#
# number of rings (size 3 to 8) (size 9 to 14) (size 15 to 20)
#    0.000    3.000    0.000    3.000    0.000    1.600 
#    0.000    3.000    0.000   13.200    0.000    9.800 
#    0.000    0.000    0.000    7.200    0.000    8.000 
#
# Total GULP energy -495706.034286 kJ/mol
# GULP energy per Si atom -12392.650857 kJ/mol
# Density = 1.750148 g / cm^3
# Si number density = 17.541401 Si / 1000 Ang^3
#
#
#
# Elastic Constant Matrix: (Units=GPa)
#
#
# Indices 1 2 3 4 5 6 
#
# 1 20.3829 12.6759 14.5828 0.0000 0.0000 0.0000
# 2 12.6759 152.0807 87.7572 0.0000 0.0000 0.0000
# 3 14.5828 87.7572 135.7376 0.0001 0.0000 0.0000
# 4 0.0000 0.0000 0.0001 15.2769 0.0000 0.0000
# 5 0.0000 0.0000 0.0000 0.0000 16.5838 0.0000
# 6 0.0000 0.0000 0.0000 0.0000 0.0000 15.6761
#
#
#
# Elastic Compliance Matrix: (Units=1/GPa)
#
#
# Indices 1 2 3 4 5 6 
#
# 1 0.053460 -0.001821 -0.004566 0.000000 0.000000 0.000000
# 2 -0.001821 0.010550 -0.006625 0.000000 0.000000 0.000000
# 3 -0.004566 -0.006625 0.012141 0.000000 0.000000 0.000000
# 4 0.000000 0.000000 0.000000 0.065458 0.000000 0.000000
# 5 0.000000 0.000000 0.000000 0.000000 0.060300 0.000000
# 6 0.000000 0.000000 0.000000 0.000000 0.000000 0.063791
#
#
# Mechanical properties :
#
#
# Convention : Reuss Voigt Hill
#
# Bulk Modulus (GPa) = 19.94950 59.80367 39.87659
# Shear Modulus (GPa) = 16.21086 22.38636 19.29861
#
# Velocity S-wave (km/s) = 3.04328 3.57627 3.32049
# Velocity P-wave (km/s) = 4.87301 7.15680 6.12234
#
# Compressibility (1/GPa) = 0.05012656
#
# Stress axis : x y z
#
# Youngs Moduli (GPa) = 18.70554 94.78318 82.36434
#
# Poissons Ratio (x) = 0.17261 0.37608
# Poissons Ratio (y) = 0.03406 0.54570
# Poissons Ratio (z) = 0.08541 0.62798
#
# Static dielectric constant tensor:
#      x y z
#    x 2.876590 0.000000 0.000000 
#    y 0.000000 3.556930 0.000000 
#    z 0.000000 0.000000 3.432680 
# 
# 
# High freq. dielectric constant tensor:
#      x y z
#    x 1.636220 0.000000 0.000000 
#    y 0.000000 1.672800 0.000000 
#    z 0.000000 0.000000 1.671040 
# 
# From -- ./inp_files/8581.got.cif
#   From: 2010.06.25/outbox.cif.g09.slc.cpg/sg71_5_cif.got.tgz:8581.got - 2010.06.28 04:59:45.
