data_PCOD8287962
_publ_section_title
;
Structure prediction by ZEFSAII (Michael W. Deem and Ramdas Pophale) SiO2 
 PCOD8287962
Probable space group: I M M M
;
_chemical_formula_sum "Si O2"
_cell_formula_units_Z 88
_cell_length_a 26.704290
_cell_length_b 11.750891
_cell_length_c 14.969951
_cell_angle_alpha 90.000000
_cell_angle_beta 90.000000
_cell_angle_gamma 90.000000
_cell_volume 4697.558663
_symmetry_space_group_name_H-M "I M M M"
_symmetry_group_IT_number 71
_symmetry_cell_setting 'orthorhombic'
loop_
_space_group_symop_operation_xyz
x,y,z
-x,-y,z
x,-y,-z
-x,y,-z
-x,-y,-z
x,y,-z
-x,y,z
x,-y,z
1/2+x,1/2+y,1/2+z
1/2-x,1/2-y,1/2+z
1/2+x,1/2-y,1/2-z
1/2-x,1/2+y,1/2-z
1/2-x,1/2-y,1/2-z
1/2+x,1/2+y,1/2-z
1/2-x,1/2+y,1/2+z
1/2+x,1/2-y,1/2+z
loop_
_atom_site_type_symbol
_atom_site_label
_atom_site_fract_x
_atom_site_fract_y
_atom_site_fract_z
Si Si1 0.443589 0.635107 0.000000
Si Si2 0.391332 0.366415 0.820344
Si Si3 0.642480 0.129432 0.596800
Si Si4 0.664237 0.000000 0.105758
Si Si5 0.555552 0.220210 0.310117
Si Si6 0.195670 0.702846 0.729311
Si Si7 0.443100 0.000000 0.812780
O O1 0.413246 0.678866 0.085778
O O2 0.447366 0.500000 0.000000
O O3 0.500000 0.686662 0.000000
O O4 0.382408 0.500000 0.821440
O O5 0.432008 0.334178 0.745181
O O6 0.338633 0.308317 0.799440
O O7 0.666895 0.158717 0.500000
O O8 0.593241 0.208067 0.607257
O O9 0.680897 0.149529 0.676013
O O10 0.624346 0.000000 0.599020
O O11 0.691111 0.890959 0.151211
O O12 0.603407 0.000000 0.117698
O O13 0.675834 0.000000 0.000000
O O14 0.500000 0.227988 0.348712
O O15 0.563924 0.112105 0.246121
O O16 0.250000 0.750000 0.750000
O O17 0.500000 0.000000 0.855508
#
# Coordination Sequence:
#
# PCOD8287962 Si02
#       7
#     8  16  16   8  16  16   8
#     4   9  18  34  54  83 123 159 197 244 289 356
#     4  10  21  35  56  84 117 160 207 248 295 366
#     4  10  19  36  60  86 114 147 196 253 304 359
#     4  12  24  43  66  96 130 162 208 261 310 378
#     4  10  18  32  54  81 119 157 195 243 299 359
#     4  11  24  42  65  84 123 160 203 256 316 358
#     4  10  18  35  58  87 124 166 202 239 305 376
#
# _framework density 18.733135000000001
#
# number of rings (size 3 to 8) (size 9 to 14) (size 15 to 20)
#    0.000    1.727    5.455    0.545    2.545    2.364 
#    0.000    0.909    0.000    4.909    0.000    5.091 
#    0.000    0.000    0.000    0.000    0.000    0.000 
#
# Total GULP energy -545345.881030 kJ/mol
# GULP energy per Si atom -12394.224569 kJ/mol
# Density = 1.869050 g / cm^3
# Si number density = 18.733135 Si / 1000 Ang^3
#
#
#
# Elastic Constant Matrix: (Units=GPa)
#
#
# Indices 1 2 3 4 5 6 
#
# 1 114.2545 25.0487 48.4739 0.0000 0.0000 0.0000
# 2 25.0487 74.6350 38.2832 0.0000 0.0000 0.0000
# 3 48.4739 38.2832 139.7213 0.0000 0.0000 0.0000
# 4 0.0000 0.0000 0.0000 23.7135 0.0000 0.0000
# 5 0.0000 0.0000 0.0000 0.0000 15.6183 0.0000
# 6 0.0000 0.0000 0.0000 0.0000 0.0000 22.8509
#
#
#
# Elastic Compliance Matrix: (Units=1/GPa)
#
#
# Indices 1 2 3 4 5 6 
#
# 1 0.010496 -0.001925 -0.003114 0.000000 0.000000 0.000000
# 2 -0.001925 0.015943 -0.003700 0.000000 0.000000 0.000000
# 3 -0.003114 -0.003700 0.009251 0.000000 0.000000 0.000000
# 4 0.000000 0.000000 0.000000 0.042170 0.000000 0.000000
# 5 0.000000 0.000000 0.000000 0.000000 0.064027 0.000000
# 6 0.000000 0.000000 0.000000 0.000000 0.000000 0.043762
#
#
# Mechanical properties :
#
#
# Convention : Reuss Voigt Hill
#
# Bulk Modulus (GPa) = 54.91242 61.35805 58.13524
# Shear Modulus (GPa) = 23.90083 26.89021 25.39552
#
# Velocity S-wave (km/s) = 3.57579 3.79282 3.68591
# Velocity P-wave (km/s) = 6.81359 7.21149 7.01536
#
# Compressibility (1/GPa) = 0.01821082
#
# Stress axis : x y z
#
# Youngs Moduli (GPa) = 95.27869 62.72448 108.09386
#
# Poissons Ratio (x) = 0.12077 0.33657
# Poissons Ratio (y) = 0.18344 0.39998
# Poissons Ratio (z) = 0.29667 0.23210
#
# Static dielectric constant tensor:
#      x y z
#    x 3.454240 0.000000 0.000000 
#    y 0.000000 3.376110 0.000000 
#    z 0.000000 0.000000 3.676650 
# 
# 
# High freq. dielectric constant tensor:
#      x y z
#    x 1.723020 0.000000 0.000000 
#    y 0.000000 1.721970 0.000000 
#    z 0.000000 0.000000 1.720110 
# 
# From -- ./inp_files/40179.got.cif
#   From: 2010.06.25/outbox.cif.g09.slc.cpg/sg71_21_cif.got.tgz:40179.got - 2010.06.28 04:59:45.
