data_PCOD8287250
_publ_section_title
;
Structure prediction by ZEFSAII (Michael W. Deem and Ramdas Pophale) SiO2 
 PCOD8287250
Probable space group: I M M M
;
_chemical_formula_sum "Si O2"
_cell_formula_units_Z 88
_cell_length_a 9.072622
_cell_length_b 26.591692
_cell_length_c 19.983069
_cell_angle_alpha 90.000000
_cell_angle_beta 90.000000
_cell_angle_gamma 90.000000
_cell_volume 4821.042686
_symmetry_space_group_name_H-M "I M M M"
_symmetry_group_IT_number 71
_symmetry_cell_setting 'orthorhombic'
loop_
_space_group_symop_operation_xyz
x,y,z
-x,-y,z
x,-y,-z
-x,y,-z
-x,-y,-z
x,y,-z
-x,y,z
x,-y,z
1/2+x,1/2+y,1/2+z
1/2-x,1/2-y,1/2+z
1/2+x,1/2-y,1/2-z
1/2-x,1/2+y,1/2-z
1/2-x,1/2-y,1/2-z
1/2+x,1/2+y,1/2-z
1/2-x,1/2+y,1/2+z
1/2+x,1/2-y,1/2+z
loop_
_atom_site_type_symbol
_atom_site_label
_atom_site_fract_x
_atom_site_fract_y
_atom_site_fract_z
Si Si1 0.166450 0.559808 0.000000
Si Si2 0.829444 0.283677 0.869187
Si Si3 0.172733 0.780728 0.500000
Si Si4 0.829965 0.940683 0.632516
Si Si5 0.668104 0.332111 0.354725
Si Si6 0.332818 0.678289 0.500000
Si Si7 0.672056 0.870122 0.731510
O O1 0.249556 0.579768 0.065854
O O2 0.167690 0.500000 0.000000
O O3 0.000000 0.580861 0.000000
O O4 0.784353 0.226479 0.852266
O O5 0.790422 0.318033 0.805846
O O6 0.000000 0.286795 0.888162
O O7 0.739616 0.305334 0.932770
O O8 0.213625 0.722166 0.500000
O O9 0.000000 0.788847 0.500000
O O10 0.756631 0.916064 0.697342
O O11 0.000000 0.925173 0.627586
O O12 0.810390 0.000000 0.640114
O O13 0.500000 0.338329 0.330248
O O14 0.687579 0.353164 0.431181
O O15 0.773069 0.364793 0.307580
O O16 0.500000 0.701438 0.500000
O O17 0.500000 0.882582 0.731184
#
# Coordination Sequence:
#
# PCOD8287250 Si02
#       7
#     8  16   8  16  16   8  16
#     4   9  17  32  55  78  99 126 162 206 253 294
#     4   9  19  34  48  65  97 137 168 198 241 292
#     4  10  18  27  45  70  93 125 170 213 244 275
#     4  10  21  37  55  74  98 130 168 207 246 292
#     4   9  17  32  52  72  98 131 165 199 237 288
#     4   8  16  32  51  69  95 132 165 196 240 292
#     4  11  22  33  49  74 101 130 164 204 251 295
#
# _framework density 18.253312000000001
#
# number of rings (size 3 to 8) (size 9 to 14) (size 15 to 20)
#    0.000    2.455    0.000    3.818    0.000    7.273 
#    0.000    0.909    0.000    0.000    0.000    0.636 
#    0.000    5.091    0.000    0.000    0.000    0.000 
#
# Total GULP energy -545547.820158 kJ/mol
# GULP energy per Si atom -12398.814094 kJ/mol
# Density = 1.821177 g / cm^3
# Si number density = 18.253312 Si / 1000 Ang^3
#
#
#
# Elastic Constant Matrix: (Units=GPa)
#
#
# Indices 1 2 3 4 5 6 
#
# 1 115.3394 34.5281 65.3940 0.0000 0.0000 0.0000
# 2 34.5281 33.5672 33.5571 0.0000 0.0000 0.0000
# 3 65.3940 33.5571 143.7922 -0.0002 0.0000 0.0000
# 4 0.0000 0.0000 -0.0002 14.4127 0.0000 0.0000
# 5 0.0000 0.0000 0.0000 0.0000 31.8658 0.0000
# 6 0.0000 0.0000 0.0000 0.0000 0.0000 21.7087
#
#
#
# Elastic Compliance Matrix: (Units=1/GPa)
#
#
# Indices 1 2 3 4 5 6 
#
# 1 0.014050 -0.010518 -0.003935 0.000000 0.000000 0.000000
# 2 -0.010518 0.046731 -0.006122 0.000000 0.000000 0.000000
# 3 -0.003935 -0.006122 0.010173 0.000000 0.000000 0.000000
# 4 0.000000 0.000000 0.000000 0.069383 0.000000 0.000000
# 5 0.000000 0.000000 0.000000 0.000000 0.031382 0.000000
# 6 0.000000 0.000000 0.000000 0.000000 0.000000 0.046064
#
#
# Mechanical properties :
#
#
# Convention : Reuss Voigt Hill
#
# Bulk Modulus (GPa) = 33.55415 62.18414 47.86914
# Shear Modulus (GPa) = 18.59655 24.21209 21.40432
#
# Velocity S-wave (km/s) = 3.19533 3.64600 3.42808
# Velocity P-wave (km/s) = 5.66003 7.20178 6.47694
#
# Compressibility (1/GPa) = 0.02980257
#
# Stress axis : x y z
#
# Youngs Moduli (GPa) = 71.17546 21.39924 98.30193
#
# Poissons Ratio (x) = 0.22508 0.38681
# Poissons Ratio (y) = 0.74864 0.60182
# Poissons Ratio (z) = 0.28007 0.13101
#
# Static dielectric constant tensor:
#      x y z
#    x 3.352840 0.000000 0.000000 
#    y 0.000000 2.950470 0.000000 
#    z 0.000000 0.000000 3.562810 
# 
# 
# High freq. dielectric constant tensor:
#      x y z
#    x 1.712300 0.000000 0.000000 
#    y 0.000000 1.658040 0.000000 
#    z 0.000000 0.000000 1.714860 
# 
# From -- ./inp_files/50542.got.cif
#   From: 2010.06.25/outbox.cif.g09.slc.cpg/sg71_26_cif.got.tgz:50542.got - 2010.06.28 04:59:45.
