data_PCOD8287295
_publ_section_title
;
Structure prediction by ZEFSAII (Michael W. Deem and Ramdas Pophale) SiO2 
 PCOD8287295
Probable space group: I M M M
;
_chemical_formula_sum "Si O2"
_cell_formula_units_Z 104
_cell_length_a 24.380049
_cell_length_b 24.217874
_cell_length_c 9.643731
_cell_angle_alpha 90.000000
_cell_angle_beta 90.000000
_cell_angle_gamma 90.000000
_cell_volume 5693.976590
_symmetry_space_group_name_H-M "I M M M"
_symmetry_group_IT_number 71
_symmetry_cell_setting 'orthorhombic'
loop_
_space_group_symop_operation_xyz
x,y,z
-x,-y,z
x,-y,-z
-x,y,-z
-x,-y,-z
x,y,-z
-x,y,z
x,-y,z
1/2+x,1/2+y,1/2+z
1/2-x,1/2-y,1/2+z
1/2+x,1/2-y,1/2-z
1/2-x,1/2+y,1/2-z
1/2-x,1/2-y,1/2-z
1/2+x,1/2+y,1/2-z
1/2-x,1/2+y,1/2+z
1/2+x,1/2-y,1/2+z
loop_
_atom_site_type_symbol
_atom_site_label
_atom_site_fract_x
_atom_site_fract_y
_atom_site_fract_z
Si Si1 0.800461 0.249862 0.848452
Si Si2 0.935226 0.000000 0.840800
Si Si3 0.111325 0.786183 0.654572
Si Si4 0.438174 0.829811 0.160245
Si Si5 0.656100 0.871700 0.346173
Si Si6 0.239757 0.937663 0.663205
Si Si7 0.881709 0.091692 0.657083
O O1 0.750000 0.250000 0.750000
O O2 0.844456 0.211480 0.775268
O O3 0.822135 0.310826 0.864690
O O4 0.786238 0.225222 0.000000
O O5 0.913299 0.945967 0.764845
O O6 0.000000 0.000000 0.831907
O O7 0.915070 0.000000 0.000000
O O8 0.136981 0.776799 0.500000
O O9 0.068937 0.736432 0.684934
O O10 0.087888 0.848498 0.661168
O O11 0.500000 0.844396 0.205779
O O12 0.397227 0.869002 0.247266
O O13 0.428114 0.844088 0.000000
O O14 0.639330 0.894173 0.500000
O O15 0.705431 0.907714 0.276528
O O16 0.247931 0.937932 0.500000
O O17 0.183091 0.905777 0.699964
O O18 0.236394 0.000000 0.722580
O O19 0.885818 0.067560 0.500000
#
# Coordination Sequence:
#
# PCOD8287295 Si02
#       7
#    16   8  16  16  16  16  16
#     4  10  18  28  43  67 101 135 166 201 249 307
#     4  11  25  41  53  71 105 143 178 219 262 301
#     4   9  18  31  50  75 100 126 164 212 257 306
#     4   9  18  33  51  73 104 138 169 207 259 313
#     4   9  18  31  49  74 100 130 168 210 255 309
#     4   9  16  29  52  78 103 129 165 215 266 306
#     4  10  19  35  58  80 101 132 176 220 262 311
#
# _framework density 18.264914000000001
#
# number of rings (size 3 to 8) (size 9 to 14) (size 15 to 20)
#    0.000    2.538    0.769    1.615    0.000    5.231 
#    0.000    2.308    0.000    0.462    0.000    3.231 
#    0.000    0.000    0.000    0.000    0.000    0.000 
#
# Total GULP energy -644222.335043 kJ/mol
# GULP energy per Si atom -12388.891059 kJ/mol
# Density = 1.822334 g / cm^3
# Si number density = 18.264914 Si / 1000 Ang^3
#
#
#
# Elastic Constant Matrix: (Units=GPa)
#
#
# Indices 1 2 3 4 5 6 
#
# 1 96.7816 12.5973 47.3949 0.0000 0.0000 0.0000
# 2 12.5973 50.7929 8.2244 0.0000 0.0000 0.0000
# 3 47.3949 8.2244 101.3577 0.0000 0.0000 0.0000
# 4 0.0000 0.0000 0.0000 18.1833 0.0000 0.0000
# 5 0.0000 0.0000 0.0000 0.0000 29.2797 0.0000
# 6 0.0000 0.0000 0.0000 0.0000 0.0000 24.3699
#
#
#
# Elastic Compliance Matrix: (Units=1/GPa)
#
#
# Indices 1 2 3 4 5 6 
#
# 1 0.013681 -0.002389 -0.006204 0.000000 0.000000 0.000000
# 2 -0.002389 0.020367 -0.000536 0.000000 0.000000 0.000000
# 3 -0.006204 -0.000536 0.012810 0.000000 0.000000 0.000000
# 4 0.000000 0.000000 0.000000 0.054995 0.000000 0.000000
# 5 0.000000 0.000000 0.000000 0.000000 0.034153 0.000000
# 6 0.000000 0.000000 0.000000 0.000000 0.000000 0.041034
#
#
# Mechanical properties :
#
#
# Convention : Reuss Voigt Hill
#
# Bulk Modulus (GPa) = 34.96166 42.81838 38.89002
# Shear Modulus (GPa) = 24.41027 26.41430 25.41229
#
# Velocity S-wave (km/s) = 3.65972 3.80699 3.73408
# Velocity P-wave (km/s) = 6.08614 6.54355 6.31899
#
# Compressibility (1/GPa) = 0.02860276
#
# Stress axis : x y z
#
# Youngs Moduli (GPa) = 73.09184 49.09917 78.06206
#
# Poissons Ratio (x) = 0.11728 0.48427
# Poissons Ratio (y) = 0.17459 0.04182
# Poissons Ratio (z) = 0.45343 0.02630
#
# Static dielectric constant tensor:
#      x y z
#    x 3.648880 0.000000 0.000000 
#    y 0.000000 3.361000 0.000000 
#    z 0.000000 0.000000 3.624780 
# 
# 
# High freq. dielectric constant tensor:
#      x y z
#    x 1.694550 0.000000 0.000000 
#    y 0.000000 1.692130 0.000000 
#    z 0.000000 0.000000 1.696900 
# 
# From -- ./inp_files/15318.got.cif
#   From: 2010.06.25/outbox.cif.g09.slc.cpg/sg71_8_cif.got.tgz:15318.got - 2010.06.28 04:59:45.
