data_PCOD8287030
_publ_section_title
;
Structure prediction by ZEFSAII (Michael W. Deem and Ramdas Pophale) SiO2 
 PCOD8287030
Probable space group: I M M M
;
_chemical_formula_sum "Si O2"
_cell_formula_units_Z 96
_cell_length_a 9.297036
_cell_length_b 29.626660
_cell_length_c 27.869161
_cell_angle_alpha 90.000000
_cell_angle_beta 90.000000
_cell_angle_gamma 90.000000
_cell_volume 7676.285178
_symmetry_space_group_name_H-M "I M M M"
_symmetry_group_IT_number 71
_symmetry_cell_setting 'orthorhombic'
loop_
_space_group_symop_operation_xyz
x,y,z
-x,-y,z
x,-y,-z
-x,y,-z
-x,-y,-z
x,y,-z
-x,y,z
x,-y,z
1/2+x,1/2+y,1/2+z
1/2-x,1/2-y,1/2+z
1/2+x,1/2-y,1/2-z
1/2-x,1/2+y,1/2-z
1/2-x,1/2-y,1/2-z
1/2+x,1/2+y,1/2-z
1/2-x,1/2+y,1/2+z
1/2+x,1/2-y,1/2+z
loop_
_atom_site_type_symbol
_atom_site_label
_atom_site_fract_x
_atom_site_fract_y
_atom_site_fract_z
Si Si1 0.658544 0.271805 0.681829
Si Si2 0.170253 0.599345 0.000000
Si Si3 0.329431 0.215609 0.593022
Si Si4 0.159671 0.682425 0.245457
Si Si5 0.170538 0.449996 0.903071
Si Si6 0.827080 0.805325 0.500000
Si Si7 0.671026 0.868110 0.656678
O O1 0.500000 0.292378 0.677423
O O2 0.712063 0.256461 0.629170
O O3 0.754267 0.311454 0.704961
O O4 0.656045 0.228573 0.715956
O O5 0.215916 0.569901 0.045734
O O6 0.261341 0.644756 0.000000
O O7 0.000000 0.611327 0.000000
O O8 0.500000 0.215830 0.581190
O O9 0.232990 0.221893 0.545875
O O10 0.282309 0.168165 0.616742
O O11 0.230992 0.644687 0.209865
O O12 0.000000 0.667756 0.260659
O O13 0.237638 0.500000 0.896354
O O14 0.227228 0.417213 0.860401
O O15 0.000000 0.452763 0.900642
O O16 0.000000 0.806615 0.500000
O O17 0.500000 0.866127 0.660417
#
# Coordination Sequence:
#
# PCOD8287030 Si02
#       7
#    16   8  16  16  16   8  16
#     4   8  14  23  36  52  66  82 106 131 158 197
#     4  10  17  28  42  50  62  86 114 148 188 219
#     4   9  16  28  41  49  63  89 113 136 170 206
#     4   8  13  21  34  50  69  87 101 123 163 206
#     4   9  15  22  37  58  69  78 111 156 183 205
#     4  12  22  27  35  53  70  86 114 146 175 211
#     4   8  13  22  36  52  67  85 108 136 172 210
#
# _framework density 12.506049000000001
#
# number of rings (size 3 to 8) (size 9 to 14) (size 15 to 20)
#    0.000    3.167    1.667    3.000    0.000    1.667 
#    0.000    2.500    0.000    1.000    0.000    0.000 
#    0.000    0.000    0.000    0.000    0.000    0.000 
#
# Total GULP energy -594672.497724 kJ/mol
# GULP energy per Si atom -12389.010369 kJ/mol
# Density = 1.247759 g / cm^3
# Si number density = 12.506049 Si / 1000 Ang^3
#
#
#
# Elastic Constant Matrix: (Units=GPa)
#
#
# Indices 1 2 3 4 5 6 
#
# 1 42.4937 19.8539 38.7980 0.0000 0.0000 0.0000
# 2 19.8539 50.3667 53.5235 0.0000 0.0000 0.0000
# 3 38.7980 53.5235 96.4114 0.0000 0.0000 0.0000
# 4 0.0000 0.0000 0.0000 16.9093 0.0000 0.0000
# 5 0.0000 0.0000 0.0000 0.0000 17.0546 0.0000
# 6 0.0000 0.0000 0.0000 0.0000 0.0000 8.5335
#
#
#
# Elastic Compliance Matrix: (Units=1/GPa)
#
#
# Indices 1 2 3 4 5 6 
#
# 1 0.037393 0.003051 -0.016741 0.000000 0.000000 0.000000
# 2 0.003051 0.048668 -0.028246 0.000000 0.000000 0.000000
# 3 -0.016741 -0.028246 0.032790 0.000000 0.000000 0.000000
# 4 0.000000 0.000000 0.000000 0.059139 0.000000 0.000000
# 5 0.000000 0.000000 0.000000 0.000000 0.058635 0.000000
# 6 0.000000 0.000000 0.000000 0.000000 0.000000 0.117185
#
#
# Mechanical properties :
#
#
# Convention : Reuss Voigt Hill
#
# Bulk Modulus (GPa) = 28.58936 45.95808 37.27372
# Shear Modulus (GPa) = 11.12733 13.63925 12.38329
#
# Velocity S-wave (km/s) = 2.98611 3.30602 3.15013
# Velocity P-wave (km/s) = 5.89909 7.16949 6.56509
#
# Compressibility (1/GPa) = 0.03497804
#
# Stress axis : x y z
#
# Youngs Moduli (GPa) = 26.74307 20.54721 30.49665
#
# Poissons Ratio (x) = -0.06269 0.51056
# Poissons Ratio (y) = -0.08159 0.86142
# Poissons Ratio (z) = 0.44772 0.58038
#
# Static dielectric constant tensor:
#      x y z
#    x 2.410530 0.000000 0.000000 
#    y 0.000000 2.508260 0.000000 
#    z 0.000000 0.000000 2.682910 
# 
# 
# High freq. dielectric constant tensor:
#      x y z
#    x 1.449350 0.000000 0.000000 
#    y 0.000000 1.431450 0.000000 
#    z 0.000000 0.000000 1.467330 
# 
# From -- ./inp_files/68658.got.cif
#   From: 2010.06.25/outbox.cif.g09.slc.cpg/sg71_35_cif.got.tgz:68658.got - 2010.06.28 04:59:45.
