data_PCOD8287860
_publ_section_title
;
Structure prediction by ZEFSAII (Michael W. Deem and Ramdas Pophale) SiO2 
 PCOD8287860
Probable space group: I M M M
;
_chemical_formula_sum "Si O2"
_cell_formula_units_Z 104
_cell_length_a 21.576444
_cell_length_b 27.102690
_cell_length_c 8.903049
_cell_angle_alpha 90.000000
_cell_angle_beta 90.000000
_cell_angle_gamma 90.000000
_cell_volume 5206.322083
_symmetry_space_group_name_H-M "I M M M"
_symmetry_group_IT_number 71
_symmetry_cell_setting 'orthorhombic'
loop_
_space_group_symop_operation_xyz
x,y,z
-x,-y,z
x,-y,-z
-x,y,-z
-x,-y,-z
x,y,-z
-x,y,z
x,-y,z
1/2+x,1/2+y,1/2+z
1/2-x,1/2-y,1/2+z
1/2+x,1/2-y,1/2-z
1/2-x,1/2+y,1/2-z
1/2-x,1/2-y,1/2-z
1/2+x,1/2+y,1/2-z
1/2-x,1/2+y,1/2+z
1/2+x,1/2-y,1/2+z
loop_
_atom_site_type_symbol
_atom_site_label
_atom_site_fract_x
_atom_site_fract_y
_atom_site_fract_z
Si Si1 0.814444 0.310720 0.676446
Si Si2 0.722147 0.443829 0.165671
Si Si3 0.928621 0.500000 0.821440
Si Si4 0.324672 0.292138 0.676080
Si Si5 0.568084 0.649193 0.171924
Si Si6 0.354391 0.904619 0.674687
Si Si7 0.900899 0.056135 0.173702
O O1 0.822964 0.311601 0.500000
O O2 0.741486 0.316561 0.722072
O O3 0.837415 0.258423 0.737312
O O4 0.861766 0.352089 0.742530
O O5 0.743792 0.500000 0.161974
O O6 0.782693 0.413932 0.207281
O O7 0.671562 0.434068 0.293041
O O8 0.696481 0.428569 0.000000
O O9 0.896224 0.550333 0.759024
O O10 0.000000 0.500000 0.769346
O O11 0.921722 0.500000 0.000000
O O12 0.326190 0.281276 0.500000
O O13 0.380505 0.328043 0.719778
O O14 0.500000 0.674090 0.191179
O O15 0.559535 0.592145 0.221444
O O16 0.590133 0.653012 0.000000
O O17 0.370041 0.898042 0.500000
O O18 0.918970 0.000000 0.214666
O O19 0.914016 0.067265 0.000000
#
# Coordination Sequence:
#
# PCOD8287860 Si02
#       7
#    16  16   8  16  16  16  16
#     4  10  21  36  58  88 118 145 180 230 291 346
#     4   9  16  28  48  75 107 141 178 224 276 327
#     4   9  18  34  55  79 111 151 196 243 284 333
#     4  10  21  39  62  87 114 145 185 232 284 340
#     4  11  24  40  58  80 109 148 188 226 274 330
#     4  10  18  31  53  81 110 145 190 233 281 338
#     4  10  21  35  52  78 111 145 185 230 273 319
#
# _framework density 19.975714
#
# number of rings (size 3 to 8) (size 9 to 14) (size 15 to 20)
#    0.000    2.077    0.769    2.769    0.000    7.385 
#    0.000    2.692    0.000    3.692    0.000    0.000 
#    0.000    0.000    0.000    0.000    0.000    0.000 
#
# Total GULP energy -644552.401971 kJ/mol
# GULP energy per Si atom -12395.238499 kJ/mol
# Density = 1.993025 g / cm^3
# Si number density = 19.975714 Si / 1000 Ang^3
#
#
#
# Elastic Constant Matrix: (Units=GPa)
#
#
# Indices 1 2 3 4 5 6 
#
# 1 46.9780 48.5793 33.2196 0.0000 0.0000 0.0000
# 2 48.5793 116.4182 30.8475 0.0000 0.0000 0.0000
# 3 33.2196 30.8475 48.5209 0.0000 0.0000 0.0000
# 4 0.0000 0.0000 0.0000 33.1881 0.0000 0.0000
# 5 0.0000 0.0000 0.0000 0.0000 19.9079 0.0000
# 6 0.0000 0.0000 0.0000 0.0000 0.0000 17.7362
#
#
#
# Elastic Compliance Matrix: (Units=1/GPa)
#
#
# Indices 1 2 3 4 5 6 
#
# 1 0.060808 -0.017248 -0.030666 0.000000 0.000000 0.000000
# 2 -0.017248 0.015222 0.002131 0.000000 0.000000 0.000000
# 3 -0.030666 0.002131 0.040250 0.000000 0.000000 0.000000
# 4 0.000000 0.000000 0.000000 0.030131 0.000000 0.000000
# 5 0.000000 0.000000 0.000000 0.000000 0.050231 0.000000
# 6 0.000000 0.000000 0.000000 0.000000 0.000000 0.056382
#
#
# Mechanical properties :
#
#
# Convention : Reuss Voigt Hill
#
# Bulk Modulus (GPa) = 40.46285 48.57888 44.52086
# Shear Modulus (GPa) = 14.17120 20.78450 17.47785
#
# Velocity S-wave (km/s) = 2.66639 3.22916 2.96117
# Velocity P-wave (km/s) = 5.45706 6.18668 5.83329
#
# Compressibility (1/GPa) = 0.02471403
#
# Stress axis : x y z
#
# Youngs Moduli (GPa) = 16.44532 65.69245 24.84476
#
# Poissons Ratio (x) = 1.13309 0.76189
# Poissons Ratio (y) = 0.28365 -0.05295
# Poissons Ratio (z) = 0.50431 -0.14001
#
# Static dielectric constant tensor:
#      x y z
#    x 3.434850 0.000000 0.000000 
#    y 0.000000 3.708640 0.000000 
#    z 0.000000 0.000000 3.442910 
# 
# 
# High freq. dielectric constant tensor:
#      x y z
#    x 1.759210 0.000000 0.000000 
#    y 0.000000 1.784670 0.000000 
#    z 0.000000 0.000000 1.768170 
# 
# From -- ./inp_files/11114.got.cif
#   From: 2010.06.25/outbox.cif.g09.slc.cpg/sg71_6_cif.got.tgz:11114.got - 2010.06.28 04:59:45.
