data_PCOD8287919
_publ_section_title
;
Structure prediction by ZEFSAII (Michael W. Deem and Ramdas Pophale) SiO2 
 PCOD8287919
Probable space group: I M M M
;
_chemical_formula_sum "Si O2"
_cell_formula_units_Z 104
_cell_length_a 18.082267
_cell_length_b 34.326094
_cell_length_c 9.073652
_cell_angle_alpha 90.000000
_cell_angle_beta 90.000000
_cell_angle_gamma 90.000000
_cell_volume 5631.957696
_symmetry_space_group_name_H-M "I M M M"
_symmetry_group_IT_number 71
_symmetry_cell_setting 'orthorhombic'
loop_
_space_group_symop_operation_xyz
x,y,z
-x,-y,z
x,-y,-z
-x,y,-z
-x,-y,-z
x,y,-z
-x,y,z
x,-y,z
1/2+x,1/2+y,1/2+z
1/2-x,1/2-y,1/2+z
1/2+x,1/2-y,1/2-z
1/2-x,1/2+y,1/2-z
1/2-x,1/2-y,1/2-z
1/2+x,1/2+y,1/2-z
1/2-x,1/2+y,1/2+z
1/2+x,1/2-y,1/2+z
loop_
_atom_site_type_symbol
_atom_site_label
_atom_site_fract_x
_atom_site_fract_y
_atom_site_fract_z
Si Si1 0.682192 0.172234 0.324879
Si Si2 0.646472 0.086825 0.675721
Si Si3 0.848801 0.818222 0.674930
Si Si4 0.085668 0.744007 0.829308
Si Si5 0.917456 0.898750 0.324567
Si Si6 0.500000 0.044297 0.675783
Si Si7 0.207397 0.956249 0.675784
O O1 0.682428 0.170424 0.500000
O O2 0.651904 0.131012 0.263792
O O3 0.764802 0.180261 0.266397
O O4 0.629692 0.206675 0.267201
O O5 0.645942 0.086643 0.500000
O O6 0.572232 0.066614 0.736952
O O7 0.717005 0.062857 0.734801
O O8 0.851015 0.815234 0.500000
O O9 0.890895 0.781570 0.739548
O O10 0.890430 0.856746 0.731829
O O11 0.000000 0.735278 0.803893
O O12 0.104208 0.751208 0.000000
O O13 0.916451 0.899181 0.500000
O O14 0.862542 0.931931 0.263183
O O15 0.000000 0.906899 0.264347
O O16 0.500000 0.044313 0.500000
O O17 0.500000 0.000000 0.734966
O O18 0.207443 0.956011 0.500000
O O19 0.201344 0.000000 0.737482
#
# Coordination Sequence:
#
# PCOD8287919 Si02
#       7
#    16  16  16  16  16   8  16
#     4   9  17  29  45  63  85 117 156 191 227 275
#     4   9  15  24  37  54  79 114 153 188 224 267
#     4  10  18  32  51  68  88 121 160 191 226 273
#     4  10  21  33  46  68  95 119 149 192 235 274
#     4   9  16  25  38  58  82 110 147 184 216 260
#     4   9  16  22  32  54  82 116 159 197 223 263
#     4   9  15  23  35  52  79 113 144 177 220 266
#
# _framework density 18.466048000000001
#
# number of rings (size 3 to 8) (size 9 to 14) (size 15 to 20)
#    0.000    2.692    1.538    1.385    1.077    3.077 
#    0.000    1.538    0.000    0.000    0.000    0.000 
#    0.000    0.615    0.000    3.231    0.000    6.615 
#
# Total GULP energy -644711.393002 kJ/mol
# GULP energy per Si atom -12398.296019 kJ/mol
# Density = 1.842402 g / cm^3
# Si number density = 18.466048 Si / 1000 Ang^3
#
#
#
# Elastic Constant Matrix: (Units=GPa)
#
#
# Indices 1 2 3 4 5 6 
#
# 1 167.1851 82.0777 11.0479 0.0020 -0.0078 0.0000
# 2 82.0777 168.6819 12.8699 0.0272 -0.0025 -0.0042
# 3 11.0479 12.8699 7.1348 0.1317 0.0060 -0.0090
# 4 0.0020 0.0272 0.1317 14.0924 0.0015 -0.0024
# 5 -0.0078 -0.0025 0.0060 0.0015 9.9580 0.0002
# 6 0.0000 -0.0042 -0.0090 -0.0024 0.0002 39.3471
#
#
#
# Elastic Compliance Matrix: (Units=1/GPa)
#
#
# Indices 1 2 3 4 5 6 
#
# 1 0.008096 -0.003459 -0.006298 0.000064 0.000009 -0.000002
# 2 -0.003459 0.008352 -0.009712 0.000075 0.000005 -0.000001
# 3 -0.006298 -0.009712 0.167456 -0.001545 -0.000108 0.000037
# 4 0.000064 0.000075 -0.001545 0.070974 -0.000010 0.000004
# 5 0.000009 0.000005 -0.000108 -0.000010 0.100422 0.000000
# 6 -0.000002 -0.000001 0.000037 0.000004 0.000000 0.025415
#
#
# Mechanical properties :
#
#
# Convention : Reuss Voigt Hill
#
# Bulk Modulus (GPa) = 6.89811 61.66586 34.28199
# Shear Modulus (GPa) = 10.68436 28.47992 19.58214
#
# Velocity S-wave (km/s) = 2.40801 3.93146 3.25997
# Velocity P-wave (km/s) = 3.38748 7.35358 5.72495
#
# Compressibility (1/GPa) = 0.14496725
#
# Stress axis : x y z
#
# Youngs Moduli (GPa) = 123.52444 119.72897 5.97172
#
# Poissons Ratio (x) = 0.41410 0.03761
# Poissons Ratio (y) = 0.42723 0.05800
# Poissons Ratio (z) = 0.77795 1.16277
#
# Static dielectric constant tensor:
#      x y z
#    x 3.700690 0.000000 0.000010 
#    y 0.000000 3.650540 -0.000040 
#    z 0.000010 -0.000040 2.597150 
# 
# 
# High freq. dielectric constant tensor:
#      x y z
#    x 1.735610 0.000000 0.000000 
#    y 0.000000 1.734010 -0.000010 
#    z 0.000000 -0.000010 1.625870 
# 
# From -- ./inp_files/24767.got.cif
#   From: 2010.06.25/outbox.cif.g09.slc.cpg/sg71_13_cif.got.tgz:24767.got - 2010.06.28 04:59:45.
