data_PCOD8287477
_publ_section_title
;
Structure prediction by ZEFSAII (Michael W. Deem and Ramdas Pophale) SiO2 
 PCOD8287477
Probable space group: I M M M
;
_chemical_formula_sum "Si O2"
_cell_formula_units_Z 104
_cell_length_a 13.113346
_cell_length_b 19.275132
_cell_length_c 24.834017
_cell_angle_alpha 90.000000
_cell_angle_beta 90.000000
_cell_angle_gamma 90.000000
_cell_volume 6277.082770
_symmetry_space_group_name_H-M "I M M M"
_symmetry_group_IT_number 71
_symmetry_cell_setting 'orthorhombic'
loop_
_space_group_symop_operation_xyz
x,y,z
-x,-y,z
x,-y,-z
-x,y,-z
-x,-y,-z
x,y,-z
-x,y,z
x,-y,z
1/2+x,1/2+y,1/2+z
1/2-x,1/2-y,1/2+z
1/2+x,1/2-y,1/2-z
1/2-x,1/2+y,1/2-z
1/2-x,1/2-y,1/2-z
1/2+x,1/2+y,1/2-z
1/2-x,1/2+y,1/2+z
1/2+x,1/2-y,1/2+z
loop_
_atom_site_type_symbol
_atom_site_label
_atom_site_fract_x
_atom_site_fract_y
_atom_site_fract_z
Si Si1 0.379693 0.680674 0.058834
Si Si2 0.801572 0.081488 0.872830
Si Si3 0.611477 0.784487 0.766772
Si Si4 0.000000 0.082341 0.061506
Si Si5 0.115832 0.679740 0.387800
Si Si6 0.193789 0.137848 0.754831
Si Si7 0.881383 0.078082 0.352292
O O1 0.500000 0.668738 0.059280
O O2 0.355021 0.761384 0.069214
O O3 0.330814 0.629817 0.103784
O O4 0.334851 0.661613 0.000000
O O5 0.697361 0.117918 0.892933
O O6 0.823100 0.097450 0.810433
O O7 0.898018 0.108616 0.907777
O O8 0.785008 0.000000 0.880796
O O9 0.500000 0.810431 0.749508
O O10 0.623322 0.780695 0.831012
O O11 0.689181 0.841004 0.743860
O O12 0.627566 0.707887 0.743153
O O13 0.000000 0.000000 0.061957
O O14 0.000000 0.110532 0.000000
O O15 0.000000 0.651003 0.396774
O O16 0.165633 0.087256 0.706598
O O17 0.000000 0.094386 0.346342
O O18 0.860834 0.000000 0.371990
#
# Coordination Sequence:
#
# PCOD8287477 Si02
#       7
#    16  16  16   8  16  16  16
#     4   9  17  30  47  68  95 126 160 192 230 287
#     4  10  21  33  49  74  98 128 167 203 243 292
#     4   9  17  29  47  68  96 131 161 193 240 293
#     4   9  20  38  52  64  94 134 164 198 244 288
#     4   9  17  32  51  71  96 128 164 201 246 288
#     4  10  18  29  47  72 100 126 159 200 243 284
#     4  10  19  29  45  69  99 130 154 190 239 284
#
# _framework density 16.568206
#
# number of rings (size 3 to 8) (size 9 to 14) (size 15 to 20)
#    0.000    2.538    1.538    0.923    2.154    1.231 
#    0.000    1.538    0.000    1.385    0.000    4.308 
#    0.000    0.000    0.000    1.385    0.000    0.154 
#
# Total GULP energy -644613.513688 kJ/mol
# GULP energy per Si atom -12396.413725 kJ/mol
# Density = 1.653050 g / cm^3
# Si number density = 16.568206 Si / 1000 Ang^3
#
#
#
# Elastic Constant Matrix: (Units=GPa)
#
#
# Indices 1 2 3 4 5 6 
#
# 1 98.2008 46.0227 40.9545 0.0000 0.0000 0.0000
# 2 46.0227 66.3448 44.6932 0.0000 0.0000 0.0000
# 3 40.9545 44.6932 101.4747 0.0000 0.0000 0.0000
# 4 0.0000 0.0000 0.0000 18.0777 0.0000 0.0000
# 5 0.0000 0.0000 0.0000 0.0000 12.8456 0.0000
# 6 0.0000 0.0000 0.0000 0.0000 0.0000 18.4585
#
#
#
# Elastic Compliance Matrix: (Units=1/GPa)
#
#
# Indices 1 2 3 4 5 6 
#
# 1 0.015411 -0.009243 -0.002149 0.000000 0.000000 0.000000
# 2 -0.009243 0.026975 -0.008150 0.000000 0.000000 0.000000
# 3 -0.002149 -0.008150 0.014312 0.000000 0.000000 0.000000
# 4 0.000000 0.000000 0.000000 0.055317 0.000000 0.000000
# 5 0.000000 0.000000 0.000000 0.000000 0.077848 0.000000
# 6 0.000000 0.000000 0.000000 0.000000 0.000000 0.054175
#
#
# Mechanical properties :
#
#
# Convention : Reuss Voigt Hill
#
# Bulk Modulus (GPa) = 56.77506 58.81790 57.79648
# Shear Modulus (GPa) = 17.30141 18.83302 18.06721
#
# Velocity S-wave (km/s) = 3.23500 3.37515 3.30582
# Velocity P-wave (km/s) = 6.94949 7.12505 7.03782
#
# Compressibility (1/GPa) = 0.01761337
#
# Stress axis : x y z
#
# Youngs Moduli (GPa) = 64.88767 37.07124 69.87292
#
# Poissons Ratio (x) = 0.34265 0.15015
# Poissons Ratio (y) = 0.59976 0.56949
# Poissons Ratio (z) = 0.13944 0.30215
#
# Static dielectric constant tensor:
#      x y z
#    x 3.133050 0.000000 0.000000 
#    y 0.000000 2.959770 0.000000 
#    z 0.000000 0.000000 3.222990 
# 
# 
# High freq. dielectric constant tensor:
#      x y z
#    x 1.617170 0.000000 0.000000 
#    y 0.000000 1.626980 0.000000 
#    z 0.000000 0.000000 1.636760 
# 
# From -- ./inp_files/60079.got.cif
#   From: 2010.06.25/outbox.cif.g09.slc.cpg/sg71_31_cif.got.tgz:60079.got - 2010.06.28 04:59:45.
