data_PCOD8287778
_publ_section_title
;
Structure prediction by ZEFSAII (Michael W. Deem and Ramdas Pophale) SiO2 
 PCOD8287778
Probable space group: I M M M
;
_chemical_formula_sum "Si O2"
_cell_formula_units_Z 112
_cell_length_a 12.867532
_cell_length_b 34.260757
_cell_length_c 14.479895
_cell_angle_alpha 90.000000
_cell_angle_beta 90.000000
_cell_angle_gamma 90.000000
_cell_volume 6383.481795
_symmetry_space_group_name_H-M "I M M M"
_symmetry_group_IT_number 71
_symmetry_cell_setting 'orthorhombic'
loop_
_space_group_symop_operation_xyz
x,y,z
-x,-y,z
x,-y,-z
-x,y,-z
-x,-y,-z
x,y,-z
-x,y,z
x,-y,z
1/2+x,1/2+y,1/2+z
1/2-x,1/2-y,1/2+z
1/2+x,1/2-y,1/2-z
1/2-x,1/2+y,1/2-z
1/2-x,1/2-y,1/2-z
1/2+x,1/2+y,1/2-z
1/2-x,1/2+y,1/2+z
1/2+x,1/2-y,1/2+z
loop_
_atom_site_type_symbol
_atom_site_label
_atom_site_fract_x
_atom_site_fract_y
_atom_site_fract_z
Si Si1 0.113783 0.668973 0.236117
Si Si2 0.691705 0.785276 0.894614
Si Si3 0.118185 0.545995 0.605948
Si Si4 0.779784 0.802324 0.394867
Si Si5 0.381438 0.662084 0.607526
Si Si6 0.242883 0.100791 0.224276
Si Si7 0.879283 0.116491 0.394681
O O1 0.110370 0.690322 0.334974
O O2 0.177270 0.695056 0.165291
O O3 0.158699 0.626101 0.246945
O O4 0.000000 0.664608 0.195002
O O5 0.671812 0.739821 0.872736
O O6 0.809648 0.799998 0.870102
O O7 0.666132 0.794889 0.000000
O O8 0.138543 0.558851 0.500000
O O9 0.129459 0.500000 0.616248
O O10 0.208257 0.564059 0.670831
O O11 0.000000 0.558614 0.633974
O O12 0.743306 0.804129 0.500000
O O13 0.859613 0.837475 0.371982
O O14 0.377540 0.651717 0.500000
O O15 0.500000 0.670931 0.639034
O O16 0.338274 0.624298 0.660773
O O17 0.183404 0.089771 0.320591
O O18 0.843315 0.106901 0.500000
O O19 0.000000 0.107664 0.383004
#
# Coordination Sequence:
#
# PCOD8287778 Si02
#       7
#    16  16  16  16  16  16  16
#     4  10  20  30  42  64  91 119 152 189 232 282
#     4   9  18  31  44  61  87 118 155 199 243 287
#     4   9  18  33  55  83 110 133 155 179 215 271
#     4   9  18  32  47  63  86 117 157 206 251 286
#     4   9  17  28  43  65  92 124 162 199 239 291
#     4  10  18  31  50  71  96 126 157 194 235 278
#     4   9  18  32  50  71  93 123 167 212 250 287
#
# _framework density 17.545283999999999
#
# number of rings (size 3 to 8) (size 9 to 14) (size 15 to 20)
#    0.000    2.714    0.000    2.143    0.000    2.286 
#    0.000    2.857    0.000    3.429    0.000    7.000 
#    0.000    0.000    0.000    0.000    0.000    0.000 
#
# Total GULP energy -694065.240119 kJ/mol
# GULP energy per Si atom -12394.022145 kJ/mol
# Density = 1.750535 g / cm^3
# Si number density = 17.545284 Si / 1000 Ang^3
#
#
#
# Elastic Constant Matrix: (Units=GPa)
#
#
# Indices 1 2 3 4 5 6 
#
# 1 76.6096 16.8503 42.2017 -0.0005 0.0007 0.0001
# 2 16.8503 42.3376 31.5456 -0.0007 0.0013 0.0001
# 3 42.2017 31.5456 80.4398 -0.0043 0.0057 0.0011
# 4 -0.0005 -0.0007 -0.0043 24.9012 0.0021 0.0003
# 5 0.0007 0.0013 0.0057 0.0021 10.0842 -0.0010
# 6 0.0001 0.0001 0.0011 0.0003 -0.0010 18.2469
#
#
#
# Elastic Compliance Matrix: (Units=1/GPa)
#
#
# Indices 1 2 3 4 5 6 
#
# 1 0.018360 -0.000184 -0.009560 -0.000001 0.000004 0.000000
# 2 -0.000184 0.033372 -0.012991 -0.000001 0.000003 0.000001
# 3 -0.009560 -0.012991 0.022542 0.000003 -0.000010 -0.000001
# 4 -0.000001 -0.000001 0.000003 0.040159 -0.000009 -0.000001
# 5 0.000004 0.000003 -0.000010 -0.000009 0.099165 0.000005
# 6 0.000000 0.000001 -0.000001 -0.000001 0.000005 0.054804
#
#
# Mechanical properties :
#
#
# Convention : Reuss Voigt Hill
#
# Bulk Modulus (GPa) = 34.71731 42.28689 38.50210
# Shear Modulus (GPa) = 15.45723 17.89909 16.67816
#
# Velocity S-wave (km/s) = 2.97137 3.19747 3.08649
# Velocity P-wave (km/s) = 5.62159 6.14700 5.89016
#
# Compressibility (1/GPa) = 0.02880407
#
# Stress axis : x y z
#
# Youngs Moduli (GPa) = 54.46603 29.96490 44.36188
#
# Poissons Ratio (x) = 0.00551 0.42411
# Poissons Ratio (y) = 0.01002 0.57630
# Poissons Ratio (z) = 0.52071 0.38927
#
# Static dielectric constant tensor:
#      x y z
#    x 3.343120 0.000000 0.000000 
#    y 0.000000 2.918780 0.000000 
#    z 0.000000 0.000000 3.494370 
# 
# 
# High freq. dielectric constant tensor:
#      x y z
#    x 1.672210 0.000000 0.000000 
#    y 0.000000 1.637730 0.000000 
#    z 0.000000 0.000000 1.690750 
# 
# From -- ./inp_files/22680.got.cif
#   From: 2010.06.25/outbox.cif.g09.slc.cpg/sg71_12_cif.got.tgz:22680.got - 2010.06.28 04:59:45.
