data_PCOD8287985
_publ_section_title
;
Structure prediction by ZEFSAII (Michael W. Deem and Ramdas Pophale) SiO2 
 PCOD8287985
Probable space group: I M M M
;
_chemical_formula_sum "Si O2"
_cell_formula_units_Z 88
_cell_length_a 27.387932
_cell_length_b 9.011177
_cell_length_c 19.568252
_cell_angle_alpha 90.000000
_cell_angle_beta 90.000000
_cell_angle_gamma 90.000000
_cell_volume 4829.395730
_symmetry_space_group_name_H-M "I M M M"
_symmetry_group_IT_number 71
_symmetry_cell_setting 'orthorhombic'
loop_
_space_group_symop_operation_xyz
x,y,z
-x,-y,z
x,-y,-z
-x,y,-z
-x,-y,-z
x,y,-z
-x,y,z
x,-y,z
1/2+x,1/2+y,1/2+z
1/2-x,1/2-y,1/2+z
1/2+x,1/2-y,1/2-z
1/2-x,1/2+y,1/2-z
1/2-x,1/2-y,1/2-z
1/2+x,1/2+y,1/2-z
1/2-x,1/2+y,1/2+z
1/2+x,1/2-y,1/2+z
loop_
_atom_site_type_symbol
_atom_site_label
_atom_site_fract_x
_atom_site_fract_y
_atom_site_fract_z
Si Si1 0.369529 0.327430 0.921318
Si Si2 0.813119 0.829990 0.205667
Si Si3 0.579190 0.328400 0.681491
Si Si4 0.500000 0.324455 0.424291
Si Si5 0.709574 0.827202 0.157461
Si Si6 0.056009 0.329233 0.678410
O O1 0.367708 0.500000 0.904047
O O2 0.316534 0.258722 0.904114
O O3 0.411823 0.255219 0.876797
O O4 0.381417 0.296474 0.000000
O O5 0.863424 0.806098 0.164495
O O6 0.767490 0.790169 0.156613
O O7 0.814152 0.724313 0.271257
O O8 0.808010 0.000000 0.231279
O O9 0.567316 0.500000 0.697227
O O10 0.548391 0.271901 0.616343
O O11 0.563463 0.235345 0.746634
O O12 0.500000 0.500000 0.431585
O O13 0.500000 0.251827 0.500000
O O14 0.699368 0.000000 0.148259
O O15 0.072120 0.500000 0.679346
O O16 0.000000 0.310658 0.656190
#
# Coordination Sequence:
#
# PCOD8287985 Si02
#       6
#    16  16  16   8  16  16
#     4  11  24  40  57  78 109 150 192 234 282 338
#     4   9  18  31  51  81 112 142 181 228 274 324
#     4  10  18  32  56  83 111 147 187 227 271 324
#     4   9  18  32  53  83 114 145 182 223 269 320
#     4  10  19  32  52  80 111 143 181 229 280 325
#     4  11  23  37  56  84 113 141 182 233 282 336
#
# _framework density 18.221741999999999
#
# number of rings (size 3 to 8) (size 9 to 14) (size 15 to 20)
#    0.000    1.909    2.727    1.636    0.000    3.636 
#    0.000    2.727    0.000    4.364    0.000    0.000 
#    0.000    0.000    0.000    0.000    0.000    0.000 
#
# Total GULP energy -545619.628315 kJ/mol
# GULP energy per Si atom -12400.446098 kJ/mol
# Density = 1.818027 g / cm^3
# Si number density = 18.221742 Si / 1000 Ang^3
#
#
#
# Elastic Constant Matrix: (Units=GPa)
#
#
# Indices 1 2 3 4 5 6 
#
# 1 135.9093 46.7410 68.2219 0.0000 0.0000 0.0000
# 2 46.7410 94.7317 60.2765 0.0000 0.0000 0.0000
# 3 68.2219 60.2765 121.7939 0.0000 0.0000 0.0000
# 4 0.0000 0.0000 0.0000 16.4264 0.0000 0.0000
# 5 0.0000 0.0000 0.0000 0.0000 22.8866 0.0000
# 6 0.0000 0.0000 0.0000 0.0000 0.0000 25.0635
#
#
#
# Elastic Compliance Matrix: (Units=1/GPa)
#
#
# Indices 1 2 3 4 5 6 
#
# 1 0.010515 -0.002103 -0.004849 0.000000 0.000000 0.000000
# 2 -0.002103 0.015829 -0.006656 0.000000 0.000000 0.000000
# 3 -0.004849 -0.006656 0.014221 0.000000 0.000000 0.000000
# 4 0.000000 0.000000 0.000000 0.060877 0.000000 0.000000
# 5 0.000000 0.000000 0.000000 0.000000 0.043694 0.000000
# 6 0.000000 0.000000 0.000000 0.000000 0.000000 0.039899
#
#
# Mechanical properties :
#
#
# Convention : Reuss Voigt Hill
#
# Bulk Modulus (GPa) = 74.91230 78.10154 76.50692
# Shear Modulus (GPa) = 23.07335 24.68834 23.88084
#
# Velocity S-wave (km/s) = 3.56231 3.68487 3.62410
# Velocity P-wave (km/s) = 7.62370 7.81403 7.71945
#
# Compressibility (1/GPa) = 0.01334894
#
# Stress axis : x y z
#
# Youngs Moduli (GPa) = 95.10035 63.17658 70.31858
#
# Poissons Ratio (x) = 0.13284 0.34100
# Poissons Ratio (y) = 0.19996 0.46803
# Poissons Ratio (z) = 0.46118 0.42050
#
# Static dielectric constant tensor:
#      x y z
#    x 3.744280 0.000000 0.000000 
#    y 0.000000 3.396730 0.000000 
#    z 0.000000 0.000000 3.225880 
# 
# 
# High freq. dielectric constant tensor:
#      x y z
#    x 1.725860 0.000000 0.000000 
#    y 0.000000 1.705020 0.000000 
#    z 0.000000 0.000000 1.677560 
# 
# From -- ./inp_files/49261.got.cif
#   From: 2010.06.25/outbox.cif.g09.slc.cpg/sg71_25_cif.got.tgz:49261.got - 2010.06.28 04:59:45.
