data_PCOD8287027
_publ_section_title
;
Structure prediction by ZEFSAII (Michael W. Deem and Ramdas Pophale) SiO2 
 PCOD8287027
Probable space group: I M M M
;
_chemical_formula_sum "Si O2"
_cell_formula_units_Z 120
_cell_length_a 19.678482
_cell_length_b 25.559707
_cell_length_c 14.210919
_cell_angle_alpha 90.000000
_cell_angle_beta 90.000000
_cell_angle_gamma 90.000000
_cell_volume 7147.754522
_symmetry_space_group_name_H-M "I M M M"
_symmetry_group_IT_number 71
_symmetry_cell_setting 'orthorhombic'
loop_
_space_group_symop_operation_xyz
x,y,z
-x,-y,z
x,-y,-z
-x,y,-z
-x,-y,-z
x,y,-z
-x,y,z
x,-y,z
1/2+x,1/2+y,1/2+z
1/2-x,1/2-y,1/2+z
1/2+x,1/2-y,1/2-z
1/2-x,1/2+y,1/2-z
1/2-x,1/2-y,1/2-z
1/2+x,1/2+y,1/2-z
1/2-x,1/2+y,1/2+z
1/2+x,1/2-y,1/2+z
loop_
_atom_site_type_symbol
_atom_site_label
_atom_site_fract_x
_atom_site_fract_y
_atom_site_fract_z
Si Si1 0.319488 0.257557 0.106230
Si Si2 0.000000 0.438535 0.896528
Si Si3 0.365739 0.059389 0.711852
Si Si4 0.836626 0.279414 0.104005
Si Si5 0.821515 0.658672 0.283786
Si Si6 0.420457 0.676536 0.393157
Si Si7 0.725156 0.440692 0.107722
Si Si8 0.829369 0.853507 0.735413
O O1 0.238313 0.255221 0.114582
O O2 0.348050 0.201184 0.141114
O O3 0.349184 0.303687 0.170946
O O4 0.344425 0.266660 0.000000
O O5 0.933323 0.421532 0.840252
O O6 0.000000 0.500000 0.910132
O O7 0.000000 0.411866 0.000000
O O8 0.352893 0.100290 0.798418
O O9 0.303048 0.063815 0.639797
O O10 0.372267 0.000000 0.751288
O O11 0.845829 0.325382 0.178788
O O12 0.891030 0.234304 0.123284
O O13 0.846493 0.303513 0.000000
O O14 0.740471 0.656406 0.290123
O O15 0.404766 0.657400 0.500000
O O16 0.500000 0.677991 0.373743
O O17 0.386164 0.637935 0.316338
O O18 0.698993 0.500000 0.117950
O O19 0.675558 0.404748 0.170057
O O20 0.721244 0.421490 0.000000
#
# Coordination Sequence:
#
# PCOD8287027 Si02
#       8
#    16   8  16  16  16  16  16  16
#     4  10  17  27  47  71  92 119 152 191 237 276
#     4   9  16  28  44  62  91 129 161 185 221 278
#     4   9  18  29  43  64  93 128 162 194 231 278
#     4   9  16  28  44  67  95 119 150 187 227 280
#     4  10  17  28  45  67  95 123 157 197 237 271
#     4  10  19  31  48  70  98 129 154 182 230 290
#     4   9  17  29  48  74  99 122 153 197 241 275
#     4  10  17  30  48  70  96 125 157 190 230 284
#
# _framework density 16.788488999999998
#
# number of rings (size 3 to 8) (size 9 to 14) (size 15 to 20)
#    0.000    2.467    2.667    1.600    0.000    5.333 
#    1.200    0.000    0.000    2.800    0.000    5.600 
#    0.000    1.600    0.000    0.133    0.000    0.000 
#
# Total GULP energy -743660.875751 kJ/mol
# GULP energy per Si atom -12394.347929 kJ/mol
# Density = 1.675028 g / cm^3
# Si number density = 16.788489 Si / 1000 Ang^3
#
#
#
# Elastic Constant Matrix: (Units=GPa)
#
#
# Indices 1 2 3 4 5 6 
#
# 1 63.7401 25.4869 46.2242 0.0000 0.0000 0.0000
# 2 25.4869 83.9881 39.0892 0.0000 0.0000 0.0000
# 3 46.2242 39.0892 81.4935 0.0000 0.0000 0.0000
# 4 0.0000 0.0000 0.0000 23.2468 0.0000 0.0000
# 5 0.0000 0.0000 0.0000 0.0000 17.2326 0.0000
# 6 0.0000 0.0000 0.0000 0.0000 0.0000 16.4611
#
#
#
# Elastic Compliance Matrix: (Units=1/GPa)
#
#
# Indices 1 2 3 4 5 6 
#
# 1 0.026772 -0.001360 -0.014533 0.000000 0.000000 0.000000
# 2 -0.001360 0.015397 -0.006614 0.000000 0.000000 0.000000
# 3 -0.014533 -0.006614 0.023687 0.000000 0.000000 0.000000
# 4 0.000000 0.000000 0.000000 0.043017 0.000000 0.000000
# 5 0.000000 0.000000 0.000000 0.000000 0.058029 0.000000
# 6 0.000000 0.000000 0.000000 0.000000 0.000000 0.060749
#
#
# Mechanical properties :
#
#
# Convention : Reuss Voigt Hill
#
# Bulk Modulus (GPa) = 47.98090 50.09135 49.03613
# Shear Modulus (GPa) = 17.88188 19.28287 18.58237
#
# Velocity S-wave (km/s) = 3.26717 3.39274 3.33055
# Velocity P-wave (km/s) = 6.54784 6.72675 6.63790
#
# Compressibility (1/GPa) = 0.02084163
#
# Stress axis : x y z
#
# Youngs Moduli (GPa) = 37.35264 64.94564 42.21799
#
# Poissons Ratio (x) = 0.08835 0.61355
# Poissons Ratio (y) = 0.05081 0.27923
# Poissons Ratio (z) = 0.54284 0.42955
#
# Static dielectric constant tensor:
#      x y z
#    x 2.916520 0.000000 0.000000 
#    y 0.000000 3.189060 0.000000 
#    z 0.000000 0.000000 3.174510 
# 
# 
# High freq. dielectric constant tensor:
#      x y z
#    x 1.612040 0.000000 0.000000 
#    y 0.000000 1.639480 0.000000 
#    z 0.000000 0.000000 1.633430 
# 
# From -- ./inp_files/38571.got.cif
#   From: 2010.06.25/outbox.cif.g09.slc.cpg/sg71_20_cif.got.tgz:38571.got - 2010.06.28 04:59:45.
