data_PCOD8287543
_publ_section_title
;
Structure prediction by ZEFSAII (Michael W. Deem and Ramdas Pophale) SiO2 
 PCOD8287543
Probable space group: I M M M
;
_chemical_formula_sum "Si O2"
_cell_formula_units_Z 96
_cell_length_a 14.599710
_cell_length_b 23.750583
_cell_length_c 14.756215
_cell_angle_alpha 90.000000
_cell_angle_beta 90.000000
_cell_angle_gamma 90.000000
_cell_volume 5116.741517
_symmetry_space_group_name_H-M "I M M M"
_symmetry_group_IT_number 71
_symmetry_cell_setting 'orthorhombic'
loop_
_space_group_symop_operation_xyz
x,y,z
-x,-y,z
x,-y,-z
-x,y,-z
-x,-y,-z
x,y,-z
-x,y,z
x,-y,z
1/2+x,1/2+y,1/2+z
1/2-x,1/2-y,1/2+z
1/2+x,1/2-y,1/2-z
1/2-x,1/2+y,1/2-z
1/2-x,1/2-y,1/2-z
1/2+x,1/2+y,1/2-z
1/2-x,1/2+y,1/2+z
1/2+x,1/2-y,1/2+z
loop_
_atom_site_type_symbol
_atom_site_label
_atom_site_fract_x
_atom_site_fract_y
_atom_site_fract_z
Si Si1 0.000000 0.386510 0.319763
Si Si2 0.310258 0.858743 0.601331
Si Si3 0.500000 0.224244 0.101456
Si Si4 0.695343 0.253765 0.892212
Si Si5 0.810713 0.434628 0.272119
Si Si6 0.303668 0.355505 0.606395
Si Si7 0.500000 0.811459 0.645259
Si Si8 0.500000 0.313452 0.604724
O O1 0.089056 0.425563 0.315754
O O2 0.000000 0.344649 0.406043
O O3 0.000000 0.338519 0.243514
O O4 0.281701 0.879046 0.500000
O O5 0.240213 0.811967 0.640759
O O6 0.307866 0.910870 0.669914
O O7 0.410425 0.831461 0.591556
O O8 0.407348 0.248075 0.148701
O O9 0.500000 0.247681 0.000000
O O10 0.754467 0.200961 0.857117
O O11 0.695544 0.251759 0.000000
O O12 0.789137 0.500000 0.265560
O O13 0.734645 0.407838 0.337016
O O14 0.284947 0.365834 0.500000
O O15 0.411468 0.350949 0.627341
O O16 0.500000 0.744513 0.660264
O O17 0.500000 0.294737 0.500000
#
# Coordination Sequence:
#
# PCOD8287543 Si02
#       8
#     8  16   8  16  16  16   8   8
#     4  10  21  34  51  77 107 143 186 223 264 316
#     4  10  20  35  56  82 110 141 178 223 276 327
#     4  10  18  31  51  79 116 146 169 208 267 332
#     4   9  17  30  53  82 111 139 169 213 271 330
#     4  11  24  39  54  75 107 148 193 231 261 307
#     4  10  20  35  57  84 112 142 177 220 270 325
#     4  10  18  29  53  85 114 138 166 215 278 339
#     4  10  18  32  56  86 116 139 165 210 275 338
#
# _framework density 18.761939999999999
#
# number of rings (size 3 to 8) (size 9 to 14) (size 15 to 20)
#    0.000    2.000    3.333    1.000    0.000    2.667 
#    0.000    0.417    0.000    6.000    0.000    0.000 
#    0.000    4.667    0.000    0.000    0.000    0.000 
#
# Total GULP energy -595151.713940 kJ/mol
# GULP energy per Si atom -12398.994040 kJ/mol
# Density = 1.871924 g / cm^3
# Si number density = 18.761940 Si / 1000 Ang^3
#
#
#
# Elastic Constant Matrix: (Units=GPa)
#
#
# Indices 1 2 3 4 5 6 
#
# 1 148.0610 55.7565 28.9137 -0.0001 0.0000 0.0000
# 2 55.7565 116.6405 26.4684 0.0000 0.0000 0.0000
# 3 28.9137 26.4684 48.4711 0.0004 0.0000 0.0000
# 4 -0.0001 0.0000 0.0004 20.9494 0.0000 0.0000
# 5 0.0000 0.0000 0.0000 0.0000 20.0088 0.0000
# 6 0.0000 0.0000 0.0000 0.0000 0.0000 22.1799
#
#
#
# Elastic Compliance Matrix: (Units=1/GPa)
#
#
# Indices 1 2 3 4 5 6 
#
# 1 0.008682 -0.003396 -0.003325 0.000000 0.000000 0.000000
# 2 -0.003396 0.011114 -0.004043 0.000000 0.000000 0.000000
# 3 -0.003325 -0.004043 0.024822 0.000000 0.000000 0.000000
# 4 0.000000 0.000000 0.000000 0.047734 0.000000 0.000000
# 5 0.000000 0.000000 0.000000 0.000000 0.049978 0.000000
# 6 0.000000 0.000000 0.000000 0.000000 0.000000 0.045086
#
#
# Mechanical properties :
#
#
# Convention : Reuss Voigt Hill
#
# Bulk Modulus (GPa) = 43.30779 59.49442 51.40110
# Shear Modulus (GPa) = 23.07971 26.09656 24.58813
#
# Velocity S-wave (km/s) = 3.51113 3.73356 3.62406
# Velocity P-wave (km/s) = 6.29049 7.09683 6.70579
#
# Compressibility (1/GPa) = 0.02309053
#
# Stress axis : x y z
#
# Youngs Moduli (GPa) = 115.18127 89.97554 40.28679
#
# Poissons Ratio (x) = 0.30553 0.13394
# Poissons Ratio (y) = 0.39112 0.16290
# Poissons Ratio (z) = 0.38293 0.36381
#
# Static dielectric constant tensor:
#      x y z
#    x 3.747640 0.000000 0.000000 
#    y 0.000000 3.097130 0.000000 
#    z 0.000000 0.000000 3.330500 
# 
# 
# High freq. dielectric constant tensor:
#      x y z
#    x 1.737570 0.000000 0.000000 
#    y 0.000000 1.691900 0.000000 
#    z 0.000000 0.000000 1.727100 
# 
# From -- ./inp_files/34837.got.cif
#   From: 2010.06.25/outbox.cif.g09.slc.cpg/sg71_18_cif.got.tgz:34837.got - 2010.06.28 04:59:45.
