data_PCOD8287817
_publ_section_title
;
Structure prediction by ZEFSAII (Michael W. Deem and Ramdas Pophale) SiO2 
 PCOD8287817
Probable space group: I M M M
;
_chemical_formula_sum "Si O2"
_cell_formula_units_Z 120
_cell_length_a 20.843614
_cell_length_b 24.749570
_cell_length_c 12.828756
_cell_angle_alpha 90.000000
_cell_angle_beta 90.000000
_cell_angle_gamma 90.000000
_cell_volume 6617.976564
_symmetry_space_group_name_H-M "I M M M"
_symmetry_group_IT_number 71
_symmetry_cell_setting 'orthorhombic'
loop_
_space_group_symop_operation_xyz
x,y,z
-x,-y,z
x,-y,-z
-x,y,-z
-x,-y,-z
x,y,-z
-x,y,z
x,-y,z
1/2+x,1/2+y,1/2+z
1/2-x,1/2-y,1/2+z
1/2+x,1/2-y,1/2-z
1/2-x,1/2+y,1/2-z
1/2-x,1/2-y,1/2-z
1/2+x,1/2+y,1/2-z
1/2-x,1/2+y,1/2+z
1/2+x,1/2-y,1/2+z
loop_
_atom_site_type_symbol
_atom_site_label
_atom_site_fract_x
_atom_site_fract_y
_atom_site_fract_z
Si Si1 0.123143 0.613736 0.741766
Si Si2 0.125311 0.767271 0.613301
Si Si3 0.175200 0.137391 0.268596
Si Si4 0.778467 0.674146 0.383890
Si Si5 0.928866 0.276787 0.808035
Si Si6 0.574201 0.337373 0.382443
Si Si7 0.000000 0.435548 0.375816
Si Si8 0.726432 0.062880 0.380863
O O1 0.169560 0.628476 0.646263
O O2 0.110343 0.667270 0.813242
O O3 0.159123 0.573716 0.821731
O O4 0.060940 0.587637 0.687498
O O5 0.093811 0.765293 0.500000
O O6 0.145824 0.828213 0.637630
O O7 0.190456 0.732945 0.619597
O O8 0.070957 0.743528 0.688507
O O9 0.221175 0.174529 0.198174
O O10 0.115597 0.122414 0.191553
O O11 0.213187 0.087415 0.317671
O O12 0.753024 0.660434 0.500000
O O13 0.901316 0.225762 0.874146
O O14 0.000000 0.290487 0.846199
O O15 0.582756 0.357497 0.500000
O O16 0.500000 0.339880 0.346979
O O17 0.000000 0.500000 0.367067
O O18 0.000000 0.418901 0.500000
O O19 0.723060 0.085097 0.500000
O O20 0.739391 0.000000 0.382179
#
# Coordination Sequence:
#
# PCOD8287817 Si02
#       8
#    16  16  16  16  16  16   8  16
#     4  10  19  34  52  73 102 137 177 226 267 312
#     4   9  17  27  41  67  99 129 165 209 256 305
#     4  10  18  31  52  72  98 133 171 211 254 311
#     4   9  17  28  44  69  99 129 165 208 258 314
#     4   9  17  30  46  72 105 139 175 205 246 304
#     4   9  18  32  52  80 114 143 166 198 246 313
#     4  11  22  34  51  73  99 139 190 240 286 317
#     4  10  22  39  57  76  99 132 176 225 274 314
#
# _framework density 18.132429999999999
#
# number of rings (size 3 to 8) (size 9 to 14) (size 15 to 20)
#    0.000    2.467    0.667    2.000    0.000    2.400 
#    0.000    0.333    0.000   10.800    0.000    1.867 
#    0.000    0.000    0.000    0.000    0.000    0.000 
#
# Total GULP energy -743398.247413 kJ/mol
# GULP energy per Si atom -12389.970790 kJ/mol
# Density = 1.809116 g / cm^3
# Si number density = 18.132430 Si / 1000 Ang^3
#
#
#
# Elastic Constant Matrix: (Units=GPa)
#
#
# Indices 1 2 3 4 5 6 
#
# 1 77.1965 25.7714 33.9130 0.0000 0.0000 0.0000
# 2 25.7714 53.1442 25.6130 0.0000 0.0000 0.0000
# 3 33.9130 25.6130 101.1803 0.0000 0.0000 0.0000
# 4 0.0000 0.0000 0.0000 21.6210 0.0000 0.0000
# 5 0.0000 0.0000 0.0000 0.0000 24.5119 0.0000
# 6 0.0000 0.0000 0.0000 0.0000 0.0000 20.3250
#
#
#
# Elastic Compliance Matrix: (Units=1/GPa)
#
#
# Indices 1 2 3 4 5 6 
#
# 1 0.016807 -0.006191 -0.004066 0.000000 0.000000 0.000000
# 2 -0.006191 0.023712 -0.003928 0.000000 0.000000 0.000000
# 3 -0.004066 -0.003928 0.012240 0.000000 0.000000 0.000000
# 4 0.000000 0.000000 0.000000 0.046251 0.000000 0.000000
# 5 0.000000 0.000000 0.000000 0.000000 0.040797 0.000000
# 6 0.000000 0.000000 0.000000 0.000000 0.000000 0.049200
#
#
# Mechanical properties :
#
#
# Convention : Reuss Voigt Hill
#
# Bulk Modulus (GPa) = 40.99947 44.67954 42.83951
# Shear Modulus (GPa) = 22.17238 23.03982 22.60610
#
# Velocity S-wave (km/s) = 3.50065 3.56847 3.53473
# Velocity P-wave (km/s) = 6.24497 6.45545 6.35108
#
# Compressibility (1/GPa) = 0.02439056
#
# Stress axis : x y z
#
# Youngs Moduli (GPa) = 59.49943 42.17349 81.69647
#
# Poissons Ratio (x) = 0.26108 0.33219
# Poissons Ratio (y) = 0.36833 0.32086
# Poissons Ratio (z) = 0.24193 0.16564
#
# Static dielectric constant tensor:
#      x y z
#    x 3.354310 0.000000 0.000000 
#    y 0.000000 3.042740 0.000000 
#    z 0.000000 0.000000 3.516560 
# 
# 
# High freq. dielectric constant tensor:
#      x y z
#    x 1.701170 0.000000 0.000000 
#    y 0.000000 1.666660 0.000000 
#    z 0.000000 0.000000 1.709470 
# 
# From -- ./inp_files/38440.got.cif
#   From: 2010.06.25/outbox.cif.g09.slc.cpg/sg71_20_cif.got.tgz:38440.got - 2010.06.28 04:59:45.
