data_PCOD8287612
_publ_section_title
;
Structure prediction by ZEFSAII (Michael W. Deem and Ramdas Pophale) SiO2 
 PCOD8287612
Probable space group: I M M M
;
_chemical_formula_sum "Si O2"
_cell_formula_units_Z 80
_cell_length_a 11.491636
_cell_length_b 20.638573
_cell_length_c 21.209858
_cell_angle_alpha 90.000000
_cell_angle_beta 90.000000
_cell_angle_gamma 90.000000
_cell_volume 5030.362563
_symmetry_space_group_name_H-M "I M M M"
_symmetry_group_IT_number 71
_symmetry_cell_setting 'orthorhombic'
loop_
_space_group_symop_operation_xyz
x,y,z
-x,-y,z
x,-y,-z
-x,y,-z
-x,-y,-z
x,y,-z
-x,y,z
x,-y,z
1/2+x,1/2+y,1/2+z
1/2-x,1/2-y,1/2+z
1/2+x,1/2-y,1/2-z
1/2-x,1/2+y,1/2-z
1/2-x,1/2-y,1/2-z
1/2+x,1/2+y,1/2-z
1/2-x,1/2+y,1/2+z
1/2+x,1/2-y,1/2+z
loop_
_atom_site_type_symbol
_atom_site_label
_atom_site_fract_x
_atom_site_fract_y
_atom_site_fract_z
Si Si1 0.863336 0.752356 0.166560
Si Si2 0.000000 0.425414 0.117053
Si Si3 0.780152 0.347750 0.073045
Si Si4 0.634998 0.425096 0.836405
Si Si5 0.281427 0.851172 0.234629
Si Si6 0.000000 0.574791 0.267063
O O1 0.805157 0.722123 0.104117
O O2 0.800442 0.820772 0.180592
O O3 0.843039 0.705035 0.225275
O O4 0.000000 0.763927 0.155928
O O5 0.888175 0.394385 0.085481
O O6 0.000000 0.412953 0.191664
O O7 0.000000 0.500000 0.099771
O O8 0.666802 0.382473 0.102376
O O9 0.757013 0.336382 0.000000
O O10 0.500000 0.416151 0.821739
O O11 0.667844 0.500000 0.848429
O O12 0.706179 0.399671 0.776868
O O13 0.384958 0.892701 0.202920
O O14 0.000000 0.500000 0.284828
#
# Coordination Sequence:
#
# PCOD8287612 Si02
#       6
#    16   8  16  16  16   8
#     4  10  18  31  46  66  94 124 161 197 237 284
#     4  11  19  30  47  70  98 127 162 201 235 272
#     4  11  21  33  47  67  94 130 170 202 235 273
#     4  10  20  33  47  66  94 128 164 201 241 285
#     4  10  18  30  48  70  92 123 157 198 246 290
#     4  11  18  31  52  75 101 122 155 202 245 288
#
# _framework density 15.903426
#
# number of rings (size 3 to 8) (size 9 to 14) (size 15 to 20)
#    0.000    1.600    6.000    2.100    0.000    2.400 
#    1.800    1.000    0.000    0.000    0.000    0.000 
#    0.000    4.000    0.000    9.800    0.000    0.000 
#
# Total GULP energy -496027.381158 kJ/mol
# GULP energy per Si atom -12400.684529 kJ/mol
# Density = 1.586723 g / cm^3
# Si number density = 15.903426 Si / 1000 Ang^3
#
#
#
# Elastic Constant Matrix: (Units=GPa)
#
#
# Indices 1 2 3 4 5 6 
#
# 1 103.7724 56.9942 26.9825 0.0000 0.0000 0.0000
# 2 56.9942 87.7166 43.0062 0.0000 0.0000 0.0000
# 3 26.9825 43.0062 55.6505 0.0000 0.0000 0.0000
# 4 0.0000 0.0000 0.0000 15.0858 0.0000 0.0000
# 5 0.0000 0.0000 0.0000 0.0000 13.4425 0.0000
# 6 0.0000 0.0000 0.0000 0.0000 0.0000 32.6691
#
#
#
# Elastic Compliance Matrix: (Units=1/GPa)
#
#
# Indices 1 2 3 4 5 6 
#
# 1 0.014989 -0.009944 0.000417 0.000000 0.000000 0.000000
# 2 -0.009944 0.024951 -0.014461 0.000000 0.000000 0.000000
# 3 0.000417 -0.014461 0.028942 0.000000 0.000000 0.000000
# 4 0.000000 0.000000 0.000000 0.066287 0.000000 0.000000
# 5 0.000000 0.000000 0.000000 0.000000 0.074391 0.000000
# 6 0.000000 0.000000 0.000000 0.000000 0.000000 0.030610
#
#
# Mechanical properties :
#
#
# Convention : Reuss Voigt Hill
#
# Bulk Modulus (GPa) = 47.82988 55.67837 51.75413
# Shear Modulus (GPa) = 16.94247 20.24993 18.59620
#
# Velocity S-wave (km/s) = 3.26749 3.57221 3.42324
# Velocity P-wave (km/s) = 6.66152 7.21807 6.94537
#
# Compressibility (1/GPa) = 0.02090743
#
# Stress axis : x y z
#
# Youngs Moduli (GPa) = 66.71339 40.07795 34.55132
#
# Poissons Ratio (x) = 0.39853 -0.01440
# Poissons Ratio (y) = 0.66339 0.49964
# Poissons Ratio (z) = -0.02780 0.57956
#
# Static dielectric constant tensor:
#      x y z
#    x 3.196800 0.000000 0.000000 
#    y 0.000000 3.158960 0.000000 
#    z 0.000000 0.000000 2.720760 
# 
# 
# High freq. dielectric constant tensor:
#      x y z
#    x 1.628860 0.000000 0.000000 
#    y 0.000000 1.608120 0.000000 
#    z 0.000000 0.000000 1.557760 
# 
# From -- ./inp_files/23847.got.cif
#   From: 2010.06.25/outbox.cif.g09.slc.cpg/sg71_12_cif.got.tgz:23847.got - 2010.06.28 04:59:45.
