data_PCOD8287022
_publ_section_title
;
Structure prediction by ZEFSAII (Michael W. Deem and Ramdas Pophale) SiO2 
 PCOD8287022
Probable space group: I M M M
;
_chemical_formula_sum "Si O2"
_cell_formula_units_Z 104
_cell_length_a 22.870212
_cell_length_b 9.288127
_cell_length_c 29.445580
_cell_angle_alpha 90.000000
_cell_angle_beta 90.000000
_cell_angle_gamma 90.000000
_cell_volume 6254.872316
_symmetry_space_group_name_H-M "I M M M"
_symmetry_group_IT_number 71
_symmetry_cell_setting 'orthorhombic'
loop_
_space_group_symop_operation_xyz
x,y,z
-x,-y,z
x,-y,-z
-x,y,-z
-x,-y,-z
x,y,-z
-x,y,z
x,-y,z
1/2+x,1/2+y,1/2+z
1/2-x,1/2-y,1/2+z
1/2+x,1/2-y,1/2-z
1/2-x,1/2+y,1/2-z
1/2-x,1/2-y,1/2-z
1/2+x,1/2+y,1/2-z
1/2-x,1/2+y,1/2+z
1/2+x,1/2-y,1/2+z
loop_
_atom_site_type_symbol
_atom_site_label
_atom_site_fract_x
_atom_site_fract_y
_atom_site_fract_z
Si Si1 0.652278 0.665197 0.553166
Si Si2 0.433886 0.829905 0.382418
Si Si3 0.430629 0.840409 0.282037
Si Si4 0.717151 0.829164 0.050233
Si Si5 0.568627 0.667723 0.195584
Si Si6 0.609666 0.171199 0.890514
Si Si7 0.000000 0.670580 0.550719
O O1 0.640250 0.684782 0.500000
O O2 0.644279 0.500000 0.567696
O O3 0.606575 0.759997 0.580054
O O4 0.717900 0.719206 0.565165
O O5 0.500000 0.772842 0.389323
O O6 0.410120 0.788526 0.332029
O O7 0.432130 0.000000 0.388572
O O8 0.500000 0.849717 0.283013
O O9 0.409368 0.727612 0.244131
O O10 0.405568 0.000000 0.270872
O O11 0.669802 0.774819 0.086586
O O12 0.714933 0.000000 0.047076
O O13 0.702283 0.767100 0.000000
O O14 0.500000 0.698452 0.188524
O O15 0.583229 0.500000 0.193358
O O16 0.604995 0.750903 0.157550
O O17 0.557198 0.224142 0.922805
O O18 0.607709 0.000000 0.882928
O O19 0.000000 0.500000 0.547434
O O20 0.000000 0.736979 0.500000
#
# Coordination Sequence:
#
# PCOD8287022 Si02
#       7
#    16  16  16  16  16  16   8
#     4   9  18  32  49  70  97 128 159 189 224 271
#     4   9  18  32  50  74 100 123 149 187 234 276
#     4   8  15  29  48  67  89 118 152 188 227 275
#     4   8  15  29  48  68  90 120 160 201 234 266
#     4  10  19  29  42  64  96 126 152 187 234 284
#     4  10  17  27  46  68  90 119 157 200 239 275
#     4   9  16  24  39  67  93 113 149 199 240 273
#
# _framework density 16.627037999999999
#
# number of rings (size 3 to 8) (size 9 to 14) (size 15 to 20)
#    0.000    3.000    0.769    2.769    0.000    4.000 
#    0.000    3.846    0.000    4.154    0.000    0.000 
#    0.000    0.000    0.000    0.000    0.000    0.000 
#
# Total GULP energy -644593.182762 kJ/mol
# GULP energy per Si atom -12396.022745 kJ/mol
# Density = 1.658919 g / cm^3
# Si number density = 16.627038 Si / 1000 Ang^3
#
#
#
# Elastic Constant Matrix: (Units=GPa)
#
#
# Indices 1 2 3 4 5 6 
#
# 1 92.1308 33.7729 62.7723 0.0000 0.0000 0.0000
# 2 33.7729 47.2161 42.6210 0.0000 0.0000 0.0000
# 3 62.7723 42.6210 107.3964 0.0000 0.0000 0.0000
# 4 0.0000 0.0000 0.0000 23.0952 0.0000 0.0000
# 5 0.0000 0.0000 0.0000 0.0000 18.2846 0.0000
# 6 0.0000 0.0000 0.0000 0.0000 0.0000 14.8631
#
#
#
# Elastic Compliance Matrix: (Units=1/GPa)
#
#
# Indices 1 2 3 4 5 6 
#
# 1 0.018922 -0.005533 -0.008864 0.000000 0.000000 0.000000
# 2 -0.005533 0.034620 -0.010505 0.000000 0.000000 0.000000
# 3 -0.008864 -0.010505 0.018661 0.000000 0.000000 0.000000
# 4 0.000000 0.000000 0.000000 0.043299 0.000000 0.000000
# 5 0.000000 0.000000 0.000000 0.000000 0.054691 0.000000
# 6 0.000000 0.000000 0.000000 0.000000 0.000000 0.067281
#
#
# Mechanical properties :
#
#
# Convention : Reuss Voigt Hill
#
# Bulk Modulus (GPa) = 44.64566 58.34175 51.49370
# Shear Modulus (GPa) = 16.96394 18.42036 17.69215
#
# Velocity S-wave (km/s) = 3.19762 3.33206 3.26553
# Velocity P-wave (km/s) = 6.36730 7.06881 6.72721
#
# Compressibility (1/GPa) = 0.02239859
#
# Stress axis : x y z
#
# Youngs Moduli (GPa) = 52.84956 28.88537 53.58805
#
# Poissons Ratio (x) = 0.15983 0.47498
# Poissons Ratio (y) = 0.29244 0.56293
# Poissons Ratio (z) = 0.46844 0.30344
#
# Static dielectric constant tensor:
#      x y z
#    x 3.036500 0.000000 0.000000 
#    y 0.000000 2.859440 0.000000 
#    z 0.000000 0.000000 3.325830 
# 
# 
# High freq. dielectric constant tensor:
#      x y z
#    x 1.614940 0.000000 0.000000 
#    y 0.000000 1.614230 0.000000 
#    z 0.000000 0.000000 1.648480 
# 
# From -- ./inp_files/13603.got.cif
#   From: 2010.06.25/outbox.cif.g09.slc.cpg/sg71_7_cif.got.tgz:13603.got - 2010.06.28 04:59:45.
