data_PCOD8287019
_publ_section_title
;
Structure prediction by ZEFSAII (Michael W. Deem and Ramdas Pophale) SiO2 
 PCOD8287019
Probable space group: I M M M
;
_chemical_formula_sum "Si O2"
_cell_formula_units_Z 120
_cell_length_a 20.785212
_cell_length_b 14.115647
_cell_length_c 26.156424
_cell_angle_alpha 90.000000
_cell_angle_beta 90.000000
_cell_angle_gamma 90.000000
_cell_volume 7674.208889
_symmetry_space_group_name_H-M "I M M M"
_symmetry_group_IT_number 71
_symmetry_cell_setting 'orthorhombic'
loop_
_space_group_symop_operation_xyz
x,y,z
-x,-y,z
x,-y,-z
-x,y,-z
-x,-y,-z
x,y,-z
-x,y,z
x,-y,z
1/2+x,1/2+y,1/2+z
1/2-x,1/2-y,1/2+z
1/2+x,1/2-y,1/2-z
1/2-x,1/2+y,1/2-z
1/2-x,1/2-y,1/2-z
1/2+x,1/2+y,1/2-z
1/2-x,1/2+y,1/2+z
1/2+x,1/2-y,1/2+z
loop_
_atom_site_type_symbol
_atom_site_label
_atom_site_fract_x
_atom_site_fract_y
_atom_site_fract_z
Si Si1 0.751068 0.704949 0.853442
Si Si2 0.299141 0.606461 0.323061
Si Si3 0.076041 0.604771 0.500000
Si Si4 0.880603 0.748353 0.306613
Si Si5 0.928956 0.893255 0.770551
Si Si6 0.307272 0.108197 0.260111
Si Si7 0.926304 0.251834 0.584963
Si Si8 0.316688 0.609962 0.059077
O O1 0.773331 0.814426 0.862743
O O2 0.683874 0.699255 0.823998
O O3 0.802129 0.652376 0.816850
O O4 0.742486 0.654135 0.908128
O O5 0.288548 0.500000 0.345165
O O6 0.374263 0.627339 0.312723
O O7 0.260398 0.619562 0.269883
O O8 0.107821 0.500000 0.500000
O O9 0.098858 0.661451 0.550217
O O10 0.000000 0.594384 0.500000
O O11 0.924428 0.823422 0.277241
O O12 0.864651 0.659186 0.270538
O O13 0.919285 0.713774 0.356567
O O14 0.000000 0.880898 0.795553
O O15 0.919716 0.000000 0.749696
O O16 0.327738 0.000000 0.265849
O O17 0.884170 0.159334 0.572803
O O18 0.000000 0.226206 0.572166
O O19 0.324317 0.500000 0.072910
O O20 0.298922 0.625036 0.000000
#
# Coordination Sequence:
#
# PCOD8287019 Si02
#       8
#    16  16   8  16  16  16  16  16
#     4  10  17  30  48  65  89 124 157 191 236 283
#     4   9  16  28  45  67  92 116 152 190 224 273
#     4   9  18  34  51  61  75 113 168 212 242 275
#     4  10  18  29  42  66  93 119 154 197 237 273
#     4  10  18  27  42  65  95 127 151 177 221 277
#     4  10  17  27  45  66  87 118 157 195 233 282
#     4  10  20  33  49  66  90 125 165 205 242 283
#     4  10  21  34  49  70  96 122 155 204 248 282
#
# _framework density 15.636791000000001
#
# number of rings (size 3 to 8) (size 9 to 14) (size 15 to 20)
#    0.000    2.200    3.333    1.600    0.000    2.933 
#    0.000    2.667    0.000    1.200    0.000    0.000 
#    0.000    0.533    0.000    4.800    0.000    0.000 
#
# Total GULP energy -743809.430785 kJ/mol
# GULP energy per Si atom -12396.823846 kJ/mol
# Density = 1.560120 g / cm^3
# Si number density = 15.636791 Si / 1000 Ang^3
#
#
#
# Elastic Constant Matrix: (Units=GPa)
#
#
# Indices 1 2 3 4 5 6 
#
# 1 58.0257 41.6053 28.3177 0.0000 0.0000 0.0000
# 2 41.6053 125.0937 57.5517 0.0000 0.0000 0.0000
# 3 28.3177 57.5517 82.1712 0.0000 0.0000 0.0000
# 4 0.0000 0.0000 0.0000 22.5466 0.0000 0.0000
# 5 0.0000 0.0000 0.0000 0.0000 17.8364 0.0000
# 6 0.0000 0.0000 0.0000 0.0000 0.0000 20.2618
#
#
#
# Elastic Compliance Matrix: (Units=1/GPa)
#
#
# Indices 1 2 3 4 5 6 
#
# 1 0.023432 -0.006017 -0.003861 0.000000 0.000000 0.000000
# 2 -0.006017 0.013340 -0.007269 0.000000 0.000000 0.000000
# 3 -0.003861 -0.007269 0.018592 0.000000 0.000000 0.000000
# 4 0.000000 0.000000 0.000000 0.044353 0.000000 0.000000
# 5 0.000000 0.000000 0.000000 0.000000 0.056065 0.000000
# 6 0.000000 0.000000 0.000000 0.000000 0.000000 0.049354
#
#
# Mechanical properties :
#
#
# Convention : Reuss Voigt Hill
#
# Bulk Modulus (GPa) = 47.46336 57.80443 52.63389
# Shear Modulus (GPa) = 20.28787 21.31670 20.80228
#
# Velocity S-wave (km/s) = 3.60591 3.69621 3.65134
# Velocity P-wave (km/s) = 6.91060 7.43392 7.17703
#
# Compressibility (1/GPa) = 0.02106888
#
# Stress axis : x y z
#
# Youngs Moduli (GPa) = 42.67612 74.96445 53.78779
#
# Poissons Ratio (x) = 0.45107 0.20767
# Poissons Ratio (y) = 0.25679 0.39100
# Poissons Ratio (z) = 0.16477 0.54494
#
# Static dielectric constant tensor:
#      x y z
#    x 2.852010 0.000000 0.000000 
#    y 0.000000 3.178930 0.000000 
#    z 0.000000 0.000000 2.887690 
# 
# 
# High freq. dielectric constant tensor:
#      x y z
#    x 1.573190 0.000000 0.000000 
#    y 0.000000 1.611710 0.000000 
#    z 0.000000 0.000000 1.569790 
# 
# From -- ./inp_files/61419.got.cif
#   From: 2010.06.25/outbox.cif.g09.slc.cpg/sg71_31_cif.got.tgz:61419.got - 2010.06.28 04:59:45.
