data_PCOD8287439
_publ_section_title
;
Structure prediction by ZEFSAII (Michael W. Deem and Ramdas Pophale) SiO2 
 PCOD8287439
Probable space group: I M M M
;
_chemical_formula_sum "Si O2"
_cell_formula_units_Z 112
_cell_length_a 9.544643
_cell_length_b 28.765764
_cell_length_c 25.578409
_cell_angle_alpha 90.000000
_cell_angle_beta 90.000000
_cell_angle_gamma 90.000000
_cell_volume 7022.781067
_symmetry_space_group_name_H-M "I M M M"
_symmetry_group_IT_number 71
_symmetry_cell_setting 'orthorhombic'
loop_
_space_group_symop_operation_xyz
x,y,z
-x,-y,z
x,-y,-z
-x,y,-z
-x,-y,-z
x,y,-z
-x,y,z
x,-y,z
1/2+x,1/2+y,1/2+z
1/2-x,1/2-y,1/2+z
1/2+x,1/2-y,1/2-z
1/2-x,1/2+y,1/2-z
1/2-x,1/2-y,1/2-z
1/2+x,1/2+y,1/2-z
1/2-x,1/2+y,1/2+z
1/2+x,1/2-y,1/2+z
loop_
_atom_site_type_symbol
_atom_site_label
_atom_site_fract_x
_atom_site_fract_y
_atom_site_fract_z
Si Si1 0.666698 0.052217 0.942349
Si Si2 0.162198 0.292732 0.309852
Si Si3 0.661264 0.794611 0.688466
Si Si4 0.833162 0.447606 0.246359
Si Si5 0.837856 0.053108 0.439272
Si Si6 0.333196 0.891415 0.845223
Si Si7 0.165134 0.606339 0.855589
O O1 0.500000 0.053089 0.940706
O O2 0.728444 0.087005 0.898772
O O3 0.719061 0.000000 0.930102
O O4 0.719068 0.067813 0.000000
O O5 0.247748 0.248787 0.331306
O O6 0.192546 0.304178 0.249307
O O7 0.212713 0.337705 0.342274
O O8 0.000000 0.281720 0.319141
O O9 0.500000 0.781651 0.680116
O O10 0.702239 0.839813 0.654944
O O11 0.775392 0.500000 0.248048
O O12 0.771671 0.420072 0.296154
O O13 0.779892 0.423531 0.193451
O O14 0.000000 0.446566 0.247847
O O15 0.809226 0.062958 0.500000
O O16 0.744113 0.089109 0.407040
O O17 0.000000 0.061579 0.425749
O O18 0.796002 0.000000 0.425575
O O19 0.500000 0.894963 0.843552
O O20 0.000000 0.599606 0.863946
#
# Coordination Sequence:
#
# PCOD8287439 Si02
#       7
#    16  16  16  16  16  16  16
#     4   8  13  20  31  51  81 116 149 176 207 253
#     4   9  16  27  43  62  85 115 153 186 216 265
#     4   9  17  29  43  62  90 116 143 185 229 266
#     4   9  15  22  35  58  86 112 137 171 221 272
#     4   9  19  35  51  67  91 123 154 182 216 264
#     4   9  14  22  36  55  82 115 146 179 217 258
#     4  10  18  29  46  69  92 114 146 190 230 267
#
# _framework density 15.948097000000001
#
# number of rings (size 3 to 8) (size 9 to 14) (size 15 to 20)
#    0.000    3.000    1.429    1.714    0.000    3.429 
#    0.000    0.714    0.000    0.857    0.000    2.000 
#    0.000    1.714    0.000    1.571    0.000    2.429 
#
# Total GULP energy -694213.674071 kJ/mol
# GULP energy per Si atom -12396.672751 kJ/mol
# Density = 1.591180 g / cm^3
# Si number density = 15.948097 Si / 1000 Ang^3
#
#
#
# Elastic Constant Matrix: (Units=GPa)
#
#
# Indices 1 2 3 4 5 6 
#
# 1 33.5549 46.0756 32.7488 0.0000 0.0000 0.0000
# 2 46.0756 147.0197 74.9652 0.0000 0.0000 0.0000
# 3 32.7488 74.9652 101.2438 0.0000 0.0000 0.0000
# 4 0.0000 0.0000 0.0000 25.6453 0.0000 0.0000
# 5 0.0000 0.0000 0.0000 0.0000 14.4321 0.0000
# 6 0.0000 0.0000 0.0000 0.0000 0.0000 22.4687
#
#
#
# Elastic Compliance Matrix: (Units=1/GPa)
#
#
# Indices 1 2 3 4 5 6 
#
# 1 0.056320 -0.013433 -0.008271 0.000000 0.000000 0.000000
# 2 -0.013433 0.014131 -0.006118 0.000000 0.000000 0.000000
# 3 -0.008271 -0.006118 0.017083 0.000000 0.000000 0.000000
# 4 0.000000 0.000000 0.000000 0.038993 0.000000 0.000000
# 5 0.000000 0.000000 0.000000 0.000000 0.069290 0.000000
# 6 0.000000 0.000000 0.000000 0.000000 0.000000 0.044506
#
#
# Mechanical properties :
#
#
# Convention : Reuss Voigt Hill
#
# Bulk Modulus (GPa) = 31.35872 65.48864 48.42368
# Shear Modulus (GPa) = 16.30795 21.04447 18.67621
#
# Velocity S-wave (km/s) = 3.20122 3.63652 3.42579
# Velocity P-wave (km/s) = 5.77663 7.66714 6.78802
#
# Compressibility (1/GPa) = 0.03188905
#
# Stress axis : x y z
#
# Youngs Moduli (GPa) = 17.75574 70.76401 58.53815
#
# Poissons Ratio (x) = 0.95058 0.48417
# Poissons Ratio (y) = 0.23851 0.35816
# Poissons Ratio (z) = 0.14686 0.43296
#
# Static dielectric constant tensor:
#      x y z
#    x 2.588060 0.000000 0.000000 
#    y 0.000000 3.149880 0.000000 
#    z 0.000000 0.000000 3.052690 
# 
# 
# High freq. dielectric constant tensor:
#      x y z
#    x 1.564200 0.000000 0.000000 
#    y 0.000000 1.618300 0.000000 
#    z 0.000000 0.000000 1.601170 
# 
# From -- ./inp_files/59144.got.cif
#   From: 2010.06.25/outbox.cif.g09.slc.cpg/sg71_30_cif.got.tgz:59144.got - 2010.06.28 04:59:45.
