data_PCOD8287958
_publ_section_title
;
Structure prediction by ZEFSAII (Michael W. Deem and Ramdas Pophale) SiO2 
 PCOD8287958
Probable space group: I M M M
;
_chemical_formula_sum "Si O2"
_cell_formula_units_Z 96
_cell_length_a 28.802608
_cell_length_b 19.801337
_cell_length_c 9.156387
_cell_angle_alpha 90.000000
_cell_angle_beta 90.000000
_cell_angle_gamma 90.000000
_cell_volume 5222.163548
_symmetry_space_group_name_H-M "I M M M"
_symmetry_group_IT_number 71
_symmetry_cell_setting 'orthorhombic'
loop_
_space_group_symop_operation_xyz
x,y,z
-x,-y,z
x,-y,-z
-x,y,-z
-x,-y,-z
x,y,-z
-x,y,z
x,-y,z
1/2+x,1/2+y,1/2+z
1/2-x,1/2-y,1/2+z
1/2+x,1/2-y,1/2-z
1/2-x,1/2+y,1/2-z
1/2-x,1/2-y,1/2-z
1/2+x,1/2+y,1/2-z
1/2-x,1/2+y,1/2+z
1/2+x,1/2-y,1/2+z
loop_
_atom_site_type_symbol
_atom_site_label
_atom_site_fract_x
_atom_site_fract_y
_atom_site_fract_z
Si Si1 0.051685 0.927501 0.326966
Si Si2 0.595881 0.291640 0.824994
Si Si3 0.053954 0.663965 0.828266
Si Si4 0.723822 0.849144 0.159968
Si Si5 0.698057 0.696507 0.840162
Si Si6 0.869457 0.579240 0.670837
O O1 0.049908 0.922434 0.500000
O O2 0.079571 0.864184 0.266023
O O3 0.000000 0.923517 0.262767
O O4 0.074127 0.000000 0.280441
O O5 0.565312 0.234717 0.748274
O O6 0.648449 0.289231 0.765891
O O7 0.592260 0.281420 0.000000
O O8 0.086045 0.605463 0.759568
O O9 0.000000 0.645868 0.799074
O O10 0.064208 0.669153 0.000000
O O11 0.721600 0.768914 0.145477
O O12 0.769933 0.859266 0.257848
O O13 0.677292 0.882844 0.227758
O O14 0.731801 0.881727 0.000000
O O15 0.689929 0.664630 0.000000
O O16 0.877099 0.595948 0.500000
O O17 0.863790 0.500000 0.699570
#
# Coordination Sequence:
#
# PCOD8287958 Si02
#       6
#    16  16  16  16  16  16
#     4   8  14  25  44  72 102 132 168 210 257 304
#     4  10  18  32  54  79 106 139 180 224 263 309
#     4  11  24  38  53  78 111 142 177 225 278 330
#     4   9  17  32  51  75 103 131 166 208 254 306
#     4   9  17  29  49  77 105 131 166 210 254 302
#     4  10  21  39  61  81 104 139 184 229 271 321
#
# _framework density 18.383184
#
# number of rings (size 3 to 8) (size 9 to 14) (size 15 to 20)
#    0.000    2.500    1.667    1.500    0.000    4.000 
#    0.000    2.500    0.000    1.500    0.000    2.333 
#    0.000    0.000    0.000    0.000    0.000    0.000 
#
# Total GULP energy -594756.033797 kJ/mol
# GULP energy per Si atom -12390.750704 kJ/mol
# Density = 1.834134 g / cm^3
# Si number density = 18.383184 Si / 1000 Ang^3
#
#
#
# Elastic Constant Matrix: (Units=GPa)
#
#
# Indices 1 2 3 4 5 6 
#
# 1 99.8626 32.5517 46.8433 0.0000 0.0000 0.0000
# 2 32.5517 86.4582 31.1867 0.0000 0.0000 0.0000
# 3 46.8433 31.1867 62.2403 0.0000 0.0000 0.0000
# 4 0.0000 0.0000 0.0000 14.8976 0.0000 0.0000
# 5 0.0000 0.0000 0.0000 0.0000 28.7609 0.0000
# 6 0.0000 0.0000 0.0000 0.0000 0.0000 19.9890
#
#
#
# Elastic Compliance Matrix: (Units=1/GPa)
#
#
# Indices 1 2 3 4 5 6 
#
# 1 0.015762 -0.002021 -0.010850 0.000000 0.000000 0.000000
# 2 -0.002021 0.014377 -0.005683 0.000000 0.000000 0.000000
# 3 -0.010850 -0.005683 0.027081 0.000000 0.000000 0.000000
# 4 0.000000 0.000000 0.000000 0.067125 0.000000 0.000000
# 5 0.000000 0.000000 0.000000 0.000000 0.034769 0.000000
# 6 0.000000 0.000000 0.000000 0.000000 0.000000 0.050028
#
#
# Mechanical properties :
#
#
# Convention : Reuss Voigt Hill
#
# Bulk Modulus (GPa) = 49.72287 52.19161 50.95724
# Shear Modulus (GPa) = 19.76645 21.92812 20.84729
#
# Velocity S-wave (km/s) = 3.28265 3.45749 3.37121
# Velocity P-wave (km/s) = 6.44007 6.66270 6.55233
#
# Compressibility (1/GPa) = 0.02011147
#
# Stress axis : x y z
#
# Youngs Moduli (GPa) = 63.44347 69.55537 36.92674
#
# Poissons Ratio (x) = 0.14054 0.40067
# Poissons Ratio (y) = 0.12819 0.20986
# Poissons Ratio (z) = 0.68839 0.39530
#
# Static dielectric constant tensor:
#      x y z
#    x 3.504320 0.000000 0.000000 
#    y 0.000000 3.376320 0.000000 
#    z 0.000000 0.000000 3.381680 
# 
# 
# High freq. dielectric constant tensor:
#      x y z
#    x 1.717880 0.000000 0.000000 
#    y 0.000000 1.700050 0.000000 
#    z 0.000000 0.000000 1.684730 
# 
# From -- ./inp_files/10811.got.cif
#   From: 2010.06.25/outbox.cif.g09.slc.cpg/sg71_6_cif.got.tgz:10811.got - 2010.06.28 04:59:45.
