data_PCOD8287499
_publ_section_title
;
Structure prediction by ZEFSAII (Michael W. Deem and Ramdas Pophale) SiO2 
 PCOD8287499
Probable space group: I M M M
;
_chemical_formula_sum "Si O2"
_cell_formula_units_Z 120
_cell_length_a 23.884866
_cell_length_b 22.098066
_cell_length_c 13.820828
_cell_angle_alpha 90.000000
_cell_angle_beta 90.000000
_cell_angle_gamma 90.000000
_cell_volume 7294.762178
_symmetry_space_group_name_H-M "I M M M"
_symmetry_group_IT_number 71
_symmetry_cell_setting 'orthorhombic'
loop_
_space_group_symop_operation_xyz
x,y,z
-x,-y,z
x,-y,-z
-x,y,-z
-x,-y,-z
x,y,-z
-x,y,z
x,-y,z
1/2+x,1/2+y,1/2+z
1/2-x,1/2-y,1/2+z
1/2+x,1/2-y,1/2-z
1/2-x,1/2+y,1/2-z
1/2-x,1/2-y,1/2-z
1/2+x,1/2+y,1/2-z
1/2-x,1/2+y,1/2+z
1/2+x,1/2-y,1/2+z
loop_
_atom_site_type_symbol
_atom_site_label
_atom_site_fract_x
_atom_site_fract_y
_atom_site_fract_z
Si Si1 0.500000 0.428245 0.112466
Si Si2 0.748142 0.930063 0.795285
Si Si3 0.243890 0.246856 0.863003
Si Si4 0.437495 0.773452 0.888465
Si Si5 0.157400 0.850968 0.891052
Si Si6 0.595620 0.349703 0.800594
Si Si7 0.785851 0.873679 0.606198
Si Si8 0.664766 0.849303 0.893493
O O1 0.500000 0.500000 0.122145
O O2 0.444723 0.403635 0.165504
O O3 0.500000 0.407821 0.000000
O O4 0.795517 0.899598 0.861401
O O5 0.760009 0.921408 0.681370
O O6 0.688550 0.899555 0.820295
O O7 0.745760 0.000000 0.820883
O O8 0.250000 0.250000 0.750000
O O9 0.184665 0.216117 0.889571
O O10 0.246441 0.314639 0.903707
O O11 0.294259 0.207771 0.905704
O O12 0.500000 0.799639 0.877227
O O13 0.432824 0.714136 0.822649
O O14 0.394659 0.825286 0.852868
O O15 0.424548 0.755918 0.000000
O O16 0.106144 0.854925 0.815191
O O17 0.135866 0.865188 0.000000
O O18 0.653473 0.353138 0.858062
O O19 0.789871 0.904267 0.500000
O O20 0.657110 0.878521 0.000000
#
# Coordination Sequence:
#
# PCOD8287499 Si02
#       8
#     8  16  16  16  16  16  16  16
#     4  11  24  40  55  73  99 133 173 213 255 300
#     4  10  21  34  48  69  99 135 172 200 233 292
#     4  11  15  29  48  76 105 131 159 197 248 301
#     4  10  18  29  50  77 103 125 156 201 253 303
#     4  10  21  34  51  74 103 134 168 206 249 296
#     4  11  20  33  52  74 100 131 167 206 252 295
#     4  11  20  30  50  75 105 134 159 200 251 299
#     4  10  18  29  48  72  98 127 161 199 242 292
#
# _framework density 16.45016
#
# number of rings (size 3 to 8) (size 9 to 14) (size 15 to 20)
#    0.000    1.533    6.000    3.600    0.000    3.467 
#    0.000    0.333    0.000    0.800    0.000    1.867 
#    0.000    0.000    0.000    1.200    0.000    0.000 
#
# Total GULP energy -743893.093463 kJ/mol
# GULP energy per Si atom -12398.218224 kJ/mol
# Density = 1.641272 g / cm^3
# Si number density = 16.450160 Si / 1000 Ang^3
#
#
#
# Elastic Constant Matrix: (Units=GPa)
#
#
# Indices 1 2 3 4 5 6 
#
# 1 77.8374 29.7394 32.8078 0.0000 0.0000 0.0000
# 2 29.7394 69.1826 20.7384 0.0000 0.0000 0.0000
# 3 32.8078 20.7384 131.0063 0.0000 0.0000 0.0000
# 4 0.0000 0.0000 0.0000 12.6252 0.0000 0.0000
# 5 0.0000 0.0000 0.0000 0.0000 15.9192 0.0000
# 6 0.0000 0.0000 0.0000 0.0000 0.0000 16.2431
#
#
#
# Elastic Compliance Matrix: (Units=1/GPa)
#
#
# Indices 1 2 3 4 5 6 
#
# 1 0.016535 -0.006159 -0.003166 0.000000 0.000000 0.000000
# 2 -0.006159 0.017469 -0.001223 0.000000 0.000000 0.000000
# 3 -0.003166 -0.001223 0.008620 0.000000 0.000000 0.000000
# 4 0.000000 0.000000 0.000000 0.079206 0.000000 0.000000
# 5 0.000000 0.000000 0.000000 0.000000 0.062817 0.000000
# 6 0.000000 0.000000 0.000000 0.000000 0.000000 0.061565
#
#
# Mechanical properties :
#
#
# Convention : Reuss Voigt Hill
#
# Bulk Modulus (GPa) = 46.45152 49.39973 47.92562
# Shear Modulus (GPa) = 18.21611 21.94022 20.07817
#
# Velocity S-wave (km/s) = 3.33130 3.65600 3.49742
# Velocity P-wave (km/s) = 6.56474 6.92220 6.74584
#
# Compressibility (1/GPa) = 0.02152782
#
# Stress axis : x y z
#
# Youngs Moduli (GPa) = 60.47858 57.24567 116.01421
#
# Poissons Ratio (x) = 0.35256 0.36728
# Poissons Ratio (y) = 0.37247 0.14188
# Poissons Ratio (z) = 0.19147 0.07001
#
# Static dielectric constant tensor:
#      x y z
#    x 3.143190 0.000000 0.000000 
#    y 0.000000 3.174920 0.000000 
#    z 0.000000 0.000000 3.255350 
# 
# 
# High freq. dielectric constant tensor:
#      x y z
#    x 1.610770 0.000000 0.000000 
#    y 0.000000 1.610120 0.000000 
#    z 0.000000 0.000000 1.638760 
# 
# From -- ./inp_files/38531.got.cif
#   From: 2010.06.25/outbox.cif.g09.slc.cpg/sg71_20_cif.got.tgz:38531.got - 2010.06.28 04:59:45.
