data_PCOD8287652
_publ_section_title
;
Structure prediction by ZEFSAII (Michael W. Deem and Ramdas Pophale) SiO2 
 PCOD8287652
Probable space group: I M M M
;
_chemical_formula_sum "Si O2"
_cell_formula_units_Z 88
_cell_length_a 8.988164
_cell_length_b 17.828381
_cell_length_c 29.023582
_cell_angle_alpha 90.000000
_cell_angle_beta 90.000000
_cell_angle_gamma 90.000000
_cell_volume 4650.866840
_symmetry_space_group_name_H-M "I M M M"
_symmetry_group_IT_number 71
_symmetry_cell_setting 'orthorhombic'
loop_
_space_group_symop_operation_xyz
x,y,z
-x,-y,z
x,-y,-z
-x,y,-z
-x,-y,-z
x,y,-z
-x,y,z
x,-y,z
1/2+x,1/2+y,1/2+z
1/2-x,1/2-y,1/2+z
1/2+x,1/2-y,1/2-z
1/2-x,1/2+y,1/2-z
1/2-x,1/2-y,1/2-z
1/2+x,1/2+y,1/2-z
1/2-x,1/2+y,1/2+z
1/2+x,1/2-y,1/2+z
loop_
_atom_site_type_symbol
_atom_site_label
_atom_site_fract_x
_atom_site_fract_y
_atom_site_fract_z
Si Si1 0.823113 0.643487 0.392666
Si Si2 0.825489 0.085653 0.379993
Si Si3 0.675445 0.586901 0.303996
Si Si4 0.167331 0.589062 0.211742
Si Si5 0.323886 0.712392 0.051506
Si Si6 0.823433 0.500000 0.551227
O O1 0.746750 0.639017 0.343017
O O2 0.765380 0.717630 0.418640
O O3 0.766365 0.573394 0.422587
O O4 0.000000 0.643042 0.385934
O O5 0.743464 0.118339 0.335009
O O6 0.776166 0.135194 0.423733
O O7 0.000000 0.092578 0.370260
O O8 0.779812 0.000000 0.390840
O O9 0.500000 0.597264 0.303466
O O10 0.720541 0.500000 0.312276
O O11 0.739573 0.617080 0.255654
O O12 0.168226 0.500000 0.210715
O O13 0.000000 0.620807 0.214822
O O14 0.500000 0.718246 0.047700
O O15 0.254566 0.713879 0.000000
O O16 0.755170 0.500000 0.500000
O O17 0.000000 0.500000 0.548599
#
# Coordination Sequence:
#
# PCOD8287652 Si02
#       6
#    16  16  16  16  16   8
#     4  10  18  30  49  73 101 133 173 214 250 291
#     4   9  17  31  52  77 104 133 166 205 253 307
#     4  10  19  31  49  74 105 137 169 206 251 302
#     4   9  17  30  51  77 103 131 167 209 252 299
#     4   9  18  32  51  76 104 133 168 213 257 295
#     4   9  16  26  45  71  95 125 169 215 250 285
#
# _framework density 18.921203999999999
#
# number of rings (size 3 to 8) (size 9 to 14) (size 15 to 20)
#    0.000    2.636    0.909    1.636    0.000    5.455 
#    0.000    3.636    0.000    4.364    0.000    2.545 
#    0.000    0.000    0.000    0.000    0.000    0.000 
#
# Total GULP energy -545592.842972 kJ/mol
# GULP energy per Si atom -12399.837340 kJ/mol
# Density = 1.887814 g / cm^3
# Si number density = 18.921204 Si / 1000 Ang^3
#
#
#
# Elastic Constant Matrix: (Units=GPa)
#
#
# Indices 1 2 3 4 5 6 
#
# 1 55.2234 25.5509 46.8474 0.0000 0.0000 0.0000
# 2 25.5509 98.8460 71.1908 0.0000 0.0000 0.0000
# 3 46.8474 71.1908 174.2978 0.0000 0.0000 0.0000
# 4 0.0000 0.0000 0.0000 29.6962 0.0000 0.0000
# 5 0.0000 0.0000 0.0000 0.0000 25.8369 0.0000
# 6 0.0000 0.0000 0.0000 0.0000 0.0000 11.3163
#
#
#
# Elastic Compliance Matrix: (Units=1/GPa)
#
#
# Indices 1 2 3 4 5 6 
#
# 1 0.023786 -0.002188 -0.005500 0.000000 0.000000 0.000000
# 2 -0.002188 0.014534 -0.005348 0.000000 0.000000 0.000000
# 3 -0.005500 -0.005348 0.009400 0.000000 0.000000 0.000000
# 4 0.000000 0.000000 0.000000 0.033674 0.000000 0.000000
# 5 0.000000 0.000000 0.000000 0.000000 0.038704 0.000000
# 6 0.000000 0.000000 0.000000 0.000000 0.000000 0.088368
#
#
# Mechanical properties :
#
#
# Convention : Reuss Voigt Hill
#
# Bulk Modulus (GPa) = 46.19165 68.39392 57.29279
# Shear Modulus (GPa) = 20.68214 25.68841 23.18527
#
# Velocity S-wave (km/s) = 3.30974 3.68863 3.50431
# Velocity P-wave (km/s) = 6.25072 7.37336 6.83513
#
# Compressibility (1/GPa) = 0.02164893
#
# Stress axis : x y z
#
# Youngs Moduli (GPa) = 42.04176 68.80284 106.38261
#
# Poissons Ratio (x) = 0.15051 0.58507
# Poissons Ratio (y) = 0.09197 0.56898
# Poissons Ratio (z) = 0.23121 0.36799
#
# Static dielectric constant tensor:
#      x y z
#    x 3.169600 0.000000 0.000000 
#    y 0.000000 3.331910 0.000000 
#    z 0.000000 0.000000 3.697240 
# 
# 
# High freq. dielectric constant tensor:
#      x y z
#    x 1.701760 0.000000 0.000000 
#    y 0.000000 1.713900 0.000000 
#    z 0.000000 0.000000 1.749280 
# 
# From -- ./inp_files/42431.got.cif
#   From: 2010.06.25/outbox.cif.g09.slc.cpg/sg71_22_cif.got.tgz:42431.got - 2010.06.28 04:59:45.
