data_PCOD8287710
_publ_section_title
;
Structure prediction by ZEFSAII (Michael W. Deem and Ramdas Pophale) SiO2 
 PCOD8287710
Probable space group: I M M M
;
_chemical_formula_sum "Si O2"
_cell_formula_units_Z 80
_cell_length_a 18.747041
_cell_length_b 10.610901
_cell_length_c 22.431604
_cell_angle_alpha 90.000000
_cell_angle_beta 90.000000
_cell_angle_gamma 90.000000
_cell_volume 4462.161875
_symmetry_space_group_name_H-M "I M M M"
_symmetry_group_IT_number 71
_symmetry_cell_setting 'orthorhombic'
loop_
_space_group_symop_operation_xyz
x,y,z
-x,-y,z
x,-y,-z
-x,y,-z
-x,-y,-z
x,y,-z
-x,y,z
x,-y,z
1/2+x,1/2+y,1/2+z
1/2-x,1/2-y,1/2+z
1/2+x,1/2-y,1/2-z
1/2-x,1/2+y,1/2-z
1/2-x,1/2-y,1/2-z
1/2+x,1/2+y,1/2-z
1/2-x,1/2+y,1/2+z
1/2+x,1/2-y,1/2+z
loop_
_atom_site_type_symbol
_atom_site_label
_atom_site_fract_x
_atom_site_fract_y
_atom_site_fract_z
Si Si1 0.811754 0.144739 0.401543
Si Si2 0.689773 0.352387 0.235855
Si Si3 0.579018 0.648745 0.000000
Si Si4 0.077995 0.143170 0.169049
Si Si5 0.161563 0.744604 0.069207
Si Si6 0.579520 0.000000 0.429293
O O1 0.832774 0.158830 0.332879
O O2 0.878466 0.191914 0.440843
O O3 0.745329 0.233424 0.418276
O O4 0.792039 0.000000 0.417914
O O5 0.711658 0.500000 0.250045
O O6 0.750000 0.250000 0.250000
O O7 0.622960 0.304570 0.275008
O O8 0.570635 0.500000 0.000000
O O9 0.500000 0.711015 0.000000
O O10 0.124923 0.147622 0.108489
O O11 0.000000 0.211330 0.163434
O O12 0.062501 0.000000 0.182784
O O13 0.122496 0.619992 0.093604
O O14 0.146977 0.772756 0.000000
O O15 0.500000 0.000000 0.402323
O O16 0.576900 0.000000 0.500000
#
# Coordination Sequence:
#
# PCOD8287710 Si02
#       6
#    16  16   8  16  16   8
#     4  10  18  30  51  77 105 136 171 215 265 314
#     4  10  20  35  56  79 105 140 182 222 264 315
#     4   9  18  30  48  78 111 136 165 213 271 324
#     4  10  22  38  53  73 105 141 177 219 264 310
#     4  11  19  30  51  74 103 138 175 212 258 313
#     4   9  18  28  42  70 102 134 168 209 257 310
#
# _framework density 17.928529000000001
#
# number of rings (size 3 to 8) (size 9 to 14) (size 15 to 20)
#    0.000    2.000    4.000    0.600    0.000    2.400 
#    0.000    5.000    0.000    0.000    0.000    0.000 
#    0.000    4.000    0.000    0.000    0.000    0.000 
#
# Total GULP energy -495755.398517 kJ/mol
# GULP energy per Si atom -12393.884963 kJ/mol
# Density = 1.788772 g / cm^3
# Si number density = 17.928529 Si / 1000 Ang^3
#
#
#
# Elastic Constant Matrix: (Units=GPa)
#
#
# Indices 1 2 3 4 5 6 
#
# 1 166.1637 26.8912 67.6049 0.0000 0.0000 0.0000
# 2 26.8912 32.6713 18.9549 0.0000 0.0000 0.0000
# 3 67.6049 18.9549 134.8860 0.0000 0.0000 0.0000
# 4 0.0000 0.0000 0.0000 22.1538 0.0000 0.0000
# 5 0.0000 0.0000 0.0000 0.0000 29.3851 0.0000
# 6 0.0000 0.0000 0.0000 0.0000 0.0000 19.2375
#
#
#
# Elastic Compliance Matrix: (Units=1/GPa)
#
#
# Indices 1 2 3 4 5 6 
#
# 1 0.008183 -0.004743 -0.003435 0.000000 0.000000 0.000000
# 2 -0.004743 0.036073 -0.002692 0.000000 0.000000 0.000000
# 3 -0.003435 -0.002692 0.009514 0.000000 0.000000 0.000000
# 4 0.000000 0.000000 0.000000 0.045139 0.000000 0.000000
# 5 0.000000 0.000000 0.000000 0.000000 0.034031 0.000000
# 6 0.000000 0.000000 0.000000 0.000000 0.000000 0.051982
#
#
# Mechanical properties :
#
#
# Convention : Reuss Voigt Hill
#
# Bulk Modulus (GPa) = 31.22018 62.29145 46.75581
# Shear Modulus (GPa) = 23.00562 28.83995 25.92278
#
# Velocity S-wave (km/s) = 3.58604 4.01510 3.80662
# Velocity P-wave (km/s) = 5.88199 7.50429 6.74211
#
# Compressibility (1/GPa) = 0.03203057
#
# Stress axis : x y z
#
# Youngs Moduli (GPa) = 122.20110 27.72129 105.11253
#
# Poissons Ratio (x) = 0.13147 0.36106
# Poissons Ratio (y) = 0.57955 0.28299
# Poissons Ratio (z) = 0.41976 0.07463
#
# Static dielectric constant tensor:
#      x y z
#    x 3.992150 0.000000 0.000000 
#    y 0.000000 3.086320 0.000000 
#    z 0.000000 0.000000 3.357280 
# 
# 
# High freq. dielectric constant tensor:
#      x y z
#    x 1.700230 0.000000 0.000000 
#    y 0.000000 1.653610 0.000000 
#    z 0.000000 0.000000 1.698330 
# 
# From -- ./inp_files/25574.got.cif
#   From: 2010.06.25/outbox.cif.g09.slc.cpg/sg71_13_cif.got.tgz:25574.got - 2010.06.28 04:59:45.
