data_PCOD8287082
_publ_section_title
;
Structure prediction by ZEFSAII (Michael W. Deem and Ramdas Pophale) SiO2 
 PCOD8287082
Probable space group: I M M M
;
_chemical_formula_sum "Si O2"
_cell_formula_units_Z 80
_cell_length_a 23.685023
_cell_length_b 26.295807
_cell_length_c 8.707847
_cell_angle_alpha 90.000000
_cell_angle_beta 90.000000
_cell_angle_gamma 90.000000
_cell_volume 5423.393348
_symmetry_space_group_name_H-M "I M M M"
_symmetry_group_IT_number 71
_symmetry_cell_setting 'orthorhombic'
loop_
_space_group_symop_operation_xyz
x,y,z
-x,-y,z
x,-y,-z
-x,y,-z
-x,-y,-z
x,y,-z
-x,y,z
x,-y,z
1/2+x,1/2+y,1/2+z
1/2-x,1/2-y,1/2+z
1/2+x,1/2-y,1/2-z
1/2-x,1/2+y,1/2-z
1/2-x,1/2-y,1/2-z
1/2+x,1/2+y,1/2-z
1/2-x,1/2+y,1/2+z
1/2+x,1/2-y,1/2+z
loop_
_atom_site_type_symbol
_atom_site_label
_atom_site_fract_x
_atom_site_fract_y
_atom_site_fract_z
Si Si1 0.186370 0.649743 0.680224
Si Si2 0.878694 0.255999 0.818336
Si Si3 0.500000 0.898587 0.680092
Si Si4 0.389865 0.942738 0.823019
Si Si5 0.000000 0.285249 0.181497
Si Si6 0.782637 0.798154 0.682057
O O1 0.187416 0.661857 0.500000
O O2 0.146567 0.690490 0.763461
O O3 0.162499 0.593926 0.717826
O O4 0.250329 0.652664 0.748493
O O5 0.944264 0.254405 0.766652
O O6 0.847356 0.207679 0.739248
O O7 0.871219 0.251945 0.000000
O O8 0.500000 0.893395 0.500000
O O9 0.444887 0.929384 0.727150
O O10 0.500000 0.841989 0.754779
O O11 0.370471 0.000000 0.783808
O O12 0.406723 0.936753 0.000000
O O13 0.000000 0.291406 0.000000
O O14 0.780154 0.799426 0.500000
O O15 0.750000 0.750000 0.750000
#
# Coordination Sequence:
#
# PCOD8287082 Si02
#       6
#    16  16   8  16   8  16
#     4  10  18  29  44  60  77 104 138 172 211 250
#     4  10  17  29  44  60  82 107 135 168 205 246
#     4  11  20  32  45  60  80 108 146 183 219 251
#     4  10  21  34  45  59  81 109 143 182 220 254
#     4   9  18  28  42  61  84 110 137 173 210 239
#     4  10  18  28  42  61  81 102 130 167 207 249
#
# _framework density 14.750912
#
# number of rings (size 3 to 8) (size 9 to 14) (size 15 to 20)
#    0.000    2.000    2.000    6.000    0.000    2.400 
#    0.000    2.000    0.000    0.000    0.000    0.000 
#    0.000    0.000    0.000    0.900    0.000   20.600 
#
# Total GULP energy -495820.613659 kJ/mol
# GULP energy per Si atom -12395.515341 kJ/mol
# Density = 1.471734 g / cm^3
# Si number density = 14.750912 Si / 1000 Ang^3
#
#
#
# Elastic Constant Matrix: (Units=GPa)
#
#
# Indices 1 2 3 4 5 6 
#
# 1 117.8762 60.9463 36.7560 0.0000 0.0000 0.0000
# 2 60.9463 67.2016 29.5882 0.0000 0.0000 0.0000
# 3 36.7560 29.5882 72.9536 0.0000 0.0000 0.0000
# 4 0.0000 0.0000 0.0000 15.4486 0.0000 0.0000
# 5 0.0000 0.0000 0.0000 0.0000 19.8595 0.0000
# 6 0.0000 0.0000 0.0000 0.0000 0.0000 12.2204
#
#
#
# Elastic Compliance Matrix: (Units=1/GPa)
#
#
# Indices 1 2 3 4 5 6 
#
# 1 0.016404 -0.013681 -0.002716 0.000000 0.000000 0.000000
# 2 -0.013681 0.029526 -0.005082 0.000000 0.000000 0.000000
# 3 -0.002716 -0.005082 0.017137 0.000000 0.000000 0.000000
# 4 0.000000 0.000000 0.000000 0.064731 0.000000 0.000000
# 5 0.000000 0.000000 0.000000 0.000000 0.050354 0.000000
# 6 0.000000 0.000000 0.000000 0.000000 0.000000 0.081831
#
#
# Mechanical properties :
#
#
# Convention : Reuss Voigt Hill
#
# Bulk Modulus (GPa) = 49.73073 56.95692 53.34382
# Shear Modulus (GPa) = 16.14759 18.22176 17.18468
#
# Velocity S-wave (km/s) = 3.31219 3.51849 3.41690
# Velocity P-wave (km/s) = 6.95804 7.42985 7.19781
#
# Compressibility (1/GPa) = 0.02010829
#
# Stress axis : x y z
#
# Youngs Moduli (GPa) = 60.96013 33.86842 58.35370
#
# Poissons Ratio (x) = 0.46337 0.15849
# Poissons Ratio (y) = 0.83402 0.29655
# Poissons Ratio (z) = 0.16557 0.17212
#
# Static dielectric constant tensor:
#      x y z
#    x 3.365910 0.000000 0.000000 
#    y 0.000000 2.854390 0.000000 
#    z 0.000000 0.000000 2.908310 
# 
# 
# High freq. dielectric constant tensor:
#      x y z
#    x 1.559570 0.000000 0.000000 
#    y 0.000000 1.520730 0.000000 
#    z 0.000000 0.000000 1.575370 
# 
# From -- ./inp_files/13066.got.cif
#   From: 2010.06.25/outbox.cif.g09.slc.cpg/sg71_7_cif.got.tgz:13066.got - 2010.06.28 04:59:45.
