data_PCOD8287471
_publ_section_title
;
Structure prediction by ZEFSAII (Michael W. Deem and Ramdas Pophale) SiO2 
 PCOD8287471
Probable space group: I M M M
;
_chemical_formula_sum "Si O2"
_cell_formula_units_Z 120
_cell_length_a 20.490555
_cell_length_b 16.621307
_cell_length_c 20.527749
_cell_angle_alpha 90.000000
_cell_angle_beta 90.000000
_cell_angle_gamma 90.000000
_cell_volume 6991.336757
_symmetry_space_group_name_H-M "I M M M"
_symmetry_group_IT_number 71
_symmetry_cell_setting 'orthorhombic'
loop_
_space_group_symop_operation_xyz
x,y,z
-x,-y,z
x,-y,-z
-x,y,-z
-x,-y,-z
x,y,-z
-x,y,z
x,-y,z
1/2+x,1/2+y,1/2+z
1/2-x,1/2-y,1/2+z
1/2+x,1/2-y,1/2-z
1/2-x,1/2+y,1/2-z
1/2-x,1/2-y,1/2-z
1/2+x,1/2+y,1/2-z
1/2-x,1/2+y,1/2+z
1/2+x,1/2-y,1/2+z
loop_
_atom_site_type_symbol
_atom_site_label
_atom_site_fract_x
_atom_site_fract_y
_atom_site_fract_z
Si Si1 0.156139 0.796514 0.845836
Si Si2 0.572579 0.587410 0.423349
Si Si3 0.076921 0.500000 0.424487
Si Si4 0.673050 0.408104 0.156128
Si Si5 0.254664 0.090345 0.221427
Si Si6 0.075787 0.210646 0.279352
Si Si7 0.768222 0.224965 0.575681
Si Si8 0.636387 0.156827 0.858147
O O1 0.112071 0.835442 0.901025
O O2 0.197926 0.869503 0.819160
O O3 0.111400 0.761121 0.787562
O O4 0.202805 0.730090 0.879707
O O5 0.570663 0.590532 0.500000
O O6 0.500000 0.595033 0.394302
O O7 0.601488 0.500000 0.400958
O O8 0.096810 0.500000 0.500000
O O9 0.104910 0.579736 0.391429
O O10 0.000000 0.500000 0.414961
O O11 0.655886 0.500000 0.136911
O O12 0.736647 0.404750 0.202610
O O13 0.610272 0.369354 0.191916
O O14 0.693282 0.357407 0.092476
O O15 0.322974 0.133978 0.206831
O O16 0.260480 0.000000 0.196140
O O17 0.081172 0.281988 0.332590
O O18 0.000000 0.191645 0.266390
O O19 0.749038 0.224686 0.500000
O O20 0.815790 0.300277 0.589985
#
# Coordination Sequence:
#
# PCOD8287471 Si02
#       8
#    16  16   8  16  16  16  16  16
#     4  10  18  29  47  71 101 130 167 204 250 305
#     4   9  17  28  41  61  96 140 178 209 243 291
#     4  11  22  34  50  72  98 130 164 196 234 293
#     4   9  19  34  52  74  99 127 167 212 261 306
#     4   9  16  29  49  72  95 123 156 202 250 291
#     4  10  20  33  51  75 102 133 165 206 256 303
#     4  10  20  33  51  74 101 132 167 211 258 301
#     4  10  19  34  51  71  99 130 163 205 245 298
#
# _framework density 17.164100000000001
#
# number of rings (size 3 to 8) (size 9 to 14) (size 15 to 20)
#    0.000    2.333    0.667    3.200    0.000    4.267 
#    0.000    0.000    0.000    3.600    0.000    3.733 
#    0.000    0.000    0.000    7.600    0.000    0.000 
#
# Total GULP energy -743619.654638 kJ/mol
# GULP energy per Si atom -12393.660911 kJ/mol
# Density = 1.712503 g / cm^3
# Si number density = 17.164100 Si / 1000 Ang^3
#
#
#
# Elastic Constant Matrix: (Units=GPa)
#
#
# Indices 1 2 3 4 5 6 
#
# 1 85.6410 40.9657 34.1695 0.0000 0.0000 0.0000
# 2 40.9657 107.6730 39.5676 0.0000 0.0000 0.0000
# 3 34.1695 39.5676 70.4986 0.0000 0.0000 0.0000
# 4 0.0000 0.0000 0.0000 22.0588 0.0000 0.0000
# 5 0.0000 0.0000 0.0000 0.0000 17.5498 0.0000
# 6 0.0000 0.0000 0.0000 0.0000 0.0000 21.9276
#
#
#
# Elastic Compliance Matrix: (Units=1/GPa)
#
#
# Indices 1 2 3 4 5 6 
#
# 1 0.015742 -0.004013 -0.005377 0.000000 0.000000 0.000000
# 2 -0.004013 0.012724 -0.005196 0.000000 0.000000 0.000000
# 3 -0.005377 -0.005196 0.019707 0.000000 0.000000 0.000000
# 4 0.000000 0.000000 0.000000 0.045333 0.000000 0.000000
# 5 0.000000 0.000000 0.000000 0.000000 0.056981 0.000000
# 6 0.000000 0.000000 0.000000 0.000000 0.000000 0.045605
#
#
# Mechanical properties :
#
#
# Convention : Reuss Voigt Hill
#
# Bulk Modulus (GPa) = 52.63283 54.80204 53.71743
# Shear Modulus (GPa) = 21.58915 22.24791 21.91853
#
# Velocity S-wave (km/s) = 3.55041 3.60417 3.57739
# Velocity P-wave (km/s) = 6.89480 7.02265 6.95902
#
# Compressibility (1/GPa) = 0.01899955
#
# Stress axis : x y z
#
# Youngs Moduli (GPa) = 63.52516 78.59352 50.74235
#
# Poissons Ratio (x) = 0.31540 0.27286
# Poissons Ratio (y) = 0.25493 0.26366
# Poissons Ratio (z) = 0.34160 0.40838
#
# Static dielectric constant tensor:
#      x y z
#    x 3.190860 0.000000 0.000000 
#    y 0.000000 3.196350 0.000000 
#    z 0.000000 0.000000 3.069990 
# 
# 
# High freq. dielectric constant tensor:
#      x y z
#    x 1.655710 0.000000 0.000000 
#    y 0.000000 1.658260 0.000000 
#    z 0.000000 0.000000 1.652330 
# 
# From -- ./inp_files/46459.got.cif
#   From: 2010.06.25/outbox.cif.g09.slc.cpg/sg71_24_cif.got.tgz:46459.got - 2010.06.28 04:59:45.
