data_PCOD8287273
_publ_section_title
;
Structure prediction by ZEFSAII (Michael W. Deem and Ramdas Pophale) SiO2 
 PCOD8287273
Probable space group: I M M M
;
_chemical_formula_sum "Si O2"
_cell_formula_units_Z 104
_cell_length_a 23.318037
_cell_length_b 11.147188
_cell_length_c 27.137140
_cell_angle_alpha 90.000000
_cell_angle_beta 90.000000
_cell_angle_gamma 90.000000
_cell_volume 7053.771515
_symmetry_space_group_name_H-M "I M M M"
_symmetry_group_IT_number 71
_symmetry_cell_setting 'orthorhombic'
loop_
_space_group_symop_operation_xyz
x,y,z
-x,-y,z
x,-y,-z
-x,y,-z
-x,-y,-z
x,y,-z
-x,y,z
x,-y,z
1/2+x,1/2+y,1/2+z
1/2-x,1/2-y,1/2+z
1/2+x,1/2-y,1/2-z
1/2-x,1/2+y,1/2-z
1/2-x,1/2-y,1/2-z
1/2+x,1/2+y,1/2-z
1/2-x,1/2+y,1/2+z
1/2+x,1/2-y,1/2+z
loop_
_atom_site_type_symbol
_atom_site_label
_atom_site_fract_x
_atom_site_fract_y
_atom_site_fract_z
Si Si1 0.065308 0.761626 0.444389
Si Si2 0.062800 0.000000 0.709463
Si Si3 0.674696 0.500000 0.841194
Si Si4 0.277487 0.747799 0.816124
Si Si5 0.362290 0.500000 0.055230
Si Si6 0.173382 0.640828 0.218535
Si Si7 0.934503 0.739694 0.737413
Si Si8 0.123371 0.361796 0.358977
O O1 0.068808 0.713872 0.500000
O O2 0.094152 0.658975 0.411326
O O3 0.000000 0.781636 0.427834
O O4 0.098126 0.885238 0.437908
O O5 0.070161 0.882995 0.744018
O O6 0.105918 0.000000 0.663717
O O7 0.000000 0.000000 0.684868
O O8 0.698552 0.386953 0.811549
O O9 0.685830 0.500000 0.900856
O O10 0.208437 0.725101 0.821170
O O11 0.294045 0.830764 0.769636
O O12 0.310372 0.812362 0.861592
O O13 0.334012 0.500000 0.000000
O O14 0.177634 0.500000 0.205315
O O15 0.106524 0.678040 0.221584
O O16 0.912692 0.707110 0.682787
O O17 0.000000 0.694702 0.744931
O O18 0.123414 0.500000 0.345010
#
# Coordination Sequence:
#
# PCOD8287273 Si02
#       8
#    16   8   8  16   8  16  16  16
#     4  10  20  32  46  63  82 106 139 181 224 262
#     4  10  18  28  42  61  80 105 141 174 209 246
#     4  12  16  30  48  61  79 110 136 176 226 249
#     4  10  19  30  43  62  80 103 135 173 212 252
#     4  10  19  31  47  64  82 103 137 180 220 261
#     4  10  19  29  43  62  83 104 134 169 209 252
#     4  10  19  30  43  60  82 108 137 171 207 246
#     4  11  21  32  43  59  80 109 143 175 212 257
#
# _framework density 14.743886
#
# number of rings (size 3 to 8) (size 9 to 14) (size 15 to 20)
#    0.000    1.692    5.385    2.538    0.000    5.231 
#    1.385    0.769    0.000    0.000    0.000    0.000 
#    0.000    0.000    0.000    0.000    0.000    3.846 
#
# Total GULP energy -644194.974488 kJ/mol
# GULP energy per Si atom -12388.364894 kJ/mol
# Density = 1.471033 g / cm^3
# Si number density = 14.743886 Si / 1000 Ang^3
#
#
#
# Elastic Constant Matrix: (Units=GPa)
#
#
# Indices 1 2 3 4 5 6 
#
# 1 94.1470 21.5564 24.6618 0.0000 0.0000 0.0000
# 2 21.5564 78.7004 5.0240 0.0000 0.0000 0.0000
# 3 24.6618 5.0240 26.2236 0.0000 0.0000 0.0000
# 4 0.0000 0.0000 0.0000 15.0512 0.0000 0.0000
# 5 0.0000 0.0000 0.0000 0.0000 18.2879 0.0000
# 6 0.0000 0.0000 0.0000 0.0000 0.0000 17.7336
#
#
#
# Elastic Compliance Matrix: (Units=1/GPa)
#
#
# Indices 1 2 3 4 5 6 
#
# 1 0.014857 -0.003217 -0.013356 0.000000 0.000000 0.000000
# 2 -0.003217 0.013560 0.000427 0.000000 0.000000 0.000000
# 3 -0.013356 0.000427 0.050612 0.000000 0.000000 0.000000
# 4 0.000000 0.000000 0.000000 0.066440 0.000000 0.000000
# 5 0.000000 0.000000 0.000000 0.000000 0.054681 0.000000
# 6 0.000000 0.000000 0.000000 0.000000 0.000000 0.056390
#
#
# Mechanical properties :
#
#
# Convention : Reuss Voigt Hill
#
# Bulk Modulus (GPa) = 21.39557 33.50615 27.45086
# Shear Modulus (GPa) = 16.42524 20.06980 18.24752
#
# Velocity S-wave (km/s) = 3.34134 3.69349 3.52182
# Velocity P-wave (km/s) = 5.42486 6.40031 5.93266
#
# Compressibility (1/GPa) = 0.04673864
#
# Stress axis : x y z
#
# Youngs Moduli (GPa) = 67.30964 73.74508 19.75820
#
# Poissons Ratio (x) = 0.23722 0.26388
# Poissons Ratio (y) = 0.21652 -0.00844
# Poissons Ratio (z) = 0.89896 -0.03151
#
# Static dielectric constant tensor:
#      x y z
#    x 3.172340 0.000000 0.000000 
#    y 0.000000 2.953300 0.000000 
#    z 0.000000 0.000000 2.687810 
# 
# 
# High freq. dielectric constant tensor:
#      x y z
#    x 1.554960 0.000000 0.000000 
#    y 0.000000 1.581310 0.000000 
#    z 0.000000 0.000000 1.507570 
# 
# From -- ./inp_files/71085.got.cif
#   From: 2010.06.25/outbox.cif.g09.slc.cpg/sg71_36_cif.got.tgz:71085.got - 2010.06.28 04:59:45.
